AV-unprocessed.smi:247|AV-procd|sdf|1891|dock10
  -GOLD-   2262020553D 1   1.00000     0.00000
 Structure written by MMmdl.
 61 65  0  0  0  0  0  0  0  0  1 V2000
  145.6162  137.9767  159.3942 O   0  0  0  0  0  0  0  0  0  0  0  0
  145.4707  136.5703  159.3640 C   0  0  0  0  0  0  0  0  0  0  0  0
  146.5417  135.8198  160.2037 C   0  0  0  0  0  0  0  0  0  0  0  0
  147.9253  135.9728  159.4962 C   0  0  0  0  0  0  0  0  0  0  0  0
  148.0485  135.2823  158.2197 N   0  0  0  0  0  0  0  0  0  0  0  0
  148.8440  134.1933  157.9449 C   0  0  0  0  0  0  0  0  0  0  0  0
  148.7772  133.7503  156.7199 N   0  0  0  0  0  0  0  0  0  0  0  0
  147.8450  134.5786  156.1044 C   0  0  0  0  0  0  0  0  0  0  0  0
  147.2999  134.6613  154.7893 C   0  0  0  0  0  0  0  0  0  0  0  0
  147.6544  133.8223  153.7786 N   0  0  0  0  0  0  0  0  0  0  0  0
  148.9318  133.1231  153.8520 C   0  0  0  0  0  0  0  0  0  0  0  0
  148.7342  131.8083  153.0984 C   0  0  0  0  0  0  0  0  0  0  0  0
  147.2175  131.6367  153.0807 C   0  0  0  0  0  0  0  0  0  0  0  0
  146.6839  133.0768  152.9712 C   0  0  2  0  0  0  0  0  0  0  0  0
  146.5962  133.6108  151.5008 C   0  0  1  0  0  0  0  0  0  0  0  0
  145.8642  132.6118  150.5704 C   0  0  0  0  0  0  0  0  0  0  0  0
  144.4980  132.4865  150.9583 O   0  0  0  0  0  0  0  0  0  0  0  0
  143.7544  133.6899  150.7908 C   0  0  0  0  0  0  0  0  0  0  0  0
  144.3645  134.8226  151.6321 C   0  0  0  0  0  0  0  0  0  0  0  0
  145.8583  134.9639  151.3101 C   0  0  1  0  0  0  0  0  0  0  0  0
  146.4310  136.0423  152.0210 O   0  0  0  0  0  0  0  0  0  0  0  0
  146.3938  135.6471  154.5571 N   0  0  0  0  0  0  0  0  0  0  0  0
  146.0346  136.4861  155.5319 C   0  0  0  0  0  0  0  0  0  0  0  0
  146.4554  136.5231  156.7965 N   0  0  0  0  0  0  0  0  0  0  0  0
  147.3743  135.5453  157.0390 C   0  0  0  0  0  0  0  0  0  0  0  0
  146.5626  136.3804  161.6496 C   0  0  0  0  0  0  0  0  0  0  0  0
  147.4303  135.5310  162.5949 C   0  0  0  0  0  0  0  0  0  0  0  0
  146.9659  134.1866  162.5984 O   0  0  0  0  0  0  0  0  0  0  0  0
  147.0580  133.5609  161.3241 C   0  0  0  0  0  0  0  0  0  0  0  0
  146.1889  134.3126  160.2974 C   0  0  0  0  0  0  0  0  0  0  0  0
  144.8427  138.3506  159.7878 H   0  0  0  0  0  0  0  0  0  0  0  0
  144.4699  136.3276  159.7224 H   0  0  0  0  0  0  0  0  0  0  0  0
  145.5153  136.2659  158.3185 H   0  0  0  0  0  0  0  0  0  0  0  0
  148.1687  137.0192  159.3185 H   0  0  0  0  0  0  0  0  0  0  0  0
  148.7153  135.6029  160.1514 H   0  0  0  0  0  0  0  0  0  0  0  0
  149.4872  133.7387  158.6839 H   0  0  0  0  0  0  0  0  0  0  0  0
  149.7337  133.7176  153.4135 H   0  0  0  0  0  0  0  0  0  0  0  0
  149.1856  132.9205  154.8934 H   0  0  0  0  0  0  0  0  0  0  0  0
  149.1090  131.9036  152.0789 H   0  0  0  0  0  0  0  0  0  0  0  0
  149.2505  130.9711  153.5689 H   0  0  0  0  0  0  0  0  0  0  0  0
  146.8837  130.9499  152.3068 H   0  0  0  0  0  0  0  0  0  0  0  0
  146.8984  131.2122  154.0336 H   0  0  0  0  0  0  0  0  0  0  0  0
  145.6849  133.0924  153.4052 H   0  0  0  0  0  0  0  0  0  0  0  0
  147.6128  133.7347  151.1259 H   0  0  0  0  0  0  0  0  0  0  0  0
  145.9179  132.9452  149.5327 H   0  0  0  0  0  0  0  0  0  0  0  0
  146.3236  131.6263  150.5768 H   0  0  0  0  0  0  0  0  0  0  0  0
  143.7326  133.9640  149.7349 H   0  0  0  0  0  0  0  0  0  0  0  0
  142.7221  133.5127  151.0928 H   0  0  0  0  0  0  0  0  0  0  0  0
  143.8410  135.7572  151.4283 H   0  0  0  0  0  0  0  0  0  0  0  0
  144.2198  134.6123  152.6910 H   0  0  0  0  0  0  0  0  0  0  0  0
  145.9437  135.2451  150.2593 H   0  0  0  0  0  0  0  0  0  0  0  0
  147.3603  135.8910  152.0995 H   0  0  0  0  0  0  0  0  0  0  0  0
  145.3062  137.2351  155.2579 H   0  0  0  0  0  0  0  0  0  0  0  0
  146.8883  137.4198  161.6664 H   0  0  0  0  0  0  0  0  0  0  0  0
  145.5515  136.3884  162.0575 H   0  0  0  0  0  0  0  0  0  0  0  0
  148.4839  135.5670  162.3175 H   0  0  0  0  0  0  0  0  0  0  0  0
  147.3623  135.9232  163.6098 H   0  0  0  0  0  0  0  0  0  0  0  0
  148.0996  133.5022  161.0081 H   0  0  0  0  0  0  0  0  0  0  0  0
  146.7080  132.5328  161.4188 H   0  0  0  0  0  0  0  0  0  0  0  0
  145.1491  134.1864  160.5999 H   0  0  0  0  0  0  0  0  0  0  0  0
  146.2742  133.8391  159.3186 H   0  0  0  0  0  0  0  0  0  0  0  0
  1  2  1  0  0  0  0
  1 31  1  0  0  0  0
  2  3  1  0  0  0  0
  2 32  1  0  0  0  0
  2 33  1  0  0  0  0
  3 30  1  0  0  0  0
  3  4  1  0  0  0  0
  3 26  1  0  0  0  0
  4  5  1  0  0  0  0
  4 34  1  0  0  0  0
  4 35  1  0  0  0  0
  5 25  1  0  0  0  0
  5  6  1  0  0  0  0
  6  7  2  0  0  0  0
  6 36  1  0  0  0  0
  7  8  1  0  0  0  0
  8 25  2  0  0  0  0
  8  9  1  0  0  0  0
  9 10  1  0  0  0  0
  9 22  2  0  0  0  0
 10 14  1  0  0  0  0
 10 11  1  0  0  0  0
 11 12  1  0  0  0  0
 11 37  1  0  0  0  0
 11 38  1  0  0  0  0
 12 13  1  0  0  0  0
 12 39  1  0  0  0  0
 12 40  1  0  0  0  0
 13 14  1  0  0  0  0
 13 41  1  0  0  0  0
 13 42  1  0  0  0  0
 14 15  1  0  0  0  0
 14 43  1  0  0  0  0
 15 20  1  0  0  0  0
 15 16  1  0  0  0  0
 15 44  1  0  0  0  0
 16 17  1  0  0  0  0
 16 45  1  0  0  0  0
 16 46  1  0  0  0  0
 17 18  1  0  0  0  0
 18 19  1  0  0  0  0
 18 47  1  0  0  0  0
 18 48  1  0  0  0  0
 19 20  1  0  0  0  0
 19 49  1  0  0  0  0
 19 50  1  0  0  0  0
 20 21  1  0  0  0  0
 20 51  1  0  0  0  0
 21 52  1  0  0  0  0
 22 23  1  0  0  0  0
 23 24  2  0  0  0  0
 23 53  1  0  0  0  0
 24 25  1  0  0  0  0
 26 27  1  0  0  0  0
 26 54  1  0  0  0  0
 26 55  1  0  0  0  0
 27 28  1  0  0  0  0
 27 56  1  0  0  0  0
 27 57  1  0  0  0  0
 28 29  1  0  0  0  0
 29 30  1  0  0  0  0
 29 58  1  0  0  0  0
 29 59  1  0  0  0  0
 30 60  1  0  0  0  0
 30 61  1  0  0  0  0
M  END
> <s_m_source_file>
AV-unprocessed.smi

> <i_m_source_file_index>
247

> <i_lp_mmshare_version>
43012

> <i_f3d_flags>
0

> <s_epik_input>
W0NIMl0xW0NIMl1PW0NIMl1bQ0gyXUMxKFtDSDJdW09IXSlbQ0gyXW4oW2NIXW4yKWMoYzIzKW5bY0hdbmMzTjRbQ0gyXVtDSDJdW0NIMl1bQ0BIXTRbQ0BASF01W0NIMl1PW0NIMl1bQ0gyXVtDQEhdNVtPSF0=

> <s_epik_cmdline>
J2VwaWtfcHl0aG9uJywgJy1waCcsICc3LjAnLCAnLXRuJywgJzgnLCAnLW1hJywgJzIwMCcsICctbWV0YWxfYmluZGluZycsICctaW1hZScsICc8aW5maWxlLm1hZT4nLCAnLW9tYWUnLCAnPG91dGZpbGUubWFlPic=

> <r_lp_tautomer_probability>
1

> <r_epik_Ionization_Penalty>
0.00362597

> <r_epik_Ionization_Penalty_Charging>
0

> <r_epik_Ionization_Penalty_Neutral>
0.00362597

> <r_epik_State_Penalty>
0.00241433

> <r_epik_Charging_Adjusted_Penalty>
0.00241433

> <i_epik_Tot_Q>
0

> <i_epik_Tot_abs_Q>
0

> <r_epik_Metal_State_Penalty>
-0

> <b_epik_Metal_Only>
0

> <s_lp_Force_Field>
OPLS_2005

> <r_lp_Energy>
63.0173

> <b_lp_Chiralities_Consistent>
1

> <s_lp_Variant>
AV-unprocessed.smi:247-4

> <Gold.Version>
5.8.1

> <Gold.Id.Protein>
6NUR|6NUR_protein|mol2

> <Gold.PLP.Fitness>
42.1811

> <Gold.PLP.PLP>
-38.5109

> <Gold.PLP.part.hbond>
-2.3499

> <Gold.PLP.part.metal>
0.0000

> <Gold.PLP.part.buried>
-5.2747

> <Gold.PLP.part.nonpolar>
-31.3775

> <Gold.PLP.part.repulsive>
0.1848

> <Gold.PLP.ligand.clash>
0.0000

> <Gold.PLP.ligand.torsion>
0.8895

> <Gold.PLP.Chemscore.Hbond>
1.7137

> <Gold.PLP.Chemscore.CHOScore>
0.0000

> <Gold.PLP.Chemscore.Metal>
0.0000

> <Gold.Chemscore.Hbonds>
donor molecule, donor type, donor heavy atom, donor atom, acceptor molecule, acceptor atom, score
      L1  H    21    52       P1  7948  1.00
      P1  H  6934  6947       L1     1  0.05

> <Gold.PLP.Chemscore.Internal.Correction>
0.3082

> <Gold.Rescore>
     Score         DG    S(hbond)    S(metal)    S(lipo)     H(rot)  DE(clash)    DE(int)     intcor
      9.49     -14.28       1.78        0.00      88.74       2.94       0.24       4.55       ----

> <Gold.Chemscore.Fitness>
9.4908

> <Gold.Chemscore.DG>
-14.2792

> <Gold.Chemscore.ZeroCoef>
-5.4800

> <Gold.Chemscore.Hbond>
1.7811

> <Gold.Chemscore.Metal>
0.0000

> <Gold.Chemscore.Lipo>
88.7408

> <Gold.Chemscore.Internal_Hbond>
0.0000

> <Gold.Chemscore.DEClash>
0.2405

> <Gold.Chemscore.DEInternal>
4.5479

> <Gold.Chemscore.Rot>
2.9423

> <Gold.Chemscore.Internal.Correction>
   9.000000E+99

> <Gold.Chemscore.Hbonds>
donor molecule, donor type, donor heavy atom, donor atom, acceptor molecule, acceptor atom, score
      L1  H    21    52       P1  7948  0.97
      P1  H  6934  6947       L1     1  0.01

> <Gold.Chemscore.Hbond.Weighted>
-5.9488

> <Gold.Chemscore.Metal.Weighted>
-0.0000

> <Gold.Chemscore.Lipo.Weighted>
-10.3827

> <Gold.Chemscore.Internal_Hbond.Weighted>
0.0000

> <Gold.Chemscore.DEClash.Weighted>
0.2405

> <Gold.Chemscore.DEInternal.Weighted>
4.5479

> <Gold.Chemscore.Rot.Weighted>
7.5323

> <Gold.Chemscore.Internal.Correction.Weighted>
   9.000000E+99

> <Gold.Protein.RotatedTorsions>
[ 6907 6896 6895 6894 ] final -159.95 input  -60.11 | X-H torsion
[ 7974 7965 7964 7962 ] final   -9.11 input  175.53 | X-H torsion
[ 8008 7997 7996 7995 ] final  136.70 input   59.86 | X-H torsion
[ 10167 10162 10161 10158 ] final  121.42 input  -65.29 | X-H torsion
[ 10718 10713 10712 10709 ] final   38.94 input   66.30 | X-H torsion
[ 10763 10752 10751 10750 ] final  174.61 input  -60.55 | X-H torsion
[ 11005 11000 10999 10996 ] final  136.59 input  -57.11 | X-H torsion

> <Gold.Protein.ActiveResidues>
 VAL166  LYS551  ARG553  GLY616  TRP617  ASP618  TYR619  PRO620  LYS621  CYS622 
 ASP623  PHE694  ASN695  SER759  ASP760  ASP761  ALA762  ILE779  LEU786  VAL792 
 PHE793  MET794  SER795  GLU796  ALA797  LYS798  CYS799  TRP800  GLU811  SER814 

> <Gold.Protein.RotatedAtoms>
  151.3415  133.3960  159.2671 H   0  0  0  0  0  0  0  0  0  0  0  0  # atno 6907 bound_to 6896
  150.9874  134.9217  159.7890 H   0  0  0  0  0  0  0  0  0  0  0  0  # atno 6908 bound_to 6896
  152.5236  134.3380  159.9259 H   0  0  0  0  0  0  0  0  0  0  0  0  # atno 6909 bound_to 6896
  146.2261  140.2568  142.8350 H   0  0  0  0  0  0  0  0  0  0  0  0  # atno 7974 bound_to 7965
  156.3003  140.2438  156.3788 H   0  0  0  0  0  0  0  0  0  0  0  0  # atno 8008 bound_to 7997
  154.8720  140.0416  157.1750 H   0  0  0  0  0  0  0  0  0  0  0  0  # atno 8009 bound_to 7997
  154.8785  140.2945  155.5443 H   0  0  0  0  0  0  0  0  0  0  0  0  # atno 8010 bound_to 7997
  139.5920  144.7028  151.3266 H   0  0  0  0  0  0  0  0  0  0  0  0  # atno 10167 bound_to 10162
  157.3648  130.7669  149.7074 H   0  0  0  0  0  0  0  0  0  0  0  0  # atno 10718 bound_to 10713
  154.4562  135.2766  155.1745 H   0  0  0  0  0  0  0  0  0  0  0  0  # atno 10763 bound_to 10752
  154.3552  135.6141  153.5666 H   0  0  0  0  0  0  0  0  0  0  0  0  # atno 10764 bound_to 10752
  152.9851  135.5821  154.4916 H   0  0  0  0  0  0  0  0  0  0  0  0  # atno 10765 bound_to 10752
  140.0057  134.9460  157.0169 H   0  0  0  0  0  0  0  0  0  0  0  0  # atno 11005 bound_to 11000
  144.9369  140.8037  143.5654 LP  0  0  0  0  0  0  0  0  0  0  0  0  # atno 17320 bound_to 7965
  145.2517  139.2029  143.4939 LP  0  0  0  0  0  0  0  0  0  0  0  0  # atno 17321 bound_to 7965
  140.7181  143.7211  150.7695 LP  0  0  0  0  0  0  0  0  0  0  0  0  # atno 17342 bound_to 10162
  140.0769  143.5007  152.2551 LP  0  0  0  0  0  0  0  0  0  0  0  0  # atno 17343 bound_to 10162
  155.9744  130.4104  150.3927 LP  0  0  0  0  0  0  0  0  0  0  0  0  # atno 17370 bound_to 10713
  157.2009  131.0438  151.2651 LP  0  0  0  0  0  0  0  0  0  0  0  0  # atno 17371 bound_to 10713
  140.4646  134.1448  155.7195 LP  0  0  0  0  0  0  0  0  0  0  0  0  # atno 17394 bound_to 11000
  141.1675  133.8675  157.1672 LP  0  0  0  0  0  0  0  0  0  0  0  0  # atno 17395 bound_to 11000

$$$$
