AV-unprocessed.smi:1100|AV-procd|sdf|4760|dock2
  -GOLD-   22720 3293D 1   1.00000     0.00000
 Structure written by MMmdl.
 43 44  0  0  0  0  0  0  0  0  1 V2000
  151.1276  135.4787  156.6779 C   0  0  0  0  0  0  0  0  0  0  0  0
  150.3009  136.0698  155.5073 C   0  0  1  0  0  0  0  0  0  0  0  0
  148.9197  135.3527  155.4513 C   0  0  0  0  0  0  0  0  0  0  0  0
  148.4172  135.1613  154.0931 N   0  0  0  0  0  0  0  0  0  0  0  0
  147.3847  134.3756  153.7553 C   0  0  0  0  0  0  0  0  0  0  0  0
  146.7619  133.6959  154.5704 O   0  0  0  0  0  0  0  0  0  0  0  0
  147.1313  134.4592  152.4365 N   0  0  0  0  0  0  0  0  0  0  0  0
  146.1454  133.8078  151.6819 C   0  0  0  0  0  0  0  0  0  0  0  0
  144.7115  133.8830  151.9227 C   0  0  0  0  0  0  0  0  0  0  0  0
  143.8433  133.2169  151.1358 C   0  0  0  0  0  0  0  0  0  0  0  0
  144.2968  132.3934  150.0122 C   0  0  0  0  0  0  0  0  0  0  0  0
  143.5123  131.7833  149.2851 O   0  0  0  0  0  0  0  0  0  0  0  0
  145.6472  132.3441  149.8259 N   0  0  0  0  0  0  0  0  0  0  0  0
  146.2029  131.5441  148.7317 C   0  0  0  0  0  0  0  0  0  0  0  0
  146.5486  133.0394  150.6535 C   0  0  0  0  0  0  0  0  0  0  0  0
  150.1927  137.5462  155.5714 N   0  0  0  0  0  0  0  0  0  0  0  0
  151.5041  138.2025  155.6351 C   0  0  0  0  0  0  0  0  0  0  0  0
  151.4061  139.7374  155.6687 C   0  0  0  0  0  0  0  0  0  0  0  0
  150.6873  140.1959  154.5326 O   0  0  0  0  0  0  0  0  0  0  0  0
  149.3782  139.6468  154.4744 C   0  0  0  0  0  0  0  0  0  0  0  0
  149.4601  138.1107  154.4317 C   0  0  0  0  0  0  0  0  0  0  0  0
  151.1670  134.3905  156.6529 H   0  0  0  0  0  0  0  0  0  0  0  0
  150.7102  135.7693  157.6424 H   0  0  0  0  0  0  0  0  0  0  0  0
  152.1685  135.7976  156.6503 H   0  0  0  0  0  0  0  0  0  0  0  0
  150.8310  135.8163  154.5879 H   0  0  0  0  0  0  0  0  0  0  0  0
  148.9915  134.3736  155.9260 H   0  0  0  0  0  0  0  0  0  0  0  0
  148.1518  135.9024  155.9940 H   0  0  0  0  0  0  0  0  0  0  0  0
  148.8746  135.6863  153.3622 H   0  0  0  0  0  0  0  0  0  0  0  0
  147.7185  135.0885  151.9092 H   0  0  0  0  0  0  0  0  0  0  0  0
  144.3026  134.4566  152.7382 H   0  0  0  0  0  0  0  0  0  0  0  0
  142.7853  133.2862  151.3411 H   0  0  0  0  0  0  0  0  0  0  0  0
  147.2857  131.6410  148.6460 H   0  0  0  0  0  0  0  0  0  0  0  0
  145.7758  131.8492  147.7752 H   0  0  0  0  0  0  0  0  0  0  0  0
  145.9792  130.4870  148.8819 H   0  0  0  0  0  0  0  0  0  0  0  0
  147.5902  132.9131  150.3946 H   0  0  0  0  0  0  0  0  0  0  0  0
  152.0421  137.8994  156.5315 H   0  0  0  0  0  0  0  0  0  0  0  0
  152.1116  137.8979  154.7816 H   0  0  0  0  0  0  0  0  0  0  0  0
  150.9137  140.0742  156.5823 H   0  0  0  0  0  0  0  0  0  0  0  0
  152.4024  140.1798  155.6606 H   0  0  0  0  0  0  0  0  0  0  0  0
  148.7968  139.9792  155.3359 H   0  0  0  0  0  0  0  0  0  0  0  0
  148.8744  140.0234  153.5841 H   0  0  0  0  0  0  0  0  0  0  0  0
  149.9302  137.7990  153.4977 H   0  0  0  0  0  0  0  0  0  0  0  0
  148.4366  137.7423  154.4105 H   0  0  0  0  0  0  0  0  0  0  0  0
  1  2  1  0  0  0  0
  1 22  1  0  0  0  0
  1 23  1  0  0  0  0
  1 24  1  0  0  0  0
  2  3  1  0  0  0  0
  2 16  1  0  0  0  0
  2 25  1  0  0  0  0
  3  4  1  0  0  0  0
  3 26  1  0  0  0  0
  3 27  1  0  0  0  0
  4  5  1  0  0  0  0
  4 28  1  0  0  0  0
  5  6  2  0  0  0  0
  5  7  1  0  0  0  0
  7  8  1  0  0  0  0
  7 29  1  0  0  0  0
  8 15  2  0  0  0  0
  8  9  1  0  0  0  0
  9 10  2  0  0  0  0
  9 30  1  0  0  0  0
 10 11  1  0  0  0  0
 10 31  1  0  0  0  0
 11 12  2  0  0  0  0
 11 13  1  0  0  0  0
 13 14  1  0  0  0  0
 13 15  1  0  0  0  0
 14 32  1  0  0  0  0
 14 33  1  0  0  0  0
 14 34  1  0  0  0  0
 15 35  1  0  0  0  0
 16 21  1  0  0  0  0
 16 17  1  0  0  0  0
 17 18  1  0  0  0  0
 17 36  1  0  0  0  0
 17 37  1  0  0  0  0
 18 19  1  0  0  0  0
 18 38  1  0  0  0  0
 18 39  1  0  0  0  0
 19 20  1  0  0  0  0
 20 21  1  0  0  0  0
 20 40  1  0  0  0  0
 20 41  1  0  0  0  0
 21 42  1  0  0  0  0
 21 43  1  0  0  0  0
M  END
> <s_m_source_file>
AV-unprocessed.smi

> <i_m_source_file_index>
1100

> <i_lp_mmshare_version>
43012

> <i_f3d_flags>
0

> <s_epik_input>
W0NIMl0xW0NIMl1PW0NIMl1bQ0gyXU4xW0NASF0oW0NIM10pW0NIMl1bTkhdQyg9TylbTkhdYzJbY0hdW2NIXWMoPU8pbihbQ0gzXSlbY0hdMg==

> <s_epik_cmdline>
J2VwaWtfcHl0aG9uJywgJy1waCcsICc3LjAnLCAnLXRuJywgJzgnLCAnLW1hJywgJzIwMCcsICctbWV0YWxfYmluZGluZycsICctaW1hZScsICc8aW5maWxlLm1hZT4nLCAnLW9tYWUnLCAnPG91dGZpbGUubWFlPic=

> <r_lp_tautomer_probability>
1

> <r_epik_Ionization_Penalty>
0.266016

> <r_epik_Ionization_Penalty_Charging>
5.79683e-06

> <r_epik_Ionization_Penalty_Neutral>
0.26601

> <r_epik_State_Penalty>
0.257924

> <r_epik_Charging_Adjusted_Penalty>
0.25793

> <i_epik_Tot_Q>
0

> <i_epik_Tot_abs_Q>
0

> <r_epik_Metal_State_Penalty>
0.260326

> <b_epik_Metal_Only>
0

> <s_lp_Force_Field>
OPLS_2005

> <r_lp_Energy>
41.8839

> <b_lp_Chiralities_Consistent>
1

> <s_lp_Variant>
AV-unprocessed.smi:1100-2

> <Gold.Version>
5.8.1

> <Gold.Id.Protein>
6NUR|6NUR_protein|mol2

> <Gold.PLP.Fitness>
46.9389

> <Gold.PLP.PLP>
-34.0490

> <Gold.PLP.part.hbond>
-3.8994

> <Gold.PLP.part.metal>
0.0000

> <Gold.PLP.part.buried>
-3.0969

> <Gold.PLP.part.nonpolar>
-28.4079

> <Gold.PLP.part.repulsive>
0.9119

> <Gold.PLP.ligand.clash>
0.0000

> <Gold.PLP.ligand.torsion>
1.0360

> <Gold.PLP.Chemscore.Hbond>
3.9760

> <Gold.PLP.Chemscore.CHOScore>
1.0000

> <Gold.PLP.Chemscore.Metal>
0.0000

> <Gold.Chemscore.Hbonds>
donor molecule, donor type, donor heavy atom, donor atom, acceptor molecule, acceptor atom, score
      L1  H     4    28       P1  7948  1.00
      L1  H     7    29       P1  7948  1.00
      P1  H  7989  7998       L1    19  1.00
      P1  H 10785 10796       L1    12  0.96
      L1  C    15    35       P1 10747  1.00

> <Gold.PLP.Chemscore.Internal.Correction>
0.0338

> <Gold.Rescore>
     Score         DG    S(hbond)    S(metal)    S(lipo)     H(rot)  DE(clash)    DE(int)     intcor
     21.47     -22.83       3.85        0.00      71.03       1.49       0.31       1.04       ----

> <Gold.Chemscore.Fitness>
21.4741

> <Gold.Chemscore.DG>
-22.8282

> <Gold.Chemscore.ZeroCoef>
-5.4800

> <Gold.Chemscore.Hbond>
3.8509

> <Gold.Chemscore.Metal>
0.0000

> <Gold.Chemscore.Lipo>
71.0285

> <Gold.Chemscore.Internal_Hbond>
0.0000

> <Gold.Chemscore.DEClash>
0.3095

> <Gold.Chemscore.DEInternal>
1.0446

> <Gold.Chemscore.Rot>
1.4938

> <Gold.Chemscore.Internal.Correction>
   9.000000E+99

> <Gold.Chemscore.Hbonds>
donor molecule, donor type, donor heavy atom, donor atom, acceptor molecule, acceptor atom, score
      L1  H     4    28       P1  7948  0.85
      L1  H     7    29       P1  7948  0.78
      P1  H  7989  7998       L1    19  0.78
      P1  H 10785 10796       L1    12  0.92

> <Gold.Chemscore.Hbond.Weighted>
-12.8620

> <Gold.Chemscore.Metal.Weighted>
-0.0000

> <Gold.Chemscore.Lipo.Weighted>
-8.3103

> <Gold.Chemscore.Internal_Hbond.Weighted>
0.0000

> <Gold.Chemscore.DEClash.Weighted>
0.3095

> <Gold.Chemscore.DEInternal.Weighted>
1.0446

> <Gold.Chemscore.Rot.Weighted>
3.8242

> <Gold.Chemscore.Internal.Correction.Weighted>
   9.000000E+99

> <Gold.Protein.RotatedTorsions>
[ 6907 6896 6895 6894 ] final  165.09 input  -60.11 | X-H torsion
[ 7974 7965 7964 7962 ] final -176.79 input  175.53 | X-H torsion
[ 8008 7997 7996 7995 ] final   62.23 input   59.86 | X-H torsion
[ 10167 10162 10161 10158 ] final -123.05 input  -65.29 | X-H torsion
[ 10718 10713 10712 10709 ] final   74.85 input   66.30 | X-H torsion
[ 10763 10752 10751 10750 ] final   84.35 input  -60.55 | X-H torsion
[ 11005 11000 10999 10996 ] final -149.31 input  -57.11 | X-H torsion

> <Gold.Protein.ActiveResidues>
 VAL166  LYS551  ARG553  GLY616  TRP617  ASP618  TYR619  PRO620  LYS621  CYS622 
 ASP623  PHE694  ASN695  SER759  ASP760  ASP761  ALA762  ILE779  LEU786  VAL792 
 PHE793  MET794  SER795  GLU796  ALA797  LYS798  CYS799  TRP800  GLU811  SER814 

> <Gold.Protein.RotatedAtoms>
  151.8997  133.3535  159.3826 H   0  0  0  0  0  0  0  0  0  0  0  0  # atno 6907 bound_to 6896
  150.7083  134.4840  159.5493 H   0  0  0  0  0  0  0  0  0  0  0  0  # atno 6908 bound_to 6896
  152.2426  134.8213  160.0509 H   0  0  0  0  0  0  0  0  0  0  0  0  # atno 6909 bound_to 6896
  144.7127  140.1118  143.6410 H   0  0  0  0  0  0  0  0  0  0  0  0  # atno 7974 bound_to 7965
  155.6110  140.3495  155.4622 H   0  0  0  0  0  0  0  0  0  0  0  0  # atno 8008 bound_to 7997
  156.0154  140.1242  157.0436 H   0  0  0  0  0  0  0  0  0  0  0  0  # atno 8009 bound_to 7997
  154.4295  140.1073  156.5874 H   0  0  0  0  0  0  0  0  0  0  0  0  # atno 8010 bound_to 7997
  140.0077  143.5475  152.2277 H   0  0  0  0  0  0  0  0  0  0  0  0  # atno 10167 bound_to 10162
  157.6610  130.9698  150.1270 H   0  0  0  0  0  0  0  0  0  0  0  0  # atno 10718 bound_to 10713
  153.1374  135.4657  154.9443 H   0  0  0  0  0  0  0  0  0  0  0  0  # atno 10763 bound_to 10752
  154.7717  135.3161  154.8177 H   0  0  0  0  0  0  0  0  0  0  0  0  # atno 10764 bound_to 10752
  153.8707  135.6904  153.4828 H   0  0  0  0  0  0  0  0  0  0  0  0  # atno 10765 bound_to 10752
  140.7521  134.3395  157.5123 H   0  0  0  0  0  0  0  0  0  0  0  0  # atno 11005 bound_to 11000
  145.9448  139.2693  143.1247 LP  0  0  0  0  0  0  0  0  0  0  0  0  # atno 17320 bound_to 7965
  145.9385  140.8997  143.0320 LP  0  0  0  0  0  0  0  0  0  0  0  0  # atno 17321 bound_to 7965
  139.6227  144.7632  151.2705 LP  0  0  0  0  0  0  0  0  0  0  0  0  # atno 17342 bound_to 10162
  140.7394  143.6619  150.8157 LP  0  0  0  0  0  0  0  0  0  0  0  0  # atno 17343 bound_to 10162
  156.2127  130.3668  149.8651 LP  0  0  0  0  0  0  0  0  0  0  0  0  # atno 17370 bound_to 10713
  156.6525  130.8749  151.3534 LP  0  0  0  0  0  0  0  0  0  0  0  0  # atno 17371 bound_to 10713
  139.8786  134.9148  156.3116 LP  0  0  0  0  0  0  0  0  0  0  0  0  # atno 17394 bound_to 11000
  140.9741  133.7308  156.0577 LP  0  0  0  0  0  0  0  0  0  0  0  0  # atno 17395 bound_to 11000

$$$$
