AV-unprocessed.smi:2704|AV-procd|sdf|10442|dock7
  -GOLD-   2272014483D 1   1.00000     0.00000
 Structure written by MMmdl.
 43 44  0  0  0  0  0  0  0  0  1 V2000
  145.8983  134.9895  162.0569 C   0  0  0  0  0  0  0  0  0  0  0  0
  146.3163  136.4299  161.7261 C   0  0  0  0  0  0  0  0  0  0  0  0
  145.1269  137.3992  161.6694 C   0  0  0  0  0  0  0  0  0  0  0  0
  147.1493  136.4924  160.4819 C   0  0  0  0  0  0  0  0  0  0  0  0
  146.6358  136.1892  159.2952 N   0  0  0  0  0  0  0  0  0  0  0  0
  147.7080  136.3910  158.4148 O   0  0  0  0  0  0  0  0  0  0  0  0
  148.7426  136.8090  159.1821 C   0  0  0  0  0  0  0  0  0  0  0  0
  150.0611  137.0738  158.5293 C   0  0  0  0  0  0  0  0  0  0  0  0
  150.0268  138.1863  157.4649 C   0  0  0  0  0  0  0  0  0  0  0  0
  150.2769  139.5105  158.0276 N   0  0  0  0  0  0  0  0  0  0  0  0
  150.5765  140.6196  157.3285 C   0  0  0  0  0  0  0  0  0  0  0  0
  150.6702  140.6184  156.1003 O   0  0  0  0  0  0  0  0  0  0  0  0
  150.8224  141.9297  158.1122 C   0  0  0  0  0  0  0  0  0  0  0  0
  149.6250  142.3609  158.7441 O   0  0  0  0  0  0  0  0  0  0  0  0
  151.8880  141.6861  159.2092 C   0  0  0  0  0  0  0  0  0  0  0  0
  152.3163  142.9779  159.9284 C   0  0  0  0  0  0  0  0  0  0  0  0
  152.7944  144.0409  158.9295 C   0  0  0  0  0  0  0  0  0  0  0  0
  151.7150  144.3325  157.8773 C   0  0  0  0  0  0  0  0  0  0  0  0
  151.2867  143.0480  157.1445 C   0  0  0  0  0  0  0  0  0  0  0  0
  148.4575  136.8753  160.4806 N   0  0  0  0  0  0  0  0  0  0  0  0
  146.7706  134.3445  162.1681 H   0  0  0  0  0  0  0  0  0  0  0  0
  145.2692  134.5674  161.2724 H   0  0  0  0  0  0  0  0  0  0  0  0
  145.3366  134.9485  162.9903 H   0  0  0  0  0  0  0  0  0  0  0  0
  146.9444  136.7650  162.5534 H   0  0  0  0  0  0  0  0  0  0  0  0
  145.4634  138.4232  161.5053 H   0  0  0  0  0  0  0  0  0  0  0  0
  144.5630  137.3833  162.6023 H   0  0  0  0  0  0  0  0  0  0  0  0
  144.4406  137.1375  160.8639 H   0  0  0  0  0  0  0  0  0  0  0  0
  150.7802  137.3351  159.3062 H   0  0  0  0  0  0  0  0  0  0  0  0
  150.4181  136.1458  158.0811 H   0  0  0  0  0  0  0  0  0  0  0  0
  150.7377  137.9651  156.6672 H   0  0  0  0  0  0  0  0  0  0  0  0
  149.0430  138.2053  156.9957 H   0  0  0  0  0  0  0  0  0  0  0  0
  150.2232  139.5978  159.0325 H   0  0  0  0  0  0  0  0  0  0  0  0
  149.0884  142.7944  158.0982 H   0  0  0  0  0  0  0  0  0  0  0  0
  151.5139  140.9686  159.9406 H   0  0  0  0  0  0  0  0  0  0  0  0
  152.7767  141.2321  158.7679 H   0  0  0  0  0  0  0  0  0  0  0  0
  151.4840  143.3716  160.5130 H   0  0  0  0  0  0  0  0  0  0  0  0
  153.1116  142.7561  160.6406 H   0  0  0  0  0  0  0  0  0  0  0  0
  153.0563  144.9578  159.4583 H   0  0  0  0  0  0  0  0  0  0  0  0
  153.7042  143.6970  158.4356 H   0  0  0  0  0  0  0  0  0  0  0  0
  150.8504  144.7928  158.3565 H   0  0  0  0  0  0  0  0  0  0  0  0
  152.0882  145.0608  157.1568 H   0  0  0  0  0  0  0  0  0  0  0  0
  152.1328  142.6987  156.5500 H   0  0  0  0  0  0  0  0  0  0  0  0
  150.4951  143.2819  156.4310 H   0  0  0  0  0  0  0  0  0  0  0  0
  1  2  1  0  0  0  0
  1 21  1  0  0  0  0
  1 22  1  0  0  0  0
  1 23  1  0  0  0  0
  2  3  1  0  0  0  0
  2  4  1  0  0  0  0
  2 24  1  0  0  0  0
  3 25  1  0  0  0  0
  3 26  1  0  0  0  0
  3 27  1  0  0  0  0
  4 20  1  0  0  0  0
  4  5  2  0  0  0  0
  5  6  1  0  0  0  0
  6  7  1  0  0  0  0
  7  8  1  0  0  0  0
  7 20  2  0  0  0  0
  8  9  1  0  0  0  0
  8 28  1  0  0  0  0
  8 29  1  0  0  0  0
  9 10  1  0  0  0  0
  9 30  1  0  0  0  0
  9 31  1  0  0  0  0
 10 11  1  0  0  0  0
 10 32  1  0  0  0  0
 11 12  2  0  0  0  0
 11 13  1  0  0  0  0
 13 19  1  0  0  0  0
 13 14  1  0  0  0  0
 13 15  1  0  0  0  0
 14 33  1  0  0  0  0
 15 16  1  0  0  0  0
 15 34  1  0  0  0  0
 15 35  1  0  0  0  0
 16 17  1  0  0  0  0
 16 36  1  0  0  0  0
 16 37  1  0  0  0  0
 17 18  1  0  0  0  0
 17 38  1  0  0  0  0
 17 39  1  0  0  0  0
 18 19  1  0  0  0  0
 18 40  1  0  0  0  0
 18 41  1  0  0  0  0
 19 42  1  0  0  0  0
 19 43  1  0  0  0  0
M  END
> <s_m_source_file>
AV-unprocessed.smi

> <i_m_source_file_index>
2704

> <i_lp_mmshare_version>
43012

> <i_f3d_flags>
0

> <s_epik_input>
W0NIM11bQ0hdKFtDSDNdKWMxbm9jKG4xKVtDSDJdW0NIMl1bTkhdQyg9TylDMihbT0hdKVtDSDJdW0NIMl1bQ0gyXVtDSDJdW0NIMl0y

> <s_epik_cmdline>
J2VwaWtfcHl0aG9uJywgJy1waCcsICc3LjAnLCAnLXRuJywgJzgnLCAnLW1hJywgJzIwMCcsICctbWV0YWxfYmluZGluZycsICctaW1hZScsICc8aW5maWxlLm1hZT4nLCAnLW9tYWUnLCAnPG91dGZpbGUubWFlPic=

> <r_lp_tautomer_probability>
1

> <r_epik_Ionization_Penalty>
7.72761e-08

> <r_epik_Ionization_Penalty_Charging>
0

> <r_epik_Ionization_Penalty_Neutral>
7.72761e-08

> <r_epik_State_Penalty>
-0

> <r_epik_Charging_Adjusted_Penalty>
0

> <i_epik_Tot_Q>
0

> <i_epik_Tot_abs_Q>
0

> <r_epik_Metal_State_Penalty>
-0

> <b_epik_Metal_Only>
0

> <s_lp_Force_Field>
OPLS_2005

> <r_lp_Energy>
5.6077

> <b_lp_Chiralities_Consistent>
1

> <s_lp_Variant>
AV-unprocessed.smi:2704-1

> <Gold.Version>
5.8.1

> <Gold.Id.Protein>
6NUR|6NUR_protein|mol2

> <Gold.PLP.Fitness>
42.0392

> <Gold.PLP.PLP>
-40.1762

> <Gold.PLP.part.hbond>
-2.0000

> <Gold.PLP.part.metal>
0.0000

> <Gold.PLP.part.buried>
-5.4213

> <Gold.PLP.part.nonpolar>
-33.8706

> <Gold.PLP.part.repulsive>
0.1609

> <Gold.PLP.ligand.clash>
0.0000

> <Gold.PLP.ligand.torsion>
0.4170

> <Gold.PLP.Chemscore.Hbond>
0.8640

> <Gold.PLP.Chemscore.CHOScore>
0.0000

> <Gold.PLP.Chemscore.Metal>
0.0000

> <Gold.Chemscore.Hbonds>
donor molecule, donor type, donor heavy atom, donor atom, acceptor molecule, acceptor atom, score
      P1  H  6931  6943       L1    20  0.80

> <Gold.PLP.Chemscore.Internal.Correction>
0.1052

> <Gold.Rescore>
     Score         DG    S(hbond)    S(metal)    S(lipo)     H(rot)  DE(clash)    DE(int)     intcor
     12.88     -13.20       0.90        0.00      95.04       2.50       0.04       0.28       ----

> <Gold.Chemscore.Fitness>
12.8820

> <Gold.Chemscore.DG>
-13.1981

> <Gold.Chemscore.ZeroCoef>
-5.4800

> <Gold.Chemscore.Hbond>
0.8977

> <Gold.Chemscore.Metal>
0.0000

> <Gold.Chemscore.Lipo>
95.0415

> <Gold.Chemscore.Internal_Hbond>
0.0000

> <Gold.Chemscore.DEClash>
0.0354

> <Gold.Chemscore.DEInternal>
0.2807

> <Gold.Chemscore.Rot>
2.5001

> <Gold.Chemscore.Internal.Correction>
   9.000000E+99

> <Gold.Chemscore.Hbonds>
donor molecule, donor type, donor heavy atom, donor atom, acceptor molecule, acceptor atom, score
      P1  H  6931  6943       L1    20  0.72

> <Gold.Chemscore.Hbond.Weighted>
-2.9985

> <Gold.Chemscore.Metal.Weighted>
-0.0000

> <Gold.Chemscore.Lipo.Weighted>
-11.1199

> <Gold.Chemscore.Internal_Hbond.Weighted>
0.0000

> <Gold.Chemscore.DEClash.Weighted>
0.0354

> <Gold.Chemscore.DEInternal.Weighted>
0.2807

> <Gold.Chemscore.Rot.Weighted>
6.4002

> <Gold.Chemscore.Internal.Correction.Weighted>
   9.000000E+99

> <Gold.Protein.RotatedTorsions>
[ 6907 6896 6895 6894 ] final   50.09 input  -60.11 | X-H torsion
[ 7974 7965 7964 7962 ] final   73.60 input  175.53 | X-H torsion
[ 8008 7997 7996 7995 ] final   81.34 input   59.86 | X-H torsion
[ 10167 10162 10161 10158 ] final -147.09 input  -65.29 | X-H torsion
[ 10718 10713 10712 10709 ] final  137.26 input   66.30 | X-H torsion
[ 10763 10752 10751 10750 ] final -170.27 input  -60.55 | X-H torsion
[ 11005 11000 10999 10996 ] final   57.28 input  -57.11 | X-H torsion

> <Gold.Protein.ActiveResidues>
 VAL166  LYS551  ARG553  GLY616  TRP617  ASP618  TYR619  PRO620  LYS621  CYS622 
 ASP623  PHE694  ASN695  SER759  ASP760  ASP761  ALA762  ILE779  LEU786  VAL792 
 PHE793  MET794  SER795  GLU796  ALA797  LYS798  CYS799  TRP800  GLU811  SER814 

> <Gold.Protein.RotatedAtoms>
  152.2980  134.7644  160.0363 H   0  0  0  0  0  0  0  0  0  0  0  0  # atno 6907 bound_to 6896
  151.8167  133.3384  159.3580 H   0  0  0  0  0  0  0  0  0  0  0  0  # atno 6908 bound_to 6896
  150.7260  134.5542  159.5854 H   0  0  0  0  0  0  0  0  0  0  0  0  # atno 6909 bound_to 6896
  145.7389  139.2713  143.1498 H   0  0  0  0  0  0  0  0  0  0  0  0  # atno 7974 bound_to 7965
  155.8957  140.3436  155.5989 H   0  0  0  0  0  0  0  0  0  0  0  0  # atno 8008 bound_to 7997
  155.7558  140.0826  157.2198 H   0  0  0  0  0  0  0  0  0  0  0  0  # atno 8009 bound_to 7997
  154.4038  140.1545  156.2763 H   0  0  0  0  0  0  0  0  0  0  0  0  # atno 8010 bound_to 7997
  139.7653  143.8316  152.2615 H   0  0  0  0  0  0  0  0  0  0  0  0  # atno 10167 bound_to 10162
  157.4380  131.1055  151.0176 H   0  0  0  0  0  0  0  0  0  0  0  0  # atno 10718 bound_to 10713
  154.6433  135.2901  155.0076 H   0  0  0  0  0  0  0  0  0  0  0  0  # atno 10763 bound_to 10752
  154.1195  135.6550  153.4904 H   0  0  0  0  0  0  0  0  0  0  0  0  # atno 10764 bound_to 10752
  153.0338  135.5284  154.7310 H   0  0  0  0  0  0  0  0  0  0  0  0  # atno 10765 bound_to 10752
  140.0465  134.5799  155.9317 H   0  0  0  0  0  0  0  0  0  0  0  0  # atno 11005 bound_to 11000
  146.0467  140.8111  142.9802 LP  0  0  0  0  0  0  0  0  0  0  0  0  # atno 17320 bound_to 7965
  144.6875  140.2991  143.7266 LP  0  0  0  0  0  0  0  0  0  0  0  0  # atno 17321 bound_to 7965
  139.8335  144.7243  150.9421 LP  0  0  0  0  0  0  0  0  0  0  0  0  # atno 17342 bound_to 10162
  140.7810  143.4048  151.1088 LP  0  0  0  0  0  0  0  0  0  0  0  0  # atno 17343 bound_to 10162
  157.1049  130.5997  149.5468 LP  0  0  0  0  0  0  0  0  0  0  0  0  # atno 17370 bound_to 10713
  155.9938  130.5000  150.7393 LP  0  0  0  0  0  0  0  0  0  0  0  0  # atno 17371 bound_to 10713
  141.1909  133.6570  156.5433 LP  0  0  0  0  0  0  0  0  0  0  0  0  # atno 17394 bound_to 11000
  140.3986  134.7377  157.4766 LP  0  0  0  0  0  0  0  0  0  0  0  0  # atno 17395 bound_to 11000

$$$$
