AV-unprocessed.smi:577|AV-procd|sdf|2980|dock8
  -GOLD-   2262023493D 1   1.00000     0.00000
 Structure written by MMmdl.
 41 42  0  0  0  0  0  0  0  0  1 V2000
  151.3825  144.8133  160.5474 C   0  0  0  0  0  0  0  0  0  0  0  0
  152.3385  143.6502  160.7507 C   0  0  0  0  0  0  0  0  0  0  0  0
  152.8540  143.2646  161.9225 C   0  0  0  0  0  0  0  0  0  0  0  0
  153.8850  141.8620  161.7792 S   0  0  0  0  0  0  0  0  0  0  0  0
  153.5790  141.8079  160.0062 C   0  0  0  0  0  0  0  0  0  0  0  0
  154.0742  140.9560  159.2699 O   0  0  0  0  0  0  0  0  0  0  0  0
  152.7292  142.8585  159.6613 N   0  0  0  0  0  0  0  0  0  0  0  0
  152.2958  143.1070  158.2799 C   0  0  0  0  0  0  0  0  0  0  0  0
  151.6572  141.8814  157.6124 C   0  0  0  0  0  0  0  0  0  0  0  0
  152.2490  140.8019  157.5686 O   0  0  0  0  0  0  0  0  0  0  0  0
  150.4311  142.0740  157.1022 N   0  0  0  0  0  0  0  0  0  0  0  0
  149.6075  141.0709  156.4288 C   0  0  0  0  0  0  0  0  0  0  0  0
  149.3680  141.5184  154.9718 C   0  0  0  0  0  0  0  0  0  0  0  0
  148.3182  140.6876  154.2104 C   0  0  0  0  0  0  0  0  0  0  0  0
  147.0427  141.4611  153.8274 C   0  0  0  0  0  0  0  0  0  0  0  0
  146.4264  142.3809  154.9025 C   0  0  0  0  0  0  0  0  0  0  0  0
  146.1406  141.7372  156.2709 C   0  0  0  0  0  0  0  0  0  0  0  0
  147.2679  141.8773  157.3171 C   0  0  0  0  0  0  0  0  0  0  0  0
  148.3450  140.7770  157.2733 C   0  0  0  0  0  0  0  0  0  0  0  0
  150.9020  145.0749  161.4904 H   0  0  0  0  0  0  0  0  0  0  0  0
  150.5919  144.5721  159.8373 H   0  0  0  0  0  0  0  0  0  0  0  0
  151.9230  145.6890  160.1884 H   0  0  0  0  0  0  0  0  0  0  0  0
  152.6760  143.7250  162.8832 H   0  0  0  0  0  0  0  0  0  0  0  0
  151.6027  143.9472  158.2372 H   0  0  0  0  0  0  0  0  0  0  0  0
  153.1550  143.4135  157.6806 H   0  0  0  0  0  0  0  0  0  0  0  0
  150.0284  142.9957  157.1914 H   0  0  0  0  0  0  0  0  0  0  0  0
  150.1558  140.1288  156.3770 H   0  0  0  0  0  0  0  0  0  0  0  0
  149.1240  142.5794  154.9342 H   0  0  0  0  0  0  0  0  0  0  0  0
  150.3178  141.4428  154.4401 H   0  0  0  0  0  0  0  0  0  0  0  0
  148.7694  140.3113  153.2916 H   0  0  0  0  0  0  0  0  0  0  0  0
  148.0518  139.7895  154.7654 H   0  0  0  0  0  0  0  0  0  0  0  0
  147.2596  142.0734  152.9513 H   0  0  0  0  0  0  0  0  0  0  0  0
  146.2912  140.7415  153.5003 H   0  0  0  0  0  0  0  0  0  0  0  0
  147.0229  143.2835  155.0324 H   0  0  0  0  0  0  0  0  0  0  0  0
  145.4782  142.7390  154.4996 H   0  0  0  0  0  0  0  0  0  0  0  0
  145.2694  142.2490  156.6821 H   0  0  0  0  0  0  0  0  0  0  0  0
  145.8312  140.6976  156.1566 H   0  0  0  0  0  0  0  0  0  0  0  0
  147.7143  142.8716  157.2878 H   0  0  0  0  0  0  0  0  0  0  0  0
  146.7924  141.8098  158.2962 H   0  0  0  0  0  0  0  0  0  0  0  0
  147.8923  139.8328  156.9714 H   0  0  0  0  0  0  0  0  0  0  0  0
  148.6767  140.5926  158.2963 H   0  0  0  0  0  0  0  0  0  0  0  0
  1  2  1  0  0  0  0
  1 20  1  0  0  0  0
  1 21  1  0  0  0  0
  1 22  1  0  0  0  0
  2  7  1  0  0  0  0
  2  3  2  0  0  0  0
  3  4  1  0  0  0  0
  3 23  1  0  0  0  0
  4  5  1  0  0  0  0
  5  6  2  0  0  0  0
  5  7  1  0  0  0  0
  7  8  1  0  0  0  0
  8  9  1  0  0  0  0
  8 24  1  0  0  0  0
  8 25  1  0  0  0  0
  9 10  2  0  0  0  0
  9 11  1  0  0  0  0
 11 12  1  0  0  0  0
 11 26  1  0  0  0  0
 12 19  1  0  0  0  0
 12 13  1  0  0  0  0
 12 27  1  0  0  0  0
 13 14  1  0  0  0  0
 13 28  1  0  0  0  0
 13 29  1  0  0  0  0
 14 15  1  0  0  0  0
 14 30  1  0  0  0  0
 14 31  1  0  0  0  0
 15 16  1  0  0  0  0
 15 32  1  0  0  0  0
 15 33  1  0  0  0  0
 16 17  1  0  0  0  0
 16 34  1  0  0  0  0
 16 35  1  0  0  0  0
 17 18  1  0  0  0  0
 17 36  1  0  0  0  0
 17 37  1  0  0  0  0
 18 19  1  0  0  0  0
 18 38  1  0  0  0  0
 18 39  1  0  0  0  0
 19 40  1  0  0  0  0
 19 41  1  0  0  0  0
M  END
> <s_m_source_file>
AV-unprocessed.smi

> <i_m_source_file_index>
577

> <i_lp_mmshare_version>
43012

> <i_f3d_flags>
0

> <s_epik_input>
W0NIM11jMVtjSF1zYyg9TyluMVtDSDJdQyg9TylbTkhdW0NIXTJbQ0gyXVtDSDJdW0NIMl1bQ0gyXVtDSDJdW0NIMl1bQ0gyXTI=

> <s_epik_cmdline>
J2VwaWtfcHl0aG9uJywgJy1waCcsICc3LjAnLCAnLXRuJywgJzgnLCAnLW1hJywgJzIwMCcsICctbWV0YWxfYmluZGluZycsICctaW1hZScsICc8aW5maWxlLm1hZT4nLCAnLW9tYWUnLCAnPG91dGZpbGUubWFlPic=

> <r_lp_tautomer_probability>
1

> <r_epik_Ionization_Penalty>
1.32564e-06

> <r_epik_Ionization_Penalty_Charging>
1.22505e-06

> <r_epik_Ionization_Penalty_Neutral>
1.00582e-07

> <r_epik_State_Penalty>
-0

> <r_epik_Charging_Adjusted_Penalty>
1.22505e-06

> <i_epik_Tot_Q>
0

> <i_epik_Tot_abs_Q>
0

> <r_epik_Metal_State_Penalty>
-0

> <b_epik_Metal_Only>
0

> <s_lp_Force_Field>
OPLS_2005

> <r_lp_Energy>
25.6493

> <b_lp_Chiralities_Consistent>
1

> <s_lp_Variant>
AV-unprocessed.smi:577-1

> <Gold.Version>
5.8.1

> <Gold.Id.Protein>
6NUR|6NUR_protein|mol2

> <Gold.PLP.Fitness>
45.0641

> <Gold.PLP.PLP>
-45.2121

> <Gold.PLP.part.hbond>
0.0000

> <Gold.PLP.part.metal>
0.0000

> <Gold.PLP.part.buried>
-6.6968

> <Gold.PLP.part.nonpolar>
-38.4297

> <Gold.PLP.part.repulsive>
0.0258

> <Gold.PLP.ligand.clash>
0.0039

> <Gold.PLP.ligand.torsion>
0.0906

> <Gold.PLP.Chemscore.Hbond>
0.0000

> <Gold.PLP.Chemscore.CHOScore>
0.0000

> <Gold.PLP.Chemscore.Metal>
0.0000

> <Gold.PLP.Chemscore.Internal.Correction>
0.0370

> <Gold.Rescore>
     Score         DG    S(hbond)    S(metal)    S(lipo)     H(rot)  DE(clash)    DE(int)     intcor
     11.76     -13.25       0.00        0.00      96.70       1.39       0.05       1.44       ----

> <Gold.Chemscore.Fitness>
11.7632

> <Gold.Chemscore.DG>
-13.2536

> <Gold.Chemscore.ZeroCoef>
-5.4800

> <Gold.Chemscore.Hbond>
0.0020

> <Gold.Chemscore.Metal>
0.0000

> <Gold.Chemscore.Lipo>
96.7044

> <Gold.Chemscore.Internal_Hbond>
0.0000

> <Gold.Chemscore.DEClash>
0.0537

> <Gold.Chemscore.DEInternal>
1.4367

> <Gold.Chemscore.Rot>
1.3858

> <Gold.Chemscore.Internal.Correction>
   9.000000E+99

> <Gold.Chemscore.Hbonds>
donor molecule, donor type, donor heavy atom, donor atom, acceptor molecule, acceptor atom, score
      P1  H  7997  8010       L1     6  0.03

> <Gold.Chemscore.Hbond.Weighted>
-0.0068

> <Gold.Chemscore.Metal.Weighted>
-0.0000

> <Gold.Chemscore.Lipo.Weighted>
-11.3144

> <Gold.Chemscore.Internal_Hbond.Weighted>
0.0000

> <Gold.Chemscore.DEClash.Weighted>
0.0537

> <Gold.Chemscore.DEInternal.Weighted>
1.4367

> <Gold.Chemscore.Rot.Weighted>
3.5476

> <Gold.Chemscore.Internal.Correction.Weighted>
   9.000000E+99

> <Gold.Protein.RotatedTorsions>
[ 6907 6896 6895 6894 ] final  119.49 input  -60.11 | X-H torsion
[ 7974 7965 7964 7962 ] final -156.95 input  175.53 | X-H torsion
[ 8008 7997 7996 7995 ] final  -12.50 input   59.86 | X-H torsion
[ 10167 10162 10161 10158 ] final   99.14 input  -65.29 | X-H torsion
[ 10718 10713 10712 10709 ] final -158.58 input   66.30 | X-H torsion
[ 10763 10752 10751 10750 ] final  113.32 input  -60.55 | X-H torsion
[ 11005 11000 10999 10996 ] final   50.97 input  -57.11 | X-H torsion

> <Gold.Protein.ActiveResidues>
 VAL166  LYS551  ARG553  GLY616  TRP617  ASP618  TYR619  PRO620  LYS621  CYS622 
 ASP623  PHE694  ASN695  SER759  ASP760  ASP761  ALA762  ILE779  LEU786  VAL792 
 PHE793  MET794  SER795  GLU796  ALA797  LYS798  CYS799  TRP800  GLU811  SER814 

> <Gold.Protein.RotatedAtoms>
  152.4468  133.7551  159.6715 H   0  0  0  0  0  0  0  0  0  0  0  0  # atno 6907 bound_to 6896
  150.8369  133.7988  159.3082 H   0  0  0  0  0  0  0  0  0  0  0  0  # atno 6908 bound_to 6896
  151.5625  135.1067  160.0028 H   0  0  0  0  0  0  0  0  0  0  0  0  # atno 6909 bound_to 6896
  144.7570  140.4038  143.6005 H   0  0  0  0  0  0  0  0  0  0  0  0  # atno 7974 bound_to 7965
  154.5372  140.2274  155.8703 H   0  0  0  0  0  0  0  0  0  0  0  0  # atno 8008 bound_to 7997
  156.1823  140.3097  155.9134 H   0  0  0  0  0  0  0  0  0  0  0  0  # atno 8009 bound_to 7997
  155.3331  140.0446  157.3034 H   0  0  0  0  0  0  0  0  0  0  0  0  # atno 8010 bound_to 7997
  139.7644  144.6943  151.0246 H   0  0  0  0  0  0  0  0  0  0  0  0  # atno 10167 bound_to 10162
  156.5562  130.8627  151.2795 H   0  0  0  0  0  0  0  0  0  0  0  0  # atno 10718 bound_to 10713
  153.4908  135.3659  155.2490 H   0  0  0  0  0  0  0  0  0  0  0  0  # atno 10763 bound_to 10752
  154.8752  135.3976  154.3591 H   0  0  0  0  0  0  0  0  0  0  0  0  # atno 10764 bound_to 10752
  153.4210  135.7080  153.6359 H   0  0  0  0  0  0  0  0  0  0  0  0  # atno 10765 bound_to 10752
  140.0972  134.5130  155.8796 H   0  0  0  0  0  0  0  0  0  0  0  0  # atno 11005 bound_to 11000
  145.6746  139.1606  143.2735 LP  0  0  0  0  0  0  0  0  0  0  0  0  # atno 17320 bound_to 7965
  146.1591  140.6814  142.9286 LP  0  0  0  0  0  0  0  0  0  0  0  0  # atno 17321 bound_to 7965
  140.7809  143.4660  151.0212 LP  0  0  0  0  0  0  0  0  0  0  0  0  # atno 17342 bound_to 10162
  139.8345  143.7646  152.3180 LP  0  0  0  0  0  0  0  0  0  0  0  0  # atno 17343 bound_to 10162
  157.7378  130.9802  150.2213 LP  0  0  0  0  0  0  0  0  0  0  0  0  # atno 17370 bound_to 10713
  156.2840  130.3737  149.7907 LP  0  0  0  0  0  0  0  0  0  0  0  0  # atno 17371 bound_to 10713
  141.2095  133.6685  156.6445 LP  0  0  0  0  0  0  0  0  0  0  0  0  # atno 17394 bound_to 11000
  140.3270  134.7960  157.4297 LP  0  0  0  0  0  0  0  0  0  0  0  0  # atno 17395 bound_to 11000

$$$$
