AV-unprocessed.smi:1056|AV-procd|sdf|4647|dock6
  -GOLD-   22720 3153D 1   1.00000     0.00000
 Structure written by MMmdl.
 45 47  0  0  0  0  0  0  0  0  4 V2000
  152.3509  143.7749  159.8210 C   0  0  0  0  0  0  0  0  0  0  0  0
  151.9770  142.7884  158.7277 C   0  0  0  0  0  0  0  0  0  0  0  0
  151.0405  143.1901  157.7485 C   0  0  0  0  0  0  0  0  0  0  0  0
  150.7200  142.2665  156.7609 C   0  0  0  0  0  0  0  0  0  0  0  0
  149.8468  142.3533  155.6745 N   0  3  0  0  0  0  0  0  0  0  0  0
  149.8685  141.1829  154.9790 C   0  0  0  0  0  0  0  0  0  0  0  0
  150.7417  140.3492  155.6069 N   0  0  0  0  0  0  0  0  0  0  0  0
  151.1379  138.9741  155.2757 C   0  0  0  0  0  0  0  0  0  0  0  0
  149.9338  138.0460  155.0198 C   0  0  1  0  0  0  0  0  0  0  0  0
  149.3535  138.3789  153.7724 O   0  0  0  0  0  0  0  0  0  0  0  0
  150.3590  136.5638  154.9991 C   0  0  0  0  0  0  0  0  0  0  0  0
  149.3066  135.6739  154.4481 N   0  3  2  0  0  0  0  0  0  0  0  0
  147.9675  135.8854  155.0581 C   0  0  0  0  0  0  0  0  0  0  0  0
  146.8872  135.1665  154.2284 C   0  0  0  0  0  0  0  0  0  0  0  0
  147.3045  133.7904  153.9338 N   0  5  0  0  0  0  0  0  0  0  0  0
  148.5881  133.3118  153.9268 C   0  0  0  0  0  0  0  0  0  0  0  0
  148.9290  132.1910  153.5557 O   0  0  0  0  0  0  0  0  0  0  0  0
  149.7052  134.2391  154.4782 C   0  0  0  0  0  0  0  0  0  0  0  0
  151.2966  140.9820  156.7241 C   0  0  0  0  0  0  0  0  0  0  0  0
  152.2204  140.5693  157.6810 C   0  0  0  0  0  0  0  0  0  0  0  0
  152.5589  141.4943  158.6947 C   0  0  0  0  0  0  0  0  0  0  0  0
  153.5633  141.0733  159.7540 C   0  0  0  0  0  0  0  0  0  0  0  0
  151.8042  144.7126  159.7170 H   0  0  0  0  0  0  0  0  0  0  0  0
  153.4159  144.0043  159.7807 H   0  0  0  0  0  0  0  0  0  0  0  0
  152.1217  143.3634  160.8040 H   0  0  0  0  0  0  0  0  0  0  0  0
  150.5934  144.1735  157.7673 H   0  0  0  0  0  0  0  0  0  0  0  0
  149.2941  140.9558  154.0922 H   0  0  0  0  0  0  0  0  0  0  0  0
  151.7743  139.0222  154.3907 H   0  0  0  0  0  0  0  0  0  0  0  0
  151.7620  138.5920  156.0846 H   0  0  0  0  0  0  0  0  0  0  0  0
  149.1889  138.2203  155.7951 H   0  0  0  0  0  0  0  0  0  0  0  0
  149.2427  137.5897  153.2642 H   0  0  0  0  0  0  0  0  0  0  0  0
  151.2709  136.4716  154.4065 H   0  0  0  0  0  0  0  0  0  0  0  0
  150.6164  136.2235  156.0034 H   0  0  0  0  0  0  0  0  0  0  0  0
  147.9730  135.5111  156.0833 H   0  0  0  0  0  0  0  0  0  0  0  0
  147.7228  136.9452  155.1152 H   0  0  0  0  0  0  0  0  0  0  0  0
  145.9391  135.2004  154.7643 H   0  0  0  0  0  0  0  0  0  0  0  0
  146.7285  135.7266  153.3067 H   0  0  0  0  0  0  0  0  0  0  0  0
  150.6084  134.0982  153.8831 H   0  0  0  0  0  0  0  0  0  0  0  0
  149.9377  133.9388  155.5010 H   0  0  0  0  0  0  0  0  0  0  0  0
  152.6630  139.5846  157.6552 H   0  0  0  0  0  0  0  0  0  0  0  0
  153.9279  140.0607  159.5793 H   0  0  0  0  0  0  0  0  0  0  0  0
  153.1075  141.0969  160.7441 H   0  0  0  0  0  0  0  0  0  0  0  0
  154.4246  141.7418  159.7529 H   0  0  0  0  0  0  0  0  0  0  0  0
  149.2102  135.9049  153.4700 H   0  0  0  0  0  0  0  0  0  0  0  0
  149.2770  143.1513  155.4236 H   0  0  0  0  0  0  0  0  0  0  0  0
  1  2  1  0  0  0  0
  1 23  1  0  0  0  0
  1 24  1  0  0  0  0
  1 25  1  0  0  0  0
  2 21  1  0  0  0  0
  2  3  2  0  0  0  0
  3  4  1  0  0  0  0
  3 26  1  0  0  0  0
  4 19  2  0  0  0  0
  4  5  1  0  0  0  0
  5  6  2  0  0  0  0
  5 45  1  0  0  0  0
  6  7  1  0  0  0  0
  6 27  1  0  0  0  0
  7  8  1  0  0  0  0
  7 19  1  0  0  0  0
  8  9  1  0  0  0  0
  8 28  1  0  0  0  0
  8 29  1  0  0  0  0
  9 10  1  0  0  0  0
  9 11  1  0  0  0  0
  9 30  1  0  0  0  0
 10 31  1  0  0  0  0
 11 12  1  0  0  0  0
 11 32  1  0  0  0  0
 11 33  1  0  0  0  0
 12 18  1  0  0  0  0
 12 13  1  0  0  0  0
 12 44  1  0  0  0  0
 13 14  1  0  0  0  0
 13 34  1  0  0  0  0
 13 35  1  0  0  0  0
 14 15  1  0  0  0  0
 14 36  1  0  0  0  0
 14 37  1  0  0  0  0
 15 16  1  0  0  0  0
 16 17  2  0  0  0  0
 16 18  1  0  0  0  0
 18 38  1  0  0  0  0
 18 39  1  0  0  0  0
 19 20  1  0  0  0  0
 20 21  2  0  0  0  0
 20 40  1  0  0  0  0
 21 22  1  0  0  0  0
 22 41  1  0  0  0  0
 22 42  1  0  0  0  0
 22 43  1  0  0  0  0
M  CHG  1   5   1
M  CHG  1  12   1
M  CHG  1  15  -1
M  END
> <s_m_source_file>
AV-unprocessed.smi

> <i_m_source_file_index>
1056

> <i_lp_mmshare_version>
43012

> <i_f3d_flags>
0

> <s_epik_input>
W0NIM11jKFtjSF0xKWMoW0NIM10pW2NIXWMoYzEyKW4oW2NIXW4yKVtDSDJdW0NASF0oW09IXSlbQ0gyXU4zW0NIMl1bQ0gyXVtOSF1DKD1PKVtDSDJdMw==

> <s_epik_cmdline>
J2VwaWtfcHl0aG9uJywgJy1waCcsICc3LjAnLCAnLXRuJywgJzgnLCAnLW1hJywgJzIwMCcsICctbWV0YWxfYmluZGluZycsICctaW1hZScsICc8aW5maWxlLm1hZT4nLCAnLW9tYWUnLCAnPG91dGZpbGUubWFlPic=

> <r_epik_Ionization_Penalty>
6.22415

> <r_epik_Ionization_Penalty_Charging>
6.22415

> <r_epik_Ionization_Penalty_Neutral>
4.02797e-07

> <r_epik_State_Penalty>
6.37716

> <r_epik_Charging_Adjusted_Penalty>
12.6013

> <i_epik_Tot_Q>
1

> <i_epik_Tot_abs_Q>
3

> <r_epik_Metal_State_Penalty>
2.53509

> <b_epik_Metal_Only>
1

> <s_lp_Force_Field>
OPLS_2005

> <r_lp_Energy>
25.2777

> <b_lp_Chiralities_Consistent>
1

> <s_lp_Variant>
AV-unprocessed.smi:1056-18

> <Gold.Version>
5.8.1

> <Gold.Id.Protein>
6NUR|6NUR_protein|mol2

> <Gold.PLP.Fitness>
55.6303

> <Gold.PLP.PLP>
-41.2139

> <Gold.PLP.part.hbond>
-3.8784

> <Gold.PLP.part.metal>
0.0000

> <Gold.PLP.part.buried>
-2.9320

> <Gold.PLP.part.nonpolar>
-34.3640

> <Gold.PLP.part.repulsive>
0.3965

> <Gold.PLP.ligand.clash>
0.0000

> <Gold.PLP.ligand.torsion>
0.3070

> <Gold.PLP.Chemscore.Hbond>
5.0000

> <Gold.PLP.Chemscore.CHOScore>
0.0000

> <Gold.PLP.Chemscore.Metal>
0.0000

> <Gold.Chemscore.Hbonds>
donor molecule, donor type, donor heavy atom, donor atom, acceptor molecule, acceptor atom, score
      L1  H     5    45       P1  8028  1.98
      L1  H    10    31       P1  7948  1.00
      L1  H    12    44       P1  7948  2.00

> <Gold.PLP.Chemscore.Internal.Correction>
0.0304

> <Gold.Rescore>
     Score         DG    S(hbond)    S(metal)    S(lipo)     H(rot)  DE(clash)    DE(int)     intcor
     19.83     -20.12       2.83        0.00      96.35       2.37       0.00       0.29       ----

> <Gold.Chemscore.Fitness>
19.8341

> <Gold.Chemscore.DG>
-20.1240

> <Gold.Chemscore.ZeroCoef>
-5.4800

> <Gold.Chemscore.Hbond>
2.8276

> <Gold.Chemscore.Metal>
0.0000

> <Gold.Chemscore.Lipo>
96.3527

> <Gold.Chemscore.Internal_Hbond>
0.0000

> <Gold.Chemscore.DEClash>
0.0021

> <Gold.Chemscore.DEInternal>
0.2877

> <Gold.Chemscore.Rot>
2.3724

> <Gold.Chemscore.Internal.Correction>
   9.000000E+99

> <Gold.Chemscore.Hbonds>
donor molecule, donor type, donor heavy atom, donor atom, acceptor molecule, acceptor atom, score
      L1  H     5    45       P1  8028  0.94
      L1  H    10    31       P1  7948  0.98
      L1  H    12    44       P1  7948  0.74

> <Gold.Chemscore.Hbond.Weighted>
-9.4441

> <Gold.Chemscore.Metal.Weighted>
-0.0000

> <Gold.Chemscore.Lipo.Weighted>
-11.2733

> <Gold.Chemscore.Internal_Hbond.Weighted>
0.0000

> <Gold.Chemscore.DEClash.Weighted>
0.0021

> <Gold.Chemscore.DEInternal.Weighted>
0.2877

> <Gold.Chemscore.Rot.Weighted>
6.0734

> <Gold.Chemscore.Internal.Correction.Weighted>
   9.000000E+99

> <Gold.Protein.RotatedTorsions>
[ 6907 6896 6895 6894 ] final -159.58 input  -60.11 | X-H torsion
[ 7974 7965 7964 7962 ] final   11.39 input  175.53 | X-H torsion
[ 8008 7997 7996 7995 ] final  132.29 input   59.86 | X-H torsion
[ 10167 10162 10161 10158 ] final   65.31 input  -65.29 | X-H torsion
[ 10718 10713 10712 10709 ] final   28.60 input   66.30 | X-H torsion
[ 10763 10752 10751 10750 ] final -156.69 input  -60.55 | X-H torsion
[ 11005 11000 10999 10996 ] final   48.40 input  -57.11 | X-H torsion

> <Gold.Protein.ActiveResidues>
 VAL166  LYS551  ARG553  GLY616  TRP617  ASP618  TYR619  PRO620  LYS621  CYS622 
 ASP623  PHE694  ASN695  SER759  ASP760  ASP761  ALA762  ILE779  LEU786  VAL792 
 PHE793  MET794  SER795  GLU796  ALA797  LYS798  CYS799  TRP800  GLU811  SER814 

> <Gold.Protein.RotatedAtoms>
  151.3358  133.3982  159.2666 H   0  0  0  0  0  0  0  0  0  0  0  0  # atno 6907 bound_to 6896
  150.9918  134.9252  159.7914 H   0  0  0  0  0  0  0  0  0  0  0  0  # atno 6908 bound_to 6896
  152.5249  134.3323  159.9240 H   0  0  0  0  0  0  0  0  0  0  0  0  # atno 6909 bound_to 6896
  146.2372  139.9493  142.8473 H   0  0  0  0  0  0  0  0  0  0  0  0  # atno 7974 bound_to 7965
  156.2981  140.2550  156.3065 H   0  0  0  0  0  0  0  0  0  0  0  0  # atno 8008 bound_to 7997
  154.9367  140.0397  157.2095 H   0  0  0  0  0  0  0  0  0  0  0  0  # atno 8009 bound_to 7997
  154.8166  140.2853  155.5820 H   0  0  0  0  0  0  0  0  0  0  0  0  # atno 8010 bound_to 7997
  140.1127  144.4804  150.6968 H   0  0  0  0  0  0  0  0  0  0  0  0  # atno 10167 bound_to 10162
  157.2356  130.7045  149.6334 H   0  0  0  0  0  0  0  0  0  0  0  0  # atno 10718 bound_to 10713
  154.7693  135.3140  154.8221 H   0  0  0  0  0  0  0  0  0  0  0  0  # atno 10763 bound_to 10752
  153.8961  135.6820  153.4762 H   0  0  0  0  0  0  0  0  0  0  0  0  # atno 10764 bound_to 10752
  153.1304  135.4782  154.9274 H   0  0  0  0  0  0  0  0  0  0  0  0  # atno 10765 bound_to 10752
  140.1194  134.4850  155.8610 H   0  0  0  0  0  0  0  0  0  0  0  0  # atno 11005 bound_to 11000
  145.1877  140.9797  143.4229 LP  0  0  0  0  0  0  0  0  0  0  0  0  # atno 17320 bound_to 7965
  144.9885  139.3713  143.6226 LP  0  0  0  0  0  0  0  0  0  0  0  0  # atno 17321 bound_to 7965
  140.6917  143.2380  151.5114 LP  0  0  0  0  0  0  0  0  0  0  0  0  # atno 17342 bound_to 10162
  139.5611  144.2155  152.1692 LP  0  0  0  0  0  0  0  0  0  0  0  0  # atno 17343 bound_to 10162
  155.9673  130.4474  150.5581 LP  0  0  0  0  0  0  0  0  0  0  0  0  # atno 17370 bound_to 10713
  157.3432  131.0720  151.1771 LP  0  0  0  0  0  0  0  0  0  0  0  0  # atno 17371 bound_to 10713
  141.2148  133.6755  156.6859 LP  0  0  0  0  0  0  0  0  0  0  0  0  # atno 17394 bound_to 11000
  140.2986  134.8182  157.4078 LP  0  0  0  0  0  0  0  0  0  0  0  0  # atno 17395 bound_to 11000

$$$$
