AV-unprocessed.smi:916|AV-procd|sdf|4158|dock4
  -GOLD-   22720 2 63D 1   1.00000     0.00000
 Structure written by MMmdl.
 43 44  0  0  0  0  0  0  0  0  1 V2000
  144.8330  132.0532  149.6105 C   0  0  0  0  0  0  0  0  0  0  0  0
  144.1966  132.0757  151.0045 C   0  0  0  0  0  0  0  0  0  0  0  0
  144.3304  133.4110  151.6717 C   0  0  0  0  0  0  0  0  0  0  0  0
  143.3113  134.1992  152.1481 C   0  0  0  0  0  0  0  0  0  0  0  0
  143.9041  135.6756  152.8607 S   0  0  0  0  0  0  0  0  0  0  0  0
  145.5378  135.1615  152.4713 C   0  0  0  0  0  0  0  0  0  0  0  0
  146.6717  135.9476  152.8046 N   0  0  0  0  0  0  0  0  0  0  0  0
  146.7543  136.9503  153.6961 C   0  0  0  0  0  0  0  0  0  0  0  0
  145.8451  137.3163  154.4416 O   0  0  0  0  0  0  0  0  0  0  0  0
  147.9736  137.5084  153.6843 N   0  0  0  0  0  0  0  0  0  0  0  0
  148.4068  138.6182  154.5278 C   0  0  0  0  0  0  0  0  0  0  0  0
  149.8942  138.9540  154.3070 C   0  0  2  0  0  0  0  0  0  0  0  0
  150.8339  137.7683  154.4204 C   0  0  0  0  0  0  0  0  0  0  0  0
  152.1804  138.4505  154.6388 C   0  0  0  0  0  0  0  0  0  0  0  0
  151.8963  139.6580  155.3387 O   0  0  0  0  0  0  0  0  0  0  0  0
  150.4897  139.8900  155.3695 C   0  0  1  0  0  0  0  0  0  0  0  0
  150.1669  141.3948  155.2175 C   0  0  0  0  0  0  0  0  0  0  0  0
  150.7356  142.2632  156.3543 C   0  0  0  0  0  0  0  0  0  0  0  0
  148.6532  141.6170  155.0737 C   0  0  0  0  0  0  0  0  0  0  0  0
  145.5972  133.9731  151.8597 N   0  0  0  0  0  0  0  0  0  0  0  0
  144.7192  131.0728  149.1478 H   0  0  0  0  0  0  0  0  0  0  0  0
  145.8993  132.2759  149.6600 H   0  0  0  0  0  0  0  0  0  0  0  0
  144.3666  132.7881  148.9535 H   0  0  0  0  0  0  0  0  0  0  0  0
  143.1438  131.8035  150.9217 H   0  0  0  0  0  0  0  0  0  0  0  0
  144.6565  131.3032  151.6218 H   0  0  0  0  0  0  0  0  0  0  0  0
  142.2504  133.9991  152.1251 H   0  0  0  0  0  0  0  0  0  0  0  0
  147.5135  135.7323  152.2911 H   0  0  0  0  0  0  0  0  0  0  0  0
  148.6569  137.1387  153.0396 H   0  0  0  0  0  0  0  0  0  0  0  0
  147.7937  139.4816  154.2701 H   0  0  0  0  0  0  0  0  0  0  0  0
  148.2110  138.4121  155.5816 H   0  0  0  0  0  0  0  0  0  0  0  0
  150.0212  139.3863  153.3149 H   0  0  0  0  0  0  0  0  0  0  0  0
  150.5775  137.1606  155.2895 H   0  0  0  0  0  0  0  0  0  0  0  0
  150.8250  137.1244  153.5404 H   0  0  0  0  0  0  0  0  0  0  0  0
  152.8798  137.8230  155.1918 H   0  0  0  0  0  0  0  0  0  0  0  0
  152.6367  138.7058  153.6818 H   0  0  0  0  0  0  0  0  0  0  0  0
  150.1427  139.5505  156.3471 H   0  0  0  0  0  0  0  0  0  0  0  0
  150.6219  141.7374  154.2879 H   0  0  0  0  0  0  0  0  0  0  0  0
  150.3527  141.9491  157.3256 H   0  0  0  0  0  0  0  0  0  0  0  0
  150.4633  143.3100  156.2170 H   0  0  0  0  0  0  0  0  0  0  0  0
  151.8231  142.2234  156.3940 H   0  0  0  0  0  0  0  0  0  0  0  0
  148.1193  141.3064  155.9725 H   0  0  0  0  0  0  0  0  0  0  0  0
  148.2492  141.0505  154.2344 H   0  0  0  0  0  0  0  0  0  0  0  0
  148.4243  142.6687  154.8986 H   0  0  0  0  0  0  0  0  0  0  0  0
  1  2  1  0  0  0  0
  1 21  1  0  0  0  0
  1 22  1  0  0  0  0
  1 23  1  0  0  0  0
  2  3  1  0  0  0  0
  2 24  1  0  0  0  0
  2 25  1  0  0  0  0
  3 20  1  0  0  0  0
  3  4  2  0  0  0  0
  4  5  1  0  0  0  0
  4 26  1  0  0  0  0
  5  6  1  0  0  0  0
  6  7  1  0  0  0  0
  6 20  2  0  0  0  0
  7  8  1  0  0  0  0
  7 27  1  0  0  0  0
  8  9  2  0  0  0  0
  8 10  1  0  0  0  0
 10 11  1  0  0  0  0
 10 28  1  0  0  0  0
 11 12  1  0  0  0  0
 11 29  1  0  0  0  0
 11 30  1  0  0  0  0
 12 16  1  0  0  0  0
 12 13  1  0  0  0  0
 12 31  1  0  0  0  0
 13 14  1  0  0  0  0
 13 32  1  0  0  0  0
 13 33  1  0  0  0  0
 14 15  1  0  0  0  0
 14 34  1  0  0  0  0
 14 35  1  0  0  0  0
 15 16  1  0  0  0  0
 16 17  1  0  0  0  0
 16 36  1  0  0  0  0
 17 18  1  0  0  0  0
 17 19  1  0  0  0  0
 17 37  1  0  0  0  0
 18 38  1  0  0  0  0
 18 39  1  0  0  0  0
 18 40  1  0  0  0  0
 19 41  1  0  0  0  0
 19 42  1  0  0  0  0
 19 43  1  0  0  0  0
M  END
> <s_m_source_file>
AV-unprocessed.smi

> <i_m_source_file_index>
916

> <i_lp_mmshare_version>
43012

> <i_f3d_flags>
0

> <s_epik_input>
W0NIM11bQ0gyXWMxW2NIXXNjKG4xKVtOSF1DKD1PKVtOSF1bQ0gyXVtDQEBIXTJbQ0gyXVtDSDJdT1tDQEhdMltDSF0oW0NIM10pW0NIM10=

> <s_epik_cmdline>
J2VwaWtfcHl0aG9uJywgJy1waCcsICc3LjAnLCAnLXRuJywgJzgnLCAnLW1hJywgJzIwMCcsICctbWV0YWxfYmluZGluZycsICctaW1hZScsICc8aW5maWxlLm1hZT4nLCAnLW9tYWUnLCAnPG91dGZpbGUubWFlPic=

> <r_lp_tautomer_probability>
0.999

> <r_epik_Ionization_Penalty>
0.000518907

> <r_epik_Ionization_Penalty_Charging>
0

> <r_epik_Ionization_Penalty_Neutral>
0.000518907

> <r_epik_State_Penalty>
0.000177984

> <r_epik_Charging_Adjusted_Penalty>
0.000177984

> <i_epik_Tot_Q>
0

> <i_epik_Tot_abs_Q>
0

> <r_epik_Metal_State_Penalty>
-0

> <b_epik_Metal_Only>
0

> <s_lp_Force_Field>
OPLS_2005

> <r_lp_Energy>
16.7546

> <b_lp_Chiralities_Consistent>
1

> <s_lp_Variant>
AV-unprocessed.smi:916-1

> <Gold.Version>
5.8.1

> <Gold.Id.Protein>
6NUR|6NUR_protein|mol2

> <Gold.PLP.Fitness>
41.3974

> <Gold.PLP.PLP>
-35.1832

> <Gold.PLP.part.hbond>
-2.6748

> <Gold.PLP.part.metal>
0.0000

> <Gold.PLP.part.buried>
-1.6918

> <Gold.PLP.part.nonpolar>
-30.4675

> <Gold.PLP.part.repulsive>
0.2320

> <Gold.PLP.ligand.clash>
0.0000

> <Gold.PLP.ligand.torsion>
0.1800

> <Gold.PLP.Chemscore.Hbond>
2.0677

> <Gold.PLP.Chemscore.CHOScore>
0.1024

> <Gold.PLP.Chemscore.Metal>
0.0000

> <Gold.Chemscore.Hbonds>
donor molecule, donor type, donor heavy atom, donor atom, acceptor molecule, acceptor atom, score
      L1  H     7    27       P1  7948  0.96
      L1  H    10    28       P1  7948  0.93
      L1  C     4    26       P1 10186  0.05

> <Gold.PLP.Chemscore.Internal.Correction>
0.0638

> <Gold.Rescore>
     Score         DG    S(hbond)    S(metal)    S(lipo)     H(rot)  DE(clash)    DE(int)     intcor
     17.80     -18.35       1.93        0.00      88.14       1.52       0.17       0.38       ----

> <Gold.Chemscore.Fitness>
17.7985

> <Gold.Chemscore.DG>
-18.3519

> <Gold.Chemscore.ZeroCoef>
-5.4800

> <Gold.Chemscore.Hbond>
1.9342

> <Gold.Chemscore.Metal>
0.0000

> <Gold.Chemscore.Lipo>
88.1409

> <Gold.Chemscore.Internal_Hbond>
0.0000

> <Gold.Chemscore.DEClash>
0.1686

> <Gold.Chemscore.DEInternal>
0.3848

> <Gold.Chemscore.Rot>
1.5238

> <Gold.Chemscore.Internal.Correction>
   9.000000E+99

> <Gold.Chemscore.Hbonds>
donor molecule, donor type, donor heavy atom, donor atom, acceptor molecule, acceptor atom, score
      L1  H     7    27       P1  7948  0.89
      L1  H    10    28       P1  7948  0.84

> <Gold.Chemscore.Hbond.Weighted>
-6.4603

> <Gold.Chemscore.Metal.Weighted>
-0.0000

> <Gold.Chemscore.Lipo.Weighted>
-10.3125

> <Gold.Chemscore.Internal_Hbond.Weighted>
0.0000

> <Gold.Chemscore.DEClash.Weighted>
0.1686

> <Gold.Chemscore.DEInternal.Weighted>
0.3848

> <Gold.Chemscore.Rot.Weighted>
3.9008

> <Gold.Chemscore.Internal.Correction.Weighted>
   9.000000E+99

> <Gold.Protein.RotatedTorsions>
[ 6907 6896 6895 6894 ] final  171.33 input  -60.11 | X-H torsion
[ 7974 7965 7964 7962 ] final  102.25 input  175.53 | X-H torsion
[ 8008 7997 7996 7995 ] final  -35.82 input   59.86 | X-H torsion
[ 10167 10162 10161 10158 ] final  111.57 input  -65.29 | X-H torsion
[ 10718 10713 10712 10709 ] final   40.22 input   66.30 | X-H torsion
[ 10763 10752 10751 10750 ] final    3.01 input  -60.55 | X-H torsion
[ 11005 11000 10999 10996 ] final  137.78 input  -57.11 | X-H torsion

> <Gold.Protein.ActiveResidues>
 VAL166  LYS551  ARG553  GLY616  TRP617  ASP618  TYR619  PRO620  LYS621  CYS622 
 ASP623  PHE694  ASN695  SER759  ASP760  ASP761  ALA762  ILE779  LEU786  VAL792 
 PHE793  MET794  SER795  GLU796  ALA797  LYS798  CYS799  TRP800  GLU811  SER814 

> <Gold.Protein.RotatedAtoms>
  151.8019  133.3371  159.3529 H   0  0  0  0  0  0  0  0  0  0  0  0  # atno 6907 bound_to 6896
  150.7356  134.5746  159.5917 H   0  0  0  0  0  0  0  0  0  0  0  0  # atno 6908 bound_to 6896
  152.3137  134.7467  160.0381 H   0  0  0  0  0  0  0  0  0  0  0  0  # atno 6909 bound_to 6896
  145.3616  139.2416  143.3503 H   0  0  0  0  0  0  0  0  0  0  0  0  # atno 7974 bound_to 7965
  154.4087  140.1647  156.2273 H   0  0  0  0  0  0  0  0  0  0  0  0  # atno 8008 bound_to 7997
  155.9312  140.3414  155.6228 H   0  0  0  0  0  0  0  0  0  0  0  0  # atno 8009 bound_to 7997
  155.7104  140.0756  157.2364 H   0  0  0  0  0  0  0  0  0  0  0  0  # atno 8010 bound_to 7997
  139.6601  144.7129  151.1881 H   0  0  0  0  0  0  0  0  0  0  0  0  # atno 10167 bound_to 10162
  157.3797  130.7746  149.7183 H   0  0  0  0  0  0  0  0  0  0  0  0  # atno 10718 bound_to 10713
  153.2885  135.6946  153.7316 H   0  0  0  0  0  0  0  0  0  0  0  0  # atno 10763 bound_to 10752
  153.6276  135.3416  155.3032 H   0  0  0  0  0  0  0  0  0  0  0  0  # atno 10764 bound_to 10752
  154.8517  135.4401  154.1960 H   0  0  0  0  0  0  0  0  0  0  0  0  # atno 10765 bound_to 10752
  140.0138  134.9427  157.0333 H   0  0  0  0  0  0  0  0  0  0  0  0  # atno 11005 bound_to 11000
  146.2924  140.4251  142.8734 LP  0  0  0  0  0  0  0  0  0  0  0  0  # atno 17320 bound_to 7965
  144.8642  140.7182  143.6088 LP  0  0  0  0  0  0  0  0  0  0  0  0  # atno 17321 bound_to 7965
  140.7576  143.6008  150.8702 LP  0  0  0  0  0  0  0  0  0  0  0  0  # atno 17342 bound_to 10162
  139.9665  143.6105  152.2987 LP  0  0  0  0  0  0  0  0  0  0  0  0  # atno 17343 bound_to 10162
  155.9773  130.4065  150.3722 LP  0  0  0  0  0  0  0  0  0  0  0  0  # atno 17370 bound_to 10713
  157.1824  131.0395  151.2742 LP  0  0  0  0  0  0  0  0  0  0  0  0  # atno 17371 bound_to 10713
  140.4507  134.1585  155.7181 LP  0  0  0  0  0  0  0  0  0  0  0  0  # atno 17394 bound_to 11000
  141.1729  133.8573  157.1514 LP  0  0  0  0  0  0  0  0  0  0  0  0  # atno 17395 bound_to 11000

$$$$
