AV-unprocessed.smi:1085|AV-procd|sdf|4722|dock3
  -GOLD-   22720 3253D 1   1.00000     0.00000
 Structure written by MMmdl.
 33 34  0  0  0  0  0  0  0  0  1 V2000
  148.9132  140.3573  157.1134 O   0  0  0  0  0  0  0  0  0  0  0  0
  149.7013  140.7259  156.2432 C   0  0  0  0  0  0  0  0  0  0  0  0
  149.6220  140.1263  154.8381 C   0  0  0  0  0  0  0  0  0  0  0  0
  150.7186  139.2072  154.5924 N   0  0  0  0  0  0  0  0  0  0  0  0
  150.7236  137.9335  154.1934 C   0  0  0  0  0  0  0  0  0  0  0  0
  151.9551  137.4543  154.1051 N   0  0  0  0  0  0  0  0  0  0  0  0
  152.7403  138.5313  154.4815 N   0  0  0  0  0  0  0  0  0  0  0  0
  152.0122  139.5745  154.7715 N   0  0  0  0  0  0  0  0  0  0  0  0
  150.6515  141.6520  156.4475 N   0  0  0  0  0  0  0  0  0  0  0  0
  150.9164  142.3326  157.7105 C   0  0  2  0  0  0  0  0  0  0  0  0
  151.2888  143.8066  157.4613 C   0  0  0  0  0  0  0  0  0  0  0  0
  151.6533  144.5174  158.7731 C   0  0  0  0  0  0  0  0  0  0  0  0
  152.7768  143.7783  159.5171 C   0  0  0  0  0  0  0  0  0  0  0  0
  152.4091  142.3034  159.7844 C   0  0  2  0  0  0  0  0  0  0  0  0
  153.5231  141.5567  160.5467 C   0  0  0  0  0  0  0  0  0  0  0  0
  153.6982  142.0778  161.7616 F   0  0  0  0  0  0  0  0  0  0  0  0
  153.2062  140.2680  160.6717 F   0  0  0  0  0  0  0  0  0  0  0  0
  154.6706  141.6388  159.8732 F   0  0  0  0  0  0  0  0  0  0  0  0
  152.0453  141.6003  158.4592 C   0  0  0  0  0  0  0  0  0  0  0  0
  148.6819  139.5880  154.7117 H   0  0  0  0  0  0  0  0  0  0  0  0
  149.6402  140.9246  154.0945 H   0  0  0  0  0  0  0  0  0  0  0  0
  149.8338  137.3622  153.9736 H   0  0  0  0  0  0  0  0  0  0  0  0
  151.2492  141.8927  155.6695 H   0  0  0  0  0  0  0  0  0  0  0  0
  150.0208  142.2961  158.3341 H   0  0  0  0  0  0  0  0  0  0  0  0
  152.1325  143.8643  156.7718 H   0  0  0  0  0  0  0  0  0  0  0  0
  150.4604  144.3283  156.9806 H   0  0  0  0  0  0  0  0  0  0  0  0
  151.9579  145.5438  158.5664 H   0  0  0  0  0  0  0  0  0  0  0  0
  150.7713  144.5797  159.4117 H   0  0  0  0  0  0  0  0  0  0  0  0
  153.6951  143.8303  158.9309 H   0  0  0  0  0  0  0  0  0  0  0  0
  152.9829  144.2903  160.4575 H   0  0  0  0  0  0  0  0  0  0  0  0
  151.5205  142.2940  160.4178 H   0  0  0  0  0  0  0  0  0  0  0  0
  151.7405  140.5721  158.6574 H   0  0  0  0  0  0  0  0  0  0  0  0
  152.9298  141.5408  157.8230 H   0  0  0  0  0  0  0  0  0  0  0  0
  1  2  2  0  0  0  0
  2  3  1  0  0  0  0
  2  9  1  0  0  0  0
  3  4  1  0  0  0  0
  3 20  1  0  0  0  0
  3 21  1  0  0  0  0
  4  8  1  0  0  0  0
  4  5  1  0  0  0  0
  5  6  2  0  0  0  0
  5 22  1  0  0  0  0
  6  7  1  0  0  0  0
  7  8  2  0  0  0  0
  9 10  1  0  0  0  0
  9 23  1  0  0  0  0
 10 19  1  0  0  0  0
 10 11  1  0  0  0  0
 10 24  1  0  0  0  0
 11 12  1  0  0  0  0
 11 25  1  0  0  0  0
 11 26  1  0  0  0  0
 12 13  1  0  0  0  0
 12 27  1  0  0  0  0
 12 28  1  0  0  0  0
 13 14  1  0  0  0  0
 13 29  1  0  0  0  0
 13 30  1  0  0  0  0
 14 15  1  0  0  0  0
 14 19  1  0  0  0  0
 14 31  1  0  0  0  0
 15 16  1  0  0  0  0
 15 17  1  0  0  0  0
 15 18  1  0  0  0  0
 19 32  1  0  0  0  0
 19 33  1  0  0  0  0
M  END
> <s_m_source_file>
AV-unprocessed.smi

> <i_m_source_file_index>
1085

> <i_lp_mmshare_version>
43012

> <i_f3d_flags>
0

> <s_epik_input>
bjFubltjSF1uMVtDSDJdQyg9TylbTkhdW0NAQEhdMltDSDJdW0NIMl1bQ0gyXVtDQEBIXShDKEYpKEYpRilbQ0gyXTI=

> <s_epik_cmdline>
J2VwaWtfcHl0aG9uJywgJy1waCcsICc3LjAnLCAnLXRuJywgJzgnLCAnLW1hJywgJzIwMCcsICctbWV0YWxfYmluZGluZycsICctaW1hZScsICc8aW5maWxlLm1hZT4nLCAnLW9tYWUnLCAnPG91dGZpbGUubWFlPic=

> <r_lp_tautomer_probability>
1

> <r_epik_Ionization_Penalty>
8.41315e-07

> <r_epik_Ionization_Penalty_Charging>
0

> <r_epik_Ionization_Penalty_Neutral>
8.41315e-07

> <r_epik_State_Penalty>
-0

> <r_epik_Charging_Adjusted_Penalty>
0

> <i_epik_Tot_Q>
0

> <i_epik_Tot_abs_Q>
0

> <r_epik_Metal_State_Penalty>
-0

> <b_epik_Metal_Only>
0

> <s_lp_Force_Field>
OPLS_2005

> <r_lp_Energy>
12.3149

> <b_lp_Chiralities_Consistent>
1

> <s_lp_Variant>
AV-unprocessed.smi:1085-3

> <Gold.Version>
5.8.1

> <Gold.Id.Protein>
6NUR|6NUR_protein|mol2

> <Gold.PLP.Fitness>
46.1594

> <Gold.PLP.PLP>
-40.6224

> <Gold.PLP.part.hbond>
-2.0000

> <Gold.PLP.part.metal>
0.0000

> <Gold.PLP.part.buried>
-4.2591

> <Gold.PLP.part.nonpolar>
-35.0863

> <Gold.PLP.part.repulsive>
0.5950

> <Gold.PLP.ligand.clash>
0.0000

> <Gold.PLP.ligand.torsion>
0.5848

> <Gold.PLP.Chemscore.Hbond>
1.2252

> <Gold.PLP.Chemscore.CHOScore>
1.0000

> <Gold.PLP.Chemscore.Metal>
0.0000

> <Gold.Chemscore.Hbonds>
donor molecule, donor type, donor heavy atom, donor atom, acceptor molecule, acceptor atom, score
      P1  H  7989  7998       L1     8  0.27
      P1  H 10752 10764       L1     6  0.95
      L1  C     5    22       P1  7948  1.00

> <Gold.PLP.Chemscore.Internal.Correction>
0.0311

> <Gold.Rescore>
     Score         DG    S(hbond)    S(metal)    S(lipo)     H(rot)  DE(clash)    DE(int)     intcor
     11.86     -12.59       0.99        0.00      77.37       2.05       0.14       0.59       ----

> <Gold.Chemscore.Fitness>
11.8637

> <Gold.Chemscore.DG>
-12.5921

> <Gold.Chemscore.ZeroCoef>
-5.4800

> <Gold.Chemscore.Hbond>
0.9870

> <Gold.Chemscore.Metal>
0.0000

> <Gold.Chemscore.Lipo>
77.3704

> <Gold.Chemscore.Internal_Hbond>
0.0000

> <Gold.Chemscore.DEClash>
0.1358

> <Gold.Chemscore.DEInternal>
0.5925

> <Gold.Chemscore.Rot>
2.0456

> <Gold.Chemscore.Internal.Correction>
   9.000000E+99

> <Gold.Chemscore.Hbonds>
donor molecule, donor type, donor heavy atom, donor atom, acceptor molecule, acceptor atom, score
      P1  H 10752 10764       L1     6  0.70

> <Gold.Chemscore.Hbond.Weighted>
-3.2965

> <Gold.Chemscore.Metal.Weighted>
-0.0000

> <Gold.Chemscore.Lipo.Weighted>
-9.0523

> <Gold.Chemscore.Internal_Hbond.Weighted>
0.0000

> <Gold.Chemscore.DEClash.Weighted>
0.1358

> <Gold.Chemscore.DEInternal.Weighted>
0.5925

> <Gold.Chemscore.Rot.Weighted>
5.2368

> <Gold.Chemscore.Internal.Correction.Weighted>
   9.000000E+99

> <Gold.Protein.RotatedTorsions>
[ 6907 6896 6895 6894 ] final -169.33 input  -60.11 | X-H torsion
[ 7974 7965 7964 7962 ] final  -80.52 input  175.53 | X-H torsion
[ 8008 7997 7996 7995 ] final   65.14 input   59.86 | X-H torsion
[ 10167 10162 10161 10158 ] final  176.33 input  -65.29 | X-H torsion
[ 10718 10713 10712 10709 ] final   26.01 input   66.30 | X-H torsion
[ 10763 10752 10751 10750 ] final  -83.41 input  -60.55 | X-H torsion
[ 11005 11000 10999 10996 ] final  -10.17 input  -57.11 | X-H torsion

> <Gold.Protein.ActiveResidues>
 VAL166  LYS551  ARG553  GLY616  TRP617  ASP618  TYR619  PRO620  LYS621  CYS622 
 ASP623  PHE694  ASN695  SER759  ASP760  ASP761  ALA762  ILE779  LEU786  VAL792 
 PHE793  MET794  SER795  GLU796  ALA797  LYS798  CYS799  TRP800  GLU811  SER814 

> <Gold.Protein.RotatedAtoms>
  151.4899  133.3527  159.2851 H   0  0  0  0  0  0  0  0  0  0  0  0  # atno 6907 bound_to 6896
  150.8842  134.8239  159.7257 H   0  0  0  0  0  0  0  0  0  0  0  0  # atno 6908 bound_to 6896
  152.4782  134.4800  159.9714 H   0  0  0  0  0  0  0  0  0  0  0  0  # atno 6909 bound_to 6896
  145.5588  140.9485  143.1458 H   0  0  0  0  0  0  0  0  0  0  0  0  # atno 7974 bound_to 7965
  155.6571  140.3497  155.4769 H   0  0  0  0  0  0  0  0  0  0  0  0  # atno 8008 bound_to 7997
  155.9800  140.1172  157.0759 H   0  0  0  0  0  0  0  0  0  0  0  0  # atno 8009 bound_to 7997
  154.4189  140.1140  156.5408 H   0  0  0  0  0  0  0  0  0  0  0  0  # atno 8010 bound_to 7997
  139.5210  144.2927  152.0449 H   0  0  0  0  0  0  0  0  0  0  0  0  # atno 10167 bound_to 10162
  157.2011  130.6890  149.6189 H   0  0  0  0  0  0  0  0  0  0  0  0  # atno 10718 bound_to 10713
  154.5874  135.5557  153.7245 H   0  0  0  0  0  0  0  0  0  0  0  0  # atno 10763 bound_to 10752
  153.0104  135.6335  154.1897 H   0  0  0  0  0  0  0  0  0  0  0  0  # atno 10764 bound_to 10752
  154.1838  135.2886  155.3024 H   0  0  0  0  0  0  0  0  0  0  0  0  # atno 10765 bound_to 10752
  140.7419  133.8663  155.8975 H   0  0  0  0  0  0  0  0  0  0  0  0  # atno 11005 bound_to 11000
  144.7493  139.7236  143.7279 LP  0  0  0  0  0  0  0  0  0  0  0  0  # atno 17320 bound_to 7965
  146.1865  139.5084  142.9832 LP  0  0  0  0  0  0  0  0  0  0  0  0  # atno 17321 bound_to 7965
  140.2378  144.4301  150.6273 LP  0  0  0  0  0  0  0  0  0  0  0  0  # atno 17342 bound_to 10162
  140.6311  143.2188  151.6492 LP  0  0  0  0  0  0  0  0  0  0  0  0  # atno 17343 bound_to 10162
  155.9700  130.4582  150.5992 LP  0  0  0  0  0  0  0  0  0  0  0  0  # atno 17370 bound_to 10713
  157.3766  131.0774  151.1513 LP  0  0  0  0  0  0  0  0  0  0  0  0  # atno 17371 bound_to 10713
  140.9829  134.1382  157.4478 LP  0  0  0  0  0  0  0  0  0  0  0  0  # atno 17394 bound_to 11000
  139.8804  135.0016  156.6077 LP  0  0  0  0  0  0  0  0  0  0  0  0  # atno 17395 bound_to 11000

$$$$
