AV-unprocessed.smi:107|AV-procd|sdf|1019|dock4
  -GOLD-   2262018 23D 1   1.00000     0.00000
 Structure written by MMmdl.
 31 32  0  0  0  0  0  0  0  0  1 V2000
  152.9393  142.7396  160.3340 C   0  0  0  0  0  0  0  0  0  0  0  0
  152.1797  142.4583  159.0482 C   0  0  0  0  0  0  0  0  0  0  0  0
  152.0676  141.2098  158.5268 C   0  0  0  0  0  0  0  0  0  0  0  0
  151.3817  140.9159  157.3548 N   0  0  0  0  0  0  0  0  0  0  0  0
  151.3809  139.5161  156.7740 C   0  0  2  0  0  0  0  0  0  0  0  0
  151.9688  139.4197  155.3534 C   0  0  0  0  0  0  0  0  0  0  0  0
  150.8053  138.8863  154.5286 C   0  0  2  0  0  0  0  0  0  0  0  0
  150.1742  139.9271  153.8073 O   0  0  0  0  0  0  0  0  0  0  0  0
  149.8822  138.2607  155.5867 C   0  0  2  0  0  0  0  0  0  0  0  0
  148.3913  138.1338  155.2280 C   0  0  0  0  0  0  0  0  0  0  0  0
  148.2423  137.7246  153.8852 O   0  0  0  0  0  0  0  0  0  0  0  0
  150.0591  139.0807  156.7325 O   0  0  0  0  0  0  0  0  0  0  0  0
  150.8557  141.9814  156.5905 C   0  0  0  0  0  0  0  0  0  0  0  0
  150.3200  141.8252  155.4939 O   0  0  0  0  0  0  0  0  0  0  0  0
  150.9558  143.2620  157.1319 N   0  0  0  0  0  0  0  0  0  0  0  0
  151.5742  143.5885  158.3403 C   0  0  0  0  0  0  0  0  0  0  0  0
  151.5867  144.7581  158.7205 O   0  0  0  0  0  0  0  0  0  0  0  0
  150.5581  144.0210  156.5980 H   0  0  0  0  0  0  0  0  0  0  0  0
  153.3482  141.8280  160.7705 H   0  0  0  0  0  0  0  0  0  0  0  0
  152.2813  143.1982  161.0730 H   0  0  0  0  0  0  0  0  0  0  0  0
  153.7697  143.4207  160.1446 H   0  0  0  0  0  0  0  0  0  0  0  0
  152.5577  140.4071  159.0544 H   0  0  0  0  0  0  0  0  0  0  0  0
  151.9531  138.8817  157.4524 H   0  0  0  0  0  0  0  0  0  0  0  0
  152.3886  140.3580  154.9909 H   0  0  0  0  0  0  0  0  0  0  0  0
  152.7779  138.6882  155.3741 H   0  0  0  0  0  0  0  0  0  0  0  0
  151.1392  138.1392  153.8080 H   0  0  0  0  0  0  0  0  0  0  0  0
  149.9307  139.5951  152.9564 H   0  0  0  0  0  0  0  0  0  0  0  0
  150.2715  137.2742  155.8463 H   0  0  0  0  0  0  0  0  0  0  0  0
  147.9193  137.3879  155.8677 H   0  0  0  0  0  0  0  0  0  0  0  0
  147.8584  139.0711  155.3895 H   0  0  0  0  0  0  0  0  0  0  0  0
  148.8734  137.0437  153.7073 H   0  0  0  0  0  0  0  0  0  0  0  0
  1  2  1  0  0  0  0
  1 19  1  0  0  0  0
  1 20  1  0  0  0  0
  1 21  1  0  0  0  0
  2 16  1  0  0  0  0
  2  3  2  0  0  0  0
  3  4  1  0  0  0  0
  3 22  1  0  0  0  0
  4  5  1  0  0  0  0
  4 13  1  0  0  0  0
  5 12  1  0  0  0  0
  5  6  1  0  0  0  0
  5 23  1  0  0  0  0
  6  7  1  0  0  0  0
  6 24  1  0  0  0  0
  6 25  1  0  0  0  0
  7  8  1  0  0  0  0
  7  9  1  0  0  0  0
  7 26  1  0  0  0  0
  8 27  1  0  0  0  0
  9 10  1  0  0  0  0
  9 12  1  0  0  0  0
  9 28  1  0  0  0  0
 10 11  1  0  0  0  0
 10 29  1  0  0  0  0
 10 30  1  0  0  0  0
 11 31  1  0  0  0  0
 13 14  2  0  0  0  0
 13 15  1  0  0  0  0
 15 18  1  0  0  0  0
 15 16  1  0  0  0  0
 16 17  2  0  0  0  0
M  END
> <s_m_source_file>
AV-unprocessed.smi

> <i_m_source_file_index>
107

> <i_lp_mmshare_version>
43012

> <i_f3d_flags>
0

> <s_epik_input>
Tz1jMVtuSF1jKD1PKW4oW2NIXWMxW0NIM10pW0NAQEhdMltDSDJdW0NAQEhdKFtPSF0pW0NASF0oTzIpW0NIMl1bT0hd

> <s_epik_cmdline>
J2VwaWtfcHl0aG9uJywgJy1waCcsICc3LjAnLCAnLXRuJywgJzgnLCAnLW1hJywgJzIwMCcsICctbWV0YWxfYmluZGluZycsICctaW1hZScsICc8aW5maWxlLm1hZT4nLCAnLW9tYWUnLCAnPG91dGZpbGUubWFlPic=

> <r_lp_tautomer_probability>
0.999537

> <r_epik_Ionization_Penalty>
0.00121888

> <r_epik_Ionization_Penalty_Charging>
0.00121876

> <r_epik_Ionization_Penalty_Neutral>
1.19946e-07

> <r_epik_State_Penalty>
0.000805124

> <r_epik_Charging_Adjusted_Penalty>
0.00202389

> <i_epik_Tot_Q>
0

> <i_epik_Tot_abs_Q>
0

> <r_epik_Metal_State_Penalty>
0.662472

> <b_epik_Metal_Only>
0

> <s_epik_Chemistry_Notes>
This compound contains an acetal/aminal-like group ( X-CH(R)-Y where X, Y are N, S, or O) that may be acid/base labile, releasing an aldehyde.

> <s_lp_Force_Field>
OPLS_2005

> <r_lp_Energy>
26.1821

> <b_lp_Chiralities_Consistent>
1

> <s_lp_Variant>
AV-unprocessed.smi:107-7

> <Gold.Version>
5.8.1

> <Gold.Id.Protein>
6NUR|6NUR_protein|mol2

> <Gold.PLP.Fitness>
39.8413

> <Gold.PLP.PLP>
-31.1741

> <Gold.PLP.part.hbond>
-4.6520

> <Gold.PLP.part.metal>
0.0000

> <Gold.PLP.part.buried>
-3.9384

> <Gold.PLP.part.nonpolar>
-23.0309

> <Gold.PLP.part.repulsive>
0.2263

> <Gold.PLP.ligand.clash>
0.0000

> <Gold.PLP.ligand.torsion>
0.2739

> <Gold.PLP.Chemscore.Hbond>
3.0383

> <Gold.PLP.Chemscore.CHOScore>
0.0000

> <Gold.PLP.Chemscore.Metal>
0.0000

> <Gold.Chemscore.Hbonds>
donor molecule, donor type, donor heavy atom, donor atom, acceptor molecule, acceptor atom, score
      L1  H     8    27       P1  7957  0.91
      L1  H    11    31       P1  7948  0.40
      L1  H    15    18       P1  8028  0.93
      P1  H  7989  7998       L1     8  0.81

> <Gold.PLP.Chemscore.Internal.Correction>
0.1003

> <Gold.Rescore>
     Score         DG    S(hbond)    S(metal)    S(lipo)     H(rot)  DE(clash)    DE(int)     intcor
      9.16     -13.47       2.76        0.00      49.02       2.73       0.10       4.21       ----

> <Gold.Chemscore.Fitness>
9.1613

> <Gold.Chemscore.DG>
-13.4721

> <Gold.Chemscore.ZeroCoef>
-5.4800

> <Gold.Chemscore.Hbond>
2.7645

> <Gold.Chemscore.Metal>
0.0000

> <Gold.Chemscore.Lipo>
49.0212

> <Gold.Chemscore.Internal_Hbond>
0.0000

> <Gold.Chemscore.DEClash>
0.0994

> <Gold.Chemscore.DEInternal>
4.2114

> <Gold.Chemscore.Rot>
2.7253

> <Gold.Chemscore.Internal.Correction>
   9.000000E+99

> <Gold.Chemscore.Hbonds>
donor molecule, donor type, donor heavy atom, donor atom, acceptor molecule, acceptor atom, score
      L1  H     8    27       P1  7957  0.89
      L1  H    11    31       P1  7948  0.38
      L1  H    15    18       P1  8028  0.86
      P1  H  7989  7998       L1     8  0.06

> <Gold.Chemscore.Hbond.Weighted>
-9.2335

> <Gold.Chemscore.Metal.Weighted>
-0.0000

> <Gold.Chemscore.Lipo.Weighted>
-5.7355

> <Gold.Chemscore.Internal_Hbond.Weighted>
0.0000

> <Gold.Chemscore.DEClash.Weighted>
0.0994

> <Gold.Chemscore.DEInternal.Weighted>
4.2114

> <Gold.Chemscore.Rot.Weighted>
6.9769

> <Gold.Chemscore.Internal.Correction.Weighted>
   9.000000E+99

> <Gold.Protein.RotatedTorsions>
[ 6907 6896 6895 6894 ] final   42.10 input  -60.11 | X-H torsion
[ 7974 7965 7964 7962 ] final -171.17 input  175.53 | X-H torsion
[ 8008 7997 7996 7995 ] final   96.40 input   59.86 | X-H torsion
[ 10167 10162 10161 10158 ] final -122.82 input  -65.29 | X-H torsion
[ 10718 10713 10712 10709 ] final  163.27 input   66.30 | X-H torsion
[ 10763 10752 10751 10750 ] final   86.11 input  -60.55 | X-H torsion
[ 11005 11000 10999 10996 ] final -151.34 input  -57.11 | X-H torsion

> <Gold.Protein.ActiveResidues>
 VAL166  LYS551  ARG553  GLY616  TRP617  ASP618  TYR619  PRO620  LYS621  CYS622 
 ASP623  PHE694  ASN695  SER759  ASP760  ASP761  ALA762  ILE779  LEU786  VAL792 
 PHE793  MET794  SER795  GLU796  ALA797  LYS798  CYS799  TRP800  GLU811  SER814 

> <Gold.Protein.RotatedAtoms>
  152.2037  134.8565  160.0504 H   0  0  0  0  0  0  0  0  0  0  0  0  # atno 6907 bound_to 6896
  151.9409  133.3632  159.3973 H   0  0  0  0  0  0  0  0  0  0  0  0  # atno 6908 bound_to 6896
  150.6960  134.4364  159.5316 H   0  0  0  0  0  0  0  0  0  0  0  0  # atno 6909 bound_to 6896
  144.7160  140.1962  143.6343 H   0  0  0  0  0  0  0  0  0  0  0  0  # atno 7974 bound_to 7965
  156.0792  140.3273  155.7672 H   0  0  0  0  0  0  0  0  0  0  0  0  # atno 8008 bound_to 7997
  155.5180  140.0582  157.2929 H   0  0  0  0  0  0  0  0  0  0  0  0  # atno 8009 bound_to 7997
  154.4572  140.1949  156.0362 H   0  0  0  0  0  0  0  0  0  0  0  0  # atno 8010 bound_to 7997
  140.0101  143.5450  152.2266 H   0  0  0  0  0  0  0  0  0  0  0  0  # atno 10167 bound_to 10162
  157.1109  131.0467  151.2457 H   0  0  0  0  0  0  0  0  0  0  0  0  # atno 10718 bound_to 10713
  153.1539  135.4592  154.9676 H   0  0  0  0  0  0  0  0  0  0  0  0  # atno 10763 bound_to 10752
  154.7846  135.3199  154.7917 H   0  0  0  0  0  0  0  0  0  0  0  0  # atno 10764 bound_to 10752
  153.8418  135.6929  153.4856 H   0  0  0  0  0  0  0  0  0  0  0  0  # atno 10765 bound_to 10752
  140.7306  134.3625  157.5167 H   0  0  0  0  0  0  0  0  0  0  0  0  # atno 11005 bound_to 11000
  145.8722  139.2278  143.1654 LP  0  0  0  0  0  0  0  0  0  0  0  0  # atno 17320 bound_to 7965
  146.0074  140.8466  142.9988 LP  0  0  0  0  0  0  0  0  0  0  0  0  # atno 17321 bound_to 7965
  139.6211  144.7629  151.2739 LP  0  0  0  0  0  0  0  0  0  0  0  0  # atno 17342 bound_to 10162
  140.7385  143.6647  150.8133 LP  0  0  0  0  0  0  0  0  0  0  0  0  # atno 17343 bound_to 10162
  157.4560  130.7625  149.7193 LP  0  0  0  0  0  0  0  0  0  0  0  0  # atno 17370 bound_to 10713
  155.9851  130.3986  150.3280 LP  0  0  0  0  0  0  0  0  0  0  0  0  # atno 17371 bound_to 10713
  139.8827  134.9016  156.2814 LP  0  0  0  0  0  0  0  0  0  0  0  0  # atno 17394 bound_to 11000
  140.9924  133.7201  156.0834 LP  0  0  0  0  0  0  0  0  0  0  0  0  # atno 17395 bound_to 11000

$$$$
