AV-unprocessed.smi:1866|AV-procd|sdf|7556|dock10
  -GOLD-   22720 9273D 1   1.00000     0.00000
 Structure written by MMmdl.
 30 31  0  0  0  0  0  0  0  0  1 V2000
  147.0948  129.4997  153.3170 C   0  0  0  0  0  0  0  0  0  0  0  0
  147.7326  130.7854  153.7195 C   0  0  0  0  0  0  0  0  0  0  0  0
  148.5758  130.8841  154.7547 N   0  0  0  0  0  0  0  0  0  0  0  0
  149.0377  132.1804  154.9352 N   0  0  0  0  0  0  0  0  0  0  0  0
  148.5272  133.0238  154.0275 C   0  0  0  0  0  0  0  0  0  0  0  0
  148.8300  134.4105  153.9806 N   0  0  0  0  0  0  0  0  0  0  0  0
  149.4020  135.1709  154.9307 C   0  0  0  0  0  0  0  0  0  0  0  0
  149.7729  134.7718  156.0350 O   0  0  0  0  0  0  0  0  0  0  0  0
  149.5230  136.4433  154.5254 N   0  0  0  0  0  0  0  0  0  0  0  0
  150.1299  137.5251  155.2985 C   0  0  2  0  0  0  0  0  0  0  0  0
  149.9216  138.8848  154.6047 C   0  0  0  0  0  0  0  0  0  0  0  0
  150.7244  139.9749  155.3204 C   0  0  0  0  0  0  0  0  0  0  0  0
  152.2183  139.6129  155.3462 C   0  0  0  0  0  0  0  0  0  0  0  0
  152.4701  138.2228  155.7287 N   0  0  0  0  0  0  0  0  0  0  0  0
  151.5915  137.2068  155.6614 C   0  0  0  0  0  0  0  0  0  0  0  0
  151.9276  136.0522  155.9203 O   0  0  0  0  0  0  0  0  0  0  0  0
  147.4285  132.2950  152.8685 S   0  0  0  0  0  0  0  0  0  0  0  0
  147.5894  128.6567  153.8011 H   0  0  0  0  0  0  0  0  0  0  0  0
  147.1636  129.3703  152.2368 H   0  0  0  0  0  0  0  0  0  0  0  0
  146.0432  129.5006  153.6041 H   0  0  0  0  0  0  0  0  0  0  0  0
  148.5831  134.8781  153.1211 H   0  0  0  0  0  0  0  0  0  0  0  0
  149.1966  136.6815  153.6004 H   0  0  0  0  0  0  0  0  0  0  0  0
  149.6208  137.5726  156.2632 H   0  0  0  0  0  0  0  0  0  0  0  0
  150.2367  138.8262  153.5615 H   0  0  0  0  0  0  0  0  0  0  0  0
  148.8635  139.1487  154.5962 H   0  0  0  0  0  0  0  0  0  0  0  0
  150.5787  140.9388  154.8322 H   0  0  0  0  0  0  0  0  0  0  0  0
  150.3556  140.0847  156.3411 H   0  0  0  0  0  0  0  0  0  0  0  0
  152.6488  139.7668  154.3561 H   0  0  0  0  0  0  0  0  0  0  0  0
  152.7545  140.2748  156.0266 H   0  0  0  0  0  0  0  0  0  0  0  0
  153.4143  137.9989  156.0084 H   0  0  0  0  0  0  0  0  0  0  0  0
  1  2  1  0  0  0  0
  1 18  1  0  0  0  0
  1 19  1  0  0  0  0
  1 20  1  0  0  0  0
  2 17  1  0  0  0  0
  2  3  2  0  0  0  0
  3  4  1  0  0  0  0
  4  5  2  0  0  0  0
  5  6  1  0  0  0  0
  5 17  1  0  0  0  0
  6  7  1  0  0  0  0
  6 21  1  0  0  0  0
  7  8  2  0  0  0  0
  7  9  1  0  0  0  0
  9 10  1  0  0  0  0
  9 22  1  0  0  0  0
 10 15  1  0  0  0  0
 10 11  1  0  0  0  0
 10 23  1  0  0  0  0
 11 12  1  0  0  0  0
 11 24  1  0  0  0  0
 11 25  1  0  0  0  0
 12 13  1  0  0  0  0
 12 26  1  0  0  0  0
 12 27  1  0  0  0  0
 13 14  1  0  0  0  0
 13 28  1  0  0  0  0
 13 29  1  0  0  0  0
 14 15  1  0  0  0  0
 14 30  1  0  0  0  0
 15 16  2  0  0  0  0
M  END
> <s_m_source_file>
AV-unprocessed.smi

> <i_m_source_file_index>
1866

> <i_lp_mmshare_version>
43012

> <i_f3d_flags>
0

> <s_epik_input>
W0NIM11jMW5uYyhzMSlbTkhdQyg9TylbTkhdW0NAQEhdMltDSDJdW0NIMl1bQ0gyXVtOSF1DMj1P

> <s_epik_cmdline>
J2VwaWtfcHl0aG9uJywgJy1waCcsICc3LjAnLCAnLXRuJywgJzgnLCAnLW1hJywgJzIwMCcsICctbWV0YWxfYmluZGluZycsICctaW1hZScsICc8aW5maWxlLm1hZT4nLCAnLW9tYWUnLCAnPG91dGZpbGUubWFlPic=

> <r_lp_tautomer_probability>
1

> <r_epik_Ionization_Penalty>
0.00093002

> <r_epik_Ionization_Penalty_Charging>
0

> <r_epik_Ionization_Penalty_Neutral>
0.00093002

> <r_epik_State_Penalty>
-0

> <r_epik_Charging_Adjusted_Penalty>
0

> <i_epik_Tot_Q>
0

> <i_epik_Tot_abs_Q>
0

> <r_epik_Metal_State_Penalty>
0.280775

> <b_epik_Metal_Only>
0

> <s_lp_Force_Field>
OPLS_2005

> <r_lp_Energy>
8.18213

> <b_lp_Chiralities_Consistent>
1

> <s_lp_Variant>
AV-unprocessed.smi:1866-1

> <Gold.Version>
5.8.1

> <Gold.Id.Protein>
6NUR|6NUR_protein|mol2

> <Gold.PLP.Fitness>
32.6067

> <Gold.PLP.PLP>
-23.7555

> <Gold.PLP.part.hbond>
-3.0000

> <Gold.PLP.part.metal>
0.0000

> <Gold.PLP.part.buried>
-2.1473

> <Gold.PLP.part.nonpolar>
-19.3261

> <Gold.PLP.part.repulsive>
0.2742

> <Gold.PLP.ligand.clash>
0.0000

> <Gold.PLP.ligand.torsion>
0.0836

> <Gold.PLP.Chemscore.Hbond>
2.9920

> <Gold.PLP.Chemscore.CHOScore>
0.0000

> <Gold.PLP.Chemscore.Metal>
0.0000

> <Gold.Chemscore.Hbonds>
donor molecule, donor type, donor heavy atom, donor atom, acceptor molecule, acceptor atom, score
      L1  H     6    21       P1  7948  0.98
      L1  H     9    22       P1  7948  0.98
      P1  H 10752 10763       L1    16  1.00

> <Gold.PLP.Chemscore.Internal.Correction>
0.0424

> <Gold.Rescore>
     Score         DG    S(hbond)    S(metal)    S(lipo)     H(rot)  DE(clash)    DE(int)     intcor
     12.30     -16.44       2.70        0.00      38.48       1.00       0.05       4.10       ----

> <Gold.Chemscore.Fitness>
12.2981

> <Gold.Chemscore.DG>
-16.4392

> <Gold.Chemscore.ZeroCoef>
-5.4800

> <Gold.Chemscore.Hbond>
2.6998

> <Gold.Chemscore.Metal>
0.0000

> <Gold.Chemscore.Lipo>
38.4791

> <Gold.Chemscore.Internal_Hbond>
0.0000

> <Gold.Chemscore.DEClash>
0.0456

> <Gold.Chemscore.DEInternal>
4.0955

> <Gold.Chemscore.Rot>
1.0000

> <Gold.Chemscore.Internal.Correction>
   9.000000E+99

> <Gold.Chemscore.Hbonds>
donor molecule, donor type, donor heavy atom, donor atom, acceptor molecule, acceptor atom, score
      L1  H     6    21       P1  7948  0.47
      L1  H     9    22       P1  7948  0.91
      P1  H 10752 10763       L1    16  0.89

> <Gold.Chemscore.Hbond.Weighted>
-9.0172

> <Gold.Chemscore.Metal.Weighted>
-0.0000

> <Gold.Chemscore.Lipo.Weighted>
-4.5021

> <Gold.Chemscore.Internal_Hbond.Weighted>
0.0000

> <Gold.Chemscore.DEClash.Weighted>
0.0456

> <Gold.Chemscore.DEInternal.Weighted>
4.0955

> <Gold.Chemscore.Rot.Weighted>
2.5600

> <Gold.Chemscore.Internal.Correction.Weighted>
   9.000000E+99

> <Gold.Protein.RotatedTorsions>
[ 6907 6896 6895 6894 ] final  -92.32 input  -60.11 | X-H torsion
[ 7974 7965 7964 7962 ] final   18.17 input  175.53 | X-H torsion
[ 8008 7997 7996 7995 ] final  168.69 input   59.86 | X-H torsion
[ 10167 10162 10161 10158 ] final  115.36 input  -65.29 | X-H torsion
[ 10718 10713 10712 10709 ] final  170.50 input   66.30 | X-H torsion
[ 10763 10752 10751 10750 ] final   86.50 input  -60.55 | X-H torsion
[ 11005 11000 10999 10996 ] final -150.97 input  -57.11 | X-H torsion

> <Gold.Protein.ActiveResidues>
 VAL166  LYS551  ARG553  GLY616  TRP617  ASP618  TYR619  PRO620  LYS621  CYS622 
 ASP623  PHE694  ASN695  SER759  ASP760  ASP761  ALA762  ILE779  LEU786  VAL792 
 PHE793  MET794  SER795  GLU796  ALA797  LYS798  CYS799  TRP800  GLU811  SER814 

> <Gold.Protein.RotatedAtoms>
  150.6904  134.2140  159.4370 H   0  0  0  0  0  0  0  0  0  0  0  0  # atno 6907 bound_to 6896
  152.0100  134.9879  160.0577 H   0  0  0  0  0  0  0  0  0  0  0  0  # atno 6908 bound_to 6896
  152.1497  133.4479  159.4844 H   0  0  0  0  0  0  0  0  0  0  0  0  # atno 6909 bound_to 6896
  146.2194  139.8496  142.8625 H   0  0  0  0  0  0  0  0  0  0  0  0  # atno 7974 bound_to 7965
  156.1524  140.1584  156.8747 H   0  0  0  0  0  0  0  0  0  0  0  0  # atno 8008 bound_to 7997
  154.5084  140.0807  156.7977 H   0  0  0  0  0  0  0  0  0  0  0  0  # atno 8009 bound_to 7997
  155.3869  140.3408  155.4251 H   0  0  0  0  0  0  0  0  0  0  0  0  # atno 8010 bound_to 7997
  139.6322  144.7116  151.2407 H   0  0  0  0  0  0  0  0  0  0  0  0  # atno 10167 bound_to 10162
  157.0073  131.0193  151.2813 H   0  0  0  0  0  0  0  0  0  0  0  0  # atno 10718 bound_to 10713
  153.1577  135.4578  154.9727 H   0  0  0  0  0  0  0  0  0  0  0  0  # atno 10763 bound_to 10752
  154.7874  135.3208  154.7858 H   0  0  0  0  0  0  0  0  0  0  0  0  # atno 10764 bound_to 10752
  153.8353  135.6935  153.4864 H   0  0  0  0  0  0  0  0  0  0  0  0  # atno 10765 bound_to 10752
  140.7346  134.3583  157.5160 H   0  0  0  0  0  0  0  0  0  0  0  0  # atno 11005 bound_to 11000
  145.2815  141.0140  143.3714 LP  0  0  0  0  0  0  0  0  0  0  0  0  # atno 17320 bound_to 7965
  144.9146  139.4486  143.6570 LP  0  0  0  0  0  0  0  0  0  0  0  0  # atno 17321 bound_to 7965
  140.7446  143.6459  150.8292 LP  0  0  0  0  0  0  0  0  0  0  0  0  # atno 17342 bound_to 10162
  140.0085  143.5667  152.2848 LP  0  0  0  0  0  0  0  0  0  0  0  0  # atno 17343 bound_to 10162
  157.5346  130.8081  149.7957 LP  0  0  0  0  0  0  0  0  0  0  0  0  # atno 17370 bound_to 10713
  156.0149  130.3818  150.2143 LP  0  0  0  0  0  0  0  0  0  0  0  0  # atno 17371 bound_to 10713
  139.8819  134.9041  156.2869 LP  0  0  0  0  0  0  0  0  0  0  0  0  # atno 17394 bound_to 11000
  140.9891  133.7220  156.0786 LP  0  0  0  0  0  0  0  0  0  0  0  0  # atno 17395 bound_to 11000

$$$$
