AV-unprocessed.smi:1133|AV-procd|sdf|4856|dock7
  -GOLD-   22720 3423D 1   1.00000     0.00000
 Structure written by MMmdl.
 41 42  0  0  0  0  0  0  0  0  1 V2000
  151.6266  138.5417  158.9015 C   0  0  0  0  0  0  0  0  0  0  0  0
  152.0348  138.9598  157.4869 C   0  0  0  0  0  0  0  0  0  0  0  0
  153.1898  138.7314  157.1271 O   0  0  0  0  0  0  0  0  0  0  0  0
  151.1218  139.5561  156.6829 N   0  0  0  0  0  0  0  0  0  0  0  0
  151.4035  139.9082  155.2865 C   0  0  0  0  0  0  0  0  0  0  0  0
  150.6137  138.9587  154.3675 C   0  0  0  0  0  0  0  0  0  0  0  0
  149.1025  138.9976  154.6823 C   0  0  0  0  0  0  0  0  0  0  0  0
  148.4172  137.9522  153.9286 N   0  0  0  0  0  0  0  0  0  0  0  0
  147.0924  137.7489  153.9218 C   0  0  0  0  0  0  0  0  0  0  0  0
  146.2846  138.4368  154.5464 O   0  0  0  0  0  0  0  0  0  0  0  0
  146.7531  136.6998  153.1599 N   0  0  0  0  0  0  0  0  0  0  0  0
  145.3906  136.2195  152.9631 C   0  0  0  0  0  0  0  0  0  0  0  0
  145.0772  135.9979  151.4739 C   0  0  0  0  0  0  0  0  0  0  0  0
  145.2909  134.6187  151.0866 N   0  0  0  0  0  0  0  0  0  0  0  0
  146.4657  133.8876  151.2011 C   0  0  0  0  0  0  0  0  0  0  0  0
  146.1957  132.6312  150.7074 C   0  0  0  0  0  0  0  0  0  0  0  0
  144.8701  132.5683  150.2843 N   0  0  0  0  0  0  0  0  0  0  0  0
  144.3982  133.7818  150.5402 C   0  0  0  0  0  0  0  0  0  0  0  0
  148.8361  138.8367  156.1975 C   0  0  0  0  0  0  0  0  0  0  0  0
  149.7139  139.7926  157.0247 C   0  0  0  0  0  0  0  0  0  0  0  0
  150.7870  137.8463  158.8728 H   0  0  0  0  0  0  0  0  0  0  0  0
  151.3478  139.4118  159.4963 H   0  0  0  0  0  0  0  0  0  0  0  0
  152.4535  138.0432  159.4085 H   0  0  0  0  0  0  0  0  0  0  0  0
  151.1044  140.9417  155.1055 H   0  0  0  0  0  0  0  0  0  0  0  0
  152.4661  139.8607  155.0447 H   0  0  0  0  0  0  0  0  0  0  0  0
  150.7858  139.2234  153.3236 H   0  0  0  0  0  0  0  0  0  0  0  0
  150.9931  137.9437  154.4961 H   0  0  0  0  0  0  0  0  0  0  0  0
  148.7253  139.9727  154.3679 H   0  0  0  0  0  0  0  0  0  0  0  0
  148.9963  137.3320  153.3817 H   0  0  0  0  0  0  0  0  0  0  0  0
  147.4881  136.1953  152.6860 H   0  0  0  0  0  0  0  0  0  0  0  0
  145.2360  135.2993  153.5296 H   0  0  0  0  0  0  0  0  0  0  0  0
  144.7076  136.9598  153.3805 H   0  0  0  0  0  0  0  0  0  0  0  0
  144.0415  136.2638  151.2576 H   0  0  0  0  0  0  0  0  0  0  0  0
  145.7053  136.6316  150.8460 H   0  0  0  0  0  0  0  0  0  0  0  0
  147.3707  134.3097  151.6127 H   0  0  0  0  0  0  0  0  0  0  0  0
  146.8484  131.7749  150.6235 H   0  0  0  0  0  0  0  0  0  0  0  0
  143.3797  134.0696  150.3234 H   0  0  0  0  0  0  0  0  0  0  0  0
  147.7832  139.0182  156.4163 H   0  0  0  0  0  0  0  0  0  0  0  0
  149.0423  137.8096  156.5027 H   0  0  0  0  0  0  0  0  0  0  0  0
  149.4950  139.6739  158.0848 H   0  0  0  0  0  0  0  0  0  0  0  0
  149.4579  140.8271  156.7912 H   0  0  0  0  0  0  0  0  0  0  0  0
  1  2  1  0  0  0  0
  1 21  1  0  0  0  0
  1 22  1  0  0  0  0
  1 23  1  0  0  0  0
  2  3  2  0  0  0  0
  2  4  1  0  0  0  0
  4 20  1  0  0  0  0
  4  5  1  0  0  0  0
  5  6  1  0  0  0  0
  5 24  1  0  0  0  0
  5 25  1  0  0  0  0
  6  7  1  0  0  0  0
  6 26  1  0  0  0  0
  6 27  1  0  0  0  0
  7  8  1  0  0  0  0
  7 19  1  0  0  0  0
  7 28  1  0  0  0  0
  8  9  1  0  0  0  0
  8 29  1  0  0  0  0
  9 10  2  0  0  0  0
  9 11  1  0  0  0  0
 11 12  1  0  0  0  0
 11 30  1  0  0  0  0
 12 13  1  0  0  0  0
 12 31  1  0  0  0  0
 12 32  1  0  0  0  0
 13 14  1  0  0  0  0
 13 33  1  0  0  0  0
 13 34  1  0  0  0  0
 14 18  1  0  0  0  0
 14 15  1  0  0  0  0
 15 16  2  0  0  0  0
 15 35  1  0  0  0  0
 16 17  1  0  0  0  0
 16 36  1  0  0  0  0
 17 18  2  0  0  0  0
 18 37  1  0  0  0  0
 19 20  1  0  0  0  0
 19 38  1  0  0  0  0
 19 39  1  0  0  0  0
 20 40  1  0  0  0  0
 20 41  1  0  0  0  0
M  END
> <s_m_source_file>
AV-unprocessed.smi

> <i_m_source_file_index>
1133

> <i_lp_mmshare_version>
43012

> <i_f3d_flags>
0

> <s_epik_input>
W0NIM11DKD1PKU4xW0NIMl1bQ0gyXVtDSF0oW0NIMl1bQ0gyXTEpW05IXUMoPU8pW05IXVtDSDJdW0NIMl1uMltjSF1bY0hdbltjSF0y

> <s_epik_cmdline>
J2VwaWtfcHl0aG9uJywgJy1waCcsICc3LjAnLCAnLXRuJywgJzgnLCAnLW1hJywgJzIwMCcsICctbWV0YWxfYmluZGluZycsICctaW1hZScsICc8aW5maWxlLm1hZT4nLCAnLW9tYWUnLCAnPG91dGZpbGUubWFlPic=

> <r_lp_tautomer_probability>
1

> <r_epik_Ionization_Penalty>
0.622276

> <r_epik_Ionization_Penalty_Charging>
0.622222

> <r_epik_Ionization_Penalty_Neutral>
5.3634e-05

> <r_epik_State_Penalty>
0.638348

> <r_epik_Charging_Adjusted_Penalty>
1.26057

> <i_epik_Tot_Q>
0

> <i_epik_Tot_abs_Q>
0

> <r_epik_Metal_State_Penalty>
0.307013

> <b_epik_Metal_Only>
0

> <s_lp_Force_Field>
OPLS_2005

> <r_lp_Energy>
21.3303

> <b_lp_Chiralities_Consistent>
1

> <s_lp_Variant>
AV-unprocessed.smi:1133-2

> <Gold.Version>
5.8.1

> <Gold.Id.Protein>
6NUR|6NUR_protein|mol2

> <Gold.PLP.Fitness>
45.6450

> <Gold.PLP.PLP>
-28.6018

> <Gold.PLP.part.hbond>
-3.0000

> <Gold.PLP.part.metal>
0.0000

> <Gold.PLP.part.buried>
-3.1514

> <Gold.PLP.part.nonpolar>
-22.3591

> <Gold.PLP.part.repulsive>
0.2518

> <Gold.PLP.ligand.clash>
0.0000

> <Gold.PLP.ligand.torsion>
0.3121

> <Gold.PLP.Chemscore.Hbond>
2.8800

> <Gold.PLP.Chemscore.CHOScore>
3.0000

> <Gold.PLP.Chemscore.Metal>
0.0000

> <Gold.Chemscore.Hbonds>
donor molecule, donor type, donor heavy atom, donor atom, acceptor molecule, acceptor atom, score
      L1  H     8    29       P1  7948  0.86
      L1  H    11    30       P1  7948  0.99
      P1  H  7997  8009       L1     3  1.00
      L1  C    15    35       P1  7948  1.00
      L1  C    16    36       P1 10747  1.00
      L1  C    18    37       P1 10186  1.00

> <Gold.PLP.Chemscore.Internal.Correction>
0.0273

> <Gold.Rescore>
     Score         DG    S(hbond)    S(metal)    S(lipo)     H(rot)  DE(clash)    DE(int)     intcor
     15.33     -15.80       2.80        0.00      52.28       2.01       0.08       0.38       ----

> <Gold.Chemscore.Fitness>
15.3331

> <Gold.Chemscore.DG>
-15.7964

> <Gold.Chemscore.ZeroCoef>
-5.4800

> <Gold.Chemscore.Hbond>
2.7994

> <Gold.Chemscore.Metal>
0.0000

> <Gold.Chemscore.Lipo>
52.2808

> <Gold.Chemscore.Internal_Hbond>
0.0000

> <Gold.Chemscore.DEClash>
0.0825

> <Gold.Chemscore.DEInternal>
0.3808

> <Gold.Chemscore.Rot>
2.0119

> <Gold.Chemscore.Internal.Correction>
   9.000000E+99

> <Gold.Chemscore.Hbonds>
donor molecule, donor type, donor heavy atom, donor atom, acceptor molecule, acceptor atom, score
      L1  H     8    29       P1  7948  0.85
      L1  H    11    30       P1  7948  0.93
      P1  H  7997  8009       L1     3  0.97

> <Gold.Chemscore.Hbond.Weighted>
-9.3499

> <Gold.Chemscore.Metal.Weighted>
-0.0000

> <Gold.Chemscore.Lipo.Weighted>
-6.1169

> <Gold.Chemscore.Internal_Hbond.Weighted>
0.0000

> <Gold.Chemscore.DEClash.Weighted>
0.0825

> <Gold.Chemscore.DEInternal.Weighted>
0.3808

> <Gold.Chemscore.Rot.Weighted>
5.1503

> <Gold.Chemscore.Internal.Correction.Weighted>
   9.000000E+99

> <Gold.Protein.RotatedTorsions>
[ 6907 6896 6895 6894 ] final -105.61 input  -60.11 | X-H torsion
[ 7974 7965 7964 7962 ] final   58.14 input  175.53 | X-H torsion
[ 8008 7997 7996 7995 ] final -176.04 input   59.86 | X-H torsion
[ 10167 10162 10161 10158 ] final  -33.45 input  -65.29 | X-H torsion
[ 10718 10713 10712 10709 ] final  159.40 input   66.30 | X-H torsion
[ 10763 10752 10751 10750 ] final   12.22 input  -60.55 | X-H torsion
[ 11005 11000 10999 10996 ] final   26.93 input  -57.11 | X-H torsion

> <Gold.Protein.ActiveResidues>
 VAL166  LYS551  ARG553  GLY616  TRP617  ASP618  TYR619  PRO620  LYS621  CYS622 
 ASP623  PHE694  ASN695  SER759  ASP760  ASP761  ALA762  ILE779  LEU786  VAL792 
 PHE793  MET794  SER795  GLU796  ALA797  LYS798  CYS799  TRP800  GLU811  SER814 

> <Gold.Protein.RotatedAtoms>
  150.7345  134.0101  159.3666 H   0  0  0  0  0  0  0  0  0  0  0  0  # atno 6907 bound_to 6896
  151.8060  135.0693  160.0416 H   0  0  0  0  0  0  0  0  0  0  0  0  # atno 6908 bound_to 6896
  152.3107  133.5713  159.5715 H   0  0  0  0  0  0  0  0  0  0  0  0  # atno 6909 bound_to 6896
  145.9215  139.3733  143.0476 H   0  0  0  0  0  0  0  0  0  0  0  0  # atno 7974 bound_to 7965
  155.9900  140.1199  157.0647 H   0  0  0  0  0  0  0  0  0  0  0  0  # atno 8008 bound_to 7997
  154.4209  140.1127  156.5621 H   0  0  0  0  0  0  0  0  0  0  0  0  # atno 8009 bound_to 7997
  155.6355  140.3473  155.4699 H   0  0  0  0  0  0  0  0  0  0  0  0  # atno 8010 bound_to 7997
  140.7204  143.3619  151.1946 H   0  0  0  0  0  0  0  0  0  0  0  0  # atno 10167 bound_to 10162
  157.1647  131.0595  151.2214 H   0  0  0  0  0  0  0  0  0  0  0  0  # atno 10718 bound_to 10713
  153.1844  135.6833  153.8434 H   0  0  0  0  0  0  0  0  0  0  0  0  # atno 10763 bound_to 10752
  153.7755  135.3190  155.3359 H   0  0  0  0  0  0  0  0  0  0  0  0  # atno 10764 bound_to 10752
  154.8080  135.4736  154.0538 H   0  0  0  0  0  0  0  0  0  0  0  0  # atno 10765 bound_to 10752
  140.3317  134.2431  155.7701 H   0  0  0  0  0  0  0  0  0  0  0  0  # atno 11005 bound_to 11000
  145.8544  140.9511  143.0733 LP  0  0  0  0  0  0  0  0  0  0  0  0  # atno 17320 bound_to 7965
  144.6753  140.0449  143.7480 LP  0  0  0  0  0  0  0  0  0  0  0  0  # atno 17321 bound_to 7965
  139.7173  143.9280  152.2972 LP  0  0  0  0  0  0  0  0  0  0  0  0  # atno 17342 bound_to 10162
  139.9025  144.6903  150.8650 LP  0  0  0  0  0  0  0  0  0  0  0  0  # atno 17343 bound_to 10162
  157.4099  130.7379  149.6831 LP  0  0  0  0  0  0  0  0  0  0  0  0  # atno 17370 bound_to 10713
  155.9748  130.4098  150.3897 LP  0  0  0  0  0  0  0  0  0  0  0  0  # atno 17371 bound_to 10713
  141.2062  133.7840  157.0192 LP  0  0  0  0  0  0  0  0  0  0  0  0  # atno 17394 bound_to 11000
  140.0855  134.9623  157.1693 LP  0  0  0  0  0  0  0  0  0  0  0  0  # atno 17395 bound_to 11000

$$$$
