AV-unprocessed.smi:1041|AV-procd|sdf|4533|dock5
  -GOLD-   22720 2553D 1   1.00000     0.00000
 Structure written by MMmdl.
 52 53  0  0  0  0  0  0  0  0  3 V2000
  143.6013  132.4964  151.0859 C   0  0  0  0  0  0  0  0  0  0  0  0
  144.8424  131.9228  151.4579 O   0  0  0  0  0  0  0  0  0  0  0  0
  145.5218  132.6851  152.4419 C   0  0  0  0  0  0  0  0  0  0  0  0
  146.3030  133.8107  151.7472 C   0  0  0  0  0  0  0  0  0  0  0  0
  147.2370  134.5059  152.6693 N   0  3  2  0  0  0  0  0  0  0  0  0
  148.3927  133.6527  153.0451 C   0  0  0  0  0  0  0  0  0  0  0  0
  149.4145  134.4400  153.8791 C   0  0  0  0  0  0  0  0  0  0  0  0
  148.7657  135.0420  155.1431 C   0  0  1  0  0  0  0  0  0  0  0  0
  149.7539  135.8556  156.0046 C   0  0  0  0  0  0  0  0  0  0  0  0
  149.8448  137.2262  155.5188 N   0  0  0  0  0  0  0  0  0  0  0  0
  150.7373  137.6848  154.6288 C   0  0  0  0  0  0  0  0  0  0  0  0
  151.4499  136.9606  153.9345 O   0  0  0  0  0  0  0  0  0  0  0  0
  150.8911  139.2040  154.5739 C   0  0  0  0  0  0  0  0  0  0  0  0
  151.5534  139.7976  155.8178 C   0  0  0  0  0  0  0  0  0  0  0  0
  151.1020  140.9232  156.4418 C   0  0  0  0  0  0  0  0  0  0  0  0
  149.8705  141.6852  155.9852 C   0  0  0  0  0  0  0  0  0  0  0  0
  151.7772  141.4595  157.5514 N   0  0  0  0  0  0  0  0  0  0  0  0
  152.8424  140.8939  157.9744 C   0  0  0  0  0  0  0  0  0  0  0  0
  153.5658  141.4784  159.1687 C   0  0  0  0  0  0  0  0  0  0  0  0
  153.3884  139.7635  157.4093 N   0  5  0  0  0  0  0  0  0  0  0  0
  152.7815  139.1717  156.3419 C   0  0  0  0  0  0  0  0  0  0  0  0
  153.2380  138.1606  155.8097 O   0  0  0  0  0  0  0  0  0  0  0  0
  147.5544  135.8904  154.7224 C   0  0  0  0  0  0  0  0  0  0  0  0
  146.5680  135.0747  153.8697 C   0  0  0  0  0  0  0  0  0  0  0  0
  143.1202  131.8717  150.3335 H   0  0  0  0  0  0  0  0  0  0  0  0
  143.7387  133.4911  150.6595 H   0  0  0  0  0  0  0  0  0  0  0  0
  142.9281  132.5714  151.9409 H   0  0  0  0  0  0  0  0  0  0  0  0
  144.8209  133.0777  153.1786 H   0  0  0  0  0  0  0  0  0  0  0  0
  146.2197  132.0412  152.9793 H   0  0  0  0  0  0  0  0  0  0  0  0
  146.8564  133.4206  150.8917 H   0  0  0  0  0  0  0  0  0  0  0  0
  145.5807  134.5230  151.3455 H   0  0  0  0  0  0  0  0  0  0  0  0
  148.0418  132.7823  153.6020 H   0  0  0  0  0  0  0  0  0  0  0  0
  148.8837  133.2769  152.1464 H   0  0  0  0  0  0  0  0  0  0  0  0
  150.2314  133.7698  154.1455 H   0  0  0  0  0  0  0  0  0  0  0  0
  149.8535  135.2334  153.2726 H   0  0  0  0  0  0  0  0  0  0  0  0
  148.3985  134.2160  155.7548 H   0  0  0  0  0  0  0  0  0  0  0  0
  149.4590  135.8205  157.0544 H   0  0  0  0  0  0  0  0  0  0  0  0
  150.7487  135.4131  155.9483 H   0  0  0  0  0  0  0  0  0  0  0  0
  149.2976  137.9147  156.0165 H   0  0  0  0  0  0  0  0  0  0  0  0
  151.4771  139.4634  153.6921 H   0  0  0  0  0  0  0  0  0  0  0  0
  149.9145  139.6585  154.4022 H   0  0  0  0  0  0  0  0  0  0  0  0
  148.9844  141.0530  156.0459 H   0  0  0  0  0  0  0  0  0  0  0  0
  149.9886  142.0230  154.9557 H   0  0  0  0  0  0  0  0  0  0  0  0
  149.6968  142.5645  156.6068 H   0  0  0  0  0  0  0  0  0  0  0  0
  153.3964  140.8592  160.0500 H   0  0  0  0  0  0  0  0  0  0  0  0
  153.2138  142.4881  159.3849 H   0  0  0  0  0  0  0  0  0  0  0  0
  154.6388  141.5266  158.9803 H   0  0  0  0  0  0  0  0  0  0  0  0
  147.0427  136.2734  155.6061 H   0  0  0  0  0  0  0  0  0  0  0  0
  147.8900  136.7619  154.1583 H   0  0  0  0  0  0  0  0  0  0  0  0
  145.7425  135.7213  153.5750 H   0  0  0  0  0  0  0  0  0  0  0  0
  146.1385  134.2672  154.4649 H   0  0  0  0  0  0  0  0  0  0  0  0
  147.6225  135.2813  152.1487 H   0  0  0  0  0  0  0  0  0  0  0  0
  1  2  1  0  0  0  0
  1 25  1  0  0  0  0
  1 26  1  0  0  0  0
  1 27  1  0  0  0  0
  2  3  1  0  0  0  0
  3  4  1  0  0  0  0
  3 28  1  0  0  0  0
  3 29  1  0  0  0  0
  4  5  1  0  0  0  0
  4 30  1  0  0  0  0
  4 31  1  0  0  0  0
  5 24  1  0  0  0  0
  5  6  1  0  0  0  0
  5 52  1  0  0  0  0
  6  7  1  0  0  0  0
  6 32  1  0  0  0  0
  6 33  1  0  0  0  0
  7  8  1  0  0  0  0
  7 34  1  0  0  0  0
  7 35  1  0  0  0  0
  8  9  1  0  0  0  0
  8 23  1  0  0  0  0
  8 36  1  0  0  0  0
  9 10  1  0  0  0  0
  9 37  1  0  0  0  0
  9 38  1  0  0  0  0
 10 11  1  0  0  0  0
 10 39  1  0  0  0  0
 11 12  2  0  0  0  0
 11 13  1  0  0  0  0
 13 14  1  0  0  0  0
 13 40  1  0  0  0  0
 13 41  1  0  0  0  0
 14 21  1  0  0  0  0
 14 15  2  0  0  0  0
 15 16  1  0  0  0  0
 15 17  1  0  0  0  0
 16 42  1  0  0  0  0
 16 43  1  0  0  0  0
 16 44  1  0  0  0  0
 17 18  2  0  0  0  0
 18 19  1  0  0  0  0
 18 20  1  0  0  0  0
 19 45  1  0  0  0  0
 19 46  1  0  0  0  0
 19 47  1  0  0  0  0
 20 21  1  0  0  0  0
 21 22  2  0  0  0  0
 23 24  1  0  0  0  0
 23 48  1  0  0  0  0
 23 49  1  0  0  0  0
 24 50  1  0  0  0  0
 24 51  1  0  0  0  0
M  CHG  1   5   1
M  CHG  1  20  -1
M  END
> <s_m_source_file>
AV-unprocessed.smi

> <i_m_source_file_index>
1041

> <i_lp_mmshare_version>
43012

> <i_f3d_flags>
0

> <s_epik_input>
W0NIM11PW0NIMl1bQ0gyXU4xW0NIMl1bQ0gyXVtDSF0oW0NIMl1bQ0gyXTEpW0NIMl1bTkhdQyg9TylbQ0gyXWMyYyhbQ0gzXSluYyhbQ0gzXSlbbkhdYzI9Tw==

> <s_epik_cmdline>
J2VwaWtfcHl0aG9uJywgJy1waCcsICc3LjAnLCAnLXRuJywgJzgnLCAnLW1hJywgJzIwMCcsICctbWV0YWxfYmluZGluZycsICctaW1hZScsICc8aW5maWxlLm1hZT4nLCAnLW9tYWUnLCAnPG91dGZpbGUubWFlPic=

> <r_lp_tautomer_probability>
0.839158

> <r_epik_Ionization_Penalty>
6.54961

> <r_epik_Ionization_Penalty_Charging>
0.00968647

> <r_epik_Ionization_Penalty_Neutral>
6.53992

> <r_epik_State_Penalty>
4.43892

> <r_epik_Charging_Adjusted_Penalty>
4.44861

> <i_epik_Tot_Q>
0

> <i_epik_Tot_abs_Q>
2

> <r_epik_Metal_State_Penalty>
0.818645

> <b_epik_Metal_Only>
1

> <s_lp_Force_Field>
OPLS_2005

> <r_lp_Energy>
18.5529

> <b_lp_Chiralities_Consistent>
1

> <s_lp_Variant>
AV-unprocessed.smi:1041-6

> <Gold.Version>
5.8.1

> <Gold.Id.Protein>
6NUR|6NUR_protein|mol2

> <Gold.PLP.Fitness>
50.0428

> <Gold.PLP.PLP>
-36.7545

> <Gold.PLP.part.hbond>
-3.0952

> <Gold.PLP.part.metal>
0.0000

> <Gold.PLP.part.buried>
-4.5542

> <Gold.PLP.part.nonpolar>
-30.5175

> <Gold.PLP.part.repulsive>
1.5967

> <Gold.PLP.ligand.clash>
0.0000

> <Gold.PLP.ligand.torsion>
0.9171

> <Gold.PLP.Chemscore.Hbond>
4.9840

> <Gold.PLP.Chemscore.CHOScore>
0.0000

> <Gold.PLP.Chemscore.Metal>
0.0000

> <Gold.Chemscore.Hbonds>
donor molecule, donor type, donor heavy atom, donor atom, acceptor molecule, acceptor atom, score
      L1  H     5    52       P1  7948  1.86
      P1  H  7997  8009       L1    20  0.99
      P1  H 10752 10763       L1    12  0.96

> <Gold.PLP.Chemscore.Internal.Correction>
0.1704

> <Gold.Rescore>
     Score         DG    S(hbond)    S(metal)    S(lipo)     H(rot)  DE(clash)    DE(int)     intcor
     12.03     -15.25       2.28        0.00      69.91       2.35       0.74       2.48       ----

> <Gold.Chemscore.Fitness>
12.0337

> <Gold.Chemscore.DG>
-15.2536

> <Gold.Chemscore.ZeroCoef>
-5.4800

> <Gold.Chemscore.Hbond>
2.2800

> <Gold.Chemscore.Metal>
0.0000

> <Gold.Chemscore.Lipo>
69.9096

> <Gold.Chemscore.Internal_Hbond>
0.0000

> <Gold.Chemscore.DEClash>
0.7364

> <Gold.Chemscore.DEInternal>
2.4836

> <Gold.Chemscore.Rot>
2.3520

> <Gold.Chemscore.Internal.Correction>
   9.000000E+99

> <Gold.Chemscore.Hbonds>
donor molecule, donor type, donor heavy atom, donor atom, acceptor molecule, acceptor atom, score
      L1  H     5    52       P1  7948  0.89
      P1  H  7997  8009       L1    20  0.23
      P1  H 10752 10763       L1    12  0.88

> <Gold.Chemscore.Hbond.Weighted>
-7.6153

> <Gold.Chemscore.Metal.Weighted>
-0.0000

> <Gold.Chemscore.Lipo.Weighted>
-8.1794

> <Gold.Chemscore.Internal_Hbond.Weighted>
0.0000

> <Gold.Chemscore.DEClash.Weighted>
0.7364

> <Gold.Chemscore.DEInternal.Weighted>
2.4836

> <Gold.Chemscore.Rot.Weighted>
6.0211

> <Gold.Chemscore.Internal.Correction.Weighted>
   9.000000E+99

> <Gold.Protein.RotatedTorsions>
[ 6907 6896 6895 6894 ] final  -95.23 input  -60.11 | X-H torsion
[ 7974 7965 7964 7962 ] final  172.18 input  175.53 | X-H torsion
[ 8008 7997 7996 7995 ] final  143.89 input   59.86 | X-H torsion
[ 10167 10162 10161 10158 ] final -106.51 input  -65.29 | X-H torsion
[ 10718 10713 10712 10709 ] final  -99.67 input   66.30 | X-H torsion
[ 10763 10752 10751 10750 ] final   51.42 input  -60.55 | X-H torsion
[ 11005 11000 10999 10996 ] final  108.98 input  -57.11 | X-H torsion

> <Gold.Protein.ActiveResidues>
 VAL166  LYS551  ARG553  GLY616  TRP617  ASP618  TYR619  PRO620  LYS621  CYS622 
 ASP623  PHE694  ASN695  SER759  ASP760  ASP761  ALA762  ILE779  LEU786  VAL792 
 PHE793  MET794  SER795  GLU796  ALA797  LYS798  CYS799  TRP800  GLU811  SER814 

> <Gold.Protein.RotatedAtoms>
  150.6959  134.1689  159.4204 H   0  0  0  0  0  0  0  0  0  0  0  0  # atno 6907 bound_to 6896
  151.9668  135.0094  160.0560 H   0  0  0  0  0  0  0  0  0  0  0  0  # atno 6908 bound_to 6896
  152.1877  133.4716  159.5028 H   0  0  0  0  0  0  0  0  0  0  0  0  # atno 6909 bound_to 6896
  144.7275  139.9460  143.6430 H   0  0  0  0  0  0  0  0  0  0  0  0  # atno 7974 bound_to 7965
  156.2920  140.2250  156.4964 H   0  0  0  0  0  0  0  0  0  0  0  0  # atno 8008 bound_to 7997
  154.7727  140.0465  157.1085 H   0  0  0  0  0  0  0  0  0  0  0  0  # atno 8009 bound_to 7997
  154.9854  140.3083  155.4932 H   0  0  0  0  0  0  0  0  0  0  0  0  # atno 8010 bound_to 7997
  140.1870  143.3922  152.1236 H   0  0  0  0  0  0  0  0  0  0  0  0  # atno 10167 bound_to 10162
  156.0140  130.5293  150.6704 H   0  0  0  0  0  0  0  0  0  0  0  0  # atno 10718 bound_to 10713
  152.9785  135.5846  154.4412 H   0  0  0  0  0  0  0  0  0  0  0  0  # atno 10763 bound_to 10752
  154.4013  135.2769  155.2096 H   0  0  0  0  0  0  0  0  0  0  0  0  # atno 10764 bound_to 10752
  154.3926  135.6122  153.5906 H   0  0  0  0  0  0  0  0  0  0  0  0  # atno 10765 bound_to 10752
  139.8853  134.9446  156.6056 H   0  0  0  0  0  0  0  0  0  0  0  0  # atno 11005 bound_to 11000
  146.0748  139.3736  143.0501 LP  0  0  0  0  0  0  0  0  0  0  0  0  # atno 17320 bound_to 7965
  145.7920  140.9810  143.1044 LP  0  0  0  0  0  0  0  0  0  0  0  0  # atno 17321 bound_to 7965
  139.5272  144.7116  151.5187 LP  0  0  0  0  0  0  0  0  0  0  0  0  # atno 17342 bound_to 10162
  140.6481  143.8752  150.6758 LP  0  0  0  0  0  0  0  0  0  0  0  0  # atno 17343 bound_to 10162
  157.4427  131.0863  151.0927 LP  0  0  0  0  0  0  0  0  0  0  0  0  # atno 17370 bound_to 10713
  157.1466  130.6166  149.5570 LP  0  0  0  0  0  0  0  0  0  0  0  0  # atno 17371 bound_to 10713
  140.7851  133.8628  155.8599 LP  0  0  0  0  0  0  0  0  0  0  0  0  # atno 17394 bound_to 11000
  140.9727  134.1510  157.4563 LP  0  0  0  0  0  0  0  0  0  0  0  0  # atno 17395 bound_to 11000

$$$$
