AV-unprocessed.smi:72|AV-procd|sdf|711|dock2
  -GOLD-   2262017 33D 1   1.00000     0.00000
 Structure written by MMmdl.
 28 29  0  0  0  0  0  0  0  0  2 V2000
  151.2602  134.7648  156.8385 N   0  0  0  0  0  0  0  0  0  0  0  0
  151.1723  135.9409  156.3934 C   0  0  0  0  0  0  0  0  0  0  0  0
  149.8749  136.5163  156.1127 N   0  0  0  0  0  0  0  0  0  0  0  0
  149.8372  137.7379  155.6769 C   0  0  0  0  0  0  0  0  0  0  0  0
  151.0489  138.5232  155.4855 N   0  0  0  0  0  0  0  0  0  0  0  0
  150.9950  139.9443  154.9664 C   0  0  2  0  0  0  0  0  0  0  0  0
  151.4957  140.8166  155.9407 O   0  0  0  0  0  0  0  0  0  0  0  0
  150.5674  141.8714  156.1591 C   0  0  2  0  0  0  0  0  0  0  0  0
  150.7455  142.4813  157.5618 C   0  0  0  0  0  0  0  0  0  0  0  0
  149.9474  143.6314  157.7524 O   0  0  0  0  0  0  0  0  0  0  0  0
  149.2035  141.2628  155.8281 C   0  0  1  0  0  0  0  0  0  0  0  0
  148.2214  142.2330  155.5162 O   0  0  0  0  0  0  0  0  0  0  0  0
  149.5397  140.3444  154.6574 C   0  0  1  0  0  0  0  0  0  0  0  0
  149.4529  140.9927  153.4017 O   0  0  0  0  0  0  0  0  0  0  0  0
  152.3105  137.9202  155.7327 C   0  0  0  0  0  0  0  0  0  0  0  0
  153.3250  138.5828  155.5133 O   0  0  0  0  0  0  0  0  0  0  0  0
  152.3435  136.6366  156.1888 N   0  5  0  0  0  0  0  0  0  0  0  0
  151.6592  139.9756  154.1010 H   0  0  0  0  0  0  0  0  0  0  0  0
  150.8026  142.6371  155.4172 H   0  0  0  0  0  0  0  0  0  0  0  0
  148.8459  140.6493  156.6556 H   0  0  0  0  0  0  0  0  0  0  0  0
  148.8866  139.4707  154.6325 H   0  0  0  0  0  0  0  0  0  0  0  0
  152.2181  134.4836  156.9899 H   0  0  0  0  0  0  0  0  0  0  0  0
  148.9057  138.2451  155.4252 H   0  0  0  0  0  0  0  0  0  0  0  0
  150.5145  141.7445  158.3312 H   0  0  0  0  0  0  0  0  0  0  0  0
  151.7863  142.7736  157.7032 H   0  0  0  0  0  0  0  0  0  0  0  0
  149.4278  143.7695  156.9752 H   0  0  0  0  0  0  0  0  0  0  0  0
  148.6524  142.9759  155.1223 H   0  0  0  0  0  0  0  0  0  0  0  0
  149.1788  140.3562  152.7587 H   0  0  0  0  0  0  0  0  0  0  0  0
  1  2  2  0  0  0  0
  1 22  1  0  0  0  0
  2 17  1  0  0  0  0
  2  3  1  0  0  0  0
  3  4  2  0  0  0  0
  4  5  1  0  0  0  0
  4 23  1  0  0  0  0
  5  6  1  0  0  0  0
  5 15  1  0  0  0  0
  6 18  1  0  0  0  0
  6 13  1  0  0  0  0
  6  7  1  0  0  0  0
  7  8  1  0  0  0  0
  8 19  1  0  0  0  0
  8  9  1  0  0  0  0
  8 11  1  0  0  0  0
  9 10  1  0  0  0  0
  9 24  1  0  0  0  0
  9 25  1  0  0  0  0
 10 26  1  0  0  0  0
 11 20  1  0  0  0  0
 11 12  1  0  0  0  0
 11 13  1  0  0  0  0
 12 27  1  0  0  0  0
 13 21  1  0  0  0  0
 13 14  1  0  0  0  0
 14 28  1  0  0  0  0
 15 16  2  0  0  0  0
 15 17  1  0  0  0  0
M  CHG  1  17  -1
M  END
> <s_m_source_file>
AV-unprocessed.smi

> <i_m_source_file_index>
72

> <i_lp_mmshare_version>
43012

> <i_f3d_flags>
0

> <s_epik_input>
W05IMl1jMW5bY0hdbihjKD1PKW4xKVtDQEBIXTJPW0NASF0oW0NIMl1bT0hdKVtDQEBIXShbT0hdKVtDQEhdMltPSF0=

> <s_epik_cmdline>
J2VwaWtfcHl0aG9uJywgJy1waCcsICc3LjAnLCAnLXRuJywgJzgnLCAnLW1hJywgJzIwMCcsICctbWV0YWxfYmluZGluZycsICctaW1hZScsICc8aW5maWxlLm1hZT4nLCAnLW9tYWUnLCAnPG91dGZpbGUubWFlPic=

> <r_lp_tautomer_probability>
7.17554e-07

> <r_epik_Ionization_Penalty>
12.8705

> <r_epik_Ionization_Penalty_Charging>
5.64144

> <r_epik_Ionization_Penalty_Neutral>
7.22905

> <r_epik_State_Penalty>
3.30104

> <r_epik_Charging_Adjusted_Penalty>
8.94249

> <i_epik_Tot_Q>
-1

> <i_epik_Tot_abs_Q>
1

> <r_epik_Metal_State_Penalty>
0.529074

> <b_epik_Metal_Only>
1

> <s_epik_Chemistry_Notes>
This compound contains an acetal/aminal-like group ( X-CH(R)-Y where X, Y are N, S, or O) that may be acid/base labile, releasing an aldehyde.

> <s_lp_Force_Field>
OPLS_2005

> <r_lp_Energy>
37.3105

> <b_lp_Chiralities_Consistent>
1

> <s_lp_Variant>
AV-unprocessed.smi:72-49

> <Gold.Version>
5.8.1

> <Gold.Id.Protein>
6NUR|6NUR_protein|mol2

> <Gold.PLP.Fitness>
45.1168

> <Gold.PLP.PLP>
-26.2374

> <Gold.PLP.part.hbond>
-8.3087

> <Gold.PLP.part.metal>
0.0000

> <Gold.PLP.part.buried>
-1.7841

> <Gold.PLP.part.nonpolar>
-16.4009

> <Gold.PLP.part.repulsive>
0.0565

> <Gold.PLP.ligand.clash>
0.0000

> <Gold.PLP.ligand.torsion>
0.0585

> <Gold.PLP.Chemscore.Hbond>
6.3289

> <Gold.PLP.Chemscore.CHOScore>
0.0000

> <Gold.PLP.Chemscore.Metal>
0.0000

> <Gold.Chemscore.Hbonds>
donor molecule, donor type, donor heavy atom, donor atom, acceptor molecule, acceptor atom, score
      L1  H    10    26       P1  8028  1.00
      L1  H    12    27       P1  8028  0.67
      L1  H    14    28       P1  7957  0.67
      P1  H  7989  7998       L1    14  0.03
      P1  H  7997  8009       L1    16  0.94
      P1  H  8011  8017       L1    14  1.00
      P1  H 10752 10763       L1    17  2.00

> <Gold.PLP.Chemscore.Internal.Correction>
0.0099

> <Gold.Rescore>
     Score         DG    S(hbond)    S(metal)    S(lipo)     H(rot)  DE(clash)    DE(int)     intcor
      9.08     -10.65       3.73        0.00      26.00       4.04       0.32       1.25       ----

> <Gold.Chemscore.Fitness>
9.0803

> <Gold.Chemscore.DG>
-10.6524

> <Gold.Chemscore.ZeroCoef>
-5.4800

> <Gold.Chemscore.Hbond>
3.7345

> <Gold.Chemscore.Metal>
0.0000

> <Gold.Chemscore.Lipo>
26.0028

> <Gold.Chemscore.Internal_Hbond>
0.0000

> <Gold.Chemscore.DEClash>
0.3192

> <Gold.Chemscore.DEInternal>
1.2530

> <Gold.Chemscore.Rot>
4.0403

> <Gold.Chemscore.Internal.Correction>
   9.000000E+99

> <Gold.Chemscore.Hbonds>
donor molecule, donor type, donor heavy atom, donor atom, acceptor molecule, acceptor atom, score
      L1  H    10    26       P1  8028  0.79
      L1  H    12    27       P1  8028  0.66
      L1  H    14    28       P1  7957  0.68
      P1  H  7997  8009       L1    16  0.89
      P1  H  8011  8017       L1    14  0.25
      P1  H 10752 10763       L1    17  0.27

> <Gold.Chemscore.Hbond.Weighted>
-12.4732

> <Gold.Chemscore.Metal.Weighted>
-0.0000

> <Gold.Chemscore.Lipo.Weighted>
-3.0423

> <Gold.Chemscore.Internal_Hbond.Weighted>
0.0000

> <Gold.Chemscore.DEClash.Weighted>
0.3192

> <Gold.Chemscore.DEInternal.Weighted>
1.2530

> <Gold.Chemscore.Rot.Weighted>
10.3431

> <Gold.Chemscore.Internal.Correction.Weighted>
   9.000000E+99

> <Gold.Protein.RotatedTorsions>
[ 6907 6896 6895 6894 ] final  -95.87 input  -60.11 | X-H torsion
[ 7974 7965 7964 7962 ] final -116.21 input  175.53 | X-H torsion
[ 8008 7997 7996 7995 ] final -149.39 input   59.86 | X-H torsion
[ 10167 10162 10161 10158 ] final  -64.10 input  -65.29 | X-H torsion
[ 10718 10713 10712 10709 ] final -159.18 input   66.30 | X-H torsion
[ 10763 10752 10751 10750 ] final  101.42 input  -60.55 | X-H torsion
[ 11005 11000 10999 10996 ] final -150.81 input  -57.11 | X-H torsion

> <Gold.Protein.ActiveResidues>
 VAL166  LYS551  ARG553  GLY616  TRP617  ASP618  TYR619  PRO620  LYS621  CYS622 
 ASP623  PHE694  ASN695  SER759  ASP760  ASP761  ALA762  ILE779  LEU786  VAL792 
 PHE793  MET794  SER795  GLU796  ALA797  LYS798  CYS799  TRP800  GLU811  SER814 

> <Gold.Protein.RotatedAtoms>
  150.6974  134.1591  159.4169 H   0  0  0  0  0  0  0  0  0  0  0  0  # atno 6907 bound_to 6896
  151.9572  135.0139  160.0555 H   0  0  0  0  0  0  0  0  0  0  0  0  # atno 6908 bound_to 6896
  152.1959  133.4771  159.5069 H   0  0  0  0  0  0  0  0  0  0  0  0  # atno 6909 bound_to 6896
  145.0994  140.8542  143.3935 H   0  0  0  0  0  0  0  0  0  0  0  0  # atno 7974 bound_to 7965
  155.6069  140.0667  157.2717 H   0  0  0  0  0  0  0  0  0  0  0  0  # atno 8008 bound_to 7997
  154.4264  140.1808  156.1279 H   0  0  0  0  0  0  0  0  0  0  0  0  # atno 8009 bound_to 7997
  156.0115  140.3326  155.6949 H   0  0  0  0  0  0  0  0  0  0  0  0  # atno 8010 bound_to 7997
  140.5825  143.2329  151.6313 H   0  0  0  0  0  0  0  0  0  0  0  0  # atno 10167 bound_to 10162
  156.5645  130.8662  151.2819 H   0  0  0  0  0  0  0  0  0  0  0  0  # atno 10718 bound_to 10713
  153.3264  135.4045  155.1459 H   0  0  0  0  0  0  0  0  0  0  0  0  # atno 10763 bound_to 10752
  154.8613  135.3600  154.5528 H   0  0  0  0  0  0  0  0  0  0  0  0  # atno 10764 bound_to 10752
  153.5964  135.7072  153.5461 H   0  0  0  0  0  0  0  0  0  0  0  0  # atno 10765 bound_to 10752
  140.7362  134.3565  157.5157 H   0  0  0  0  0  0  0  0  0  0  0  0  # atno 11005 bound_to 11000
  145.0973  139.2847  143.5704 LP  0  0  0  0  0  0  0  0  0  0  0  0  # atno 17320 bound_to 7965
  146.3530  140.0529  142.8634 LP  0  0  0  0  0  0  0  0  0  0  0  0  # atno 17321 bound_to 7965
  139.5178  144.3305  152.0831 LP  0  0  0  0  0  0  0  0  0  0  0  0  # atno 17342 bound_to 10162
  140.2457  144.4223  150.6242 LP  0  0  0  0  0  0  0  0  0  0  0  0  # atno 17343 bound_to 10162
  157.7361  130.9774  150.2120 LP  0  0  0  0  0  0  0  0  0  0  0  0  # atno 17370 bound_to 10713
  156.2769  130.3728  149.7974 LP  0  0  0  0  0  0  0  0  0  0  0  0  # atno 17371 bound_to 10713
  139.8815  134.9051  156.2892 LP  0  0  0  0  0  0  0  0  0  0  0  0  # atno 17394 bound_to 11000
  140.9877  133.7228  156.0766 LP  0  0  0  0  0  0  0  0  0  0  0  0  # atno 17395 bound_to 11000

$$$$
