AV-unprocessed.smi:325|AV-procd|sdf|2343|dock4
  -GOLD-   2262022253D 1   1.00000     0.00000
 Structure written by MMmdl.
 45 46  0  0  0  0  0  0  0  0  2 V2000
  152.8696  138.2400  157.1211 C   0  0  0  0  0  0  0  0  0  0  0  0
  152.1670  139.5799  156.9951 C   0  0  0  0  0  0  0  0  0  0  0  0
  152.3263  140.4590  158.0767 N   0  0  0  0  0  0  0  0  0  0  0  0
  151.7614  141.6290  158.0586 C   0  0  0  0  0  0  0  0  0  0  0  0
  151.8849  142.5274  159.1236 N   0  0  0  0  0  0  0  0  0  0  0  0
  152.8723  142.3026  160.1801 C   0  0  0  0  0  0  0  0  0  0  0  0
  152.4646  143.0023  161.4873 C   0  0  0  0  0  0  0  0  0  0  0  0
  152.2597  144.3876  161.2465 O   0  0  0  0  0  0  0  0  0  0  0  0
  151.2110  144.5985  160.3109 C   0  0  0  0  0  0  0  0  0  0  0  0
  151.5760  143.9511  158.9649 C   0  0  0  0  0  0  0  0  0  0  0  0
  150.9882  142.0620  156.9926 N   0  5  0  0  0  0  0  0  0  0  0  0
  150.7943  141.2630  155.9055 C   0  0  0  0  0  0  0  0  0  0  0  0
  150.1230  141.6267  154.9407 O   0  0  0  0  0  0  0  0  0  0  0  0
  151.4242  139.9315  155.9083 C   0  0  0  0  0  0  0  0  0  0  0  0
  151.1976  139.0088  154.7126 C   0  0  0  0  0  0  0  0  0  0  0  0
  150.1107  137.9532  154.9917 C   0  0  0  0  0  0  0  0  0  0  0  0
  148.6832  138.4834  154.8263 C   0  0  0  0  0  0  0  0  0  0  0  0
  147.8849  138.4598  155.7637 O   0  0  0  0  0  0  0  0  0  0  0  0
  148.3780  138.9689  153.6129 N   0  0  0  0  0  0  0  0  0  0  0  0
  147.0868  139.5285  153.2239 C   0  0  0  0  0  0  0  0  0  0  0  0
  146.6762  138.9639  151.8577 C   0  0  0  0  0  0  0  0  0  0  0  0
  147.1509  141.0639  153.2079 C   0  0  0  0  0  0  0  0  0  0  0  0
  153.4739  138.0366  156.2368 H   0  0  0  0  0  0  0  0  0  0  0  0
  152.1393  137.4390  157.2360 H   0  0  0  0  0  0  0  0  0  0  0  0
  153.5305  138.2206  157.9887 H   0  0  0  0  0  0  0  0  0  0  0  0
  152.9907  141.2357  160.3736 H   0  0  0  0  0  0  0  0  0  0  0  0
  153.8403  142.6749  159.8427 H   0  0  0  0  0  0  0  0  0  0  0  0
  151.5600  142.5542  161.9017 H   0  0  0  0  0  0  0  0  0  0  0  0
  153.2486  142.8852  162.2353 H   0  0  0  0  0  0  0  0  0  0  0  0
  150.2750  144.1906  160.6960 H   0  0  0  0  0  0  0  0  0  0  0  0
  151.0616  145.6706  160.1828 H   0  0  0  0  0  0  0  0  0  0  0  0
  152.4476  144.4487  158.5383 H   0  0  0  0  0  0  0  0  0  0  0  0
  150.7543  144.1119  158.2669 H   0  0  0  0  0  0  0  0  0  0  0  0
  150.9237  139.5959  153.8364 H   0  0  0  0  0  0  0  0  0  0  0  0
  152.1397  138.5261  154.4477 H   0  0  0  0  0  0  0  0  0  0  0  0
  150.2366  137.1015  154.3222 H   0  0  0  0  0  0  0  0  0  0  0  0
  150.2271  137.5722  156.0073 H   0  0  0  0  0  0  0  0  0  0  0  0
  149.0984  138.9515  152.9056 H   0  0  0  0  0  0  0  0  0  0  0  0
  146.3319  139.2204  153.9495 H   0  0  0  0  0  0  0  0  0  0  0  0
  145.7014  139.3461  151.5534 H   0  0  0  0  0  0  0  0  0  0  0  0
  146.6074  137.8758  151.8865 H   0  0  0  0  0  0  0  0  0  0  0  0
  147.3953  139.2331  151.0833 H   0  0  0  0  0  0  0  0  0  0  0  0
  146.1880  141.4927  152.9292 H   0  0  0  0  0  0  0  0  0  0  0  0
  147.8938  141.4227  152.4948 H   0  0  0  0  0  0  0  0  0  0  0  0
  147.4135  141.4599  154.1893 H   0  0  0  0  0  0  0  0  0  0  0  0
  1  2  1  0  0  0  0
  1 23  1  0  0  0  0
  1 24  1  0  0  0  0
  1 25  1  0  0  0  0
  2 14  2  0  0  0  0
  2  3  1  0  0  0  0
  3  4  2  0  0  0  0
  4  5  1  0  0  0  0
  4 11  1  0  0  0  0
  5 10  1  0  0  0  0
  5  6  1  0  0  0  0
  6  7  1  0  0  0  0
  6 26  1  0  0  0  0
  6 27  1  0  0  0  0
  7  8  1  0  0  0  0
  7 28  1  0  0  0  0
  7 29  1  0  0  0  0
  8  9  1  0  0  0  0
  9 10  1  0  0  0  0
  9 30  1  0  0  0  0
  9 31  1  0  0  0  0
 10 32  1  0  0  0  0
 10 33  1  0  0  0  0
 11 12  1  0  0  0  0
 12 13  2  0  0  0  0
 12 14  1  0  0  0  0
 14 15  1  0  0  0  0
 15 16  1  0  0  0  0
 15 34  1  0  0  0  0
 15 35  1  0  0  0  0
 16 17  1  0  0  0  0
 16 36  1  0  0  0  0
 16 37  1  0  0  0  0
 17 18  2  0  0  0  0
 17 19  1  0  0  0  0
 19 20  1  0  0  0  0
 19 38  1  0  0  0  0
 20 21  1  0  0  0  0
 20 22  1  0  0  0  0
 20 39  1  0  0  0  0
 21 40  1  0  0  0  0
 21 41  1  0  0  0  0
 21 42  1  0  0  0  0
 22 43  1  0  0  0  0
 22 44  1  0  0  0  0
 22 45  1  0  0  0  0
M  CHG  1  11  -1
M  END
> <s_m_source_file>
AV-unprocessed.smi

> <i_m_source_file_index>
325

> <i_lp_mmshare_version>
43012

> <i_f3d_flags>
0

> <s_epik_input>
W0NIMl0xW0NIMl1PW0NIMl1bQ0gyXU4xYyhuYzJbQ0gzXSlbbkhdYyg9TyljMltDSDJdW0NIMl1DKD1PKVtOSF1bQ0hdKFtDSDNdKVtDSDNd

> <s_epik_cmdline>
J2VwaWtfcHl0aG9uJywgJy1waCcsICc3LjAnLCAnLXRuJywgJzgnLCAnLW1hJywgJzIwMCcsICctbWV0YWxfYmluZGluZycsICctaW1hZScsICc8aW5maWxlLm1hZT4nLCAnLW9tYWUnLCAnPG91dGZpbGUubWFlPic=

> <r_lp_tautomer_probability>
1

> <r_epik_Ionization_Penalty>
5.05468

> <r_epik_Ionization_Penalty_Charging>
1.01174e-07

> <r_epik_Ionization_Penalty_Neutral>
5.05468

> <r_epik_State_Penalty>
2.58307

> <r_epik_Charging_Adjusted_Penalty>
2.58307

> <i_epik_Tot_Q>
-1

> <i_epik_Tot_abs_Q>
1

> <r_epik_Metal_State_Penalty>
0.123593

> <b_epik_Metal_Only>
0

> <s_lp_Force_Field>
OPLS_2005

> <r_lp_Energy>
24.1859

> <b_lp_Chiralities_Consistent>
1

> <s_lp_Variant>
AV-unprocessed.smi:325-3

> <Gold.Version>
5.8.1

> <Gold.Id.Protein>
6NUR|6NUR_protein|mol2

> <Gold.PLP.Fitness>
45.4588

> <Gold.PLP.PLP>
-43.9009

> <Gold.PLP.part.hbond>
-2.2949

> <Gold.PLP.part.metal>
0.0000

> <Gold.PLP.part.buried>
-1.8761

> <Gold.PLP.part.nonpolar>
-38.5024

> <Gold.PLP.part.repulsive>
0.4546

> <Gold.PLP.ligand.clash>
0.0000

> <Gold.PLP.ligand.torsion>
0.6917

> <Gold.PLP.Chemscore.Hbond>
0.9078

> <Gold.PLP.Chemscore.CHOScore>
0.0000

> <Gold.PLP.Chemscore.Metal>
0.0000

> <Gold.Chemscore.Hbonds>
donor molecule, donor type, donor heavy atom, donor atom, acceptor molecule, acceptor atom, score
      L1  H    19    38       P1  7957  0.61
      P1  H  7989  7998       L1    13  0.15

> <Gold.PLP.Chemscore.Internal.Correction>
0.2179

> <Gold.Rescore>
     Score         DG    S(hbond)    S(metal)    S(lipo)     H(rot)  DE(clash)    DE(int)     intcor
     14.25     -16.24       0.88        0.00     103.32       1.67       1.29       0.70       ----

> <Gold.Chemscore.Fitness>
14.2453

> <Gold.Chemscore.DG>
-16.2369

> <Gold.Chemscore.ZeroCoef>
-5.4800

> <Gold.Chemscore.Hbond>
0.8826

> <Gold.Chemscore.Metal>
0.0000

> <Gold.Chemscore.Lipo>
103.3204

> <Gold.Chemscore.Internal_Hbond>
0.0000

> <Gold.Chemscore.DEClash>
1.2891

> <Gold.Chemscore.DEInternal>
0.7025

> <Gold.Chemscore.Rot>
1.6717

> <Gold.Chemscore.Internal.Correction>
   9.000000E+99

> <Gold.Chemscore.Hbonds>
donor molecule, donor type, donor heavy atom, donor atom, acceptor molecule, acceptor atom, score
      L1  H    19    38       P1  7957  0.59
      P1  H  7989  7998       L1    13  0.01

> <Gold.Chemscore.Hbond.Weighted>
-2.9479

> <Gold.Chemscore.Metal.Weighted>
-0.0000

> <Gold.Chemscore.Lipo.Weighted>
-12.0885

> <Gold.Chemscore.Internal_Hbond.Weighted>
0.0000

> <Gold.Chemscore.DEClash.Weighted>
1.2891

> <Gold.Chemscore.DEInternal.Weighted>
0.7025

> <Gold.Chemscore.Rot.Weighted>
4.2795

> <Gold.Chemscore.Internal.Correction.Weighted>
   9.000000E+99

> <Gold.Protein.RotatedTorsions>
[ 6907 6896 6895 6894 ] final  -55.10 input  -60.11 | X-H torsion
[ 7974 7965 7964 7962 ] final -142.49 input  175.53 | X-H torsion
[ 8008 7997 7996 7995 ] final  -50.89 input   59.86 | X-H torsion
[ 10167 10162 10161 10158 ] final  -25.51 input  -65.29 | X-H torsion
[ 10718 10713 10712 10709 ] final   50.25 input   66.30 | X-H torsion
[ 10763 10752 10751 10750 ] final  170.47 input  -60.55 | X-H torsion
[ 11005 11000 10999 10996 ] final -162.93 input  -57.11 | X-H torsion

> <Gold.Protein.ActiveResidues>
 VAL166  LYS551  ARG553  GLY616  TRP617  ASP618  TYR619  PRO620  LYS621  CYS622 
 ASP623  PHE694  ASN695  SER759  ASP760  ASP761  ALA762  ILE779  LEU786  VAL792 
 PHE793  MET794  SER795  GLU796  ALA797  LYS798  CYS799  TRP800  GLU811  SER814 

> <Gold.Protein.RotatedAtoms>
  150.8281  134.7521  159.6829 H   0  0  0  0  0  0  0  0  0  0  0  0  # atno 6907 bound_to 6896
  152.4389  134.5628  159.9909 H   0  0  0  0  0  0  0  0  0  0  0  0  # atno 6908 bound_to 6896
  151.5795  133.3342  159.3041 H   0  0  0  0  0  0  0  0  0  0  0  0  # atno 6909 bound_to 6896
  144.8439  140.5951  143.5434 H   0  0  0  0  0  0  0  0  0  0  0  0  # atno 7974 bound_to 7965
  154.4071  140.1261  156.4740 H   0  0  0  0  0  0  0  0  0  0  0  0  # atno 8008 bound_to 7997
  155.7151  140.3493  155.4971 H   0  0  0  0  0  0  0  0  0  0  0  0  # atno 8009 bound_to 7997
  155.9265  140.1062  157.1156 H   0  0  0  0  0  0  0  0  0  0  0  0  # atno 8010 bound_to 7997
  140.7286  143.4258  151.0879 H   0  0  0  0  0  0  0  0  0  0  0  0  # atno 10167 bound_to 10162
  157.4866  130.8349  149.8154 H   0  0  0  0  0  0  0  0  0  0  0  0  # atno 10718 bound_to 10713
  154.3980  135.2754  155.2114 H   0  0  0  0  0  0  0  0  0  0  0  0  # atno 10763 bound_to 10752
  154.4152  135.6013  153.5980 H   0  0  0  0  0  0  0  0  0  0  0  0  # atno 10764 bound_to 10752
  152.9831  135.5959  154.4244 H   0  0  0  0  0  0  0  0  0  0  0  0  # atno 10765 bound_to 10752
  140.6037  134.4921  157.5208 H   0  0  0  0  0  0  0  0  0  0  0  0  # atno 11005 bound_to 11000
  145.4637  139.1510  143.3852 LP  0  0  0  0  0  0  0  0  0  0  0  0  # atno 17320 bound_to 7965
  146.2727  140.4767  142.8808 LP  0  0  0  0  0  0  0  0  0  0  0  0  # atno 17321 bound_to 7965
  139.7909  143.8219  152.3151 LP  0  0  0  0  0  0  0  0  0  0  0  0  # atno 17342 bound_to 10162
  139.8203  144.7298  150.9581 LP  0  0  0  0  0  0  0  0  0  0  0  0  # atno 17343 bound_to 10162
  156.0150  130.3817  150.2140 LP  0  0  0  0  0  0  0  0  0  0  0  0  # atno 17370 bound_to 10713
  157.0328  131.0012  151.3307 LP  0  0  0  0  0  0  0  0  0  0  0  0  # atno 17371 bound_to 10713
  139.9221  134.8127  156.1178 LP  0  0  0  0  0  0  0  0  0  0  0  0  # atno 17394 bound_to 11000
  141.0855  133.6736  156.2427 LP  0  0  0  0  0  0  0  0  0  0  0  0  # atno 17395 bound_to 11000

$$$$
