AV-unprocessed.smi:1513|AV-procd|sdf|6113|dock1
  -GOLD-   22720 6243D 1   1.00000     0.00000
 Structure written by MMmdl.
 33 34  0  0  0  0  0  0  0  0  4 V2000
  154.7694  137.6806  158.2005 N   0  5  0  0  0  0  0  0  0  0  0  0
  153.1898  137.5422  157.8702 S   0  0  0  0  0  0  0  0  0  0  0  0
  153.0138  136.9089  156.5549 O   0  0  0  0  0  0  0  0  0  0  0  0
  152.4621  136.9028  158.9801 O   0  0  0  0  0  0  0  0  0  0  0  0
  152.8879  139.1410  157.7559 N   0  5  0  0  0  0  0  0  0  0  0  0
  151.7302  139.7639  158.3905 C   0  0  0  0  0  0  0  0  0  0  0  0
  151.7818  141.2901  158.2599 C   0  0  0  0  0  0  0  0  0  0  0  0
  152.7898  141.9910  158.9687 C   0  0  0  0  0  0  0  0  0  0  0  0
  152.8767  143.3938  158.8742 C   0  0  0  0  0  0  0  0  0  0  0  0
  151.9502  144.0824  158.0726 C   0  0  0  0  0  0  0  0  0  0  0  0
  150.9981  143.3944  157.4105 N   0  3  0  0  0  0  0  0  0  0  0  0
  150.8640  142.0441  157.4607 C   0  0  0  0  0  0  0  0  0  0  0  0
  149.8011  141.4831  156.7212 N   0  0  0  0  0  0  0  0  0  0  0  0
  148.4886  141.8567  157.2346 C   0  0  0  0  0  0  0  0  0  0  0  0
  147.3831  141.1143  156.4637 C   0  0  0  0  0  0  0  0  0  0  0  0
  147.5267  141.3551  155.0665 O   0  0  0  0  0  0  0  0  0  0  0  0
  148.7777  140.8844  154.5739 C   0  0  0  0  0  0  0  0  0  0  0  0
  149.9164  141.6411  155.2767 C   0  0  0  0  0  0  0  0  0  0  0  0
  155.0485  136.8782  158.7775 H   0  0  0  0  0  0  0  0  0  0  0  0
  150.7936  139.4030  157.9643 H   0  0  0  0  0  0  0  0  0  0  0  0
  151.6714  139.5331  159.4546 H   0  0  0  0  0  0  0  0  0  0  0  0
  153.5061  141.4726  159.5924 H   0  0  0  0  0  0  0  0  0  0  0  0
  153.6428  143.9317  159.4128 H   0  0  0  0  0  0  0  0  0  0  0  0
  151.9385  145.1548  157.9443 H   0  0  0  0  0  0  0  0  0  0  0  0
  148.4258  141.6182  158.2972 H   0  0  0  0  0  0  0  0  0  0  0  0
  148.3498  142.9338  157.1359 H   0  0  0  0  0  0  0  0  0  0  0  0
  147.4195  140.0424  156.6603 H   0  0  0  0  0  0  0  0  0  0  0  0
  146.4018  141.4621  156.7865 H   0  0  0  0  0  0  0  0  0  0  0  0
  148.8656  139.8083  154.7345 H   0  0  0  0  0  0  0  0  0  0  0  0
  148.8220  141.0517  153.4977 H   0  0  0  0  0  0  0  0  0  0  0  0
  149.8725  142.6982  155.0117 H   0  0  0  0  0  0  0  0  0  0  0  0
  150.8823  141.2608  154.9419 H   0  0  0  0  0  0  0  0  0  0  0  0
  150.3337  143.9197  156.8425 H   0  0  0  0  0  0  0  0  0  0  0  0
  1  2  1  0  0  0  0
  1 19  1  0  0  0  0
  2  3  2  0  0  0  0
  2  4  2  0  0  0  0
  2  5  1  0  0  0  0
  5  6  1  0  0  0  0
  6  7  1  0  0  0  0
  6 20  1  0  0  0  0
  6 21  1  0  0  0  0
  7 12  1  0  0  0  0
  7  8  2  0  0  0  0
  8  9  1  0  0  0  0
  8 22  1  0  0  0  0
  9 10  2  0  0  0  0
  9 23  1  0  0  0  0
 10 11  1  0  0  0  0
 10 24  1  0  0  0  0
 11 12  2  0  0  0  0
 11 33  1  0  0  0  0
 12 13  1  0  0  0  0
 13 18  1  0  0  0  0
 13 14  1  0  0  0  0
 14 15  1  0  0  0  0
 14 25  1  0  0  0  0
 14 26  1  0  0  0  0
 15 16  1  0  0  0  0
 15 27  1  0  0  0  0
 15 28  1  0  0  0  0
 16 17  1  0  0  0  0
 17 18  1  0  0  0  0
 17 29  1  0  0  0  0
 17 30  1  0  0  0  0
 18 31  1  0  0  0  0
 18 32  1  0  0  0  0
M  CHG  1   1  -1
M  CHG  1   5  -1
M  CHG  1  11   1
M  END
> <s_m_source_file>
AV-unprocessed.smi

> <i_m_source_file_index>
1513

> <i_lp_mmshare_version>
43012

> <i_f3d_flags>
0

> <s_epik_input>
W05IMl1TKD1PKSg9TylbTkhdW0NIMl1jMVtjSF1bY0hdW2NIXW5jMU4yW0NIMl1bQ0gyXU9bQ0gyXVtDSDJdMg==

> <s_epik_cmdline>
J2VwaWtfcHl0aG9uJywgJy1waCcsICc3LjAnLCAnLXRuJywgJzgnLCAnLW1hJywgJzIwMCcsICctbWV0YWxfYmluZGluZycsICctaW1hZScsICc8aW5maWxlLm1hZT4nLCAnLW9tYWUnLCAnPG91dGZpbGUubWFlPic=

> <r_epik_Ionization_Penalty>
8.77184

> <r_epik_Ionization_Penalty_Charging>
8.77184

> <r_epik_Ionization_Penalty_Neutral>
3.18713e-12

> <r_epik_State_Penalty>
5.60098

> <r_epik_Charging_Adjusted_Penalty>
14.3728

> <i_epik_Tot_Q>
-1

> <i_epik_Tot_abs_Q>
3

> <r_epik_Metal_State_Penalty>
2.46454

> <b_epik_Metal_Only>
1

> <s_lp_Force_Field>
OPLS_2005

> <r_lp_Energy>
20.8309

> <b_lp_Chiralities_Consistent>
1

> <s_lp_Variant>
AV-unprocessed.smi:1513-6

> <Gold.Version>
5.8.1

> <Gold.Id.Protein>
6NUR|6NUR_protein|mol2

> <Gold.PLP.Fitness>
45.9713

> <Gold.PLP.PLP>
-29.4457

> <Gold.PLP.part.hbond>
-3.8843

> <Gold.PLP.part.metal>
0.0000

> <Gold.PLP.part.buried>
-4.4727

> <Gold.PLP.part.nonpolar>
-22.0441

> <Gold.PLP.part.repulsive>
0.1802

> <Gold.PLP.ligand.clash>
0.0000

> <Gold.PLP.ligand.torsion>
0.7013

> <Gold.PLP.Chemscore.Hbond>
5.5824

> <Gold.PLP.Chemscore.CHOScore>
0.0000

> <Gold.PLP.Chemscore.Metal>
0.0000

> <Gold.Chemscore.Hbonds>
donor molecule, donor type, donor heavy atom, donor atom, acceptor molecule, acceptor atom, score
      L1  H    11    33       P1  8028  2.00
      P1  H  6896  6907       L1     4  0.66
      P1  H  7997  8010       L1     5  1.98
      P1  H 10752 10765       L1     3  0.88

> <Gold.PLP.Chemscore.Internal.Correction>
1.1809

> <Gold.Rescore>
     Score         DG    S(hbond)    S(metal)    S(lipo)     H(rot)  DE(clash)    DE(int)     intcor
     19.24     -20.32       3.44        0.00      69.94       1.89       0.27       0.81       ----

> <Gold.Chemscore.Fitness>
19.2375

> <Gold.Chemscore.DG>
-20.3199

> <Gold.Chemscore.ZeroCoef>
-5.4800

> <Gold.Chemscore.Hbond>
3.4436

> <Gold.Chemscore.Metal>
0.0000

> <Gold.Chemscore.Lipo>
69.9359

> <Gold.Chemscore.Internal_Hbond>
0.0000

> <Gold.Chemscore.DEClash>
0.2680

> <Gold.Chemscore.DEInternal>
0.8143

> <Gold.Chemscore.Rot>
1.8922

> <Gold.Chemscore.Internal.Correction>
   9.000000E+99

> <Gold.Chemscore.Hbonds>
donor molecule, donor type, donor heavy atom, donor atom, acceptor molecule, acceptor atom, score
      L1  H    11    33       P1  8028  0.94
      P1  H  6896  6907       L1     4  0.64
      P1  H  7997  8010       L1     5  0.60
      P1  H 10752 10765       L1     3  0.83

> <Gold.Chemscore.Hbond.Weighted>
-11.5015

> <Gold.Chemscore.Metal.Weighted>
-0.0000

> <Gold.Chemscore.Lipo.Weighted>
-8.1825

> <Gold.Chemscore.Internal_Hbond.Weighted>
0.0000

> <Gold.Chemscore.DEClash.Weighted>
0.2680

> <Gold.Chemscore.DEInternal.Weighted>
0.8143

> <Gold.Chemscore.Rot.Weighted>
4.8441

> <Gold.Chemscore.Internal.Correction.Weighted>
   9.000000E+99

> <Gold.Protein.RotatedTorsions>
[ 6907 6896 6895 6894 ] final   14.48 input  -60.11 | X-H torsion
[ 7974 7965 7964 7962 ] final  177.63 input  175.53 | X-H torsion
[ 8008 7997 7996 7995 ] final   42.40 input   59.86 | X-H torsion
[ 10167 10162 10161 10158 ] final  108.36 input  -65.29 | X-H torsion
[ 10718 10713 10712 10709 ] final  111.39 input   66.30 | X-H torsion
[ 10763 10752 10751 10750 ] final -129.13 input  -60.55 | X-H torsion
[ 11005 11000 10999 10996 ] final  141.47 input  -57.11 | X-H torsion

> <Gold.Protein.ActiveResidues>
 VAL166  LYS551  ARG553  GLY616  TRP617  ASP618  TYR619  PRO620  LYS621  CYS622 
 ASP623  PHE694  ASN695  SER759  ASP760  ASP761  ALA762  ILE779  LEU786  VAL792 
 PHE793  MET794  SER795  GLU796  ALA797  LYS798  CYS799  TRP800  GLU811  SER814 

> <Gold.Protein.RotatedAtoms>
  151.8028  135.0704  160.0402 H   0  0  0  0  0  0  0  0  0  0  0  0  # atno 6907 bound_to 6896
  152.3076  133.5715  159.5668 H   0  0  0  0  0  0  0  0  0  0  0  0  # atno 6908 bound_to 6896
  150.7304  134.0115  159.3713 H   0  0  0  0  0  0  0  0  0  0  0  0  # atno 6909 bound_to 6896
  144.7166  140.0277  143.6439 H   0  0  0  0  0  0  0  0  0  0  0  0  # atno 7974 bound_to 7965
  155.2856  140.3375  155.4255 H   0  0  0  0  0  0  0  0  0  0  0  0  # atno 8008 bound_to 7997
  156.2070  140.1755  156.7819 H   0  0  0  0  0  0  0  0  0  0  0  0  # atno 8009 bound_to 7997
  154.5634  140.0683  156.8838 H   0  0  0  0  0  0  0  0  0  0  0  0  # atno 8010 bound_to 7997
  139.6853  144.7114  151.1444 H   0  0  0  0  0  0  0  0  0  0  0  0  # atno 10167 bound_to 10162
  157.6447  131.0950  150.6742 H   0  0  0  0  0  0  0  0  0  0  0  0  # atno 10718 bound_to 10713
  154.8757  135.3905  154.3870 H   0  0  0  0  0  0  0  0  0  0  0  0  # atno 10763 bound_to 10752
  153.4610  135.7029  153.6055 H   0  0  0  0  0  0  0  0  0  0  0  0  # atno 10764 bound_to 10752
  153.4554  135.3824  155.2276 H   0  0  0  0  0  0  0  0  0  0  0  0  # atno 10765 bound_to 10752
  140.0404  134.9308  157.0832 H   0  0  0  0  0  0  0  0  0  0  0  0  # atno 11005 bound_to 11000
  146.0129  139.3185  143.0860 LP  0  0  0  0  0  0  0  0  0  0  0  0  # atno 17320 bound_to 7965
  145.8661  140.9447  143.0675 LP  0  0  0  0  0  0  0  0  0  0  0  0  # atno 17321 bound_to 7965
  140.7665  143.5639  150.9069 LP  0  0  0  0  0  0  0  0  0  0  0  0  # atno 17342 bound_to 10162
  139.9313  143.6489  152.3075 LP  0  0  0  0  0  0  0  0  0  0  0  0  # atno 17343 bound_to 10162
  156.7061  130.4638  149.5560 LP  0  0  0  0  0  0  0  0  0  0  0  0  # atno 17370 bound_to 10713
  156.1762  130.6469  151.0897 LP  0  0  0  0  0  0  0  0  0  0  0  0  # atno 17371 bound_to 10713
  140.4079  134.2013  155.7163 LP  0  0  0  0  0  0  0  0  0  0  0  0  # atno 17394 bound_to 11000
  141.1880  133.8270  157.1012 LP  0  0  0  0  0  0  0  0  0  0  0  0  # atno 17395 bound_to 11000

$$$$
