AV-unprocessed.smi:1880|AV-procd|sdf|7637|dock8
  -GOLD-   22720 9363D 1   1.00000     0.00000
 Structure written by MMmdl.
 37 39  0  0  0  0  0  0  0  0  2 V2000
  151.1655  139.2733  154.6661 O   0  0  0  0  0  0  0  0  0  0  0  0
  152.2364  139.4973  155.5616 C   0  0  2  0  0  0  0  0  0  0  0  0
  153.2444  138.3426  155.4430 C   0  0  0  0  0  0  0  0  0  0  0  0
  153.7681  138.0221  156.7218 O   0  0  0  0  0  0  0  0  0  0  0  0
  153.0206  137.0187  157.3857 C   0  0  0  0  0  0  0  0  0  0  0  0
  153.1989  137.2576  158.8462 C   0  0  0  0  0  0  0  0  0  0  0  0
  153.1875  138.3816  159.6252 C   0  0  0  0  0  0  0  0  0  0  0  0
  153.4129  137.9456  160.9604 C   0  0  0  0  0  0  0  0  0  0  0  0
  153.5443  136.5876  160.8960 C   0  0  0  0  0  0  0  0  0  0  0  0
  153.4151  136.1520  159.6134 O   0  0  0  0  0  0  0  0  0  0  0  0
  151.7400  139.7364  157.0016 C   0  0  0  0  0  0  0  0  0  0  0  0
  151.3226  141.1260  157.2354 N   0  0  0  0  0  0  0  0  0  0  0  0
  150.5756  141.9512  156.4529 C   0  0  0  0  0  0  0  0  0  0  0  0
  150.4682  143.1450  157.0992 N   0  3  0  0  0  0  0  0  0  0  0  0
  151.1568  143.0825  158.3128 C   0  0  0  0  0  0  0  0  0  0  0  0
  151.3354  144.0364  159.3094 C   0  0  0  0  0  0  0  0  0  0  0  0
  152.0972  143.6483  160.4311 C   0  0  0  0  0  0  0  0  0  0  0  0
  152.3039  144.5397  161.4291 F   0  0  0  0  0  0  0  0  0  0  0  0
  152.6457  142.3522  160.5331 C   0  0  0  0  0  0  0  0  0  0  0  0
  153.3688  142.0204  161.6287 F   0  0  0  0  0  0  0  0  0  0  0  0
  152.4568  141.3930  159.5164 C   0  0  0  0  0  0  0  0  0  0  0  0
  151.7066  141.7867  158.4086 C   0  0  0  0  0  0  0  0  0  0  0  0
  151.3829  138.5368  154.1162 H   0  0  0  0  0  0  0  0  0  0  0  0
  152.7314  140.4047  155.2139 H   0  0  0  0  0  0  0  0  0  0  0  0
  152.7778  137.4691  154.9840 H   0  0  0  0  0  0  0  0  0  0  0  0
  154.0647  138.6481  154.7917 H   0  0  0  0  0  0  0  0  0  0  0  0
  151.9651  137.0779  157.1158 H   0  0  0  0  0  0  0  0  0  0  0  0
  153.3840  136.0265  157.1146 H   0  0  0  0  0  0  0  0  0  0  0  0
  153.0342  139.3923  159.2769 H   0  0  0  0  0  0  0  0  0  0  0  0
  153.4710  138.5487  161.8544 H   0  0  0  0  0  0  0  0  0  0  0  0
  153.7227  135.8150  161.6294 H   0  0  0  0  0  0  0  0  0  0  0  0
  150.9178  139.0690  157.2597 H   0  0  0  0  0  0  0  0  0  0  0  0
  152.5412  139.5170  157.7084 H   0  0  0  0  0  0  0  0  0  0  0  0
  150.1470  141.7042  155.4920 H   0  0  0  0  0  0  0  0  0  0  0  0
  150.9159  145.0290  159.2369 H   0  0  0  0  0  0  0  0  0  0  0  0
  152.8780  140.4027  159.6089 H   0  0  0  0  0  0  0  0  0  0  0  0
  149.9625  143.9427  156.7349 H   0  0  0  0  0  0  0  0  0  0  0  0
  1  2  1  0  0  0  0
  1 23  1  0  0  0  0
  2  3  1  0  0  0  0
  2 11  1  0  0  0  0
  2 24  1  0  0  0  0
  3  4  1  0  0  0  0
  3 25  1  0  0  0  0
  3 26  1  0  0  0  0
  4  5  1  0  0  0  0
  5  6  1  0  0  0  0
  5 27  1  0  0  0  0
  5 28  1  0  0  0  0
  6 10  1  0  0  0  0
  6  7  2  0  0  0  0
  7  8  1  0  0  0  0
  7 29  1  0  0  0  0
  8  9  2  0  0  0  0
  8 30  1  0  0  0  0
  9 10  1  0  0  0  0
  9 31  1  0  0  0  0
 11 12  1  0  0  0  0
 11 32  1  0  0  0  0
 11 33  1  0  0  0  0
 12 22  1  0  0  0  0
 12 13  1  0  0  0  0
 13 14  2  0  0  0  0
 13 34  1  0  0  0  0
 14 15  1  0  0  0  0
 14 37  1  0  0  0  0
 15 22  2  0  0  0  0
 15 16  1  0  0  0  0
 16 17  2  0  0  0  0
 16 35  1  0  0  0  0
 17 18  1  0  0  0  0
 17 19  1  0  0  0  0
 19 20  1  0  0  0  0
 19 21  2  0  0  0  0
 21 22  1  0  0  0  0
 21 36  1  0  0  0  0
M  CHG  1  14   1
M  END
> <s_m_source_file>
AV-unprocessed.smi

> <i_m_source_file_index>
1880

> <i_lp_mmshare_version>
43012

> <i_f3d_flags>
0

> <s_epik_input>
W2NIXTFjKEYpYyhGKVtjSF1jKGMxMiluKFtjSF1uMilbQ0gyXVtDQEhdKFtPSF0pW0NIMl1PW0NIMl1jM1tjSF1bY0hdW2NIXW8z

> <s_epik_cmdline>
J2VwaWtfcHl0aG9uJywgJy1waCcsICc3LjAnLCAnLXRuJywgJzgnLCAnLW1hJywgJzIwMCcsICctbWV0YWxfYmluZGluZycsICctaW1hZScsICc8aW5maWxlLm1hZT4nLCAnLW9tYWUnLCAnPG91dGZpbGUubWFlPic=

> <r_epik_Ionization_Penalty>
2.17656

> <r_epik_Ionization_Penalty_Charging>
2.17656

> <r_epik_Ionization_Penalty_Neutral>
9.34185e-07

> <r_epik_State_Penalty>
2.31826

> <r_epik_Charging_Adjusted_Penalty>
4.49482

> <i_epik_Tot_Q>
1

> <i_epik_Tot_abs_Q>
1

> <r_epik_Metal_State_Penalty>
6.39906

> <b_epik_Metal_Only>
0

> <s_lp_Force_Field>
OPLS_2005

> <r_lp_Energy>
13.1736

> <b_lp_Chiralities_Consistent>
1

> <s_lp_Variant>
AV-unprocessed.smi:1880-3

> <Gold.Version>
5.8.1

> <Gold.Id.Protein>
6NUR|6NUR_protein|mol2

> <Gold.PLP.Fitness>
52.7981

> <Gold.PLP.PLP>
-44.3669

> <Gold.PLP.part.hbond>
-4.0000

> <Gold.PLP.part.metal>
0.0000

> <Gold.PLP.part.buried>
-4.4368

> <Gold.PLP.part.nonpolar>
-37.4331

> <Gold.PLP.part.repulsive>
0.0082

> <Gold.PLP.ligand.clash>
0.0000

> <Gold.PLP.ligand.torsion>
1.6404

> <Gold.PLP.Chemscore.Hbond>
3.8779

> <Gold.PLP.Chemscore.CHOScore>
0.0000

> <Gold.PLP.Chemscore.Metal>
0.0000

> <Gold.Chemscore.Hbonds>
donor molecule, donor type, donor heavy atom, donor atom, acceptor molecule, acceptor atom, score
      L1  H    14    37       P1  8028  2.00
      P1  H  6896  6909       L1    10  0.79
      P1  H  7989  7998       L1     1  0.70
      P1  H  7997  8008       L1     4  0.24

> <Gold.PLP.Chemscore.Internal.Correction>
0.0784

> <Gold.Rescore>
     Score         DG    S(hbond)    S(metal)    S(lipo)     H(rot)  DE(clash)    DE(int)     intcor
     13.50     -15.59       1.49        0.00     108.17       2.94       0.50       1.58       ----

> <Gold.Chemscore.Fitness>
13.5037

> <Gold.Chemscore.DG>
-15.5851

> <Gold.Chemscore.ZeroCoef>
-5.4800

> <Gold.Chemscore.Hbond>
1.4875

> <Gold.Chemscore.Metal>
0.0000

> <Gold.Chemscore.Lipo>
108.1669

> <Gold.Chemscore.Internal_Hbond>
0.0000

> <Gold.Chemscore.DEClash>
0.5014

> <Gold.Chemscore.DEInternal>
1.5800

> <Gold.Chemscore.Rot>
2.9369

> <Gold.Chemscore.Internal.Correction>
   9.000000E+99

> <Gold.Chemscore.Hbonds>
donor molecule, donor type, donor heavy atom, donor atom, acceptor molecule, acceptor atom, score
      L1  H    14    37       P1  8028  0.98
      P1  H  6896  6909       L1    10  0.13
      P1  H  7989  7998       L1     1  0.02
      P1  H  7997  8008       L1     4  0.02

> <Gold.Chemscore.Hbond.Weighted>
-4.9681

> <Gold.Chemscore.Metal.Weighted>
-0.0000

> <Gold.Chemscore.Lipo.Weighted>
-12.6555

> <Gold.Chemscore.Internal_Hbond.Weighted>
0.0000

> <Gold.Chemscore.DEClash.Weighted>
0.5014

> <Gold.Chemscore.DEInternal.Weighted>
1.5800

> <Gold.Chemscore.Rot.Weighted>
7.5185

> <Gold.Chemscore.Internal.Correction.Weighted>
   9.000000E+99

> <Gold.Protein.RotatedTorsions>
[ 6907 6896 6895 6894 ] final -174.67 input  -60.11 | X-H torsion
[ 7974 7965 7964 7962 ] final  -80.83 input  175.53 | X-H torsion
[ 8008 7997 7996 7995 ] final  -86.76 input   59.86 | X-H torsion
[ 10167 10162 10161 10158 ] final   93.55 input  -65.29 | X-H torsion
[ 10718 10713 10712 10709 ] final -118.89 input   66.30 | X-H torsion
[ 10763 10752 10751 10750 ] final  -36.22 input  -60.55 | X-H torsion
[ 11005 11000 10999 10996 ] final  -68.15 input  -57.11 | X-H torsion

> <Gold.Protein.ActiveResidues>
 VAL166  LYS551  ARG553  GLY616  TRP617  ASP618  TYR619  PRO620  LYS621  CYS622 
 ASP623  PHE694  ASN695  SER759  ASP760  ASP761  ALA762  ILE779  LEU786  VAL792 
 PHE793  MET794  SER795  GLU796  ALA797  LYS798  CYS799  TRP800  GLU811  SER814 

> <Gold.Protein.RotatedAtoms>
  151.5761  133.3383  159.2998 H   0  0  0  0  0  0  0  0  0  0  0  0  # atno 6907 bound_to 6896
  150.8340  134.7608  159.6888 H   0  0  0  0  0  0  0  0  0  0  0  0  # atno 6908 bound_to 6896
  152.4419  134.5580  159.9937 H   0  0  0  0  0  0  0  0  0  0  0  0  # atno 6909 bound_to 6896
  145.5548  140.9491  143.1479 H   0  0  0  0  0  0  0  0  0  0  0  0  # atno 7974 bound_to 7965
  154.6555  140.0574  157.0004 H   0  0  0  0  0  0  0  0  0  0  0  0  # atno 8008 bound_to 7997
  155.1307  140.3256  155.4456 H   0  0  0  0  0  0  0  0  0  0  0  0  # atno 8009 bound_to 7997
  156.2595  140.1981  156.6426 H   0  0  0  0  0  0  0  0  0  0  0  0  # atno 8010 bound_to 7997
  139.8169  144.6749  150.9569 H   0  0  0  0  0  0  0  0  0  0  0  0  # atno 10167 bound_to 10162
  156.1140  130.6271  150.9348 H   0  0  0  0  0  0  0  0  0  0  0  0  # atno 10718 bound_to 10713
  153.8762  135.6826  153.4770 H   0  0  0  0  0  0  0  0  0  0  0  0  # atno 10763 bound_to 10752
  153.1259  135.4719  154.9269 H   0  0  0  0  0  0  0  0  0  0  0  0  # atno 10764 bound_to 10752
  154.7691  135.3233  154.8178 H   0  0  0  0  0  0  0  0  0  0  0  0  # atno 10765 bound_to 10752
  141.1525  133.6734  156.6402 H   0  0  0  0  0  0  0  0  0  0  0  0  # atno 11005 bound_to 11000
  144.7512  139.7190  143.7272 LP  0  0  0  0  0  0  0  0  0  0  0  0  # atno 17320 bound_to 7965
  146.1892  139.5123  142.9816 LP  0  0  0  0  0  0  0  0  0  0  0  0  # atno 17321 bound_to 7965
  140.7815  143.4130  151.0962 LP  0  0  0  0  0  0  0  0  0  0  0  0  # atno 17342 bound_to 10162
  139.7793  143.8379  152.3135 LP  0  0  0  0  0  0  0  0  0  0  0  0  # atno 17343 bound_to 10162
  157.6323  131.0920  150.8418 LP  0  0  0  0  0  0  0  0  0  0  0  0  # atno 17370 bound_to 10713
  156.8524  130.5085  149.5310 LP  0  0  0  0  0  0  0  0  0  0  0  0  # atno 17371 bound_to 10713
  140.3399  134.7857  157.4390 LP  0  0  0  0  0  0  0  0  0  0  0  0  # atno 17394 bound_to 11000
  140.0946  134.5554  155.8411 LP  0  0  0  0  0  0  0  0  0  0  0  0  # atno 17395 bound_to 11000

$$$$
