AV-unprocessed.smi:3046|AV-procd|sdf|11620|dock5
  -GOLD-   2272017 03D 1   1.00000     0.00000
 Structure written by MMmdl.
 37 37  0  0  0  0  0  0  0  0  1 V2000
  146.6875  142.2412  153.8573 C   0  0  0  0  0  0  0  0  0  0  0  0
  147.4425  141.7371  154.8448 C   0  0  0  0  0  0  0  0  0  0  0  0
  148.9187  141.4170  154.7169 C   0  0  0  0  0  0  0  0  0  0  0  0
  149.4814  140.9843  155.9894 N   0  0  0  0  0  0  0  0  0  0  0  0
  150.7061  140.4584  156.1552 C   0  0  0  0  0  0  0  0  0  0  0  0
  151.4862  140.2719  155.2203 O   0  0  0  0  0  0  0  0  0  0  0  0
  151.0934  140.0945  157.5973 C   0  0  1  0  0  0  0  0  0  0  0  0
  151.3608  138.5843  157.7603 C   0  0  0  0  0  0  0  0  0  0  0  0
  152.2723  140.8740  158.0105 N   0  0  0  0  0  0  0  0  0  0  0  0
  152.5553  140.8766  159.4443 C   0  0  1  0  0  0  0  0  0  0  0  0
  153.4134  139.6648  159.8569 C   0  0  0  0  0  0  0  0  0  0  0  0
  153.2065  142.2299  159.8136 C   0  0  0  0  0  0  0  0  0  0  0  0
  152.3635  143.3861  159.5497 N   0  0  0  0  0  0  0  0  0  0  0  0
  151.9955  144.3937  160.4173 C   0  0  0  0  0  0  0  0  0  0  0  0
  151.1975  145.2575  159.7237 C   0  0  0  0  0  0  0  0  0  0  0  0
  151.1297  144.6842  158.4232 C   0  0  0  0  0  0  0  0  0  0  0  0
  151.8258  143.5635  158.3230 N   0  0  0  0  0  0  0  0  0  0  0  0
  147.1061  142.4567  152.8852 H   0  0  0  0  0  0  0  0  0  0  0  0
  145.6382  142.4462  154.0107 H   0  0  0  0  0  0  0  0  0  0  0  0
  146.9885  141.5334  155.8038 H   0  0  0  0  0  0  0  0  0  0  0  0
  149.0377  140.6087  153.9956 H   0  0  0  0  0  0  0  0  0  0  0  0
  149.4677  142.2752  154.3251 H   0  0  0  0  0  0  0  0  0  0  0  0
  148.9069  141.1091  156.8102 H   0  0  0  0  0  0  0  0  0  0  0  0
  150.2352  140.3612  158.2166 H   0  0  0  0  0  0  0  0  0  0  0  0
  150.4970  137.9940  157.4524 H   0  0  0  0  0  0  0  0  0  0  0  0
  151.5728  138.3212  158.7958 H   0  0  0  0  0  0  0  0  0  0  0  0
  152.2144  138.2621  157.1624 H   0  0  0  0  0  0  0  0  0  0  0  0
  153.0973  140.6409  157.4754 H   0  0  0  0  0  0  0  0  0  0  0  0
  151.6023  140.8272  159.9732 H   0  0  0  0  0  0  0  0  0  0  0  0
  153.7117  139.7414  160.9027 H   0  0  0  0  0  0  0  0  0  0  0  0
  154.3216  139.5875  159.2579 H   0  0  0  0  0  0  0  0  0  0  0  0
  152.8635  138.7297  159.7524 H   0  0  0  0  0  0  0  0  0  0  0  0
  153.5063  142.2425  160.8629 H   0  0  0  0  0  0  0  0  0  0  0  0
  154.1248  142.3542  159.2385 H   0  0  0  0  0  0  0  0  0  0  0  0
  152.3316  144.4132  161.4436 H   0  0  0  0  0  0  0  0  0  0  0  0
  150.7325  146.1608  160.0895 H   0  0  0  0  0  0  0  0  0  0  0  0
  150.5985  145.0457  157.5551 H   0  0  0  0  0  0  0  0  0  0  0  0
  1  2  2  0  0  0  0
  1 18  1  0  0  0  0
  1 19  1  0  0  0  0
  2  3  1  0  0  0  0
  2 20  1  0  0  0  0
  3  4  1  0  0  0  0
  3 21  1  0  0  0  0
  3 22  1  0  0  0  0
  4  5  1  0  0  0  0
  4 23  1  0  0  0  0
  5  6  2  0  0  0  0
  5  7  1  0  0  0  0
  7  8  1  0  0  0  0
  7  9  1  0  0  0  0
  7 24  1  0  0  0  0
  8 25  1  0  0  0  0
  8 26  1  0  0  0  0
  8 27  1  0  0  0  0
  9 10  1  0  0  0  0
  9 28  1  0  0  0  0
 10 11  1  0  0  0  0
 10 12  1  0  0  0  0
 10 29  1  0  0  0  0
 11 30  1  0  0  0  0
 11 31  1  0  0  0  0
 11 32  1  0  0  0  0
 12 13  1  0  0  0  0
 12 33  1  0  0  0  0
 12 34  1  0  0  0  0
 13 17  1  0  0  0  0
 13 14  1  0  0  0  0
 14 15  2  0  0  0  0
 14 35  1  0  0  0  0
 15 16  1  0  0  0  0
 15 36  1  0  0  0  0
 16 17  2  0  0  0  0
 16 37  1  0  0  0  0
M  END
> <s_m_source_file>
AV-unprocessed.smi

> <i_m_source_file_index>
3046

> <i_lp_mmshare_version>
43012

> <i_f3d_flags>
0

> <s_epik_input>
W0NIMl09W0NIXVtDSDJdW05IXUMoPU8pW0NASF0oW0NIM10pW05IXVtDQEhdKFtDSDNdKVtDSDJdbjFbY0hdW2NIXVtjSF1uMQ==

> <s_epik_cmdline>
J2VwaWtfcHl0aG9uJywgJy1waCcsICc3LjAnLCAnLXRuJywgJzgnLCAnLW1hJywgJzIwMCcsICctbWV0YWxfYmluZGluZycsICctaW1hZScsICc8aW5maWxlLm1hZT4nLCAnLW9tYWUnLCAnPG91dGZpbGUubWFlPic=

> <r_lp_tautomer_probability>
1

> <r_epik_Ionization_Penalty>
0.950627

> <r_epik_Ionization_Penalty_Charging>
0

> <r_epik_Ionization_Penalty_Neutral>
0.950627

> <r_epik_State_Penalty>
0.994814

> <r_epik_Charging_Adjusted_Penalty>
0.994814

> <i_epik_Tot_Q>
0

> <i_epik_Tot_abs_Q>
0

> <r_epik_Metal_State_Penalty>
0.994788

> <b_epik_Metal_Only>
0

> <s_lp_Force_Field>
OPLS_2005

> <r_lp_Energy>
8.07161

> <b_lp_Chiralities_Consistent>
1

> <s_lp_Variant>
AV-unprocessed.smi:3046-8

> <Gold.Version>
5.8.1

> <Gold.Id.Protein>
6NUR|6NUR_protein|mol2

> <Gold.PLP.Fitness>
45.4711

> <Gold.PLP.PLP>
-40.3568

> <Gold.PLP.part.hbond>
-1.0000

> <Gold.PLP.part.metal>
0.0000

> <Gold.PLP.part.buried>
-7.5430

> <Gold.PLP.part.nonpolar>
-32.5991

> <Gold.PLP.part.repulsive>
0.1463

> <Gold.PLP.ligand.clash>
0.0000

> <Gold.PLP.ligand.torsion>
0.5354

> <Gold.PLP.Chemscore.Hbond>
1.0000

> <Gold.PLP.Chemscore.CHOScore>
0.9822

> <Gold.PLP.Chemscore.Metal>
0.0000

> <Gold.Chemscore.Hbonds>
donor molecule, donor type, donor heavy atom, donor atom, acceptor molecule, acceptor atom, score
      P1  H  7989  7998       L1     6  0.96
      L1  C    16    37       P1  8028  0.87
      L1  C    16    37       P1  8029  0.04

> <Gold.PLP.Chemscore.Internal.Correction>
0.2385

> <Gold.Rescore>
     Score         DG    S(hbond)    S(metal)    S(lipo)     H(rot)  DE(clash)    DE(int)     intcor
     12.13     -14.05       0.98        0.00      93.00       2.17       0.03       1.89       ----

> <Gold.Chemscore.Fitness>
12.1333

> <Gold.Chemscore.DG>
-14.0536

> <Gold.Chemscore.ZeroCoef>
-5.4800

> <Gold.Chemscore.Hbond>
0.9755

> <Gold.Chemscore.Metal>
0.0000

> <Gold.Chemscore.Lipo>
92.9968

> <Gold.Chemscore.Internal_Hbond>
0.0000

> <Gold.Chemscore.DEClash>
0.0279

> <Gold.Chemscore.DEInternal>
1.8924

> <Gold.Chemscore.Rot>
2.1739

> <Gold.Chemscore.Internal.Correction>
   9.000000E+99

> <Gold.Chemscore.Hbonds>
donor molecule, donor type, donor heavy atom, donor atom, acceptor molecule, acceptor atom, score
      P1  H  7989  7998       L1     6  0.92

> <Gold.Chemscore.Hbond.Weighted>
-3.2581

> <Gold.Chemscore.Metal.Weighted>
-0.0000

> <Gold.Chemscore.Lipo.Weighted>
-10.8806

> <Gold.Chemscore.Internal_Hbond.Weighted>
0.0000

> <Gold.Chemscore.DEClash.Weighted>
0.0279

> <Gold.Chemscore.DEInternal.Weighted>
1.8924

> <Gold.Chemscore.Rot.Weighted>
5.5652

> <Gold.Chemscore.Internal.Correction.Weighted>
   9.000000E+99

> <Gold.Protein.RotatedTorsions>
[ 6907 6896 6895 6894 ] final -104.67 input  -60.11 | X-H torsion
[ 7974 7965 7964 7962 ] final -112.47 input  175.53 | X-H torsion
[ 8008 7997 7996 7995 ] final   17.43 input   59.86 | X-H torsion
[ 10167 10162 10161 10158 ] final  138.65 input  -65.29 | X-H torsion
[ 10718 10713 10712 10709 ] final   93.19 input   66.30 | X-H torsion
[ 10763 10752 10751 10750 ] final   64.37 input  -60.55 | X-H torsion
[ 11005 11000 10999 10996 ] final   69.98 input  -57.11 | X-H torsion

> <Gold.Protein.ActiveResidues>
 VAL166  LYS551  ARG553  GLY616  TRP617  ASP618  TYR619  PRO620  LYS621  CYS622 
 ASP623  PHE694  ASN695  SER759  ASP760  ASP761  ALA762  ILE779  LEU786  VAL792 
 PHE793  MET794  SER795  GLU796  ALA797  LYS798  CYS799  TRP800  GLU811  SER814 

> <Gold.Protein.RotatedAtoms>
  150.7299  134.0242  159.3711 H   0  0  0  0  0  0  0  0  0  0  0  0  # atno 6907 bound_to 6896
  151.8208  135.0650  160.0434 H   0  0  0  0  0  0  0  0  0  0  0  0  # atno 6908 bound_to 6896
  152.3005  133.5614  159.5651 H   0  0  0  0  0  0  0  0  0  0  0  0  # atno 6909 bound_to 6896
  145.1436  140.8791  143.3688 H   0  0  0  0  0  0  0  0  0  0  0  0  # atno 7974 bound_to 7965
  154.8912  140.2987  155.5369 H   0  0  0  0  0  0  0  0  0  0  0  0  # atno 8008 bound_to 7997
  156.3021  140.2424  156.3863 H   0  0  0  0  0  0  0  0  0  0  0  0  # atno 8009 bound_to 7997
  154.8616  140.0405  157.1657 H   0  0  0  0  0  0  0  0  0  0  0  0  # atno 8010 bound_to 7997
  139.5104  144.6341  151.5743 H   0  0  0  0  0  0  0  0  0  0  0  0  # atno 10167 bound_to 10162
  157.6956  131.0470  150.3997 H   0  0  0  0  0  0  0  0  0  0  0  0  # atno 10718 bound_to 10713
  153.0053  135.5395  154.6499 H   0  0  0  0  0  0  0  0  0  0  0  0  # atno 10763 bound_to 10752
  154.5733  135.2843  155.0807 H   0  0  0  0  0  0  0  0  0  0  0  0  # atno 10764 bound_to 10752
  154.1964  135.6491  153.5127 H   0  0  0  0  0  0  0  0  0  0  0  0  # atno 10765 bound_to 10752
  139.9623  134.7040  156.0619 H   0  0  0  0  0  0  0  0  0  0  0  0  # atno 11005 bound_to 11000
  145.0506  139.3185  143.5930 LP  0  0  0  0  0  0  0  0  0  0  0  0  # atno 17320 bound_to 7965
  146.3502  139.9913  142.8685 LP  0  0  0  0  0  0  0  0  0  0  0  0  # atno 17321 bound_to 7965
  140.6083  143.9483  150.6435 LP  0  0  0  0  0  0  0  0  0  0  0  0  # atno 17342 bound_to 10162
  140.2717  143.3451  152.1232 LP  0  0  0  0  0  0  0  0  0  0  0  0  # atno 17343 bound_to 10162
  156.4391  130.3988  149.6709 LP  0  0  0  0  0  0  0  0  0  0  0  0  # atno 17370 bound_to 10713
  156.3899  130.7621  151.2622 LP  0  0  0  0  0  0  0  0  0  0  0  0  # atno 17371 bound_to 10713
  141.1301  133.6589  156.3441 LP  0  0  0  0  0  0  0  0  0  0  0  0  # atno 17394 bound_to 11000
  140.5473  134.6062  157.5397 LP  0  0  0  0  0  0  0  0  0  0  0  0  # atno 17395 bound_to 11000

$$$$
