AV-unprocessed.smi:3031|AV-procd|sdf|11544|dock8
  -GOLD-   2272016493D 1   1.00000     0.00000
 Structure written by MMmdl.
 47 48  0  0  0  0  0  0  0  0  2 V2000
  151.0920  141.2255  158.3282 C   0  0  0  0  0  0  0  0  0  0  0  0
  150.6052  140.9974  156.9264 C   0  0  0  0  0  0  0  0  0  0  0  0
  151.0974  140.0596  155.9745 C   0  0  0  0  0  0  0  0  0  0  0  0
  150.4545  140.1143  154.8194 N   0  0  0  0  0  0  0  0  0  0  0  0
  149.5306  141.0825  154.9932 N   0  0  0  0  0  0  0  0  0  0  0  0
  148.6357  141.4280  153.9043 C   0  0  0  0  0  0  0  0  0  0  0  0
  147.1700  141.0164  154.1676 C   0  0  1  0  0  0  0  0  0  0  0  0
  146.3099  142.2521  154.4648 C   0  0  0  0  0  0  0  0  0  0  0  0
  146.5996  140.2917  153.0090 N   0  3  0  0  0  0  0  0  0  0  0  0
  147.0057  138.8745  152.8844 C   0  0  0  0  0  0  0  0  0  0  0  0
  145.9845  138.0770  152.0565 C   0  0  1  0  0  0  0  0  0  0  0  0
  146.5387  137.8881  150.7679 O   0  0  0  0  0  0  0  0  0  0  0  0
  145.6923  136.6926  152.6749 C   0  0  0  0  0  0  0  0  0  0  0  0
  144.7654  135.8539  151.9157 N   0  0  0  0  0  0  0  0  0  0  0  0
  144.0220  134.9628  152.8008 C   0  0  0  0  0  0  0  0  0  0  0  0
  143.0365  134.0708  152.0263 C   0  0  0  0  0  0  0  0  0  0  0  0
  143.7439  133.3257  151.0408 O   0  0  0  0  0  0  0  0  0  0  0  0
  144.4475  134.1578  150.1247 C   0  0  0  0  0  0  0  0  0  0  0  0
  145.4352  135.0543  150.8920 C   0  0  0  0  0  0  0  0  0  0  0  0
  149.5932  141.6269  156.2586 C   0  0  0  0  0  0  0  0  0  0  0  0
  150.9876  140.3293  158.9399 H   0  0  0  0  0  0  0  0  0  0  0  0
  150.5385  142.0212  158.8273 H   0  0  0  0  0  0  0  0  0  0  0  0
  152.1452  141.5066  158.3469 H   0  0  0  0  0  0  0  0  0  0  0  0
  151.9015  139.3473  156.0875 H   0  0  0  0  0  0  0  0  0  0  0  0
  148.7004  142.5059  153.7486 H   0  0  0  0  0  0  0  0  0  0  0  0
  149.0044  140.9620  152.9893 H   0  0  0  0  0  0  0  0  0  0  0  0
  147.1248  140.3739  155.0487 H   0  0  0  0  0  0  0  0  0  0  0  0
  146.6857  142.7916  155.3348 H   0  0  0  0  0  0  0  0  0  0  0  0
  145.2772  141.9721  154.6749 H   0  0  0  0  0  0  0  0  0  0  0  0
  146.3028  142.9450  153.6225 H   0  0  0  0  0  0  0  0  0  0  0  0
  145.5931  140.3078  153.0915 H   0  0  0  0  0  0  0  0  0  0  0  0
  147.9951  138.7874  152.4372 H   0  0  0  0  0  0  0  0  0  0  0  0
  147.0798  138.4593  153.8902 H   0  0  0  0  0  0  0  0  0  0  0  0
  145.0616  138.6538  151.9761 H   0  0  0  0  0  0  0  0  0  0  0  0
  145.8891  138.1217  150.1220 H   0  0  0  0  0  0  0  0  0  0  0  0
  146.6224  136.1556  152.8704 H   0  0  0  0  0  0  0  0  0  0  0  0
  145.2477  136.8603  153.6568 H   0  0  0  0  0  0  0  0  0  0  0  0
  144.7158  134.3309  153.3574 H   0  0  0  0  0  0  0  0  0  0  0  0
  143.4722  135.5471  153.5395 H   0  0  0  0  0  0  0  0  0  0  0  0
  142.5361  133.3798  152.7047 H   0  0  0  0  0  0  0  0  0  0  0  0
  142.2606  134.6731  151.5511 H   0  0  0  0  0  0  0  0  0  0  0  0
  144.9807  133.5311  149.4099 H   0  0  0  0  0  0  0  0  0  0  0  0
  143.7401  134.7625  149.5553 H   0  0  0  0  0  0  0  0  0  0  0  0
  145.9418  135.7031  150.1781 H   0  0  0  0  0  0  0  0  0  0  0  0
  146.2048  134.4328  151.3523 H   0  0  0  0  0  0  0  0  0  0  0  0
  148.9261  142.4162  156.5733 H   0  0  0  0  0  0  0  0  0  0  0  0
  146.8566  140.7827  152.1643 H   0  0  0  0  0  0  0  0  0  0  0  0
  1  2  1  0  0  0  0
  1 21  1  0  0  0  0
  1 22  1  0  0  0  0
  1 23  1  0  0  0  0
  2 20  2  0  0  0  0
  2  3  1  0  0  0  0
  3  4  2  0  0  0  0
  3 24  1  0  0  0  0
  4  5  1  0  0  0  0
  5  6  1  0  0  0  0
  5 20  1  0  0  0  0
  6  7  1  0  0  0  0
  6 25  1  0  0  0  0
  6 26  1  0  0  0  0
  7  8  1  0  0  0  0
  7  9  1  0  0  0  0
  7 27  1  0  0  0  0
  8 28  1  0  0  0  0
  8 29  1  0  0  0  0
  8 30  1  0  0  0  0
  9 10  1  0  0  0  0
  9 31  1  0  0  0  0
  9 47  1  0  0  0  0
 10 11  1  0  0  0  0
 10 32  1  0  0  0  0
 10 33  1  0  0  0  0
 11 12  1  0  0  0  0
 11 13  1  0  0  0  0
 11 34  1  0  0  0  0
 12 35  1  0  0  0  0
 13 14  1  0  0  0  0
 13 36  1  0  0  0  0
 13 37  1  0  0  0  0
 14 19  1  0  0  0  0
 14 15  1  0  0  0  0
 15 16  1  0  0  0  0
 15 38  1  0  0  0  0
 15 39  1  0  0  0  0
 16 17  1  0  0  0  0
 16 40  1  0  0  0  0
 16 41  1  0  0  0  0
 17 18  1  0  0  0  0
 18 19  1  0  0  0  0
 18 42  1  0  0  0  0
 18 43  1  0  0  0  0
 19 44  1  0  0  0  0
 19 45  1  0  0  0  0
 20 46  1  0  0  0  0
M  CHG  1   9   1
M  END
> <s_m_source_file>
AV-unprocessed.smi

> <i_m_source_file_index>
3031

> <i_lp_mmshare_version>
43012

> <i_f3d_flags>
0

> <s_epik_input>
W0NIM11jMVtjSF1ubihbY0hdMSlbQ0gyXVtDQEhdKFtDSDNdKVtOSF1bQ0gyXVtDQEhdKFtPSF0pW0NIMl1OMltDSDJdW0NIMl1PW0NIMl1bQ0gyXTI=

> <s_epik_cmdline>
J2VwaWtfcHl0aG9uJywgJy1waCcsICc3LjAnLCAnLXRuJywgJzgnLCAnLW1hJywgJzIwMCcsICctbWV0YWxfYmluZGluZycsICctaW1hZScsICc8aW5maWxlLm1hZT4nLCAnLW9tYWUnLCAnPG91dGZpbGUubWFlPic=

> <r_lp_tautomer_probability>
1

> <r_epik_Ionization_Penalty>
0.108564

> <r_epik_Ionization_Penalty_Charging>
0.01811

> <r_epik_Ionization_Penalty_Neutral>
0.0904541

> <r_epik_State_Penalty>
0.141043

> <r_epik_Charging_Adjusted_Penalty>
0.159153

> <i_epik_Tot_Q>
1

> <i_epik_Tot_abs_Q>
1

> <r_epik_Metal_State_Penalty>
0.141052

> <b_epik_Metal_Only>
0

> <s_lp_Force_Field>
OPLS_2005

> <r_lp_Energy>
31.0841

> <b_lp_Chiralities_Consistent>
1

> <s_lp_Variant>
AV-unprocessed.smi:3031-4

> <Gold.Version>
5.8.1

> <Gold.Id.Protein>
6NUR|6NUR_protein|mol2

> <Gold.PLP.Fitness>
53.1059

> <Gold.PLP.PLP>
-39.0439

> <Gold.PLP.part.hbond>
-4.7617

> <Gold.PLP.part.metal>
0.0000

> <Gold.PLP.part.buried>
-2.0776

> <Gold.PLP.part.nonpolar>
-33.6441

> <Gold.PLP.part.repulsive>
0.4246

> <Gold.PLP.ligand.clash>
0.0000

> <Gold.PLP.ligand.torsion>
2.0023

> <Gold.PLP.Chemscore.Hbond>
5.0000

> <Gold.PLP.Chemscore.CHOScore>
0.9828

> <Gold.PLP.Chemscore.Metal>
0.0000

> <Gold.Chemscore.Hbonds>
donor molecule, donor type, donor heavy atom, donor atom, acceptor molecule, acceptor atom, score
      L1  H     9    31       P1 10175  2.00
      L1  H    12    35       P1 10171  0.83
      P1  H  7954  7966       L1    12  1.00
      P1  H  7989  7998       L1     4  1.00
      L1  C    20    46       P1  8028  0.92

> <Gold.PLP.Chemscore.Internal.Correction>
0.1182

> <Gold.Rescore>
     Score         DG    S(hbond)    S(metal)    S(lipo)     H(rot)  DE(clash)    DE(int)     intcor
     18.56     -20.56       3.66        0.00      81.76       2.63       0.02       1.98       ----

> <Gold.Chemscore.Fitness>
18.5567

> <Gold.Chemscore.DG>
-20.5556

> <Gold.Chemscore.ZeroCoef>
-5.4800

> <Gold.Chemscore.Hbond>
3.6631

> <Gold.Chemscore.Metal>
0.0000

> <Gold.Chemscore.Lipo>
81.7600

> <Gold.Chemscore.Internal_Hbond>
0.0000

> <Gold.Chemscore.DEClash>
0.0235

> <Gold.Chemscore.DEInternal>
1.9754

> <Gold.Chemscore.Rot>
2.6270

> <Gold.Chemscore.Internal.Correction>
   9.000000E+99

> <Gold.Chemscore.Hbonds>
donor molecule, donor type, donor heavy atom, donor atom, acceptor molecule, acceptor atom, score
      L1  H     9    31       P1 10175  0.91
      L1  H    12    35       P1 10171  0.78
      P1  H  7954  7966       L1    12  0.54
      P1  H  7989  7998       L1     4  0.28

> <Gold.Chemscore.Hbond.Weighted>
-12.2348

> <Gold.Chemscore.Metal.Weighted>
-0.0000

> <Gold.Chemscore.Lipo.Weighted>
-9.5659

> <Gold.Chemscore.Internal_Hbond.Weighted>
0.0000

> <Gold.Chemscore.DEClash.Weighted>
0.0235

> <Gold.Chemscore.DEInternal.Weighted>
1.9754

> <Gold.Chemscore.Rot.Weighted>
6.7251

> <Gold.Chemscore.Internal.Correction.Weighted>
   9.000000E+99

> <Gold.Protein.RotatedTorsions>
[ 6907 6896 6895 6894 ] final -155.39 input  -60.11 | X-H torsion
[ 7974 7965 7964 7962 ] final  108.91 input  175.53 | X-H torsion
[ 8008 7997 7996 7995 ] final  -35.70 input   59.86 | X-H torsion
[ 10167 10162 10161 10158 ] final   34.86 input  -65.29 | X-H torsion
[ 10718 10713 10712 10709 ] final -138.66 input   66.30 | X-H torsion
[ 10763 10752 10751 10750 ] final  113.64 input  -60.55 | X-H torsion
[ 11005 11000 10999 10996 ] final -173.48 input  -57.11 | X-H torsion

> <Gold.Protein.ActiveResidues>
 VAL166  LYS551  ARG553  GLY616  TRP617  ASP618  TYR619  PRO620  LYS621  CYS622 
 ASP623  PHE694  ASN695  SER759  ASP760  ASP761  ALA762  ILE779  LEU786  VAL792 
 PHE793  MET794  SER795  GLU796  ALA797  LYS798  CYS799  TRP800  GLU811  SER814 

> <Gold.Protein.RotatedAtoms>
  151.2718  133.4251  159.2621 H   0  0  0  0  0  0  0  0  0  0  0  0  # atno 6907 bound_to 6896
  151.0438  134.9626  159.8186 H   0  0  0  0  0  0  0  0  0  0  0  0  # atno 6908 bound_to 6896
  152.5370  134.2675  159.9011 H   0  0  0  0  0  0  0  0  0  0  0  0  # atno 6909 bound_to 6896
  145.2745  139.2654  143.3948 H   0  0  0  0  0  0  0  0  0  0  0  0  # atno 7974 bound_to 7965
  154.4089  140.1650  156.2255 H   0  0  0  0  0  0  0  0  0  0  0  0  # atno 8008 bound_to 7997
  155.9327  140.3413  155.6239 H   0  0  0  0  0  0  0  0  0  0  0  0  # atno 8009 bound_to 7997
  155.7086  140.0754  157.2371 H   0  0  0  0  0  0  0  0  0  0  0  0  # atno 8010 bound_to 7997
  140.4276  144.1371  150.6155 H   0  0  0  0  0  0  0  0  0  0  0  0  # atno 10167 bound_to 10162
  156.3019  130.7433  151.1487 H   0  0  0  0  0  0  0  0  0  0  0  0  # atno 10718 bound_to 10713
  153.4955  135.3649  155.2513 H   0  0  0  0  0  0  0  0  0  0  0  0  # atno 10763 bound_to 10752
  154.8750  135.3987  154.3539 H   0  0  0  0  0  0  0  0  0  0  0  0  # atno 10764 bound_to 10752
  153.4166  135.7079  153.6388 H   0  0  0  0  0  0  0  0  0  0  0  0  # atno 10765 bound_to 10752
  140.4852  134.6037  157.4934 H   0  0  0  0  0  0  0  0  0  0  0  0  # atno 11005 bound_to 11000
  146.3236  140.3197  142.8632 LP  0  0  0  0  0  0  0  0  0  0  0  0  # atno 17320 bound_to 7965
  144.9306  140.7970  143.5692 LP  0  0  0  0  0  0  0  0  0  0  0  0  # atno 17321 bound_to 7965
  140.4464  143.2505  151.9406 LP  0  0  0  0  0  0  0  0  0  0  0  0  # atno 17342 bound_to 10162
  139.4784  144.5605  151.8247 LP  0  0  0  0  0  0  0  0  0  0  0  0  # atno 17343 bound_to 10162
  157.7370  131.0556  150.5381 LP  0  0  0  0  0  0  0  0  0  0  0  0  # atno 17370 bound_to 10713
  156.5510  130.4231  149.6108 LP  0  0  0  0  0  0  0  0  0  0  0  0  # atno 17371 bound_to 10713
  139.9802  134.7150  155.9874 LP  0  0  0  0  0  0  0  0  0  0  0  0  # atno 17394 bound_to 11000
  141.1511  133.6548  156.4017 LP  0  0  0  0  0  0  0  0  0  0  0  0  # atno 17395 bound_to 11000

$$$$
