AV-unprocessed.smi:1022|AV-procd|sdf|4459|dock1
  -GOLD-   22720 2433D 1   1.00000     0.00000
 Structure written by MMmdl.
 33 34  0  0  0  0  0  0  0  0  1 V2000
  152.5695  138.6411  154.4320 C   0  0  0  0  0  0  0  0  0  0  0  0
  152.0680  137.3230  154.5676 O   0  0  0  0  0  0  0  0  0  0  0  0
  150.8949  137.2662  155.3633 C   0  0  0  0  0  0  0  0  0  0  0  0
  150.5456  135.7991  155.6564 C   0  0  1  0  0  0  0  0  0  0  0  0
  149.8233  135.6523  157.0056 C   0  0  0  0  0  0  0  0  0  0  0  0
  149.7140  135.2706  154.5777 N   0  0  0  0  0  0  0  0  0  0  0  0
  149.2319  134.0210  154.5115 C   0  0  0  0  0  0  0  0  0  0  0  0
  149.4300  133.1699  155.3790 O   0  0  0  0  0  0  0  0  0  0  0  0
  148.5179  133.8347  153.3874 N   0  0  0  0  0  0  0  0  0  0  0  0
  147.8360  132.6639  152.9620 C   0  0  0  0  0  0  0  0  0  0  0  0
  146.8162  132.6704  152.0926 N   0  0  0  0  0  0  0  0  0  0  0  0
  146.3377  131.3912  151.8457 N   0  0  0  0  0  0  0  0  0  0  0  0
  147.0047  130.4574  152.5349 C   0  0  0  0  0  0  0  0  0  0  0  0
  146.6735  129.0057  152.4349 C   0  0  0  0  0  0  0  0  0  0  0  0
  147.7663  127.9697  152.3008 C   0  0  0  0  0  0  0  0  0  0  0  0
  146.8448  128.2426  151.1394 C   0  0  0  0  0  0  0  0  0  0  0  0
  148.2978  131.0783  153.5563 S   0  0  0  0  0  0  0  0  0  0  0  0
  153.4667  138.6297  153.8133 H   0  0  0  0  0  0  0  0  0  0  0  0
  152.8345  139.0652  155.4014 H   0  0  0  0  0  0  0  0  0  0  0  0
  151.8387  139.2935  153.9519 H   0  0  0  0  0  0  0  0  0  0  0  0
  151.0672  137.8008  156.2991 H   0  0  0  0  0  0  0  0  0  0  0  0
  150.0658  137.7607  154.8539 H   0  0  0  0  0  0  0  0  0  0  0  0
  151.4783  135.2336  155.7018 H   0  0  0  0  0  0  0  0  0  0  0  0
  150.4368  136.0356  157.8213 H   0  0  0  0  0  0  0  0  0  0  0  0
  149.6032  134.6075  157.2270 H   0  0  0  0  0  0  0  0  0  0  0  0
  148.8804  136.2000  157.0128 H   0  0  0  0  0  0  0  0  0  0  0  0
  149.5061  135.9019  153.8178 H   0  0  0  0  0  0  0  0  0  0  0  0
  148.4517  134.6251  152.7633 H   0  0  0  0  0  0  0  0  0  0  0  0
  145.8144  128.7636  153.0576 H   0  0  0  0  0  0  0  0  0  0  0  0
  148.7925  128.3242  152.2217 H   0  0  0  0  0  0  0  0  0  0  0  0
  147.6365  127.0316  152.8367 H   0  0  0  0  0  0  0  0  0  0  0  0
  146.0989  127.4870  150.9014 H   0  0  0  0  0  0  0  0  0  0  0  0
  147.2670  128.7660  150.2839 H   0  0  0  0  0  0  0  0  0  0  0  0
  1  2  1  0  0  0  0
  1 18  1  0  0  0  0
  1 19  1  0  0  0  0
  1 20  1  0  0  0  0
  2  3  1  0  0  0  0
  3  4  1  0  0  0  0
  3 21  1  0  0  0  0
  3 22  1  0  0  0  0
  4  5  1  0  0  0  0
  4  6  1  0  0  0  0
  4 23  1  0  0  0  0
  5 24  1  0  0  0  0
  5 25  1  0  0  0  0
  5 26  1  0  0  0  0
  6  7  1  0  0  0  0
  6 27  1  0  0  0  0
  7  8  2  0  0  0  0
  7  9  1  0  0  0  0
  9 10  1  0  0  0  0
  9 28  1  0  0  0  0
 10 17  1  0  0  0  0
 10 11  2  0  0  0  0
 11 12  1  0  0  0  0
 12 13  2  0  0  0  0
 13 14  1  0  0  0  0
 13 17  1  0  0  0  0
 14 16  1  0  0  0  0
 14 15  1  0  0  0  0
 14 29  1  0  0  0  0
 15 16  1  0  0  0  0
 15 30  1  0  0  0  0
 15 31  1  0  0  0  0
 16 32  1  0  0  0  0
 16 33  1  0  0  0  0
M  END
> <s_m_source_file>
AV-unprocessed.smi

> <i_m_source_file_index>
1022

> <i_lp_mmshare_version>
43012

> <i_f3d_flags>
0

> <s_epik_input>
W0NIM11PW0NIMl1bQ0BIXShbQ0gzXSlbTkhdQyg9TylbTkhdYzFubmMoczEpW0NIXTJbQ0gyXVtDSDJdMg==

> <s_epik_cmdline>
J2VwaWtfcHl0aG9uJywgJy1waCcsICc3LjAnLCAnLXRuJywgJzgnLCAnLW1hJywgJzIwMCcsICctbWV0YWxfYmluZGluZycsICctaW1hZScsICc8aW5maWxlLm1hZT4nLCAnLW9tYWUnLCAnPG91dGZpbGUubWFlPic=

> <r_lp_tautomer_probability>
1

> <r_epik_Ionization_Penalty>
0.00129266

> <r_epik_Ionization_Penalty_Charging>
0

> <r_epik_Ionization_Penalty_Neutral>
0.00129266

> <r_epik_State_Penalty>
-0

> <r_epik_Charging_Adjusted_Penalty>
0

> <i_epik_Tot_Q>
0

> <i_epik_Tot_abs_Q>
0

> <r_epik_Metal_State_Penalty>
0.30857

> <b_epik_Metal_Only>
0

> <s_lp_Force_Field>
OPLS_2005

> <r_lp_Energy>
1.4297

> <b_lp_Chiralities_Consistent>
1

> <s_lp_Variant>
AV-unprocessed.smi:1022-2

> <Gold.Version>
5.8.1

> <Gold.Id.Protein>
6NUR|6NUR_protein|mol2

> <Gold.PLP.Fitness>
34.9780

> <Gold.PLP.PLP>
-27.6042

> <Gold.PLP.part.hbond>
-3.0000

> <Gold.PLP.part.metal>
0.0000

> <Gold.PLP.part.buried>
-4.6753

> <Gold.PLP.part.nonpolar>
-20.5576

> <Gold.PLP.part.repulsive>
0.4359

> <Gold.PLP.ligand.clash>
0.0000

> <Gold.PLP.ligand.torsion>
0.7053

> <Gold.PLP.Chemscore.Hbond>
2.8640

> <Gold.PLP.Chemscore.CHOScore>
0.0000

> <Gold.PLP.Chemscore.Metal>
0.0000

> <Gold.Chemscore.Hbonds>
donor molecule, donor type, donor heavy atom, donor atom, acceptor molecule, acceptor atom, score
      L1  H     6    27       P1  7948  0.99
      L1  H     9    28       P1  7948  1.00
      P1  H 10752 10764       L1     2  0.80

> <Gold.PLP.Chemscore.Internal.Correction>
0.1925

> <Gold.Rescore>
     Score         DG    S(hbond)    S(metal)    S(lipo)     H(rot)  DE(clash)    DE(int)     intcor
     14.47     -16.30       2.48        0.00      59.66       1.73       0.07       1.77       ----

> <Gold.Chemscore.Fitness>
14.4684

> <Gold.Chemscore.DG>
-16.3050

> <Gold.Chemscore.ZeroCoef>
-5.4800

> <Gold.Chemscore.Hbond>
2.4784

> <Gold.Chemscore.Metal>
0.0000

> <Gold.Chemscore.Lipo>
59.6624

> <Gold.Chemscore.Internal_Hbond>
0.0000

> <Gold.Chemscore.DEClash>
0.0691

> <Gold.Chemscore.DEInternal>
1.7675

> <Gold.Chemscore.Rot>
1.7318

> <Gold.Chemscore.Internal.Correction>
   9.000000E+99

> <Gold.Chemscore.Hbonds>
donor molecule, donor type, donor heavy atom, donor atom, acceptor molecule, acceptor atom, score
      L1  H     6    27       P1  7948  0.44
      L1  H     9    28       P1  7948  0.25
      P1  H 10752 10764       L1     2  0.59

> <Gold.Chemscore.Hbond.Weighted>
-8.2780

> <Gold.Chemscore.Metal.Weighted>
-0.0000

> <Gold.Chemscore.Lipo.Weighted>
-6.9805

> <Gold.Chemscore.Internal_Hbond.Weighted>
0.0000

> <Gold.Chemscore.DEClash.Weighted>
0.0691

> <Gold.Chemscore.DEInternal.Weighted>
1.7675

> <Gold.Chemscore.Rot.Weighted>
4.4335

> <Gold.Chemscore.Internal.Correction.Weighted>
   9.000000E+99

> <Gold.Protein.RotatedTorsions>
[ 6907 6896 6895 6894 ] final -170.27 input  -60.11 | X-H torsion
[ 7974 7965 7964 7962 ] final -174.74 input  175.53 | X-H torsion
[ 8008 7997 7996 7995 ] final  -18.67 input   59.86 | X-H torsion
[ 10167 10162 10161 10158 ] final  -37.18 input  -65.29 | X-H torsion
[ 10718 10713 10712 10709 ] final  -79.05 input   66.30 | X-H torsion
[ 10763 10752 10751 10750 ] final  -60.49 input  -60.55 | X-H torsion
[ 11005 11000 10999 10996 ] final   28.83 input  -57.11 | X-H torsion

> <Gold.Protein.ActiveResidues>
 VAL166  LYS551  ARG553  GLY616  TRP617  ASP618  TYR619  PRO620  LYS621  CYS622 
 ASP623  PHE694  ASN695  SER759  ASP760  ASP761  ALA762  ILE779  LEU786  VAL792 
 PHE793  MET794  SER795  GLU796  ALA797  LYS798  CYS799  TRP800  GLU811  SER814 

> <Gold.Protein.RotatedAtoms>
  151.5050  133.3496  159.2875 H   0  0  0  0  0  0  0  0  0  0  0  0  # atno 6907 bound_to 6896
  150.8748  134.8131  159.7193 H   0  0  0  0  0  0  0  0  0  0  0  0  # atno 6908 bound_to 6896
  152.4723  134.4939  159.9756 H   0  0  0  0  0  0  0  0  0  0  0  0  # atno 6909 bound_to 6896
  144.7130  140.1426  143.6390 H   0  0  0  0  0  0  0  0  0  0  0  0  # atno 7974 bound_to 7965
  154.4890  140.2109  155.9590 H   0  0  0  0  0  0  0  0  0  0  0  0  # atno 8008 bound_to 7997
  156.1278  140.3202  155.8272 H   0  0  0  0  0  0  0  0  0  0  0  0  # atno 8009 bound_to 7997
  155.4352  140.0506  157.3006 H   0  0  0  0  0  0  0  0  0  0  0  0  # atno 8010 bound_to 7997
  140.7124  143.3359  151.2465 H   0  0  0  0  0  0  0  0  0  0  0  0  # atno 10167 bound_to 10162
  156.0102  130.4535  150.3589 H   0  0  0  0  0  0  0  0  0  0  0  0  # atno 10718 bound_to 10713
  154.2700  135.6292  153.5306 H   0  0  0  0  0  0  0  0  0  0  0  0  # atno 10763 bound_to 10752
  152.9881  135.5608  154.5610 H   0  0  0  0  0  0  0  0  0  0  0  0  # atno 10764 bound_to 10752
  154.5178  135.2880  155.1263 H   0  0  0  0  0  0  0  0  0  0  0  0  # atno 10765 bound_to 10752
  140.3114  134.2646  155.7733 H   0  0  0  0  0  0  0  0  0  0  0  0  # atno 11005 bound_to 11000
  145.9188  139.2532  143.1394 LP  0  0  0  0  0  0  0  0  0  0  0  0  # atno 17320 bound_to 7965
  145.9641  140.8812  143.0195 LP  0  0  0  0  0  0  0  0  0  0  0  0  # atno 17321 bound_to 7965
  139.6853  143.9784  152.2831 LP  0  0  0  0  0  0  0  0  0  0  0  0  # atno 17342 bound_to 10162
  139.9427  144.6671  150.8250 LP  0  0  0  0  0  0  0  0  0  0  0  0  # atno 17343 bound_to 10162
  157.1679  131.0361  151.2810 LP  0  0  0  0  0  0  0  0  0  0  0  0  # atno 17370 bound_to 10713
  157.4255  130.7461  149.6947 LP  0  0  0  0  0  0  0  0  0  0  0  0  # atno 17371 bound_to 10713
  141.2107  133.7710  156.9912 LP  0  0  0  0  0  0  0  0  0  0  0  0  # atno 17394 bound_to 11000
  140.1022  134.9528  157.1940 LP  0  0  0  0  0  0  0  0  0  0  0  0  # atno 17395 bound_to 11000

$$$$
