AV-unprocessed.smi:2966|AV-procd|sdf|11325|dock10
  -GOLD-   2272016233D 1   1.00000     0.00000
 Structure written by MMmdl.
 41 43  0  0  0  0  0  0  0  0  2 V2000
  150.6425  137.9443  154.5072 C   0  0  0  0  0  0  0  0  0  0  0  0
  151.2857  139.2060  154.5301 O   0  0  0  0  0  0  0  0  0  0  0  0
  152.2676  139.2978  155.5494 C   0  0  0  0  0  0  0  0  0  0  0  0
  151.6001  139.6309  156.8906 C   0  0  0  0  0  0  0  0  0  0  0  0
  151.3131  141.0660  157.0296 N   0  0  0  0  0  0  0  0  0  0  0  0
  150.5632  141.8915  156.2489 C   0  0  0  0  0  0  0  0  0  0  0  0
  149.7013  141.4420  154.7790 S   0  0  0  0  0  0  0  0  0  0  0  0
  147.9629  141.8046  155.1519 C   0  0  0  0  0  0  0  0  0  0  0  0
  147.0284  141.4174  154.0069 C   0  0  0  0  0  0  0  0  0  0  0  0
  146.2221  142.2378  153.5692 O   0  0  0  0  0  0  0  0  0  0  0  0
  147.1675  140.1761  153.5188 N   0  0  0  0  0  0  0  0  0  0  0  0
  146.4356  139.6293  152.4233 C   0  0  0  0  0  0  0  0  0  0  0  0
  145.7556  138.2934  152.6300 C   0  0  0  0  0  0  0  0  0  0  0  0
  146.9842  138.3807  151.7672 C   0  0  0  0  0  0  0  0  0  0  0  0
  150.6196  143.1400  156.7867 N   0  3  0  0  0  0  0  0  0  0  0  0
  151.4084  143.1133  157.9379 C   0  0  0  0  0  0  0  0  0  0  0  0
  151.7556  144.1261  158.8267 C   0  0  0  0  0  0  0  0  0  0  0  0
  152.5817  143.7617  159.9101 C   0  0  0  0  0  0  0  0  0  0  0  0
  153.0298  142.4355  160.0785 C   0  0  0  0  0  0  0  0  0  0  0  0
  152.6728  141.4170  159.1704 C   0  0  0  0  0  0  0  0  0  0  0  0
  151.8565  141.7847  158.1011 C   0  0  0  0  0  0  0  0  0  0  0  0
  149.9030  137.9246  153.7068 H   0  0  0  0  0  0  0  0  0  0  0  0
  150.1267  137.7475  155.4479 H   0  0  0  0  0  0  0  0  0  0  0  0
  151.3571  137.1407  154.3245 H   0  0  0  0  0  0  0  0  0  0  0  0
  152.8095  138.3545  155.6324 H   0  0  0  0  0  0  0  0  0  0  0  0
  152.9953  140.0709  155.2969 H   0  0  0  0  0  0  0  0  0  0  0  0
  150.6788  139.0640  157.0234 H   0  0  0  0  0  0  0  0  0  0  0  0
  152.2552  139.3432  157.7127 H   0  0  0  0  0  0  0  0  0  0  0  0
  147.6724  141.2720  156.0579 H   0  0  0  0  0  0  0  0  0  0  0  0
  147.8629  142.8702  155.3614 H   0  0  0  0  0  0  0  0  0  0  0  0
  147.8593  139.5768  153.9456 H   0  0  0  0  0  0  0  0  0  0  0  0
  145.9209  140.3288  151.7659 H   0  0  0  0  0  0  0  0  0  0  0  0
  145.8584  137.8140  153.6017 H   0  0  0  0  0  0  0  0  0  0  0  0
  144.8020  138.1331  152.1309 H   0  0  0  0  0  0  0  0  0  0  0  0
  146.8522  138.2809  150.6918 H   0  0  0  0  0  0  0  0  0  0  0  0
  147.9055  137.9577  152.1638 H   0  0  0  0  0  0  0  0  0  0  0  0
  151.4128  145.1427  158.7009 H   0  0  0  0  0  0  0  0  0  0  0  0
  152.8768  144.5142  160.6271 H   0  0  0  0  0  0  0  0  0  0  0  0
  153.6597  142.1931  160.9222 H   0  0  0  0  0  0  0  0  0  0  0  0
  153.0177  140.4036  159.3126 H   0  0  0  0  0  0  0  0  0  0  0  0
  150.1525  143.9471  156.3945 H   0  0  0  0  0  0  0  0  0  0  0  0
  1  2  1  0  0  0  0
  1 22  1  0  0  0  0
  1 23  1  0  0  0  0
  1 24  1  0  0  0  0
  2  3  1  0  0  0  0
  3  4  1  0  0  0  0
  3 25  1  0  0  0  0
  3 26  1  0  0  0  0
  4  5  1  0  0  0  0
  4 27  1  0  0  0  0
  4 28  1  0  0  0  0
  5 21  1  0  0  0  0
  5  6  1  0  0  0  0
  6  7  1  0  0  0  0
  6 15  2  0  0  0  0
  7  8  1  0  0  0  0
  8  9  1  0  0  0  0
  8 29  1  0  0  0  0
  8 30  1  0  0  0  0
  9 10  2  0  0  0  0
  9 11  1  0  0  0  0
 11 12  1  0  0  0  0
 11 31  1  0  0  0  0
 12 14  1  0  0  0  0
 12 13  1  0  0  0  0
 12 32  1  0  0  0  0
 13 14  1  0  0  0  0
 13 33  1  0  0  0  0
 13 34  1  0  0  0  0
 14 35  1  0  0  0  0
 14 36  1  0  0  0  0
 15 16  1  0  0  0  0
 15 41  1  0  0  0  0
 16 21  2  0  0  0  0
 16 17  1  0  0  0  0
 17 18  2  0  0  0  0
 17 37  1  0  0  0  0
 18 19  1  0  0  0  0
 18 38  1  0  0  0  0
 19 20  2  0  0  0  0
 19 39  1  0  0  0  0
 20 21  1  0  0  0  0
 20 40  1  0  0  0  0
M  CHG  1  15   1
M  END
> <s_m_source_file>
AV-unprocessed.smi

> <i_m_source_file_index>
2966

> <i_lp_mmshare_version>
43012

> <i_f3d_flags>
0

> <s_epik_input>
W2NIXTFbY0hdW2NIXVtjSF1jKGMxMiluKFtDSDJdW0NIMl1PW0NIM10pYyhuMilTW0NIMl1DKD1PKVtOSF1bQ0hdM1tDSDJdW0NIMl0z

> <s_epik_cmdline>
J2VwaWtfcHl0aG9uJywgJy1waCcsICc3LjAnLCAnLXRuJywgJzgnLCAnLW1hJywgJzIwMCcsICctbWV0YWxfYmluZGluZycsICctaW1hZScsICc8aW5maWxlLm1hZT4nLCAnLW9tYWUnLCAnPG91dGZpbGUubWFlPic=

> <r_epik_Ionization_Penalty>
1.66257

> <r_epik_Ionization_Penalty_Charging>
1.66257

> <r_epik_Ionization_Penalty_Neutral>
8.69326e-08

> <r_epik_State_Penalty>
1.76557

> <r_epik_Charging_Adjusted_Penalty>
3.42813

> <i_epik_Tot_Q>
1

> <i_epik_Tot_abs_Q>
1

> <r_epik_Metal_State_Penalty>
1.80073

> <b_epik_Metal_Only>
0

> <s_lp_Force_Field>
OPLS_2005

> <r_lp_Energy>
20.3811

> <b_lp_Chiralities_Consistent>
1

> <s_lp_Variant>
AV-unprocessed.smi:2966-2

> <Gold.Version>
5.8.1

> <Gold.Id.Protein>
6NUR|6NUR_protein|mol2

> <Gold.PLP.Fitness>
50.4159

> <Gold.PLP.PLP>
-42.2270

> <Gold.PLP.part.hbond>
-2.0111

> <Gold.PLP.part.metal>
0.0000

> <Gold.PLP.part.buried>
5.0020

> <Gold.PLP.part.nonpolar>
-44.9974

> <Gold.PLP.part.repulsive>
0.3969

> <Gold.PLP.ligand.clash>
0.0000

> <Gold.PLP.ligand.torsion>
0.4513

> <Gold.PLP.Chemscore.Hbond>
3.0000

> <Gold.PLP.Chemscore.CHOScore>
0.0000

> <Gold.PLP.Chemscore.Metal>
0.0000

> <Gold.Chemscore.Hbonds>
donor molecule, donor type, donor heavy atom, donor atom, acceptor molecule, acceptor atom, score
      L1  H    15    41       P1  8028  2.00
      P1  H  7989  7998       L1     2  1.00

> <Gold.PLP.Chemscore.Internal.Correction>
0.0914

> <Gold.Rescore>
     Score         DG    S(hbond)    S(metal)    S(lipo)     H(rot)  DE(clash)    DE(int)     intcor
     16.26     -20.07       1.81        0.00     121.39       2.21       2.11       1.70       ----

> <Gold.Chemscore.Fitness>
16.2608

> <Gold.Chemscore.DG>
-20.0727

> <Gold.Chemscore.ZeroCoef>
-5.4800

> <Gold.Chemscore.Hbond>
1.8145

> <Gold.Chemscore.Metal>
0.0000

> <Gold.Chemscore.Lipo>
121.3876

> <Gold.Chemscore.Internal_Hbond>
0.0000

> <Gold.Chemscore.DEClash>
2.1149

> <Gold.Chemscore.DEInternal>
1.6971

> <Gold.Chemscore.Rot>
2.2149

> <Gold.Chemscore.Internal.Correction>
   9.000000E+99

> <Gold.Chemscore.Hbonds>
donor molecule, donor type, donor heavy atom, donor atom, acceptor molecule, acceptor atom, score
      L1  H    15    41       P1  8028  0.98
      P1  H  7989  7998       L1     2  0.29

> <Gold.Chemscore.Hbond.Weighted>
-6.0604

> <Gold.Chemscore.Metal.Weighted>
-0.0000

> <Gold.Chemscore.Lipo.Weighted>
-14.2023

> <Gold.Chemscore.Internal_Hbond.Weighted>
0.0000

> <Gold.Chemscore.DEClash.Weighted>
2.1149

> <Gold.Chemscore.DEInternal.Weighted>
1.6971

> <Gold.Chemscore.Rot.Weighted>
5.6700

> <Gold.Chemscore.Internal.Correction.Weighted>
   9.000000E+99

> <Gold.Protein.RotatedTorsions>
[ 6907 6896 6895 6894 ] final  -71.84 input  -60.11 | X-H torsion
[ 7974 7965 7964 7962 ] final -156.98 input  175.53 | X-H torsion
[ 8008 7997 7996 7995 ] final  -63.57 input   59.86 | X-H torsion
[ 10167 10162 10161 10158 ] final  127.75 input  -65.29 | X-H torsion
[ 10718 10713 10712 10709 ] final -122.30 input   66.30 | X-H torsion
[ 10763 10752 10751 10750 ] final -171.65 input  -60.55 | X-H torsion
[ 11005 11000 10999 10996 ] final   10.95 input  -57.11 | X-H torsion

> <Gold.Protein.ActiveResidues>
 VAL166  LYS551  ARG553  GLY616  TRP617  ASP618  TYR619  PRO620  LYS621  CYS622 
 ASP623  PHE694  ASN695  SER759  ASP760  ASP761  ALA762  ILE779  LEU786  VAL792 
 PHE793  MET794  SER795  GLU796  ALA797  LYS798  CYS799  TRP800  GLU811  SER814 

> <Gold.Protein.RotatedAtoms>
  150.7195  134.5250  159.5671 H   0  0  0  0  0  0  0  0  0  0  0  0  # atno 6907 bound_to 6896
  152.2796  134.7840  160.0408 H   0  0  0  0  0  0  0  0  0  0  0  0  # atno 6908 bound_to 6896
  151.8491  133.3401  159.3704 H   0  0  0  0  0  0  0  0  0  0  0  0  # atno 6909 bound_to 6896
  144.7568  140.4033  143.6006 H   0  0  0  0  0  0  0  0  0  0  0  0  # atno 7974 bound_to 7965
  154.4562  140.0972  156.6763 H   0  0  0  0  0  0  0  0  0  0  0  0  # atno 8008 bound_to 7997
  155.5132  140.3477  155.4374 H   0  0  0  0  0  0  0  0  0  0  0  0  # atno 8009 bound_to 7997
  156.0781  140.1366  156.9735 H   0  0  0  0  0  0  0  0  0  0  0  0  # atno 8010 bound_to 7997
  139.5562  144.6850  151.4175 H   0  0  0  0  0  0  0  0  0  0  0  0  # atno 10167 bound_to 10162
  156.1408  130.6464  150.9767 H   0  0  0  0  0  0  0  0  0  0  0  0  # atno 10718 bound_to 10713
  154.6281  135.2883  155.0248 H   0  0  0  0  0  0  0  0  0  0  0  0  # atno 10763 bound_to 10752
  154.1418  135.6517  153.4948 H   0  0  0  0  0  0  0  0  0  0  0  0  # atno 10764 bound_to 10752
  153.0267  135.5335  154.7098 H   0  0  0  0  0  0  0  0  0  0  0  0  # atno 10765 bound_to 10752
  140.5087  134.0673  155.7812 H   0  0  0  0  0  0  0  0  0  0  0  0  # atno 11005 bound_to 11000
  145.6751  139.1607  143.2732 LP  0  0  0  0  0  0  0  0  0  0  0  0  # atno 17320 bound_to 7965
  146.1588  140.6818  142.9287 LP  0  0  0  0  0  0  0  0  0  0  0  0  # atno 17321 bound_to 7965
  140.6835  143.8027  150.7154 LP  0  0  0  0  0  0  0  0  0  0  0  0  # atno 17342 bound_to 10162
  140.1488  143.4376  152.2145 LP  0  0  0  0  0  0  0  0  0  0  0  0  # atno 17343 bound_to 10162
  157.6573  131.0887  150.7917 LP  0  0  0  0  0  0  0  0  0  0  0  0  # atno 17370 bound_to 10713
  156.7993  130.4916  149.5372 LP  0  0  0  0  0  0  0  0  0  0  0  0  # atno 17371 bound_to 10713
  141.1397  133.9160  157.2354 LP  0  0  0  0  0  0  0  0  0  0  0  0  # atno 17394 bound_to 11000
  139.9671  135.0139  156.9415 LP  0  0  0  0  0  0  0  0  0  0  0  0  # atno 17395 bound_to 11000

$$$$
