AV-unprocessed.smi:3287|AV-procd|sdf|12592|dock4
  -GOLD-   2272018513D 1   1.00000     0.00000
 Structure written by MMmdl.
 43 44  0  0  0  0  0  0  0  0  2 V2000
  144.8958  132.7349  149.6514 C   0  0  0  0  0  0  0  0  0  0  0  0
  144.7836  133.6522  150.8824 C   0  0  2  0  0  0  0  0  0  0  0  0
  144.1909  135.0139  150.4667 C   0  0  0  0  0  0  0  0  0  0  0  0
  144.0490  135.9760  151.6573 C   0  0  0  0  0  0  0  0  0  0  0  0
  145.3825  136.1824  152.3949 C   0  0  2  0  0  0  0  0  0  0  0  0
  146.3168  136.9754  151.5627 N   0  3  0  0  0  0  0  0  0  0  0  0
  146.4842  138.3900  151.9605 C   0  0  0  0  0  0  0  0  0  0  0  0
  146.5782  138.5333  153.4892 C   0  0  2  0  0  0  0  0  0  0  0  0
  145.3269  138.9740  153.9809 O   0  0  0  0  0  0  0  0  0  0  0  0
  147.7034  139.4770  153.8834 C   0  0  0  0  0  0  0  0  0  0  0  0
  147.5269  140.8741  153.7997 C   0  0  0  0  0  0  0  0  0  0  0  0
  148.5935  141.7123  154.1818 C   0  0  0  0  0  0  0  0  0  0  0  0
  149.7795  141.2464  154.6280 N   0  0  0  0  0  0  0  0  0  0  0  0
  149.9429  139.9086  154.7089 C   0  0  0  0  0  0  0  0  0  0  0  0
  148.9408  138.9843  154.3525 C   0  0  0  0  0  0  0  0  0  0  0  0
  145.9745  134.8185  152.8073 C   0  0  0  0  0  0  0  0  0  0  0  0
  146.1357  133.8449  151.6190 C   0  0  1  0  0  0  0  0  0  0  0  0
  146.7440  132.5197  152.1116 C   0  0  0  0  0  0  0  0  0  0  0  0
  145.6409  133.1047  148.9465 H   0  0  0  0  0  0  0  0  0  0  0  0
  143.9439  132.6714  149.1234 H   0  0  0  0  0  0  0  0  0  0  0  0
  145.1700  131.7172  149.9276 H   0  0  0  0  0  0  0  0  0  0  0  0
  144.0827  133.1849  151.5761 H   0  0  0  0  0  0  0  0  0  0  0  0
  144.8189  135.4695  149.6999 H   0  0  0  0  0  0  0  0  0  0  0  0
  143.2125  134.8669  150.0075 H   0  0  0  0  0  0  0  0  0  0  0  0
  143.6502  136.9335  151.3201 H   0  0  0  0  0  0  0  0  0  0  0  0
  143.3135  135.5711  152.3540 H   0  0  0  0  0  0  0  0  0  0  0  0
  145.1759  136.7631  153.2952 H   0  0  0  0  0  0  0  0  0  0  0  0
  147.2212  136.5250  151.5712 H   0  0  0  0  0  0  0  0  0  0  0  0
  147.3953  138.7742  151.4998 H   0  0  0  0  0  0  0  0  0  0  0  0
  145.6574  138.9919  151.5832 H   0  0  0  0  0  0  0  0  0  0  0  0
  146.7770  137.5563  153.9323 H   0  0  0  0  0  0  0  0  0  0  0  0
  145.0055  139.6583  153.4129 H   0  0  0  0  0  0  0  0  0  0  0  0
  146.5972  141.3006  153.4519 H   0  0  0  0  0  0  0  0  0  0  0  0
  148.4898  142.7861  154.1287 H   0  0  0  0  0  0  0  0  0  0  0  0
  150.9002  139.5635  155.0703 H   0  0  0  0  0  0  0  0  0  0  0  0
  149.1231  137.9230  154.4400 H   0  0  0  0  0  0  0  0  0  0  0  0
  146.9283  134.9512  153.3170 H   0  0  0  0  0  0  0  0  0  0  0  0
  145.3137  134.3634  153.5467 H   0  0  0  0  0  0  0  0  0  0  0  0
  146.8460  134.2854  150.9179 H   0  0  0  0  0  0  0  0  0  0  0  0
  146.0542  131.9842  152.7644 H   0  0  0  0  0  0  0  0  0  0  0  0
  147.6615  132.6952  152.6737 H   0  0  0  0  0  0  0  0  0  0  0  0
  147.0042  131.8604  151.2842 H   0  0  0  0  0  0  0  0  0  0  0  0
  145.9673  136.9685  150.6151 H   0  0  0  0  0  0  0  0  0  0  0  0
  1  2  1  0  0  0  0
  1 19  1  0  0  0  0
  1 20  1  0  0  0  0
  1 21  1  0  0  0  0
  2 17  1  0  0  0  0
  2  3  1  0  0  0  0
  2 22  1  0  0  0  0
  3  4  1  0  0  0  0
  3 23  1  0  0  0  0
  3 24  1  0  0  0  0
  4  5  1  0  0  0  0
  4 25  1  0  0  0  0
  4 26  1  0  0  0  0
  5  6  1  0  0  0  0
  5 16  1  0  0  0  0
  5 27  1  0  0  0  0
  6  7  1  0  0  0  0
  6 28  1  0  0  0  0
  6 43  1  0  0  0  0
  7  8  1  0  0  0  0
  7 29  1  0  0  0  0
  7 30  1  0  0  0  0
  8  9  1  0  0  0  0
  8 10  1  0  0  0  0
  8 31  1  0  0  0  0
  9 32  1  0  0  0  0
 10 15  1  0  0  0  0
 10 11  2  0  0  0  0
 11 12  1  0  0  0  0
 11 33  1  0  0  0  0
 12 13  2  0  0  0  0
 12 34  1  0  0  0  0
 13 14  1  0  0  0  0
 14 15  2  0  0  0  0
 14 35  1  0  0  0  0
 15 36  1  0  0  0  0
 16 17  1  0  0  0  0
 16 37  1  0  0  0  0
 16 38  1  0  0  0  0
 17 18  1  0  0  0  0
 17 39  1  0  0  0  0
 18 40  1  0  0  0  0
 18 41  1  0  0  0  0
 18 42  1  0  0  0  0
M  CHG  1   6   1
M  END
> <s_m_source_file>
AV-unprocessed.smi

> <i_m_source_file_index>
3287

> <i_lp_mmshare_version>
43012

> <i_f3d_flags>
0

> <s_epik_input>
W0NIM11bQ0BASF0xW0NIMl1bQ0gyXVtDQEhdKFtDSDJdW0NASF0xW0NIM10pW05IXVtDSDJdW0NASF0oW09IXSljMltjSF1bY0hdbltjSF1bY0hdMg==

> <s_epik_cmdline>
J2VwaWtfcHl0aG9uJywgJy1waCcsICc3LjAnLCAnLXRuJywgJzgnLCAnLW1hJywgJzIwMCcsICctbWV0YWxfYmluZGluZycsICctaW1hZScsICc8aW5maWxlLm1hZT4nLCAnLW9tYWUnLCAnPG91dGZpbGUubWFlPic=

> <r_lp_tautomer_probability>
1

> <r_epik_Ionization_Penalty>
0.00537262

> <r_epik_Ionization_Penalty_Charging>
0.00321624

> <r_epik_Ionization_Penalty_Neutral>
0.00215638

> <r_epik_State_Penalty>
-0

> <r_epik_Charging_Adjusted_Penalty>
0.00321624

> <i_epik_Tot_Q>
1

> <i_epik_Tot_abs_Q>
1

> <r_epik_Metal_State_Penalty>
-0

> <b_epik_Metal_Only>
0

> <s_lp_Force_Field>
OPLS_2005

> <r_lp_Energy>
19.3861

> <b_lp_Chiralities_Consistent>
1

> <s_lp_Variant>
AV-unprocessed.smi:3287-3

> <Gold.Version>
5.8.1

> <Gold.Id.Protein>
6NUR|6NUR_protein|mol2

> <Gold.PLP.Fitness>
43.6671

> <Gold.PLP.PLP>
-35.2609

> <Gold.PLP.part.hbond>
-3.0751

> <Gold.PLP.part.metal>
0.0000

> <Gold.PLP.part.buried>
-1.5554

> <Gold.PLP.part.nonpolar>
-30.8335

> <Gold.PLP.part.repulsive>
0.2268

> <Gold.PLP.ligand.clash>
0.0000

> <Gold.PLP.ligand.torsion>
1.8126

> <Gold.PLP.Chemscore.Hbond>
3.0000

> <Gold.PLP.Chemscore.CHOScore>
1.0000

> <Gold.PLP.Chemscore.Metal>
0.0000

> <Gold.Chemscore.Hbonds>
donor molecule, donor type, donor heavy atom, donor atom, acceptor molecule, acceptor atom, score
      L1  H     6    28       P1  7948  2.00
      L1  H     9    32       P1 10175  1.00
      L1  C    12    34       P1  8028  1.00

> <Gold.PLP.Chemscore.Internal.Correction>
0.0313

> <Gold.Rescore>
     Score         DG    S(hbond)    S(metal)    S(lipo)     H(rot)  DE(clash)    DE(int)     intcor
     16.45     -18.29       1.99        0.00      94.25       1.90       0.06       1.78       ----

> <Gold.Chemscore.Fitness>
16.4519

> <Gold.Chemscore.DG>
-18.2910

> <Gold.Chemscore.ZeroCoef>
-5.4800

> <Gold.Chemscore.Hbond>
1.9929

> <Gold.Chemscore.Metal>
0.0000

> <Gold.Chemscore.Lipo>
94.2543

> <Gold.Chemscore.Internal_Hbond>
0.0000

> <Gold.Chemscore.DEClash>
0.0594

> <Gold.Chemscore.DEInternal>
1.7797

> <Gold.Chemscore.Rot>
1.9035

> <Gold.Chemscore.Internal.Correction>
   9.000000E+99

> <Gold.Chemscore.Hbonds>
donor molecule, donor type, donor heavy atom, donor atom, acceptor molecule, acceptor atom, score
      L1  H     6    28       P1  7948  1.00
      L1  H     9    32       P1 10175  0.96

> <Gold.Chemscore.Hbond.Weighted>
-6.6561

> <Gold.Chemscore.Metal.Weighted>
-0.0000

> <Gold.Chemscore.Lipo.Weighted>
-11.0277

> <Gold.Chemscore.Internal_Hbond.Weighted>
0.0000

> <Gold.Chemscore.DEClash.Weighted>
0.0594

> <Gold.Chemscore.DEInternal.Weighted>
1.7797

> <Gold.Chemscore.Rot.Weighted>
4.8729

> <Gold.Chemscore.Internal.Correction.Weighted>
   9.000000E+99

> <Gold.Protein.RotatedTorsions>
[ 6907 6896 6895 6894 ] final -151.04 input  -60.11 | X-H torsion
[ 7974 7965 7964 7962 ] final  142.95 input  175.53 | X-H torsion
[ 8008 7997 7996 7995 ] final  -72.67 input   59.86 | X-H torsion
[ 10167 10162 10161 10158 ] final   21.23 input  -65.29 | X-H torsion
[ 10718 10713 10712 10709 ] final   -6.45 input   66.30 | X-H torsion
[ 10763 10752 10751 10750 ] final  153.59 input  -60.55 | X-H torsion
[ 11005 11000 10999 10996 ] final  -36.89 input  -57.11 | X-H torsion

> <Gold.Protein.ActiveResidues>
 VAL166  LYS551  ARG553  GLY616  TRP617  ASP618  TYR619  PRO620  LYS621  CYS622 
 ASP623  PHE694  ASN695  SER759  ASP760  ASP761  ALA762  ILE779  LEU786  VAL792 
 PHE793  MET794  SER795  GLU796  ALA797  LYS798  CYS799  TRP800  GLU811  SER814 

> <Gold.Protein.RotatedAtoms>
  151.2072  133.4576  159.2597 H   0  0  0  0  0  0  0  0  0  0  0  0  # atno 6907 bound_to 6896
  151.1011  134.9973  159.8459 H   0  0  0  0  0  0  0  0  0  0  0  0  # atno 6908 bound_to 6896
  152.5443  134.1999  159.8761 H   0  0  0  0  0  0  0  0  0  0  0  0  # atno 6909 bound_to 6896
  144.8963  139.5486  143.5775 H   0  0  0  0  0  0  0  0  0  0  0  0  # atno 7974 bound_to 7965
  154.5185  140.0793  156.8126 H   0  0  0  0  0  0  0  0  0  0  0  0  # atno 8008 bound_to 7997
  155.3629  140.3419  155.4223 H   0  0  0  0  0  0  0  0  0  0  0  0  # atno 8009 bound_to 7997
  156.1654  140.1602  156.8527 H   0  0  0  0  0  0  0  0  0  0  0  0  # atno 8010 bound_to 7997
  140.5443  143.9622  150.6538 H   0  0  0  0  0  0  0  0  0  0  0  0  # atno 10167 bound_to 10162
  156.7317  130.5182  149.5844 H   0  0  0  0  0  0  0  0  0  0  0  0  # atno 10718 bound_to 10713
  154.1387  135.2822  155.3166 H   0  0  0  0  0  0  0  0  0  0  0  0  # atno 10763 bound_to 10752
  154.6303  135.5437  153.7676 H   0  0  0  0  0  0  0  0  0  0  0  0  # atno 10764 bound_to 10752
  153.0258  135.6461  154.1534 H   0  0  0  0  0  0  0  0  0  0  0  0  # atno 10765 bound_to 10752
  140.9910  133.7005  156.1849 H   0  0  0  0  0  0  0  0  0  0  0  0  # atno 11005 bound_to 11000
  146.3083  139.7656  142.9039 LP  0  0  0  0  0  0  0  0  0  0  0  0  # atno 17320 bound_to 7965
  145.3695  141.0340  143.3239 LP  0  0  0  0  0  0  0  0  0  0  0  0  # atno 17321 bound_to 7965
  140.3031  143.3247  152.0952 LP  0  0  0  0  0  0  0  0  0  0  0  0  # atno 17342 bound_to 10162
  139.5001  144.6684  151.6301 LP  0  0  0  0  0  0  0  0  0  0  0  0  # atno 17343 bound_to 10162
  156.1524  130.6319  151.0613 LP  0  0  0  0  0  0  0  0  0  0  0  0  # atno 17370 bound_to 10713
  157.6856  131.0826  150.7252 LP  0  0  0  0  0  0  0  0  0  0  0  0  # atno 17371 bound_to 10713
  140.7040  134.4533  157.5585 LP  0  0  0  0  0  0  0  0  0  0  0  0  # atno 17394 bound_to 11000
  139.8992  134.8596  156.1969 LP  0  0  0  0  0  0  0  0  0  0  0  0  # atno 17395 bound_to 11000

$$$$
