AV-unprocessed.smi:2278|AV-procd|sdf|9182|dock7
  -GOLD-   2272012403D 1   1.00000     0.00000
 Structure written by MMmdl.
 46 47  0  0  0  0  0  0  0  0  2 V2000
  151.9005  145.1112  159.3494 C   0  0  0  0  0  0  0  0  0  0  0  0
  151.8085  143.6863  158.8332 C   0  0  0  0  0  0  0  0  0  0  0  0
  151.0776  143.5172  157.6535 N   0  0  0  0  0  0  0  0  0  0  0  0
  150.9450  142.3382  157.1399 C   0  0  0  0  0  0  0  0  0  0  0  0
  151.5191  141.2048  157.7383 N   0  0  0  0  0  0  0  0  0  0  0  0
  151.2836  139.9173  157.0640 C   0  0  0  0  0  0  0  0  0  0  0  0
  151.4041  140.0360  155.5276 C   0  0  1  0  0  0  0  0  0  0  0  0
  152.7101  139.6448  155.1517 O   0  0  0  0  0  0  0  0  0  0  0  0
  150.4173  139.0959  154.8054 C   0  0  0  0  0  0  0  0  0  0  0  0
  149.2821  139.8311  154.1912 N   0  3  2  0  0  0  0  0  0  0  0  0
  148.9133  141.0673  154.9311 C   0  0  0  0  0  0  0  0  0  0  0  0
  147.8329  141.8630  154.1773 C   0  0  0  0  0  0  0  0  0  0  0  0
  146.5814  141.0150  153.8863 C   0  0  2  0  0  0  0  0  0  0  0  0
  145.7226  140.7719  155.1398 C   0  0  0  0  0  0  0  0  0  0  0  0
  147.0000  139.7081  153.1883 C   0  0  0  0  0  0  0  0  0  0  0  0
  148.1015  138.9601  153.9611 C   0  0  0  0  0  0  0  0  0  0  0  0
  152.2443  141.2803  158.8919 C   0  0  0  0  0  0  0  0  0  0  0  0
  152.7311  140.2753  159.4143 O   0  0  0  0  0  0  0  0  0  0  0  0
  152.3895  142.6288  159.4627 C   0  0  0  0  0  0  0  0  0  0  0  0
  153.1952  142.7511  160.7500 C   0  0  0  0  0  0  0  0  0  0  0  0
  152.9413  145.4304  159.4090 H   0  0  0  0  0  0  0  0  0  0  0  0
  151.4544  145.1872  160.3415 H   0  0  0  0  0  0  0  0  0  0  0  0
  151.3754  145.8065  158.6930 H   0  0  0  0  0  0  0  0  0  0  0  0
  150.3822  142.1529  156.2233 H   0  0  0  0  0  0  0  0  0  0  0  0
  151.9314  139.1235  157.4427 H   0  0  0  0  0  0  0  0  0  0  0  0
  150.2781  139.5830  157.3266 H   0  0  0  0  0  0  0  0  0  0  0  0
  151.2397  141.0664  155.2150 H   0  0  0  0  0  0  0  0  0  0  0  0
  152.6958  138.7295  154.9152 H   0  0  0  0  0  0  0  0  0  0  0  0
  150.9634  138.5402  154.0412 H   0  0  0  0  0  0  0  0  0  0  0  0
  150.0215  138.3488  155.4952 H   0  0  0  0  0  0  0  0  0  0  0  0
  148.5658  140.8065  155.9317 H   0  0  0  0  0  0  0  0  0  0  0  0
  149.7864  141.7047  155.0651 H   0  0  0  0  0  0  0  0  0  0  0  0
  147.5619  142.7554  154.7426 H   0  0  0  0  0  0  0  0  0  0  0  0
  148.2508  142.2186  153.2344 H   0  0  0  0  0  0  0  0  0  0  0  0
  145.9578  141.5761  153.1891 H   0  0  0  0  0  0  0  0  0  0  0  0
  146.2595  140.2131  155.9059 H   0  0  0  0  0  0  0  0  0  0  0  0
  144.8222  140.2090  154.8924 H   0  0  0  0  0  0  0  0  0  0  0  0
  145.4046  141.7159  155.5832 H   0  0  0  0  0  0  0  0  0  0  0  0
  146.1342  139.0599  153.0483 H   0  0  0  0  0  0  0  0  0  0  0  0
  147.3671  139.9405  152.1876 H   0  0  0  0  0  0  0  0  0  0  0  0
  148.4007  138.0828  153.3861 H   0  0  0  0  0  0  0  0  0  0  0  0
  147.7219  138.5947  154.9162 H   0  0  0  0  0  0  0  0  0  0  0  0
  152.7406  142.1480  161.5365 H   0  0  0  0  0  0  0  0  0  0  0  0
  153.2627  143.7730  161.1193 H   0  0  0  0  0  0  0  0  0  0  0  0
  154.2125  142.3911  160.5926 H   0  0  0  0  0  0  0  0  0  0  0  0
  149.5999  140.1174  153.2759 H   0  0  0  0  0  0  0  0  0  0  0  0
  1  2  1  0  0  0  0
  1 21  1  0  0  0  0
  1 22  1  0  0  0  0
  1 23  1  0  0  0  0
  2 19  2  0  0  0  0
  2  3  1  0  0  0  0
  3  4  2  0  0  0  0
  4  5  1  0  0  0  0
  4 24  1  0  0  0  0
  5  6  1  0  0  0  0
  5 17  1  0  0  0  0
  6  7  1  0  0  0  0
  6 25  1  0  0  0  0
  6 26  1  0  0  0  0
  7  8  1  0  0  0  0
  7  9  1  0  0  0  0
  7 27  1  0  0  0  0
  8 28  1  0  0  0  0
  9 10  1  0  0  0  0
  9 29  1  0  0  0  0
  9 30  1  0  0  0  0
 10 16  1  0  0  0  0
 10 11  1  0  0  0  0
 10 46  1  0  0  0  0
 11 12  1  0  0  0  0
 11 31  1  0  0  0  0
 11 32  1  0  0  0  0
 12 13  1  0  0  0  0
 12 33  1  0  0  0  0
 12 34  1  0  0  0  0
 13 14  1  0  0  0  0
 13 15  1  0  0  0  0
 13 35  1  0  0  0  0
 14 36  1  0  0  0  0
 14 37  1  0  0  0  0
 14 38  1  0  0  0  0
 15 16  1  0  0  0  0
 15 39  1  0  0  0  0
 15 40  1  0  0  0  0
 16 41  1  0  0  0  0
 16 42  1  0  0  0  0
 17 18  2  0  0  0  0
 17 19  1  0  0  0  0
 19 20  1  0  0  0  0
 20 43  1  0  0  0  0
 20 44  1  0  0  0  0
 20 45  1  0  0  0  0
M  CHG  1  10   1
M  END
> <s_m_source_file>
AV-unprocessed.smi

> <i_m_source_file_index>
2278

> <i_lp_mmshare_version>
43012

> <i_f3d_flags>
0

> <s_epik_input>
W0NIM11jMW5bY0hdbihjKD1PKWMxW0NIM10pW0NIMl1bQ0BIXShbT0hdKVtDSDJdTjJbQ0gyXVtDSDJdW0NIXShbQ0gzXSlbQ0gyXVtDSDJdMg==

> <s_epik_cmdline>
J2VwaWtfcHl0aG9uJywgJy1waCcsICc3LjAnLCAnLXRuJywgJzgnLCAnLW1hJywgJzIwMCcsICctbWV0YWxfYmluZGluZycsICctaW1hZScsICc8aW5maWxlLm1hZT4nLCAnLW9tYWUnLCAnPG91dGZpbGUubWFlPic=

> <r_lp_tautomer_probability>
1

> <r_epik_Ionization_Penalty>
0.00139489

> <r_epik_Ionization_Penalty_Charging>
0.00136819

> <r_epik_Ionization_Penalty_Neutral>
2.66975e-05

> <r_epik_State_Penalty>
0.000910892

> <r_epik_Charging_Adjusted_Penalty>
0.00227908

> <i_epik_Tot_Q>
1

> <i_epik_Tot_abs_Q>
1

> <r_epik_Metal_State_Penalty>
-0

> <b_epik_Metal_Only>
0

> <s_lp_Force_Field>
OPLS_2005

> <r_lp_Energy>
31.1112

> <b_lp_Chiralities_Consistent>
1

> <s_lp_Variant>
AV-unprocessed.smi:2278-4

> <Gold.Version>
5.8.1

> <Gold.Id.Protein>
6NUR|6NUR_protein|mol2

> <Gold.PLP.Fitness>
48.9457

> <Gold.PLP.PLP>
-46.2771

> <Gold.PLP.part.hbond>
-3.0000

> <Gold.PLP.part.metal>
0.0000

> <Gold.PLP.part.buried>
-2.7457

> <Gold.PLP.part.nonpolar>
-39.7519

> <Gold.PLP.part.repulsive>
0.2690

> <Gold.PLP.ligand.clash>
0.0000

> <Gold.PLP.ligand.torsion>
1.6845

> <Gold.PLP.Chemscore.Hbond>
1.9920

> <Gold.PLP.Chemscore.CHOScore>
0.0000

> <Gold.PLP.Chemscore.Metal>
0.0000

> <Gold.Chemscore.Hbonds>
donor molecule, donor type, donor heavy atom, donor atom, acceptor molecule, acceptor atom, score
      L1  H    10    46       P1  7957  0.78
      P1  H  7997  8010       L1     8  1.00

> <Gold.PLP.Chemscore.Internal.Correction>
0.0616

> <Gold.Rescore>
     Score         DG    S(hbond)    S(metal)    S(lipo)     H(rot)  DE(clash)    DE(int)     intcor
     16.44     -18.35       1.81        0.00     106.57       2.20       0.21       1.71       ----

> <Gold.Chemscore.Fitness>
16.4366

> <Gold.Chemscore.DG>
-18.3534

> <Gold.Chemscore.ZeroCoef>
-5.4800

> <Gold.Chemscore.Hbond>
1.8064

> <Gold.Chemscore.Metal>
0.0000

> <Gold.Chemscore.Lipo>
106.5678

> <Gold.Chemscore.Internal_Hbond>
0.0000

> <Gold.Chemscore.DEClash>
0.2055

> <Gold.Chemscore.DEInternal>
1.7114

> <Gold.Chemscore.Rot>
2.1986

> <Gold.Chemscore.Internal.Correction>
   9.000000E+99

> <Gold.Chemscore.Hbonds>
donor molecule, donor type, donor heavy atom, donor atom, acceptor molecule, acceptor atom, score
      L1  H    10    46       P1  7957  0.77
      P1  H  7997  8010       L1     8  0.84

> <Gold.Chemscore.Hbond.Weighted>
-6.0335

> <Gold.Chemscore.Metal.Weighted>
-0.0000

> <Gold.Chemscore.Lipo.Weighted>
-12.4684

> <Gold.Chemscore.Internal_Hbond.Weighted>
0.0000

> <Gold.Chemscore.DEClash.Weighted>
0.2055

> <Gold.Chemscore.DEInternal.Weighted>
1.7114

> <Gold.Chemscore.Rot.Weighted>
5.6285

> <Gold.Chemscore.Internal.Correction.Weighted>
   9.000000E+99

> <Gold.Protein.RotatedTorsions>
[ 6907 6896 6895 6894 ] final  -89.17 input  -60.11 | X-H torsion
[ 7974 7965 7964 7962 ] final  -73.75 input  175.53 | X-H torsion
[ 8008 7997 7996 7995 ] final   95.34 input   59.86 | X-H torsion
[ 10167 10162 10161 10158 ] final    8.45 input  -65.29 | X-H torsion
[ 10718 10713 10712 10709 ] final   30.54 input   66.30 | X-H torsion
[ 10763 10752 10751 10750 ] final -149.25 input  -60.55 | X-H torsion
[ 11005 11000 10999 10996 ] final  -66.65 input  -57.11 | X-H torsion

> <Gold.Protein.ActiveResidues>
 VAL166  LYS551  ARG553  GLY616  TRP617  ASP618  TYR619  PRO620  LYS621  CYS622 
 ASP623  PHE694  ASN695  SER759  ASP760  ASP761  ALA762  ILE779  LEU786  VAL792 
 PHE793  MET794  SER795  GLU796  ALA797  LYS798  CYS799  TRP800  GLU811  SER814 

> <Gold.Protein.RotatedAtoms>
  150.6872  134.2628  159.4555 H   0  0  0  0  0  0  0  0  0  0  0  0  # atno 6907 bound_to 6896
  152.0556  134.9624  160.0584 H   0  0  0  0  0  0  0  0  0  0  0  0  # atno 6908 bound_to 6896
  152.1071  133.4246  159.4650 H   0  0  0  0  0  0  0  0  0  0  0  0  # atno 6909 bound_to 6896
  145.6480  140.9291  143.1000 H   0  0  0  0  0  0  0  0  0  0  0  0  # atno 7974 bound_to 7965
  156.0678  140.3288  155.7539 H   0  0  0  0  0  0  0  0  0  0  0  0  # atno 8008 bound_to 7997
  155.5353  140.0597  157.2898 H   0  0  0  0  0  0  0  0  0  0  0  0  # atno 8009 bound_to 7997
  154.4514  140.1920  156.0525 H   0  0  0  0  0  0  0  0  0  0  0  0  # atno 8010 bound_to 7997
  140.6313  143.7987  150.7299 H   0  0  0  0  0  0  0  0  0  0  0  0  # atno 10167 bound_to 10162
  157.2609  130.7161  149.6453 H   0  0  0  0  0  0  0  0  0  0  0  0  # atno 10718 bound_to 10713
  154.8188  135.3314  154.7099 H   0  0  0  0  0  0  0  0  0  0  0  0  # atno 10763 bound_to 10752
  153.7735  135.6924  153.4906 H   0  0  0  0  0  0  0  0  0  0  0  0  # atno 10764 bound_to 10752
  153.2028  135.4510  155.0235 H   0  0  0  0  0  0  0  0  0  0  0  0  # atno 10765 bound_to 10752
  141.1488  133.6703  156.6173 H   0  0  0  0  0  0  0  0  0  0  0  0  # atno 11005 bound_to 11000
  144.7133  139.8290  143.7407 LP  0  0  0  0  0  0  0  0  0  0  0  0  # atno 17320 bound_to 7965
  146.1227  139.4247  143.0218 LP  0  0  0  0  0  0  0  0  0  0  0  0  # atno 17321 bound_to 7965
  140.1599  143.4285  152.2074 LP  0  0  0  0  0  0  0  0  0  0  0  0  # atno 17342 bound_to 10162
  139.5527  144.7350  151.4387 LP  0  0  0  0  0  0  0  0  0  0  0  0  # atno 17343 bound_to 10162
  155.9664  130.4398  150.5272 LP  0  0  0  0  0  0  0  0  0  0  0  0  # atno 17370 bound_to 10713
  157.3176  131.0676  151.1955 LP  0  0  0  0  0  0  0  0  0  0  0  0  # atno 17371 bound_to 10713
  140.3568  134.7721  157.4506 LP  0  0  0  0  0  0  0  0  0  0  0  0  # atno 17394 bound_to 11000
  140.0817  134.5722  155.8534 LP  0  0  0  0  0  0  0  0  0  0  0  0  # atno 17395 bound_to 11000

$$$$
