AV-unprocessed.smi:537|AV-procd|sdf|2865|dock8
  -GOLD-   2262023353D 1   1.00000     0.00000
 Structure written by MMmdl.
 32 33  0  0  0  0  0  0  0  0  2 V2000
  152.2897  144.2757  158.3832 C   0  0  0  0  0  0  0  0  0  0  0  0
  151.5208  143.1059  158.0082 N   0  0  0  0  0  0  0  0  0  0  0  0
  151.6503  141.7658  158.3527 C   0  0  0  0  0  0  0  0  0  0  0  0
  152.5922  141.2848  159.1654 N   0  0  0  0  0  0  0  0  0  0  0  0
  152.2968  139.9291  159.1975 C   0  0  0  0  0  0  0  0  0  0  0  0
  151.2152  139.6362  158.4258 C   0  0  0  0  0  0  0  0  0  0  0  0
  150.6589  138.2740  158.2745 C   0  0  0  0  0  0  0  0  0  0  0  0
  149.6727  138.0629  157.5717 O   0  0  0  0  0  0  0  0  0  0  0  0
  151.3666  137.3457  158.9934 N   0  5  0  0  0  0  0  0  0  0  0  0
  152.4690  137.5972  159.7828 C   0  0  0  0  0  0  0  0  0  0  0  0
  153.0428  136.6946  160.3927 O   0  0  0  0  0  0  0  0  0  0  0  0
  152.9460  138.8784  159.8977 N   0  0  0  0  0  0  0  0  0  0  0  0
  154.1113  139.2285  160.7156 C   0  0  0  0  0  0  0  0  0  0  0  0
  150.7877  140.8419  157.8609 N   0  0  0  0  0  0  0  0  0  0  0  0
  149.6678  141.0809  156.9541 C   0  0  0  0  0  0  0  0  0  0  0  0
  150.1360  141.4188  155.5308 C   0  0  0  0  0  0  0  0  0  0  0  0
  150.8947  140.3457  154.9987 O   0  0  0  0  0  0  0  0  0  0  0  0
  150.0828  139.3126  154.4706 C   0  0  0  0  0  0  0  0  0  0  0  0
  151.8898  145.1638  157.8942 H   0  0  0  0  0  0  0  0  0  0  0  0
  153.3317  144.1548  158.0866 H   0  0  0  0  0  0  0  0  0  0  0  0
  152.2510  144.4251  159.4623 H   0  0  0  0  0  0  0  0  0  0  0  0
  150.7548  143.3053  157.3814 H   0  0  0  0  0  0  0  0  0  0  0  0
  154.5789  138.3835  161.2215 H   0  0  0  0  0  0  0  0  0  0  0  0
  153.8223  139.9469  161.4832 H   0  0  0  0  0  0  0  0  0  0  0  0
  154.8745  139.6943  160.0917 H   0  0  0  0  0  0  0  0  0  0  0  0
  149.0328  140.1949  156.9344 H   0  0  0  0  0  0  0  0  0  0  0  0
  149.0370  141.8743  157.3502 H   0  0  0  0  0  0  0  0  0  0  0  0
  149.2721  141.6118  154.8928 H   0  0  0  0  0  0  0  0  0  0  0  0
  150.7377  142.3285  155.5480 H   0  0  0  0  0  0  0  0  0  0  0  0
  150.7145  138.5179  154.0739 H   0  0  0  0  0  0  0  0  0  0  0  0
  149.4547  139.6811  153.6588 H   0  0  0  0  0  0  0  0  0  0  0  0
  149.4428  138.8812  155.2413 H   0  0  0  0  0  0  0  0  0  0  0  0
  1  2  1  0  0  0  0
  1 19  1  0  0  0  0
  1 20  1  0  0  0  0
  1 21  1  0  0  0  0
  2  3  1  0  0  0  0
  2 22  1  0  0  0  0
  3 14  1  0  0  0  0
  3  4  2  0  0  0  0
  4  5  1  0  0  0  0
  5 12  1  0  0  0  0
  5  6  2  0  0  0  0
  6  7  1  0  0  0  0
  6 14  1  0  0  0  0
  7  8  2  0  0  0  0
  7  9  1  0  0  0  0
  9 10  1  0  0  0  0
 10 11  2  0  0  0  0
 10 12  1  0  0  0  0
 12 13  1  0  0  0  0
 13 23  1  0  0  0  0
 13 24  1  0  0  0  0
 13 25  1  0  0  0  0
 14 15  1  0  0  0  0
 15 16  1  0  0  0  0
 15 26  1  0  0  0  0
 15 27  1  0  0  0  0
 16 17  1  0  0  0  0
 16 28  1  0  0  0  0
 16 29  1  0  0  0  0
 17 18  1  0  0  0  0
 18 30  1  0  0  0  0
 18 31  1  0  0  0  0
 18 32  1  0  0  0  0
M  CHG  1   9  -1
M  END
> <s_m_source_file>
AV-unprocessed.smi

> <i_m_source_file_index>
537

> <i_lp_mmshare_version>
43012

> <i_f3d_flags>
0

> <s_epik_input>
W0NIM11PW0NIMl1bQ0gyXW4oYyhuMSlbTkhdW0NIM10pYyhjMTIpYyg9TylbbkhdYyg9TyluMltDSDNd

> <s_epik_cmdline>
J2VwaWtfcHl0aG9uJywgJy1waCcsICc3LjAnLCAnLXRuJywgJzgnLCAnLW1hJywgJzIwMCcsICctbWV0YWxfYmluZGluZycsICctaW1hZScsICc8aW5maWxlLm1hZT4nLCAnLW9tYWUnLCAnPG91dGZpbGUubWFlPic=

> <r_lp_tautomer_probability>
1

> <r_epik_Ionization_Penalty>
6.3083

> <r_epik_Ionization_Penalty_Charging>
1.44173e-08

> <r_epik_Ionization_Penalty_Neutral>
6.3083

> <r_epik_State_Penalty>
6.30819

> <r_epik_Charging_Adjusted_Penalty>
6.30819

> <i_epik_Tot_Q>
-1

> <i_epik_Tot_abs_Q>
1

> <r_epik_Metal_State_Penalty>
2.24297

> <b_epik_Metal_Only>
1

> <s_lp_Force_Field>
OPLS_2005

> <r_lp_Energy>
24.4874

> <b_lp_Chiralities_Consistent>
1

> <s_lp_Variant>
AV-unprocessed.smi:537-2

> <Gold.Version>
5.8.1

> <Gold.Id.Protein>
6NUR|6NUR_protein|mol2

> <Gold.PLP.Fitness>
35.0938

> <Gold.PLP.PLP>
-29.5431

> <Gold.PLP.part.hbond>
-2.1736

> <Gold.PLP.part.metal>
0.0000

> <Gold.PLP.part.buried>
-6.1368

> <Gold.PLP.part.nonpolar>
-21.7126

> <Gold.PLP.part.repulsive>
0.0787

> <Gold.PLP.ligand.clash>
0.0000

> <Gold.PLP.ligand.torsion>
0.2253

> <Gold.PLP.Chemscore.Hbond>
2.0000

> <Gold.PLP.Chemscore.CHOScore>
0.0000

> <Gold.PLP.Chemscore.Metal>
0.0000

> <Gold.Chemscore.Hbonds>
donor molecule, donor type, donor heavy atom, donor atom, acceptor molecule, acceptor atom, score
      P1  H  6896  6907       L1    11  1.00
      P1  H  7989  7998       L1    17  0.95

> <Gold.PLP.Chemscore.Internal.Correction>
0.0012

> <Gold.Rescore>
     Score         DG    S(hbond)    S(metal)    S(lipo)     H(rot)  DE(clash)    DE(int)     intcor
     12.02     -12.26       1.78        0.00      43.10       1.64       0.00       0.23       ----

> <Gold.Chemscore.Fitness>
12.0208

> <Gold.Chemscore.DG>
-12.2571

> <Gold.Chemscore.ZeroCoef>
-5.4800

> <Gold.Chemscore.Hbond>
1.7794

> <Gold.Chemscore.Metal>
0.0000

> <Gold.Chemscore.Lipo>
43.0976

> <Gold.Chemscore.Internal_Hbond>
0.0000

> <Gold.Chemscore.DEClash>
0.0048

> <Gold.Chemscore.DEInternal>
0.2315

> <Gold.Chemscore.Rot>
1.6439

> <Gold.Chemscore.Internal.Correction>
   9.000000E+99

> <Gold.Chemscore.Hbonds>
donor molecule, donor type, donor heavy atom, donor atom, acceptor molecule, acceptor atom, score
      P1  H  6896  6907       L1    11  0.69
      P1  H  7989  7998       L1    17  0.14

> <Gold.Chemscore.Hbond.Weighted>
-5.9431

> <Gold.Chemscore.Metal.Weighted>
-0.0000

> <Gold.Chemscore.Lipo.Weighted>
-5.0424

> <Gold.Chemscore.Internal_Hbond.Weighted>
0.0000

> <Gold.Chemscore.DEClash.Weighted>
0.0048

> <Gold.Chemscore.DEInternal.Weighted>
0.2315

> <Gold.Chemscore.Rot.Weighted>
4.2085

> <Gold.Chemscore.Internal.Correction.Weighted>
   9.000000E+99

> <Gold.Protein.RotatedTorsions>
[ 6907 6896 6895 6894 ] final   31.63 input  -60.11 | X-H torsion
[ 7974 7965 7964 7962 ] final  162.37 input  175.53 | X-H torsion
[ 8008 7997 7996 7995 ] final   75.72 input   59.86 | X-H torsion
[ 10167 10162 10161 10158 ] final  105.05 input  -65.29 | X-H torsion
[ 10718 10713 10712 10709 ] final -178.59 input   66.30 | X-H torsion
[ 10763 10752 10751 10750 ] final -155.11 input  -60.55 | X-H torsion
[ 11005 11000 10999 10996 ] final   -1.56 input  -57.11 | X-H torsion

> <Gold.Protein.ActiveResidues>
 VAL166  LYS551  ARG553  GLY616  TRP617  ASP618  TYR619  PRO620  LYS621  CYS622 
 ASP623  PHE694  ASN695  SER759  ASP760  ASP761  ALA762  ILE779  LEU786  VAL792 
 PHE793  MET794  SER795  GLU796  ALA797  LYS798  CYS799  TRP800  GLU811  SER814 

> <Gold.Protein.RotatedAtoms>
  152.0630  134.9582  160.0574 H   0  0  0  0  0  0  0  0  0  0  0  0  # atno 6907 bound_to 6896
  152.0938  133.4209  159.4564 H   0  0  0  0  0  0  0  0  0  0  0  0  # atno 6908 bound_to 6896
  150.6837  134.2759  159.4651 H   0  0  0  0  0  0  0  0  0  0  0  0  # atno 6909 bound_to 6896
  144.7640  139.8030  143.6322 H   0  0  0  0  0  0  0  0  0  0  0  0  # atno 7974 bound_to 7965
  155.8170  140.3471  155.5491 H   0  0  0  0  0  0  0  0  0  0  0  0  # atno 8008 bound_to 7997
  155.8382  140.0937  157.1771 H   0  0  0  0  0  0  0  0  0  0  0  0  # atno 8009 bound_to 7997
  154.4004  140.1399  156.3683 H   0  0  0  0  0  0  0  0  0  0  0  0  # atno 8010 bound_to 7997
  139.7125  144.7075  151.1003 H   0  0  0  0  0  0  0  0  0  0  0  0  # atno 10167 bound_to 10162
  156.8465  130.9704  151.3096 H   0  0  0  0  0  0  0  0  0  0  0  0  # atno 10718 bound_to 10713
  154.7810  135.3175  154.7989 H   0  0  0  0  0  0  0  0  0  0  0  0  # atno 10763 bound_to 10752
  153.8700  135.6845  153.4779 H   0  0  0  0  0  0  0  0  0  0  0  0  # atno 10764 bound_to 10752
  153.1447  135.4724  154.9486 H   0  0  0  0  0  0  0  0  0  0  0  0  # atno 10765 bound_to 10752
  140.6486  133.9424  155.8367 H   0  0  0  0  0  0  0  0  0  0  0  0  # atno 11005 bound_to 11000
  146.1730  139.4889  142.9915 LP  0  0  0  0  0  0  0  0  0  0  0  0  # atno 17320 bound_to 7965
  145.6528  141.0259  143.1751 LP  0  0  0  0  0  0  0  0  0  0  0  0  # atno 17321 bound_to 7965
  140.7736  143.5273  150.9464 LP  0  0  0  0  0  0  0  0  0  0  0  0  # atno 17342 bound_to 10162
  139.8959  143.6896  152.3138 LP  0  0  0  0  0  0  0  0  0  0  0  0  # atno 17343 bound_to 10162
  157.6327  130.8742  149.9302 LP  0  0  0  0  0  0  0  0  0  0  0  0  # atno 17370 bound_to 10713
  156.0851  130.3669  150.0503 LP  0  0  0  0  0  0  0  0  0  0  0  0  # atno 17371 bound_to 10713
  141.0553  134.0425  157.3730 LP  0  0  0  0  0  0  0  0  0  0  0  0  # atno 17394 bound_to 11000
  139.9054  135.0178  156.7460 LP  0  0  0  0  0  0  0  0  0  0  0  0  # atno 17395 bound_to 11000

$$$$
