AV-unprocessed.smi:2793|AV-procd|sdf|10775|dock4
  -GOLD-   2272015213D 1   1.00000     0.00000
 Structure written by MMmdl.
 28 29  0  0  0  0  0  0  0  0  1 V2000
  153.1214  140.1299  158.3713 O   0  0  0  0  0  0  0  0  0  0  0  0
  152.1568  140.8309  158.0622 C   0  0  0  0  0  0  0  0  0  0  0  0
  151.3511  140.5876  157.0108 N   0  0  0  0  0  0  0  0  0  0  0  0
  151.4411  139.5376  156.0592 C   0  0  0  0  0  0  0  0  0  0  0  0
  152.1475  138.3858  156.4788 C   0  0  0  0  0  0  0  0  0  0  0  0
  152.3200  137.3057  155.6846 N   0  0  0  0  0  0  0  0  0  0  0  0
  151.7779  137.3714  154.4498 C   0  0  0  0  0  0  0  0  0  0  0  0
  151.0687  138.5090  154.0154 C   0  0  0  0  0  0  0  0  0  0  0  0
  150.9014  139.5855  154.8141 N   0  0  0  0  0  0  0  0  0  0  0  0
  151.7877  142.0568  158.9123 C   0  0  1  0  0  0  0  0  0  0  0  0
  152.7822  142.3129  160.0688 C   0  0  0  0  0  0  0  0  0  0  0  0
  152.4102  143.5901  160.8307 C   0  0  0  0  0  0  0  0  0  0  0  0
  152.2681  144.7575  159.8494 C   0  0  0  0  0  0  0  0  0  0  0  0
  151.2980  144.3856  158.7177 C   0  0  0  0  0  0  0  0  0  0  0  0
  151.7465  143.2037  158.0616 O   0  0  0  0  0  0  0  0  0  0  0  0
  150.5874  141.2346  156.8774 H   0  0  0  0  0  0  0  0  0  0  0  0
  152.5842  138.3277  157.4654 H   0  0  0  0  0  0  0  0  0  0  0  0
  151.9103  136.5144  153.8060 H   0  0  0  0  0  0  0  0  0  0  0  0
  150.6363  138.5561  153.0269 H   0  0  0  0  0  0  0  0  0  0  0  0
  150.7908  141.8805  159.3201 H   0  0  0  0  0  0  0  0  0  0  0  0
  152.7930  141.4686  160.7593 H   0  0  0  0  0  0  0  0  0  0  0  0
  153.7954  142.4089  159.6749 H   0  0  0  0  0  0  0  0  0  0  0  0
  151.4697  143.4397  161.3622 H   0  0  0  0  0  0  0  0  0  0  0  0
  153.1643  143.8164  161.5849 H   0  0  0  0  0  0  0  0  0  0  0  0
  151.9175  145.6488  160.3708 H   0  0  0  0  0  0  0  0  0  0  0  0
  153.2432  145.0038  159.4274 H   0  0  0  0  0  0  0  0  0  0  0  0
  150.2875  144.2393  159.1028 H   0  0  0  0  0  0  0  0  0  0  0  0
  151.2458  145.1941  157.9883 H   0  0  0  0  0  0  0  0  0  0  0  0
  1  2  2  0  0  0  0
  2  3  1  0  0  0  0
  2 10  1  0  0  0  0
  3  4  1  0  0  0  0
  3 16  1  0  0  0  0
  4  9  1  0  0  0  0
  4  5  2  0  0  0  0
  5  6  1  0  0  0  0
  5 17  1  0  0  0  0
  6  7  2  0  0  0  0
  7  8  1  0  0  0  0
  7 18  1  0  0  0  0
  8  9  2  0  0  0  0
  8 19  1  0  0  0  0
 10 15  1  0  0  0  0
 10 11  1  0  0  0  0
 10 20  1  0  0  0  0
 11 12  1  0  0  0  0
 11 21  1  0  0  0  0
 11 22  1  0  0  0  0
 12 13  1  0  0  0  0
 12 23  1  0  0  0  0
 12 24  1  0  0  0  0
 13 14  1  0  0  0  0
 13 25  1  0  0  0  0
 13 26  1  0  0  0  0
 14 15  1  0  0  0  0
 14 27  1  0  0  0  0
 14 28  1  0  0  0  0
M  END
> <s_m_source_file>
AV-unprocessed.smi

> <i_m_source_file_index>
2793

> <i_lp_mmshare_version>
43012

> <i_f3d_flags>
0

> <s_epik_input>
TzFbQ0gyXVtDSDJdW0NIMl1bQ0gyXVtDQEhdMUMoPU8pW05IXWMyW2NIXW5bY0hdW2NIXW4y

> <s_epik_cmdline>
J2VwaWtfcHl0aG9uJywgJy1waCcsICc3LjAnLCAnLXRuJywgJzgnLCAnLW1hJywgJzIwMCcsICctbWV0YWxfYmluZGluZycsICctaW1hZScsICc8aW5maWxlLm1hZT4nLCAnLW9tYWUnLCAnPG91dGZpbGUubWFlPic=

> <r_lp_tautomer_probability>
1

> <r_epik_Ionization_Penalty>
2.82919e-06

> <r_epik_Ionization_Penalty_Charging>
0

> <r_epik_Ionization_Penalty_Neutral>
2.82919e-06

> <r_epik_State_Penalty>
-0

> <r_epik_Charging_Adjusted_Penalty>
0

> <i_epik_Tot_Q>
0

> <i_epik_Tot_abs_Q>
0

> <r_epik_Metal_State_Penalty>
-0

> <b_epik_Metal_Only>
0

> <s_lp_Force_Field>
OPLS_2005

> <r_lp_Energy>
18.1635

> <b_lp_Chiralities_Consistent>
1

> <s_lp_Variant>
AV-unprocessed.smi:2793-2

> <Gold.Version>
5.8.1

> <Gold.Id.Protein>
6NUR|6NUR_protein|mol2

> <Gold.PLP.Fitness>
41.8023

> <Gold.PLP.PLP>
-30.0826

> <Gold.PLP.part.hbond>
-3.0000

> <Gold.PLP.part.metal>
0.0000

> <Gold.PLP.part.buried>
-3.3627

> <Gold.PLP.part.nonpolar>
-23.7912

> <Gold.PLP.part.repulsive>
0.2612

> <Gold.PLP.ligand.clash>
0.0000

> <Gold.PLP.ligand.torsion>
0.1390

> <Gold.PLP.Chemscore.Hbond>
1.9979

> <Gold.PLP.Chemscore.CHOScore>
2.0000

> <Gold.PLP.Chemscore.Metal>
0.0000

> <Gold.Chemscore.Hbonds>
donor molecule, donor type, donor heavy atom, donor atom, acceptor molecule, acceptor atom, score
      P1  H  7989  7998       L1     9  0.70
      P1  H  7997  8008       L1     1  1.00
      P1  H 10752 10765       L1     6  0.21
      L1  C     7    18       P1  7949  1.00
      L1  C     8    19       P1  7957  0.85

> <Gold.PLP.Chemscore.Internal.Correction>
0.0039

> <Gold.Rescore>
     Score         DG    S(hbond)    S(metal)    S(lipo)     H(rot)  DE(clash)    DE(int)     intcor
     14.33     -15.92       1.11        0.00      79.42       1.00       0.00       1.59       ----

> <Gold.Chemscore.Fitness>
14.3253

> <Gold.Chemscore.DG>
-15.9160

> <Gold.Chemscore.ZeroCoef>
-5.4800

> <Gold.Chemscore.Hbond>
1.1089

> <Gold.Chemscore.Metal>
0.0000

> <Gold.Chemscore.Lipo>
79.4205

> <Gold.Chemscore.Internal_Hbond>
0.0000

> <Gold.Chemscore.DEClash>
0.0038

> <Gold.Chemscore.DEInternal>
1.5869

> <Gold.Chemscore.Rot>
1.0000

> <Gold.Chemscore.Internal.Correction>
   9.000000E+99

> <Gold.Chemscore.Hbonds>
donor molecule, donor type, donor heavy atom, donor atom, acceptor molecule, acceptor atom, score
      P1  H  7989  7998       L1     9  0.07
      P1  H  7997  8008       L1     1  0.83

> <Gold.Chemscore.Hbond.Weighted>
-3.7038

> <Gold.Chemscore.Metal.Weighted>
-0.0000

> <Gold.Chemscore.Lipo.Weighted>
-9.2922

> <Gold.Chemscore.Internal_Hbond.Weighted>
0.0000

> <Gold.Chemscore.DEClash.Weighted>
0.0038

> <Gold.Chemscore.DEInternal.Weighted>
1.5869

> <Gold.Chemscore.Rot.Weighted>
2.5600

> <Gold.Chemscore.Internal.Correction.Weighted>
   9.000000E+99

> <Gold.Protein.RotatedTorsions>
[ 6907 6896 6895 6894 ] final -157.72 input  -60.11 | X-H torsion
[ 7974 7965 7964 7962 ] final  -63.81 input  175.53 | X-H torsion
[ 8008 7997 7996 7995 ] final  -84.09 input   59.86 | X-H torsion
[ 10167 10162 10161 10158 ] final  161.76 input  -65.29 | X-H torsion
[ 10718 10713 10712 10709 ] final  -88.06 input   66.30 | X-H torsion
[ 10763 10752 10751 10750 ] final -146.64 input  -60.55 | X-H torsion
[ 11005 11000 10999 10996 ] final -168.14 input  -57.11 | X-H torsion

> <Gold.Protein.ActiveResidues>
 VAL166  LYS551  ARG553  GLY616  TRP617  ASP618  TYR619  PRO620  LYS621  CYS622 
 ASP623  PHE694  ASN695  SER759  ASP760  ASP761  ALA762  ILE779  LEU786  VAL792 
 PHE793  MET794  SER795  GLU796  ALA797  LYS798  CYS799  TRP800  GLU811  SER814 

> <Gold.Protein.RotatedAtoms>
  151.3072  133.4096  159.2643 H   0  0  0  0  0  0  0  0  0  0  0  0  # atno 6907 bound_to 6896
  151.0145  134.9423  159.8036 H   0  0  0  0  0  0  0  0  0  0  0  0  # atno 6908 bound_to 6896
  152.5309  134.3036  159.9140 H   0  0  0  0  0  0  0  0  0  0  0  0  # atno 6909 bound_to 6896
  145.7744  140.8795  143.0363 H   0  0  0  0  0  0  0  0  0  0  0  0  # atno 7974 bound_to 7965
  154.6261  140.0610  156.9675 H   0  0  0  0  0  0  0  0  0  0  0  0  # atno 8008 bound_to 7997
  155.1740  140.3293  155.4369 H   0  0  0  0  0  0  0  0  0  0  0  0  # atno 8009 bound_to 7997
  156.2458  140.1909  156.6841 H   0  0  0  0  0  0  0  0  0  0  0  0  # atno 8010 bound_to 7997
  139.4853  144.4504  151.8837 H   0  0  0  0  0  0  0  0  0  0  0  0  # atno 10167 bound_to 10162
  155.9984  130.4822  150.4961 H   0  0  0  0  0  0  0  0  0  0  0  0  # atno 10718 bound_to 10713
  154.8326  135.3381  154.6693 H   0  0  0  0  0  0  0  0  0  0  0  0  # atno 10763 bound_to 10752
  153.7311  135.6952  153.4993 H   0  0  0  0  0  0  0  0  0  0  0  0  # atno 10764 bound_to 10752
  153.2311  135.4416  155.0548 H   0  0  0  0  0  0  0  0  0  0  0  0  # atno 10765 bound_to 10752
  140.5453  134.5482  157.5109 H   0  0  0  0  0  0  0  0  0  0  0  0  # atno 11005 bound_to 11000
  144.6807  139.9901  143.7484 LP  0  0  0  0  0  0  0  0  0  0  0  0  # atno 17320 bound_to 7965
  146.0137  139.3192  143.0854 LP  0  0  0  0  0  0  0  0  0  0  0  0  # atno 17321 bound_to 7965
  140.3961  144.2553  150.5896 LP  0  0  0  0  0  0  0  0  0  0  0  0  # atno 17342 bound_to 10162
  140.5101  143.2293  151.8549 LP  0  0  0  0  0  0  0  0  0  0  0  0  # atno 17343 bound_to 10162
  157.2951  131.0634  151.2107 LP  0  0  0  0  0  0  0  0  0  0  0  0  # atno 17370 bound_to 10713
  157.3106  130.6888  149.6213 LP  0  0  0  0  0  0  0  0  0  0  0  0  # atno 17371 bound_to 10713
  139.9483  134.7663  156.0509 LP  0  0  0  0  0  0  0  0  0  0  0  0  # atno 17394 bound_to 11000
  141.1203  133.6615  156.3199 LP  0  0  0  0  0  0  0  0  0  0  0  0  # atno 17395 bound_to 11000

$$$$
