AV-unprocessed.smi:2822|AV-procd|sdf|10882|dock9
  -GOLD-   2272015323D 1   1.00000     0.00000
 Structure written by MMmdl.
 39 41  0  0  0  0  0  0  0  0  1 V2000
  151.9866  143.6214  159.8276 Cl  0  0  0  0  0  0  0  0  0  0  0  0
  152.8438  142.1266  159.9740 C   0  0  0  0  0  0  0  0  0  0  0  0
  153.9519  142.0390  160.8414 C   0  0  0  0  0  0  0  0  0  0  0  0
  154.6757  140.9127  161.0132 N   0  0  0  0  0  0  0  0  0  0  0  0
  154.3096  139.8189  160.3134 C   0  0  0  0  0  0  0  0  0  0  0  0
  153.2186  139.7969  159.4218 C   0  0  0  0  0  0  0  0  0  0  0  0
  152.4622  140.9789  159.2411 C   0  0  0  0  0  0  0  0  0  0  0  0
  151.3618  141.0456  158.3731 N   0  0  0  0  0  0  0  0  0  0  0  0
  151.1850  140.0663  157.3120 C   0  0  0  0  0  0  0  0  0  0  0  0
  151.3580  140.7058  155.9213 C   0  0  2  0  0  0  0  0  0  0  0  0
  150.1706  141.6021  155.5204 C   0  0  0  0  0  0  0  0  0  0  0  0
  148.9689  140.8400  155.2017 N   0  0  0  0  0  0  0  0  0  0  0  0
  147.8759  141.7262  154.8029 C   0  0  0  0  0  0  0  0  0  0  0  0
  146.5814  140.9607  154.4872 C   0  0  0  0  0  0  0  0  0  0  0  0
  146.8370  139.9079  153.3996 C   0  0  0  0  0  0  0  0  0  0  0  0
  148.0179  139.0117  153.8024 C   0  0  0  0  0  0  0  0  0  0  0  0
  149.2599  139.8572  154.1540 C   0  0  2  0  0  0  0  0  0  0  0  0
  150.4333  138.9448  154.5621 C   0  0  0  0  0  0  0  0  0  0  0  0
  151.5756  139.7256  154.9043 O   0  0  0  0  0  0  0  0  0  0  0  0
  154.2671  142.8987  161.4143 H   0  0  0  0  0  0  0  0  0  0  0  0
  154.9047  138.9310  160.4684 H   0  0  0  0  0  0  0  0  0  0  0  0
  152.9832  138.8826  158.8984 H   0  0  0  0  0  0  0  0  0  0  0  0
  150.8141  141.8938  158.3386 H   0  0  0  0  0  0  0  0  0  0  0  0
  151.8790  139.2373  157.4488 H   0  0  0  0  0  0  0  0  0  0  0  0
  150.1797  139.6518  157.3939 H   0  0  0  0  0  0  0  0  0  0  0  0
  152.2494  141.3335  155.9534 H   0  0  0  0  0  0  0  0  0  0  0  0
  149.9601  142.3112  156.3219 H   0  0  0  0  0  0  0  0  0  0  0  0
  150.4603  142.1978  154.6532 H   0  0  0  0  0  0  0  0  0  0  0  0
  147.6779  142.4440  155.5996 H   0  0  0  0  0  0  0  0  0  0  0  0
  148.1724  142.3098  153.9299 H   0  0  0  0  0  0  0  0  0  0  0  0
  146.2123  140.4754  155.3916 H   0  0  0  0  0  0  0  0  0  0  0  0
  145.8039  141.6534  154.1642 H   0  0  0  0  0  0  0  0  0  0  0  0
  145.9424  139.3066  153.2353 H   0  0  0  0  0  0  0  0  0  0  0  0
  147.0601  140.4039  152.4542 H   0  0  0  0  0  0  0  0  0  0  0  0
  147.7332  138.4005  154.6600 H   0  0  0  0  0  0  0  0  0  0  0  0
  148.2489  138.3201  152.9915 H   0  0  0  0  0  0  0  0  0  0  0  0
  149.5618  140.3940  153.2528 H   0  0  0  0  0  0  0  0  0  0  0  0
  150.1562  138.2981  155.3950 H   0  0  0  0  0  0  0  0  0  0  0  0
  150.7031  138.2860  153.7362 H   0  0  0  0  0  0  0  0  0  0  0  0
  1  2  1  0  0  0  0
  2  7  1  0  0  0  0
  2  3  2  0  0  0  0
  3  4  1  0  0  0  0
  3 20  1  0  0  0  0
  4  5  2  0  0  0  0
  5  6  1  0  0  0  0
  5 21  1  0  0  0  0
  6  7  2  0  0  0  0
  6 22  1  0  0  0  0
  7  8  1  0  0  0  0
  8  9  1  0  0  0  0
  8 23  1  0  0  0  0
  9 10  1  0  0  0  0
  9 24  1  0  0  0  0
  9 25  1  0  0  0  0
 10 19  1  0  0  0  0
 10 11  1  0  0  0  0
 10 26  1  0  0  0  0
 11 12  1  0  0  0  0
 11 27  1  0  0  0  0
 11 28  1  0  0  0  0
 12 17  1  0  0  0  0
 12 13  1  0  0  0  0
 13 14  1  0  0  0  0
 13 29  1  0  0  0  0
 13 30  1  0  0  0  0
 14 15  1  0  0  0  0
 14 31  1  0  0  0  0
 14 32  1  0  0  0  0
 15 16  1  0  0  0  0
 15 33  1  0  0  0  0
 15 34  1  0  0  0  0
 16 17  1  0  0  0  0
 16 35  1  0  0  0  0
 16 36  1  0  0  0  0
 17 18  1  0  0  0  0
 17 37  1  0  0  0  0
 18 19  1  0  0  0  0
 18 38  1  0  0  0  0
 18 39  1  0  0  0  0
M  END
> <s_m_source_file>
AV-unprocessed.smi

> <i_m_source_file_index>
2822

> <i_lp_mmshare_version>
43012

> <i_f3d_flags>
0

> <s_epik_input>
Q2xjMVtjSF1uW2NIXVtjSF1jMVtOSF1bQ0gyXVtDQEhdKFtDSDJdMilPW0NIMl1bQ0BASF0oTjIzKVtDSDJdW0NIMl1bQ0gyXVtDSDJdMw==

> <s_epik_cmdline>
J2VwaWtfcHl0aG9uJywgJy1waCcsICc3LjAnLCAnLXRuJywgJzgnLCAnLW1hJywgJzIwMCcsICctbWV0YWxfYmluZGluZycsICctaW1hZScsICc8aW5maWxlLm1hZT4nLCAnLW9tYWUnLCAnPG91dGZpbGUubWFlPic=

> <r_lp_tautomer_probability>
0.999999

> <r_epik_Ionization_Penalty>
2.10064

> <r_epik_Ionization_Penalty_Charging>
0

> <r_epik_Ionization_Penalty_Neutral>
2.10064

> <r_epik_State_Penalty>
2.1757

> <r_epik_Charging_Adjusted_Penalty>
2.1757

> <i_epik_Tot_Q>
0

> <i_epik_Tot_abs_Q>
0

> <r_epik_Metal_State_Penalty>
1.25425

> <b_epik_Metal_Only>
0

> <s_lp_Force_Field>
OPLS_2005

> <r_lp_Energy>
40.8538

> <b_lp_Chiralities_Consistent>
1

> <s_lp_Variant>
AV-unprocessed.smi:2822-23

> <Gold.Version>
5.8.1

> <Gold.Id.Protein>
6NUR|6NUR_protein|mol2

> <Gold.PLP.Fitness>
41.5779

> <Gold.PLP.PLP>
-39.0204

> <Gold.PLP.part.hbond>
-1.5252

> <Gold.PLP.part.metal>
0.0000

> <Gold.PLP.part.buried>
-4.3676

> <Gold.PLP.part.nonpolar>
-33.4086

> <Gold.PLP.part.repulsive>
0.2665

> <Gold.PLP.ligand.clash>
0.0000

> <Gold.PLP.ligand.torsion>
0.2235

> <Gold.PLP.Chemscore.Hbond>
1.0000

> <Gold.PLP.Chemscore.CHOScore>
0.0000

> <Gold.PLP.Chemscore.Metal>
0.0000

> <Gold.Chemscore.Hbonds>
donor molecule, donor type, donor heavy atom, donor atom, acceptor molecule, acceptor atom, score
      P1  H  7989  7998       L1    19  0.85

> <Gold.PLP.Chemscore.Internal.Correction>
0.0045

> <Gold.Rescore>
     Score         DG    S(hbond)    S(metal)    S(lipo)     H(rot)  DE(clash)    DE(int)     intcor
     15.54     -16.00       0.02        0.00     114.39       1.15       0.30       0.16       ----

> <Gold.Chemscore.Fitness>
15.5359

> <Gold.Chemscore.DG>
-15.9963

> <Gold.Chemscore.ZeroCoef>
-5.4800

> <Gold.Chemscore.Hbond>
0.0244

> <Gold.Chemscore.Metal>
0.0000

> <Gold.Chemscore.Lipo>
114.3890

> <Gold.Chemscore.Internal_Hbond>
0.0000

> <Gold.Chemscore.DEClash>
0.3044

> <Gold.Chemscore.DEInternal>
0.1560

> <Gold.Chemscore.Rot>
1.1519

> <Gold.Chemscore.Internal.Correction>
   9.000000E+99

> <Gold.Chemscore.Hbonds>
donor molecule, donor type, donor heavy atom, donor atom, acceptor molecule, acceptor atom, score
      P1  H  7989  7998       L1    19  0.04

> <Gold.Chemscore.Hbond.Weighted>
-0.0815

> <Gold.Chemscore.Metal.Weighted>
-0.0000

> <Gold.Chemscore.Lipo.Weighted>
-13.3835

> <Gold.Chemscore.Internal_Hbond.Weighted>
0.0000

> <Gold.Chemscore.DEClash.Weighted>
0.3044

> <Gold.Chemscore.DEInternal.Weighted>
0.1560

> <Gold.Chemscore.Rot.Weighted>
2.9487

> <Gold.Chemscore.Internal.Correction.Weighted>
   9.000000E+99

> <Gold.Protein.RotatedTorsions>
[ 6907 6896 6895 6894 ] final  118.48 input  -60.11 | X-H torsion
[ 7974 7965 7964 7962 ] final  -51.04 input  175.53 | X-H torsion
[ 8008 7997 7996 7995 ] final -125.12 input   59.86 | X-H torsion
[ 10167 10162 10161 10158 ] final -137.20 input  -65.29 | X-H torsion
[ 10718 10713 10712 10709 ] final  -84.69 input   66.30 | X-H torsion
[ 10763 10752 10751 10750 ] final  -15.34 input  -60.55 | X-H torsion
[ 11005 11000 10999 10996 ] final    6.32 input  -57.11 | X-H torsion

> <Gold.Protein.ActiveResidues>
 VAL166  LYS551  ARG553  GLY616  TRP617  ASP618  TYR619  PRO620  LYS621  CYS622 
 ASP623  PHE694  ASN695  SER759  ASP760  ASP761  ALA762  ILE779  LEU786  VAL792 
 PHE793  MET794  SER795  GLU796  ALA797  LYS798  CYS799  TRP800  GLU811  SER814 

> <Gold.Protein.RotatedAtoms>
  152.4540  133.7685  159.6785 H   0  0  0  0  0  0  0  0  0  0  0  0  # atno 6907 bound_to 6896
  150.8460  133.7850  159.3049 H   0  0  0  0  0  0  0  0  0  0  0  0  # atno 6908 bound_to 6896
  151.5461  135.1071  159.9990 H   0  0  0  0  0  0  0  0  0  0  0  0  # atno 6909 bound_to 6896
  145.9233  140.7814  142.9636 H   0  0  0  0  0  0  0  0  0  0  0  0  # atno 7974 bound_to 7965
  155.2080  140.0418  157.2928 H   0  0  0  0  0  0  0  0  0  0  0  0  # atno 8008 bound_to 7997
  154.6030  140.2457  155.7739 H   0  0  0  0  0  0  0  0  0  0  0  0  # atno 8009 bound_to 7997
  156.2333  140.2930  156.0254 H   0  0  0  0  0  0  0  0  0  0  0  0  # atno 8010 bound_to 7997
  139.8601  143.7087  152.2651 H   0  0  0  0  0  0  0  0  0  0  0  0  # atno 10167 bound_to 10162
  156.0004  130.4706  150.4448 H   0  0  0  0  0  0  0  0  0  0  0  0  # atno 10718 bound_to 10713
  153.5418  135.7013  153.5633 H   0  0  0  0  0  0  0  0  0  0  0  0  # atno 10763 bound_to 10752
  153.3595  135.3973  155.1707 H   0  0  0  0  0  0  0  0  0  0  0  0  # atno 10764 bound_to 10752
  154.8672  135.3785  154.4923 H   0  0  0  0  0  0  0  0  0  0  0  0  # atno 10765 bound_to 10752
  140.5608  134.0194  155.7971 H   0  0  0  0  0  0  0  0  0  0  0  0  # atno 11005 bound_to 11000
  144.6755  140.2011  143.7387 LP  0  0  0  0  0  0  0  0  0  0  0  0  # atno 17320 bound_to 7965
  145.8521  139.2180  143.1766 LP  0  0  0  0  0  0  0  0  0  0  0  0  # atno 17321 bound_to 7965
  139.7381  144.7566  151.0695 LP  0  0  0  0  0  0  0  0  0  0  0  0  # atno 17342 bound_to 10162
  140.7776  143.5005  150.9777 LP  0  0  0  0  0  0  0  0  0  0  0  0  # atno 17343 bound_to 10162
  157.2486  131.0541  151.2393 LP  0  0  0  0  0  0  0  0  0  0  0  0  # atno 17370 bound_to 10713
  157.3551  130.7102  149.6465 LP  0  0  0  0  0  0  0  0  0  0  0  0  # atno 17371 bound_to 10713
  141.1115  133.9608  157.2900 LP  0  0  0  0  0  0  0  0  0  0  0  0  # atno 17394 bound_to 11000
  139.9409  135.0191  156.8703 LP  0  0  0  0  0  0  0  0  0  0  0  0  # atno 17395 bound_to 11000

$$$$
