AV-unprocessed.smi:606|AV-procd|sdf|3041|dock4
  -GOLD-   2262023563D 1   1.00000     0.00000
 Structure written by MMmdl.
 36 37  0  0  0  0  0  0  0  0  1 V2000
  146.1443  138.7504  151.9507 C   0  0  0  0  0  0  0  0  0  0  0  0
  146.9158  139.2862  153.1077 C   0  0  0  0  0  0  0  0  0  0  0  0
  147.4379  140.5176  153.3885 C   0  0  0  0  0  0  0  0  0  0  0  0
  148.0458  140.3252  154.6578 C   0  0  0  0  0  0  0  0  0  0  0  0
  148.7154  141.3897  155.3139 N   0  0  0  0  0  0  0  0  0  0  0  0
  149.7817  141.3077  156.1281 C   0  0  0  0  0  0  0  0  0  0  0  0
  150.3495  140.2628  156.4484 O   0  0  0  0  0  0  0  0  0  0  0  0
  150.1587  142.5199  156.5626 N   0  0  0  0  0  0  0  0  0  0  0  0
  151.2834  142.7870  157.4571 C   0  0  0  0  0  0  0  0  0  0  0  0
  151.0869  142.0228  158.7857 C   0  0  0  0  0  0  0  0  0  0  0  0
  152.3616  141.9659  159.6444 C   0  0  0  0  0  0  0  0  0  0  0  0
  152.5801  143.1581  160.5925 C   0  0  0  0  0  0  0  0  0  0  0  0
  152.2356  144.5521  160.0389 C   0  0  0  0  0  0  0  0  0  0  0  0
  152.5567  144.7708  158.5518 C   0  0  0  0  0  0  0  0  0  0  0  0
  151.4189  144.3124  157.6230 C   0  0  0  0  0  0  0  0  0  0  0  0
  147.9090  139.0879  155.1094 N   0  0  0  0  0  0  0  0  0  0  0  0
  147.1843  138.4157  154.1183 O   0  0  0  0  0  0  0  0  0  0  0  0
  145.8348  139.5542  151.2825 H   0  0  0  0  0  0  0  0  0  0  0  0
  145.2486  138.2299  152.2901 H   0  0  0  0  0  0  0  0  0  0  0  0
  146.7479  138.0471  151.3769 H   0  0  0  0  0  0  0  0  0  0  0  0
  147.3898  141.4096  152.7819 H   0  0  0  0  0  0  0  0  0  0  0  0
  148.3441  142.3124  155.1430 H   0  0  0  0  0  0  0  0  0  0  0  0
  149.6295  143.3211  156.2511 H   0  0  0  0  0  0  0  0  0  0  0  0
  152.1953  142.4258  156.9774 H   0  0  0  0  0  0  0  0  0  0  0  0
  150.2514  142.4311  159.3558 H   0  0  0  0  0  0  0  0  0  0  0  0
  150.8103  140.9935  158.5524 H   0  0  0  0  0  0  0  0  0  0  0  0
  152.3364  141.0601  160.2513 H   0  0  0  0  0  0  0  0  0  0  0  0
  153.2308  141.8484  158.9961 H   0  0  0  0  0  0  0  0  0  0  0  0
  151.9998  143.0022  161.5026 H   0  0  0  0  0  0  0  0  0  0  0  0
  153.6238  143.1491  160.9087 H   0  0  0  0  0  0  0  0  0  0  0  0
  151.1805  144.7637  160.2159 H   0  0  0  0  0  0  0  0  0  0  0  0
  152.7776  145.2901  160.6312 H   0  0  0  0  0  0  0  0  0  0  0  0
  152.6978  145.8407  158.3949 H   0  0  0  0  0  0  0  0  0  0  0  0
  153.5037  144.3037  158.2790 H   0  0  0  0  0  0  0  0  0  0  0  0
  151.5908  144.7487  156.6381 H   0  0  0  0  0  0  0  0  0  0  0  0
  150.4748  144.7354  157.9695 H   0  0  0  0  0  0  0  0  0  0  0  0
  1  2  1  0  0  0  0
  1 18  1  0  0  0  0
  1 19  1  0  0  0  0
  1 20  1  0  0  0  0
  2 17  1  0  0  0  0
  2  3  2  0  0  0  0
  3  4  1  0  0  0  0
  3 21  1  0  0  0  0
  4  5  1  0  0  0  0
  4 16  2  0  0  0  0
  5  6  1  0  0  0  0
  5 22  1  0  0  0  0
  6  7  2  0  0  0  0
  6  8  1  0  0  0  0
  8  9  1  0  0  0  0
  8 23  1  0  0  0  0
  9 15  1  0  0  0  0
  9 10  1  0  0  0  0
  9 24  1  0  0  0  0
 10 11  1  0  0  0  0
 10 25  1  0  0  0  0
 10 26  1  0  0  0  0
 11 12  1  0  0  0  0
 11 27  1  0  0  0  0
 11 28  1  0  0  0  0
 12 13  1  0  0  0  0
 12 29  1  0  0  0  0
 12 30  1  0  0  0  0
 13 14  1  0  0  0  0
 13 31  1  0  0  0  0
 13 32  1  0  0  0  0
 14 15  1  0  0  0  0
 14 33  1  0  0  0  0
 14 34  1  0  0  0  0
 15 35  1  0  0  0  0
 15 36  1  0  0  0  0
 16 17  1  0  0  0  0
M  END
> <s_m_source_file>
AV-unprocessed.smi

> <i_m_source_file_index>
606

> <i_lp_mmshare_version>
43012

> <i_f3d_flags>
0

> <s_epik_input>
W0NIM11jMVtjSF1jKG5vMSlbTkhdQyg9TylbTkhdW0NIXTJbQ0gyXVtDSDJdW0NIMl1bQ0gyXVtDSDJdW0NIMl0y

> <s_epik_cmdline>
J2VwaWtfcHl0aG9uJywgJy1waCcsICc3LjAnLCAnLXRuJywgJzgnLCAnLW1hJywgJzIwMCcsICctbWV0YWxfYmluZGluZycsICctaW1hZScsICc8aW5maWxlLm1hZT4nLCAnLW9tYWUnLCAnPG91dGZpbGUubWFlPic=

> <r_lp_tautomer_probability>
1

> <r_epik_Ionization_Penalty>
2.39396e-05

> <r_epik_Ionization_Penalty_Charging>
0

> <r_epik_Ionization_Penalty_Neutral>
2.39396e-05

> <r_epik_State_Penalty>
-0

> <r_epik_Charging_Adjusted_Penalty>
0

> <i_epik_Tot_Q>
0

> <i_epik_Tot_abs_Q>
0

> <r_epik_Metal_State_Penalty>
-0

> <b_epik_Metal_Only>
0

> <s_lp_Force_Field>
OPLS_2005

> <r_lp_Energy>
12.5841

> <b_lp_Chiralities_Consistent>
1

> <s_lp_Variant>
AV-unprocessed.smi:606-1

> <Gold.Version>
5.8.1

> <Gold.Id.Protein>
6NUR|6NUR_protein|mol2

> <Gold.PLP.Fitness>
39.0118

> <Gold.PLP.PLP>
-36.4385

> <Gold.PLP.part.hbond>
-1.0000

> <Gold.PLP.part.metal>
0.0000

> <Gold.PLP.part.buried>
-0.5462

> <Gold.PLP.part.nonpolar>
-36.2529

> <Gold.PLP.part.repulsive>
0.4559

> <Gold.PLP.ligand.clash>
0.0000

> <Gold.PLP.ligand.torsion>
0.2203

> <Gold.PLP.Chemscore.Hbond>
1.0000

> <Gold.PLP.Chemscore.CHOScore>
0.0000

> <Gold.PLP.Chemscore.Metal>
0.0000

> <Gold.Chemscore.Hbonds>
donor molecule, donor type, donor heavy atom, donor atom, acceptor molecule, acceptor atom, score
      L1  H     8    23       P1  8028  1.00

> <Gold.PLP.Chemscore.Internal.Correction>
0.0138

> <Gold.Rescore>
     Score         DG    S(hbond)    S(metal)    S(lipo)     H(rot)  DE(clash)    DE(int)     intcor
     16.91     -18.25       1.00        0.00     102.50       1.00       0.03       1.32       ----

> <Gold.Chemscore.Fitness>
16.9060

> <Gold.Chemscore.DG>
-18.2529

> <Gold.Chemscore.ZeroCoef>
-5.4800

> <Gold.Chemscore.Hbond>
1.0000

> <Gold.Chemscore.Metal>
0.0000

> <Gold.Chemscore.Lipo>
102.5031

> <Gold.Chemscore.Internal_Hbond>
0.0000

> <Gold.Chemscore.DEClash>
0.0302

> <Gold.Chemscore.DEInternal>
1.3167

> <Gold.Chemscore.Rot>
1.0000

> <Gold.Chemscore.Internal.Correction>
   9.000000E+99

> <Gold.Chemscore.Hbonds>
donor molecule, donor type, donor heavy atom, donor atom, acceptor molecule, acceptor atom, score
      L1  H     5    22       P1  8028  0.01
      L1  H     8    23       P1  8028  1.00

> <Gold.Chemscore.Hbond.Weighted>
-3.3400

> <Gold.Chemscore.Metal.Weighted>
-0.0000

> <Gold.Chemscore.Lipo.Weighted>
-11.9929

> <Gold.Chemscore.Internal_Hbond.Weighted>
0.0000

> <Gold.Chemscore.DEClash.Weighted>
0.0302

> <Gold.Chemscore.DEInternal.Weighted>
1.3167

> <Gold.Chemscore.Rot.Weighted>
2.5600

> <Gold.Chemscore.Internal.Correction.Weighted>
   9.000000E+99

> <Gold.Protein.RotatedTorsions>
[ 6907 6896 6895 6894 ] final  -37.27 input  -60.11 | X-H torsion
[ 7974 7965 7964 7962 ] final   -7.34 input  175.53 | X-H torsion
[ 8008 7997 7996 7995 ] final -124.93 input   59.86 | X-H torsion
[ 10167 10162 10161 10158 ] final   13.08 input  -65.29 | X-H torsion
[ 10718 10713 10712 10709 ] final  -21.83 input   66.30 | X-H torsion
[ 10763 10752 10751 10750 ] final -158.48 input  -60.55 | X-H torsion
[ 11005 11000 10999 10996 ] final  152.36 input  -57.11 | X-H torsion

> <Gold.Protein.ActiveResidues>
 VAL166  LYS551  ARG553  GLY616  TRP617  ASP618  TYR619  PRO620  LYS621  CYS622 
 ASP623  PHE694  ASN695  SER759  ASP760  ASP761  ALA762  ILE779  LEU786  VAL792 
 PHE793  MET794  SER795  GLU796  ALA797  LYS798  CYS799  TRP800  GLU811  SER814 

> <Gold.Protein.RotatedAtoms>
  151.0168  134.9439  159.8037 H   0  0  0  0  0  0  0  0  0  0  0  0  # atno 6907 bound_to 6896
  152.5316  134.2955  159.9069 H   0  0  0  0  0  0  0  0  0  0  0  0  # atno 6908 bound_to 6896
  151.2962  133.4101  159.2670 H   0  0  0  0  0  0  0  0  0  0  0  0  # atno 6909 bound_to 6896
  146.2309  140.2305  142.8340 H   0  0  0  0  0  0  0  0  0  0  0  0  # atno 7974 bound_to 7965
  155.2049  140.0417  157.2923 H   0  0  0  0  0  0  0  0  0  0  0  0  # atno 8008 bound_to 7997
  154.6050  140.2462  155.7714 H   0  0  0  0  0  0  0  0  0  0  0  0  # atno 8009 bound_to 7997
  156.2344  140.2926  156.0284 H   0  0  0  0  0  0  0  0  0  0  0  0  # atno 8010 bound_to 7997
  140.6026  143.8573  150.6981 H   0  0  0  0  0  0  0  0  0  0  0  0  # atno 10167 bound_to 10162
  156.5129  130.4614  149.6638 H   0  0  0  0  0  0  0  0  0  0  0  0  # atno 10718 bound_to 10713
  154.7553  135.3103  154.8481 H   0  0  0  0  0  0  0  0  0  0  0  0  # atno 10763 bound_to 10752
  153.9256  135.6791  153.4751 H   0  0  0  0  0  0  0  0  0  0  0  0  # atno 10764 bound_to 10752
  153.1150  135.4848  154.9030 H   0  0  0  0  0  0  0  0  0  0  0  0  # atno 10765 bound_to 10752
  140.1301  134.8808  157.2191 H   0  0  0  0  0  0  0  0  0  0  0  0  # atno 11005 bound_to 11000
  144.9561  140.8228  143.5542 LP  0  0  0  0  0  0  0  0  0  0  0  0  # atno 17320 bound_to 7965
  145.2271  139.2132  143.5062 LP  0  0  0  0  0  0  0  0  0  0  0  0  # atno 17321 bound_to 7965
  140.2123  143.3874  152.1709 LP  0  0  0  0  0  0  0  0  0  0  0  0  # atno 17342 bound_to 10162
  139.5302  144.7150  151.5084 LP  0  0  0  0  0  0  0  0  0  0  0  0  # atno 17343 bound_to 10162
  156.3223  130.7287  151.2201 LP  0  0  0  0  0  0  0  0  0  0  0  0  # atno 17370 bound_to 10713
  157.7448  131.0452  150.4832 LP  0  0  0  0  0  0  0  0  0  0  0  0  # atno 17371 bound_to 10713
  140.2853  134.3302  155.7331 LP  0  0  0  0  0  0  0  0  0  0  0  0  # atno 17394 bound_to 11000
  141.2168  133.7503  156.9424 LP  0  0  0  0  0  0  0  0  0  0  0  0  # atno 17395 bound_to 11000

$$$$
