AV-unprocessed.smi:1605|AV-procd|sdf|6455|dock1
  -GOLD-   22720 7103D 1   1.00000     0.00000
 Structure written by MMmdl.
 52 54  0  0  0  0  0  0  0  0  3 V2000
  151.0040  141.2873  156.3915 C   0  0  0  0  0  0  0  0  0  0  0  0
  150.9012  140.2451  155.4333 O   0  0  0  0  0  0  0  0  0  0  0  0
  149.5671  139.8739  155.1122 C   0  0  2  0  0  0  0  0  0  0  0  0
  149.6256  138.5578  154.3230 C   0  0  0  0  0  0  0  0  0  0  0  0
  148.2268  138.1301  153.8493 C   0  0  0  0  0  0  0  0  0  0  0  0
  147.5945  139.1937  153.0244 N   0  3  1  0  0  0  0  0  0  0  0  0
  146.2937  138.7878  152.4318 C   0  0  0  0  0  0  0  0  0  0  0  0
  146.3502  137.4054  151.7507 C   0  0  2  0  0  0  0  0  0  0  0  0
  146.2931  137.5909  150.3499 O   0  0  0  0  0  0  0  0  0  0  0  0
  145.1826  136.5058  152.2038 C   0  0  0  0  0  0  0  0  0  0  0  0
  144.9269  135.3833  151.2884 N   0  0  0  0  0  0  0  0  0  0  0  0
  144.2922  135.3717  150.0842 C   0  0  0  0  0  0  0  0  0  0  0  0
  144.3223  134.0936  149.6156 N   0  3  0  0  0  0  0  0  0  0  0  0
  144.9867  133.2761  150.5322 C   0  0  0  0  0  0  0  0  0  0  0  0
  145.2665  131.9150  150.5017 C   0  0  0  0  0  0  0  0  0  0  0  0
  145.9658  131.3753  151.6046 C   0  0  0  0  0  0  0  0  0  0  0  0
  146.2867  129.8903  151.6038 C   0  0  0  0  0  0  0  0  0  0  0  0
  146.3623  132.1980  152.6906 C   0  0  0  0  0  0  0  0  0  0  0  0
  147.1108  131.6074  153.8735 C   0  0  0  0  0  0  0  0  0  0  0  0
  146.0703  133.5806  152.7014 C   0  0  0  0  0  0  0  0  0  0  0  0
  145.3789  134.0967  151.6078 C   0  0  0  0  0  0  0  0  0  0  0  0
  147.4959  140.4738  153.7722 C   0  0  0  0  0  0  0  0  0  0  0  0
  148.8775  140.9493  154.2523 C   0  0  0  0  0  0  0  0  0  0  0  0
  152.0552  141.4790  156.6062 H   0  0  0  0  0  0  0  0  0  0  0  0
  150.5173  141.0130  157.3283 H   0  0  0  0  0  0  0  0  0  0  0  0
  150.5676  142.2178  156.0293 H   0  0  0  0  0  0  0  0  0  0  0  0
  148.9967  139.7044  156.0276 H   0  0  0  0  0  0  0  0  0  0  0  0
  150.2826  138.6736  153.4595 H   0  0  0  0  0  0  0  0  0  0  0  0
  150.0631  137.7730  154.9410 H   0  0  0  0  0  0  0  0  0  0  0  0
  148.3164  137.2070  153.2782 H   0  0  0  0  0  0  0  0  0  0  0  0
  147.5925  137.9081  154.7091 H   0  0  0  0  0  0  0  0  0  0  0  0
  145.5256  138.8033  153.2068 H   0  0  0  0  0  0  0  0  0  0  0  0
  145.9850  139.5229  151.6865 H   0  0  0  0  0  0  0  0  0  0  0  0
  147.2856  136.8994  151.9870 H   0  0  0  0  0  0  0  0  0  0  0  0
  145.4739  138.0112  150.1350 H   0  0  0  0  0  0  0  0  0  0  0  0
  145.4093  136.0734  153.1793 H   0  0  0  0  0  0  0  0  0  0  0  0
  144.2646  137.0797  152.3334 H   0  0  0  0  0  0  0  0  0  0  0  0
  143.8486  136.2223  149.5869 H   0  0  0  0  0  0  0  0  0  0  0  0
  144.9628  131.2949  149.6709 H   0  0  0  0  0  0  0  0  0  0  0  0
  147.3654  129.7337  151.5927 H   0  0  0  0  0  0  0  0  0  0  0  0
  145.8685  129.3923  150.7286 H   0  0  0  0  0  0  0  0  0  0  0  0
  145.8743  129.4069  152.4897 H   0  0  0  0  0  0  0  0  0  0  0  0
  147.3856  132.3766  154.5959 H   0  0  0  0  0  0  0  0  0  0  0  0
  148.0284  131.1191  153.5443 H   0  0  0  0  0  0  0  0  0  0  0  0
  146.4912  130.8726  154.3880 H   0  0  0  0  0  0  0  0  0  0  0  0
  146.3704  134.2034  153.5310 H   0  0  0  0  0  0  0  0  0  0  0  0
  147.0595  141.2421  153.1329 H   0  0  0  0  0  0  0  0  0  0  0  0
  146.8237  140.3494  154.6229 H   0  0  0  0  0  0  0  0  0  0  0  0
  148.7611  141.8757  154.8140 H   0  0  0  0  0  0  0  0  0  0  0  0
  149.5018  141.1866  153.3894 H   0  0  0  0  0  0  0  0  0  0  0  0
  148.2131  139.3718  152.2454 H   0  0  0  0  0  0  0  0  0  0  0  0
  143.9209  133.8034  148.7330 H   0  0  0  0  0  0  0  0  0  0  0  0
  1  2  1  0  0  0  0
  1 24  1  0  0  0  0
  1 25  1  0  0  0  0
  1 26  1  0  0  0  0
  2  3  1  0  0  0  0
  3 23  1  0  0  0  0
  3  4  1  0  0  0  0
  3 27  1  0  0  0  0
  4  5  1  0  0  0  0
  4 28  1  0  0  0  0
  4 29  1  0  0  0  0
  5  6  1  0  0  0  0
  5 30  1  0  0  0  0
  5 31  1  0  0  0  0
  6  7  1  0  0  0  0
  6 22  1  0  0  0  0
  6 51  1  0  0  0  0
  7  8  1  0  0  0  0
  7 32  1  0  0  0  0
  7 33  1  0  0  0  0
  8  9  1  0  0  0  0
  8 10  1  0  0  0  0
  8 34  1  0  0  0  0
  9 35  1  0  0  0  0
 10 11  1  0  0  0  0
 10 36  1  0  0  0  0
 10 37  1  0  0  0  0
 11 21  1  0  0  0  0
 11 12  1  0  0  0  0
 12 13  2  0  0  0  0
 12 38  1  0  0  0  0
 13 14  1  0  0  0  0
 13 52  1  0  0  0  0
 14 21  2  0  0  0  0
 14 15  1  0  0  0  0
 15 16  2  0  0  0  0
 15 39  1  0  0  0  0
 16 17  1  0  0  0  0
 16 18  1  0  0  0  0
 17 40  1  0  0  0  0
 17 41  1  0  0  0  0
 17 42  1  0  0  0  0
 18 19  1  0  0  0  0
 18 20  2  0  0  0  0
 19 43  1  0  0  0  0
 19 44  1  0  0  0  0
 19 45  1  0  0  0  0
 20 21  1  0  0  0  0
 20 46  1  0  0  0  0
 22 23  1  0  0  0  0
 22 47  1  0  0  0  0
 22 48  1  0  0  0  0
 23 49  1  0  0  0  0
 23 50  1  0  0  0  0
M  CHG  1   6   1
M  CHG  1  13   1
M  END
> <s_m_source_file>
AV-unprocessed.smi

> <i_m_source_file_index>
1605

> <i_lp_mmshare_version>
43012

> <i_f3d_flags>
0

> <s_epik_input>
W0NIM11PW0NIXTFbQ0gyXVtDSDJdTihbQ0gyXVtDSDJdMSlbQ0gyXVtDQEhdKFtPSF0pW0NIMl1uKFtjSF1uMiljKGMyMylbY0hdYyhbQ0gzXSljKFtjSF0zKVtDSDNd

> <s_epik_cmdline>
J2VwaWtfcHl0aG9uJywgJy1waCcsICc3LjAnLCAnLXRuJywgJzgnLCAnLW1hJywgJzIwMCcsICctbWV0YWxfYmluZGluZycsICctaW1hZScsICc8aW5maWxlLm1hZT4nLCAnLW9tYWUnLCAnPG91dGZpbGUubWFlPic=

> <r_epik_Ionization_Penalty>
1.19848

> <r_epik_Ionization_Penalty_Charging>
1.19848

> <r_epik_Ionization_Penalty_Neutral>
1.67134e-06

> <r_epik_State_Penalty>
1.2782

> <r_epik_Charging_Adjusted_Penalty>
2.47668

> <i_epik_Tot_Q>
2

> <i_epik_Tot_abs_Q>
2

> <r_epik_Metal_State_Penalty>
5.29544

> <b_epik_Metal_Only>
0

> <s_lp_Force_Field>
OPLS_2005

> <r_lp_Energy>
31.9631

> <b_lp_Chiralities_Consistent>
1

> <s_lp_Variant>
AV-unprocessed.smi:1605-5

> <Gold.Version>
5.8.1

> <Gold.Id.Protein>
6NUR|6NUR_protein|mol2

> <Gold.PLP.Fitness>
55.5205

> <Gold.PLP.PLP>
-43.3595

> <Gold.PLP.part.hbond>
-5.2297

> <Gold.PLP.part.metal>
0.0000

> <Gold.PLP.part.buried>
2.1080

> <Gold.PLP.part.nonpolar>
-39.8086

> <Gold.PLP.part.repulsive>
0.1743

> <Gold.PLP.ligand.clash>
0.0042

> <Gold.PLP.ligand.torsion>
1.2221

> <Gold.PLP.Chemscore.Hbond>
3.8240

> <Gold.PLP.Chemscore.CHOScore>
1.0000

> <Gold.PLP.Chemscore.Metal>
0.0000

> <Gold.Chemscore.Hbonds>
donor molecule, donor type, donor heavy atom, donor atom, acceptor molecule, acceptor atom, score
      L1  H     6    51       P1  7957  1.00
      L1  H     9    35       P1 10171  1.00
      P1  H  7954  7966       L1     9  0.83
      P1  H  7989  7998       L1     2  0.68
      L1  C    12    38       P1 10171  1.00

> <Gold.PLP.Chemscore.Internal.Correction>
0.1374

> <Gold.Rescore>
     Score         DG    S(hbond)    S(metal)    S(lipo)     H(rot)  DE(clash)    DE(int)     intcor
     17.57     -21.15       2.86        0.00     102.20       2.28       1.32       2.26       ----

> <Gold.Chemscore.Fitness>
17.5735

> <Gold.Chemscore.DG>
-21.1532

> <Gold.Chemscore.ZeroCoef>
-5.4800

> <Gold.Chemscore.Hbond>
2.8630

> <Gold.Chemscore.Metal>
0.0000

> <Gold.Chemscore.Lipo>
102.2030

> <Gold.Chemscore.Internal_Hbond>
0.0000

> <Gold.Chemscore.DEClash>
1.3176

> <Gold.Chemscore.DEInternal>
2.2620

> <Gold.Chemscore.Rot>
2.2839

> <Gold.Chemscore.Internal.Correction>
   9.000000E+99

> <Gold.Chemscore.Hbonds>
donor molecule, donor type, donor heavy atom, donor atom, acceptor molecule, acceptor atom, score
      L1  H     6    51       P1  7957  1.00
      L1  H     9    35       P1 10171  1.00
      P1  H  7954  7966       L1     9  0.32
      P1  H  7989  7998       L1     2  0.16

> <Gold.Chemscore.Hbond.Weighted>
-9.5623

> <Gold.Chemscore.Metal.Weighted>
-0.0000

> <Gold.Chemscore.Lipo.Weighted>
-11.9578

> <Gold.Chemscore.Internal_Hbond.Weighted>
0.0000

> <Gold.Chemscore.DEClash.Weighted>
1.3176

> <Gold.Chemscore.DEInternal.Weighted>
2.2620

> <Gold.Chemscore.Rot.Weighted>
5.8469

> <Gold.Chemscore.Internal.Correction.Weighted>
   9.000000E+99

> <Gold.Protein.RotatedTorsions>
[ 6907 6896 6895 6894 ] final  122.56 input  -60.11 | X-H torsion
[ 7974 7965 7964 7962 ] final  179.91 input  175.53 | X-H torsion
[ 8008 7997 7996 7995 ] final   35.01 input   59.86 | X-H torsion
[ 10167 10162 10161 10158 ] final   13.00 input  -65.29 | X-H torsion
[ 10718 10713 10712 10709 ] final -108.46 input   66.30 | X-H torsion
[ 10763 10752 10751 10750 ] final  142.55 input  -60.55 | X-H torsion
[ 11005 11000 10999 10996 ] final -106.82 input  -57.11 | X-H torsion

> <Gold.Protein.ActiveResidues>
 VAL166  LYS551  ARG553  GLY616  TRP617  ASP618  TYR619  PRO620  LYS621  CYS622 
 ASP623  PHE694  ASN695  SER759  ASP760  ASP761  ALA762  ILE779  LEU786  VAL792 
 PHE793  MET794  SER795  GLU796  ALA797  LYS798  CYS799  TRP800  GLU811  SER814 

> <Gold.Protein.RotatedAtoms>
  152.4233  133.7153  159.6501 H   0  0  0  0  0  0  0  0  0  0  0  0  # atno 6907 bound_to 6896
  150.8109  133.8412  159.3188 H   0  0  0  0  0  0  0  0  0  0  0  0  # atno 6908 bound_to 6896
  151.6123  135.1041  160.0135 H   0  0  0  0  0  0  0  0  0  0  0  0  # atno 6909 bound_to 6896
  144.7141  140.0619  143.6432 H   0  0  0  0  0  0  0  0  0  0  0  0  # atno 7974 bound_to 7965
  155.1641  140.3286  155.4405 H   0  0  0  0  0  0  0  0  0  0  0  0  # atno 8008 bound_to 7997
  156.2533  140.1955  156.6697 H   0  0  0  0  0  0  0  0  0  0  0  0  # atno 8009 bound_to 7997
  154.6384  140.0573  156.9803 H   0  0  0  0  0  0  0  0  0  0  0  0  # atno 8010 bound_to 7997
  140.6031  143.8563  150.6986 H   0  0  0  0  0  0  0  0  0  0  0  0  # atno 10167 bound_to 10162
  156.0487  130.5714  150.7965 H   0  0  0  0  0  0  0  0  0  0  0  0  # atno 10718 bound_to 10713
  153.9577  135.2963  155.3435 H   0  0  0  0  0  0  0  0  0  0  0  0  # atno 10763 bound_to 10752
  154.7392  135.5032  153.9096 H   0  0  0  0  0  0  0  0  0  0  0  0  # atno 10764 bound_to 10752
  153.0962  135.6722  153.9868 H   0  0  0  0  0  0  0  0  0  0  0  0  # atno 10765 bound_to 10752
  141.0985  133.8927  157.1902 H   0  0  0  0  0  0  0  0  0  0  0  0  # atno 11005 bound_to 11000
  145.9857  139.2975  143.1015 LP  0  0  0  0  0  0  0  0  0  0  0  0  # atno 17320 bound_to 7965
  145.8960  140.9273  143.0527 LP  0  0  0  0  0  0  0  0  0  0  0  0  # atno 17321 bound_to 7965
  140.2114  143.3880  152.1715 LP  0  0  0  0  0  0  0  0  0  0  0  0  # atno 17342 bound_to 10162
  139.5305  144.7154  151.5072 LP  0  0  0  0  0  0  0  0  0  0  0  0  # atno 17343 bound_to 10162
  157.5390  131.0940  150.9853 LP  0  0  0  0  0  0  0  0  0  0  0  0  # atno 17370 bound_to 10713
  157.0140  130.5648  149.5324 LP  0  0  0  0  0  0  0  0  0  0  0  0  # atno 17371 bound_to 10713
  139.9829  135.0092  156.9793 LP  0  0  0  0  0  0  0  0  0  0  0  0  # atno 17394 bound_to 11000
  140.5080  134.1030  155.7264 LP  0  0  0  0  0  0  0  0  0  0  0  0  # atno 17395 bound_to 11000

$$$$
