AV-unprocessed.smi:3027|AV-procd|sdf|11515|dock6
  -GOLD-   2272016453D 1   1.00000     0.00000
 Structure written by MMmdl.
 37 38  0  0  0  0  0  0  0  0  2 V2000
  144.4260  133.9610  151.3506 C   0  0  0  0  0  0  0  0  0  0  0  0
  145.1340  135.1690  151.8929 C   0  0  0  0  0  0  0  0  0  0  0  0
  145.7871  135.3085  153.1505 C   0  0  0  0  0  0  0  0  0  0  0  0
  146.3124  136.5101  153.3266 N   0  0  0  0  0  0  0  0  0  0  0  0
  146.0168  137.1768  152.1908 N   0  0  0  0  0  0  0  0  0  0  0  0
  146.4416  138.5551  152.0271 C   0  0  0  0  0  0  0  0  0  0  0  0
  147.2687  139.0740  153.2243 C   0  0  2  0  0  0  0  0  0  0  0  0
  147.1555  140.5973  153.4015 C   0  0  0  0  0  0  0  0  0  0  0  0
  148.6948  138.7057  153.0685 N   0  3  0  0  0  0  0  0  0  0  0  0
  149.5233  138.7927  154.2927 C   0  0  0  0  0  0  0  0  0  0  0  0
  149.8558  140.2393  154.6591 C   0  0  0  0  0  0  0  0  0  0  0  0
  151.0698  140.1364  155.5891 C   0  0  0  0  0  0  0  0  0  0  0  0
  151.7454  138.7940  155.2657 C   0  0  0  0  0  0  0  0  0  0  0  0
  150.9043  138.1456  154.1607 C   0  0  0  0  0  0  0  0  0  0  0  0
  145.3042  136.3922  151.3093 C   0  0  0  0  0  0  0  0  0  0  0  0
  144.7643  133.0431  151.8319 H   0  0  0  0  0  0  0  0  0  0  0  0
  144.5932  133.8418  150.2800 H   0  0  0  0  0  0  0  0  0  0  0  0
  143.3486  134.0256  151.5034 H   0  0  0  0  0  0  0  0  0  0  0  0
  145.8932  134.5755  153.9367 H   0  0  0  0  0  0  0  0  0  0  0  0
  147.0153  138.6119  151.1031 H   0  0  0  0  0  0  0  0  0  0  0  0
  145.5599  139.1811  151.8780 H   0  0  0  0  0  0  0  0  0  0  0  0
  146.8873  138.6170  154.1389 H   0  0  0  0  0  0  0  0  0  0  0  0
  146.1307  140.9019  153.6146 H   0  0  0  0  0  0  0  0  0  0  0  0
  147.4800  141.1264  152.5050 H   0  0  0  0  0  0  0  0  0  0  0  0
  147.7714  140.9425  154.2325 H   0  0  0  0  0  0  0  0  0  0  0  0
  148.7597  137.7769  152.6771 H   0  0  0  0  0  0  0  0  0  0  0  0
  148.9860  138.3390  155.1275 H   0  0  0  0  0  0  0  0  0  0  0  0
  150.1350  140.7969  153.7636 H   0  0  0  0  0  0  0  0  0  0  0  0
  149.0173  140.7595  155.1242 H   0  0  0  0  0  0  0  0  0  0  0  0
  151.7488  140.9786  155.4518 H   0  0  0  0  0  0  0  0  0  0  0  0
  150.7475  140.1445  156.6311 H   0  0  0  0  0  0  0  0  0  0  0  0
  152.7818  138.9234  154.9515 H   0  0  0  0  0  0  0  0  0  0  0  0
  151.7516  138.1614  156.1541 H   0  0  0  0  0  0  0  0  0  0  0  0
  150.8715  137.0594  154.2527 H   0  0  0  0  0  0  0  0  0  0  0  0
  151.3398  138.3864  153.1896 H   0  0  0  0  0  0  0  0  0  0  0  0
  144.9803  136.7656  150.3488 H   0  0  0  0  0  0  0  0  0  0  0  0
  149.0940  139.3553  152.4058 H   0  0  0  0  0  0  0  0  0  0  0  0
  1  2  1  0  0  0  0
  1 16  1  0  0  0  0
  1 17  1  0  0  0  0
  1 18  1  0  0  0  0
  2 15  2  0  0  0  0
  2  3  1  0  0  0  0
  3  4  2  0  0  0  0
  3 19  1  0  0  0  0
  4  5  1  0  0  0  0
  5  6  1  0  0  0  0
  5 15  1  0  0  0  0
  6  7  1  0  0  0  0
  6 20  1  0  0  0  0
  6 21  1  0  0  0  0
  7  8  1  0  0  0  0
  7  9  1  0  0  0  0
  7 22  1  0  0  0  0
  8 23  1  0  0  0  0
  8 24  1  0  0  0  0
  8 25  1  0  0  0  0
  9 10  1  0  0  0  0
  9 26  1  0  0  0  0
  9 37  1  0  0  0  0
 10 14  1  0  0  0  0
 10 11  1  0  0  0  0
 10 27  1  0  0  0  0
 11 12  1  0  0  0  0
 11 28  1  0  0  0  0
 11 29  1  0  0  0  0
 12 13  1  0  0  0  0
 12 30  1  0  0  0  0
 12 31  1  0  0  0  0
 13 14  1  0  0  0  0
 13 32  1  0  0  0  0
 13 33  1  0  0  0  0
 14 34  1  0  0  0  0
 14 35  1  0  0  0  0
 15 36  1  0  0  0  0
M  CHG  1   9   1
M  END
> <s_m_source_file>
AV-unprocessed.smi

> <i_m_source_file_index>
3027

> <i_lp_mmshare_version>
43012

> <i_f3d_flags>
0

> <s_epik_input>
W0NIM11jMVtjSF1ubihbY0hdMSlbQ0gyXVtDQEhdKFtDSDNdKVtOSF1bQ0hdMltDSDJdW0NIMl1bQ0gyXVtDSDJdMg==

> <s_epik_cmdline>
J2VwaWtfcHl0aG9uJywgJy1waCcsICc3LjAnLCAnLXRuJywgJzgnLCAnLW1hJywgJzIwMCcsICctbWV0YWxfYmluZGluZycsICctaW1hZScsICc8aW5maWxlLm1hZT4nLCAnLW9tYWUnLCAnPG91dGZpbGUubWFlPic=

> <r_lp_tautomer_probability>
1

> <r_epik_Ionization_Penalty>
0.00150056

> <r_epik_Ionization_Penalty_Charging>
0.00149132

> <r_epik_Ionization_Penalty_Neutral>
9.24096e-06

> <r_epik_State_Penalty>
0.00099871

> <r_epik_Charging_Adjusted_Penalty>
0.00249003

> <i_epik_Tot_Q>
1

> <i_epik_Tot_abs_Q>
1

> <r_epik_Metal_State_Penalty>
-0

> <b_epik_Metal_Only>
0

> <s_lp_Force_Field>
OPLS_2005

> <r_lp_Energy>
26.7441

> <b_lp_Chiralities_Consistent>
1

> <s_lp_Variant>
AV-unprocessed.smi:3027-1

> <Gold.Version>
5.8.1

> <Gold.Id.Protein>
6NUR|6NUR_protein|mol2

> <Gold.PLP.Fitness>
42.5033

> <Gold.PLP.PLP>
-31.5791

> <Gold.PLP.part.hbond>
-1.9263

> <Gold.PLP.part.metal>
0.0000

> <Gold.PLP.part.buried>
-0.8719

> <Gold.PLP.part.nonpolar>
-30.5937

> <Gold.PLP.part.repulsive>
0.8541

> <Gold.PLP.ligand.clash>
0.0000

> <Gold.PLP.ligand.torsion>
0.4966

> <Gold.PLP.Chemscore.Hbond>
2.9913

> <Gold.PLP.Chemscore.CHOScore>
0.9778

> <Gold.PLP.Chemscore.Metal>
0.0000

> <Gold.Chemscore.Hbonds>
donor molecule, donor type, donor heavy atom, donor atom, acceptor molecule, acceptor atom, score
      L1  H     9    26       P1  7948  2.00
      L1  H     9    37       P1  7957  0.93
      L1  C    15    36       P1 10171  1.00

> <Gold.PLP.Chemscore.Internal.Correction>
0.0100

> <Gold.Rescore>
     Score         DG    S(hbond)    S(metal)    S(lipo)     H(rot)  DE(clash)    DE(int)     intcor
     16.35     -17.16       1.91        0.00      76.03       1.40       0.15       0.65       ----

> <Gold.Chemscore.Fitness>
16.3513

> <Gold.Chemscore.DG>
-17.1590

> <Gold.Chemscore.ZeroCoef>
-5.4800

> <Gold.Chemscore.Hbond>
1.9059

> <Gold.Chemscore.Metal>
0.0000

> <Gold.Chemscore.Lipo>
76.0257

> <Gold.Chemscore.Internal_Hbond>
0.0000

> <Gold.Chemscore.DEClash>
0.1536

> <Gold.Chemscore.DEInternal>
0.6541

> <Gold.Chemscore.Rot>
1.3991

> <Gold.Chemscore.Internal.Correction>
   9.000000E+99

> <Gold.Chemscore.Hbonds>
donor molecule, donor type, donor heavy atom, donor atom, acceptor molecule, acceptor atom, score
      L1  H     9    26       P1  7948  1.00
      L1  H     9    37       P1  7957  0.88

> <Gold.Chemscore.Hbond.Weighted>
-6.3658

> <Gold.Chemscore.Metal.Weighted>
-0.0000

> <Gold.Chemscore.Lipo.Weighted>
-8.8950

> <Gold.Chemscore.Internal_Hbond.Weighted>
0.0000

> <Gold.Chemscore.DEClash.Weighted>
0.1536

> <Gold.Chemscore.DEInternal.Weighted>
0.6541

> <Gold.Chemscore.Rot.Weighted>
3.5818

> <Gold.Chemscore.Internal.Correction.Weighted>
   9.000000E+99

> <Gold.Protein.RotatedTorsions>
[ 6907 6896 6895 6894 ] final   -7.53 input  -60.11 | X-H torsion
[ 7974 7965 7964 7962 ] final  179.65 input  175.53 | X-H torsion
[ 8008 7997 7996 7995 ] final  141.74 input   59.86 | X-H torsion
[ 10167 10162 10161 10158 ] final   16.13 input  -65.29 | X-H torsion
[ 10718 10713 10712 10709 ] final  175.75 input   66.30 | X-H torsion
[ 10763 10752 10751 10750 ] final  143.94 input  -60.55 | X-H torsion
[ 11005 11000 10999 10996 ] final    8.55 input  -57.11 | X-H torsion

> <Gold.Protein.ActiveResidues>
 VAL166  LYS551  ARG553  GLY616  TRP617  ASP618  TYR619  PRO620  LYS621  CYS622 
 ASP623  PHE694  ASN695  SER759  ASP760  ASP761  ALA762  ILE779  LEU786  VAL792 
 PHE793  MET794  SER795  GLU796  ALA797  LYS798  CYS799  TRP800  GLU811  SER814 

> <Gold.Protein.RotatedAtoms>
  151.4482  135.1027  159.9689 H   0  0  0  0  0  0  0  0  0  0  0  0  # atno 6907 bound_to 6896
  152.4898  133.8465  159.7190 H   0  0  0  0  0  0  0  0  0  0  0  0  # atno 6908 bound_to 6896
  150.9041  133.7022  159.2899 H   0  0  0  0  0  0  0  0  0  0  0  0  # atno 6909 bound_to 6896
  144.7144  140.0580  143.6433 H   0  0  0  0  0  0  0  0  0  0  0  0  # atno 7974 bound_to 7965
  156.2961  140.2307  156.4613 H   0  0  0  0  0  0  0  0  0  0  0  0  # atno 8008 bound_to 7997
  154.8015  140.0448  157.1297 H   0  0  0  0  0  0  0  0  0  0  0  0  # atno 8009 bound_to 7997
  154.9527  140.3044  155.5071 H   0  0  0  0  0  0  0  0  0  0  0  0  # atno 8010 bound_to 7997
  140.5819  143.8965  150.6797 H   0  0  0  0  0  0  0  0  0  0  0  0  # atno 10167 bound_to 10162
  156.9302  130.9968  151.2988 H   0  0  0  0  0  0  0  0  0  0  0  0  # atno 10718 bound_to 10713
  153.9807  135.2941  155.3420 H   0  0  0  0  0  0  0  0  0  0  0  0  # atno 10763 bound_to 10752
  154.7270  135.5084  153.8906 H   0  0  0  0  0  0  0  0  0  0  0  0  # atno 10764 bound_to 10752
  153.0856  135.6692  154.0071 H   0  0  0  0  0  0  0  0  0  0  0  0  # atno 10765 bound_to 10752
  140.5357  134.0423  155.7887 H   0  0  0  0  0  0  0  0  0  0  0  0  # atno 11005 bound_to 11000
  145.9888  139.2998  143.0997 LP  0  0  0  0  0  0  0  0  0  0  0  0  # atno 17320 bound_to 7965
  145.8927  140.9293  143.0544 LP  0  0  0  0  0  0  0  0  0  0  0  0  # atno 17321 bound_to 7965
  140.2466  143.3624  152.1441 LP  0  0  0  0  0  0  0  0  0  0  0  0  # atno 17342 bound_to 10162
  139.5174  144.6992  151.5543 LP  0  0  0  0  0  0  0  0  0  0  0  0  # atno 17343 bound_to 10162
  157.5851  130.8404  149.8578 LP  0  0  0  0  0  0  0  0  0  0  0  0  # atno 17370 bound_to 10713
  156.0450  130.3730  150.1339 LP  0  0  0  0  0  0  0  0  0  0  0  0  # atno 17371 bound_to 10713
  141.1256  133.9389  157.2642 LP  0  0  0  0  0  0  0  0  0  0  0  0  # atno 17394 bound_to 11000
  139.9530  135.0171  156.9049 LP  0  0  0  0  0  0  0  0  0  0  0  0  # atno 17395 bound_to 11000

$$$$
