AV-unprocessed.smi:227|AV-procd|sdf|1727|dock1
  -GOLD-   2262020213D 1   1.00000     0.00000
 Structure written by MMmdl.
 54 58  0  0  0  0  0  0  0  0  1 V2000
  146.0108  133.0053  158.5725 O   0  0  0  0  0  0  0  0  0  0  0  0
  146.5506  133.2528  159.8540 C   0  0  0  0  0  0  0  0  0  0  0  0
  147.1384  134.6840  159.9519 C   0  0  2  0  0  0  0  0  0  0  0  0
  148.2428  134.9031  158.8762 C   0  0  0  0  0  0  0  0  0  0  0  0
  148.5312  136.3014  158.5894 N   0  0  0  0  0  0  0  0  0  0  0  0
  147.6945  137.2112  157.9848 C   0  0  0  0  0  0  0  0  0  0  0  0
  148.1874  138.4098  157.8425 N   0  0  0  0  0  0  0  0  0  0  0  0
  149.4681  138.3268  158.3771 C   0  0  0  0  0  0  0  0  0  0  0  0
  150.5455  139.2467  158.5507 C   0  0  0  0  0  0  0  0  0  0  0  0
  150.5174  140.5583  158.1821 N   0  0  0  0  0  0  0  0  0  0  0  0
  151.5693  141.1435  157.3634 C   0  0  2  0  0  0  0  0  0  0  0  0
  151.2086  142.6386  157.3854 C   0  0  0  0  0  0  0  0  0  0  0  0
  149.6748  142.5789  157.4042 C   0  0  0  0  0  0  0  0  0  0  0  0
  149.4312  141.0592  157.3485 C   0  0  1  0  0  0  0  0  0  0  0  0
  149.7649  140.4804  155.9487 C   0  0  1  0  0  0  0  0  0  0  0  0
  149.0595  141.1411  154.7499 C   0  0  0  0  0  0  0  0  0  0  0  0
  149.7116  140.7816  153.5508 O   0  0  0  0  0  0  0  0  0  0  0  0
  151.3021  140.5873  155.9496 C   0  0  0  0  0  0  0  0  0  0  0  0
  151.6892  138.7625  159.1040 N   0  0  0  0  0  0  0  0  0  0  0  0
  151.7762  137.4849  159.4819 C   0  0  0  0  0  0  0  0  0  0  0  0
  150.8535  136.5271  159.3955 N   0  0  0  0  0  0  0  0  0  0  0  0
  149.7040  136.9967  158.8331 C   0  0  0  0  0  0  0  0  0  0  0  0
  147.6211  135.0038  161.4019 C   0  0  2  0  0  0  0  0  0  0  0  0
  146.5153  135.0388  162.4543 C   0  0  0  0  0  0  0  0  0  0  0  0
  145.9649  136.4617  162.3621 C   0  0  0  0  0  0  0  0  0  0  0  0
  147.0017  137.2433  161.7802 O   0  0  0  0  0  0  0  0  0  0  0  0
  148.1526  136.4321  161.5938 C   0  0  0  0  0  0  0  0  0  0  0  0
  146.6781  133.1856  157.9275 H   0  0  0  0  0  0  0  0  0  0  0  0
  145.7353  133.1008  160.5570 H   0  0  0  0  0  0  0  0  0  0  0  0
  147.3030  132.4985  160.0844 H   0  0  0  0  0  0  0  0  0  0  0  0
  146.3308  135.3785  159.7156 H   0  0  0  0  0  0  0  0  0  0  0  0
  149.1716  134.4223  159.1835 H   0  0  0  0  0  0  0  0  0  0  0  0
  147.9830  134.4104  157.9408 H   0  0  0  0  0  0  0  0  0  0  0  0
  146.6973  136.9619  157.6535 H   0  0  0  0  0  0  0  0  0  0  0  0
  152.5881  140.9787  157.7086 H   0  0  0  0  0  0  0  0  0  0  0  0
  151.5834  143.1179  158.2908 H   0  0  0  0  0  0  0  0  0  0  0  0
  151.6032  143.1807  156.5255 H   0  0  0  0  0  0  0  0  0  0  0  0
  149.2945  142.9899  158.3404 H   0  0  0  0  0  0  0  0  0  0  0  0
  149.2095  143.1347  156.5914 H   0  0  0  0  0  0  0  0  0  0  0  0
  148.4317  140.7927  157.6940 H   0  0  0  0  0  0  0  0  0  0  0  0
  149.4897  139.4241  155.9539 H   0  0  0  0  0  0  0  0  0  0  0  0
  148.0215  140.8127  154.6918 H   0  0  0  0  0  0  0  0  0  0  0  0
  149.0567  142.2278  154.8309 H   0  0  0  0  0  0  0  0  0  0  0  0
  149.1423  140.2091  153.0597 H   0  0  0  0  0  0  0  0  0  0  0  0
  151.6933  141.2392  155.1675 H   0  0  0  0  0  0  0  0  0  0  0  0
  151.7540  139.6029  155.8216 H   0  0  0  0  0  0  0  0  0  0  0  0
  152.7194  137.1891  159.9168 H   0  0  0  0  0  0  0  0  0  0  0  0
  148.3805  134.2757  161.6888 H   0  0  0  0  0  0  0  0  0  0  0  0
  145.7381  134.2847  162.3529 H   0  0  0  0  0  0  0  0  0  0  0  0
  146.9612  134.8947  163.4397 H   0  0  0  0  0  0  0  0  0  0  0  0
  145.0891  136.5017  161.7137 H   0  0  0  0  0  0  0  0  0  0  0  0
  145.6805  136.8501  163.3405 H   0  0  0  0  0  0  0  0  0  0  0  0
  148.7550  136.4826  162.5022 H   0  0  0  0  0  0  0  0  0  0  0  0
  148.7727  136.8100  160.7842 H   0  0  0  0  0  0  0  0  0  0  0  0
  1  2  1  0  0  0  0
  1 28  1  0  0  0  0
  2  3  1  0  0  0  0
  2 29  1  0  0  0  0
  2 30  1  0  0  0  0
  3  4  1  0  0  0  0
  3 23  1  0  0  0  0
  3 31  1  0  0  0  0
  4  5  1  0  0  0  0
  4 32  1  0  0  0  0
  4 33  1  0  0  0  0
  5 22  1  0  0  0  0
  5  6  1  0  0  0  0
  6  7  2  0  0  0  0
  6 34  1  0  0  0  0
  7  8  1  0  0  0  0
  8 22  2  0  0  0  0
  8  9  1  0  0  0  0
  9 10  1  0  0  0  0
  9 19  2  0  0  0  0
 10 14  1  0  0  0  0
 10 11  1  0  0  0  0
 11 18  1  0  0  0  0
 11 12  1  0  0  0  0
 11 35  1  0  0  0  0
 12 13  1  0  0  0  0
 12 36  1  0  0  0  0
 12 37  1  0  0  0  0
 13 14  1  0  0  0  0
 13 38  1  0  0  0  0
 13 39  1  0  0  0  0
 14 15  1  0  0  0  0
 14 40  1  0  0  0  0
 15 16  1  0  0  0  0
 15 18  1  0  0  0  0
 15 41  1  0  0  0  0
 16 17  1  0  0  0  0
 16 42  1  0  0  0  0
 16 43  1  0  0  0  0
 17 44  1  0  0  0  0
 18 45  1  0  0  0  0
 18 46  1  0  0  0  0
 19 20  1  0  0  0  0
 20 21  2  0  0  0  0
 20 47  1  0  0  0  0
 21 22  1  0  0  0  0
 23 27  1  0  0  0  0
 23 24  1  0  0  0  0
 23 48  1  0  0  0  0
 24 25  1  0  0  0  0
 24 49  1  0  0  0  0
 24 50  1  0  0  0  0
 25 26  1  0  0  0  0
 25 51  1  0  0  0  0
 25 52  1  0  0  0  0
 26 27  1  0  0  0  0
 27 53  1  0  0  0  0
 27 54  1  0  0  0  0
M  END
> <s_m_source_file>
AV-unprocessed.smi

> <i_m_source_file_index>
227

> <i_lp_mmshare_version>
43012

> <i_f3d_flags>
0

> <s_epik_input>
W0NIMl0xT1tDSDJdW0NIMl1bQ0BIXTFbQ0BIXShbQ0gyXVtPSF0pW0NIMl1uKFtjSF1uMiljKGMyMyluW2NIXW5jM04oW0NASF00NSlbQ0BASF0oW0NIMl1bQ0gyXTQpW0NASF0oW0NIMl01KVtDSDJdW09IXQ==

> <s_epik_cmdline>
J2VwaWtfcHl0aG9uJywgJy1waCcsICc3LjAnLCAnLXRuJywgJzgnLCAnLW1hJywgJzIwMCcsICctbWV0YWxfYmluZGluZycsICctaW1hZScsICc8aW5maWxlLm1hZT4nLCAnLW9tYWUnLCAnPG91dGZpbGUubWFlPic=

> <r_lp_tautomer_probability>
1

> <r_epik_Ionization_Penalty>
0.0055791

> <r_epik_Ionization_Penalty_Charging>
0

> <r_epik_Ionization_Penalty_Neutral>
0.0055791

> <r_epik_State_Penalty>
0.00401299

> <r_epik_Charging_Adjusted_Penalty>
0.00401299

> <i_epik_Tot_Q>
0

> <i_epik_Tot_abs_Q>
0

> <r_epik_Metal_State_Penalty>
-0

> <b_epik_Metal_Only>
0

> <s_lp_Force_Field>
OPLS_2005

> <r_lp_Energy>
89.6374

> <b_lp_Chiralities_Consistent>
1

> <s_lp_Variant>
AV-unprocessed.smi:227-1

> <Gold.Version>
5.8.1

> <Gold.Id.Protein>
6NUR|6NUR_protein|mol2

> <Gold.PLP.Fitness>
47.5777

> <Gold.PLP.PLP>
-37.6677

> <Gold.PLP.part.hbond>
-5.7265

> <Gold.PLP.part.metal>
0.0000

> <Gold.PLP.part.buried>
-1.4335

> <Gold.PLP.part.nonpolar>
-30.5594

> <Gold.PLP.part.repulsive>
0.0000

> <Gold.PLP.ligand.clash>
0.0000

> <Gold.PLP.ligand.torsion>
0.5370

> <Gold.PLP.Chemscore.Hbond>
3.5520

> <Gold.PLP.Chemscore.CHOScore>
0.0000

> <Gold.PLP.Chemscore.Metal>
0.0000

> <Gold.Chemscore.Hbonds>
donor molecule, donor type, donor heavy atom, donor atom, acceptor molecule, acceptor atom, score
      L1  H    17    44       P1  7957  0.29
      P1  H  6896  6909       L1    21  1.00
      P1  H  6934  6947       L1    26  0.90
      P1  H  7989  7998       L1    17  0.37
      P1  H  8011  8017       L1    17  0.99

> <Gold.PLP.Chemscore.Internal.Correction>
0.3280

> <Gold.Rescore>
     Score         DG    S(hbond)    S(metal)    S(lipo)     H(rot)  DE(clash)    DE(int)     intcor
     12.90     -15.78       2.79        0.00      87.36       3.61       1.22       1.67       ----

> <Gold.Chemscore.Fitness>
12.8963

> <Gold.Chemscore.DG>
-15.7811

> <Gold.Chemscore.ZeroCoef>
-5.4800

> <Gold.Chemscore.Hbond>
2.7885

> <Gold.Chemscore.Metal>
0.0000

> <Gold.Chemscore.Lipo>
87.3640

> <Gold.Chemscore.Internal_Hbond>
0.0000

> <Gold.Chemscore.DEClash>
1.2177

> <Gold.Chemscore.DEInternal>
1.6671

> <Gold.Chemscore.Rot>
3.6071

> <Gold.Chemscore.Internal.Correction>
   9.000000E+99

> <Gold.Chemscore.Hbonds>
donor molecule, donor type, donor heavy atom, donor atom, acceptor molecule, acceptor atom, score
      L1  H    17    44       P1  7957  0.28
      P1  H  6896  6909       L1    21  0.93
      P1  H  6934  6947       L1    26  0.74
      P1  H  7989  7998       L1    17  0.37
      P1  H  8011  8017       L1    17  0.22

> <Gold.Chemscore.Hbond.Weighted>
-9.3137

> <Gold.Chemscore.Metal.Weighted>
-0.0000

> <Gold.Chemscore.Lipo.Weighted>
-10.2216

> <Gold.Chemscore.Internal_Hbond.Weighted>
0.0000

> <Gold.Chemscore.DEClash.Weighted>
1.2177

> <Gold.Chemscore.DEInternal.Weighted>
1.6671

> <Gold.Chemscore.Rot.Weighted>
9.2342

> <Gold.Chemscore.Internal.Correction.Weighted>
   9.000000E+99

> <Gold.Protein.RotatedTorsions>
[ 6907 6896 6895 6894 ] final   90.44 input  -60.11 | X-H torsion
[ 7974 7965 7964 7962 ] final -135.56 input  175.53 | X-H torsion
[ 8008 7997 7996 7995 ] final -157.19 input   59.86 | X-H torsion
[ 10167 10162 10161 10158 ] final  -55.14 input  -65.29 | X-H torsion
[ 10718 10713 10712 10709 ] final  -15.48 input   66.30 | X-H torsion
[ 10763 10752 10751 10750 ] final   71.08 input  -60.55 | X-H torsion
[ 11005 11000 10999 10996 ] final -127.57 input  -57.11 | X-H torsion

> <Gold.Protein.ActiveResidues>
 VAL166  LYS551  ARG553  GLY616  TRP617  ASP618  TYR619  PRO620  LYS621  CYS622 
 ASP623  PHE694  ASN695  SER759  ASP760  ASP761  ALA762  ILE779  LEU786  VAL792 
 PHE793  MET794  SER795  GLU796  ALA797  LYS798  CYS799  TRP800  GLU811  SER814 

> <Gold.Protein.RotatedAtoms>
  152.5444  134.1812  159.8635 H   0  0  0  0  0  0  0  0  0  0  0  0  # atno 6907 bound_to 6896
  151.1814  133.4716  159.2601 H   0  0  0  0  0  0  0  0  0  0  0  0  # atno 6908 bound_to 6896
  151.1174  135.0072  159.8578 H   0  0  0  0  0  0  0  0  0  0  0  0  # atno 6909 bound_to 6896
  144.9003  140.6762  143.5089 H   0  0  0  0  0  0  0  0  0  0  0  0  # atno 7974 bound_to 7965
  155.7286  140.0799  157.2299 H   0  0  0  0  0  0  0  0  0  0  0  0  # atno 8008 bound_to 7997
  154.4036  140.1599  156.2538 H   0  0  0  0  0  0  0  0  0  0  0  0  # atno 8009 bound_to 7997
  155.9130  140.3402  155.6116 H   0  0  0  0  0  0  0  0  0  0  0  0  # atno 8010 bound_to 7997
  140.6391  143.2498  151.5037 H   0  0  0  0  0  0  0  0  0  0  0  0  # atno 10167 bound_to 10162
  156.6012  130.4824  149.6239 H   0  0  0  0  0  0  0  0  0  0  0  0  # atno 10718 bound_to 10713
  153.0378  135.5150  154.7538 H   0  0  0  0  0  0  0  0  0  0  0  0  # atno 10763 bound_to 10752
  154.6500  135.2924  155.0000 H   0  0  0  0  0  0  0  0  0  0  0  0  # atno 10764 bound_to 10752
  154.0888  135.6653  153.4902 H   0  0  0  0  0  0  0  0  0  0  0  0  # atno 10765 bound_to 10752
  140.9588  134.0965  157.3989 H   0  0  0  0  0  0  0  0  0  0  0  0  # atno 11005 bound_to 11000
  145.3628  139.1677  143.4374 LP  0  0  0  0  0  0  0  0  0  0  0  0  # atno 17320 bound_to 7965
  146.3104  140.3692  142.8672 LP  0  0  0  0  0  0  0  0  0  0  0  0  # atno 17321 bound_to 7965
  139.5601  144.2178  152.1677 LP  0  0  0  0  0  0  0  0  0  0  0  0  # atno 17342 bound_to 10162
  140.1443  144.5173  150.6725 LP  0  0  0  0  0  0  0  0  0  0  0  0  # atno 17343 bound_to 10162
  156.2467  130.6883  151.1607 LP  0  0  0  0  0  0  0  0  0  0  0  0  # atno 17370 bound_to 10713
  157.7279  131.0636  150.5845 LP  0  0  0  0  0  0  0  0  0  0  0  0  # atno 17371 bound_to 10713
  139.8871  135.0087  156.6540 LP  0  0  0  0  0  0  0  0  0  0  0  0  # atno 17394 bound_to 11000
  140.7497  133.8907  155.8338 LP  0  0  0  0  0  0  0  0  0  0  0  0  # atno 17395 bound_to 11000

$$$$
