AV-unprocessed.smi:3333|AV-procd|sdf|12834|dock9
  -GOLD-   2272019213D 1   1.00000     0.00000
 Structure written by MMmdl.
 41 43  0  0  0  0  0  0  0  0  1 V2000
  153.4766  141.7381  161.3125 C   0  0  0  0  0  0  0  0  0  0  0  0
  152.7475  143.0321  161.6892 C   0  0  0  0  0  0  0  0  0  0  0  0
  151.9069  143.5608  160.5760 C   0  0  0  0  0  0  0  0  0  0  0  0
  150.5944  143.7837  160.6853 N   0  0  0  0  0  0  0  0  0  0  0  0
  150.0247  144.2438  159.4933 C   0  0  0  0  0  0  0  0  0  0  0  0
  148.5559  144.5505  159.4327 C   0  0  0  0  0  0  0  0  0  0  0  0
  147.7514  143.2962  159.0780 C   0  0  0  0  0  0  0  0  0  0  0  0
  147.0734  142.7289  159.9355 O   0  0  0  0  0  0  0  0  0  0  0  0
  147.8444  142.8643  157.8107 N   0  0  0  0  0  0  0  0  0  0  0  0
  147.1818  141.6789  157.2764 C   0  0  0  0  0  0  0  0  0  0  0  0
  148.1725  140.7138  156.5892 C   0  0  1  0  0  0  0  0  0  0  0  0
  147.5013  139.8147  155.5271 C   0  0  0  0  0  0  0  0  0  0  0  0
  148.3571  140.0597  154.2711 C   0  0  2  0  0  0  0  0  0  0  0  0
  149.7544  139.4420  154.4677 C   0  0  0  0  0  0  0  0  0  0  0  0
  150.4072  140.3969  155.4851 C   0  0  0  0  0  0  0  0  0  0  0  0
  149.2832  141.4117  155.7667 C   0  0  1  0  0  0  0  0  0  0  0  0
  148.6500  141.5499  154.3856 C   0  0  0  0  0  0  0  0  0  0  0  0
  150.9349  144.3669  158.4722 C   0  0  0  0  0  0  0  0  0  0  0  0
  152.5354  143.8889  158.9655 S   0  0  0  0  0  0  0  0  0  0  0  0
  154.0876  141.3813  162.1415 H   0  0  0  0  0  0  0  0  0  0  0  0
  154.1335  141.8920  160.4560 H   0  0  0  0  0  0  0  0  0  0  0  0
  152.7693  140.9489  161.0556 H   0  0  0  0  0  0  0  0  0  0  0  0
  152.1143  142.8642  162.5611 H   0  0  0  0  0  0  0  0  0  0  0  0
  153.4718  143.7967  161.9715 H   0  0  0  0  0  0  0  0  0  0  0  0
  148.2116  144.9619  160.3828 H   0  0  0  0  0  0  0  0  0  0  0  0
  148.3559  145.3119  158.6782 H   0  0  0  0  0  0  0  0  0  0  0  0
  148.4227  143.3900  157.1716 H   0  0  0  0  0  0  0  0  0  0  0  0
  146.6518  141.1644  158.0799 H   0  0  0  0  0  0  0  0  0  0  0  0
  146.4195  142.0096  156.5706 H   0  0  0  0  0  0  0  0  0  0  0  0
  148.6253  140.0847  157.3569 H   0  0  0  0  0  0  0  0  0  0  0  0
  147.4879  138.7647  155.8219 H   0  0  0  0  0  0  0  0  0  0  0  0
  146.4693  140.1185  155.3454 H   0  0  0  0  0  0  0  0  0  0  0  0
  147.8698  139.7552  153.3445 H   0  0  0  0  0  0  0  0  0  0  0  0
  149.7047  138.4155  154.8327 H   0  0  0  0  0  0  0  0  0  0  0  0
  150.3145  139.4390  153.5318 H   0  0  0  0  0  0  0  0  0  0  0  0
  150.7431  139.8826  156.3863 H   0  0  0  0  0  0  0  0  0  0  0  0
  151.2723  140.8929  155.0432 H   0  0  0  0  0  0  0  0  0  0  0  0
  149.6473  142.3434  156.2000 H   0  0  0  0  0  0  0  0  0  0  0  0
  149.3438  141.9136  153.6255 H   0  0  0  0  0  0  0  0  0  0  0  0
  147.7527  142.1705  154.3746 H   0  0  0  0  0  0  0  0  0  0  0  0
  150.7573  144.6971  157.4594 H   0  0  0  0  0  0  0  0  0  0  0  0
  1  2  1  0  0  0  0
  1 20  1  0  0  0  0
  1 21  1  0  0  0  0
  1 22  1  0  0  0  0
  2  3  1  0  0  0  0
  2 23  1  0  0  0  0
  2 24  1  0  0  0  0
  3 19  1  0  0  0  0
  3  4  2  0  0  0  0
  4  5  1  0  0  0  0
  5  6  1  0  0  0  0
  5 18  2  0  0  0  0
  6  7  1  0  0  0  0
  6 25  1  0  0  0  0
  6 26  1  0  0  0  0
  7  8  2  0  0  0  0
  7  9  1  0  0  0  0
  9 10  1  0  0  0  0
  9 27  1  0  0  0  0
 10 11  1  0  0  0  0
 10 28  1  0  0  0  0
 10 29  1  0  0  0  0
 11 16  1  0  0  0  0
 11 12  1  0  0  0  0
 11 30  1  0  0  0  0
 12 13  1  0  0  0  0
 12 31  1  0  0  0  0
 12 32  1  0  0  0  0
 13 17  1  0  0  0  0
 13 14  1  0  0  0  0
 13 33  1  0  0  0  0
 14 15  1  0  0  0  0
 14 34  1  0  0  0  0
 14 35  1  0  0  0  0
 15 16  1  0  0  0  0
 15 36  1  0  0  0  0
 15 37  1  0  0  0  0
 16 17  1  0  0  0  0
 16 38  1  0  0  0  0
 17 39  1  0  0  0  0
 17 40  1  0  0  0  0
 18 19  1  0  0  0  0
 18 41  1  0  0  0  0
M  END
> <s_m_source_file>
AV-unprocessed.smi

> <i_m_source_file_index>
3333

> <i_lp_mmshare_version>
43012

> <i_f3d_flags>
0

> <s_epik_input>
W0NIM11bQ0gyXWMxbmMoW2NIXXMxKVtDSDJdQyg9TylbTkhdW0NIMl1bQ0BIXShbQ0gyXVtDQEBIXTIzKVtDQEBIXShbQ0gyXTMpW0NIMl1bQ0gyXTI=

> <s_epik_cmdline>
J2VwaWtfcHl0aG9uJywgJy1waCcsICc3LjAnLCAnLXRuJywgJzgnLCAnLW1hJywgJzIwMCcsICctbWV0YWxfYmluZGluZycsICctaW1hZScsICc8aW5maWxlLm1hZT4nLCAnLW9tYWUnLCAnPG91dGZpbGUubWFlPic=

> <r_lp_tautomer_probability>
1

> <r_epik_Ionization_Penalty>
6.68371e-05

> <r_epik_Ionization_Penalty_Charging>
0

> <r_epik_Ionization_Penalty_Neutral>
6.68371e-05

> <r_epik_State_Penalty>
-0

> <r_epik_Charging_Adjusted_Penalty>
0

> <i_epik_Tot_Q>
0

> <i_epik_Tot_abs_Q>
0

> <r_epik_Metal_State_Penalty>
-0

> <b_epik_Metal_Only>
0

> <s_lp_Force_Field>
OPLS_2005

> <r_lp_Energy>
43.9975

> <b_lp_Chiralities_Consistent>
1

> <s_lp_Variant>
AV-unprocessed.smi:3333-4

> <Gold.Version>
5.8.1

> <Gold.Id.Protein>
6NUR|6NUR_protein|mol2

> <Gold.PLP.Fitness>
45.2214

> <Gold.PLP.PLP>
-36.8452

> <Gold.PLP.part.hbond>
-4.7769

> <Gold.PLP.part.metal>
0.0000

> <Gold.PLP.part.buried>
0.4797

> <Gold.PLP.part.nonpolar>
-33.7012

> <Gold.PLP.part.repulsive>
0.2398

> <Gold.PLP.ligand.clash>
0.0000

> <Gold.PLP.ligand.torsion>
0.7837

> <Gold.PLP.Chemscore.Hbond>
2.3059

> <Gold.PLP.Chemscore.CHOScore>
0.9983

> <Gold.PLP.Chemscore.Metal>
0.0000

> <Gold.Chemscore.Hbonds>
donor molecule, donor type, donor heavy atom, donor atom, acceptor molecule, acceptor atom, score
      L1  H     9    27       P1  8028  0.77
      P1  H  6933  6944       L1     8  0.65
      P1  H  6934  6946       L1     8  0.83
      L1  C    18    41       P1  8028  0.94

> <Gold.PLP.Chemscore.Internal.Correction>
0.0308

> <Gold.Rescore>
     Score         DG    S(hbond)    S(metal)    S(lipo)     H(rot)  DE(clash)    DE(int)     intcor
     17.76     -19.99       1.51        0.00     112.11       1.42       1.43       0.79       ----

> <Gold.Chemscore.Fitness>
17.7644

> <Gold.Chemscore.DG>
-19.9918

> <Gold.Chemscore.ZeroCoef>
-5.4800

> <Gold.Chemscore.Hbond>
1.5081

> <Gold.Chemscore.Metal>
0.0000

> <Gold.Chemscore.Lipo>
112.1110

> <Gold.Chemscore.Internal_Hbond>
0.0000

> <Gold.Chemscore.DEClash>
1.4334

> <Gold.Chemscore.DEInternal>
0.7941

> <Gold.Chemscore.Rot>
1.4227

> <Gold.Chemscore.Internal.Correction>
   9.000000E+99

> <Gold.Chemscore.Hbonds>
donor molecule, donor type, donor heavy atom, donor atom, acceptor molecule, acceptor atom, score
      L1  H     9    27       P1  8028  0.11
      P1  H  6933  6944       L1     8  0.22
      P1  H  6934  6946       L1     8  0.79

> <Gold.Chemscore.Hbond.Weighted>
-5.0369

> <Gold.Chemscore.Metal.Weighted>
-0.0000

> <Gold.Chemscore.Lipo.Weighted>
-13.1170

> <Gold.Chemscore.Internal_Hbond.Weighted>
0.0000

> <Gold.Chemscore.DEClash.Weighted>
1.4334

> <Gold.Chemscore.DEInternal.Weighted>
0.7941

> <Gold.Chemscore.Rot.Weighted>
3.6421

> <Gold.Chemscore.Internal.Correction.Weighted>
   9.000000E+99

> <Gold.Protein.RotatedTorsions>
[ 6907 6896 6895 6894 ] final   55.04 input  -60.11 | X-H torsion
[ 7974 7965 7964 7962 ] final  164.26 input  175.53 | X-H torsion
[ 8008 7997 7996 7995 ] final  170.08 input   59.86 | X-H torsion
[ 10167 10162 10161 10158 ] final   42.79 input  -65.29 | X-H torsion
[ 10718 10713 10712 10709 ] final    5.15 input   66.30 | X-H torsion
[ 10763 10752 10751 10750 ] final  -24.75 input  -60.55 | X-H torsion
[ 11005 11000 10999 10996 ] final  -64.91 input  -57.11 | X-H torsion

> <Gold.Protein.ActiveResidues>
 VAL166  LYS551  ARG553  GLY616  TRP617  ASP618  TYR619  PRO620  LYS621  CYS622 
 ASP623  PHE694  ASN695  SER759  ASP760  ASP761  ALA762  ILE779  LEU786  VAL792 
 PHE793  MET794  SER795  GLU796  ALA797  LYS798  CYS799  TRP800  GLU811  SER814 

> <Gold.Protein.RotatedAtoms>
  152.3499  134.7020  160.0239 H   0  0  0  0  0  0  0  0  0  0  0  0  # atno 6907 bound_to 6896
  151.7377  133.3315  159.3365 H   0  0  0  0  0  0  0  0  0  0  0  0  # atno 6908 bound_to 6896
  150.7533  134.6240  159.6195 H   0  0  0  0  0  0  0  0  0  0  0  0  # atno 6909 bound_to 6896
  144.7553  139.8301  143.6352 H   0  0  0  0  0  0  0  0  0  0  0  0  # atno 7974 bound_to 7965
  156.1398  140.1547  156.8938 H   0  0  0  0  0  0  0  0  0  0  0  0  # atno 8008 bound_to 7997
  154.4978  140.0833  156.7772 H   0  0  0  0  0  0  0  0  0  0  0  0  # atno 8009 bound_to 7997
  155.4100  140.3418  155.4265 H   0  0  0  0  0  0  0  0  0  0  0  0  # atno 8010 bound_to 7997
  140.3508  144.2352  150.6146 H   0  0  0  0  0  0  0  0  0  0  0  0  # atno 10167 bound_to 10162
  156.9031  130.5729  149.5648 H   0  0  0  0  0  0  0  0  0  0  0  0  # atno 10718 bound_to 10713
  153.6888  135.6963  153.5096 H   0  0  0  0  0  0  0  0  0  0  0  0  # atno 10763 bound_to 10752
  153.2429  135.4300  155.0716 H   0  0  0  0  0  0  0  0  0  0  0  0  # atno 10764 bound_to 10752
  154.8379  135.3512  154.6430 H   0  0  0  0  0  0  0  0  0  0  0  0  # atno 10765 bound_to 10752
  141.1439  133.6673  156.5905 H   0  0  0  0  0  0  0  0  0  0  0  0  # atno 11005 bound_to 11000
  146.1555  139.4651  143.0022 LP  0  0  0  0  0  0  0  0  0  0  0  0  # atno 17320 bound_to 7965
  145.6802  141.0193  143.1610 LP  0  0  0  0  0  0  0  0  0  0  0  0  # atno 17321 bound_to 7965
  140.5220  143.2263  151.8373 LP  0  0  0  0  0  0  0  0  0  0  0  0  # atno 17342 bound_to 10162
  139.4826  144.4825  151.9289 LP  0  0  0  0  0  0  0  0  0  0  0  0  # atno 17343 bound_to 10162
  156.0572  130.5631  150.9117 LP  0  0  0  0  0  0  0  0  0  0  0  0  # atno 17370 bound_to 10713
  157.6014  131.0941  150.8954 LP  0  0  0  0  0  0  0  0  0  0  0  0  # atno 17371 bound_to 10713
  140.3767  134.7559  157.4634 LP  0  0  0  0  0  0  0  0  0  0  0  0  # atno 17394 bound_to 11000
  140.0669  134.5917  155.8685 LP  0  0  0  0  0  0  0  0  0  0  0  0  # atno 17395 bound_to 11000

$$$$
