AV-unprocessed.smi:1029|AV-procd|sdf|4477|dock10
  -GOLD-   22720 2453D 1   1.00000     0.00000
 Structure written by MMmdl.
 46 47  0  0  0  0  0  0  0  0  2 V2000
  145.0078  131.2633  150.9370 C   0  0  0  0  0  0  0  0  0  0  0  0
  145.0947  132.7287  151.2452 C   0  0  0  0  0  0  0  0  0  0  0  0
  146.2593  133.5323  151.3929 C   0  0  0  0  0  0  0  0  0  0  0  0
  145.7406  134.7698  151.6667 C   0  0  0  0  0  0  0  0  0  0  0  0
  146.4052  135.9300  151.9076 N   0  0  0  0  0  0  0  0  0  0  0  0
  145.9474  137.0649  152.4648 C   0  0  0  0  0  0  0  0  0  0  0  0
  144.8036  137.2469  152.8826 O   0  0  0  0  0  0  0  0  0  0  0  0
  146.9073  137.9994  152.5181 N   0  0  0  0  0  0  0  0  0  0  0  0
  146.7409  139.3415  153.0661 C   0  0  0  0  0  0  0  0  0  0  0  0
  147.9403  139.7612  153.9405 C   0  0  1  0  0  0  0  0  0  0  0  0
  149.1152  139.1892  153.3987 O   0  0  0  0  0  0  0  0  0  0  0  0
  148.1319  141.2921  153.9403 C   0  0  0  0  0  0  0  0  0  0  0  0
  148.8525  141.7808  155.1448 N   0  3  2  0  0  0  0  0  0  0  0  0
  150.3139  141.5061  155.1113 C   0  0  0  0  0  0  0  0  0  0  0  0
  151.0289  142.1451  156.3155 C   0  0  0  0  0  0  0  0  0  0  0  0
  150.4244  141.6972  157.6585 C   0  0  2  0  0  0  0  0  0  0  0  0
  150.7983  140.2510  158.0283 C   0  0  0  0  0  0  0  0  0  0  0  0
  148.9034  141.9315  157.6372 C   0  0  0  0  0  0  0  0  0  0  0  0
  148.2333  141.2968  156.4054 C   0  0  0  0  0  0  0  0  0  0  0  0
  144.3860  134.7403  151.6910 O   0  0  0  0  0  0  0  0  0  0  0  0
  143.9827  133.4281  151.4173 N   0  0  0  0  0  0  0  0  0  0  0  0
  145.9975  130.8362  150.7743 H   0  0  0  0  0  0  0  0  0  0  0  0
  144.4177  131.0846  150.0378 H   0  0  0  0  0  0  0  0  0  0  0  0
  144.5416  130.7170  151.7572 H   0  0  0  0  0  0  0  0  0  0  0  0
  147.2924  133.2305  151.3100 H   0  0  0  0  0  0  0  0  0  0  0  0
  147.3757  135.9311  151.6303 H   0  0  0  0  0  0  0  0  0  0  0  0
  147.8202  137.7644  152.1567 H   0  0  0  0  0  0  0  0  0  0  0  0
  146.5372  140.0749  152.2832 H   0  0  0  0  0  0  0  0  0  0  0  0
  145.8415  139.3025  153.6812 H   0  0  0  0  0  0  0  0  0  0  0  0
  147.7969  139.3958  154.9572 H   0  0  0  0  0  0  0  0  0  0  0  0
  149.2289  139.5074  152.5157 H   0  0  0  0  0  0  0  0  0  0  0  0
  148.6849  141.5692  153.0411 H   0  0  0  0  0  0  0  0  0  0  0  0
  147.1691  141.8006  153.8706 H   0  0  0  0  0  0  0  0  0  0  0  0
  150.4848  140.4290  155.0942 H   0  0  0  0  0  0  0  0  0  0  0  0
  150.7529  141.9035  154.1974 H   0  0  0  0  0  0  0  0  0  0  0  0
  152.0942  141.9137  156.2846 H   0  0  0  0  0  0  0  0  0  0  0  0
  150.9541  143.2306  156.2348 H   0  0  0  0  0  0  0  0  0  0  0  0
  150.8458  142.3332  158.4382 H   0  0  0  0  0  0  0  0  0  0  0  0
  150.4190  139.5287  157.3059 H   0  0  0  0  0  0  0  0  0  0  0  0
  150.3947  139.9820  159.0049 H   0  0  0  0  0  0  0  0  0  0  0  0
  151.8806  140.1287  158.0783 H   0  0  0  0  0  0  0  0  0  0  0  0
  148.4489  141.5475  158.5512 H   0  0  0  0  0  0  0  0  0  0  0  0
  148.7080  143.0047  157.6320 H   0  0  0  0  0  0  0  0  0  0  0  0
  147.1723  141.5500  156.4130 H   0  0  0  0  0  0  0  0  0  0  0  0
  148.2959  140.2087  156.4512 H   0  0  0  0  0  0  0  0  0  0  0  0
  148.7421  142.7852  155.1471 H   0  0  0  0  0  0  0  0  0  0  0  0
  1  2  1  0  0  0  0
  1 22  1  0  0  0  0
  1 23  1  0  0  0  0
  1 24  1  0  0  0  0
  2 21  2  0  0  0  0
  2  3  1  0  0  0  0
  3  4  2  0  0  0  0
  3 25  1  0  0  0  0
  4  5  1  0  0  0  0
  4 20  1  0  0  0  0
  5  6  1  0  0  0  0
  5 26  1  0  0  0  0
  6  7  2  0  0  0  0
  6  8  1  0  0  0  0
  8  9  1  0  0  0  0
  8 27  1  0  0  0  0
  9 10  1  0  0  0  0
  9 28  1  0  0  0  0
  9 29  1  0  0  0  0
 10 11  1  0  0  0  0
 10 12  1  0  0  0  0
 10 30  1  0  0  0  0
 11 31  1  0  0  0  0
 12 13  1  0  0  0  0
 12 32  1  0  0  0  0
 12 33  1  0  0  0  0
 13 19  1  0  0  0  0
 13 14  1  0  0  0  0
 13 46  1  0  0  0  0
 14 15  1  0  0  0  0
 14 34  1  0  0  0  0
 14 35  1  0  0  0  0
 15 16  1  0  0  0  0
 15 36  1  0  0  0  0
 15 37  1  0  0  0  0
 16 17  1  0  0  0  0
 16 18  1  0  0  0  0
 16 38  1  0  0  0  0
 17 39  1  0  0  0  0
 17 40  1  0  0  0  0
 17 41  1  0  0  0  0
 18 19  1  0  0  0  0
 18 42  1  0  0  0  0
 18 43  1  0  0  0  0
 19 44  1  0  0  0  0
 19 45  1  0  0  0  0
 20 21  1  0  0  0  0
M  CHG  1  13   1
M  END
> <s_m_source_file>
AV-unprocessed.smi

> <i_m_source_file_index>
1029

> <i_lp_mmshare_version>
43012

> <i_f3d_flags>
0

> <s_epik_input>
W0NIM11jMVtjSF1jKG9uMSlbTkhdQyg9TylbTkhdW0NIMl1bQ0BIXShbT0hdKVtDSDJdTjJbQ0gyXVtDSDJdW0NIXShbQ0gzXSlbQ0gyXVtDSDJdMg==

> <s_epik_cmdline>
J2VwaWtfcHl0aG9uJywgJy1waCcsICc3LjAnLCAnLXRuJywgJzgnLCAnLW1hJywgJzIwMCcsICctbWV0YWxfYmluZGluZycsICctaW1hZScsICc8aW5maWxlLm1hZT4nLCAnLW9tYWUnLCAnPG91dGZpbGUubWFlPic=

> <r_lp_tautomer_probability>
1

> <r_epik_Ionization_Penalty>
0.00211787

> <r_epik_Ionization_Penalty_Charging>
0.00153238

> <r_epik_Ionization_Penalty_Neutral>
0.000585488

> <r_epik_State_Penalty>
-0

> <r_epik_Charging_Adjusted_Penalty>
0.00153238

> <i_epik_Tot_Q>
1

> <i_epik_Tot_abs_Q>
1

> <r_epik_Metal_State_Penalty>
-0

> <b_epik_Metal_Only>
0

> <s_lp_Force_Field>
OPLS_2005

> <r_lp_Energy>
22.6481

> <b_lp_Chiralities_Consistent>
1

> <s_lp_Variant>
AV-unprocessed.smi:1029-4

> <Gold.Version>
5.8.1

> <Gold.Id.Protein>
6NUR|6NUR_protein|mol2

> <Gold.PLP.Fitness>
47.2735

> <Gold.PLP.PLP>
-34.0646

> <Gold.PLP.part.hbond>
-4.1422

> <Gold.PLP.part.metal>
0.0000

> <Gold.PLP.part.buried>
-6.7578

> <Gold.PLP.part.nonpolar>
-24.4682

> <Gold.PLP.part.repulsive>
0.9662

> <Gold.PLP.ligand.clash>
0.0000

> <Gold.PLP.ligand.torsion>
0.8312

> <Gold.PLP.Chemscore.Hbond>
4.9440

> <Gold.PLP.Chemscore.CHOScore>
0.0000

> <Gold.PLP.Chemscore.Metal>
0.0000

> <Gold.Chemscore.Hbonds>
donor molecule, donor type, donor heavy atom, donor atom, acceptor molecule, acceptor atom, score
      L1  H     5    26       P1  7948  1.00
      L1  H     8    27       P1  7948  0.83
      L1  H    11    31       P1  7957  0.93
      L1  H    13    46       P1  8028  2.00

> <Gold.PLP.Chemscore.Internal.Correction>
0.0392

> <Gold.Rescore>
     Score         DG    S(hbond)    S(metal)    S(lipo)     H(rot)  DE(clash)    DE(int)     intcor
     18.22     -20.43       3.92        0.00      69.63       2.46       0.07       2.14       ----

> <Gold.Chemscore.Fitness>
18.2206

> <Gold.Chemscore.DG>
-20.4260

> <Gold.Chemscore.ZeroCoef>
-5.4800

> <Gold.Chemscore.Hbond>
3.9229

> <Gold.Chemscore.Metal>
0.0000

> <Gold.Chemscore.Lipo>
69.6350

> <Gold.Chemscore.Internal_Hbond>
0.0000

> <Gold.Chemscore.DEClash>
0.0699

> <Gold.Chemscore.DEInternal>
2.1355

> <Gold.Chemscore.Rot>
2.4624

> <Gold.Chemscore.Internal.Correction>
   9.000000E+99

> <Gold.Chemscore.Hbonds>
donor molecule, donor type, donor heavy atom, donor atom, acceptor molecule, acceptor atom, score
      L1  H     5    26       P1  7948  0.96
      L1  H     8    27       P1  7948  0.83
      L1  H    11    31       P1  7957  0.89
      L1  H    13    46       P1  8028  0.97

> <Gold.Chemscore.Hbond.Weighted>
-13.1024

> <Gold.Chemscore.Metal.Weighted>
-0.0000

> <Gold.Chemscore.Lipo.Weighted>
-8.1473

> <Gold.Chemscore.Internal_Hbond.Weighted>
0.0000

> <Gold.Chemscore.DEClash.Weighted>
0.0699

> <Gold.Chemscore.DEInternal.Weighted>
2.1355

> <Gold.Chemscore.Rot.Weighted>
6.3037

> <Gold.Chemscore.Internal.Correction.Weighted>
   9.000000E+99

> <Gold.Protein.RotatedTorsions>
[ 6907 6896 6895 6894 ] final   99.45 input  -60.11 | X-H torsion
[ 7974 7965 7964 7962 ] final -154.97 input  175.53 | X-H torsion
[ 8008 7997 7996 7995 ] final   46.44 input   59.86 | X-H torsion
[ 10167 10162 10161 10158 ] final -173.88 input  -65.29 | X-H torsion
[ 10718 10713 10712 10709 ] final -114.01 input   66.30 | X-H torsion
[ 10763 10752 10751 10750 ] final  -99.93 input  -60.55 | X-H torsion
[ 11005 11000 10999 10996 ] final -122.29 input  -57.11 | X-H torsion

> <Gold.Protein.ActiveResidues>
 VAL166  LYS551  ARG553  GLY616  TRP617  ASP618  TYR619  PRO620  LYS621  CYS622 
 ASP623  PHE694  ASN695  SER759  ASP760  ASP761  ALA762  ILE779  LEU786  VAL792 
 PHE793  MET794  SER795  GLU796  ALA797  LYS798  CYS799  TRP800  GLU811  SER814 

> <Gold.Protein.RotatedAtoms>
  152.5392  134.0427  159.8074 H   0  0  0  0  0  0  0  0  0  0  0  0  # atno 6907 bound_to 6896
  151.0580  133.5560  159.2644 H   0  0  0  0  0  0  0  0  0  0  0  0  # atno 6908 bound_to 6896
  151.2469  135.0616  159.9101 H   0  0  0  0  0  0  0  0  0  0  0  0  # atno 6909 bound_to 6896
  144.7663  140.4314  143.5940 H   0  0  0  0  0  0  0  0  0  0  0  0  # atno 7974 bound_to 7965
  155.3526  140.3414  155.4239 H   0  0  0  0  0  0  0  0  0  0  0  0  # atno 8008 bound_to 7997
  156.1756  140.1646  156.8404 H   0  0  0  0  0  0  0  0  0  0  0  0  # atno 8009 bound_to 7997
  154.5278  140.0752  156.8274 H   0  0  0  0  0  0  0  0  0  0  0  0  # atno 8010 bound_to 7997
  139.5664  144.1745  152.1319 H   0  0  0  0  0  0  0  0  0  0  0  0  # atno 10167 bound_to 10162
  156.0803  130.6004  150.8718 H   0  0  0  0  0  0  0  0  0  0  0  0  # atno 10718 bound_to 10713
  154.7538  135.4954  153.9337 H   0  0  0  0  0  0  0  0  0  0  0  0  # atno 10763 bound_to 10752
  153.1173  135.6723  153.9404 H   0  0  0  0  0  0  0  0  0  0  0  0  # atno 10764 bound_to 10752
  153.9146  135.3095  155.3427 H   0  0  0  0  0  0  0  0  0  0  0  0  # atno 10765 bound_to 10752
  141.0006  134.0408  157.3542 H   0  0  0  0  0  0  0  0  0  0  0  0  # atno 11005 bound_to 11000
  145.6461  139.1557  143.2888 LP  0  0  0  0  0  0  0  0  0  0  0  0  # atno 17320 bound_to 7965
  146.1772  140.6553  142.9206 LP  0  0  0  0  0  0  0  0  0  0  0  0  # atno 17321 bound_to 7965
  140.1269  144.5323  150.6827 LP  0  0  0  0  0  0  0  0  0  0  0  0  # atno 17342 bound_to 10162
  140.6948  143.2397  151.5032 LP  0  0  0  0  0  0  0  0  0  0  0  0  # atno 17343 bound_to 10162
  157.5916  131.0944  150.9108 LP  0  0  0  0  0  0  0  0  0  0  0  0  # atno 17370 bound_to 10713
  156.9283  130.5340  149.5279 LP  0  0  0  0  0  0  0  0  0  0  0  0  # atno 17371 bound_to 10713
  139.9037  135.0173  156.7387 LP  0  0  0  0  0  0  0  0  0  0  0  0  # atno 17394 bound_to 11000
  140.6895  133.9403  155.7957 LP  0  0  0  0  0  0  0  0  0  0  0  0  # atno 17395 bound_to 11000

$$$$
