AV-unprocessed.smi:1964|AV-procd|sdf|7930|dock10
  -GOLD-   2272010103D 1   1.00000     0.00000
 Structure written by MMmdl.
 46 48  0  0  0  0  0  0  0  0  1 V2000
  149.4557  139.7974  154.5357 C   0  0  0  0  0  0  0  0  0  0  0  0
  149.4607  138.2590  154.5055 C   0  0  2  0  0  0  0  0  0  0  0  0
  148.1044  137.6812  154.9604 C   0  0  0  0  0  0  0  0  0  0  0  0
  148.0839  136.1470  154.8693 C   0  0  0  0  0  0  0  0  0  0  0  0
  149.2365  135.5240  155.6708 C   0  0  0  0  0  0  0  0  0  0  0  0
  150.5956  136.0938  155.2282 C   0  0  0  0  0  0  0  0  0  0  0  0
  150.6363  137.6336  155.3011 C   0  0  2  0  0  0  0  0  0  0  0  0
  150.6363  138.0640  156.7005 N   0  0  0  0  0  0  0  0  0  0  0  0
  151.6804  138.5705  157.3741 C   0  0  0  0  0  0  0  0  0  0  0  0
  152.8016  138.7101  156.8835 O   0  0  0  0  0  0  0  0  0  0  0  0
  151.4017  138.9796  158.8278 C   0  0  0  0  0  0  0  0  0  0  0  0
  152.2162  140.1315  159.2718 N   0  0  0  0  0  0  0  0  0  0  0  0
  153.4221  139.8725  159.9723 C   0  0  0  0  0  0  0  0  0  0  0  0
  153.7982  138.7178  160.1828 O   0  0  0  0  0  0  0  0  0  0  0  0
  154.1525  141.0537  160.4255 C   0  0  0  0  0  0  0  0  0  0  0  0
  155.3520  140.8337  161.1635 C   0  0  0  0  0  0  0  0  0  0  0  0
  156.3127  140.6495  161.7824 N   0  0  0  0  0  0  0  0  0  0  0  0
  153.6993  142.2957  160.1583 C   0  0  0  0  0  0  0  0  0  0  0  0
  152.5458  142.5257  159.4408 N   0  0  0  0  0  0  0  0  0  0  0  0
  152.0018  143.8471  159.3021 C   0  0  0  0  0  0  0  0  0  0  0  0
  151.3780  144.2852  157.9912 C   0  0  0  0  0  0  0  0  0  0  0  0
  152.7146  144.8440  158.4144 C   0  0  0  0  0  0  0  0  0  0  0  0
  151.7418  141.4423  159.0232 C   0  0  0  0  0  0  0  0  0  0  0  0
  150.6557  141.6301  158.4697 O   0  0  0  0  0  0  0  0  0  0  0  0
  149.2521  140.1829  155.5352 H   0  0  0  0  0  0  0  0  0  0  0  0
  148.6916  140.1979  153.8695 H   0  0  0  0  0  0  0  0  0  0  0  0
  150.4164  140.1993  154.2126 H   0  0  0  0  0  0  0  0  0  0  0  0
  149.5974  137.9711  153.4621 H   0  0  0  0  0  0  0  0  0  0  0  0
  147.8923  137.9895  155.9850 H   0  0  0  0  0  0  0  0  0  0  0  0
  147.3017  138.0903  154.3461 H   0  0  0  0  0  0  0  0  0  0  0  0
  147.1294  135.7660  155.2335 H   0  0  0  0  0  0  0  0  0  0  0  0
  148.1596  135.8422  153.8247 H   0  0  0  0  0  0  0  0  0  0  0  0
  149.0853  135.7104  156.7346 H   0  0  0  0  0  0  0  0  0  0  0  0
  149.2309  134.4409  155.5461 H   0  0  0  0  0  0  0  0  0  0  0  0
  151.3950  135.6659  155.8345 H   0  0  0  0  0  0  0  0  0  0  0  0
  150.7946  135.7800  154.2027 H   0  0  0  0  0  0  0  0  0  0  0  0
  151.5688  137.9504  154.8305 H   0  0  0  0  0  0  0  0  0  0  0  0
  149.7574  137.9861  157.1918 H   0  0  0  0  0  0  0  0  0  0  0  0
  150.3393  139.2034  158.9412 H   0  0  0  0  0  0  0  0  0  0  0  0
  151.5570  138.1060  159.4623 H   0  0  0  0  0  0  0  0  0  0  0  0
  154.2635  143.1456  160.5150 H   0  0  0  0  0  0  0  0  0  0  0  0
  151.5461  144.2565  160.2021 H   0  0  0  0  0  0  0  0  0  0  0  0
  151.3753  143.5821  157.1604 H   0  0  0  0  0  0  0  0  0  0  0  0
  150.5155  144.9463  158.0440 H   0  0  0  0  0  0  0  0  0  0  0  0
  152.7449  145.8791  158.7481 H   0  0  0  0  0  0  0  0  0  0  0  0
  153.5909  144.5068  157.8641 H   0  0  0  0  0  0  0  0  0  0  0  0
  1  2  1  0  0  0  0
  1 25  1  0  0  0  0
  1 26  1  0  0  0  0
  1 27  1  0  0  0  0
  2  7  1  0  0  0  0
  2  3  1  0  0  0  0
  2 28  1  0  0  0  0
  3  4  1  0  0  0  0
  3 29  1  0  0  0  0
  3 30  1  0  0  0  0
  4  5  1  0  0  0  0
  4 31  1  0  0  0  0
  4 32  1  0  0  0  0
  5  6  1  0  0  0  0
  5 33  1  0  0  0  0
  5 34  1  0  0  0  0
  6  7  1  0  0  0  0
  6 35  1  0  0  0  0
  6 36  1  0  0  0  0
  7  8  1  0  0  0  0
  7 37  1  0  0  0  0
  8  9  1  0  0  0  0
  8 38  1  0  0  0  0
  9 10  2  0  0  0  0
  9 11  1  0  0  0  0
 11 12  1  0  0  0  0
 11 39  1  0  0  0  0
 11 40  1  0  0  0  0
 12 23  1  0  0  0  0
 12 13  1  0  0  0  0
 13 14  2  0  0  0  0
 13 15  1  0  0  0  0
 15 16  1  0  0  0  0
 15 18  2  0  0  0  0
 16 17  3  0  0  0  0
 18 19  1  0  0  0  0
 18 41  1  0  0  0  0
 19 20  1  0  0  0  0
 19 23  1  0  0  0  0
 20 22  1  0  0  0  0
 20 21  1  0  0  0  0
 20 42  1  0  0  0  0
 21 22  1  0  0  0  0
 21 43  1  0  0  0  0
 21 44  1  0  0  0  0
 22 45  1  0  0  0  0
 22 46  1  0  0  0  0
 23 24  2  0  0  0  0
M  END
> <s_m_source_file>
AV-unprocessed.smi

> <i_m_source_file_index>
1964

> <i_lp_mmshare_version>
43012

> <i_f3d_flags>
0

> <s_epik_input>
W0NIM11bQ0BASF0xW0NIMl1bQ0gyXVtDSDJdW0NIMl1bQ0BIXTFbTkhdQyg9TylbQ0gyXW4yYyg9TyljKEMjTilbY0hdbihjMj1PKVtDSF0zW0NIMl1bQ0gyXTM=

> <s_epik_cmdline>
J2VwaWtfcHl0aG9uJywgJy1waCcsICc3LjAnLCAnLXRuJywgJzgnLCAnLW1hJywgJzIwMCcsICctbWV0YWxfYmluZGluZycsICctaW1hZScsICc8aW5maWxlLm1hZT4nLCAnLW9tYWUnLCAnPG91dGZpbGUubWFlPic=

> <r_lp_tautomer_probability>
1

> <r_epik_Ionization_Penalty>
1.91372e-08

> <r_epik_Ionization_Penalty_Charging>
9.0283e-11

> <r_epik_Ionization_Penalty_Neutral>
1.90469e-08

> <r_epik_State_Penalty>
-0

> <r_epik_Charging_Adjusted_Penalty>
9.0283e-11

> <i_epik_Tot_Q>
0

> <i_epik_Tot_abs_Q>
0

> <r_epik_Metal_State_Penalty>
-0

> <b_epik_Metal_Only>
0

> <s_lp_Force_Field>
OPLS_2005

> <r_lp_Energy>
35.1398

> <b_lp_Chiralities_Consistent>
1

> <s_lp_Variant>
AV-unprocessed.smi:1964-3

> <Gold.Version>
5.8.1

> <Gold.Id.Protein>
6NUR|6NUR_protein|mol2

> <Gold.PLP.Fitness>
42.0694

> <Gold.PLP.PLP>
-41.1015

> <Gold.PLP.part.hbond>
-1.9454

> <Gold.PLP.part.metal>
0.0000

> <Gold.PLP.part.buried>
-0.5016

> <Gold.PLP.part.nonpolar>
-38.1700

> <Gold.PLP.part.repulsive>
0.0308

> <Gold.PLP.ligand.clash>
0.0000

> <Gold.PLP.ligand.torsion>
1.1116

> <Gold.PLP.Chemscore.Hbond>
0.9913

> <Gold.PLP.Chemscore.CHOScore>
0.0000

> <Gold.PLP.Chemscore.Metal>
0.0000

> <Gold.Chemscore.Hbonds>
donor molecule, donor type, donor heavy atom, donor atom, acceptor molecule, acceptor atom, score
      P1  H  7997  8009       L1    10  0.81

> <Gold.PLP.Chemscore.Internal.Correction>
0.2174

> <Gold.Rescore>
     Score         DG    S(hbond)    S(metal)    S(lipo)     H(rot)  DE(clash)    DE(int)     intcor
     12.08     -15.22       0.95        0.00      93.30       1.70       0.77       2.37       ----

> <Gold.Chemscore.Fitness>
12.0780

> <Gold.Chemscore.DG>
-15.2158

> <Gold.Chemscore.ZeroCoef>
-5.4800

> <Gold.Chemscore.Hbond>
0.9525

> <Gold.Chemscore.Metal>
0.0000

> <Gold.Chemscore.Lipo>
93.2996

> <Gold.Chemscore.Internal_Hbond>
0.0000

> <Gold.Chemscore.DEClash>
0.7664

> <Gold.Chemscore.DEInternal>
2.3714

> <Gold.Chemscore.Rot>
1.7038

> <Gold.Chemscore.Internal.Correction>
   9.000000E+99

> <Gold.Chemscore.Hbonds>
donor molecule, donor type, donor heavy atom, donor atom, acceptor molecule, acceptor atom, score
      P1  H  7997  8009       L1    10  0.80

> <Gold.Chemscore.Hbond.Weighted>
-3.1815

> <Gold.Chemscore.Metal.Weighted>
-0.0000

> <Gold.Chemscore.Lipo.Weighted>
-10.9161

> <Gold.Chemscore.Internal_Hbond.Weighted>
0.0000

> <Gold.Chemscore.DEClash.Weighted>
0.7664

> <Gold.Chemscore.DEInternal.Weighted>
2.3714

> <Gold.Chemscore.Rot.Weighted>
4.3618

> <Gold.Chemscore.Internal.Correction.Weighted>
   9.000000E+99

> <Gold.Protein.RotatedTorsions>
[ 6907 6896 6895 6894 ] final -168.99 input  -60.11 | X-H torsion
[ 7974 7965 7964 7962 ] final -177.37 input  175.53 | X-H torsion
[ 8008 7997 7996 7995 ] final  173.84 input   59.86 | X-H torsion
[ 10167 10162 10161 10158 ] final -157.97 input  -65.29 | X-H torsion
[ 10718 10713 10712 10709 ] final -138.50 input   66.30 | X-H torsion
[ 10763 10752 10751 10750 ] final   44.09 input  -60.55 | X-H torsion
[ 11005 11000 10999 10996 ] final -134.19 input  -57.11 | X-H torsion

> <Gold.Protein.ActiveResidues>
 VAL166  LYS551  ARG553  GLY616  TRP617  ASP618  TYR619  PRO620  LYS621  CYS622 
 ASP623  PHE694  ASN695  SER759  ASP760  ASP761  ALA762  ILE779  LEU786  VAL792 
 PHE793  MET794  SER795  GLU796  ALA797  LYS798  CYS799  TRP800  GLU811  SER814 

> <Gold.Protein.RotatedAtoms>
  151.4845  133.3539  159.2843 H   0  0  0  0  0  0  0  0  0  0  0  0  # atno 6907 bound_to 6896
  150.8875  134.8277  159.7281 H   0  0  0  0  0  0  0  0  0  0  0  0  # atno 6908 bound_to 6896
  152.4802  134.4750  159.9699 H   0  0  0  0  0  0  0  0  0  0  0  0  # atno 6909 bound_to 6896
  144.7127  140.1030  143.6415 H   0  0  0  0  0  0  0  0  0  0  0  0  # atno 7974 bound_to 7965
  156.1035  140.1450  156.9436 H   0  0  0  0  0  0  0  0  0  0  0  0  # atno 8008 bound_to 7997
  154.4718  140.0907  156.7208 H   0  0  0  0  0  0  0  0  0  0  0  0  # atno 8009 bound_to 7997
  155.4719  140.3442  155.4329 H   0  0  0  0  0  0  0  0  0  0  0  0  # atno 8010 bound_to 7997
  139.6729  143.9714  152.2294 H   0  0  0  0  0  0  0  0  0  0  0  0  # atno 10167 bound_to 10162
  156.3000  130.7423  151.1472 H   0  0  0  0  0  0  0  0  0  0  0  0  # atno 10718 bound_to 10713
  152.9848  135.6081  154.3217 H   0  0  0  0  0  0  0  0  0  0  0  0  # atno 10763 bound_to 10752
  154.2927  135.2774  155.2649 H   0  0  0  0  0  0  0  0  0  0  0  0  # atno 10764 bound_to 10752
  154.4937  135.5885  153.6535 H   0  0  0  0  0  0  0  0  0  0  0  0  # atno 10765 bound_to 10752
  140.9012  134.1688  157.4459 H   0  0  0  0  0  0  0  0  0  0  0  0  # atno 11005 bound_to 11000
  145.9521  139.2741  143.1206 LP  0  0  0  0  0  0  0  0  0  0  0  0  # atno 17320 bound_to 7965
  145.9312  140.9047  143.0355 LP  0  0  0  0  0  0  0  0  0  0  0  0  # atno 17321 bound_to 7965
  139.9483  144.6637  150.8197 LP  0  0  0  0  0  0  0  0  0  0  0  0  # atno 17342 bound_to 10162
  140.7625  143.3199  151.2646 LP  0  0  0  0  0  0  0  0  0  0  0  0  # atno 17343 bound_to 10162
  157.7365  131.0561  150.5407 LP  0  0  0  0  0  0  0  0  0  0  0  0  # atno 17370 bound_to 10713
  156.5534  130.4237  149.6097 LP  0  0  0  0  0  0  0  0  0  0  0  0  # atno 17371 bound_to 10713
  139.8742  134.9899  156.5477 LP  0  0  0  0  0  0  0  0  0  0  0  0  # atno 17394 bound_to 11000
  140.8227  133.8341  155.8911 LP  0  0  0  0  0  0  0  0  0  0  0  0  # atno 17395 bound_to 11000

$$$$
