AV-unprocessed.smi:1010|AV-procd|sdf|4418|dock6
  -GOLD-   22720 2363D 1   1.00000     0.00000
 Structure written by MMmdl.
 55 57  0  0  0  0  0  0  0  0  4 V2000
  152.3641  137.1831  158.1148 C   0  0  0  0  0  0  0  0  0  0  0  0
  151.9701  138.6078  157.9240 N   0  3  0  0  0  0  0  0  0  0  0  0
  152.4879  139.4441  159.0460 C   0  0  0  0  0  0  0  0  0  0  0  0
  150.5652  138.9005  157.4097 C   0  0  0  0  0  0  0  0  0  0  0  0
  149.4176  138.5831  158.4504 C   0  0  0  0  0  0  0  0  0  0  0  0
  149.2307  137.1451  158.6557 N   0  5  0  0  0  0  0  0  0  0  0  0
  148.5582  136.5859  159.6960 C   0  0  0  0  0  0  0  0  0  0  0  0
  148.0469  137.1587  160.6645 O   0  0  0  0  0  0  0  0  0  0  0  0
  148.4803  135.2500  159.5819 N   0  0  0  0  0  0  0  0  0  0  0  0
  147.7332  134.3473  160.3860 C   0  0  0  0  0  0  0  0  0  0  0  0
  147.4430  134.6374  161.7421 C   0  0  0  0  0  0  0  0  0  0  0  0
  146.7338  133.7022  162.5209 C   0  0  0  0  0  0  0  0  0  0  0  0
  146.3360  132.4866  161.9343 C   0  0  0  0  0  0  0  0  0  0  0  0
  146.6411  132.2335  160.6440 N   0  3  0  0  0  0  0  0  0  0  0  0
  147.3157  133.0964  159.8512 C   0  0  0  0  0  0  0  0  0  0  0  0
  147.5424  132.6627  158.5338 N   0  0  0  0  0  0  0  0  0  0  0  0
  148.4169  131.5063  158.3618 C   0  0  0  0  0  0  0  0  0  0  0  0
  147.6544  130.5113  157.4817 C   0  0  0  0  0  0  0  0  0  0  0  0
  146.6855  131.3988  156.7081 C   0  0  0  0  0  0  0  0  0  0  0  0
  146.3465  132.4941  157.7179 C   0  0  0  0  0  0  0  0  0  0  0  0
  150.4803  140.4135  157.0225 C   0  0  0  0  0  0  0  0  0  0  0  0
  151.4417  140.7803  155.8760 C   0  0  0  0  0  0  0  0  0  0  0  0
  151.1279  140.0133  154.7219 O   0  0  0  0  0  0  0  0  0  0  0  0
  151.2504  138.6140  154.9356 C   0  0  0  0  0  0  0  0  0  0  0  0
  150.2910  138.1645  156.0555 C   0  0  0  0  0  0  0  0  0  0  0  0
  151.8729  136.7288  158.9732 H   0  0  0  0  0  0  0  0  0  0  0  0
  153.4373  137.1206  158.2974 H   0  0  0  0  0  0  0  0  0  0  0  0
  152.1762  136.5648  157.2398 H   0  0  0  0  0  0  0  0  0  0  0  0
  152.0280  139.1751  159.9977 H   0  0  0  0  0  0  0  0  0  0  0  0
  152.3421  140.5097  158.8837 H   0  0  0  0  0  0  0  0  0  0  0  0
  153.5623  139.2945  159.1560 H   0  0  0  0  0  0  0  0  0  0  0  0
  149.6366  139.1123  159.3786 H   0  0  0  0  0  0  0  0  0  0  0  0
  148.4901  139.0307  158.0926 H   0  0  0  0  0  0  0  0  0  0  0  0
  148.8479  134.8701  158.7218 H   0  0  0  0  0  0  0  0  0  0  0  0
  147.7688  135.5614  162.1965 H   0  0  0  0  0  0  0  0  0  0  0  0
  146.5044  133.9130  163.5551 H   0  0  0  0  0  0  0  0  0  0  0  0
  145.7922  131.7120  162.4551 H   0  0  0  0  0  0  0  0  0  0  0  0
  149.3199  131.8419  157.8515 H   0  0  0  0  0  0  0  0  0  0  0  0
  148.7261  131.0559  159.3058 H   0  0  0  0  0  0  0  0  0  0  0  0
  148.3103  129.9292  156.8344 H   0  0  0  0  0  0  0  0  0  0  0  0
  147.0949  129.8129  158.1050 H   0  0  0  0  0  0  0  0  0  0  0  0
  147.1921  131.8329  155.8451 H   0  0  0  0  0  0  0  0  0  0  0  0
  145.8058  130.8626  156.3510 H   0  0  0  0  0  0  0  0  0  0  0  0
  145.4969  132.1938  158.3321 H   0  0  0  0  0  0  0  0  0  0  0  0
  146.0824  133.4268  157.2189 H   0  0  0  0  0  0  0  0  0  0  0  0
  149.4760  140.6728  156.6764 H   0  0  0  0  0  0  0  0  0  0  0  0
  150.6623  141.0764  157.8686 H   0  0  0  0  0  0  0  0  0  0  0  0
  151.3363  141.8363  155.6272 H   0  0  0  0  0  0  0  0  0  0  0  0
  152.4835  140.6279  156.1609 H   0  0  0  0  0  0  0  0  0  0  0  0
  151.0029  138.0998  154.0067 H   0  0  0  0  0  0  0  0  0  0  0  0
  152.2857  138.3616  155.1664 H   0  0  0  0  0  0  0  0  0  0  0  0
  150.3275  137.0787  156.1538 H   0  0  0  0  0  0  0  0  0  0  0  0
  149.2784  138.3750  155.7018 H   0  0  0  0  0  0  0  0  0  0  0  0
  152.5419  138.8907  157.1415 H   0  0  0  0  0  0  0  0  0  0  0  0
  146.3442  131.3436  160.2434 H   0  0  0  0  0  0  0  0  0  0  0  0
  1  2  1  0  0  0  0
  1 26  1  0  0  0  0
  1 27  1  0  0  0  0
  1 28  1  0  0  0  0
  2  3  1  0  0  0  0
  2  4  1  0  0  0  0
  2 54  1  0  0  0  0
  3 29  1  0  0  0  0
  3 30  1  0  0  0  0
  3 31  1  0  0  0  0
  4 25  1  0  0  0  0
  4  5  1  0  0  0  0
  4 21  1  0  0  0  0
  5  6  1  0  0  0  0
  5 32  1  0  0  0  0
  5 33  1  0  0  0  0
  6  7  1  0  0  0  0
  7  8  2  0  0  0  0
  7  9  1  0  0  0  0
  9 10  1  0  0  0  0
  9 34  1  0  0  0  0
 10 15  1  0  0  0  0
 10 11  2  0  0  0  0
 11 12  1  0  0  0  0
 11 35  1  0  0  0  0
 12 13  2  0  0  0  0
 12 36  1  0  0  0  0
 13 14  1  0  0  0  0
 13 37  1  0  0  0  0
 14 15  2  0  0  0  0
 14 55  1  0  0  0  0
 15 16  1  0  0  0  0
 16 20  1  0  0  0  0
 16 17  1  0  0  0  0
 17 18  1  0  0  0  0
 17 38  1  0  0  0  0
 17 39  1  0  0  0  0
 18 19  1  0  0  0  0
 18 40  1  0  0  0  0
 18 41  1  0  0  0  0
 19 20  1  0  0  0  0
 19 42  1  0  0  0  0
 19 43  1  0  0  0  0
 20 44  1  0  0  0  0
 20 45  1  0  0  0  0
 21 22  1  0  0  0  0
 21 46  1  0  0  0  0
 21 47  1  0  0  0  0
 22 23  1  0  0  0  0
 22 48  1  0  0  0  0
 22 49  1  0  0  0  0
 23 24  1  0  0  0  0
 24 25  1  0  0  0  0
 24 50  1  0  0  0  0
 24 51  1  0  0  0  0
 25 52  1  0  0  0  0
 25 53  1  0  0  0  0
M  CHG  1   2   1
M  CHG  1   6  -1
M  CHG  1  14   1
M  END
> <s_m_source_file>
AV-unprocessed.smi

> <i_m_source_file_index>
1010

> <i_lp_mmshare_version>
43012

> <i_f3d_flags>
0

> <s_epik_input>
W0NIMl0xW0NIMl1PW0NIMl1bQ0gyXUMxKE4oW0NIM10pW0NIM10pW0NIMl1bTkhdQyg9TylbTkhdYzJbY0hdW2NIXVtjSF1uYzJOM1tDSDJdW0NIMl1bQ0gyXVtDSDJdMw==

> <s_epik_cmdline>
J2VwaWtfcHl0aG9uJywgJy1waCcsICc3LjAnLCAnLXRuJywgJzgnLCAnLW1hJywgJzIwMCcsICctbWV0YWxfYmluZGluZycsICctaW1hZScsICc8aW5maWxlLm1hZT4nLCAnLW9tYWUnLCAnPG91dGZpbGUubWFlPic=

> <r_lp_tautomer_probability>
0.999994

> <r_epik_Ionization_Penalty>
8.43521

> <r_epik_Ionization_Penalty_Charging>
8.43521

> <r_epik_Ionization_Penalty_Neutral>
3.38325e-06

> <r_epik_State_Penalty>
7.95094

> <r_epik_Charging_Adjusted_Penalty>
16.3861

> <i_epik_Tot_Q>
1

> <i_epik_Tot_abs_Q>
3

> <r_epik_Metal_State_Penalty>
3.94206

> <b_epik_Metal_Only>
1

> <s_lp_Force_Field>
OPLS_2005

> <r_lp_Energy>
62.009

> <b_lp_Chiralities_Consistent>
1

> <s_lp_Variant>
AV-unprocessed.smi:1010-4

> <Gold.Version>
5.8.1

> <Gold.Id.Protein>
6NUR|6NUR_protein|mol2

> <Gold.PLP.Fitness>
36.5225

> <Gold.PLP.PLP>
-29.2460

> <Gold.PLP.part.hbond>
-3.0000

> <Gold.PLP.part.metal>
0.0000

> <Gold.PLP.part.buried>
-4.9752

> <Gold.PLP.part.nonpolar>
-21.1279

> <Gold.PLP.part.repulsive>
0.2343

> <Gold.PLP.ligand.clash>
0.0000

> <Gold.PLP.ligand.torsion>
0.5139

> <Gold.PLP.Chemscore.Hbond>
2.5840

> <Gold.PLP.Chemscore.CHOScore>
0.0000

> <Gold.PLP.Chemscore.Metal>
0.0000

> <Gold.Chemscore.Hbonds>
donor molecule, donor type, donor heavy atom, donor atom, acceptor molecule, acceptor atom, score
      P1  H  6931  6943       L1     8  0.83
      P1  H  6934  6947       L1     8  0.68
      P1  H  7989  7998       L1    23  1.00

> <Gold.PLP.Chemscore.Internal.Correction>
0.5523

> <Gold.Rescore>
     Score         DG    S(hbond)    S(metal)    S(lipo)     H(rot)  DE(clash)    DE(int)     intcor
     15.83     -17.76       2.53        0.00      67.86       1.60       0.06       1.87       ----

> <Gold.Chemscore.Fitness>
15.8323

> <Gold.Chemscore.DG>
-17.7584

> <Gold.Chemscore.ZeroCoef>
-5.4800

> <Gold.Chemscore.Hbond>
2.5280

> <Gold.Chemscore.Metal>
0.0000

> <Gold.Chemscore.Lipo>
67.8579

> <Gold.Chemscore.Internal_Hbond>
0.0000

> <Gold.Chemscore.DEClash>
0.0604

> <Gold.Chemscore.DEInternal>
1.8658

> <Gold.Chemscore.Rot>
1.6033

> <Gold.Chemscore.Internal.Correction>
   9.000000E+99

> <Gold.Chemscore.Hbonds>
donor molecule, donor type, donor heavy atom, donor atom, acceptor molecule, acceptor atom, score
      P1  H  6931  6943       L1     8  0.82
      P1  H  6934  6947       L1     8  0.65
      P1  H  7989  7998       L1    23  0.49

> <Gold.Chemscore.Hbond.Weighted>
-8.4436

> <Gold.Chemscore.Metal.Weighted>
-0.0000

> <Gold.Chemscore.Lipo.Weighted>
-7.9394

> <Gold.Chemscore.Internal_Hbond.Weighted>
0.0000

> <Gold.Chemscore.DEClash.Weighted>
0.0604

> <Gold.Chemscore.DEInternal.Weighted>
1.8658

> <Gold.Chemscore.Rot.Weighted>
4.1046

> <Gold.Chemscore.Internal.Correction.Weighted>
   9.000000E+99

> <Gold.Protein.RotatedTorsions>
[ 6907 6896 6895 6894 ] final  142.60 input  -60.11 | X-H torsion
[ 7974 7965 7964 7962 ] final  -41.78 input  175.53 | X-H torsion
[ 8008 7997 7996 7995 ] final -165.19 input   59.86 | X-H torsion
[ 10167 10162 10161 10158 ] final  -93.67 input  -65.29 | X-H torsion
[ 10718 10713 10712 10709 ] final -146.57 input   66.30 | X-H torsion
[ 10763 10752 10751 10750 ] final  -47.44 input  -60.55 | X-H torsion
[ 11005 11000 10999 10996 ] final    8.75 input  -57.11 | X-H torsion

> <Gold.Protein.ActiveResidues>
 VAL166  LYS551  ARG553  GLY616  TRP617  ASP618  TYR619  PRO620  LYS621  CYS622 
 ASP623  PHE694  ASN695  SER759  ASP760  ASP761  ALA762  ILE779  LEU786  VAL792 
 PHE793  MET794  SER795  GLU796  ALA797  LYS798  CYS799  TRP800  GLU811  SER814 

> <Gold.Protein.RotatedAtoms>
  152.2167  133.4952  159.5139 H   0  0  0  0  0  0  0  0  0  0  0  0  # atno 6907 bound_to 6896
  150.7003  134.1396  159.4109 H   0  0  0  0  0  0  0  0  0  0  0  0  # atno 6908 bound_to 6896
  151.9316  135.0254  160.0580 H   0  0  0  0  0  0  0  0  0  0  0  0  # atno 6909 bound_to 6896
  146.0178  140.6887  142.9193 H   0  0  0  0  0  0  0  0  0  0  0  0  # atno 7974 bound_to 7965
  155.8463  140.0956  157.1703 H   0  0  0  0  0  0  0  0  0  0  0  0  # atno 8008 bound_to 7997
  154.3983  140.1391  156.3852 H   0  0  0  0  0  0  0  0  0  0  0  0  # atno 8009 bound_to 7997
  155.8009  140.3453  155.5405 H   0  0  0  0  0  0  0  0  0  0  0  0  # atno 8010 bound_to 7997
  140.3223  143.3042  152.0033 H   0  0  0  0  0  0  0  0  0  0  0  0  # atno 10167 bound_to 10162
  156.3966  130.7912  151.2119 H   0  0  0  0  0  0  0  0  0  0  0  0  # atno 10718 bound_to 10713
  154.0615  135.6617  153.4812 H   0  0  0  0  0  0  0  0  0  0  0  0  # atno 10763 bound_to 10752
  153.0425  135.5136  154.7654 H   0  0  0  0  0  0  0  0  0  0  0  0  # atno 10764 bound_to 10752
  154.6692  135.3027  154.9731 H   0  0  0  0  0  0  0  0  0  0  0  0  # atno 10765 bound_to 10752
  140.5335  134.0443  155.7881 H   0  0  0  0  0  0  0  0  0  0  0  0  # atno 11005 bound_to 11000
  144.6978  140.3512  143.7181 LP  0  0  0  0  0  0  0  0  0  0  0  0  # atno 17320 bound_to 7965
  145.7241  139.1718  143.2468 LP  0  0  0  0  0  0  0  0  0  0  0  0  # atno 17321 bound_to 7965
  139.4872  144.6301  151.7087 LP  0  0  0  0  0  0  0  0  0  0  0  0  # atno 17342 bound_to 10162
  140.5472  144.0483  150.6112 LP  0  0  0  0  0  0  0  0  0  0  0  0  # atno 17343 bound_to 10162
  157.7502  131.0299  150.4115 LP  0  0  0  0  0  0  0  0  0  0  0  0  # atno 17370 bound_to 10713
  156.4387  130.3987  149.6712 LP  0  0  0  0  0  0  0  0  0  0  0  0  # atno 17371 bound_to 10713
  141.1268  133.9370  157.2619 LP  0  0  0  0  0  0  0  0  0  0  0  0  # atno 17394 bound_to 11000
  139.9541  135.0169  156.9079 LP  0  0  0  0  0  0  0  0  0  0  0  0  # atno 17395 bound_to 11000

$$$$
