AV-unprocessed.smi:3047|AV-procd|sdf|11622|dock2
  -GOLD-   2272017 03D 1   1.00000     0.00000
 Structure written by MMmdl.
 38 39  0  0  0  0  0  0  0  0  2 V2000
  150.5254  134.6638  156.1451 C   0  0  0  0  0  0  0  0  0  0  0  0
  149.3933  133.2852  156.5981 S   0  0  0  0  0  0  0  0  0  0  0  0
  149.5279  133.0448  158.0428 O   0  0  0  0  0  0  0  0  0  0  0  0
  148.0683  133.5514  156.0168 O   0  0  0  0  0  0  0  0  0  0  0  0
  150.0796  131.9176  155.7792 N   0  0  0  0  0  0  0  0  0  0  0  0
  151.5125  131.6348  155.8028 C   0  0  0  0  0  0  0  0  0  0  0  0
  151.6318  130.2545  155.1637 C   0  0  0  0  0  0  0  0  0  0  0  0
  150.4795  130.2112  154.1636 C   0  0  0  0  0  0  0  0  0  0  0  0
  149.3702  131.0785  154.7964 C   0  0  2  0  0  0  0  0  0  0  0  0
  148.5583  131.8464  153.7413 C   0  0  0  0  0  0  0  0  0  0  0  0
  148.9685  132.9145  153.2856 O   0  0  0  0  0  0  0  0  0  0  0  0
  147.3873  131.3025  153.3809 N   0  0  0  0  0  0  0  0  0  0  0  0
  146.4498  131.9121  152.4498 C   0  0  0  0  0  0  0  0  0  0  0  0
  146.2881  133.4077  152.7507 C   0  0  0  0  0  0  0  0  0  0  0  0
  145.3043  134.0331  151.8658 N   0  0  0  0  0  0  0  0  0  0  0  0
  145.3823  135.2683  151.2757 C   0  0  0  0  0  0  0  0  0  0  0  0
  144.2327  135.4248  150.5445 C   0  0  0  0  0  0  0  0  0  0  0  0
  143.5024  134.2797  150.7199 N   0  3  0  0  0  0  0  0  0  0  0  0
  144.1556  133.4349  151.5248 C   0  0  0  0  0  0  0  0  0  0  0  0
  150.2304  135.5623  156.6863 H   0  0  0  0  0  0  0  0  0  0  0  0
  150.4705  134.8600  155.0758 H   0  0  0  0  0  0  0  0  0  0  0  0
  151.5477  134.4009  156.4153 H   0  0  0  0  0  0  0  0  0  0  0  0
  152.0359  132.3888  155.2138 H   0  0  0  0  0  0  0  0  0  0  0  0
  151.9022  131.6524  156.8208 H   0  0  0  0  0  0  0  0  0  0  0  0
  152.6033  130.0870  154.6983 H   0  0  0  0  0  0  0  0  0  0  0  0
  151.4867  129.4857  155.9236 H   0  0  0  0  0  0  0  0  0  0  0  0
  150.8246  130.6142  153.2104 H   0  0  0  0  0  0  0  0  0  0  0  0
  150.1455  129.1895  153.9799 H   0  0  0  0  0  0  0  0  0  0  0  0
  148.6976  130.4282  155.3583 H   0  0  0  0  0  0  0  0  0  0  0  0
  147.1151  130.4291  153.8091 H   0  0  0  0  0  0  0  0  0  0  0  0
  146.8128  131.7738  151.4299 H   0  0  0  0  0  0  0  0  0  0  0  0
  145.4863  131.4052  152.5226 H   0  0  0  0  0  0  0  0  0  0  0  0
  145.9597  133.5626  153.7795 H   0  0  0  0  0  0  0  0  0  0  0  0
  147.2373  133.9333  152.6325 H   0  0  0  0  0  0  0  0  0  0  0  0
  146.2272  135.9270  151.4166 H   0  0  0  0  0  0  0  0  0  0  0  0
  143.8887  136.2436  149.9294 H   0  0  0  0  0  0  0  0  0  0  0  0
  143.8203  132.4621  151.8380 H   0  0  0  0  0  0  0  0  0  0  0  0
  142.5987  134.0964  150.3020 H   0  0  0  0  0  0  0  0  0  0  0  0
  1  2  1  0  0  0  0
  1 20  1  0  0  0  0
  1 21  1  0  0  0  0
  1 22  1  0  0  0  0
  2  3  2  0  0  0  0
  2  4  2  0  0  0  0
  2  5  1  0  0  0  0
  5  9  1  0  0  0  0
  5  6  1  0  0  0  0
  6  7  1  0  0  0  0
  6 23  1  0  0  0  0
  6 24  1  0  0  0  0
  7  8  1  0  0  0  0
  7 25  1  0  0  0  0
  7 26  1  0  0  0  0
  8  9  1  0  0  0  0
  8 27  1  0  0  0  0
  8 28  1  0  0  0  0
  9 10  1  0  0  0  0
  9 29  1  0  0  0  0
 10 11  2  0  0  0  0
 10 12  1  0  0  0  0
 12 13  1  0  0  0  0
 12 30  1  0  0  0  0
 13 14  1  0  0  0  0
 13 31  1  0  0  0  0
 13 32  1  0  0  0  0
 14 15  1  0  0  0  0
 14 33  1  0  0  0  0
 14 34  1  0  0  0  0
 15 19  1  0  0  0  0
 15 16  1  0  0  0  0
 16 17  2  0  0  0  0
 16 35  1  0  0  0  0
 17 18  1  0  0  0  0
 17 36  1  0  0  0  0
 18 19  2  0  0  0  0
 18 38  1  0  0  0  0
 19 37  1  0  0  0  0
M  CHG  1  18   1
M  END
> <s_m_source_file>
AV-unprocessed.smi

> <i_m_source_file_index>
3047

> <i_lp_mmshare_version>
43012

> <i_f3d_flags>
0

> <s_epik_input>
W0NIM11TKD1PKSg9TylOMVtDSDJdW0NIMl1bQ0gyXVtDQEhdMUMoPU8pW05IXVtDSDJdW0NIMl1uMltjSF1bY0hdbltjSF0y

> <s_epik_cmdline>
J2VwaWtfcHl0aG9uJywgJy1waCcsICc3LjAnLCAnLXRuJywgJzgnLCAnLW1hJywgJzIwMCcsICctbWV0YWxfYmluZGluZycsICctaW1hZScsICc8aW5maWxlLm1hZT4nLCAnLW9tYWUnLCAnPG91dGZpbGUubWFlPic=

> <r_lp_tautomer_probability>
1

> <r_epik_Ionization_Penalty>
0.281738

> <r_epik_Ionization_Penalty_Charging>
0

> <r_epik_Ionization_Penalty_Neutral>
0.281738

> <r_epik_State_Penalty>
0.274352

> <r_epik_Charging_Adjusted_Penalty>
0.274352

> <i_epik_Tot_Q>
1

> <i_epik_Tot_abs_Q>
1

> <r_epik_Metal_State_Penalty>
0.555562

> <b_epik_Metal_Only>
0

> <s_lp_Force_Field>
OPLS_2005

> <r_lp_Energy>
11.563

> <b_lp_Chiralities_Consistent>
1

> <s_lp_Variant>
AV-unprocessed.smi:3047-2

> <Gold.Version>
5.8.1

> <Gold.Id.Protein>
6NUR|6NUR_protein|mol2

> <Gold.PLP.Fitness>
40.0750

> <Gold.PLP.PLP>
-30.1893

> <Gold.PLP.part.hbond>
-2.0000

> <Gold.PLP.part.metal>
0.0000

> <Gold.PLP.part.buried>
-3.6394

> <Gold.PLP.part.nonpolar>
-24.3287

> <Gold.PLP.part.repulsive>
0.2241

> <Gold.PLP.ligand.clash>
0.0000

> <Gold.PLP.ligand.torsion>
2.1093

> <Gold.PLP.Chemscore.Hbond>
3.0000

> <Gold.PLP.Chemscore.CHOScore>
1.0000

> <Gold.PLP.Chemscore.Metal>
0.0000

> <Gold.Chemscore.Hbonds>
donor molecule, donor type, donor heavy atom, donor atom, acceptor molecule, acceptor atom, score
      L1  H    18    38       P1 10186  2.00
      P1  H  6896  6908       L1     3  1.00
      L1  C    16    35       P1  7948  0.47

> <Gold.PLP.Chemscore.Internal.Correction>
2.1043

> <Gold.Rescore>
     Score         DG    S(hbond)    S(metal)    S(lipo)     H(rot)  DE(clash)    DE(int)     intcor
      9.66     -12.13       1.94        0.00      47.43       2.10       0.01       2.46       ----

> <Gold.Chemscore.Fitness>
9.6604

> <Gold.Chemscore.DG>
-12.1333

> <Gold.Chemscore.ZeroCoef>
-5.4800

> <Gold.Chemscore.Hbond>
1.9368

> <Gold.Chemscore.Metal>
0.0000

> <Gold.Chemscore.Lipo>
47.4252

> <Gold.Chemscore.Internal_Hbond>
0.0000

> <Gold.Chemscore.DEClash>
0.0101

> <Gold.Chemscore.DEInternal>
2.4628

> <Gold.Chemscore.Rot>
2.0954

> <Gold.Chemscore.Internal.Correction>
   9.000000E+99

> <Gold.Chemscore.Hbonds>
donor molecule, donor type, donor heavy atom, donor atom, acceptor molecule, acceptor atom, score
      L1  H    18    38       P1 10186  0.92
      P1  H  6896  6908       L1     3  1.00

> <Gold.Chemscore.Hbond.Weighted>
-6.4688

> <Gold.Chemscore.Metal.Weighted>
-0.0000

> <Gold.Chemscore.Lipo.Weighted>
-5.5488

> <Gold.Chemscore.Internal_Hbond.Weighted>
0.0000

> <Gold.Chemscore.DEClash.Weighted>
0.0101

> <Gold.Chemscore.DEInternal.Weighted>
2.4628

> <Gold.Chemscore.Rot.Weighted>
5.3643

> <Gold.Chemscore.Internal.Correction.Weighted>
   9.000000E+99

> <Gold.Protein.RotatedTorsions>
[ 6907 6896 6895 6894 ] final  118.30 input  -60.11 | X-H torsion
[ 7974 7965 7964 7962 ] final  123.67 input  175.53 | X-H torsion
[ 8008 7997 7996 7995 ] final   35.21 input   59.86 | X-H torsion
[ 10167 10162 10161 10158 ] final -179.86 input  -65.29 | X-H torsion
[ 10718 10713 10712 10709 ] final -152.31 input   66.30 | X-H torsion
[ 10763 10752 10751 10750 ] final -122.77 input  -60.55 | X-H torsion
[ 11005 11000 10999 10996 ] final  130.29 input  -57.11 | X-H torsion

> <Gold.Protein.ActiveResidues>
 VAL166  LYS551  ARG553  GLY616  TRP617  ASP618  TYR619  PRO620  LYS621  CYS622 
 ASP623  PHE694  ASN695  SER759  ASP760  ASP761  ALA762  ILE779  LEU786  VAL792 
 PHE793  MET794  SER795  GLU796  ALA797  LYS798  CYS799  TRP800  GLU811  SER814 

> <Gold.Protein.RotatedAtoms>
  152.4552  133.7709  159.6798 H   0  0  0  0  0  0  0  0  0  0  0  0  # atno 6907 bound_to 6896
  150.8476  133.7826  159.3043 H   0  0  0  0  0  0  0  0  0  0  0  0  # atno 6908 bound_to 6896
  151.5432  135.1071  159.9983 H   0  0  0  0  0  0  0  0  0  0  0  0  # atno 6909 bound_to 6896
  145.0932  139.3571  143.4850 H   0  0  0  0  0  0  0  0  0  0  0  0  # atno 7974 bound_to 7965
  155.1673  140.3288  155.4399 H   0  0  0  0  0  0  0  0  0  0  0  0  # atno 8008 bound_to 7997
  156.2522  140.1949  156.6728 H   0  0  0  0  0  0  0  0  0  0  0  0  # atno 8009 bound_to 7997
  154.6362  140.0576  156.9778 H   0  0  0  0  0  0  0  0  0  0  0  0  # atno 8010 bound_to 7997
  139.5367  144.2477  152.0809 H   0  0  0  0  0  0  0  0  0  0  0  0  # atno 10167 bound_to 10162
  156.4708  130.8257  151.2487 H   0  0  0  0  0  0  0  0  0  0  0  0  # atno 10718 bound_to 10713
  154.8696  135.4121  154.2836 H   0  0  0  0  0  0  0  0  0  0  0  0  # atno 10763 bound_to 10752
  153.3724  135.7008  153.6633 H   0  0  0  0  0  0  0  0  0  0  0  0  # atno 10764 bound_to 10752
  153.5489  135.3633  155.2723 H   0  0  0  0  0  0  0  0  0  0  0  0  # atno 10765 bound_to 10752
  139.9664  134.9589  156.9272 H   0  0  0  0  0  0  0  0  0  0  0  0  # atno 11005 bound_to 11000
  146.3531  140.0776  142.8619 LP  0  0  0  0  0  0  0  0  0  0  0  0  # atno 17320 bound_to 7965
  145.1041  140.9364  143.4695 LP  0  0  0  0  0  0  0  0  0  0  0  0  # atno 17321 bound_to 7965
  140.1949  144.4715  150.6460 LP  0  0  0  0  0  0  0  0  0  0  0  0  # atno 17342 bound_to 10162
  140.6577  143.2242  151.5929 LP  0  0  0  0  0  0  0  0  0  0  0  0  # atno 17343 bound_to 10162
  157.7491  131.0077  150.3199 LP  0  0  0  0  0  0  0  0  0  0  0  0  # atno 17370 bound_to 10713
  156.3620  130.3848  149.7244 LP  0  0  0  0  0  0  0  0  0  0  0  0  # atno 17371 bound_to 10713
  140.5388  134.0740  155.7336 LP  0  0  0  0  0  0  0  0  0  0  0  0  # atno 17394 bound_to 11000
  141.1343  133.9248  157.2467 LP  0  0  0  0  0  0  0  0  0  0  0  0  # atno 17395 bound_to 11000

$$$$
