AV-unprocessed.smi:1352|AV-procd|sdf|5528|dock7
  -GOLD-   22720 5113D 1   1.00000     0.00000
 Structure written by MMmdl.
 47 48  0  0  0  0  0  0  0  0  2 V2000
  145.8353  129.5620  152.1754 C   0  0  0  0  0  0  0  0  0  0  0  0
  145.9688  131.0792  152.3694 C   0  0  2  0  0  0  0  0  0  0  0  0
  145.8581  131.8268  151.0283 C   0  0  0  0  0  0  0  0  0  0  0  0
  146.0542  133.3437  151.2045 C   0  0  1  0  0  0  0  0  0  0  0  0
  144.8394  134.0347  151.8488 C   0  0  0  0  0  0  0  0  0  0  0  0
  147.3629  133.6346  151.9658 C   0  0  0  0  0  0  0  0  0  0  0  0
  147.4188  132.9116  153.2634 N   0  3  2  0  0  0  0  0  0  0  0  0
  148.6046  133.2972  154.0694 C   0  0  0  0  0  0  0  0  0  0  0  0
  148.3427  134.5403  154.9417 C   0  0  0  0  0  0  0  0  0  0  0  0
  148.9522  135.7351  154.3701 N   0  0  0  0  0  0  0  0  0  0  0  0
  149.2092  136.8651  155.0462 C   0  0  0  0  0  0  0  0  0  0  0  0
  148.9262  137.0150  156.2357 O   0  0  0  0  0  0  0  0  0  0  0  0
  149.8651  137.9970  154.2423 C   0  0  0  0  0  0  0  0  0  0  0  0
  148.9647  139.1358  153.9954 N   0  0  0  0  0  0  0  0  0  0  0  0
  147.6889  138.8444  153.4726 C   0  0  0  0  0  0  0  0  0  0  0  0
  146.7915  139.8083  153.2119 C   0  0  0  0  0  0  0  0  0  0  0  0
  147.1628  141.1771  153.4807 C   0  0  0  0  0  0  0  0  0  0  0  0
  148.3793  141.4668  153.9839 C   0  0  0  0  0  0  0  0  0  0  0  0
  149.3618  140.4160  154.2737 C   0  0  0  0  0  0  0  0  0  0  0  0
  150.4734  140.6702  154.7388 O   0  0  0  0  0  0  0  0  0  0  0  0
  147.2892  131.4420  153.0759 C   0  0  0  0  0  0  0  0  0  0  0  0
  146.6327  129.1704  151.5430 H   0  0  0  0  0  0  0  0  0  0  0  0
  144.8844  129.3083  151.7062 H   0  0  0  0  0  0  0  0  0  0  0  0
  145.8802  129.0378  153.1305 H   0  0  0  0  0  0  0  0  0  0  0  0
  145.1446  131.3949  153.0098 H   0  0  0  0  0  0  0  0  0  0  0  0
  146.6178  131.4483  150.3426 H   0  0  0  0  0  0  0  0  0  0  0  0
  144.8956  131.6232  150.5570 H   0  0  0  0  0  0  0  0  0  0  0  0
  146.1553  133.7736  150.2071 H   0  0  0  0  0  0  0  0  0  0  0  0
  144.6727  133.6997  152.8723 H   0  0  0  0  0  0  0  0  0  0  0  0
  143.9293  133.8355  151.2823 H   0  0  0  0  0  0  0  0  0  0  0  0
  144.9758  135.1160  151.8764 H   0  0  0  0  0  0  0  0  0  0  0  0
  148.2200  133.3394  151.3581 H   0  0  0  0  0  0  0  0  0  0  0  0
  147.4539  134.7093  152.1310 H   0  0  0  0  0  0  0  0  0  0  0  0
  148.9281  132.4535  154.6810 H   0  0  0  0  0  0  0  0  0  0  0  0
  149.4322  133.5218  153.3951 H   0  0  0  0  0  0  0  0  0  0  0  0
  147.2704  134.6963  155.0732 H   0  0  0  0  0  0  0  0  0  0  0  0
  148.7612  134.4122  155.9391 H   0  0  0  0  0  0  0  0  0  0  0  0
  149.2136  135.6953  153.3952 H   0  0  0  0  0  0  0  0  0  0  0  0
  150.7626  138.3385  154.7618 H   0  0  0  0  0  0  0  0  0  0  0  0
  150.2226  137.5801  153.2999 H   0  0  0  0  0  0  0  0  0  0  0  0
  147.4869  137.7964  153.3057 H   0  0  0  0  0  0  0  0  0  0  0  0
  145.8168  139.5661  152.8149 H   0  0  0  0  0  0  0  0  0  0  0  0
  146.4614  141.9732  153.2782 H   0  0  0  0  0  0  0  0  0  0  0  0
  148.6388  142.4968  154.1796 H   0  0  0  0  0  0  0  0  0  0  0  0
  147.3212  130.9370  154.0405 H   0  0  0  0  0  0  0  0  0  0  0  0
  148.1401  131.0732  152.5004 H   0  0  0  0  0  0  0  0  0  0  0  0
  146.6095  133.2157  153.7860 H   0  0  0  0  0  0  0  0  0  0  0  0
  1  2  1  0  0  0  0
  1 22  1  0  0  0  0
  1 23  1  0  0  0  0
  1 24  1  0  0  0  0
  2 21  1  0  0  0  0
  2  3  1  0  0  0  0
  2 25  1  0  0  0  0
  3  4  1  0  0  0  0
  3 26  1  0  0  0  0
  3 27  1  0  0  0  0
  4  5  1  0  0  0  0
  4  6  1  0  0  0  0
  4 28  1  0  0  0  0
  5 29  1  0  0  0  0
  5 30  1  0  0  0  0
  5 31  1  0  0  0  0
  6  7  1  0  0  0  0
  6 32  1  0  0  0  0
  6 33  1  0  0  0  0
  7  8  1  0  0  0  0
  7 21  1  0  0  0  0
  7 47  1  0  0  0  0
  8  9  1  0  0  0  0
  8 34  1  0  0  0  0
  8 35  1  0  0  0  0
  9 10  1  0  0  0  0
  9 36  1  0  0  0  0
  9 37  1  0  0  0  0
 10 11  1  0  0  0  0
 10 38  1  0  0  0  0
 11 12  2  0  0  0  0
 11 13  1  0  0  0  0
 13 14  1  0  0  0  0
 13 39  1  0  0  0  0
 13 40  1  0  0  0  0
 14 19  1  0  0  0  0
 14 15  1  0  0  0  0
 15 16  2  0  0  0  0
 15 41  1  0  0  0  0
 16 17  1  0  0  0  0
 16 42  1  0  0  0  0
 17 18  2  0  0  0  0
 17 43  1  0  0  0  0
 18 19  1  0  0  0  0
 18 44  1  0  0  0  0
 19 20  2  0  0  0  0
 21 45  1  0  0  0  0
 21 46  1  0  0  0  0
M  CHG  1   7   1
M  END
> <s_m_source_file>
AV-unprocessed.smi

> <i_m_source_file_index>
1352

> <i_lp_mmshare_version>
43012

> <i_f3d_flags>
0

> <s_epik_input>
W0NIM11bQ0BASF0xW0NIMl1bQ0BASF0oW0NIM10pW0NIMl1OKFtDSDJdMSlbQ0gyXVtDSDJdW05IXUMoPU8pW0NIMl1uMltjSF1bY0hdW2NIXVtjSF1jMj1P

> <s_epik_cmdline>
J2VwaWtfcHl0aG9uJywgJy1waCcsICc3LjAnLCAnLXRuJywgJzgnLCAnLW1hJywgJzIwMCcsICctbWV0YWxfYmluZGluZycsICctaW1hZScsICc8aW5maWxlLm1hZT4nLCAnLW9tYWUnLCAnPG91dGZpbGUubWFlPic=

> <r_lp_tautomer_probability>
1

> <r_epik_Ionization_Penalty>
0.00156146

> <r_epik_Ionization_Penalty_Charging>
0.00156138

> <r_epik_Ionization_Penalty_Neutral>
8.12891e-08

> <r_epik_State_Penalty>
0.00104868

> <r_epik_Charging_Adjusted_Penalty>
0.00261006

> <i_epik_Tot_Q>
1

> <i_epik_Tot_abs_Q>
1

> <r_epik_Metal_State_Penalty>
-0

> <b_epik_Metal_Only>
0

> <s_lp_Force_Field>
OPLS_2005

> <r_lp_Energy>
27.9536

> <b_lp_Chiralities_Consistent>
1

> <s_lp_Variant>
AV-unprocessed.smi:1352-1

> <Gold.Version>
5.8.1

> <Gold.Id.Protein>
6NUR|6NUR_protein|mol2

> <Gold.PLP.Fitness>
42.4413

> <Gold.PLP.PLP>
-35.9850

> <Gold.PLP.part.hbond>
-2.0000

> <Gold.PLP.part.metal>
0.0000

> <Gold.PLP.part.buried>
-1.3781

> <Gold.PLP.part.nonpolar>
-32.4982

> <Gold.PLP.part.repulsive>
0.0968

> <Gold.PLP.ligand.clash>
0.0000

> <Gold.PLP.ligand.torsion>
1.0062

> <Gold.PLP.Chemscore.Hbond>
1.9280

> <Gold.PLP.Chemscore.CHOScore>
0.8862

> <Gold.PLP.Chemscore.Metal>
0.0000

> <Gold.Chemscore.Hbonds>
donor molecule, donor type, donor heavy atom, donor atom, acceptor molecule, acceptor atom, score
      L1  H    10    38       P1  7948  0.99
      P1  H  7989  7998       L1    20  0.91
      L1  C    15    41       P1  7948  0.77

> <Gold.PLP.Chemscore.Internal.Correction>
0.0260

> <Gold.Rescore>
     Score         DG    S(hbond)    S(metal)    S(lipo)     H(rot)  DE(clash)    DE(int)     intcor
     15.01     -16.73       1.86        0.00      83.22       1.83       0.80       0.92       ----

> <Gold.Chemscore.Fitness>
15.0138

> <Gold.Chemscore.DG>
-16.7305

> <Gold.Chemscore.ZeroCoef>
-5.4800

> <Gold.Chemscore.Hbond>
1.8580

> <Gold.Chemscore.Metal>
0.0000

> <Gold.Chemscore.Lipo>
83.2214

> <Gold.Chemscore.Internal_Hbond>
0.0000

> <Gold.Chemscore.DEClash>
0.7962

> <Gold.Chemscore.DEInternal>
0.9205

> <Gold.Chemscore.Rot>
1.8329

> <Gold.Chemscore.Internal.Correction>
   9.000000E+99

> <Gold.Chemscore.Hbonds>
donor molecule, donor type, donor heavy atom, donor atom, acceptor molecule, acceptor atom, score
      L1  H    10    38       P1  7948  0.52
      P1  H  7989  7998       L1    20  0.69

> <Gold.Chemscore.Hbond.Weighted>
-6.2058

> <Gold.Chemscore.Metal.Weighted>
-0.0000

> <Gold.Chemscore.Lipo.Weighted>
-9.7369

> <Gold.Chemscore.Internal_Hbond.Weighted>
0.0000

> <Gold.Chemscore.DEClash.Weighted>
0.7962

> <Gold.Chemscore.DEInternal.Weighted>
0.9205

> <Gold.Chemscore.Rot.Weighted>
4.6922

> <Gold.Chemscore.Internal.Correction.Weighted>
   9.000000E+99

> <Gold.Protein.RotatedTorsions>
[ 6907 6896 6895 6894 ] final  134.26 input  -60.11 | X-H torsion
[ 7974 7965 7964 7962 ] final   -7.84 input  175.53 | X-H torsion
[ 8008 7997 7996 7995 ] final -168.18 input   59.86 | X-H torsion
[ 10167 10162 10161 10158 ] final  -10.27 input  -65.29 | X-H torsion
[ 10718 10713 10712 10709 ] final    0.36 input   66.30 | X-H torsion
[ 10763 10752 10751 10750 ] final   -8.86 input  -60.55 | X-H torsion
[ 11005 11000 10999 10996 ] final  111.95 input  -57.11 | X-H torsion

> <Gold.Protein.ActiveResidues>
 VAL166  LYS551  ARG553  GLY616  TRP617  ASP618  TYR619  PRO620  LYS621  CYS622 
 ASP623  PHE694  ASN695  SER759  ASP760  ASP761  ALA762  ILE779  LEU786  VAL792 
 PHE793  MET794  SER795  GLU796  ALA797  LYS798  CYS799  TRP800  GLU811  SER814 

> <Gold.Protein.RotatedAtoms>
  152.3132  133.5774  159.5694 H   0  0  0  0  0  0  0  0  0  0  0  0  # atno 6907 bound_to 6896
  150.7333  134.0121  159.3682 H   0  0  0  0  0  0  0  0  0  0  0  0  # atno 6908 bound_to 6896
  151.8012  135.0708  160.0451 H   0  0  0  0  0  0  0  0  0  0  0  0  # atno 6909 bound_to 6896
  146.2296  140.2380  142.8342 H   0  0  0  0  0  0  0  0  0  0  0  0  # atno 7974 bound_to 7965
  155.8879  140.1020  157.1439 H   0  0  0  0  0  0  0  0  0  0  0  0  # atno 8008 bound_to 7997
  154.4012  140.1316  156.4342 H   0  0  0  0  0  0  0  0  0  0  0  0  # atno 8009 bound_to 7997
  155.7567  140.3464  155.5180 H   0  0  0  0  0  0  0  0  0  0  0  0  # atno 8010 bound_to 7997
  140.7109  143.5766  150.9036 H   0  0  0  0  0  0  0  0  0  0  0  0  # atno 10167 bound_to 10162
  156.8323  130.5492  149.5685 H   0  0  0  0  0  0  0  0  0  0  0  0  # atno 10718 bound_to 10713
  153.4465  135.7014  153.6136 H   0  0  0  0  0  0  0  0  0  0  0  0  # atno 10763 bound_to 10752
  153.4489  135.3763  155.2272 H   0  0  0  0  0  0  0  0  0  0  0  0  # atno 10764 bound_to 10752
  154.8728  135.3992  154.3871 H   0  0  0  0  0  0  0  0  0  0  0  0  # atno 10765 bound_to 10752
  139.8916  134.9519  156.6511 H   0  0  0  0  0  0  0  0  0  0  0  0  # atno 11005 bound_to 11000
  144.9506  140.8175  143.5574 LP  0  0  0  0  0  0  0  0  0  0  0  0  # atno 17320 bound_to 7965
  145.2340  139.2102  143.5027 LP  0  0  0  0  0  0  0  0  0  0  0  0  # atno 17321 bound_to 7965
  139.9492  143.6292  152.3033 LP  0  0  0  0  0  0  0  0  0  0  0  0  # atno 17342 bound_to 10162
  139.6804  144.7656  151.1618 LP  0  0  0  0  0  0  0  0  0  0  0  0  # atno 17343 bound_to 10162
  156.0927  130.5908  150.9761 LP  0  0  0  0  0  0  0  0  0  0  0  0  # atno 17370 bound_to 10713
  157.6400  131.0911  150.8270 LP  0  0  0  0  0  0  0  0  0  0  0  0  # atno 17371 bound_to 10713
  140.7519  133.8890  155.8353 LP  0  0  0  0  0  0  0  0  0  0  0  0  # atno 17394 bound_to 11000
  140.9993  134.1172  157.4333 LP  0  0  0  0  0  0  0  0  0  0  0  0  # atno 17395 bound_to 11000

$$$$
