AV-unprocessed.smi:1536|AV-procd|sdf|6186|dock10
  -GOLD-   22720 6353D 1   1.00000     0.00000
 Structure written by MMmdl.
 48 49  0  0  0  0  0  0  0  0  2 V2000
  145.8168  132.0131  150.1380 C   0  0  0  0  0  0  0  0  0  0  0  0
  145.5135  133.1276  151.1492 C   0  0  2  0  0  0  0  0  0  0  0  0
  145.4223  134.5039  150.4688 C   0  0  0  0  0  0  0  0  0  0  0  0
  145.1431  135.6112  151.4971 C   0  0  0  0  0  0  0  0  0  0  0  0
  146.1957  135.6336  152.5513 N   0  3  1  0  0  0  0  0  0  0  0  0
  146.1794  136.8090  153.4790 C   0  0  2  0  0  0  0  0  0  0  0  0
  147.2412  136.7274  154.6105 C   0  0  0  0  0  0  0  0  0  0  0  0
  148.5468  137.1961  154.1573 N   0  0  0  0  0  0  0  0  0  0  0  0
  149.4518  137.8444  154.9079 C   0  0  0  0  0  0  0  0  0  0  0  0
  149.3356  138.0211  156.1199 O   0  0  0  0  0  0  0  0  0  0  0  0
  150.6523  138.4253  154.1629 C   0  0  0  0  0  0  0  0  0  0  0  0
  151.8248  138.4068  155.0171 N   0  0  0  0  0  0  0  0  0  0  0  0
  152.0986  139.0663  156.1444 C   0  0  0  0  0  0  0  0  0  0  0  0
  153.3163  138.7922  156.5868 N   0  0  0  0  0  0  0  0  0  0  0  0
  153.7993  137.8974  155.6470 N   0  0  0  0  0  0  0  0  0  0  0  0
  152.9192  137.6650  154.7128 N   0  0  0  0  0  0  0  0  0  0  0  0
  144.7317  137.1310  153.9537 C   0  0  0  0  0  0  0  0  0  0  0  0
  144.5896  138.4519  154.7291 C   0  0  0  0  0  0  0  0  0  0  0  0
  144.1158  135.9643  154.7450 C   0  0  0  0  0  0  0  0  0  0  0  0
  146.2802  134.3278  153.2573 C   0  0  0  0  0  0  0  0  0  0  0  0
  146.5662  133.1835  152.2693 C   0  0  0  0  0  0  0  0  0  0  0  0
  146.7757  132.1740  149.6445 H   0  0  0  0  0  0  0  0  0  0  0  0
  145.0490  131.9647  149.3653 H   0  0  0  0  0  0  0  0  0  0  0  0
  145.8531  131.0389  150.6264 H   0  0  0  0  0  0  0  0  0  0  0  0
  144.5461  132.9078  151.6037 H   0  0  0  0  0  0  0  0  0  0  0  0
  146.3514  134.7222  149.9401 H   0  0  0  0  0  0  0  0  0  0  0  0
  144.6329  134.4962  149.7162 H   0  0  0  0  0  0  0  0  0  0  0  0
  145.0926  136.5692  150.9821 H   0  0  0  0  0  0  0  0  0  0  0  0
  144.1645  135.4433  151.9491 H   0  0  0  0  0  0  0  0  0  0  0  0
  146.4686  137.6819  152.8915 H   0  0  0  0  0  0  0  0  0  0  0  0
  146.9262  137.2818  155.4949 H   0  0  0  0  0  0  0  0  0  0  0  0
  147.3610  135.6911  154.9280 H   0  0  0  0  0  0  0  0  0  0  0  0
  148.7450  137.0960  153.1718 H   0  0  0  0  0  0  0  0  0  0  0  0
  150.8594  137.8397  153.2663 H   0  0  0  0  0  0  0  0  0  0  0  0
  150.4467  139.4485  153.8449 H   0  0  0  0  0  0  0  0  0  0  0  0
  151.4175  139.7505  156.6285 H   0  0  0  0  0  0  0  0  0  0  0  0
  144.1094  137.2303  153.0644 H   0  0  0  0  0  0  0  0  0  0  0  0
  145.0748  138.4010  155.7037 H   0  0  0  0  0  0  0  0  0  0  0  0
  143.5387  138.6828  154.9058 H   0  0  0  0  0  0  0  0  0  0  0  0
  145.0151  139.2919  154.1810 H   0  0  0  0  0  0  0  0  0  0  0  0
  144.6386  135.7941  155.6865 H   0  0  0  0  0  0  0  0  0  0  0  0
  144.1492  135.0372  154.1719 H   0  0  0  0  0  0  0  0  0  0  0  0
  143.0698  136.1620  154.9811 H   0  0  0  0  0  0  0  0  0  0  0  0
  147.0813  134.3537  153.9970 H   0  0  0  0  0  0  0  0  0  0  0  0
  145.3511  134.1430  153.7985 H   0  0  0  0  0  0  0  0  0  0  0  0
  146.5920  132.2343  152.8057 H   0  0  0  0  0  0  0  0  0  0  0  0
  147.5585  133.3194  151.8365 H   0  0  0  0  0  0  0  0  0  0  0  0
  147.0737  135.7145  152.0581 H   0  0  0  0  0  0  0  0  0  0  0  0
  1  2  1  0  0  0  0
  1 22  1  0  0  0  0
  1 23  1  0  0  0  0
  1 24  1  0  0  0  0
  2 21  1  0  0  0  0
  2  3  1  0  0  0  0
  2 25  1  0  0  0  0
  3  4  1  0  0  0  0
  3 26  1  0  0  0  0
  3 27  1  0  0  0  0
  4  5  1  0  0  0  0
  4 28  1  0  0  0  0
  4 29  1  0  0  0  0
  5  6  1  0  0  0  0
  5 20  1  0  0  0  0
  5 48  1  0  0  0  0
  6  7  1  0  0  0  0
  6 17  1  0  0  0  0
  6 30  1  0  0  0  0
  7  8  1  0  0  0  0
  7 31  1  0  0  0  0
  7 32  1  0  0  0  0
  8  9  1  0  0  0  0
  8 33  1  0  0  0  0
  9 10  2  0  0  0  0
  9 11  1  0  0  0  0
 11 12  1  0  0  0  0
 11 34  1  0  0  0  0
 11 35  1  0  0  0  0
 12 16  1  0  0  0  0
 12 13  1  0  0  0  0
 13 14  2  0  0  0  0
 13 36  1  0  0  0  0
 14 15  1  0  0  0  0
 15 16  2  0  0  0  0
 17 18  1  0  0  0  0
 17 19  1  0  0  0  0
 17 37  1  0  0  0  0
 18 38  1  0  0  0  0
 18 39  1  0  0  0  0
 18 40  1  0  0  0  0
 19 41  1  0  0  0  0
 19 42  1  0  0  0  0
 19 43  1  0  0  0  0
 20 21  1  0  0  0  0
 20 44  1  0  0  0  0
 20 45  1  0  0  0  0
 21 46  1  0  0  0  0
 21 47  1  0  0  0  0
M  CHG  1   5   1
M  END
> <s_m_source_file>
AV-unprocessed.smi

> <i_m_source_file_index>
1536

> <i_lp_mmshare_version>
43012

> <i_f3d_flags>
0

> <s_epik_input>
W0NIM11bQ0hdMVtDSDJdW0NIMl1OKFtDSDJdW0NIMl0xKVtDQEBIXShbQ0hdKFtDSDNdKVtDSDNdKVtDSDJdW05IXUMoPU8pW0NIMl1uMltjSF1ubm4y

> <s_epik_cmdline>
J2VwaWtfcHl0aG9uJywgJy1waCcsICc3LjAnLCAnLXRuJywgJzgnLCAnLW1hJywgJzIwMCcsICctbWV0YWxfYmluZGluZycsICctaW1hZScsICc8aW5maWxlLm1hZT4nLCAnLW9tYWUnLCAnPG91dGZpbGUubWFlPic=

> <r_lp_tautomer_probability>
1

> <r_epik_Ionization_Penalty>
0.00109671

> <r_epik_Ionization_Penalty_Charging>
0.00109273

> <r_epik_Ionization_Penalty_Neutral>
3.97951e-06

> <r_epik_State_Penalty>
0.000716588

> <r_epik_Charging_Adjusted_Penalty>
0.00180932

> <i_epik_Tot_Q>
1

> <i_epik_Tot_abs_Q>
1

> <r_epik_Metal_State_Penalty>
-0

> <b_epik_Metal_Only>
0

> <s_lp_Force_Field>
OPLS_2005

> <r_lp_Energy>
28.917

> <b_lp_Chiralities_Consistent>
1

> <s_lp_Variant>
AV-unprocessed.smi:1536-1

> <Gold.Version>
5.8.1

> <Gold.Id.Protein>
6NUR|6NUR_protein|mol2

> <Gold.PLP.Fitness>
42.0532

> <Gold.PLP.PLP>
-31.1729

> <Gold.PLP.part.hbond>
-5.6189

> <Gold.PLP.part.metal>
0.0000

> <Gold.PLP.part.buried>
-4.7229

> <Gold.PLP.part.nonpolar>
-21.6448

> <Gold.PLP.part.repulsive>
0.0760

> <Gold.PLP.ligand.clash>
0.0000

> <Gold.PLP.ligand.torsion>
1.2246

> <Gold.PLP.Chemscore.Hbond>
4.2746

> <Gold.PLP.Chemscore.CHOScore>
0.0000

> <Gold.PLP.Chemscore.Metal>
0.0000

> <Gold.Chemscore.Hbonds>
donor molecule, donor type, donor heavy atom, donor atom, acceptor molecule, acceptor atom, score
      L1  H     5    48       P1  7948  2.00
      L1  H     8    33       P1  7948  1.00
      P1  H  7997  8009       L1    14  1.00
      P1  H 10752 10765       L1    16  0.29

> <Gold.PLP.Chemscore.Internal.Correction>
0.5058

> <Gold.Rescore>
     Score         DG    S(hbond)    S(metal)    S(lipo)     H(rot)  DE(clash)    DE(int)     intcor
     11.95     -14.50       3.00        0.00      52.10       2.77       0.25       2.29       ----

> <Gold.Chemscore.Fitness>
11.9494

> <Gold.Chemscore.DG>
-14.4952

> <Gold.Chemscore.ZeroCoef>
-5.4800

> <Gold.Chemscore.Hbond>
2.9978

> <Gold.Chemscore.Metal>
0.0000

> <Gold.Chemscore.Lipo>
52.1038

> <Gold.Chemscore.Internal_Hbond>
0.0000

> <Gold.Chemscore.DEClash>
0.2512

> <Gold.Chemscore.DEInternal>
2.2945

> <Gold.Chemscore.Rot>
2.7709

> <Gold.Chemscore.Internal.Correction>
   9.000000E+99

> <Gold.Chemscore.Hbonds>
donor molecule, donor type, donor heavy atom, donor atom, acceptor molecule, acceptor atom, score
      L1  H     5    48       P1  7948  0.98
      L1  H     8    33       P1  7948  0.94
      P1  H  7997  8009       L1    14  0.44
      P1  H 10752 10765       L1    16  0.21

> <Gold.Chemscore.Hbond.Weighted>
-10.0126

> <Gold.Chemscore.Metal.Weighted>
-0.0000

> <Gold.Chemscore.Lipo.Weighted>
-6.0961

> <Gold.Chemscore.Internal_Hbond.Weighted>
0.0000

> <Gold.Chemscore.DEClash.Weighted>
0.2512

> <Gold.Chemscore.DEInternal.Weighted>
2.2945

> <Gold.Chemscore.Rot.Weighted>
7.0935

> <Gold.Chemscore.Internal.Correction.Weighted>
   9.000000E+99

> <Gold.Protein.RotatedTorsions>
[ 6907 6896 6895 6894 ] final  -77.71 input  -60.11 | X-H torsion
[ 7974 7965 7964 7962 ] final -169.71 input  175.53 | X-H torsion
[ 8008 7997 7996 7995 ] final -175.54 input   59.86 | X-H torsion
[ 10167 10162 10161 10158 ] final   -6.55 input  -65.29 | X-H torsion
[ 10718 10713 10712 10709 ] final   55.91 input   66.30 | X-H torsion
[ 10763 10752 10751 10750 ] final  144.12 input  -60.55 | X-H torsion
[ 11005 11000 10999 10996 ] final -114.48 input  -57.11 | X-H torsion

> <Gold.Protein.ActiveResidues>
 VAL166  LYS551  ARG553  GLY616  TRP617  ASP618  TYR619  PRO620  LYS621  CYS622 
 ASP623  PHE694  ASN695  SER759  ASP760  ASP761  ALA762  ILE779  LEU786  VAL792 
 PHE793  MET794  SER795  GLU796  ALA797  LYS798  CYS799  TRP800  GLU811  SER814 

> <Gold.Protein.RotatedAtoms>
  150.6991  134.4382  159.5279 H   0  0  0  0  0  0  0  0  0  0  0  0  # atno 6907 bound_to 6896
  152.2097  134.8510  160.0508 H   0  0  0  0  0  0  0  0  0  0  0  0  # atno 6908 bound_to 6896
  151.9400  133.3600  159.3998 H   0  0  0  0  0  0  0  0  0  0  0  0  # atno 6909 bound_to 6896
  144.7181  140.2181  143.6319 H   0  0  0  0  0  0  0  0  0  0  0  0  # atno 7974 bound_to 7965
  155.9838  140.1187  157.0702 H   0  0  0  0  0  0  0  0  0  0  0  0  # atno 8008 bound_to 7997
  154.4191  140.1139  156.5540 H   0  0  0  0  0  0  0  0  0  0  0  0  # atno 8009 bound_to 7997
  155.6435  140.3473  155.4725 H   0  0  0  0  0  0  0  0  0  0  0  0  # atno 8010 bound_to 7997
  140.7000  143.6181  150.8639 H   0  0  0  0  0  0  0  0  0  0  0  0  # atno 10167 bound_to 10162
  157.5386  130.8681  149.8789 H   0  0  0  0  0  0  0  0  0  0  0  0  # atno 10718 bound_to 10713
  153.9837  135.2939  155.3418 H   0  0  0  0  0  0  0  0  0  0  0  0  # atno 10763 bound_to 10752
  154.7254  135.5091  153.8882 H   0  0  0  0  0  0  0  0  0  0  0  0  # atno 10764 bound_to 10752
  153.0842  135.6688  154.0097 H   0  0  0  0  0  0  0  0  0  0  0  0  # atno 10765 bound_to 10752
  141.0549  133.9629  157.2772 H   0  0  0  0  0  0  0  0  0  0  0  0  # atno 11005 bound_to 11000
  145.8527  139.2183  143.1763 LP  0  0  0  0  0  0  0  0  0  0  0  0  # atno 17320 bound_to 7965
  146.0246  140.8316  142.9906 LP  0  0  0  0  0  0  0  0  0  0  0  0  # atno 17321 bound_to 7965
  139.9902  143.5855  152.2913 LP  0  0  0  0  0  0  0  0  0  0  0  0  # atno 17342 bound_to 10162
  139.6507  144.7660  151.2153 LP  0  0  0  0  0  0  0  0  0  0  0  0  # atno 17343 bound_to 10162
  156.0478  130.3724  150.1274 LP  0  0  0  0  0  0  0  0  0  0  0  0  # atno 17370 bound_to 10713
  156.9455  130.9758  151.3508 LP  0  0  0  0  0  0  0  0  0  0  0  0  # atno 17371 bound_to 10713
  139.9381  135.0194  156.8622 LP  0  0  0  0  0  0  0  0  0  0  0  0  # atno 17394 bound_to 11000
  140.5984  134.0195  155.7527 LP  0  0  0  0  0  0  0  0  0  0  0  0  # atno 17395 bound_to 11000

$$$$
