AV-unprocessed.smi:1396|AV-procd|sdf|5678|dock7
  -GOLD-   22720 5303D 1   1.00000     0.00000
 Structure written by MMmdl.
 46 47  0  0  0  0  0  0  0  0  3 V2000
  143.5736  145.6377  157.1082 C   0  0  0  0  0  0  0  0  0  0  0  0
  143.4839  144.4362  156.2872 N   0  5  0  0  0  0  0  0  0  0  0  0
  144.1276  143.2750  156.5822 C   0  0  0  0  0  0  0  0  0  0  0  0
  144.9315  143.0042  157.4805 O   0  0  0  0  0  0  0  0  0  0  0  0
  143.7655  142.1734  155.5793 C   0  0  0  0  0  0  0  0  0  0  0  0
  144.9713  141.7441  154.8270 N   0  3  2  0  0  0  0  0  0  0  0  0
  145.8596  140.8400  155.6076 C   0  0  0  0  0  0  0  0  0  0  0  0
  147.0291  140.3282  154.7487 C   0  0  0  0  0  0  0  0  0  0  0  0
  147.8401  141.4834  154.1293 C   0  0  2  0  0  0  0  0  0  0  0  0
  148.6050  142.2153  155.1388 N   0  0  0  0  0  0  0  0  0  0  0  0
  149.5578  141.6904  155.9226 C   0  0  0  0  0  0  0  0  0  0  0  0
  149.9030  140.5103  155.8729 O   0  0  0  0  0  0  0  0  0  0  0  0
  150.0839  142.6210  156.7371 N   0  0  0  0  0  0  0  0  0  0  0  0
  151.0655  142.4515  157.7504 C   0  0  0  0  0  0  0  0  0  0  0  0
  151.5989  143.6056  158.3588 C   0  0  0  0  0  0  0  0  0  0  0  0
  152.5526  143.4634  159.3843 C   0  0  0  0  0  0  0  0  0  0  0  0
  152.9372  142.1665  159.7784 C   0  0  0  0  0  0  0  0  0  0  0  0
  153.8690  142.0318  160.7871 O   0  0  0  0  0  0  0  0  0  0  0  0
  154.2663  140.7193  161.1687 C   0  0  0  0  0  0  0  0  0  0  0  0
  152.4215  141.0497  159.2083 N   0  0  0  0  0  0  0  0  0  0  0  0
  151.5096  141.1924  158.2232 C   0  0  0  0  0  0  0  0  0  0  0  0
  146.8903  142.4337  153.3809 C   0  0  0  0  0  0  0  0  0  0  0  0
  145.7203  142.8981  154.2675 C   0  0  0  0  0  0  0  0  0  0  0  0
  143.0512  146.4788  156.6529 H   0  0  0  0  0  0  0  0  0  0  0  0
  144.6033  145.9617  157.2616 H   0  0  0  0  0  0  0  0  0  0  0  0
  143.1352  145.4993  158.0968 H   0  0  0  0  0  0  0  0  0  0  0  0
  143.3714  141.3370  156.1586 H   0  0  0  0  0  0  0  0  0  0  0  0
  142.9713  142.4710  154.8908 H   0  0  0  0  0  0  0  0  0  0  0  0
  146.2371  141.3664  156.4856 H   0  0  0  0  0  0  0  0  0  0  0  0
  145.2967  139.9825  155.9768 H   0  0  0  0  0  0  0  0  0  0  0  0
  147.6733  139.6797  155.3434 H   0  0  0  0  0  0  0  0  0  0  0  0
  146.6324  139.7020  153.9485 H   0  0  0  0  0  0  0  0  0  0  0  0
  148.5462  141.0710  153.4063 H   0  0  0  0  0  0  0  0  0  0  0  0
  148.3952  143.1971  155.2453 H   0  0  0  0  0  0  0  0  0  0  0  0
  149.7692  143.5693  156.5935 H   0  0  0  0  0  0  0  0  0  0  0  0
  151.2856  144.5904  158.0444 H   0  0  0  0  0  0  0  0  0  0  0  0
  152.9791  144.3329  159.8627 H   0  0  0  0  0  0  0  0  0  0  0  0
  155.0000  140.7841  161.9721 H   0  0  0  0  0  0  0  0  0  0  0  0
  154.7310  140.1853  160.3386 H   0  0  0  0  0  0  0  0  0  0  0  0
  153.4205  140.1387  161.5398 H   0  0  0  0  0  0  0  0  0  0  0  0
  151.1189  140.2655  157.8335 H   0  0  0  0  0  0  0  0  0  0  0  0
  147.4392  143.2967  153.0018 H   0  0  0  0  0  0  0  0  0  0  0  0
  146.4899  141.9217  152.5047 H   0  0  0  0  0  0  0  0  0  0  0  0
  145.0486  143.5173  153.6719 H   0  0  0  0  0  0  0  0  0  0  0  0
  146.0856  143.5237  155.0834 H   0  0  0  0  0  0  0  0  0  0  0  0
  144.6295  141.2136  154.0382 H   0  0  0  0  0  0  0  0  0  0  0  0
  1  2  1  0  0  0  0
  1 24  1  0  0  0  0
  1 25  1  0  0  0  0
  1 26  1  0  0  0  0
  2  3  1  0  0  0  0
  3  4  2  0  0  0  0
  3  5  1  0  0  0  0
  5  6  1  0  0  0  0
  5 27  1  0  0  0  0
  5 28  1  0  0  0  0
  6 23  1  0  0  0  0
  6  7  1  0  0  0  0
  6 46  1  0  0  0  0
  7  8  1  0  0  0  0
  7 29  1  0  0  0  0
  7 30  1  0  0  0  0
  8  9  1  0  0  0  0
  8 31  1  0  0  0  0
  8 32  1  0  0  0  0
  9 10  1  0  0  0  0
  9 22  1  0  0  0  0
  9 33  1  0  0  0  0
 10 11  1  0  0  0  0
 10 34  1  0  0  0  0
 11 12  2  0  0  0  0
 11 13  1  0  0  0  0
 13 14  1  0  0  0  0
 13 35  1  0  0  0  0
 14 21  1  0  0  0  0
 14 15  2  0  0  0  0
 15 16  1  0  0  0  0
 15 36  1  0  0  0  0
 16 17  2  0  0  0  0
 16 37  1  0  0  0  0
 17 18  1  0  0  0  0
 17 20  1  0  0  0  0
 18 19  1  0  0  0  0
 19 38  1  0  0  0  0
 19 39  1  0  0  0  0
 19 40  1  0  0  0  0
 20 21  2  0  0  0  0
 21 41  1  0  0  0  0
 22 23  1  0  0  0  0
 22 42  1  0  0  0  0
 22 43  1  0  0  0  0
 23 44  1  0  0  0  0
 23 45  1  0  0  0  0
M  CHG  1   2  -1
M  CHG  1   6   1
M  END
> <s_m_source_file>
AV-unprocessed.smi

> <i_m_source_file_index>
1396

> <i_lp_mmshare_version>
43012

> <i_f3d_flags>
0

> <s_epik_input>
W0NIM11bTkhdQyg9TylbQ0gyXU4xW0NIMl1bQ0gyXVtDSF0oW0NIMl1bQ0gyXTEpW05IXUMoPU8pW05IXWMyW2NIXVtjSF1jKE9bQ0gzXSluW2NIXTI=

> <s_epik_cmdline>
J2VwaWtfcHl0aG9uJywgJy1waCcsICc3LjAnLCAnLXRuJywgJzgnLCAnLW1hJywgJzIwMCcsICctbWV0YWxfYmluZGluZycsICctaW1hZScsICc8aW5maWxlLm1hZT4nLCAnLW9tYWUnLCAnPG91dGZpbGUubWFlPic=

> <r_lp_tautomer_probability>
1

> <r_epik_Ionization_Penalty>
6.13954

> <r_epik_Ionization_Penalty_Charging>
6.13946

> <r_epik_Ionization_Penalty_Neutral>
7.8452e-05

> <r_epik_State_Penalty>
6.9595

> <r_epik_Charging_Adjusted_Penalty>
13.099

> <i_epik_Tot_Q>
0

> <i_epik_Tot_abs_Q>
2

> <r_epik_Metal_State_Penalty>
2.89145

> <b_epik_Metal_Only>
1

> <s_lp_Force_Field>
OPLS_2005

> <r_lp_Energy>
12.8202

> <b_lp_Chiralities_Consistent>
1

> <s_lp_Variant>
AV-unprocessed.smi:1396-5

> <Gold.Version>
5.8.1

> <Gold.Id.Protein>
6NUR|6NUR_protein|mol2

> <Gold.PLP.Fitness>
50.0678

> <Gold.PLP.PLP>
-38.3122

> <Gold.PLP.part.hbond>
-3.1364

> <Gold.PLP.part.metal>
0.0000

> <Gold.PLP.part.buried>
-6.7031

> <Gold.PLP.part.nonpolar>
-28.5919

> <Gold.PLP.part.repulsive>
0.4733

> <Gold.PLP.ligand.clash>
0.0000

> <Gold.PLP.ligand.torsion>
0.1391

> <Gold.PLP.Chemscore.Hbond>
4.0000

> <Gold.PLP.Chemscore.CHOScore>
0.0000

> <Gold.PLP.Chemscore.Metal>
0.0000

> <Gold.Chemscore.Hbonds>
donor molecule, donor type, donor heavy atom, donor atom, acceptor molecule, acceptor atom, score
      L1  H     6    46       P1 10175  2.00
      L1  H    10    34       P1  8028  1.00
      L1  H    13    35       P1  8028  1.00

> <Gold.PLP.Chemscore.Internal.Correction>
0.0340

> <Gold.Rescore>
     Score         DG    S(hbond)    S(metal)    S(lipo)     H(rot)  DE(clash)    DE(int)     intcor
     16.61     -19.41       2.80        0.00      81.30       1.93       1.30       1.50       ----

> <Gold.Chemscore.Fitness>
16.6065

> <Gold.Chemscore.DG>
-19.4128

> <Gold.Chemscore.ZeroCoef>
-5.4800

> <Gold.Chemscore.Hbond>
2.8017

> <Gold.Chemscore.Metal>
0.0000

> <Gold.Chemscore.Lipo>
81.2978

> <Gold.Chemscore.Internal_Hbond>
0.0000

> <Gold.Chemscore.DEClash>
1.3043

> <Gold.Chemscore.DEInternal>
1.5020

> <Gold.Chemscore.Rot>
1.9283

> <Gold.Chemscore.Internal.Correction>
   9.000000E+99

> <Gold.Chemscore.Hbonds>
donor molecule, donor type, donor heavy atom, donor atom, acceptor molecule, acceptor atom, score
      L1  H     6    46       P1 10175  0.65
      L1  H    10    34       P1  8028  0.94
      L1  H    13    35       P1  8028  0.95

> <Gold.Chemscore.Hbond.Weighted>
-9.3575

> <Gold.Chemscore.Metal.Weighted>
-0.0000

> <Gold.Chemscore.Lipo.Weighted>
-9.5118

> <Gold.Chemscore.Internal_Hbond.Weighted>
0.0000

> <Gold.Chemscore.DEClash.Weighted>
1.3043

> <Gold.Chemscore.DEInternal.Weighted>
1.5020

> <Gold.Chemscore.Rot.Weighted>
4.9365

> <Gold.Chemscore.Internal.Correction.Weighted>
   9.000000E+99

> <Gold.Protein.RotatedTorsions>
[ 6907 6896 6895 6894 ] final  -36.26 input  -60.11 | X-H torsion
[ 7974 7965 7964 7962 ] final  -91.49 input  175.53 | X-H torsion
[ 8008 7997 7996 7995 ] final  141.43 input   59.86 | X-H torsion
[ 10167 10162 10161 10158 ] final   -0.67 input  -65.29 | X-H torsion
[ 10718 10713 10712 10709 ] final    5.71 input   66.30 | X-H torsion
[ 10763 10752 10751 10750 ] final  -96.81 input  -60.55 | X-H torsion
[ 11005 11000 10999 10996 ] final  151.86 input  -57.11 | X-H torsion

> <Gold.Protein.ActiveResidues>
 VAL166  LYS551  ARG553  GLY616  TRP617  ASP618  TYR619  PRO620  LYS621  CYS622 
 ASP623  PHE694  ASN695  SER759  ASP760  ASP761  ALA762  ILE779  LEU786  VAL792 
 PHE793  MET794  SER795  GLU796  ALA797  LYS798  CYS799  TRP800  GLU811  SER814 

> <Gold.Protein.RotatedAtoms>
  151.0294  134.9528  159.8102 H   0  0  0  0  0  0  0  0  0  0  0  0  # atno 6907 bound_to 6896
  152.5342  134.2800  159.9014 H   0  0  0  0  0  0  0  0  0  0  0  0  # atno 6908 bound_to 6896
  151.2809  133.4168  159.2661 H   0  0  0  0  0  0  0  0  0  0  0  0  # atno 6909 bound_to 6896
  145.4124  140.9546  143.2226 H   0  0  0  0  0  0  0  0  0  0  0  0  # atno 7974 bound_to 7965
  156.2965  140.2315  156.4564 H   0  0  0  0  0  0  0  0  0  0  0  0  # atno 8008 bound_to 7997
  154.8057  140.0446  157.1326 H   0  0  0  0  0  0  0  0  0  0  0  0  # atno 8009 bound_to 7997
  154.9482  140.3038  155.5091 H   0  0  0  0  0  0  0  0  0  0  0  0  # atno 8010 bound_to 7997
  140.6777  143.6867  150.8061 H   0  0  0  0  0  0  0  0  0  0  0  0  # atno 10167 bound_to 10162
  156.9114  130.5757  149.5647 H   0  0  0  0  0  0  0  0  0  0  0  0  # atno 10718 bound_to 10713
  154.7273  135.5070  153.8906 H   0  0  0  0  0  0  0  0  0  0  0  0  # atno 10763 bound_to 10752
  153.0916  135.6661  153.9851 H   0  0  0  0  0  0  0  0  0  0  0  0  # atno 10764 bound_to 10752
  153.9661  135.3043  155.3410 H   0  0  0  0  0  0  0  0  0  0  0  0  # atno 10765 bound_to 10752
  140.1256  134.8835  157.2133 H   0  0  0  0  0  0  0  0  0  0  0  0  # atno 11005 bound_to 11000
  144.8300  139.5645  143.6948 LP  0  0  0  0  0  0  0  0  0  0  0  0  # atno 17320 bound_to 7965
  146.2698  139.6607  142.9304 LP  0  0  0  0  0  0  0  0  0  0  0  0  # atno 17321 bound_to 7965
  140.0562  143.5200  152.2650 LP  0  0  0  0  0  0  0  0  0  0  0  0  # atno 17342 bound_to 10162
  139.6080  144.7601  151.3018 LP  0  0  0  0  0  0  0  0  0  0  0  0  # atno 17343 bound_to 10162
  156.0534  130.5600  150.9039 LP  0  0  0  0  0  0  0  0  0  0  0  0  # atno 17370 bound_to 10713
  157.5965  131.0943  150.9032 LP  0  0  0  0  0  0  0  0  0  0  0  0  # atno 17371 bound_to 10713
  140.2908  134.3242  155.7316 LP  0  0  0  0  0  0  0  0  0  0  0  0  # atno 17394 bound_to 11000
  141.2160  133.7533  156.9500 LP  0  0  0  0  0  0  0  0  0  0  0  0  # atno 17395 bound_to 11000

$$$$
