AV-unprocessed.smi:53|AV-procd|sdf|518|dock1
  -GOLD-   2262016393D 1   1.00000     0.00000
 Structure written by MMmdl.
 30 31  0  0  0  0  0  0  0  0  1 V2000
  152.8331  140.2987  158.9554 N   0  0  0  0  0  0  0  0  0  0  0  0
  152.0020  140.4696  157.9176 C   0  0  0  0  0  0  0  0  0  0  0  0
  150.7577  141.1833  158.0886 C   0  0  0  0  0  0  0  0  0  0  0  0
  149.9741  141.3171  156.9957 C   0  0  0  0  0  0  0  0  0  0  0  0
  150.3411  140.8148  155.7513 N   0  0  0  0  0  0  0  0  0  0  0  0
  149.4499  140.9331  154.5244 C   0  0  1  0  0  0  0  0  0  0  0  0
  149.0615  139.6584  154.1041 O   0  0  0  0  0  0  0  0  0  0  0  0
  147.7873  139.3425  154.6553 C   0  0  2  0  0  0  0  0  0  0  0  0
  147.1496  138.1405  153.9377 C   0  0  0  0  0  0  0  0  0  0  0  0
  147.2740  138.2945  152.5399 O   0  0  0  0  0  0  0  0  0  0  0  0
  147.0491  140.6766  154.5134 C   0  0  2  0  0  0  0  0  0  0  0  0
  146.5383  140.8284  153.1978 O   0  0  0  0  0  0  0  0  0  0  0  0
  148.1415  141.6941  154.8484 C   0  0  2  0  0  0  0  0  0  0  0  0
  147.9956  142.9001  154.1207 O   0  0  0  0  0  0  0  0  0  0  0  0
  151.5541  140.0935  155.6273 C   0  0  0  0  0  0  0  0  0  0  0  0
  151.8994  139.5873  154.5607 O   0  0  0  0  0  0  0  0  0  0  0  0
  152.3366  139.9712  156.7438 N   0  0  0  0  0  0  0  0  0  0  0  0
  150.0748  141.3995  153.7601 H   0  0  0  0  0  0  0  0  0  0  0  0
  147.8920  139.1263  155.7202 H   0  0  0  0  0  0  0  0  0  0  0  0
  146.2117  140.7462  155.2085 H   0  0  0  0  0  0  0  0  0  0  0  0
  148.1043  141.9169  155.9157 H   0  0  0  0  0  0  0  0  0  0  0  0
  153.6999  139.7956  158.8341 H   0  0  0  0  0  0  0  0  0  0  0  0
  152.5908  140.6793  159.8590 H   0  0  0  0  0  0  0  0  0  0  0  0
  150.4377  141.6016  159.0322 H   0  0  0  0  0  0  0  0  0  0  0  0
  149.0392  141.8392  157.1321 H   0  0  0  0  0  0  0  0  0  0  0  0
  147.6665  137.2207  154.2125 H   0  0  0  0  0  0  0  0  0  0  0  0
  146.1011  138.0212  154.2123 H   0  0  0  0  0  0  0  0  0  0  0  0
  147.8213  137.5986  152.2091 H   0  0  0  0  0  0  0  0  0  0  0  0
  145.6187  140.6099  153.2099 H   0  0  0  0  0  0  0  0  0  0  0  0
  148.4863  143.5756  154.5634 H   0  0  0  0  0  0  0  0  0  0  0  0
  1  2  1  0  0  0  0
  1 22  1  0  0  0  0
  1 23  1  0  0  0  0
  2 17  2  0  0  0  0
  2  3  1  0  0  0  0
  3  4  2  0  0  0  0
  3 24  1  0  0  0  0
  4  5  1  0  0  0  0
  4 25  1  0  0  0  0
  5  6  1  0  0  0  0
  5 15  1  0  0  0  0
  6 18  1  0  0  0  0
  6 13  1  0  0  0  0
  6  7  1  0  0  0  0
  7  8  1  0  0  0  0
  8 19  1  0  0  0  0
  8  9  1  0  0  0  0
  8 11  1  0  0  0  0
  9 10  1  0  0  0  0
  9 26  1  0  0  0  0
  9 27  1  0  0  0  0
 10 28  1  0  0  0  0
 11 20  1  0  0  0  0
 11 12  1  0  0  0  0
 11 13  1  0  0  0  0
 12 29  1  0  0  0  0
 13 21  1  0  0  0  0
 13 14  1  0  0  0  0
 14 30  1  0  0  0  0
 15 16  2  0  0  0  0
 15 17  1  0  0  0  0
M  END
> <s_m_source_file>
AV-unprocessed.smi

> <i_m_source_file_index>
53

> <i_lp_mmshare_version>
43012

> <i_f3d_flags>
0

> <s_epik_input>
W05IMl1jMVtjSF1bY0hdbihjKD1PKW4xKVtDQEBIXTJPW0NASF0oW0NIMl1bT0hdKVtDQEBIXShbT0hdKVtDQEBIXTJbT0hd

> <s_epik_cmdline>
J2VwaWtfcHl0aG9uJywgJy1waCcsICc3LjAnLCAnLXRuJywgJzgnLCAnLW1hJywgJzIwMCcsICctbWV0YWxfYmluZGluZycsICctaW1hZScsICc8aW5maWxlLm1hZT4nLCAnLW9tYWUnLCAnPG91dGZpbGUubWFlPic=

> <r_lp_tautomer_probability>
0.99996

> <r_epik_Ionization_Penalty>
0.00069087

> <r_epik_Ionization_Penalty_Charging>
2.61959e-08

> <r_epik_Ionization_Penalty_Neutral>
0.000690844

> <r_epik_State_Penalty>
1.15523e-05

> <r_epik_Charging_Adjusted_Penalty>
1.15785e-05

> <i_epik_Tot_Q>
0

> <i_epik_Tot_abs_Q>
0

> <r_epik_Metal_State_Penalty>
-0

> <b_epik_Metal_Only>
0

> <s_epik_Chemistry_Notes>
This compound contains an acetal/aminal-like group ( X-CH(R)-Y where X, Y are N, S, or O) that may be acid/base labile, releasing an aldehyde.

> <s_lp_Force_Field>
OPLS_2005

> <r_lp_Energy>
34.5248

> <b_lp_Chiralities_Consistent>
1

> <s_lp_Variant>
AV-unprocessed.smi:53-6

> <Gold.Version>
5.8.1

> <Gold.Id.Protein>
6NUR|6NUR_protein|mol2

> <Gold.PLP.Fitness>
41.1905

> <Gold.PLP.PLP>
-26.6029

> <Gold.PLP.part.hbond>
-7.2573

> <Gold.PLP.part.metal>
0.0000

> <Gold.PLP.part.buried>
-1.3450

> <Gold.PLP.part.nonpolar>
-17.5785

> <Gold.PLP.part.repulsive>
1.0767

> <Gold.PLP.ligand.clash>
0.0000

> <Gold.PLP.ligand.torsion>
0.0855

> <Gold.PLP.Chemscore.Hbond>
4.9098

> <Gold.PLP.Chemscore.CHOScore>
0.0000

> <Gold.PLP.Chemscore.Metal>
0.0000

> <Gold.Chemscore.Hbonds>
donor molecule, donor type, donor heavy atom, donor atom, acceptor molecule, acceptor atom, score
      L1  H    10    28       P1  7948  1.00
      L1  H    12    29       P1 10175  0.89
      L1  H    14    30       P1  8028  1.00
      P1  H  7989  7998       L1    16  0.96
      P1  H  7997  8009       L1    17  0.99

> <Gold.PLP.Chemscore.Internal.Correction>
0.0293

> <Gold.Rescore>
     Score         DG    S(hbond)    S(metal)    S(lipo)     H(rot)  DE(clash)    DE(int)     intcor
     12.65     -13.27       4.36        0.00      23.35       3.71       0.14       0.49       ----

> <Gold.Chemscore.Fitness>
12.6459

> <Gold.Chemscore.DG>
-13.2727

> <Gold.Chemscore.ZeroCoef>
-5.4800

> <Gold.Chemscore.Hbond>
4.3583

> <Gold.Chemscore.Metal>
0.0000

> <Gold.Chemscore.Lipo>
23.3530

> <Gold.Chemscore.Internal_Hbond>
0.0000

> <Gold.Chemscore.DEClash>
0.1364

> <Gold.Chemscore.DEInternal>
0.4904

> <Gold.Chemscore.Rot>
3.7095

> <Gold.Chemscore.Internal.Correction>
   9.000000E+99

> <Gold.Chemscore.Hbonds>
donor molecule, donor type, donor heavy atom, donor atom, acceptor molecule, acceptor atom, score
      L1  H    10    28       P1  7948  1.00
      L1  H    12    29       P1 10175  0.73
      L1  H    14    30       P1  8028  0.97
      P1  H  7989  7998       L1    16  0.32
      P1  H  7997  8009       L1    17  0.55

> <Gold.Chemscore.Hbond.Weighted>
-14.5568

> <Gold.Chemscore.Metal.Weighted>
-0.0000

> <Gold.Chemscore.Lipo.Weighted>
-2.7323

> <Gold.Chemscore.Internal_Hbond.Weighted>
0.0000

> <Gold.Chemscore.DEClash.Weighted>
0.1364

> <Gold.Chemscore.DEInternal.Weighted>
0.4904

> <Gold.Chemscore.Rot.Weighted>
9.4964

> <Gold.Chemscore.Internal.Correction.Weighted>
   9.000000E+99

> <Gold.Protein.RotatedTorsions>
[ 6907 6896 6895 6894 ] final  109.42 input  -60.11 | X-H torsion
[ 7974 7965 7964 7962 ] final  108.17 input  175.53 | X-H torsion
[ 8008 7997 7996 7995 ] final -177.53 input   59.86 | X-H torsion
[ 10167 10162 10161 10158 ] final   52.80 input  -65.29 | X-H torsion
[ 10718 10713 10712 10709 ] final  -84.82 input   66.30 | X-H torsion
[ 10763 10752 10751 10750 ] final -114.03 input  -60.55 | X-H torsion
[ 11005 11000 10999 10996 ] final   33.82 input  -57.11 | X-H torsion

> <Gold.Protein.ActiveResidues>
 VAL166  LYS551  ARG553  GLY616  TRP617  ASP618  TYR619  PRO620  LYS621  CYS622 
 ASP623  PHE694  ASN695  SER759  ASP760  ASP761  ALA762  ILE779  LEU786  VAL792 
 PHE793  MET794  SER795  GLU796  ALA797  LYS798  CYS799  TRP800  GLU811  SER814 

> <Gold.Protein.RotatedAtoms>
  152.5068  133.8947  159.7411 H   0  0  0  0  0  0  0  0  0  0  0  0  # atno 6907 bound_to 6896
  150.9377  133.6684  159.2804 H   0  0  0  0  0  0  0  0  0  0  0  0  # atno 6908 bound_to 6896
  151.4006  135.0975  159.9607 H   0  0  0  0  0  0  0  0  0  0  0  0  # atno 6909 bound_to 6896
  145.2841  139.2622  143.3900 H   0  0  0  0  0  0  0  0  0  0  0  0  # atno 7974 bound_to 7965
  156.0080  140.1234  157.0482 H   0  0  0  0  0  0  0  0  0  0  0  0  # atno 8008 bound_to 7997
  154.4266  140.1093  156.5859 H   0  0  0  0  0  0  0  0  0  0  0  0  # atno 8009 bound_to 7997
  155.6119  140.3471  155.4627 H   0  0  0  0  0  0  0  0  0  0  0  0  # atno 8010 bound_to 7997
  140.2475  144.3515  150.6359 H   0  0  0  0  0  0  0  0  0  0  0  0  # atno 10167 bound_to 10162
  156.0002  130.4710  150.4468 H   0  0  0  0  0  0  0  0  0  0  0  0  # atno 10718 bound_to 10713
  154.8422  135.4432  154.1443 H   0  0  0  0  0  0  0  0  0  0  0  0  # atno 10763 bound_to 10752
  153.2620  135.6937  153.7575 H   0  0  0  0  0  0  0  0  0  0  0  0  # atno 10764 bound_to 10752
  153.6848  135.3397  155.3163 H   0  0  0  0  0  0  0  0  0  0  0  0  # atno 10765 bound_to 10752
  140.2592  134.3212  155.7863 H   0  0  0  0  0  0  0  0  0  0  0  0  # atno 11005 bound_to 11000
  146.3206  140.3316  142.8641 LP  0  0  0  0  0  0  0  0  0  0  0  0  # atno 17320 bound_to 7965
  144.9228  140.7887  143.5738 LP  0  0  0  0  0  0  0  0  0  0  0  0  # atno 17321 bound_to 7965
  140.6066  143.2168  151.6969 LP  0  0  0  0  0  0  0  0  0  0  0  0  # atno 17342 bound_to 10162
  139.5057  144.3709  152.0471 LP  0  0  0  0  0  0  0  0  0  0  0  0  # atno 17343 bound_to 10162
  157.2504  131.0545  151.2382 LP  0  0  0  0  0  0  0  0  0  0  0  0  # atno 17370 bound_to 10713
  157.3534  130.7093  149.6455 LP  0  0  0  0  0  0  0  0  0  0  0  0  # atno 17371 bound_to 10713
  141.2192  133.7399  156.9160 LP  0  0  0  0  0  0  0  0  0  0  0  0  # atno 17394 bound_to 11000
  140.1481  134.9248  157.2556 LP  0  0  0  0  0  0  0  0  0  0  0  0  # atno 17395 bound_to 11000

$$$$
