AV-unprocessed.smi:1668|AV-procd|sdf|6682|dock1
  -GOLD-   22720 7403D 1   1.00000     0.00000
 Structure written by MMmdl.
 44 46  0  0  0  0  0  0  0  0  1 V2000
  146.4580  142.3401  154.1638 C   0  0  0  0  0  0  0  0  0  0  0  0
  147.1339  142.1824  155.4028 O   0  0  0  0  0  0  0  0  0  0  0  0
  148.2881  141.4292  155.4208 C   0  0  0  0  0  0  0  0  0  0  0  0
  148.7996  140.7291  154.3032 C   0  0  0  0  0  0  0  0  0  0  0  0
  149.9854  139.9797  154.4127 C   0  0  0  0  0  0  0  0  0  0  0  0
  150.6937  139.9138  155.6384 C   0  0  0  0  0  0  0  0  0  0  0  0
  151.8555  139.1873  155.8032 O   0  0  0  0  0  0  0  0  0  0  0  0
  152.4484  138.5866  154.6615 C   0  0  0  0  0  0  0  0  0  0  0  0
  150.1892  140.6209  156.7574 C   0  0  0  0  0  0  0  0  0  0  0  0
  150.9173  140.5641  158.0988 C   0  0  1  0  0  0  0  0  0  0  0  0
  151.0561  139.2366  158.5690 O   0  0  0  0  0  0  0  0  0  0  0  0
  152.3190  141.1966  157.9865 C   0  0  0  0  0  0  0  0  0  0  0  0
  153.0361  141.1603  159.2597 N   0  0  0  0  0  0  0  0  0  0  0  0
  153.9581  140.2443  159.6400 C   0  0  0  0  0  0  0  0  0  0  0  0
  154.3580  139.2970  158.9637 O   0  0  0  0  0  0  0  0  0  0  0  0
  154.3588  140.5504  160.8965 N   0  0  0  0  0  0  0  0  0  0  0  0
  155.3373  139.8326  161.7047 C   0  0  0  0  0  0  0  0  0  0  0  0
  153.6669  141.6858  161.3363 C   0  0  0  0  0  0  0  0  0  0  0  0
  153.7186  142.3836  162.5551 C   0  0  0  0  0  0  0  0  0  0  0  0
  152.8762  143.5124  162.6891 C   0  0  0  0  0  0  0  0  0  0  0  0
  152.0203  143.9109  161.6293 C   0  0  0  0  0  0  0  0  0  0  0  0
  151.9891  143.1895  160.4129 C   0  0  0  0  0  0  0  0  0  0  0  0
  152.8354  142.0720  160.3065 C   0  0  0  0  0  0  0  0  0  0  0  0
  148.9910  141.3611  156.6386 C   0  0  0  0  0  0  0  0  0  0  0  0
  145.5776  142.9652  154.3116 H   0  0  0  0  0  0  0  0  0  0  0  0
  146.1191  141.3814  153.7688 H   0  0  0  0  0  0  0  0  0  0  0  0
  147.0910  142.8327  153.4245 H   0  0  0  0  0  0  0  0  0  0  0  0
  148.2978  140.7469  153.3477 H   0  0  0  0  0  0  0  0  0  0  0  0
  150.3307  139.4589  153.5329 H   0  0  0  0  0  0  0  0  0  0  0  0
  153.3490  138.0534  154.9658 H   0  0  0  0  0  0  0  0  0  0  0  0
  152.7416  139.3347  153.9238 H   0  0  0  0  0  0  0  0  0  0  0  0
  151.7774  137.8627  154.1977 H   0  0  0  0  0  0  0  0  0  0  0  0
  150.3285  141.0960  158.8466 H   0  0  0  0  0  0  0  0  0  0  0  0
  150.2923  138.7454  158.3078 H   0  0  0  0  0  0  0  0  0  0  0  0
  152.8986  140.7290  157.1887 H   0  0  0  0  0  0  0  0  0  0  0  0
  152.2238  142.2460  157.7037 H   0  0  0  0  0  0  0  0  0  0  0  0
  156.0683  140.5265  162.1202 H   0  0  0  0  0  0  0  0  0  0  0  0
  155.8791  139.0857  161.1231 H   0  0  0  0  0  0  0  0  0  0  0  0
  154.8407  139.3235  162.5309 H   0  0  0  0  0  0  0  0  0  0  0  0
  154.3724  142.0736  163.3571 H   0  0  0  0  0  0  0  0  0  0  0  0
  152.8847  144.0778  163.6092 H   0  0  0  0  0  0  0  0  0  0  0  0
  151.3854  144.7758  161.7519 H   0  0  0  0  0  0  0  0  0  0  0  0
  151.3416  143.4897  159.6031 H   0  0  0  0  0  0  0  0  0  0  0  0
  148.5960  141.8875  157.4951 H   0  0  0  0  0  0  0  0  0  0  0  0
  1  2  1  0  0  0  0
  1 25  1  0  0  0  0
  1 26  1  0  0  0  0
  1 27  1  0  0  0  0
  2  3  1  0  0  0  0
  3 24  1  0  0  0  0
  3  4  2  0  0  0  0
  4  5  1  0  0  0  0
  4 28  1  0  0  0  0
  5  6  2  0  0  0  0
  5 29  1  0  0  0  0
  6  7  1  0  0  0  0
  6  9  1  0  0  0  0
  7  8  1  0  0  0  0
  8 30  1  0  0  0  0
  8 31  1  0  0  0  0
  8 32  1  0  0  0  0
  9 10  1  0  0  0  0
  9 24  2  0  0  0  0
 10 11  1  0  0  0  0
 10 12  1  0  0  0  0
 10 33  1  0  0  0  0
 11 34  1  0  0  0  0
 12 13  1  0  0  0  0
 12 35  1  0  0  0  0
 12 36  1  0  0  0  0
 13 23  1  0  0  0  0
 13 14  1  0  0  0  0
 14 15  2  0  0  0  0
 14 16  1  0  0  0  0
 16 17  1  0  0  0  0
 16 18  1  0  0  0  0
 17 37  1  0  0  0  0
 17 38  1  0  0  0  0
 17 39  1  0  0  0  0
 18 23  2  0  0  0  0
 18 19  1  0  0  0  0
 19 20  2  0  0  0  0
 19 40  1  0  0  0  0
 20 21  1  0  0  0  0
 20 41  1  0  0  0  0
 21 22  2  0  0  0  0
 21 42  1  0  0  0  0
 22 23  1  0  0  0  0
 22 43  1  0  0  0  0
 24 44  1  0  0  0  0
M  END
> <s_m_source_file>
AV-unprocessed.smi

> <i_m_source_file_index>
1668

> <i_lp_mmshare_version>
43012

> <i_f3d_flags>
0

> <s_epik_input>
W0NIM11PYzFbY0hdW2NIXWMoT1tDSDNdKWMoW2NIXTEpW0NASF0oW09IXSlbQ0gyXW4oYyg9TyluMltDSDNdKWMoYzIzKVtjSF1bY0hdW2NIXVtjSF0z

> <s_epik_cmdline>
J2VwaWtfcHl0aG9uJywgJy1waCcsICc3LjAnLCAnLXRuJywgJzgnLCAnLW1hJywgJzIwMCcsICctbWV0YWxfYmluZGluZycsICctaW1hZScsICc8aW5maWxlLm1hZT4nLCAnLW9tYWUnLCAnPG91dGZpbGUubWFlPic=

> <r_lp_tautomer_probability>
1

> <r_epik_Ionization_Penalty>
1.34538e-06

> <r_epik_Ionization_Penalty_Charging>
1.76928e-09

> <r_epik_Ionization_Penalty_Neutral>
1.34362e-06

> <r_epik_State_Penalty>
-0

> <r_epik_Charging_Adjusted_Penalty>
1.76928e-09

> <i_epik_Tot_Q>
0

> <i_epik_Tot_abs_Q>
0

> <r_epik_Metal_State_Penalty>
-0

> <b_epik_Metal_Only>
0

> <s_lp_Force_Field>
OPLS_2005

> <r_lp_Energy>
50.494

> <b_lp_Chiralities_Consistent>
1

> <s_lp_Variant>
AV-unprocessed.smi:1668-2

> <Gold.Version>
5.8.1

> <Gold.Id.Protein>
6NUR|6NUR_protein|mol2

> <Gold.PLP.Fitness>
55.6349

> <Gold.PLP.PLP>
-53.2864

> <Gold.PLP.part.hbond>
-1.0000

> <Gold.PLP.part.metal>
0.0000

> <Gold.PLP.part.buried>
-4.1489

> <Gold.PLP.part.nonpolar>
-48.1917

> <Gold.PLP.part.repulsive>
0.7337

> <Gold.PLP.ligand.clash>
0.0000

> <Gold.PLP.ligand.torsion>
0.3807

> <Gold.PLP.Chemscore.Hbond>
1.0000

> <Gold.PLP.Chemscore.CHOScore>
0.0000

> <Gold.PLP.Chemscore.Metal>
0.0000

> <Gold.Chemscore.Hbonds>
donor molecule, donor type, donor heavy atom, donor atom, acceptor molecule, acceptor atom, score
      P1  H  7997  8010       L1    15  1.00

> <Gold.PLP.Chemscore.Internal.Correction>
0.1100

> <Gold.Rescore>
     Score         DG    S(hbond)    S(metal)    S(lipo)     H(rot)  DE(clash)    DE(int)     intcor
     17.92     -18.53       0.90        0.00     134.85       2.24       0.14       0.47       ----

> <Gold.Chemscore.Fitness>
17.9248

> <Gold.Chemscore.DG>
-18.5335

> <Gold.Chemscore.ZeroCoef>
-5.4800

> <Gold.Chemscore.Hbond>
0.9049

> <Gold.Chemscore.Metal>
0.0000

> <Gold.Chemscore.Lipo>
134.8534

> <Gold.Chemscore.Internal_Hbond>
0.0000

> <Gold.Chemscore.DEClash>
0.1430

> <Gold.Chemscore.DEInternal>
0.4657

> <Gold.Chemscore.Rot>
2.2448

> <Gold.Chemscore.Internal.Correction>
   9.000000E+99

> <Gold.Chemscore.Hbonds>
donor molecule, donor type, donor heavy atom, donor atom, acceptor molecule, acceptor atom, score
      P1  H  7997  8010       L1    15  0.60

> <Gold.Chemscore.Hbond.Weighted>
-3.0224

> <Gold.Chemscore.Metal.Weighted>
-0.0000

> <Gold.Chemscore.Lipo.Weighted>
-15.7778

> <Gold.Chemscore.Internal_Hbond.Weighted>
0.0000

> <Gold.Chemscore.DEClash.Weighted>
0.1430

> <Gold.Chemscore.DEInternal.Weighted>
0.4657

> <Gold.Chemscore.Rot.Weighted>
5.7467

> <Gold.Chemscore.Internal.Correction.Weighted>
   9.000000E+99

> <Gold.Protein.RotatedTorsions>
[ 6907 6896 6895 6894 ] final -141.09 input  -60.11 | X-H torsion
[ 7974 7965 7964 7962 ] final   55.64 input  175.53 | X-H torsion
[ 8008 7997 7996 7995 ] final   19.63 input   59.86 | X-H torsion
[ 10167 10162 10161 10158 ] final  -67.58 input  -65.29 | X-H torsion
[ 10718 10713 10712 10709 ] final   48.18 input   66.30 | X-H torsion
[ 10763 10752 10751 10750 ] final   42.87 input  -60.55 | X-H torsion
[ 11005 11000 10999 10996 ] final  -40.76 input  -57.11 | X-H torsion

> <Gold.Protein.ActiveResidues>
 VAL166  LYS551  ARG553  GLY616  TRP617  ASP618  TYR619  PRO620  LYS621  CYS622 
 ASP623  PHE694  ASN695  SER759  ASP760  ASP761  ALA762  ILE779  LEU786  VAL792 
 PHE793  MET794  SER795  GLU796  ALA797  LYS798  CYS799  TRP800  GLU811  SER814 

> <Gold.Protein.RotatedAtoms>
  151.0692  133.5480  159.2628 H   0  0  0  0  0  0  0  0  0  0  0  0  # atno 6907 bound_to 6896
  151.2426  135.0593  159.9041 H   0  0  0  0  0  0  0  0  0  0  0  0  # atno 6908 bound_to 6896
  152.5409  134.0464  159.8144 H   0  0  0  0  0  0  0  0  0  0  0  0  # atno 6909 bound_to 6896
  145.9483  139.3949  143.0321 H   0  0  0  0  0  0  0  0  0  0  0  0  # atno 7974 bound_to 7965
  154.9236  140.3030  155.5204 H   0  0  0  0  0  0  0  0  0  0  0  0  # atno 8008 bound_to 7997
  156.3008  140.2367  156.4225 H   0  0  0  0  0  0  0  0  0  0  0  0  # atno 8009 bound_to 7997
  154.8307  140.0418  157.1463 H   0  0  0  0  0  0  0  0  0  0  0  0  # atno 8010 bound_to 7997
  140.5572  143.2312  151.6798 H   0  0  0  0  0  0  0  0  0  0  0  0  # atno 10167 bound_to 10162
  157.4661  130.8226  149.7937 H   0  0  0  0  0  0  0  0  0  0  0  0  # atno 10718 bound_to 10713
  152.9873  135.6118  154.3020 H   0  0  0  0  0  0  0  0  0  0  0  0  # atno 10763 bound_to 10752
  154.2740  135.2779  155.2728 H   0  0  0  0  0  0  0  0  0  0  0  0  # atno 10764 bound_to 10752
  154.5097  135.5844  153.6652 H   0  0  0  0  0  0  0  0  0  0  0  0  # atno 10765 bound_to 10752
  141.0198  133.6868  156.2365 H   0  0  0  0  0  0  0  0  0  0  0  0  # atno 11005 bound_to 11000
  145.8206  140.9681  143.0901 LP  0  0  0  0  0  0  0  0  0  0  0  0  # atno 17320 bound_to 7965
  144.6791  140.0037  143.7484 LP  0  0  0  0  0  0  0  0  0  0  0  0  # atno 17321 bound_to 7965
  139.5053  144.3721  152.0460 LP  0  0  0  0  0  0  0  0  0  0  0  0  # atno 17342 bound_to 10162
  140.2844  144.3824  150.6108 LP  0  0  0  0  0  0  0  0  0  0  0  0  # atno 17343 bound_to 10162
  156.0051  130.3860  150.2462 LP  0  0  0  0  0  0  0  0  0  0  0  0  # atno 17370 bound_to 10713
  157.0642  131.0098  151.3212 LP  0  0  0  0  0  0  0  0  0  0  0  0  # atno 17371 bound_to 10713
  140.6593  134.4985  157.5582 LP  0  0  0  0  0  0  0  0  0  0  0  0  # atno 17394 bound_to 11000
  139.9139  134.8287  156.1433 LP  0  0  0  0  0  0  0  0  0  0  0  0  # atno 17395 bound_to 11000

$$$$
