AV-unprocessed.smi:36|AV-procd|sdf|290|dock9
  -GOLD-   2262016 73D 1   1.00000     0.00000
 Structure written by MMmdl.
 64 67  0  0  0  0  0  0  0  0  1 V2000
  142.3498  129.6120  160.5063 C   0  0  0  0  0  0  0  0  0  0  0  0
  142.7679  129.4326  159.0376 C   0  0  0  0  0  0  0  0  0  0  0  0
  142.0783  128.1923  158.4452 C   0  0  0  0  0  0  0  0  0  0  0  0
  142.3764  130.6790  158.2263 C   0  0  0  0  0  0  0  0  0  0  0  0
  144.6617  129.1986  158.9395 Si  0  0  0  0  0  0  0  0  0  0  0  0
  145.2282  127.7493  160.0306 C   0  0  0  0  0  0  0  0  0  0  0  0
  145.2291  128.9166  157.1482 C   0  0  0  0  0  0  0  0  0  0  0  0
  145.3898  130.6148  159.5089 O   0  0  0  0  0  0  0  0  0  0  0  0
  146.6926  130.6573  160.0512 C   0  0  0  0  0  0  0  0  0  0  0  0
  146.9063  132.0215  160.7221 C   0  0  1  0  0  0  0  0  0  0  0  0
  146.8425  133.0826  159.7691 O   0  0  0  0  0  0  0  0  0  0  0  0
  146.2385  134.2077  160.3339 C   0  0  2  0  0  0  0  0  0  0  0  0
  147.1457  135.3832  160.1615 N   0  0  0  0  0  0  0  0  0  0  0  0
  147.3181  136.3879  161.0407 C   0  0  0  0  0  0  0  0  0  0  0  0
  148.1831  137.3284  160.6713 N   0  0  0  0  0  0  0  0  0  0  0  0
  148.6036  136.8811  159.4232 C   0  0  0  0  0  0  0  0  0  0  0  0
  149.5691  137.4742  158.4728 C   0  0  0  0  0  0  0  0  0  0  0  0
  150.1548  138.5800  158.8205 N   0  0  0  0  0  0  0  0  0  0  0  0
  151.0699  139.1830  157.9672 C   0  0  0  0  0  0  0  0  0  0  0  0
  151.5731  138.7366  156.9324 O   0  0  0  0  0  0  0  0  0  0  0  0
  151.5090  140.5332  158.4327 C   0  0  0  0  0  0  0  0  0  0  0  0
  152.5334  140.6501  159.3963 C   0  0  0  0  0  0  0  0  0  0  0  0
  152.9439  141.9224  159.8401 C   0  0  0  0  0  0  0  0  0  0  0  0
  152.3304  143.0806  159.3243 C   0  0  0  0  0  0  0  0  0  0  0  0
  151.3049  142.9670  158.3654 C   0  0  0  0  0  0  0  0  0  0  0  0
  150.8936  141.6953  157.9202 C   0  0  0  0  0  0  0  0  0  0  0  0
  149.6637  136.6720  157.3282 N   0  0  0  0  0  0  0  0  0  0  0  0
  148.9682  135.4742  157.1033 C   0  0  0  0  0  0  0  0  0  0  0  0
  148.1215  134.9345  157.9385 N   0  0  0  0  0  0  0  0  0  0  0  0
  147.9805  135.6973  159.0899 C   0  0  0  0  0  0  0  0  0  0  0  0
  145.9981  133.9113  161.8154 C   0  0  0  0  0  0  0  0  0  0  0  0
  145.8897  132.4008  161.8077 C   0  0  1  0  0  0  0  0  0  0  0  0
  144.5757  131.9917  161.4759 O   0  0  0  0  0  0  0  0  0  0  0  0
  141.2711  129.7433  160.5976 H   0  0  0  0  0  0  0  0  0  0  0  0
  142.8254  130.4865  160.9509 H   0  0  0  0  0  0  0  0  0  0  0  0
  142.6267  128.7457  161.1073 H   0  0  0  0  0  0  0  0  0  0  0  0
  142.3336  127.2907  159.0026 H   0  0  0  0  0  0  0  0  0  0  0  0
  142.3746  128.0326  157.4080 H   0  0  0  0  0  0  0  0  0  0  0  0
  140.9928  128.2941  158.4660 H   0  0  0  0  0  0  0  0  0  0  0  0
  141.2979  130.8396  158.2411 H   0  0  0  0  0  0  0  0  0  0  0  0
  142.6814  130.5844  157.1834 H   0  0  0  0  0  0  0  0  0  0  0  0
  142.8470  131.5776  158.6259 H   0  0  0  0  0  0  0  0  0  0  0  0
  144.7496  126.8156  159.7369 H   0  0  0  0  0  0  0  0  0  0  0  0
  144.9903  127.9219  161.0800 H   0  0  0  0  0  0  0  0  0  0  0  0
  146.3049  127.5948  159.9640 H   0  0  0  0  0  0  0  0  0  0  0  0
  144.7660  128.0303  156.7154 H   0  0  0  0  0  0  0  0  0  0  0  0
  146.3086  128.7796  157.0893 H   0  0  0  0  0  0  0  0  0  0  0  0
  144.9749  129.7621  156.5094 H   0  0  0  0  0  0  0  0  0  0  0  0
  146.8380  129.8432  160.7615 H   0  0  0  0  0  0  0  0  0  0  0  0
  147.4076  130.5192  159.2394 H   0  0  0  0  0  0  0  0  0  0  0  0
  147.8990  132.0442  161.1740 H   0  0  0  0  0  0  0  0  0  0  0  0
  145.3269  134.4551  159.7882 H   0  0  0  0  0  0  0  0  0  0  0  0
  146.7951  136.4291  161.9849 H   0  0  0  0  0  0  0  0  0  0  0  0
  153.0083  139.7660  159.7976 H   0  0  0  0  0  0  0  0  0  0  0  0
  153.7289  142.0100  160.5770 H   0  0  0  0  0  0  0  0  0  0  0  0
  152.6452  144.0558  159.6655 H   0  0  0  0  0  0  0  0  0  0  0  0
  150.8327  143.8553  157.9723 H   0  0  0  0  0  0  0  0  0  0  0  0
  150.1047  141.6160  157.1860 H   0  0  0  0  0  0  0  0  0  0  0  0
  149.1924  135.0043  156.1445 H   0  0  0  0  0  0  0  0  0  0  0  0
  146.8635  134.2202  162.4035 H   0  0  0  0  0  0  0  0  0  0  0  0
  145.1139  134.4285  162.1895 H   0  0  0  0  0  0  0  0  0  0  0  0
  146.1508  131.9699  162.7747 H   0  0  0  0  0  0  0  0  0  0  0  0
  144.5375  131.0484  161.5201 H   0  0  0  0  0  0  0  0  0  0  0  0
  150.2938  136.9822  156.6025 H   0  0  0  0  0  0  0  0  0  0  0  0
  1  2  1  0  0  0  0
  1 34  1  0  0  0  0
  1 35  1  0  0  0  0
  1 36  1  0  0  0  0
  2  3  1  0  0  0  0
  2  4  1  0  0  0  0
  2  5  1  0  0  0  0
  3 37  1  0  0  0  0
  3 38  1  0  0  0  0
  3 39  1  0  0  0  0
  4 40  1  0  0  0  0
  4 41  1  0  0  0  0
  4 42  1  0  0  0  0
  5  6  1  0  0  0  0
  5  7  1  0  0  0  0
  5  8  1  0  0  0  0
  6 43  1  0  0  0  0
  6 44  1  0  0  0  0
  6 45  1  0  0  0  0
  7 46  1  0  0  0  0
  7 47  1  0  0  0  0
  7 48  1  0  0  0  0
  8  9  1  0  0  0  0
  9 10  1  0  0  0  0
  9 49  1  0  0  0  0
  9 50  1  0  0  0  0
 10 32  1  0  0  0  0
 10 11  1  0  0  0  0
 10 51  1  0  0  0  0
 11 12  1  0  0  0  0
 12 13  1  0  0  0  0
 12 31  1  0  0  0  0
 12 52  1  0  0  0  0
 13 30  1  0  0  0  0
 13 14  1  0  0  0  0
 14 15  2  0  0  0  0
 14 53  1  0  0  0  0
 15 16  1  0  0  0  0
 16 30  2  0  0  0  0
 16 17  1  0  0  0  0
 17 18  2  0  0  0  0
 17 27  1  0  0  0  0
 18 19  1  0  0  0  0
 19 20  2  0  0  0  0
 19 21  1  0  0  0  0
 21 26  1  0  0  0  0
 21 22  2  0  0  0  0
 22 23  1  0  0  0  0
 22 54  1  0  0  0  0
 23 24  2  0  0  0  0
 23 55  1  0  0  0  0
 24 25  1  0  0  0  0
 24 56  1  0  0  0  0
 25 26  2  0  0  0  0
 25 57  1  0  0  0  0
 26 58  1  0  0  0  0
 27 28  1  0  0  0  0
 27 64  1  0  0  0  0
 28 29  2  0  0  0  0
 28 59  1  0  0  0  0
 29 30  1  0  0  0  0
 31 32  1  0  0  0  0
 31 60  1  0  0  0  0
 31 61  1  0  0  0  0
 32 33  1  0  0  0  0
 32 62  1  0  0  0  0
 33 63  1  0  0  0  0
M  END
> <s_m_source_file>
AV-unprocessed.smi

> <i_m_source_file_index>
36

> <i_lp_mmshare_version>
43012

> <i_f3d_flags>
0

> <s_epik_input>
W0NIM11DKFtDSDNdKShbQ0gzXSlbU2ldKFtDSDNdKShbQ0gzXSlPW0NIMl1bQ0BASF0xT1tDQEhdKFtDSDJdW0NASF0xW09IXSluKFtjSF1uMiljKGMyMyluW2NIXW5jM1tOSF1DKD1PKWM0W2NIXVtjSF1bY0hdW2NIXVtjSF00

> <s_epik_cmdline>
J2VwaWtfcHl0aG9uJywgJy1waCcsICc3LjAnLCAnLXRuJywgJzgnLCAnLW1hJywgJzIwMCcsICctbWV0YWxfYmluZGluZycsICctaW1hZScsICc8aW5maWxlLm1hZT4nLCAnLW9tYWUnLCAnPG91dGZpbGUubWFlPic=

> <r_epik_Ionization_Penalty>
0.0850405

> <r_epik_Ionization_Penalty_Charging>
0.0850403

> <r_epik_Ionization_Penalty_Neutral>
1.47497e-07

> <r_epik_State_Penalty>
2.6133

> <r_epik_Charging_Adjusted_Penalty>
2.69834

> <i_epik_Tot_Q>
0

> <i_epik_Tot_abs_Q>
0

> <r_epik_Metal_State_Penalty>
2.92945

> <b_epik_Metal_Only>
0

> <s_epik_Chemistry_Notes>
This compound contains an acetal/aminal-like group ( X-CH(R)-Y where X, Y are N, S, or O) that may be acid/base labile, releasing an aldehyde.

> <s_lp_Force_Field>
OPLS_2005

> <r_lp_Energy>
50.4083

> <b_lp_Chiralities_Consistent>
1

> <s_lp_Variant>
AV-unprocessed.smi:36-12

> <Gold.Version>
5.8.1

> <Gold.Id.Protein>
6NUR|6NUR_protein|mol2

> <Gold.PLP.Fitness>
45.8028

> <Gold.PLP.PLP>
-47.2555

> <Gold.PLP.part.hbond>
-3.3908

> <Gold.PLP.part.metal>
0.0000

> <Gold.PLP.part.buried>
-6.0956

> <Gold.PLP.part.nonpolar>
-38.4917

> <Gold.PLP.part.repulsive>
0.0745

> <Gold.PLP.ligand.clash>
0.0000

> <Gold.PLP.ligand.torsion>
2.6619

> <Gold.PLP.Chemscore.Hbond>
1.2542

> <Gold.PLP.Chemscore.CHOScore>
0.0000

> <Gold.PLP.Chemscore.Metal>
0.0000

> <Gold.Chemscore.Hbonds>
donor molecule, donor type, donor heavy atom, donor atom, acceptor molecule, acceptor atom, score
      P1  H  6931  6943       L1    15  0.75
      P1  H  6934  6947       L1    15  0.64

> <Gold.PLP.Chemscore.Internal.Correction>
0.1085

> <Gold.Rescore>
     Score         DG    S(hbond)    S(metal)    S(lipo)     H(rot)  DE(clash)    DE(int)     intcor
      9.41     -13.22       0.89        0.00     100.04       2.70       0.02       3.78       ----

> <Gold.Chemscore.Fitness>
9.4148

> <Gold.Chemscore.DG>
-13.2189

> <Gold.Chemscore.ZeroCoef>
-5.4800

> <Gold.Chemscore.Hbond>
0.8852

> <Gold.Chemscore.Metal>
0.0000

> <Gold.Chemscore.Lipo>
100.0404

> <Gold.Chemscore.Internal_Hbond>
0.0000

> <Gold.Chemscore.DEClash>
0.0239

> <Gold.Chemscore.DEInternal>
3.7802

> <Gold.Chemscore.Rot>
2.7041

> <Gold.Chemscore.Internal.Correction>
   9.000000E+99

> <Gold.Chemscore.Hbonds>
donor molecule, donor type, donor heavy atom, donor atom, acceptor molecule, acceptor atom, score
      P1  H  6931  6943       L1    15  0.74
      P1  H  6934  6947       L1    15  0.31

> <Gold.Chemscore.Hbond.Weighted>
-2.9566

> <Gold.Chemscore.Metal.Weighted>
-0.0000

> <Gold.Chemscore.Lipo.Weighted>
-11.7047

> <Gold.Chemscore.Internal_Hbond.Weighted>
0.0000

> <Gold.Chemscore.DEClash.Weighted>
0.0239

> <Gold.Chemscore.DEInternal.Weighted>
3.7802

> <Gold.Chemscore.Rot.Weighted>
6.9225

> <Gold.Chemscore.Internal.Correction.Weighted>
   9.000000E+99

> <Gold.Protein.RotatedTorsions>
[ 6907 6896 6895 6894 ] final   76.01 input  -60.11 | X-H torsion
[ 7974 7965 7964 7962 ] final  118.57 input  175.53 | X-H torsion
[ 8008 7997 7996 7995 ] final   33.46 input   59.86 | X-H torsion
[ 10167 10162 10161 10158 ] final -175.45 input  -65.29 | X-H torsion
[ 10718 10713 10712 10709 ] final  117.63 input   66.30 | X-H torsion
[ 10763 10752 10751 10750 ] final  106.43 input  -60.55 | X-H torsion
[ 11005 11000 10999 10996 ] final  -16.36 input  -57.11 | X-H torsion

> <Gold.Protein.ActiveResidues>
 VAL166  LYS551  ARG553  GLY616  TRP617  ASP618  TYR619  PRO620  LYS621  CYS622 
 ASP623  PHE694  ASN695  SER759  ASP760  ASP761  ALA762  ILE779  LEU786  VAL792 
 PHE793  MET794  SER795  GLU796  ALA797  LYS798  CYS799  TRP800  GLU811  SER814 

> <Gold.Protein.RotatedAtoms>
  152.5053  134.4033  159.9423 H   0  0  0  0  0  0  0  0  0  0  0  0  # atno 6907 bound_to 6896
  151.3998  133.3755  159.2738 H   0  0  0  0  0  0  0  0  0  0  0  0  # atno 6908 bound_to 6896
  150.9370  134.8803  159.7647 H   0  0  0  0  0  0  0  0  0  0  0  0  # atno 6909 bound_to 6896
  145.1536  139.3196  143.4554 H   0  0  0  0  0  0  0  0  0  0  0  0  # atno 7974 bound_to 7965
  155.1389  140.3264  155.4456 H   0  0  0  0  0  0  0  0  0  0  0  0  # atno 8008 bound_to 7997
  156.2611  140.1997  156.6455 H   0  0  0  0  0  0  0  0  0  0  0  0  # atno 8009 bound_to 7997
  154.6557  140.0553  156.9992 H   0  0  0  0  0  0  0  0  0  0  0  0  # atno 8010 bound_to 7997
  139.5580  144.1940  152.1192 H   0  0  0  0  0  0  0  0  0  0  0  0  # atno 10167 bound_to 10162
  157.6083  131.1039  150.7643 H   0  0  0  0  0  0  0  0  0  0  0  0  # atno 10718 bound_to 10713
  153.3928  135.3877  155.1935 H   0  0  0  0  0  0  0  0  0  0  0  0  # atno 10763 bound_to 10752
  154.8721  135.3752  154.4716 H   0  0  0  0  0  0  0  0  0  0  0  0  # atno 10764 bound_to 10752
  153.5204  135.7087  153.5796 H   0  0  0  0  0  0  0  0  0  0  0  0  # atno 10765 bound_to 10752
  140.8060  133.8177  155.9516 H   0  0  0  0  0  0  0  0  0  0  0  0  # atno 11005 bound_to 11000
  146.3491  140.1620  142.8590 LP  0  0  0  0  0  0  0  0  0  0  0  0  # atno 17320 bound_to 7965
  145.0405  140.8941  143.5055 LP  0  0  0  0  0  0  0  0  0  0  0  0  # atno 17321 bound_to 7965
  140.1448  144.5169  150.6722 LP  0  0  0  0  0  0  0  0  0  0  0  0  # atno 17342 bound_to 10162
  140.6856  143.2348  151.5268 LP  0  0  0  0  0  0  0  0  0  0  0  0  # atno 17343 bound_to 10162
  156.8026  130.4926  149.5367 LP  0  0  0  0  0  0  0  0  0  0  0  0  # atno 17370 bound_to 10713
  156.1177  130.6087  151.0146 LP  0  0  0  0  0  0  0  0  0  0  0  0  # atno 17371 bound_to 10713
  140.9246  134.2098  157.4904 LP  0  0  0  0  0  0  0  0  0  0  0  0  # atno 17394 bound_to 11000
  139.8717  134.9807  156.5086 LP  0  0  0  0  0  0  0  0  0  0  0  0  # atno 17395 bound_to 11000

$$$$
