AV-unprocessed.smi:2902|AV-procd|sdf|11153|dock3
  -GOLD-   2272016 33D 1   1.00000     0.00000
 Structure written by MMmdl.
 47 48  0  0  0  0  0  0  0  0  1 V2000
  148.6448  140.8786  155.4601 C   0  0  0  0  0  0  0  0  0  0  0  0
  149.9521  141.6511  155.6750 C   0  0  0  0  0  0  0  0  0  0  0  0
  150.7818  141.1015  156.8503 C   0  0  2  0  0  0  0  0  0  0  0  0
  151.8271  142.0343  157.1261 O   0  0  0  0  0  0  0  0  0  0  0  0
  151.5449  143.0538  158.0825 C   0  0  0  0  0  0  0  0  0  0  0  0
  151.7675  144.4716  157.5469 C   0  0  0  0  0  0  0  0  0  0  0  0
  152.0691  145.3270  158.7839 C   0  0  0  0  0  0  0  0  0  0  0  0
  152.4857  144.3510  159.8952 C   0  0  0  0  0  0  0  0  0  0  0  0
  152.5275  142.9640  159.2482 C   0  0  0  0  0  0  0  0  0  0  0  0
  151.3711  139.7236  156.5131 C   0  0  0  0  0  0  0  0  0  0  0  0
  152.5711  139.6058  156.2647 O   0  0  0  0  0  0  0  0  0  0  0  0
  150.5069  138.6958  156.5084 N   0  0  0  0  0  0  0  0  0  0  0  0
  150.8232  137.3045  156.1837 C   0  0  1  0  0  0  0  0  0  0  0  0
  151.9116  136.8314  157.1614 C   0  0  0  0  0  0  0  0  0  0  0  0
  149.5378  136.4324  156.2301 C   0  0  2  0  0  0  0  0  0  0  0  0
  148.7638  136.5617  157.5566 C   0  0  0  0  0  0  0  0  0  0  0  0
  149.8366  135.0300  155.9598 N   0  0  0  0  0  0  0  0  0  0  0  0
  149.4422  134.2434  154.9562 C   0  0  0  0  0  0  0  0  0  0  0  0
  149.9525  133.0208  154.9983 N   0  0  0  0  0  0  0  0  0  0  0  0
  150.7094  133.1289  156.1305 C   0  0  0  0  0  0  0  0  0  0  0  0
  150.6778  134.3118  156.7437 N   0  0  0  0  0  0  0  0  0  0  0  0
  148.0876  141.2866  154.6167 H   0  0  0  0  0  0  0  0  0  0  0  0
  148.0034  140.9343  156.3399 H   0  0  0  0  0  0  0  0  0  0  0  0
  148.8388  139.8262  155.2524 H   0  0  0  0  0  0  0  0  0  0  0  0
  150.5384  141.6043  154.7557 H   0  0  0  0  0  0  0  0  0  0  0  0
  149.7244  142.7054  155.8390 H   0  0  0  0  0  0  0  0  0  0  0  0
  150.1250  141.0091  157.7167 H   0  0  0  0  0  0  0  0  0  0  0  0
  150.5334  142.9632  158.4809 H   0  0  0  0  0  0  0  0  0  0  0  0
  152.6324  144.4799  156.8820 H   0  0  0  0  0  0  0  0  0  0  0  0
  150.9129  144.8455  156.9824 H   0  0  0  0  0  0  0  0  0  0  0  0
  152.8522  146.0561  158.5727 H   0  0  0  0  0  0  0  0  0  0  0  0
  151.1814  145.8818  159.0906 H   0  0  0  0  0  0  0  0  0  0  0  0
  153.4454  144.6173  160.3391 H   0  0  0  0  0  0  0  0  0  0  0  0
  151.7417  144.3652  160.6926 H   0  0  0  0  0  0  0  0  0  0  0  0
  152.2788  142.1651  159.9472 H   0  0  0  0  0  0  0  0  0  0  0  0
  153.5322  142.7711  158.8688 H   0  0  0  0  0  0  0  0  0  0  0  0
  149.5437  138.8970  156.7347 H   0  0  0  0  0  0  0  0  0  0  0  0
  151.2469  137.2480  155.1793 H   0  0  0  0  0  0  0  0  0  0  0  0
  152.2856  135.8417  156.9003 H   0  0  0  0  0  0  0  0  0  0  0  0
  151.5372  136.7900  158.1848 H   0  0  0  0  0  0  0  0  0  0  0  0
  152.7675  137.5073  157.1484 H   0  0  0  0  0  0  0  0  0  0  0  0
  148.8717  136.7695  155.4341 H   0  0  0  0  0  0  0  0  0  0  0  0
  148.3669  137.5672  157.6942 H   0  0  0  0  0  0  0  0  0  0  0  0
  149.3968  136.3328  158.4145 H   0  0  0  0  0  0  0  0  0  0  0  0
  147.9136  135.8792  157.5800 H   0  0  0  0  0  0  0  0  0  0  0  0
  148.7784  134.5755  154.1716 H   0  0  0  0  0  0  0  0  0  0  0  0
  151.3033  132.3118  156.5130 H   0  0  0  0  0  0  0  0  0  0  0  0
  1  2  1  0  0  0  0
  1 22  1  0  0  0  0
  1 23  1  0  0  0  0
  1 24  1  0  0  0  0
  2  3  1  0  0  0  0
  2 25  1  0  0  0  0
  2 26  1  0  0  0  0
  3  4  1  0  0  0  0
  3 10  1  0  0  0  0
  3 27  1  0  0  0  0
  4  5  1  0  0  0  0
  5  9  1  0  0  0  0
  5  6  1  0  0  0  0
  5 28  1  0  0  0  0
  6  7  1  0  0  0  0
  6 29  1  0  0  0  0
  6 30  1  0  0  0  0
  7  8  1  0  0  0  0
  7 31  1  0  0  0  0
  7 32  1  0  0  0  0
  8  9  1  0  0  0  0
  8 33  1  0  0  0  0
  8 34  1  0  0  0  0
  9 35  1  0  0  0  0
  9 36  1  0  0  0  0
 10 11  2  0  0  0  0
 10 12  1  0  0  0  0
 12 13  1  0  0  0  0
 12 37  1  0  0  0  0
 13 14  1  0  0  0  0
 13 15  1  0  0  0  0
 13 38  1  0  0  0  0
 14 39  1  0  0  0  0
 14 40  1  0  0  0  0
 14 41  1  0  0  0  0
 15 16  1  0  0  0  0
 15 17  1  0  0  0  0
 15 42  1  0  0  0  0
 16 43  1  0  0  0  0
 16 44  1  0  0  0  0
 16 45  1  0  0  0  0
 17 21  1  0  0  0  0
 17 18  1  0  0  0  0
 18 19  2  0  0  0  0
 18 46  1  0  0  0  0
 19 20  1  0  0  0  0
 20 21  2  0  0  0  0
 20 47  1  0  0  0  0
M  END
> <s_m_source_file>
AV-unprocessed.smi

> <i_m_source_file_index>
2902

> <i_lp_mmshare_version>
43012

> <i_f3d_flags>
0

> <s_epik_input>
W0NIMl0xW0NIMl1bQ0gyXVtDSDJdW0NIXTFPW0NAQEhdKFtDSDJdW0NIM10pQyg9TylbTkhdW0NASF0oW0NIM10pW0NASF0oW0NIM10pbjJbY0hdbltjSF1uMg==

> <s_epik_cmdline>
J2VwaWtfcHl0aG9uJywgJy1waCcsICc3LjAnLCAnLXRuJywgJzgnLCAnLW1hJywgJzIwMCcsICctbWV0YWxfYmluZGluZycsICctaW1hZScsICc8aW5maWxlLm1hZT4nLCAnLW9tYWUnLCAnPG91dGZpbGUubWFlPic=

> <r_lp_tautomer_probability>
1

> <r_epik_Ionization_Penalty>
6.95617e-05

> <r_epik_Ionization_Penalty_Charging>
0

> <r_epik_Ionization_Penalty_Neutral>
6.95617e-05

> <r_epik_State_Penalty>
-0

> <r_epik_Charging_Adjusted_Penalty>
0

> <i_epik_Tot_Q>
0

> <i_epik_Tot_abs_Q>
0

> <r_epik_Metal_State_Penalty>
-0

> <b_epik_Metal_Only>
0

> <s_lp_Force_Field>
OPLS_2005

> <r_lp_Energy>
29.2018

> <b_lp_Chiralities_Consistent>
1

> <s_lp_Variant>
AV-unprocessed.smi:2902-3

> <Gold.Version>
5.8.1

> <Gold.Id.Protein>
6NUR|6NUR_protein|mol2

> <Gold.PLP.Fitness>
38.3757

> <Gold.PLP.PLP>
-35.3697

> <Gold.PLP.part.hbond>
-1.0000

> <Gold.PLP.part.metal>
0.0000

> <Gold.PLP.part.buried>
-3.0178

> <Gold.PLP.part.nonpolar>
-31.1876

> <Gold.PLP.part.repulsive>
0.0925

> <Gold.PLP.ligand.clash>
0.0000

> <Gold.PLP.ligand.torsion>
1.5866

> <Gold.PLP.Chemscore.Hbond>
1.0000

> <Gold.PLP.Chemscore.CHOScore>
0.9939

> <Gold.PLP.Chemscore.Metal>
0.0000

> <Gold.Chemscore.Hbonds>
donor molecule, donor type, donor heavy atom, donor atom, acceptor molecule, acceptor atom, score
      P1  H  7997  8009       L1    11  1.00
      L1  C    18    46       P1  7948  0.29

> <Gold.PLP.Chemscore.Internal.Correction>
0.1973

> <Gold.Rescore>
     Score         DG    S(hbond)    S(metal)    S(lipo)     H(rot)  DE(clash)    DE(int)     intcor
     10.21     -13.27       1.30        0.00      88.38       2.69       0.08       2.98       ----

> <Gold.Chemscore.Fitness>
10.2086

> <Gold.Chemscore.DG>
-13.2700

> <Gold.Chemscore.ZeroCoef>
-5.4800

> <Gold.Chemscore.Hbond>
1.3008

> <Gold.Chemscore.Metal>
0.0000

> <Gold.Chemscore.Lipo>
88.3815

> <Gold.Chemscore.Internal_Hbond>
0.0000

> <Gold.Chemscore.DEClash>
0.0782

> <Gold.Chemscore.DEInternal>
2.9832

> <Gold.Chemscore.Rot>
2.6935

> <Gold.Chemscore.Internal.Correction>
   9.000000E+99

> <Gold.Chemscore.Hbonds>
donor molecule, donor type, donor heavy atom, donor atom, acceptor molecule, acceptor atom, score
      P1  H  7997  8009       L1    11  1.00

> <Gold.Chemscore.Hbond.Weighted>
-4.3448

> <Gold.Chemscore.Metal.Weighted>
-0.0000

> <Gold.Chemscore.Lipo.Weighted>
-10.3406

> <Gold.Chemscore.Internal_Hbond.Weighted>
0.0000

> <Gold.Chemscore.DEClash.Weighted>
0.0782

> <Gold.Chemscore.DEInternal.Weighted>
2.9832

> <Gold.Chemscore.Rot.Weighted>
6.8954

> <Gold.Chemscore.Internal.Correction.Weighted>
   9.000000E+99

> <Gold.Protein.RotatedTorsions>
[ 6907 6896 6895 6894 ] final  -14.07 input  -60.11 | X-H torsion
[ 7974 7965 7964 7962 ] final  -17.76 input  175.53 | X-H torsion
[ 8008 7997 7996 7995 ] final -170.03 input   59.86 | X-H torsion
[ 10167 10162 10161 10158 ] final   68.38 input  -65.29 | X-H torsion
[ 10718 10713 10712 10709 ] final -127.53 input   66.30 | X-H torsion
[ 10763 10752 10751 10750 ] final  110.34 input  -60.55 | X-H torsion
[ 11005 11000 10999 10996 ] final   69.53 input  -57.11 | X-H torsion

> <Gold.Protein.ActiveResidues>
 VAL166  LYS551  ARG553  GLY616  TRP617  ASP618  TYR619  PRO620  LYS621  CYS622 
 ASP623  PHE694  ASN695  SER759  ASP760  ASP761  ALA762  ILE779  LEU786  VAL792 
 PHE793  MET794  SER795  GLU796  ALA797  LYS798  CYS799  TRP800  GLU811  SER814 

> <Gold.Protein.RotatedAtoms>
  151.3451  135.0872  159.9383 H   0  0  0  0  0  0  0  0  0  0  0  0  # atno 6907 bound_to 6896
  152.5201  133.9408  159.7636 H   0  0  0  0  0  0  0  0  0  0  0  0  # atno 6908 bound_to 6896
  150.9773  133.6228  159.2758 H   0  0  0  0  0  0  0  0  0  0  0  0  # atno 6909 bound_to 6896
  146.1925  140.3825  142.8452 H   0  0  0  0  0  0  0  0  0  0  0  0  # atno 7974 bound_to 7965
  155.9130  140.1060  157.1265 H   0  0  0  0  0  0  0  0  0  0  0  0  # atno 8008 bound_to 7997
  154.4042  140.1270  156.4646 H   0  0  0  0  0  0  0  0  0  0  0  0  # atno 8009 bound_to 7997
  155.7288  140.3469  155.5052 H   0  0  0  0  0  0  0  0  0  0  0  0  # atno 8010 bound_to 7997
  140.0793  144.5085  150.7173 H   0  0  0  0  0  0  0  0  0  0  0  0  # atno 10167 bound_to 10162
  156.1866  130.6767  151.0371 H   0  0  0  0  0  0  0  0  0  0  0  0  # atno 10718 bound_to 10713
  153.4475  135.3751  155.2265 H   0  0  0  0  0  0  0  0  0  0  0  0  # atno 10763 bound_to 10752
  154.8755  135.3878  154.4078 H   0  0  0  0  0  0  0  0  0  0  0  0  # atno 10764 bound_to 10752
  153.4632  135.7087  153.6101 H   0  0  0  0  0  0  0  0  0  0  0  0  # atno 10765 bound_to 10752
  139.9649  134.6998  156.0567 H   0  0  0  0  0  0  0  0  0  0  0  0  # atno 11005 bound_to 11000
  144.8515  140.7008  143.6165 LP  0  0  0  0  0  0  0  0  0  0  0  0  # atno 17320 bound_to 7965
  145.3747  139.1650  143.4313 LP  0  0  0  0  0  0  0  0  0  0  0  0  # atno 17321 bound_to 7965
  140.7086  143.2487  151.4650 LP  0  0  0  0  0  0  0  0  0  0  0  0  # atno 17342 bound_to 10162
  139.5789  144.1754  152.1941 LP  0  0  0  0  0  0  0  0  0  0  0  0  # atno 17343 bound_to 10162
  157.6902  131.0812  150.7128 LP  0  0  0  0  0  0  0  0  0  0  0  0  # atno 17370 bound_to 10713
  156.7185  130.4673  149.5529 LP  0  0  0  0  0  0  0  0  0  0  0  0  # atno 17371 bound_to 10713
  141.1328  133.6582  156.3510 LP  0  0  0  0  0  0  0  0  0  0  0  0  # atno 17394 bound_to 11000
  140.5419  134.6112  157.5382 LP  0  0  0  0  0  0  0  0  0  0  0  0  # atno 17395 bound_to 11000

$$$$
