AV-unprocessed.smi:178|AV-procd|sdf|1446|dock9
  -GOLD-   2262019243D 1   1.00000     0.00000
 Structure written by MMmdl.
 50 52  0  0  0  0  0  0  0  0  1 V2000
  146.5824  142.2286  154.3225 C   0  0  0  0  0  0  0  0  0  0  0  0
  146.8366  141.1431  155.1966 O   0  0  0  0  0  0  0  0  0  0  0  0
  146.8678  141.5377  156.5571 C   0  0  0  0  0  0  0  0  0  0  0  0
  147.1584  140.3003  157.4204 C   0  0  0  0  0  0  0  0  0  0  0  0
  148.5860  139.9781  157.4880 N   0  0  0  0  0  0  0  0  0  0  0  0
  149.5156  140.7583  156.6748 C   0  0  0  0  0  0  0  0  0  0  0  0
  150.0497  139.9716  155.4704 C   0  0  0  0  0  0  0  0  0  0  0  0
  151.4784  139.6513  155.6000 C   0  0  0  0  0  0  0  0  0  0  0  0
  152.6029  139.3991  155.7020 N   0  0  0  0  0  0  0  0  0  0  0  0
  149.0030  138.8779  158.1808 C   0  0  0  0  0  0  0  0  0  0  0  0
  150.3255  138.7810  158.4845 N   0  0  0  0  0  0  0  0  0  0  0  0
  150.8040  137.7281  159.1509 C   0  0  0  0  0  0  0  0  0  0  0  0
  150.1456  136.6643  159.6089 N   0  0  0  0  0  0  0  0  0  0  0  0
  148.8162  136.7473  159.3212 C   0  0  0  0  0  0  0  0  0  0  0  0
  148.1643  137.8050  158.6196 C   0  0  0  0  0  0  0  0  0  0  0  0
  146.8028  137.5261  158.5385 N   0  0  0  0  0  0  0  0  0  0  0  0
  146.6634  136.3775  159.1394 C   0  0  0  0  0  0  0  0  0  0  0  0
  147.8230  135.8391  159.6438 N   0  0  0  0  0  0  0  0  0  0  0  0
  147.9573  134.5775  160.3558 C   0  0  0  0  0  0  0  0  0  0  0  0
  147.1061  134.5044  161.6456 C   0  0  2  0  0  0  0  0  0  0  0  0
  147.7918  133.7017  162.5939 O   0  0  0  0  0  0  0  0  0  0  0  0
  145.7143  133.9260  161.4388 C   0  0  0  0  0  0  0  0  0  0  0  0
  144.9383  134.5054  162.6147 C   0  0  0  0  0  0  0  0  0  0  0  0
  145.4673  135.8133  162.7881 O   0  0  0  0  0  0  0  0  0  0  0  0
  146.7817  135.8940  162.2381 C   0  0  1  0  0  0  0  0  0  0  0  0
  147.7734  136.4515  163.2720 C   0  0  0  0  0  0  0  0  0  0  0  0
  146.5634  141.8730  153.2924 H   0  0  0  0  0  0  0  0  0  0  0  0
  147.3606  142.9890  154.4019 H   0  0  0  0  0  0  0  0  0  0  0  0
  145.6179  142.6906  154.5368 H   0  0  0  0  0  0  0  0  0  0  0  0
  147.6369  142.2970  156.7055 H   0  0  0  0  0  0  0  0  0  0  0  0
  145.9114  141.9817  156.8345 H   0  0  0  0  0  0  0  0  0  0  0  0
  146.7921  140.4826  158.4310 H   0  0  0  0  0  0  0  0  0  0  0  0
  146.5920  139.4424  157.0567 H   0  0  0  0  0  0  0  0  0  0  0  0
  148.9962  141.6470  156.3150 H   0  0  0  0  0  0  0  0  0  0  0  0
  150.3325  141.1413  157.2850 H   0  0  0  0  0  0  0  0  0  0  0  0
  149.5096  139.0337  155.3439 H   0  0  0  0  0  0  0  0  0  0  0  0
  149.9243  140.5440  154.5519 H   0  0  0  0  0  0  0  0  0  0  0  0
  151.8667  137.7399  159.3432 H   0  0  0  0  0  0  0  0  0  0  0  0
  145.7038  135.8906  159.2372 H   0  0  0  0  0  0  0  0  0  0  0  0
  147.6818  133.7696  159.6767 H   0  0  0  0  0  0  0  0  0  0  0  0
  149.0124  134.4308  160.5901 H   0  0  0  0  0  0  0  0  0  0  0  0
  147.3913  132.8455  162.6040 H   0  0  0  0  0  0  0  0  0  0  0  0
  145.2852  134.3024  160.5093 H   0  0  0  0  0  0  0  0  0  0  0  0
  145.6902  132.8359  161.4016 H   0  0  0  0  0  0  0  0  0  0  0  0
  143.8626  134.5285  162.4394 H   0  0  0  0  0  0  0  0  0  0  0  0
  145.1236  133.9260  163.5201 H   0  0  0  0  0  0  0  0  0  0  0  0
  146.7075  136.6116  161.4198 H   0  0  0  0  0  0  0  0  0  0  0  0
  148.7809  136.5063  162.8592 H   0  0  0  0  0  0  0  0  0  0  0  0
  147.8087  135.8358  164.1710 H   0  0  0  0  0  0  0  0  0  0  0  0
  147.4850  137.4575  163.5775 H   0  0  0  0  0  0  0  0  0  0  0  0
  1  2  1  0  0  0  0
  1 27  1  0  0  0  0
  1 28  1  0  0  0  0
  1 29  1  0  0  0  0
  2  3  1  0  0  0  0
  3  4  1  0  0  0  0
  3 30  1  0  0  0  0
  3 31  1  0  0  0  0
  4  5  1  0  0  0  0
  4 32  1  0  0  0  0
  4 33  1  0  0  0  0
  5  6  1  0  0  0  0
  5 10  1  0  0  0  0
  6  7  1  0  0  0  0
  6 34  1  0  0  0  0
  6 35  1  0  0  0  0
  7  8  1  0  0  0  0
  7 36  1  0  0  0  0
  7 37  1  0  0  0  0
  8  9  3  0  0  0  0
 10 15  1  0  0  0  0
 10 11  2  0  0  0  0
 11 12  1  0  0  0  0
 12 13  2  0  0  0  0
 12 38  1  0  0  0  0
 13 14  1  0  0  0  0
 14 18  1  0  0  0  0
 14 15  2  0  0  0  0
 15 16  1  0  0  0  0
 16 17  2  0  0  0  0
 17 18  1  0  0  0  0
 17 39  1  0  0  0  0
 18 19  1  0  0  0  0
 19 20  1  0  0  0  0
 19 40  1  0  0  0  0
 19 41  1  0  0  0  0
 20 25  1  0  0  0  0
 20 21  1  0  0  0  0
 20 22  1  0  0  0  0
 21 42  1  0  0  0  0
 22 23  1  0  0  0  0
 22 43  1  0  0  0  0
 22 44  1  0  0  0  0
 23 24  1  0  0  0  0
 23 45  1  0  0  0  0
 23 46  1  0  0  0  0
 24 25  1  0  0  0  0
 25 26  1  0  0  0  0
 25 47  1  0  0  0  0
 26 48  1  0  0  0  0
 26 49  1  0  0  0  0
 26 50  1  0  0  0  0
M  END
> <s_m_source_file>
AV-unprocessed.smi

> <i_m_source_file_index>
178

> <i_lp_mmshare_version>
43012

> <i_f3d_flags>
0

> <s_epik_input>
W0NIM11PW0NIMl1bQ0gyXU4oW0NIMl1bQ0gyXUMjTiljKG5bY0hdbjEpYyhjMTIpbltjSF1uMltDSDJdW0NAQF0zKFtPSF0pW0NIMl1bQ0gyXU9bQ0BIXTNbQ0gzXQ==

> <s_epik_cmdline>
J2VwaWtfcHl0aG9uJywgJy1waCcsICc3LjAnLCAnLXRuJywgJzgnLCAnLW1hJywgJzIwMCcsICctbWV0YWxfYmluZGluZycsICctaW1hZScsICc8aW5maWxlLm1hZT4nLCAnLW9tYWUnLCAnPG91dGZpbGUubWFlPic=

> <r_lp_tautomer_probability>
1

> <r_epik_Ionization_Penalty>
0.000885317

> <r_epik_Ionization_Penalty_Charging>
0

> <r_epik_Ionization_Penalty_Neutral>
0.000885317

> <r_epik_State_Penalty>
0.00047273

> <r_epik_Charging_Adjusted_Penalty>
0.00047273

> <i_epik_Tot_Q>
0

> <i_epik_Tot_abs_Q>
0

> <r_epik_Metal_State_Penalty>
-0

> <b_epik_Metal_Only>
0

> <s_lp_Force_Field>
OPLS_2005

> <r_lp_Energy>
29.3608

> <b_lp_Chiralities_Consistent>
1

> <s_lp_Variant>
AV-unprocessed.smi:178-2

> <Gold.Version>
5.8.1

> <Gold.Id.Protein>
6NUR|6NUR_protein|mol2

> <Gold.PLP.Fitness>
40.6840

> <Gold.PLP.PLP>
-37.1468

> <Gold.PLP.part.hbond>
-2.0000

> <Gold.PLP.part.metal>
0.0000

> <Gold.PLP.part.buried>
-7.6965

> <Gold.PLP.part.nonpolar>
-28.1563

> <Gold.PLP.part.repulsive>
0.1011

> <Gold.PLP.ligand.clash>
0.0000

> <Gold.PLP.ligand.torsion>
1.3861

> <Gold.PLP.Chemscore.Hbond>
2.0000

> <Gold.PLP.Chemscore.CHOScore>
0.0000

> <Gold.PLP.Chemscore.Metal>
0.0000

> <Gold.Chemscore.Hbonds>
donor molecule, donor type, donor heavy atom, donor atom, acceptor molecule, acceptor atom, score
      P1  H  6896  6908       L1    13  1.00
      P1  H  7997  8008       L1     9  1.00

> <Gold.PLP.Chemscore.Internal.Correction>
0.3094

> <Gold.Rescore>
     Score         DG    S(hbond)    S(metal)    S(lipo)     H(rot)  DE(clash)    DE(int)     intcor
      8.91     -11.21       1.97        0.00      66.50       3.37       0.12       2.18       ----

> <Gold.Chemscore.Fitness>
8.9074

> <Gold.Chemscore.DG>
-11.2128

> <Gold.Chemscore.ZeroCoef>
-5.4800

> <Gold.Chemscore.Hbond>
1.9723

> <Gold.Chemscore.Metal>
0.0000

> <Gold.Chemscore.Lipo>
66.5027

> <Gold.Chemscore.Internal_Hbond>
0.0000

> <Gold.Chemscore.DEClash>
0.1214

> <Gold.Chemscore.DEInternal>
2.1840

> <Gold.Chemscore.Rot>
3.3732

> <Gold.Chemscore.Internal.Correction>
   9.000000E+99

> <Gold.Chemscore.Hbonds>
donor molecule, donor type, donor heavy atom, donor atom, acceptor molecule, acceptor atom, score
      P1  H  6896  6908       L1    13  0.88
      P1  H  7997  8008       L1     9  0.99

> <Gold.Chemscore.Hbond.Weighted>
-6.5874

> <Gold.Chemscore.Metal.Weighted>
-0.0000

> <Gold.Chemscore.Lipo.Weighted>
-7.7808

> <Gold.Chemscore.Internal_Hbond.Weighted>
0.0000

> <Gold.Chemscore.DEClash.Weighted>
0.1214

> <Gold.Chemscore.DEInternal.Weighted>
2.1840

> <Gold.Chemscore.Rot.Weighted>
8.6354

> <Gold.Chemscore.Internal.Correction.Weighted>
   9.000000E+99

> <Gold.Protein.RotatedTorsions>
[ 6907 6896 6895 6894 ] final -171.77 input  -60.11 | X-H torsion
[ 7974 7965 7964 7962 ] final   71.75 input  175.53 | X-H torsion
[ 8008 7997 7996 7995 ] final  -31.22 input   59.86 | X-H torsion
[ 10167 10162 10161 10158 ] final  -95.27 input  -65.29 | X-H torsion
[ 10718 10713 10712 10709 ] final   32.17 input   66.30 | X-H torsion
[ 10763 10752 10751 10750 ] final -159.05 input  -60.55 | X-H torsion
[ 11005 11000 10999 10996 ] final  -46.75 input  -57.11 | X-H torsion

> <Gold.Protein.ActiveResidues>
 VAL166  LYS551  ARG553  GLY616  TRP617  ASP618  TYR619  PRO620  LYS621  CYS622 
 ASP623  PHE694  ASN695  SER759  ASP760  ASP761  ALA762  ILE779  LEU786  VAL792 
 PHE793  MET794  SER795  GLU796  ALA797  LYS798  CYS799  TRP800  GLU811  SER814 

> <Gold.Protein.RotatedAtoms>
  151.5293  133.3452  159.2914 H   0  0  0  0  0  0  0  0  0  0  0  0  # atno 6907 bound_to 6896
  150.8604  134.7956  159.7089 H   0  0  0  0  0  0  0  0  0  0  0  0  # atno 6908 bound_to 6896
  152.4625  134.5160  159.9820 H   0  0  0  0  0  0  0  0  0  0  0  0  # atno 6909 bound_to 6896
  145.7620  139.2805  143.1371 H   0  0  0  0  0  0  0  0  0  0  0  0  # atno 7974 bound_to 7965
  154.4222  140.1770  156.1531 H   0  0  0  0  0  0  0  0  0  0  0  0  # atno 8008 bound_to 7997
  155.9899  140.3370  155.6718 H   0  0  0  0  0  0  0  0  0  0  0  0  # atno 8009 bound_to 7997
  155.6387  140.0677  157.2616 H   0  0  0  0  0  0  0  0  0  0  0  0  # atno 8010 bound_to 7997
  140.3059  143.3134  152.0200 H   0  0  0  0  0  0  0  0  0  0  0  0  # atno 10167 bound_to 10162
  157.2818  130.7259  149.6561 H   0  0  0  0  0  0  0  0  0  0  0  0  # atno 10718 bound_to 10713
  154.7507  135.3091  154.8563 H   0  0  0  0  0  0  0  0  0  0  0  0  # atno 10763 bound_to 10752
  153.9351  135.6781  153.4749 H   0  0  0  0  0  0  0  0  0  0  0  0  # atno 10764 bound_to 10752
  153.1103  135.4869  154.8951 H   0  0  0  0  0  0  0  0  0  0  0  0  # atno 10765 bound_to 10752
  141.0598  133.6713  156.3199 H   0  0  0  0  0  0  0  0  0  0  0  0  # atno 11005 bound_to 11000
  146.0255  140.8308  142.9902 LP  0  0  0  0  0  0  0  0  0  0  0  0  # atno 17320 bound_to 7965
  144.6828  140.2691  143.7308 LP  0  0  0  0  0  0  0  0  0  0  0  0  # atno 17321 bound_to 7965
  139.4904  144.6421  151.6855 LP  0  0  0  0  0  0  0  0  0  0  0  0  # atno 17342 bound_to 10162
  140.5611  144.0267  150.6170 LP  0  0  0  0  0  0  0  0  0  0  0  0  # atno 17343 bound_to 10162
  155.9664  130.4336  150.5012 LP  0  0  0  0  0  0  0  0  0  0  0  0  # atno 17370 bound_to 10713
  157.2957  131.0635  151.2103 LP  0  0  0  0  0  0  0  0  0  0  0  0  # atno 17371 bound_to 10713
  140.5891  134.5669  157.5496 LP  0  0  0  0  0  0  0  0  0  0  0  0  # atno 17394 bound_to 11000
  139.9422  134.7765  156.0649 LP  0  0  0  0  0  0  0  0  0  0  0  0  # atno 17395 bound_to 11000

$$$$
