AV-unprocessed.smi:670|AV-procd|sdf|3270|dock3
  -GOLD-   22720 0223D 1   1.00000     0.00000
 Structure written by MMmdl.
 45 46  0  0  0  0  0  0  0  0  1 V2000
  147.0647  141.6673  153.9522 C   0  0  0  0  0  0  0  0  0  0  0  0
  148.4277  140.9587  153.9915 C   0  0  1  0  0  0  0  0  0  0  0  0
  149.2220  141.3151  155.2647 C   0  0  0  0  0  0  0  0  0  0  0  0
  150.5988  140.6323  155.2811 C   0  0  0  0  0  0  0  0  0  0  0  0
  150.4697  139.1112  155.1154 C   0  0  0  0  0  0  0  0  0  0  0  0
  149.6821  138.7552  153.8445 C   0  0  0  0  0  0  0  0  0  0  0  0
  148.2916  139.4276  153.8298 C   0  0  1  0  0  0  0  0  0  0  0  0
  147.4911  138.9336  154.8976 O   0  0  0  0  0  0  0  0  0  0  0  0
  146.3504  138.1910  154.4931 C   0  0  0  0  0  0  0  0  0  0  0  0
  146.7513  136.7154  154.3573 C   0  0  0  0  0  0  0  0  0  0  0  0
  146.4565  136.2031  153.0236 N   0  0  0  0  0  0  0  0  0  0  0  0
  145.2425  136.1801  152.4541 C   0  0  0  0  0  0  0  0  0  0  0  0
  144.2229  136.5682  153.0268 O   0  0  0  0  0  0  0  0  0  0  0  0
  145.1843  135.6204  151.0252 C   0  0  0  0  0  0  0  0  0  0  0  0
  145.1300  134.1522  150.9712 N   0  0  0  0  0  0  0  0  0  0  0  0
  144.0460  133.6521  150.2656 N   0  0  0  0  0  0  0  0  0  0  0  0
  143.8952  132.3776  150.1333 C   0  0  0  0  0  0  0  0  0  0  0  0
  142.8103  131.9250  149.4234 O   0  0  0  0  0  0  0  0  0  0  0  0
  144.8386  131.4477  150.7146 C   0  0  0  0  0  0  0  0  0  0  0  0
  145.8883  131.9445  151.4046 C   0  0  0  0  0  0  0  0  0  0  0  0
  146.0908  133.3848  151.5722 C   0  0  0  0  0  0  0  0  0  0  0  0
  147.0385  133.8634  152.1945 O   0  0  0  0  0  0  0  0  0  0  0  0
  142.1553  132.6007  149.5063 H   0  0  0  0  0  0  0  0  0  0  0  0
  146.4361  141.3706  154.7924 H   0  0  0  0  0  0  0  0  0  0  0  0
  146.5264  141.4321  153.0338 H   0  0  0  0  0  0  0  0  0  0  0  0
  147.1851  142.7501  153.9954 H   0  0  0  0  0  0  0  0  0  0  0  0
  148.9989  141.3263  153.1379 H   0  0  0  0  0  0  0  0  0  0  0  0
  149.3526  142.3956  155.3327 H   0  0  0  0  0  0  0  0  0  0  0  0
  148.6582  141.0179  156.1498 H   0  0  0  0  0  0  0  0  0  0  0  0
  151.2158  141.0354  154.4772 H   0  0  0  0  0  0  0  0  0  0  0  0
  151.1165  140.8618  156.2128 H   0  0  0  0  0  0  0  0  0  0  0  0
  151.4596  138.6561  155.0783 H   0  0  0  0  0  0  0  0  0  0  0  0
  149.9684  138.6891  155.9874 H   0  0  0  0  0  0  0  0  0  0  0  0
  150.2467  139.0827  152.9708 H   0  0  0  0  0  0  0  0  0  0  0  0
  149.5982  137.6729  153.7539 H   0  0  0  0  0  0  0  0  0  0  0  0
  147.7979  139.2227  152.8781 H   0  0  0  0  0  0  0  0  0  0  0  0
  145.5637  138.2958  155.2411 H   0  0  0  0  0  0  0  0  0  0  0  0
  145.9472  138.5572  153.5493 H   0  0  0  0  0  0  0  0  0  0  0  0
  147.8198  136.6026  154.5418 H   0  0  0  0  0  0  0  0  0  0  0  0
  146.2397  136.1131  155.1096 H   0  0  0  0  0  0  0  0  0  0  0  0
  147.2401  135.8643  152.4842 H   0  0  0  0  0  0  0  0  0  0  0  0
  144.3229  136.0452  150.5063 H   0  0  0  0  0  0  0  0  0  0  0  0
  146.0595  135.9836  150.4835 H   0  0  0  0  0  0  0  0  0  0  0  0
  144.6989  130.3832  150.5963 H   0  0  0  0  0  0  0  0  0  0  0  0
  146.5999  131.2616  151.8451 H   0  0  0  0  0  0  0  0  0  0  0  0
  1  2  1  0  0  0  0
  1 24  1  0  0  0  0
  1 25  1  0  0  0  0
  1 26  1  0  0  0  0
  2  7  1  0  0  0  0
  2  3  1  0  0  0  0
  2 27  1  0  0  0  0
  3  4  1  0  0  0  0
  3 28  1  0  0  0  0
  3 29  1  0  0  0  0
  4  5  1  0  0  0  0
  4 30  1  0  0  0  0
  4 31  1  0  0  0  0
  5  6  1  0  0  0  0
  5 32  1  0  0  0  0
  5 33  1  0  0  0  0
  6  7  1  0  0  0  0
  6 34  1  0  0  0  0
  6 35  1  0  0  0  0
  7  8  1  0  0  0  0
  7 36  1  0  0  0  0
  8  9  1  0  0  0  0
  9 10  1  0  0  0  0
  9 37  1  0  0  0  0
  9 38  1  0  0  0  0
 10 11  1  0  0  0  0
 10 39  1  0  0  0  0
 10 40  1  0  0  0  0
 11 12  1  0  0  0  0
 11 41  1  0  0  0  0
 12 13  2  0  0  0  0
 12 14  1  0  0  0  0
 14 42  1  0  0  0  0
 14 43  1  0  0  0  0
 14 15  1  0  0  0  0
 15 16  1  0  0  0  0
 15 21  1  0  0  0  0
 16 17  2  0  0  0  0
 17 18  1  0  0  0  0
 17 19  1  0  0  0  0
 18 23  1  0  0  0  0
 19 44  1  0  0  0  0
 19 20  2  0  0  0  0
 20 45  1  0  0  0  0
 20 21  1  0  0  0  0
 21 22  2  0  0  0  0
M  END
> <s_m_source_file>
AV-unprocessed.smi

> <i_m_source_file_index>
670

> <i_lp_mmshare_version>
43012

> <i_f3d_flags>
0

> <s_epik_input>
W0NIM11bQ0BASF0xW0NIMl1bQ0gyXVtDSDJdW0NIMl1bQ0BIXTFPW0NIMl1bQ0gyXVtOSF1DKD1PKVtDSDJdbjJbbkhdYyg9TylbY0hdW2NIXWMyPU8=

> <s_epik_cmdline>
J2VwaWtfcHl0aG9uJywgJy1waCcsICc3LjAnLCAnLXRuJywgJzgnLCAnLW1hJywgJzIwMCcsICctbWV0YWxfYmluZGluZycsICctaW1hZScsICc8aW5maWxlLm1hZT4nLCAnLW9tYWUnLCAnPG91dGZpbGUubWFlPic=

> <r_lp_tautomer_probability>
0.9996

> <r_epik_Ionization_Penalty>
2.12726

> <r_epik_Ionization_Penalty_Charging>
3.83395e-08

> <r_epik_Ionization_Penalty_Neutral>
2.12726

> <r_epik_State_Penalty>
1.70432

> <r_epik_Charging_Adjusted_Penalty>
1.70432

> <i_epik_Tot_Q>
0

> <i_epik_Tot_abs_Q>
0

> <r_epik_Metal_State_Penalty>
1.70432

> <b_epik_Metal_Only>
0

> <s_lp_Force_Field>
OPLS_2005

> <r_lp_Energy>
19.8416

> <b_lp_Chiralities_Consistent>
1

> <s_lp_Variant>
AV-unprocessed.smi:670-6

> <Gold.Version>
5.8.1

> <Gold.Id.Protein>
6NUR|6NUR_protein|mol2

> <Gold.PLP.Fitness>
46.5065

> <Gold.PLP.PLP>
-41.0223

> <Gold.PLP.part.hbond>
-3.9792

> <Gold.PLP.part.metal>
0.0000

> <Gold.PLP.part.buried>
-7.1853

> <Gold.PLP.part.nonpolar>
-31.8899

> <Gold.PLP.part.repulsive>
1.3093

> <Gold.PLP.ligand.clash>
0.0000

> <Gold.PLP.ligand.torsion>
1.6280

> <Gold.PLP.Chemscore.Hbond>
2.8610

> <Gold.PLP.Chemscore.CHOScore>
0.0000

> <Gold.PLP.Chemscore.Metal>
0.0000

> <Gold.Chemscore.Hbonds>
donor molecule, donor type, donor heavy atom, donor atom, acceptor molecule, acceptor atom, score
      L1  H    11    41       P1  7948  0.94
      L1  H    18    23       P1 10186  0.73
      P1  H 10785 10796       L1    18  1.00

> <Gold.PLP.Chemscore.Internal.Correction>
0.1572

> <Gold.Rescore>
     Score         DG    S(hbond)    S(metal)    S(lipo)     H(rot)  DE(clash)    DE(int)     intcor
      9.98     -14.39       2.45        0.00      73.88       3.09       0.22       4.19       ----

> <Gold.Chemscore.Fitness>
9.9807

> <Gold.Chemscore.DG>
-14.3938

> <Gold.Chemscore.ZeroCoef>
-5.4800

> <Gold.Chemscore.Hbond>
2.4493

> <Gold.Chemscore.Metal>
0.0000

> <Gold.Chemscore.Lipo>
73.8791

> <Gold.Chemscore.Internal_Hbond>
0.0000

> <Gold.Chemscore.DEClash>
0.2224

> <Gold.Chemscore.DEInternal>
4.1907

> <Gold.Chemscore.Rot>
3.0901

> <Gold.Chemscore.Internal.Correction>
   9.000000E+99

> <Gold.Chemscore.Hbonds>
donor molecule, donor type, donor heavy atom, donor atom, acceptor molecule, acceptor atom, score
      L1  H    11    41       P1  7948  0.91
      L1  H    18    23       P1 10186  0.73
      P1  H 10785 10796       L1    18  0.69

> <Gold.Chemscore.Hbond.Weighted>
-8.1806

> <Gold.Chemscore.Metal.Weighted>
-0.0000

> <Gold.Chemscore.Lipo.Weighted>
-8.6439

> <Gold.Chemscore.Internal_Hbond.Weighted>
0.0000

> <Gold.Chemscore.DEClash.Weighted>
0.2224

> <Gold.Chemscore.DEInternal.Weighted>
4.1907

> <Gold.Chemscore.Rot.Weighted>
7.9106

> <Gold.Chemscore.Internal.Correction.Weighted>
   9.000000E+99

> <Gold.Protein.RotatedTorsions>
[ 6907 6896 6895 6894 ] final  -97.49 input  -60.11 | X-H torsion
[ 7974 7965 7964 7962 ] final  -39.86 input  175.53 | X-H torsion
[ 8008 7997 7996 7995 ] final -172.15 input   59.86 | X-H torsion
[ 10167 10162 10161 10158 ] final  178.55 input  -65.29 | X-H torsion
[ 10718 10713 10712 10709 ] final   -1.40 input   66.30 | X-H torsion
[ 10763 10752 10751 10750 ] final  -41.43 input  -60.55 | X-H torsion
[ 11005 11000 10999 10996 ] final   28.62 input  -57.11 | X-H torsion

> <Gold.Protein.ActiveResidues>
 VAL166  LYS551  ARG553  GLY616  TRP617  ASP618  TYR619  PRO620  LYS621  CYS622 
 ASP623  PHE694  ASN695  SER759  ASP760  ASP761  ALA762  ILE779  LEU786  VAL792 
 PHE793  MET794  SER795  GLU796  ALA797  LYS798  CYS799  TRP800  GLU811  SER814 

> <Gold.Protein.RotatedAtoms>
  150.7018  134.1340  159.4080 H   0  0  0  0  0  0  0  0  0  0  0  0  # atno 6907 bound_to 6896
  151.9325  135.0247  160.0539 H   0  0  0  0  0  0  0  0  0  0  0  0  # atno 6908 bound_to 6896
  152.2163  133.4914  159.5174 H   0  0  0  0  0  0  0  0  0  0  0  0  # atno 6909 bound_to 6896
  146.0358  140.6673  142.9111 H   0  0  0  0  0  0  0  0  0  0  0  0  # atno 7974 bound_to 7965
  155.9409  140.1108  157.1057 H   0  0  0  0  0  0  0  0  0  0  0  0  # atno 8008 bound_to 7997
  154.4089  140.1219  156.4991 H   0  0  0  0  0  0  0  0  0  0  0  0  # atno 8009 bound_to 7997
  155.6964  140.3472  155.4917 H   0  0  0  0  0  0  0  0  0  0  0  0  # atno 8010 bound_to 7997
  139.5299  144.2666  152.0663 H   0  0  0  0  0  0  0  0  0  0  0  0  # atno 10167 bound_to 10162
  156.8062  130.5409  149.5715 H   0  0  0  0  0  0  0  0  0  0  0  0  # atno 10718 bound_to 10713
  153.9623  135.6738  153.4745 H   0  0  0  0  0  0  0  0  0  0  0  0  # atno 10763 bound_to 10752
  153.0832  135.4912  154.8542 H   0  0  0  0  0  0  0  0  0  0  0  0  # atno 10764 bound_to 10752
  154.7266  135.3128  154.8921 H   0  0  0  0  0  0  0  0  0  0  0  0  # atno 10765 bound_to 10752
  140.3137  134.2621  155.7729 H   0  0  0  0  0  0  0  0  0  0  0  0  # atno 11005 bound_to 11000
  144.7051  140.3818  143.7125 LP  0  0  0  0  0  0  0  0  0  0  0  0  # atno 17320 bound_to 7965
  145.6966  139.1651  143.2616 LP  0  0  0  0  0  0  0  0  0  0  0  0  # atno 17321 bound_to 7965
  140.2128  144.4545  150.6378 LP  0  0  0  0  0  0  0  0  0  0  0  0  # atno 17342 bound_to 10162
  140.6469  143.2215  151.6165 LP  0  0  0  0  0  0  0  0  0  0  0  0  # atno 17343 bound_to 10162
  156.1071  130.6013  150.9989 LP  0  0  0  0  0  0  0  0  0  0  0  0  # atno 17370 bound_to 10713
  157.6529  131.0894  150.8012 LP  0  0  0  0  0  0  0  0  0  0  0  0  # atno 17371 bound_to 10713
  141.2102  133.7725  156.9945 LP  0  0  0  0  0  0  0  0  0  0  0  0  # atno 17394 bound_to 11000
  140.1002  134.9540  157.1912 LP  0  0  0  0  0  0  0  0  0  0  0  0  # atno 17395 bound_to 11000

$$$$
