AV-unprocessed.smi:526|AV-procd|sdf|2812|dock3
  -GOLD-   2262023293D 1   1.00000     0.00000
 Structure written by MMmdl.
 30 30  0  0  0  0  0  0  0  0  2 V2000
  151.6715  143.1817  161.8035 C   0  0  0  0  0  0  0  0  0  0  0  0
  152.3223  142.4799  160.8608 C   0  0  0  0  0  0  0  0  0  0  0  0
  152.6571  141.0113  161.0413 C   0  0  0  0  0  0  0  0  0  0  0  0
  152.7656  143.1068  159.5515 C   0  0  0  0  0  0  0  0  0  0  0  0
  151.3613  143.4908  158.4584 S   0  0  0  0  0  0  0  0  0  0  0  0
  151.2595  142.0577  157.3282 C   0  0  0  0  0  0  0  0  0  0  0  0
  150.6014  142.3553  156.1426 N   0  0  0  0  0  0  0  0  0  0  0  0
  150.4331  141.3607  155.1976 C   0  0  0  0  0  0  0  0  0  0  0  0
  149.6883  141.7975  153.9483 C   0  0  0  0  0  0  0  0  0  0  0  0
  150.9110  140.1102  155.4053 C   0  0  0  0  0  0  0  0  0  0  0  0
  150.7453  138.9770  154.3906 C   0  0  0  0  0  0  0  0  0  0  0  0
  150.2022  137.6642  154.9683 C   0  0  0  0  0  0  0  0  0  0  0  0
  150.9457  136.6642  154.8672 O   0  0  0  0  0  0  0  0  0  0  0  0
  149.0688  137.6687  155.4988 O   0  5  0  0  0  0  0  0  0  0  0  0
  151.6221  139.8351  156.6720 C   0  0  0  0  0  0  0  0  0  0  0  0
  152.0970  138.7273  156.9189 O   0  0  0  0  0  0  0  0  0  0  0  0
  151.7457  140.8826  157.5980 N   0  0  0  0  0  0  0  0  0  0  0  0
  150.2324  143.2711  155.9336 H   0  0  0  0  0  0  0  0  0  0  0  0
  151.3615  142.7221  162.7306 H   0  0  0  0  0  0  0  0  0  0  0  0
  151.4372  144.2268  161.6631 H   0  0  0  0  0  0  0  0  0  0  0  0
  153.7339  140.8573  160.9688 H   0  0  0  0  0  0  0  0  0  0  0  0
  152.1721  140.4092  160.2730 H   0  0  0  0  0  0  0  0  0  0  0  0
  152.3278  140.6449  162.0143 H   0  0  0  0  0  0  0  0  0  0  0  0
  153.3144  144.0268  159.7570 H   0  0  0  0  0  0  0  0  0  0  0  0
  153.4507  142.4234  159.0484 H   0  0  0  0  0  0  0  0  0  0  0  0
  150.3010  141.6304  153.0622 H   0  0  0  0  0  0  0  0  0  0  0  0
  149.4322  142.8571  153.9824 H   0  0  0  0  0  0  0  0  0  0  0  0
  148.7627  141.2321  153.8397 H   0  0  0  0  0  0  0  0  0  0  0  0
  151.7129  138.7676  153.9345 H   0  0  0  0  0  0  0  0  0  0  0  0
  150.1046  139.2878  153.5648 H   0  0  0  0  0  0  0  0  0  0  0  0
  1  2  2  0  0  0  0
  1 19  1  0  0  0  0
  1 20  1  0  0  0  0
  2  3  1  0  0  0  0
  2  4  1  0  0  0  0
  3 21  1  0  0  0  0
  3 22  1  0  0  0  0
  3 23  1  0  0  0  0
  4 24  1  0  0  0  0
  4 25  1  0  0  0  0
  4  5  1  0  0  0  0
  5  6  1  0  0  0  0
  6 17  2  0  0  0  0
  6  7  1  0  0  0  0
  7  8  1  0  0  0  0
  7 18  1  0  0  0  0
  8 10  2  0  0  0  0
  8  9  1  0  0  0  0
  9 26  1  0  0  0  0
  9 27  1  0  0  0  0
  9 28  1  0  0  0  0
 10 15  1  0  0  0  0
 10 11  1  0  0  0  0
 11 12  1  0  0  0  0
 11 29  1  0  0  0  0
 11 30  1  0  0  0  0
 12 13  2  0  0  0  0
 12 14  1  0  0  0  0
 15 17  1  0  0  0  0
 15 16  2  0  0  0  0
M  CHG  1  14  -1
M  END
> <s_m_source_file>
AV-unprocessed.smi

> <i_m_source_file_index>
526

> <i_lp_mmshare_version>
43012

> <i_f3d_flags>
0

> <s_epik_input>
W0NIMl09QyhbQ0gzXSlbQ0gyXVNjMW5jKFtDSDNdKWMoYyg9TylbbkhdMSlbQ0gyXUMoPU8pW09IXQ==

> <s_epik_cmdline>
J2VwaWtfcHl0aG9uJywgJy1waCcsICc3LjAnLCAnLXRuJywgJzgnLCAnLW1hJywgJzIwMCcsICctbWV0YWxfYmluZGluZycsICctaW1hZScsICc8aW5maWxlLm1hZT4nLCAnLW9tYWUnLCAnPG91dGZpbGUubWFlPic=

> <r_lp_tautomer_probability>
0.273662

> <r_epik_Ionization_Penalty>
0.012426

> <r_epik_Ionization_Penalty_Charging>
0.012254

> <r_epik_Ionization_Penalty_Neutral>
0.000171952

> <r_epik_State_Penalty>
0.787696

> <r_epik_Charging_Adjusted_Penalty>
0.79995

> <i_epik_Tot_Q>
-1

> <i_epik_Tot_abs_Q>
1

> <r_epik_Metal_State_Penalty>
0.901144

> <b_epik_Metal_Only>
0

> <s_lp_Force_Field>
OPLS_2005

> <r_lp_Energy>
7.99396

> <b_lp_Chiralities_Consistent>
1

> <s_lp_Variant>
AV-unprocessed.smi:526-2

> <Gold.Version>
5.8.1

> <Gold.Id.Protein>
6NUR|6NUR_protein|mol2

> <Gold.PLP.Fitness>
51.3638

> <Gold.PLP.PLP>
-40.8624

> <Gold.PLP.part.hbond>
-3.0000

> <Gold.PLP.part.metal>
0.0000

> <Gold.PLP.part.buried>
-2.2903

> <Gold.PLP.part.nonpolar>
-34.8833

> <Gold.PLP.part.repulsive>
0.2819

> <Gold.PLP.ligand.clash>
0.0000

> <Gold.PLP.ligand.torsion>
0.7669

> <Gold.PLP.Chemscore.Hbond>
4.0000

> <Gold.PLP.Chemscore.CHOScore>
0.0000

> <Gold.PLP.Chemscore.Metal>
0.0000

> <Gold.Chemscore.Hbonds>
donor molecule, donor type, donor heavy atom, donor atom, acceptor molecule, acceptor atom, score
      L1  H     7    18       P1  8028  1.00
      P1  H 10752 10763       L1    13  0.78

> <Gold.PLP.Chemscore.Internal.Correction>
0.0351

> <Gold.Rescore>
     Score         DG    S(hbond)    S(metal)    S(lipo)     H(rot)  DE(clash)    DE(int)     intcor
     15.40     -17.07       2.12        0.00      89.83       2.34       1.06       0.61       ----

> <Gold.Chemscore.Fitness>
15.4045

> <Gold.Chemscore.DG>
-17.0730

> <Gold.Chemscore.ZeroCoef>
-5.4800

> <Gold.Chemscore.Hbond>
2.1192

> <Gold.Chemscore.Metal>
0.0000

> <Gold.Chemscore.Lipo>
89.8315

> <Gold.Chemscore.Internal_Hbond>
0.0000

> <Gold.Chemscore.DEClash>
1.0594

> <Gold.Chemscore.DEInternal>
0.6091

> <Gold.Chemscore.Rot>
2.3420

> <Gold.Chemscore.Internal.Correction>
   9.000000E+99

> <Gold.Chemscore.Hbonds>
donor molecule, donor type, donor heavy atom, donor atom, acceptor molecule, acceptor atom, score
      L1  H     7    18       P1  8028  0.96
      P1  H 10752 10763       L1    13  0.39

> <Gold.Chemscore.Hbond.Weighted>
-7.0783

> <Gold.Chemscore.Metal.Weighted>
-0.0000

> <Gold.Chemscore.Lipo.Weighted>
-10.5103

> <Gold.Chemscore.Internal_Hbond.Weighted>
0.0000

> <Gold.Chemscore.DEClash.Weighted>
1.0594

> <Gold.Chemscore.DEInternal.Weighted>
0.6091

> <Gold.Chemscore.Rot.Weighted>
5.9955

> <Gold.Chemscore.Internal.Correction.Weighted>
   9.000000E+99

> <Gold.Protein.RotatedTorsions>
[ 6907 6896 6895 6894 ] final   62.19 input  -60.11 | X-H torsion
[ 7974 7965 7964 7962 ] final  -77.05 input  175.53 | X-H torsion
[ 8008 7997 7996 7995 ] final  -52.68 input   59.86 | X-H torsion
[ 10167 10162 10161 10158 ] final   28.90 input  -65.29 | X-H torsion
[ 10718 10713 10712 10709 ] final  -37.33 input   66.30 | X-H torsion
[ 10763 10752 10751 10750 ] final   50.92 input  -60.55 | X-H torsion
[ 11005 11000 10999 10996 ] final -108.25 input  -57.11 | X-H torsion

> <Gold.Protein.ActiveResidues>
 VAL166  LYS551  ARG553  GLY616  TRP617  ASP618  TYR619  PRO620  LYS621  CYS622 
 ASP623  PHE694  ASN695  SER759  ASP760  ASP761  ALA762  ILE779  LEU786  VAL792 
 PHE793  MET794  SER795  GLU796  ALA797  LYS798  CYS799  TRP800  GLU811  SER814 

> <Gold.Protein.RotatedAtoms>
  152.4151  134.6055  160.0011 H   0  0  0  0  0  0  0  0  0  0  0  0  # atno 6907 bound_to 6896
  151.6221  133.3332  159.3098 H   0  0  0  0  0  0  0  0  0  0  0  0  # atno 6908 bound_to 6896
  150.8040  134.7193  159.6693 H   0  0  0  0  0  0  0  0  0  0  0  0  # atno 6909 bound_to 6896
  145.6048  140.9400  143.1221 H   0  0  0  0  0  0  0  0  0  0  0  0  # atno 7974 bound_to 7965
  154.4113  140.1218  156.5030 H   0  0  0  0  0  0  0  0  0  0  0  0  # atno 8008 bound_to 7997
  155.6875  140.3495  155.4861 H   0  0  0  0  0  0  0  0  0  0  0  0  # atno 8009 bound_to 7997
  155.9497  140.1102  157.0977 H   0  0  0  0  0  0  0  0  0  0  0  0  # atno 8010 bound_to 7997
  140.4813  144.0612  150.6266 H   0  0  0  0  0  0  0  0  0  0  0  0  # atno 10167 bound_to 10162
  156.3165  130.4259  149.8000 H   0  0  0  0  0  0  0  0  0  0  0  0  # atno 10718 bound_to 10713
  152.9784  135.5863  154.4331 H   0  0  0  0  0  0  0  0  0  0  0  0  # atno 10763 bound_to 10752
  154.3942  135.2768  155.2138 H   0  0  0  0  0  0  0  0  0  0  0  0  # atno 10764 bound_to 10752
  154.3997  135.6106  153.5944 H   0  0  0  0  0  0  0  0  0  0  0  0  # atno 10765 bound_to 10752
  141.0911  133.9053  157.2072 H   0  0  0  0  0  0  0  0  0  0  0  0  # atno 11005 bound_to 11000
  144.7294  139.7771  143.7352 LP  0  0  0  0  0  0  0  0  0  0  0  0  # atno 17320 bound_to 7965
  146.1549  139.4643  143.0025 LP  0  0  0  0  0  0  0  0  0  0  0  0  # atno 17321 bound_to 7965
  140.3854  143.2780  152.0122 LP  0  0  0  0  0  0  0  0  0  0  0  0  # atno 17342 bound_to 10162
  139.4834  144.6120  151.7415 LP  0  0  0  0  0  0  0  0  0  0  0  0  # atno 17343 bound_to 10162
  156.5324  130.8263  151.3241 LP  0  0  0  0  0  0  0  0  0  0  0  0  # atno 17370 bound_to 10713
  157.7402  130.9847  150.2366 LP  0  0  0  0  0  0  0  0  0  0  0  0  # atno 17371 bound_to 10713
  139.9737  135.0120  156.9578 LP  0  0  0  0  0  0  0  0  0  0  0  0  # atno 17394 bound_to 11000
  140.5249  134.0871  155.7301 LP  0  0  0  0  0  0  0  0  0  0  0  0  # atno 17395 bound_to 11000

$$$$
