AV-unprocessed.smi:1862|AV-procd|sdf|7549|dock9
  -GOLD-   22720 9263D 1   1.00000     0.00000
 Structure written by MMmdl.
 40 41  0  0  0  0  0  0  0  0  1 V2000
  148.9438  139.5720  157.5948 C   0  0  0  0  0  0  0  0  0  0  0  0
  148.1419  140.3489  156.5357 C   0  0  0  0  0  0  0  0  0  0  0  0
  148.9830  141.0839  155.4552 C   0  0  0  0  0  0  0  0  0  0  0  0
  149.9003  140.0742  154.7314 C   0  0  0  0  0  0  0  0  0  0  0  0
  148.0542  141.7225  154.4038 C   0  0  0  0  0  0  0  0  0  0  0  0
  149.7866  142.1699  156.0331 N   0  0  0  0  0  0  0  0  0  0  0  0
  150.8858  142.0780  156.8036 C   0  0  0  0  0  0  0  0  0  0  0  0
  151.3892  141.0100  157.1536 O   0  0  0  0  0  0  0  0  0  0  0  0
  151.5011  143.4061  157.2567 C   0  0  0  0  0  0  0  0  0  0  0  0
  151.9876  143.3191  158.6751 C   0  0  0  0  0  0  0  0  0  0  0  0
  151.6679  144.1640  159.7100 C   0  0  0  0  0  0  0  0  0  0  0  0
  152.4572  143.7068  161.1946 S   0  0  0  0  0  0  0  0  0  0  0  0
  153.2030  142.3522  160.3415 C   0  0  0  0  0  0  0  0  0  0  0  0
  154.0926  141.3863  160.8988 N   0  0  0  0  0  0  0  0  0  0  0  0
  154.4776  141.4209  162.3063 C   0  0  0  0  0  0  0  0  0  0  0  0
  155.4140  140.2264  162.4594 C   0  0  0  0  0  0  0  0  0  0  0  0
  155.4295  139.6799  161.1230 N   0  0  0  0  0  0  0  0  0  0  0  0
  154.6720  140.3538  160.2545 C   0  0  0  0  0  0  0  0  0  0  0  0
  154.5497  140.0500  159.0693 O   0  0  0  0  0  0  0  0  0  0  0  0
  152.8548  142.2880  159.0520 N   0  0  0  0  0  0  0  0  0  0  0  0
  148.2701  139.0849  158.2998 H   0  0  0  0  0  0  0  0  0  0  0  0
  149.5955  140.2278  158.1712 H   0  0  0  0  0  0  0  0  0  0  0  0
  149.5598  138.7930  157.1457 H   0  0  0  0  0  0  0  0  0  0  0  0
  147.4522  139.6541  156.0562 H   0  0  0  0  0  0  0  0  0  0  0  0
  147.5053  141.0730  157.0455 H   0  0  0  0  0  0  0  0  0  0  0  0
  149.3146  139.3134  154.2139 H   0  0  0  0  0  0  0  0  0  0  0  0
  150.5621  139.5507  155.4214 H   0  0  0  0  0  0  0  0  0  0  0  0
  150.5261  140.5671  153.9864 H   0  0  0  0  0  0  0  0  0  0  0  0
  147.3999  140.9787  153.9480 H   0  0  0  0  0  0  0  0  0  0  0  0
  148.6265  142.1881  153.6003 H   0  0  0  0  0  0  0  0  0  0  0  0
  147.4206  142.4976  154.8352 H   0  0  0  0  0  0  0  0  0  0  0  0
  149.4661  143.1032  155.8199 H   0  0  0  0  0  0  0  0  0  0  0  0
  152.3233  143.6814  156.5946 H   0  0  0  0  0  0  0  0  0  0  0  0
  150.7478  144.1877  157.1520 H   0  0  0  0  0  0  0  0  0  0  0  0
  151.0219  145.0290  159.6872 H   0  0  0  0  0  0  0  0  0  0  0  0
  154.9838  142.3576  162.5448 H   0  0  0  0  0  0  0  0  0  0  0  0
  153.6008  141.3242  162.9485 H   0  0  0  0  0  0  0  0  0  0  0  0
  156.4170  140.5276  162.7633 H   0  0  0  0  0  0  0  0  0  0  0  0
  155.0311  139.4934  163.1703 H   0  0  0  0  0  0  0  0  0  0  0  0
  155.9670  138.8601  160.8804 H   0  0  0  0  0  0  0  0  0  0  0  0
  1  2  1  0  0  0  0
  1 21  1  0  0  0  0
  1 22  1  0  0  0  0
  1 23  1  0  0  0  0
  2  3  1  0  0  0  0
  2 24  1  0  0  0  0
  2 25  1  0  0  0  0
  3  4  1  0  0  0  0
  3  5  1  0  0  0  0
  3  6  1  0  0  0  0
  4 26  1  0  0  0  0
  4 27  1  0  0  0  0
  4 28  1  0  0  0  0
  5 29  1  0  0  0  0
  5 30  1  0  0  0  0
  5 31  1  0  0  0  0
  6  7  1  0  0  0  0
  6 32  1  0  0  0  0
  7  8  2  0  0  0  0
  7  9  1  0  0  0  0
  9 10  1  0  0  0  0
  9 33  1  0  0  0  0
  9 34  1  0  0  0  0
 10 20  1  0  0  0  0
 10 11  2  0  0  0  0
 11 12  1  0  0  0  0
 11 35  1  0  0  0  0
 12 13  1  0  0  0  0
 13 14  1  0  0  0  0
 13 20  2  0  0  0  0
 14 18  1  0  0  0  0
 14 15  1  0  0  0  0
 15 16  1  0  0  0  0
 15 36  1  0  0  0  0
 15 37  1  0  0  0  0
 16 17  1  0  0  0  0
 16 38  1  0  0  0  0
 16 39  1  0  0  0  0
 17 18  1  0  0  0  0
 17 40  1  0  0  0  0
 18 19  2  0  0  0  0
M  END
> <s_m_source_file>
AV-unprocessed.smi

> <i_m_source_file_index>
1862

> <i_lp_mmshare_version>
43012

> <i_f3d_flags>
0

> <s_epik_input>
W0NIM11bQ0gyXUMoW0NIM10pKFtDSDNdKVtOSF1DKD1PKVtDSDJdYzFbY0hdc2MobjEpTjJbQ0gyXVtDSDJdW05IXUMyPU8=

> <s_epik_cmdline>
J2VwaWtfcHl0aG9uJywgJy1waCcsICc3LjAnLCAnLXRuJywgJzgnLCAnLW1hJywgJzIwMCcsICctbWV0YWxfYmluZGluZycsICctaW1hZScsICc8aW5maWxlLm1hZT4nLCAnLW9tYWUnLCAnPG91dGZpbGUubWFlPic=

> <r_lp_tautomer_probability>
1

> <r_epik_Ionization_Penalty>
0.000124031

> <r_epik_Ionization_Penalty_Charging>
0

> <r_epik_Ionization_Penalty_Neutral>
0.000124031

> <r_epik_State_Penalty>
-0

> <r_epik_Charging_Adjusted_Penalty>
0

> <i_epik_Tot_Q>
0

> <i_epik_Tot_abs_Q>
0

> <r_epik_Metal_State_Penalty>
-0

> <b_epik_Metal_Only>
0

> <s_lp_Force_Field>
OPLS_2005

> <r_lp_Energy>
34.1106

> <b_lp_Chiralities_Consistent>
1

> <s_lp_Variant>
AV-unprocessed.smi:1862-1

> <Gold.Version>
5.8.1

> <Gold.Id.Protein>
6NUR|6NUR_protein|mol2

> <Gold.PLP.Fitness>
46.4072

> <Gold.PLP.PLP>
-41.5145

> <Gold.PLP.part.hbond>
-2.0000

> <Gold.PLP.part.metal>
0.0000

> <Gold.PLP.part.buried>
-2.7734

> <Gold.PLP.part.nonpolar>
-36.3012

> <Gold.PLP.part.repulsive>
0.1377

> <Gold.PLP.ligand.clash>
0.0000

> <Gold.PLP.ligand.torsion>
0.5600

> <Gold.PLP.Chemscore.Hbond>
2.0000

> <Gold.PLP.Chemscore.CHOScore>
0.0000

> <Gold.PLP.Chemscore.Metal>
0.0000

> <Gold.Chemscore.Hbonds>
donor molecule, donor type, donor heavy atom, donor atom, acceptor molecule, acceptor atom, score
      L1  H     6    32       P1  8028  1.00
      P1  H  7997  8008       L1    19  0.99

> <Gold.PLP.Chemscore.Internal.Correction>
0.0127

> <Gold.Rescore>
     Score         DG    S(hbond)    S(metal)    S(lipo)     H(rot)  DE(clash)    DE(int)     intcor
     12.95     -17.64       1.97        0.00      85.38       1.72       0.07       4.62       ----

> <Gold.Chemscore.Fitness>
12.9479

> <Gold.Chemscore.DG>
-17.6354

> <Gold.Chemscore.ZeroCoef>
-5.4800

> <Gold.Chemscore.Hbond>
1.9688

> <Gold.Chemscore.Metal>
0.0000

> <Gold.Chemscore.Lipo>
85.3837

> <Gold.Chemscore.Internal_Hbond>
0.0000

> <Gold.Chemscore.DEClash>
0.0699

> <Gold.Chemscore.DEInternal>
4.6176

> <Gold.Chemscore.Rot>
1.7228

> <Gold.Chemscore.Internal.Correction>
   9.000000E+99

> <Gold.Chemscore.Hbonds>
donor molecule, donor type, donor heavy atom, donor atom, acceptor molecule, acceptor atom, score
      L1  H     6    32       P1  8028  1.00
      P1  H  7997  8008       L1    19  0.94

> <Gold.Chemscore.Hbond.Weighted>
-6.5758

> <Gold.Chemscore.Metal.Weighted>
-0.0000

> <Gold.Chemscore.Lipo.Weighted>
-9.9899

> <Gold.Chemscore.Internal_Hbond.Weighted>
0.0000

> <Gold.Chemscore.DEClash.Weighted>
0.0699

> <Gold.Chemscore.DEInternal.Weighted>
4.6176

> <Gold.Chemscore.Rot.Weighted>
4.4103

> <Gold.Chemscore.Internal.Correction.Weighted>
   9.000000E+99

> <Gold.Protein.RotatedTorsions>
[ 6907 6896 6895 6894 ] final -125.15 input  -60.11 | X-H torsion
[ 7974 7965 7964 7962 ] final   -9.71 input  175.53 | X-H torsion
[ 8008 7997 7996 7995 ] final -123.16 input   59.86 | X-H torsion
[ 10167 10162 10161 10158 ] final  145.03 input  -65.29 | X-H torsion
[ 10718 10713 10712 10709 ] final   75.17 input   66.30 | X-H torsion
[ 10763 10752 10751 10750 ] final   19.94 input  -60.55 | X-H torsion
[ 11005 11000 10999 10996 ] final   79.67 input  -57.11 | X-H torsion

> <Gold.Protein.ActiveResidues>
 VAL166  LYS551  ARG553  GLY616  TRP617  ASP618  TYR619  PRO620  LYS621  CYS622 
 ASP623  PHE694  ASN695  SER759  ASP760  ASP761  ALA762  ILE779  LEU786  VAL792 
 PHE793  MET794  SER795  GLU796  ALA797  LYS798  CYS799  TRP800  GLU811  SER814 

> <Gold.Protein.RotatedAtoms>
  150.8839  133.7335  159.2923 H   0  0  0  0  0  0  0  0  0  0  0  0  # atno 6907 bound_to 6896
  151.4907  135.1056  159.9812 H   0  0  0  0  0  0  0  0  0  0  0  0  # atno 6908 bound_to 6896
  152.4777  133.8132  159.7070 H   0  0  0  0  0  0  0  0  0  0  0  0  # atno 6909 bound_to 6896
  146.2243  140.2657  142.8354 H   0  0  0  0  0  0  0  0  0  0  0  0  # atno 7974 bound_to 7965
  155.1761  140.0409  157.2872 H   0  0  0  0  0  0  0  0  0  0  0  0  # atno 8008 bound_to 7997
  154.6236  140.2507  155.7491 H   0  0  0  0  0  0  0  0  0  0  0  0  # atno 8009 bound_to 7997
  156.2447  140.2890  156.0555 H   0  0  0  0  0  0  0  0  0  0  0  0  # atno 8010 bound_to 7997
  139.4934  144.5930  151.6641 H   0  0  0  0  0  0  0  0  0  0  0  0  # atno 10167 bound_to 10162
  157.6623  130.9713  150.1316 H   0  0  0  0  0  0  0  0  0  0  0  0  # atno 10718 bound_to 10713
  153.1119  135.6698  153.9485 H   0  0  0  0  0  0  0  0  0  0  0  0  # atno 10763 bound_to 10752
  153.9026  135.3034  155.3450 H   0  0  0  0  0  0  0  0  0  0  0  0  # atno 10764 bound_to 10752
  154.7538  135.5022  153.9415 H   0  0  0  0  0  0  0  0  0  0  0  0  # atno 10765 bound_to 10752
  139.9163  134.7861  156.1809 H   0  0  0  0  0  0  0  0  0  0  0  0  # atno 11005 bound_to 11000
  144.9306  140.7971  143.5691 LP  0  0  0  0  0  0  0  0  0  0  0  0  # atno 17320 bound_to 7965
  145.2600  139.1996  143.4897 LP  0  0  0  0  0  0  0  0  0  0  0  0  # atno 17321 bound_to 7965
  140.5562  144.0345  150.6148 LP  0  0  0  0  0  0  0  0  0  0  0  0  # atno 17342 bound_to 10162
  140.3415  143.3017  152.0583 LP  0  0  0  0  0  0  0  0  0  0  0  0  # atno 17343 bound_to 10162
  156.2161  130.3670  149.8612 LP  0  0  0  0  0  0  0  0  0  0  0  0  # atno 17370 bound_to 10713
  156.6477  130.8731  151.3525 LP  0  0  0  0  0  0  0  0  0  0  0  0  # atno 17371 bound_to 10713
  141.0642  133.6827  156.2013 LP  0  0  0  0  0  0  0  0  0  0  0  0  # atno 17394 bound_to 11000
  140.6611  134.4966  157.5583 LP  0  0  0  0  0  0  0  0  0  0  0  0  # atno 17395 bound_to 11000

$$$$
