AV-unprocessed.smi:2044|AV-procd|sdf|8299|dock3
  -GOLD-   2272010563D 1   1.00000     0.00000
 Structure written by MMmdl.
 39 40  0  0  0  0  0  0  0  0  1 V2000
  138.3623  136.9302  153.5766 C   0  0  0  0  0  0  0  0  0  0  0  0
  139.8432  137.0259  153.7165 C   0  0  0  0  0  0  0  0  0  0  0  0
  140.7591  137.9509  153.3001 C   0  0  0  0  0  0  0  0  0  0  0  0
  141.9887  137.4183  153.7714 C   0  0  0  0  0  0  0  0  0  0  0  0
  143.2134  138.0953  153.5387 N   0  0  0  0  0  0  0  0  0  0  0  0
  144.4408  137.7322  153.9492 C   0  0  0  0  0  0  0  0  0  0  0  0
  144.7000  136.7244  154.6079 O   0  0  0  0  0  0  0  0  0  0  0  0
  145.3695  138.6126  153.5484 N   0  0  0  0  0  0  0  0  0  0  0  0
  146.7998  138.5071  153.8258 C   0  0  0  0  0  0  0  0  0  0  0  0
  147.4320  139.8340  154.3385 C   0  0  1  0  0  0  0  0  0  0  0  0
  146.4578  140.4943  155.3472 C   0  0  0  0  0  0  0  0  0  0  0  0
  148.7963  139.6595  154.8908 N   0  0  0  0  0  0  0  0  0  0  0  0
  149.4443  140.9401  155.1984 C   0  0  0  0  0  0  0  0  0  0  0  0
  150.8747  140.7744  155.7411 C   0  0  0  0  0  0  0  0  0  0  0  0
  151.6588  140.0429  154.8094 O   0  0  0  0  0  0  0  0  0  0  0  0
  151.1091  138.7606  154.5420 C   0  0  0  0  0  0  0  0  0  0  0  0
  149.6811  138.9118  153.9896 C   0  0  0  0  0  0  0  0  0  0  0  0
  141.8366  136.2727  154.4181 N   0  0  0  0  0  0  0  0  0  0  0  0
  140.4610  136.0158  154.3867 O   0  0  0  0  0  0  0  0  0  0  0  0
  138.0047  137.5743  152.7730 H   0  0  0  0  0  0  0  0  0  0  0  0
  137.8672  137.2339  154.4991 H   0  0  0  0  0  0  0  0  0  0  0  0
  138.0584  135.9081  153.3498 H   0  0  0  0  0  0  0  0  0  0  0  0
  140.5753  138.8601  152.7471 H   0  0  0  0  0  0  0  0  0  0  0  0
  143.1472  138.9482  153.0036 H   0  0  0  0  0  0  0  0  0  0  0  0
  145.0693  139.4115  153.0094 H   0  0  0  0  0  0  0  0  0  0  0  0
  146.9443  137.7185  154.5646 H   0  0  0  0  0  0  0  0  0  0  0  0
  147.2697  138.1568  152.9080 H   0  0  0  0  0  0  0  0  0  0  0  0
  147.5043  140.5064  153.4822 H   0  0  0  0  0  0  0  0  0  0  0  0
  145.4437  140.5713  154.9572 H   0  0  0  0  0  0  0  0  0  0  0  0
  146.7449  141.5165  155.5898 H   0  0  0  0  0  0  0  0  0  0  0  0
  146.4090  139.9271  156.2775 H   0  0  0  0  0  0  0  0  0  0  0  0
  149.4673  141.5662  154.3051 H   0  0  0  0  0  0  0  0  0  0  0  0
  148.8794  141.4848  155.9528 H   0  0  0  0  0  0  0  0  0  0  0  0
  151.3337  141.7501  155.9009 H   0  0  0  0  0  0  0  0  0  0  0  0
  150.8663  140.2625  156.7046 H   0  0  0  0  0  0  0  0  0  0  0  0
  151.7417  138.2471  153.8178 H   0  0  0  0  0  0  0  0  0  0  0  0
  151.1099  138.1577  155.4516 H   0  0  0  0  0  0  0  0  0  0  0  0
  149.3021  137.9059  153.8224 H   0  0  0  0  0  0  0  0  0  0  0  0
  149.7196  139.4036  153.0164 H   0  0  0  0  0  0  0  0  0  0  0  0
  1  2  1  0  0  0  0
  1 20  1  0  0  0  0
  1 21  1  0  0  0  0
  1 22  1  0  0  0  0
  2 19  1  0  0  0  0
  2  3  2  0  0  0  0
  3  4  1  0  0  0  0
  3 23  1  0  0  0  0
  4  5  1  0  0  0  0
  4 18  2  0  0  0  0
  5  6  1  0  0  0  0
  5 24  1  0  0  0  0
  6  7  2  0  0  0  0
  6  8  1  0  0  0  0
  8  9  1  0  0  0  0
  8 25  1  0  0  0  0
  9 10  1  0  0  0  0
  9 26  1  0  0  0  0
  9 27  1  0  0  0  0
 10 11  1  0  0  0  0
 10 12  1  0  0  0  0
 10 28  1  0  0  0  0
 11 29  1  0  0  0  0
 11 30  1  0  0  0  0
 11 31  1  0  0  0  0
 12 17  1  0  0  0  0
 12 13  1  0  0  0  0
 13 14  1  0  0  0  0
 13 32  1  0  0  0  0
 13 33  1  0  0  0  0
 14 15  1  0  0  0  0
 14 34  1  0  0  0  0
 14 35  1  0  0  0  0
 15 16  1  0  0  0  0
 16 17  1  0  0  0  0
 16 36  1  0  0  0  0
 16 37  1  0  0  0  0
 17 38  1  0  0  0  0
 17 39  1  0  0  0  0
 18 19  1  0  0  0  0
M  END
> <s_m_source_file>
AV-unprocessed.smi

> <i_m_source_file_index>
2044

> <i_lp_mmshare_version>
43012

> <i_f3d_flags>
0

> <s_epik_input>
W0NIM11jMVtjSF1jKG5vMSlbTkhdQyg9TylbTkhdW0NIMl1bQ0BIXShbQ0gzXSlOMltDSDJdW0NIMl1PW0NIMl1bQ0gyXTI=

> <s_epik_cmdline>
J2VwaWtfcHl0aG9uJywgJy1waCcsICc3LjAnLCAnLXRuJywgJzgnLCAnLW1hJywgJzIwMCcsICctbWV0YWxfYmluZGluZycsICctaW1hZScsICc8aW5maWxlLm1hZT4nLCAnLW9tYWUnLCAnPG91dGZpbGUubWFlPic=

> <r_epik_Ionization_Penalty>
0.214073

> <r_epik_Ionization_Penalty_Charging>
0

> <r_epik_Ionization_Penalty_Neutral>
0.214073

> <r_epik_State_Penalty>
0.204211

> <r_epik_Charging_Adjusted_Penalty>
0.204211

> <i_epik_Tot_Q>
0

> <i_epik_Tot_abs_Q>
0

> <r_epik_Metal_State_Penalty>
0.217151

> <b_epik_Metal_Only>
0

> <s_lp_Force_Field>
OPLS_2005

> <r_lp_Energy>
26.3951

> <b_lp_Chiralities_Consistent>
1

> <s_lp_Variant>
AV-unprocessed.smi:2044-2

> <Gold.Version>
5.8.1

> <Gold.Id.Protein>
6NUR|6NUR_protein|mol2

> <Gold.PLP.Fitness>
40.1677

> <Gold.PLP.PLP>
-28.8702

> <Gold.PLP.part.hbond>
-4.0000

> <Gold.PLP.part.metal>
0.0000

> <Gold.PLP.part.buried>
-4.7921

> <Gold.PLP.part.nonpolar>
-20.9162

> <Gold.PLP.part.repulsive>
0.2366

> <Gold.PLP.ligand.clash>
0.0000

> <Gold.PLP.ligand.torsion>
0.2503

> <Gold.PLP.Chemscore.Hbond>
3.9200

> <Gold.PLP.Chemscore.CHOScore>
0.0000

> <Gold.PLP.Chemscore.Metal>
0.0000

> <Gold.Chemscore.Hbonds>
donor molecule, donor type, donor heavy atom, donor atom, acceptor molecule, acceptor atom, score
      L1  H     5    24       P1 10175  1.00
      L1  H     8    25       P1 10175  0.94
      P1  H  7989  7998       L1    15  1.00
      P1  H 11000 11005       L1    19  0.80

> <Gold.PLP.Chemscore.Internal.Correction>
0.0380

> <Gold.Rescore>
     Score         DG    S(hbond)    S(metal)    S(lipo)     H(rot)  DE(clash)    DE(int)     intcor
     17.61     -19.19       3.19        0.00      60.51       1.58       0.00       1.57       ----

> <Gold.Chemscore.Fitness>
17.6129

> <Gold.Chemscore.DG>
-19.1901

> <Gold.Chemscore.ZeroCoef>
-5.4800

> <Gold.Chemscore.Hbond>
3.1924

> <Gold.Chemscore.Metal>
0.0000

> <Gold.Chemscore.Lipo>
60.5147

> <Gold.Chemscore.Internal_Hbond>
0.0000

> <Gold.Chemscore.DEClash>
0.0046

> <Gold.Chemscore.DEInternal>
1.5726

> <Gold.Chemscore.Rot>
1.5753

> <Gold.Chemscore.Internal.Correction>
   9.000000E+99

> <Gold.Chemscore.Hbonds>
donor molecule, donor type, donor heavy atom, donor atom, acceptor molecule, acceptor atom, score
      L1  H     5    24       P1 10175  0.99
      L1  H     8    25       P1 10175  0.91
      P1  H  7989  7998       L1    15  0.35
      P1  H 11000 11005       L1    19  0.50

> <Gold.Chemscore.Hbond.Weighted>
-10.6628

> <Gold.Chemscore.Metal.Weighted>
-0.0000

> <Gold.Chemscore.Lipo.Weighted>
-7.0802

> <Gold.Chemscore.Internal_Hbond.Weighted>
0.0000

> <Gold.Chemscore.DEClash.Weighted>
0.0046

> <Gold.Chemscore.DEInternal.Weighted>
1.5726

> <Gold.Chemscore.Rot.Weighted>
4.0329

> <Gold.Chemscore.Internal.Correction.Weighted>
   9.000000E+99

> <Gold.Protein.RotatedTorsions>
[ 6907 6896 6895 6894 ] final   59.31 input  -60.11 | X-H torsion
[ 7974 7965 7964 7962 ] final -175.95 input  175.53 | X-H torsion
[ 8008 7997 7996 7995 ] final   56.70 input   59.86 | X-H torsion
[ 10167 10162 10161 10158 ] final  -53.81 input  -65.29 | X-H torsion
[ 10718 10713 10712 10709 ] final  130.44 input   66.30 | X-H torsion
[ 10763 10752 10751 10750 ] final  141.50 input  -60.55 | X-H torsion
[ 11005 11000 10999 10996 ] final   64.85 input  -57.11 | X-H torsion

> <Gold.Protein.ActiveResidues>
 VAL166  LYS551  ARG553  GLY616  TRP617  ASP618  TYR619  PRO620  LYS621  CYS622 
 ASP623  PHE694  ASN695  SER759  ASP760  ASP761  ALA762  ILE779  LEU786  VAL792 
 PHE793  MET794  SER795  GLU796  ALA797  LYS798  CYS799  TRP800  GLU811  SER814 

> <Gold.Protein.RotatedAtoms>
  152.3903  134.6452  160.0109 H   0  0  0  0  0  0  0  0  0  0  0  0  # atno 6907 bound_to 6896
  151.6688  133.3309  159.3199 H   0  0  0  0  0  0  0  0  0  0  0  0  # atno 6908 bound_to 6896
  150.7820  134.6817  159.6492 H   0  0  0  0  0  0  0  0  0  0  0  0  # atno 6909 bound_to 6896
  144.7127  140.1244  143.6403 H   0  0  0  0  0  0  0  0  0  0  0  0  # atno 7974 bound_to 7965
  155.5217  140.3480  155.4408 H   0  0  0  0  0  0  0  0  0  0  0  0  # atno 8008 bound_to 7997
  156.0780  140.1379  156.9775 H   0  0  0  0  0  0  0  0  0  0  0  0  # atno 8009 bound_to 7997
  154.4564  140.0952  156.6744 H   0  0  0  0  0  0  0  0  0  0  0  0  # atno 8010 bound_to 7997
  140.6465  143.2538  151.4846 H   0  0  0  0  0  0  0  0  0  0  0  0  # atno 10167 bound_to 10162
  157.5061  131.1095  150.9359 H   0  0  0  0  0  0  0  0  0  0  0  0  # atno 10718 bound_to 10713
  153.9403  135.2980  155.3443 H   0  0  0  0  0  0  0  0  0  0  0  0  # atno 10763 bound_to 10752
  154.7480  135.4993  153.9242 H   0  0  0  0  0  0  0  0  0  0  0  0  # atno 10764 bound_to 10752
  153.1046  135.6743  153.9717 H   0  0  0  0  0  0  0  0  0  0  0  0  # atno 10765 bound_to 10752
  139.9932  134.6559  156.0055 H   0  0  0  0  0  0  0  0  0  0  0  0  # atno 11005 bound_to 11000
  145.9342  139.2626  143.1307 LP  0  0  0  0  0  0  0  0  0  0  0  0  # atno 17320 bound_to 7965
  145.9491  140.8922  143.0268 LP  0  0  0  0  0  0  0  0  0  0  0  0  # atno 17321 bound_to 7965
  139.5676  144.2006  152.1788 LP  0  0  0  0  0  0  0  0  0  0  0  0  # atno 17342 bound_to 10162
  140.1292  144.5303  150.6813 LP  0  0  0  0  0  0  0  0  0  0  0  0  # atno 17343 bound_to 10162
  157.0014  130.5601  149.5312 LP  0  0  0  0  0  0  0  0  0  0  0  0  # atno 17370 bound_to 10713
  156.0259  130.5353  150.8405 LP  0  0  0  0  0  0  0  0  0  0  0  0  # atno 17371 bound_to 10713
  141.1583  133.6541  156.4233 LP  0  0  0  0  0  0  0  0  0  0  0  0  # atno 17394 bound_to 11000
  140.4868  134.6612  157.5194 LP  0  0  0  0  0  0  0  0  0  0  0  0  # atno 17395 bound_to 11000

$$$$
