AV-unprocessed.smi:2898|AV-procd|sdf|11142|dock1
  -GOLD-   2272016 23D 1   1.00000     0.00000
 Structure written by MMmdl.
 44 45  0  0  0  0  0  0  0  0  1 V2000
  152.4528  139.0417  158.4479 C   0  0  0  0  0  0  0  0  0  0  0  0
  151.7317  139.2753  157.1509 C   0  0  0  0  0  0  0  0  0  0  0  0
  152.4068  139.7031  156.0983 N   0  0  0  0  0  0  0  0  0  0  0  0
  151.4723  139.8124  155.0654 O   0  0  0  0  0  0  0  0  0  0  0  0
  150.2565  139.4404  155.5407 C   0  0  0  0  0  0  0  0  0  0  0  0
  149.1297  139.4894  154.5634 C   0  0  0  0  0  0  0  0  0  0  0  0
  150.3478  139.0924  156.8635 C   0  0  0  0  0  0  0  0  0  0  0  0
  149.2809  138.6137  157.8214 C   0  0  1  0  0  0  0  0  0  0  0  0
  147.8805  138.6768  157.1847 C   0  0  0  0  0  0  0  0  0  0  0  0
  149.6302  137.2098  158.3600 C   0  0  0  0  0  0  0  0  0  0  0  0
  148.6869  136.7506  159.3736 N   0  0  0  0  0  0  0  0  0  0  0  0
  148.3613  135.4673  159.6050 C   0  0  0  0  0  0  0  0  0  0  0  0
  148.8316  134.5403  158.9431 O   0  0  0  0  0  0  0  0  0  0  0  0
  147.3675  135.1693  160.7507 C   0  0  0  0  0  0  0  0  0  0  0  0
  147.7517  135.8729  161.9929 C   0  0  0  0  0  0  0  0  0  0  0  0
  148.0526  136.4242  162.9656 N   0  0  0  0  0  0  0  0  0  0  0  0
  145.9475  135.6193  160.3231 C   0  0  0  0  0  0  0  0  0  0  0  0
  144.8784  135.2438  161.3647 C   0  0  0  0  0  0  0  0  0  0  0  0
  144.8873  133.7333  161.6435 C   0  0  0  0  0  0  0  0  0  0  0  0
  146.2839  133.2497  162.0621 C   0  0  0  0  0  0  0  0  0  0  0  0
  147.3405  133.6422  161.0141 C   0  0  0  0  0  0  0  0  0  0  0  0
  152.3018  138.0201  158.7974 H   0  0  0  0  0  0  0  0  0  0  0  0
  152.0865  139.7149  159.2229 H   0  0  0  0  0  0  0  0  0  0  0  0
  153.5270  139.2023  158.3504 H   0  0  0  0  0  0  0  0  0  0  0  0
  148.4391  138.6612  154.7177 H   0  0  0  0  0  0  0  0  0  0  0  0
  149.4983  139.4281  153.5393 H   0  0  0  0  0  0  0  0  0  0  0  0
  148.5712  140.4197  154.6655 H   0  0  0  0  0  0  0  0  0  0  0  0
  149.2543  139.2891  158.6772 H   0  0  0  0  0  0  0  0  0  0  0  0
  147.6654  139.6801  156.8162 H   0  0  0  0  0  0  0  0  0  0  0  0
  147.1030  138.4255  157.9064 H   0  0  0  0  0  0  0  0  0  0  0  0
  147.7836  137.9862  156.3478 H   0  0  0  0  0  0  0  0  0  0  0  0
  149.6310  136.4820  157.5488 H   0  0  0  0  0  0  0  0  0  0  0  0
  150.6400  137.2046  158.7746 H   0  0  0  0  0  0  0  0  0  0  0  0
  148.2619  137.4605  159.9531 H   0  0  0  0  0  0  0  0  0  0  0  0
  145.9308  136.6988  160.1657 H   0  0  0  0  0  0  0  0  0  0  0  0
  145.6758  135.1691  159.3667 H   0  0  0  0  0  0  0  0  0  0  0  0
  145.0529  135.7895  162.2925 H   0  0  0  0  0  0  0  0  0  0  0  0
  143.8933  135.5492  161.0112 H   0  0  0  0  0  0  0  0  0  0  0  0
  144.1615  133.4939  162.4213 H   0  0  0  0  0  0  0  0  0  0  0  0
  144.5692  133.1970  160.7486 H   0  0  0  0  0  0  0  0  0  0  0  0
  146.5443  133.6733  163.0326 H   0  0  0  0  0  0  0  0  0  0  0  0
  146.2765  132.1674  162.1929 H   0  0  0  0  0  0  0  0  0  0  0  0
  147.1326  133.0991  160.0906 H   0  0  0  0  0  0  0  0  0  0  0  0
  148.3224  133.3046  161.3494 H   0  0  0  0  0  0  0  0  0  0  0  0
  1  2  1  0  0  0  0
  1 22  1  0  0  0  0
  1 23  1  0  0  0  0
  1 24  1  0  0  0  0
  2  7  1  0  0  0  0
  2  3  2  0  0  0  0
  3  4  1  0  0  0  0
  4  5  1  0  0  0  0
  5  6  1  0  0  0  0
  5  7  2  0  0  0  0
  6 25  1  0  0  0  0
  6 26  1  0  0  0  0
  6 27  1  0  0  0  0
  7  8  1  0  0  0  0
  8  9  1  0  0  0  0
  8 10  1  0  0  0  0
  8 28  1  0  0  0  0
  9 29  1  0  0  0  0
  9 30  1  0  0  0  0
  9 31  1  0  0  0  0
 10 11  1  0  0  0  0
 10 32  1  0  0  0  0
 10 33  1  0  0  0  0
 11 12  1  0  0  0  0
 11 34  1  0  0  0  0
 12 13  2  0  0  0  0
 12 14  1  0  0  0  0
 14 21  1  0  0  0  0
 14 15  1  0  0  0  0
 14 17  1  0  0  0  0
 15 16  3  0  0  0  0
 17 18  1  0  0  0  0
 17 35  1  0  0  0  0
 17 36  1  0  0  0  0
 18 19  1  0  0  0  0
 18 37  1  0  0  0  0
 18 38  1  0  0  0  0
 19 20  1  0  0  0  0
 19 39  1  0  0  0  0
 19 40  1  0  0  0  0
 20 21  1  0  0  0  0
 20 41  1  0  0  0  0
 20 42  1  0  0  0  0
 21 43  1  0  0  0  0
 21 44  1  0  0  0  0
M  END
> <s_m_source_file>
AV-unprocessed.smi

> <i_m_source_file_index>
2898

> <i_lp_mmshare_version>
43012

> <i_f3d_flags>
0

> <s_epik_input>
W0NIM11jMW5vYyhbQ0gzXSljMVtDQEhdKFtDSDNdKVtDSDJdW05IXUMoPU8pQzIoQyNOKVtDSDJdW0NIMl1bQ0gyXVtDSDJdW0NIMl0y

> <s_epik_cmdline>
J2VwaWtfcHl0aG9uJywgJy1waCcsICc3LjAnLCAnLXRuJywgJzgnLCAnLW1hJywgJzIwMCcsICctbWV0YWxfYmluZGluZycsICctaW1hZScsICc8aW5maWxlLm1hZT4nLCAnLW9tYWUnLCAnPG91dGZpbGUubWFlPic=

> <r_lp_tautomer_probability>
1

> <r_epik_Ionization_Penalty>
4.33734e-07

> <r_epik_Ionization_Penalty_Charging>
0

> <r_epik_Ionization_Penalty_Neutral>
4.33734e-07

> <r_epik_State_Penalty>
-0

> <r_epik_Charging_Adjusted_Penalty>
0

> <i_epik_Tot_Q>
0

> <i_epik_Tot_abs_Q>
0

> <r_epik_Metal_State_Penalty>
-0

> <b_epik_Metal_Only>
0

> <s_lp_Force_Field>
OPLS_2005

> <r_lp_Energy>
8.6026

> <b_lp_Chiralities_Consistent>
1

> <s_lp_Variant>
AV-unprocessed.smi:2898-2

> <Gold.Version>
5.8.1

> <Gold.Id.Protein>
6NUR|6NUR_protein|mol2

> <Gold.PLP.Fitness>
41.2885

> <Gold.PLP.PLP>
-32.6665

> <Gold.PLP.part.hbond>
-4.0000

> <Gold.PLP.part.metal>
0.0000

> <Gold.PLP.part.buried>
-4.9024

> <Gold.PLP.part.nonpolar>
-23.7223

> <Gold.PLP.part.repulsive>
0.2914

> <Gold.PLP.ligand.clash>
0.0000

> <Gold.PLP.ligand.torsion>
0.5657

> <Gold.PLP.Chemscore.Hbond>
3.2240

> <Gold.PLP.Chemscore.CHOScore>
0.0000

> <Gold.PLP.Chemscore.Metal>
0.0000

> <Gold.Chemscore.Hbonds>
donor molecule, donor type, donor heavy atom, donor atom, acceptor molecule, acceptor atom, score
      P1  H  6896  6908       L1    13  1.00
      P1  H  6931  6943       L1    16  0.25
      P1  H  7989  7998       L1     4  1.00
      P1  H  7997  8010       L1     3  0.99

> <Gold.PLP.Chemscore.Internal.Correction>
0.0814

> <Gold.Rescore>
     Score         DG    S(hbond)    S(metal)    S(lipo)     H(rot)  DE(clash)    DE(int)     intcor
     17.58     -18.91       2.86        0.00      66.40       1.52       0.05       1.28       ----

> <Gold.Chemscore.Fitness>
17.5803

> <Gold.Chemscore.DG>
-18.9130

> <Gold.Chemscore.ZeroCoef>
-5.4800

> <Gold.Chemscore.Hbond>
2.8643

> <Gold.Chemscore.Metal>
0.0000

> <Gold.Chemscore.Lipo>
66.3967

> <Gold.Chemscore.Internal_Hbond>
0.0000

> <Gold.Chemscore.DEClash>
0.0480

> <Gold.Chemscore.DEInternal>
1.2846

> <Gold.Chemscore.Rot>
1.5243

> <Gold.Chemscore.Internal.Correction>
   9.000000E+99

> <Gold.Chemscore.Hbonds>
donor molecule, donor type, donor heavy atom, donor atom, acceptor molecule, acceptor atom, score
      P1  H  6896  6908       L1    13  0.50
      P1  H  6931  6943       L1    16  0.04
      P1  H  7989  7998       L1     4  0.98
      P1  H  7997  8010       L1     3  0.75

> <Gold.Chemscore.Hbond.Weighted>
-9.5668

> <Gold.Chemscore.Metal.Weighted>
-0.0000

> <Gold.Chemscore.Lipo.Weighted>
-7.7684

> <Gold.Chemscore.Internal_Hbond.Weighted>
0.0000

> <Gold.Chemscore.DEClash.Weighted>
0.0480

> <Gold.Chemscore.DEInternal.Weighted>
1.2846

> <Gold.Chemscore.Rot.Weighted>
3.9022

> <Gold.Chemscore.Internal.Correction.Weighted>
   9.000000E+99

> <Gold.Protein.RotatedTorsions>
[ 6907 6896 6895 6894 ] final  159.27 input  -60.11 | X-H torsion
[ 7974 7965 7964 7962 ] final   53.81 input  175.53 | X-H torsion
[ 8008 7997 7996 7995 ] final   64.32 input   59.86 | X-H torsion
[ 10167 10162 10161 10158 ] final -155.54 input  -65.29 | X-H torsion
[ 10718 10713 10712 10709 ] final  166.04 input   66.30 | X-H torsion
[ 10763 10752 10751 10750 ] final -154.63 input  -60.55 | X-H torsion
[ 11005 11000 10999 10996 ] final  146.45 input  -57.11 | X-H torsion

> <Gold.Protein.ActiveResidues>
 VAL166  LYS551  ARG553  GLY616  TRP617  ASP618  TYR619  PRO620  LYS621  CYS622 
 ASP623  PHE694  ASN695  SER759  ASP760  ASP761  ALA762  ILE779  LEU786  VAL792 
 PHE793  MET794  SER795  GLU796  ALA797  LYS798  CYS799  TRP800  GLU811  SER814 

> <Gold.Protein.RotatedAtoms>
  151.9880  133.3781  159.4132 H   0  0  0  0  0  0  0  0  0  0  0  0  # atno 6907 bound_to 6896
  150.6925  134.3967  159.5110 H   0  0  0  0  0  0  0  0  0  0  0  0  # atno 6908 bound_to 6896
  152.1696  134.8845  160.0586 H   0  0  0  0  0  0  0  0  0  0  0  0  # atno 6909 bound_to 6896
  145.9673  139.4116  143.0211 H   0  0  0  0  0  0  0  0  0  0  0  0  # atno 7974 bound_to 7965
  155.6442  140.3497  155.4725 H   0  0  0  0  0  0  0  0  0  0  0  0  # atno 8008 bound_to 7997
  155.9901  140.1192  157.0670 H   0  0  0  0  0  0  0  0  0  0  0  0  # atno 8009 bound_to 7997
  154.4216  140.1121  156.5540 H   0  0  0  0  0  0  0  0  0  0  0  0  # atno 8010 bound_to 7997
  139.6923  143.9400  152.2391 H   0  0  0  0  0  0  0  0  0  0  0  0  # atno 10167 bound_to 10162
  157.0715  131.0367  151.2610 H   0  0  0  0  0  0  0  0  0  0  0  0  # atno 10718 bound_to 10713
  154.7845  135.3185  154.7917 H   0  0  0  0  0  0  0  0  0  0  0  0  # atno 10763 bound_to 10752
  153.8620  135.6852  153.4786 H   0  0  0  0  0  0  0  0  0  0  0  0  # atno 10764 bound_to 10752
  153.1492  135.4706  154.9550 H   0  0  0  0  0  0  0  0  0  0  0  0  # atno 10765 bound_to 10752
  140.0794  134.9106  157.1476 H   0  0  0  0  0  0  0  0  0  0  0  0  # atno 11005 bound_to 11000
  145.7955  140.9795  143.1026 LP  0  0  0  0  0  0  0  0  0  0  0  0  # atno 17320 bound_to 7965
  144.6828  139.9736  143.7482 LP  0  0  0  0  0  0  0  0  0  0  0  0  # atno 17321 bound_to 7965
  139.9220  144.6794  150.8452 LP  0  0  0  0  0  0  0  0  0  0  0  0  # atno 17342 bound_to 10162
  140.7686  143.3368  151.2291 LP  0  0  0  0  0  0  0  0  0  0  0  0  # atno 17343 bound_to 10162
  157.4874  130.7801  149.7473 LP  0  0  0  0  0  0  0  0  0  0  0  0  # atno 17370 bound_to 10713
  155.9949  130.3915  150.2840 LP  0  0  0  0  0  0  0  0  0  0  0  0  # atno 17371 bound_to 10713
  140.3510  134.2599  155.7198 LP  0  0  0  0  0  0  0  0  0  0  0  0  # atno 17394 bound_to 11000
  141.2041  133.7894  157.0304 LP  0  0  0  0  0  0  0  0  0  0  0  0  # atno 17395 bound_to 11000

$$$$
