AV-unprocessed.smi:44|AV-procd|sdf|397|dock3
  -GOLD-   2262016253D 1   1.00000     0.00000
 Structure written by MMmdl.
 29 31  0  0  0  0  0  0  0  0  1 V2000
  152.2006  137.6622  154.1188 O   0  0  0  0  0  0  0  0  0  0  0  0
  152.3120  138.1406  155.2455 C   0  0  0  0  0  0  0  0  0  0  0  0
  153.0323  137.5651  156.2388 N   0  0  0  0  0  0  0  0  0  0  0  0
  153.1613  138.1094  157.5411 C   0  0  0  0  0  0  0  0  0  0  0  0
  152.6117  139.2252  157.9455 N   0  0  0  0  0  0  0  0  0  0  0  0
  151.8750  139.8368  156.9509 C   0  0  0  0  0  0  0  0  0  0  0  0
  151.6747  139.4110  155.6648 C   0  0  0  0  0  0  0  0  0  0  0  0
  150.8745  140.2975  154.9554 N   0  0  0  0  0  0  0  0  0  0  0  0
  150.6251  141.2399  155.8623 C   0  0  0  0  0  0  0  0  0  0  0  0
  151.1810  141.0393  157.0728 N   0  0  0  0  0  0  0  0  0  0  0  0
  151.0690  141.9428  158.2578 C   0  0  1  0  0  0  0  0  0  0  0  0
  152.0727  141.5540  159.3477 C   0  0  0  0  0  0  0  0  0  0  0  0
  152.3765  142.9059  159.9533 C   0  0  0  0  0  0  0  0  0  0  0  0
  152.3814  143.7821  158.6985 C   0  0  2  0  0  0  0  0  0  0  0  0
  152.2048  145.2965  158.9018 C   0  0  0  0  0  0  0  0  0  0  0  0
  150.9972  145.6033  159.5671 O   0  0  0  0  0  0  0  0  0  0  0  0
  151.3627  143.2491  157.8567 O   0  0  0  0  0  0  0  0  0  0  0  0
  153.5029  136.6966  156.0308 H   0  0  0  0  0  0  0  0  0  0  0  0
  150.0297  141.8777  158.5836 H   0  0  0  0  0  0  0  0  0  0  0  0
  153.3251  143.6218  158.1750 H   0  0  0  0  0  0  0  0  0  0  0  0
  153.7791  137.4962  158.1986 H   0  0  0  0  0  0  0  0  0  0  0  0
  150.0187  142.1053  155.6384 H   0  0  0  0  0  0  0  0  0  0  0  0
  151.6391  140.8410  160.0492 H   0  0  0  0  0  0  0  0  0  0  0  0
  152.9710  141.1222  158.9040 H   0  0  0  0  0  0  0  0  0  0  0  0
  151.5778  143.1876  160.6402 H   0  0  0  0  0  0  0  0  0  0  0  0
  153.3224  142.9302  160.4948 H   0  0  0  0  0  0  0  0  0  0  0  0
  153.0255  145.6841  159.5057 H   0  0  0  0  0  0  0  0  0  0  0  0
  152.2386  145.8177  157.9448 H   0  0  0  0  0  0  0  0  0  0  0  0
  150.8581  146.5367  159.5207 H   0  0  0  0  0  0  0  0  0  0  0  0
  1  2  2  0  0  0  0
  2  7  1  0  0  0  0
  2  3  1  0  0  0  0
  3 18  1  0  0  0  0
  3  4  1  0  0  0  0
  4  5  2  0  0  0  0
  4 21  1  0  0  0  0
  5  6  1  0  0  0  0
  6 10  1  0  0  0  0
  6  7  2  0  0  0  0
  7  8  1  0  0  0  0
  8  9  2  0  0  0  0
  9 10  1  0  0  0  0
  9 22  1  0  0  0  0
 10 11  1  0  0  0  0
 11 19  1  0  0  0  0
 11 17  1  0  0  0  0
 11 12  1  0  0  0  0
 12 13  1  0  0  0  0
 12 23  1  0  0  0  0
 12 24  1  0  0  0  0
 13 14  1  0  0  0  0
 13 25  1  0  0  0  0
 13 26  1  0  0  0  0
 14 20  1  0  0  0  0
 14 15  1  0  0  0  0
 14 17  1  0  0  0  0
 15 16  1  0  0  0  0
 15 27  1  0  0  0  0
 15 28  1  0  0  0  0
 16 29  1  0  0  0  0
M  END
> <s_m_source_file>
AV-unprocessed.smi

> <i_m_source_file_index>
44

> <i_lp_mmshare_version>
43012

> <i_f3d_flags>
0

> <s_epik_input>
bjFbY0hdW25IXWMoPU8pYyhjMTIpbltjSF1uMltDQEhdM1tDSDJdW0NIMl1bQ0BIXShPMylbQ0gyXVtPSF0=

> <s_epik_cmdline>
J2VwaWtfcHl0aG9uJywgJy1waCcsICc3LjAnLCAnLXRuJywgJzgnLCAnLW1hJywgJzIwMCcsICctbWV0YWxfYmluZGluZycsICctaW1hZScsICc8aW5maWxlLm1hZT4nLCAnLW9tYWUnLCAnPG91dGZpbGUubWFlPic=

> <r_lp_tautomer_probability>
0.85571

> <r_epik_Ionization_Penalty>
0.00801444

> <r_epik_Ionization_Penalty_Charging>
0.00794574

> <r_epik_Ionization_Penalty_Neutral>
6.87072e-05

> <r_epik_State_Penalty>
0.0826172

> <r_epik_Charging_Adjusted_Penalty>
0.090563

> <i_epik_Tot_Q>
0

> <i_epik_Tot_abs_Q>
0

> <r_epik_Metal_State_Penalty>
0.440697

> <b_epik_Metal_Only>
0

> <s_epik_Chemistry_Notes>
This compound contains an acetal/aminal-like group ( X-CH(R)-Y where X, Y are N, S, or O) that may be acid/base labile, releasing an aldehyde.

> <s_lp_Force_Field>
OPLS_2005

> <r_lp_Energy>
42.4933

> <b_lp_Chiralities_Consistent>
1

> <s_lp_Variant>
AV-unprocessed.smi:44-3

> <Gold.Version>
5.8.1

> <Gold.Id.Protein>
6NUR|6NUR_protein|mol2

> <Gold.PLP.Fitness>
39.6149

> <Gold.PLP.PLP>
-34.4803

> <Gold.PLP.part.hbond>
-3.2726

> <Gold.PLP.part.metal>
0.0000

> <Gold.PLP.part.buried>
-5.9744

> <Gold.PLP.part.nonpolar>
-27.0388

> <Gold.PLP.part.repulsive>
0.6264

> <Gold.PLP.ligand.clash>
0.0000

> <Gold.PLP.ligand.torsion>
0.2393

> <Gold.PLP.Chemscore.Hbond>
1.6630

> <Gold.PLP.Chemscore.CHOScore>
0.2064

> <Gold.PLP.Chemscore.Metal>
0.0000

> <Gold.Chemscore.Hbonds>
donor molecule, donor type, donor heavy atom, donor atom, acceptor molecule, acceptor atom, score
      P1  H  7989  7998       L1     8  1.00
      P1  H 10752 10765       L1     1  0.66
      L1  C     9    22       P1  8028  0.21

> <Gold.PLP.Chemscore.Internal.Correction>
0.0048

> <Gold.Rescore>
     Score         DG    S(hbond)    S(metal)    S(lipo)     H(rot)  DE(clash)    DE(int)     intcor
      9.16     -10.86       1.46        0.00      54.14       2.27       0.01       1.70       ----

> <Gold.Chemscore.Fitness>
9.1568

> <Gold.Chemscore.DG>
-10.8621

> <Gold.Chemscore.ZeroCoef>
-5.4800

> <Gold.Chemscore.Hbond>
1.4563

> <Gold.Chemscore.Metal>
0.0000

> <Gold.Chemscore.Lipo>
54.1411

> <Gold.Chemscore.Internal_Hbond>
0.0000

> <Gold.Chemscore.DEClash>
0.0095

> <Gold.Chemscore.DEInternal>
1.6958

> <Gold.Chemscore.Rot>
2.2720

> <Gold.Chemscore.Internal.Correction>
   9.000000E+99

> <Gold.Chemscore.Hbonds>
donor molecule, donor type, donor heavy atom, donor atom, acceptor molecule, acceptor atom, score
      P1  H  7989  7998       L1     8  0.75
      P1  H 10752 10765       L1     1  0.41

> <Gold.Chemscore.Hbond.Weighted>
-4.8640

> <Gold.Chemscore.Metal.Weighted>
-0.0000

> <Gold.Chemscore.Lipo.Weighted>
-6.3345

> <Gold.Chemscore.Internal_Hbond.Weighted>
0.0000

> <Gold.Chemscore.DEClash.Weighted>
0.0095

> <Gold.Chemscore.DEInternal.Weighted>
1.6958

> <Gold.Chemscore.Rot.Weighted>
5.8164

> <Gold.Chemscore.Internal.Correction.Weighted>
   9.000000E+99

> <Gold.Protein.RotatedTorsions>
[ 6907 6896 6895 6894 ] final   89.27 input  -60.11 | X-H torsion
[ 7974 7965 7964 7962 ] final   90.86 input  175.53 | X-H torsion
[ 8008 7997 7996 7995 ] final  152.05 input   59.86 | X-H torsion
[ 10167 10162 10161 10158 ] final  -94.52 input  -65.29 | X-H torsion
[ 10718 10713 10712 10709 ] final   28.13 input   66.30 | X-H torsion
[ 10763 10752 10751 10750 ] final  152.95 input  -60.55 | X-H torsion
[ 11005 11000 10999 10996 ] final -154.07 input  -57.11 | X-H torsion

> <Gold.Protein.ActiveResidues>
 VAL166  LYS551  ARG553  GLY616  TRP617  ASP618  TYR619  PRO620  LYS621  CYS622 
 ASP623  PHE694  ASN695  SER759  ASP760  ASP761  ALA762  ILE779  LEU786  VAL792 
 PHE793  MET794  SER795  GLU796  ALA797  LYS798  CYS799  TRP800  GLU811  SER814 

> <Gold.Protein.RotatedAtoms>
  152.5434  134.1993  159.8705 H   0  0  0  0  0  0  0  0  0  0  0  0  # atno 6907 bound_to 6896
  151.1982  133.4619  159.2603 H   0  0  0  0  0  0  0  0  0  0  0  0  # atno 6908 bound_to 6896
  151.1015  134.9987  159.8506 H   0  0  0  0  0  0  0  0  0  0  0  0  # atno 6909 bound_to 6896
  145.5134  139.2277  143.2712 H   0  0  0  0  0  0  0  0  0  0  0  0  # atno 7974 bound_to 7965
  156.2647  140.2031  156.6272 H   0  0  0  0  0  0  0  0  0  0  0  0  # atno 8008 bound_to 7997
  154.6711  140.0550  157.0190 H   0  0  0  0  0  0  0  0  0  0  0  0  # atno 8009 bound_to 7997
  155.1136  140.3218  155.4518 H   0  0  0  0  0  0  0  0  0  0  0  0  # atno 8010 bound_to 7997
  140.3136  143.3090  152.0122 H   0  0  0  0  0  0  0  0  0  0  0  0  # atno 10167 bound_to 10162
  157.2293  130.7016  149.6306 H   0  0  0  0  0  0  0  0  0  0  0  0  # atno 10718 bound_to 10713
  154.1283  135.2828  155.3191 H   0  0  0  0  0  0  0  0  0  0  0  0  # atno 10763 bound_to 10752
  154.6374  135.5414  153.7753 H   0  0  0  0  0  0  0  0  0  0  0  0  # atno 10764 bound_to 10752
  153.0290  135.6478  154.1434 H   0  0  0  0  0  0  0  0  0  0  0  0  # atno 10765 bound_to 10752
  140.7013  134.3934  157.5209 H   0  0  0  0  0  0  0  0  0  0  0  0  # atno 11005 bound_to 11000
  146.2152  140.5942  142.9041 LP  0  0  0  0  0  0  0  0  0  0  0  0  # atno 17320 bound_to 7965
  144.7715  140.5648  143.6667 LP  0  0  0  0  0  0  0  0  0  0  0  0  # atno 17321 bound_to 7965
  139.4888  144.6365  151.6964 LP  0  0  0  0  0  0  0  0  0  0  0  0  # atno 17342 bound_to 10162
  140.5546  144.0369  150.6142 LP  0  0  0  0  0  0  0  0  0  0  0  0  # atno 17343 bound_to 10162
  155.9676  130.4494  150.5657 LP  0  0  0  0  0  0  0  0  0  0  0  0  # atno 17370 bound_to 10713
  157.3495  131.0731  151.1725 LP  0  0  0  0  0  0  0  0  0  0  0  0  # atno 17371 bound_to 10713
  139.8896  134.8826  156.2413 LP  0  0  0  0  0  0  0  0  0  0  0  0  # atno 17394 bound_to 11000
  141.0161  133.7067  156.1191 LP  0  0  0  0  0  0  0  0  0  0  0  0  # atno 17395 bound_to 11000

$$$$
