AV-unprocessed.smi:2735|AV-procd|sdf|10542|dock9
  -GOLD-   2272014593D 1   1.00000     0.00000
 Structure written by MMmdl.
 42 42  0  0  0  0  0  0  0  0  2 V2000
  153.8485  140.4805  161.2348 C   0  0  0  0  0  0  0  0  0  0  0  0
  153.1251  141.4880  160.3905 C   0  0  0  0  0  0  0  0  0  0  0  0
  153.1041  142.9024  160.5326 C   0  0  0  0  0  0  0  0  0  0  0  0
  152.2898  143.3317  159.5229 C   0  0  0  0  0  0  0  0  0  0  0  0
  151.8588  144.7177  159.1692 C   0  0  0  0  0  0  0  0  0  0  0  0
  151.8800  142.2067  158.8242 N   0  0  0  0  0  0  0  0  0  0  0  0
  150.9484  142.1109  157.6982 C   0  0  1  0  0  0  0  0  0  0  0  0
  151.3686  143.0161  156.5213 C   0  0  0  0  0  0  0  0  0  0  0  0
  150.7604  140.6390  157.2900 C   0  0  0  0  0  0  0  0  0  0  0  0
  150.4098  139.7908  158.1112 O   0  0  0  0  0  0  0  0  0  0  0  0
  150.9895  140.3600  155.9975 N   0  0  0  0  0  0  0  0  0  0  0  0
  150.8034  139.0668  155.3462 C   0  0  1  0  0  0  0  0  0  0  0  0
  149.8675  139.2587  154.1276 C   0  0  0  0  0  0  0  0  0  0  0  0
  148.5457  140.0087  154.4214 C   0  0  0  0  0  0  0  0  0  0  0  0
  147.4038  139.5887  153.4815 C   0  0  0  0  0  0  0  0  0  0  0  0
  148.7617  141.5281  154.3614 C   0  0  0  0  0  0  0  0  0  0  0  0
  152.1577  138.5419  154.8432 C   0  0  0  0  0  0  0  0  0  0  0  0
  152.1531  137.4402  154.2518 O   0  0  0  0  0  0  0  0  0  0  0  0
  153.1717  139.2473  155.0486 O   0  5  0  0  0  0  0  0  0  0  0  0
  152.3906  141.0782  159.3708 N   0  0  0  0  0  0  0  0  0  0  0  0
  150.3727  138.3437  156.0408 H   0  0  0  0  0  0  0  0  0  0  0  0
  154.0320  140.8691  162.2364 H   0  0  0  0  0  0  0  0  0  0  0  0
  154.8122  140.2228  160.7959 H   0  0  0  0  0  0  0  0  0  0  0  0
  153.2716  139.5609  161.3396 H   0  0  0  0  0  0  0  0  0  0  0  0
  153.6024  143.5106  161.2729 H   0  0  0  0  0  0  0  0  0  0  0  0
  152.2910  145.4463  159.8553 H   0  0  0  0  0  0  0  0  0  0  0  0
  150.7743  144.8147  159.2213 H   0  0  0  0  0  0  0  0  0  0  0  0
  152.1774  144.9789  158.1600 H   0  0  0  0  0  0  0  0  0  0  0  0
  149.9757  142.4665  158.0385 H   0  0  0  0  0  0  0  0  0  0  0  0
  150.6202  143.0022  155.7283 H   0  0  0  0  0  0  0  0  0  0  0  0
  152.3187  142.7053  156.0845 H   0  0  0  0  0  0  0  0  0  0  0  0
  151.4774  144.0508  156.8476 H   0  0  0  0  0  0  0  0  0  0  0  0
  151.2942  141.1160  155.4029 H   0  0  0  0  0  0  0  0  0  0  0  0
  150.3997  139.8032  153.3451 H   0  0  0  0  0  0  0  0  0  0  0  0
  149.6329  138.2820  153.7013 H   0  0  0  0  0  0  0  0  0  0  0  0
  148.2330  139.7788  155.4406 H   0  0  0  0  0  0  0  0  0  0  0  0
  147.6717  139.7468  152.4365 H   0  0  0  0  0  0  0  0  0  0  0  0
  146.4992  140.1628  153.6844 H   0  0  0  0  0  0  0  0  0  0  0  0
  147.1478  138.5368  153.6080 H   0  0  0  0  0  0  0  0  0  0  0  0
  149.0686  141.8461  153.3645 H   0  0  0  0  0  0  0  0  0  0  0  0
  149.5335  141.8437  155.0640 H   0  0  0  0  0  0  0  0  0  0  0  0
  147.8482  142.0661  154.6161 H   0  0  0  0  0  0  0  0  0  0  0  0
  1  2  1  0  0  0  0
  1 22  1  0  0  0  0
  1 23  1  0  0  0  0
  1 24  1  0  0  0  0
  2 20  2  0  0  0  0
  2  3  1  0  0  0  0
  3  4  2  0  0  0  0
  3 25  1  0  0  0  0
  4  5  1  0  0  0  0
  4  6  1  0  0  0  0
  5 26  1  0  0  0  0
  5 27  1  0  0  0  0
  5 28  1  0  0  0  0
  6  7  1  0  0  0  0
  6 20  1  0  0  0  0
  7  8  1  0  0  0  0
  7  9  1  0  0  0  0
  7 29  1  0  0  0  0
  8 30  1  0  0  0  0
  8 31  1  0  0  0  0
  8 32  1  0  0  0  0
  9 10  2  0  0  0  0
  9 11  1  0  0  0  0
 11 12  1  0  0  0  0
 11 33  1  0  0  0  0
 12 21  1  0  0  0  0
 12 13  1  0  0  0  0
 12 17  1  0  0  0  0
 13 14  1  0  0  0  0
 13 34  1  0  0  0  0
 13 35  1  0  0  0  0
 14 15  1  0  0  0  0
 14 16  1  0  0  0  0
 14 36  1  0  0  0  0
 15 37  1  0  0  0  0
 15 38  1  0  0  0  0
 15 39  1  0  0  0  0
 16 40  1  0  0  0  0
 16 41  1  0  0  0  0
 16 42  1  0  0  0  0
 17 18  2  0  0  0  0
 17 19  1  0  0  0  0
M  CHG  1  19  -1
M  END
> <s_m_source_file>
AV-unprocessed.smi

> <i_m_source_file_index>
2735

> <i_lp_mmshare_version>
43012

> <i_f3d_flags>
0

> <s_epik_input>
W0NIM11jMVtjSF1jKFtDSDNdKW4objEpW0NASF0oW0NIM10pQyg9TylbTkhdW0NASF0oQyg9TylbT0hdKVtDSDJdW0NIXShbQ0gzXSlbQ0gzXQ==

> <s_epik_cmdline>
J2VwaWtfcHl0aG9uJywgJy1waCcsICc3LjAnLCAnLXRuJywgJzgnLCAnLW1hJywgJzIwMCcsICctbWV0YWxfYmluZGluZycsICctaW1hZScsICc8aW5maWxlLm1hZT4nLCAnLW9tYWUnLCAnPG91dGZpbGUubWFlPic=

> <r_lp_tautomer_probability>
1

> <r_epik_Ionization_Penalty>
0.0012303

> <r_epik_Ionization_Penalty_Charging>
0.000186407

> <r_epik_Ionization_Penalty_Neutral>
0.0010439

> <r_epik_State_Penalty>
-0

> <r_epik_Charging_Adjusted_Penalty>
0.000186407

> <i_epik_Tot_Q>
-1

> <i_epik_Tot_abs_Q>
1

> <r_epik_Metal_State_Penalty>
-0

> <b_epik_Metal_Only>
0

> <s_lp_Force_Field>
OPLS_2005

> <r_lp_Energy>
6.48876

> <b_lp_Chiralities_Consistent>
1

> <s_lp_Variant>
AV-unprocessed.smi:2735-2

> <Gold.Version>
5.8.1

> <Gold.Id.Protein>
6NUR|6NUR_protein|mol2

> <Gold.PLP.Fitness>
53.1511

> <Gold.PLP.PLP>
-43.7153

> <Gold.PLP.part.hbond>
-2.5082

> <Gold.PLP.part.metal>
0.0000

> <Gold.PLP.part.buried>
-4.1759

> <Gold.PLP.part.nonpolar>
-37.0605

> <Gold.PLP.part.repulsive>
0.2891

> <Gold.PLP.ligand.clash>
0.5931

> <Gold.PLP.ligand.torsion>
0.4603

> <Gold.PLP.Chemscore.Hbond>
3.6000

> <Gold.PLP.Chemscore.CHOScore>
0.0000

> <Gold.PLP.Chemscore.Metal>
0.0000

> <Gold.Chemscore.Hbonds>
donor molecule, donor type, donor heavy atom, donor atom, acceptor molecule, acceptor atom, score
      P1  H  7997  8010       L1    19  2.00
      P1  H 10752 10764       L1    18  1.54

> <Gold.PLP.Chemscore.Internal.Correction>
0.1494

> <Gold.Rescore>
     Score         DG    S(hbond)    S(metal)    S(lipo)     H(rot)  DE(clash)    DE(int)     intcor
     14.55     -17.93       1.65        0.00     108.25       2.24       1.30       2.09       ----

> <Gold.Chemscore.Fitness>
14.5525

> <Gold.Chemscore.DG>
-17.9349

> <Gold.Chemscore.ZeroCoef>
-5.4800

> <Gold.Chemscore.Hbond>
1.6531

> <Gold.Chemscore.Metal>
0.0000

> <Gold.Chemscore.Lipo>
108.2458

> <Gold.Chemscore.Internal_Hbond>
0.0000

> <Gold.Chemscore.DEClash>
1.2951

> <Gold.Chemscore.DEInternal>
2.0873

> <Gold.Chemscore.Rot>
2.2388

> <Gold.Chemscore.Internal.Correction>
   9.000000E+99

> <Gold.Chemscore.Hbonds>
donor molecule, donor type, donor heavy atom, donor atom, acceptor molecule, acceptor atom, score
      P1  H  7997  8010       L1    19  1.00
      P1  H 10752 10764       L1    18  0.77

> <Gold.Chemscore.Hbond.Weighted>
-5.5215

> <Gold.Chemscore.Metal.Weighted>
-0.0000

> <Gold.Chemscore.Lipo.Weighted>
-12.6648

> <Gold.Chemscore.Internal_Hbond.Weighted>
0.0000

> <Gold.Chemscore.DEClash.Weighted>
1.2951

> <Gold.Chemscore.DEInternal.Weighted>
2.0873

> <Gold.Chemscore.Rot.Weighted>
5.7314

> <Gold.Chemscore.Internal.Correction.Weighted>
   9.000000E+99

> <Gold.Protein.RotatedTorsions>
[ 6907 6896 6895 6894 ] final  -41.41 input  -60.11 | X-H torsion
[ 7974 7965 7964 7962 ] final  169.26 input  175.53 | X-H torsion
[ 8008 7997 7996 7995 ] final   98.23 input   59.86 | X-H torsion
[ 10167 10162 10161 10158 ] final -117.48 input  -65.29 | X-H torsion
[ 10718 10713 10712 10709 ] final   50.29 input   66.30 | X-H torsion
[ 10763 10752 10751 10750 ] final  -97.77 input  -60.55 | X-H torsion
[ 11005 11000 10999 10996 ] final   54.62 input  -57.11 | X-H torsion

> <Gold.Protein.ActiveResidues>
 VAL166  LYS551  ARG553  GLY616  TRP617  ASP618  TYR619  PRO620  LYS621  CYS622 
 ASP623  PHE694  ASN695  SER759  ASP760  ASP761  ALA762  ILE779  LEU786  VAL792 
 PHE793  MET794  SER795  GLU796  ALA797  LYS798  CYS799  TRP800  GLU811  SER814 

> <Gold.Protein.RotatedAtoms>
  150.9671  134.9050  159.7765 H   0  0  0  0  0  0  0  0  0  0  0  0  # atno 6907 bound_to 6896
  152.5177  134.3593  159.9289 H   0  0  0  0  0  0  0  0  0  0  0  0  # atno 6908 bound_to 6896
  151.3603  133.3851  159.2723 H   0  0  0  0  0  0  0  0  0  0  0  0  # atno 6909 bound_to 6896
  144.7361  139.9028  143.6410 H   0  0  0  0  0  0  0  0  0  0  0  0  # atno 7974 bound_to 7965
  156.0983  140.3247  155.7907 H   0  0  0  0  0  0  0  0  0  0  0  0  # atno 8008 bound_to 7997
  155.4881  140.0559  157.2975 H   0  0  0  0  0  0  0  0  0  0  0  0  # atno 8009 bound_to 7997
  154.4680  140.1998  156.0083 H   0  0  0  0  0  0  0  0  0  0  0  0  # atno 8010 bound_to 7997
  140.0679  143.4906  152.1996 H   0  0  0  0  0  0  0  0  0  0  0  0  # atno 10167 bound_to 10162
  157.4871  130.8352  149.8159 H   0  0  0  0  0  0  0  0  0  0  0  0  # atno 10718 bound_to 10713
  154.7357  135.5034  153.9038 H   0  0  0  0  0  0  0  0  0  0  0  0  # atno 10763 bound_to 10752
  153.0993  135.6681  153.9712 H   0  0  0  0  0  0  0  0  0  0  0  0  # atno 10764 bound_to 10752
  153.9502  135.3058  155.3418 H   0  0  0  0  0  0  0  0  0  0  0  0  # atno 10765 bound_to 10752
  140.0672  134.5520  155.9086 H   0  0  0  0  0  0  0  0  0  0  0  0  # atno 11005 bound_to 11000
  146.1059  139.4058  143.0318 LP  0  0  0  0  0  0  0  0  0  0  0  0  # atno 17320 bound_to 7965
  145.7513  140.9971  143.1249 LP  0  0  0  0  0  0  0  0  0  0  0  0  # atno 17321 bound_to 7965
  139.5854  144.7528  151.3534 LP  0  0  0  0  0  0  0  0  0  0  0  0  # atno 17342 bound_to 10162
  140.7140  143.7315  150.7620 LP  0  0  0  0  0  0  0  0  0  0  0  0  # atno 17343 bound_to 10162
  156.0152  130.3816  150.2132 LP  0  0  0  0  0  0  0  0  0  0  0  0  # atno 17370 bound_to 10713
  157.0320  131.0010  151.3309 LP  0  0  0  0  0  0  0  0  0  0  0  0  # atno 17371 bound_to 10713
  141.1997  133.6608  156.5859 LP  0  0  0  0  0  0  0  0  0  0  0  0  # atno 17394 bound_to 11000
  140.3681  134.7629  157.4580 LP  0  0  0  0  0  0  0  0  0  0  0  0  # atno 17395 bound_to 11000

$$$$
