AV-unprocessed.smi:1049|AV-procd|sdf|4608|dock1
  -GOLD-   22720 3103D 1   1.00000     0.00000
 Structure written by MMmdl.
 40 41  0  0  0  0  0  0  0  0  1 V2000
  151.0941  135.2429  154.9303 C   0  0  0  0  0  0  0  0  0  0  0  0
  150.6347  136.6897  155.1563 C   0  0  2  0  0  0  0  0  0  0  0  0
  149.1066  136.8336  154.9792 C   0  0  0  0  0  0  0  0  0  0  0  0
  148.6472  138.3017  155.0638 C   0  0  0  0  0  0  0  0  0  0  0  0
  149.4869  139.1906  154.1300 C   0  0  0  0  0  0  0  0  0  0  0  0
  150.9072  139.0386  154.4908 N   0  0  0  0  0  0  0  0  0  0  0  0
  151.6416  139.9204  155.2152 C   0  0  0  0  0  0  0  0  0  0  0  0
  152.8133  139.7216  155.5393 O   0  0  0  0  0  0  0  0  0  0  0  0
  150.9931  141.0495  155.5419 N   0  0  0  0  0  0  0  0  0  0  0  0
  151.5129  142.1087  156.3994 C   0  0  0  0  0  0  0  0  0  0  0  0
  150.8309  142.1323  157.7817 C   0  0  0  0  0  0  0  0  0  0  0  0
  151.7946  142.0460  158.9309 C   0  0  0  0  0  0  0  0  0  0  0  0
  152.4754  140.9429  159.2281 N   0  0  0  0  0  0  0  0  0  0  0  0
  153.2546  141.2884  160.3255 C   0  0  0  0  0  0  0  0  0  0  0  0
  153.0050  142.5948  160.6665 C   0  0  0  0  0  0  0  0  0  0  0  0
  152.0461  143.0666  159.7768 N   0  0  0  0  0  0  0  0  0  0  0  0
  151.4650  144.3996  159.7718 C   0  0  0  0  0  0  0  0  0  0  0  0
  151.8502  145.0835  160.8495 F   0  0  0  0  0  0  0  0  0  0  0  0
  151.8333  145.0563  158.6739 F   0  0  0  0  0  0  0  0  0  0  0  0
  151.3774  137.6730  154.2256 C   0  0  0  0  0  0  0  0  0  0  0  0
  150.8961  134.9194  153.9080 H   0  0  0  0  0  0  0  0  0  0  0  0
  150.5783  134.5575  155.6032 H   0  0  0  0  0  0  0  0  0  0  0  0
  152.1642  135.1389  155.1112 H   0  0  0  0  0  0  0  0  0  0  0  0
  150.8794  136.9525  156.1862 H   0  0  0  0  0  0  0  0  0  0  0  0
  148.8179  136.4316  154.0071 H   0  0  0  0  0  0  0  0  0  0  0  0
  148.5817  136.2371  155.7261 H   0  0  0  0  0  0  0  0  0  0  0  0
  147.5907  138.3770  154.8055 H   0  0  0  0  0  0  0  0  0  0  0  0
  148.7404  138.6588  156.0903 H   0  0  0  0  0  0  0  0  0  0  0  0
  149.3452  138.8793  153.0940 H   0  0  0  0  0  0  0  0  0  0  0  0
  149.1240  140.2174  154.1725 H   0  0  0  0  0  0  0  0  0  0  0  0
  150.0409  141.1528  155.2223 H   0  0  0  0  0  0  0  0  0  0  0  0
  152.5961  142.0300  156.5043 H   0  0  0  0  0  0  0  0  0  0  0  0
  151.3227  143.0532  155.8890 H   0  0  0  0  0  0  0  0  0  0  0  0
  150.2368  143.0413  157.8646 H   0  0  0  0  0  0  0  0  0  0  0  0
  150.1253  141.3046  157.8579 H   0  0  0  0  0  0  0  0  0  0  0  0
  153.9298  140.5778  160.7792 H   0  0  0  0  0  0  0  0  0  0  0  0
  153.4148  143.2076  161.4557 H   0  0  0  0  0  0  0  0  0  0  0  0
  150.3769  144.3402  159.7951 H   0  0  0  0  0  0  0  0  0  0  0  0
  152.4564  137.5757  154.3561 H   0  0  0  0  0  0  0  0  0  0  0  0
  151.1856  137.4226  153.1810 H   0  0  0  0  0  0  0  0  0  0  0  0
  1  2  1  0  0  0  0
  1 21  1  0  0  0  0
  1 22  1  0  0  0  0
  1 23  1  0  0  0  0
  2 20  1  0  0  0  0
  2  3  1  0  0  0  0
  2 24  1  0  0  0  0
  3  4  1  0  0  0  0
  3 25  1  0  0  0  0
  3 26  1  0  0  0  0
  4  5  1  0  0  0  0
  4 27  1  0  0  0  0
  4 28  1  0  0  0  0
  5  6  1  0  0  0  0
  5 29  1  0  0  0  0
  5 30  1  0  0  0  0
  6  7  1  0  0  0  0
  6 20  1  0  0  0  0
  7  8  2  0  0  0  0
  7  9  1  0  0  0  0
  9 10  1  0  0  0  0
  9 31  1  0  0  0  0
 10 11  1  0  0  0  0
 10 32  1  0  0  0  0
 10 33  1  0  0  0  0
 11 12  1  0  0  0  0
 11 34  1  0  0  0  0
 11 35  1  0  0  0  0
 12 16  1  0  0  0  0
 12 13  2  0  0  0  0
 13 14  1  0  0  0  0
 14 15  2  0  0  0  0
 14 36  1  0  0  0  0
 15 16  1  0  0  0  0
 15 37  1  0  0  0  0
 16 17  1  0  0  0  0
 17 18  1  0  0  0  0
 17 19  1  0  0  0  0
 17 38  1  0  0  0  0
 20 39  1  0  0  0  0
 20 40  1  0  0  0  0
M  END
> <s_m_source_file>
AV-unprocessed.smi

> <i_m_source_file_index>
1049

> <i_lp_mmshare_version>
43012

> <i_f3d_flags>
0

> <s_epik_input>
W0NIM11bQ0BASF0xW0NIMl1bQ0gyXVtDSDJdTihbQ0gyXTEpQyg9TylbTkhdW0NIMl1bQ0gyXWMybltjSF1bY0hdbjJbQ0hdKEYpRg==

> <s_epik_cmdline>
J2VwaWtfcHl0aG9uJywgJy1waCcsICc3LjAnLCAnLXRuJywgJzgnLCAnLW1hJywgJzIwMCcsICctbWV0YWxfYmluZGluZycsICctaW1hZScsICc8aW5maWxlLm1hZT4nLCAnLW9tYWUnLCAnPG91dGZpbGUubWFlPic=

> <r_lp_tautomer_probability>
1

> <r_epik_Ionization_Penalty>
0.101141

> <r_epik_Ionization_Penalty_Charging>
0.101077

> <r_epik_Ionization_Penalty_Neutral>
6.38597e-05

> <r_epik_State_Penalty>
0.091079

> <r_epik_Charging_Adjusted_Penalty>
0.192156

> <i_epik_Tot_Q>
0

> <i_epik_Tot_abs_Q>
0

> <r_epik_Metal_State_Penalty>
0.0777008

> <b_epik_Metal_Only>
0

> <s_lp_Force_Field>
OPLS_2005

> <r_lp_Energy>
32.1831

> <b_lp_Chiralities_Consistent>
1

> <s_lp_Variant>
AV-unprocessed.smi:1049-1

> <Gold.Version>
5.8.1

> <Gold.Id.Protein>
6NUR|6NUR_protein|mol2

> <Gold.PLP.Fitness>
45.8707

> <Gold.PLP.PLP>
-43.9971

> <Gold.PLP.part.hbond>
-1.0000

> <Gold.PLP.part.metal>
0.0000

> <Gold.PLP.part.buried>
-5.5971

> <Gold.PLP.part.nonpolar>
-36.5884

> <Gold.PLP.part.repulsive>
0.6944

> <Gold.PLP.ligand.clash>
0.0120

> <Gold.PLP.ligand.torsion>
0.6492

> <Gold.PLP.Chemscore.Hbond>
1.0000

> <Gold.PLP.Chemscore.CHOScore>
0.0000

> <Gold.PLP.Chemscore.Metal>
0.0000

> <Gold.Chemscore.Hbonds>
donor molecule, donor type, donor heavy atom, donor atom, acceptor molecule, acceptor atom, score
      P1  H  7997  8009       L1     8  1.00

> <Gold.PLP.Chemscore.Internal.Correction>
0.1839

> <Gold.Rescore>
     Score         DG    S(hbond)    S(metal)    S(lipo)     H(rot)  DE(clash)    DE(int)     intcor
     11.65     -13.53       1.00        0.00      74.47       1.56       1.37       0.51       ----

> <Gold.Chemscore.Fitness>
11.6462

> <Gold.Chemscore.DG>
-13.5300

> <Gold.Chemscore.ZeroCoef>
-5.4800

> <Gold.Chemscore.Hbond>
0.9992

> <Gold.Chemscore.Metal>
0.0000

> <Gold.Chemscore.Lipo>
74.4695

> <Gold.Chemscore.Internal_Hbond>
0.0000

> <Gold.Chemscore.DEClash>
1.3712

> <Gold.Chemscore.DEInternal>
0.5126

> <Gold.Chemscore.Rot>
1.5626

> <Gold.Chemscore.Internal.Correction>
   9.000000E+99

> <Gold.Chemscore.Hbonds>
donor molecule, donor type, donor heavy atom, donor atom, acceptor molecule, acceptor atom, score
      P1  H  7997  8009       L1     8  1.00

> <Gold.Chemscore.Hbond.Weighted>
-3.3374

> <Gold.Chemscore.Metal.Weighted>
-0.0000

> <Gold.Chemscore.Lipo.Weighted>
-8.7129

> <Gold.Chemscore.Internal_Hbond.Weighted>
0.0000

> <Gold.Chemscore.DEClash.Weighted>
1.3712

> <Gold.Chemscore.DEInternal.Weighted>
0.5126

> <Gold.Chemscore.Rot.Weighted>
4.0004

> <Gold.Chemscore.Internal.Correction.Weighted>
   9.000000E+99

> <Gold.Protein.RotatedTorsions>
[ 6907 6896 6895 6894 ] final  117.98 input  -60.11 | X-H torsion
[ 7974 7965 7964 7962 ] final  -65.83 input  175.53 | X-H torsion
[ 8008 7997 7996 7995 ] final -150.37 input   59.86 | X-H torsion
[ 10167 10162 10161 10158 ] final  167.85 input  -65.29 | X-H torsion
[ 10718 10713 10712 10709 ] final   68.61 input   66.30 | X-H torsion
[ 10763 10752 10751 10750 ] final  142.90 input  -60.55 | X-H torsion
[ 11005 11000 10999 10996 ] final  148.58 input  -57.11 | X-H torsion

> <Gold.Protein.ActiveResidues>
 VAL166  LYS551  ARG553  GLY616  TRP617  ASP618  TYR619  PRO620  LYS621  CYS622 
 ASP623  PHE694  ASN695  SER759  ASP760  ASP761  ALA762  ILE779  LEU786  VAL792 
 PHE793  MET794  SER795  GLU796  ALA797  LYS798  CYS799  TRP800  GLU811  SER814 

> <Gold.Protein.RotatedAtoms>
  152.4574  133.7752  159.6820 H   0  0  0  0  0  0  0  0  0  0  0  0  # atno 6907 bound_to 6896
  150.8506  133.7783  159.3033 H   0  0  0  0  0  0  0  0  0  0  0  0  # atno 6908 bound_to 6896
  151.5380  135.1071  159.9971 H   0  0  0  0  0  0  0  0  0  0  0  0  # atno 6909 bound_to 6896
  145.7494  140.8915  143.0488 H   0  0  0  0  0  0  0  0  0  0  0  0  # atno 7974 bound_to 7965
  155.6224  140.0683  157.2674 H   0  0  0  0  0  0  0  0  0  0  0  0  # atno 8008 bound_to 7997
  154.4226  140.1782  156.1434 H   0  0  0  0  0  0  0  0  0  0  0  0  # atno 8009 bound_to 7997
  155.9998  140.3337  155.6838 H   0  0  0  0  0  0  0  0  0  0  0  0  # atno 8010 bound_to 7997
  139.4954  144.3877  151.9552 H   0  0  0  0  0  0  0  0  0  0  0  0  # atno 10167 bound_to 10162
  157.6299  130.9382  150.0401 H   0  0  0  0  0  0  0  0  0  0  0  0  # atno 10718 bound_to 10713
  153.9634  135.2958  155.3432 H   0  0  0  0  0  0  0  0  0  0  0  0  # atno 10763 bound_to 10752
  154.7362  135.5045  153.9048 H   0  0  0  0  0  0  0  0  0  0  0  0  # atno 10764 bound_to 10752
  153.0935  135.6714  153.9919 H   0  0  0  0  0  0  0  0  0  0  0  0  # atno 10765 bound_to 10752
  140.0971  134.9006  157.1740 H   0  0  0  0  0  0  0  0  0  0  0  0  # atno 11005 bound_to 11000
  144.6853  139.9571  143.7479 LP  0  0  0  0  0  0  0  0  0  0  0  0  # atno 17320 bound_to 7965
  146.0371  139.3387  143.0720 LP  0  0  0  0  0  0  0  0  0  0  0  0  # atno 17321 bound_to 7965
  140.3314  144.3311  150.5986 LP  0  0  0  0  0  0  0  0  0  0  0  0  # atno 17342 bound_to 10162
  140.5642  143.2188  151.7713 LP  0  0  0  0  0  0  0  0  0  0  0  0  # atno 17343 bound_to 10162
  156.1495  130.3642  149.9459 LP  0  0  0  0  0  0  0  0  0  0  0  0  # atno 17370 bound_to 10713
  156.7482  130.9105  151.3636 LP  0  0  0  0  0  0  0  0  0  0  0  0  # atno 17371 bound_to 10713
  140.3271  134.2852  155.7235 LP  0  0  0  0  0  0  0  0  0  0  0  0  # atno 17394 bound_to 11000
  141.2095  133.7746  156.9991 LP  0  0  0  0  0  0  0  0  0  0  0  0  # atno 17395 bound_to 11000

$$$$
