AV-unprocessed.smi:516|AV-procd|sdf|2784|dock4
  -GOLD-   2262023253D 1   1.00000     0.00000
 Structure written by MMmdl.
 44 46  0  0  0  0  0  0  0  0  1 V2000
  154.7039  138.3619  160.3219 C   0  0  0  0  0  0  0  0  0  0  0  0
  154.4955  138.6577  158.9522 O   0  0  0  0  0  0  0  0  0  0  0  0
  153.1770  138.3599  158.5268 C   0  0  0  0  0  0  0  0  0  0  0  0
  153.0636  138.6567  157.0270 C   0  0  0  0  0  0  0  0  0  0  0  0
  151.8861  139.4600  156.7237 N   0  0  0  0  0  0  0  0  0  0  0  0
  151.4807  140.6037  157.3342 C   0  0  0  0  0  0  0  0  0  0  0  0
  152.2281  141.2278  158.4743 C   0  0  0  0  0  0  0  0  0  0  0  0
  151.5995  142.4363  159.0044 N   0  0  0  0  0  0  0  0  0  0  0  0
  152.1965  142.8751  160.2639 C   0  0  0  0  0  0  0  0  0  0  0  0
  151.5340  144.1592  160.7934 C   0  0  0  0  0  0  0  0  0  0  0  0
  151.6105  145.1813  159.8047 O   0  0  0  0  0  0  0  0  0  0  0  0
  150.9968  144.8052  158.5761 C   0  0  0  0  0  0  0  0  0  0  0  0
  151.6623  143.5267  158.0390 C   0  0  0  0  0  0  0  0  0  0  0  0
  150.3521  141.1222  156.8380 N   0  0  0  0  0  0  0  0  0  0  0  0
  150.0132  140.2305  155.8308 C   0  0  0  0  0  0  0  0  0  0  0  0
  150.9168  139.2229  155.7516 C   0  0  0  0  0  0  0  0  0  0  0  0
  150.7948  138.1270  154.7833 C   0  0  0  0  0  0  0  0  0  0  0  0
  151.5970  137.1991  154.7057 O   0  0  0  0  0  0  0  0  0  0  0  0
  149.7026  138.2429  153.9890 N   0  0  0  0  0  0  0  0  0  0  0  0
  148.7575  139.2328  154.0111 C   0  0  0  0  0  0  0  0  0  0  0  0
  147.8183  139.1960  153.2168 O   0  0  0  0  0  0  0  0  0  0  0  0
  148.9072  140.2365  154.9366 N   0  0  0  0  0  0  0  0  0  0  0  0
  147.9535  141.3424  155.0430 C   0  0  0  0  0  0  0  0  0  0  0  0
  149.5697  137.5144  153.3029 H   0  0  0  0  0  0  0  0  0  0  0  0
  155.7290  138.6084  160.5981 H   0  0  0  0  0  0  0  0  0  0  0  0
  154.5462  137.3018  160.5247 H   0  0  0  0  0  0  0  0  0  0  0  0
  154.0347  138.9436  160.9571 H   0  0  0  0  0  0  0  0  0  0  0  0
  152.9488  137.3109  158.7228 H   0  0  0  0  0  0  0  0  0  0  0  0
  152.4598  138.9639  159.0850 H   0  0  0  0  0  0  0  0  0  0  0  0
  153.9570  139.1754  156.6808 H   0  0  0  0  0  0  0  0  0  0  0  0
  153.0209  137.7308  156.4539 H   0  0  0  0  0  0  0  0  0  0  0  0
  152.3448  140.4878  159.2677 H   0  0  0  0  0  0  0  0  0  0  0  0
  153.2352  141.4588  158.1256 H   0  0  0  0  0  0  0  0  0  0  0  0
  152.1043  142.0939  161.0188 H   0  0  0  0  0  0  0  0  0  0  0  0
  153.2643  143.0510  160.1256 H   0  0  0  0  0  0  0  0  0  0  0  0
  150.4910  143.9753  161.0554 H   0  0  0  0  0  0  0  0  0  0  0  0
  152.0370  144.5004  161.6983 H   0  0  0  0  0  0  0  0  0  0  0  0
  149.9275  144.6496  158.7274 H   0  0  0  0  0  0  0  0  0  0  0  0
  151.1046  145.6193  157.8593 H   0  0  0  0  0  0  0  0  0  0  0  0
  152.7028  143.7394  157.7881 H   0  0  0  0  0  0  0  0  0  0  0  0
  151.1723  143.2287  157.1115 H   0  0  0  0  0  0  0  0  0  0  0  0
  147.1287  141.2888  154.3316 H   0  0  0  0  0  0  0  0  0  0  0  0
  148.4651  142.2910  154.8774 H   0  0  0  0  0  0  0  0  0  0  0  0
  147.5203  141.3650  156.0435 H   0  0  0  0  0  0  0  0  0  0  0  0
  1  2  1  0  0  0  0
  1 25  1  0  0  0  0
  1 26  1  0  0  0  0
  1 27  1  0  0  0  0
  2  3  1  0  0  0  0
  3  4  1  0  0  0  0
  3 28  1  0  0  0  0
  3 29  1  0  0  0  0
  4  5  1  0  0  0  0
  4 30  1  0  0  0  0
  4 31  1  0  0  0  0
  5 16  1  0  0  0  0
  5  6  1  0  0  0  0
  6  7  1  0  0  0  0
  6 14  2  0  0  0  0
  7  8  1  0  0  0  0
  7 32  1  0  0  0  0
  7 33  1  0  0  0  0
  8 13  1  0  0  0  0
  8  9  1  0  0  0  0
  9 10  1  0  0  0  0
  9 34  1  0  0  0  0
  9 35  1  0  0  0  0
 10 11  1  0  0  0  0
 10 36  1  0  0  0  0
 10 37  1  0  0  0  0
 11 12  1  0  0  0  0
 12 13  1  0  0  0  0
 12 38  1  0  0  0  0
 12 39  1  0  0  0  0
 13 40  1  0  0  0  0
 13 41  1  0  0  0  0
 14 15  1  0  0  0  0
 15 22  1  0  0  0  0
 15 16  2  0  0  0  0
 16 17  1  0  0  0  0
 17 18  2  0  0  0  0
 17 19  1  0  0  0  0
 19 24  1  0  0  0  0
 19 20  1  0  0  0  0
 20 21  2  0  0  0  0
 20 22  1  0  0  0  0
 22 23  1  0  0  0  0
 23 42  1  0  0  0  0
 23 43  1  0  0  0  0
 23 44  1  0  0  0  0
M  END
> <s_m_source_file>
AV-unprocessed.smi

> <i_m_source_file_index>
516

> <i_lp_mmshare_version>
43012

> <i_f3d_flags>
0

> <s_epik_input>
W0NIM11uMWMoPU8pW25IXWMoPU8pYyhjMTIpbihbQ0gyXVtDSDJdT1tDSDNdKWMobjIpW0NIMl1OM1tDSDJdW0NIMl1PW0NIMl1bQ0gyXTM=

> <s_epik_cmdline>
J2VwaWtfcHl0aG9uJywgJy1waCcsICc3LjAnLCAnLXRuJywgJzgnLCAnLW1hJywgJzIwMCcsICctbWV0YWxfYmluZGluZycsICctaW1hZScsICc8aW5maWxlLm1hZT4nLCAnLW9tYWUnLCAnPG91dGZpbGUubWFlPic=

> <r_epik_Ionization_Penalty>
0.0972048

> <r_epik_Ionization_Penalty_Charging>
0.000199653

> <r_epik_Ionization_Penalty_Neutral>
0.0970052

> <r_epik_State_Penalty>
0.0871068

> <r_epik_Charging_Adjusted_Penalty>
0.0873064

> <i_epik_Tot_Q>
0

> <i_epik_Tot_abs_Q>
0

> <r_epik_Metal_State_Penalty>
0.236525

> <b_epik_Metal_Only>
0

> <s_lp_Force_Field>
OPLS_2005

> <r_lp_Energy>
41.4517

> <b_lp_Chiralities_Consistent>
1

> <s_lp_Variant>
AV-unprocessed.smi:516-1

> <Gold.Version>
5.8.1

> <Gold.Id.Protein>
6NUR|6NUR_protein|mol2

> <Gold.PLP.Fitness>
43.5225

> <Gold.PLP.PLP>
-35.5184

> <Gold.PLP.part.hbond>
-3.1948

> <Gold.PLP.part.metal>
0.0000

> <Gold.PLP.part.buried>
-3.9323

> <Gold.PLP.part.nonpolar>
-30.1552

> <Gold.PLP.part.repulsive>
2.5121

> <Gold.PLP.ligand.clash>
0.0000

> <Gold.PLP.ligand.torsion>
0.4973

> <Gold.PLP.Chemscore.Hbond>
2.9913

> <Gold.PLP.Chemscore.CHOScore>
0.0000

> <Gold.PLP.Chemscore.Metal>
0.0000

> <Gold.Chemscore.Hbonds>
donor molecule, donor type, donor heavy atom, donor atom, acceptor molecule, acceptor atom, score
      L1  H    19    24       P1  7948  1.00
      P1  H  7997  8010       L1     2  0.57
      P1  H 10752 10764       L1    18  0.84

> <Gold.PLP.Chemscore.Internal.Correction>
0.0250

> <Gold.Rescore>
     Score         DG    S(hbond)    S(metal)    S(lipo)     H(rot)  DE(clash)    DE(int)     intcor
     16.60     -18.57       2.78        0.00      77.22       2.04       0.30       1.68       ----

> <Gold.Chemscore.Fitness>
16.5955

> <Gold.Chemscore.DG>
-18.5730

> <Gold.Chemscore.ZeroCoef>
-5.4800

> <Gold.Chemscore.Hbond>
2.7816

> <Gold.Chemscore.Metal>
0.0000

> <Gold.Chemscore.Lipo>
77.2154

> <Gold.Chemscore.Internal_Hbond>
0.0000

> <Gold.Chemscore.DEClash>
0.2995

> <Gold.Chemscore.DEInternal>
1.6780

> <Gold.Chemscore.Rot>
2.0437

> <Gold.Chemscore.Internal.Correction>
   9.000000E+99

> <Gold.Chemscore.Hbonds>
donor molecule, donor type, donor heavy atom, donor atom, acceptor molecule, acceptor atom, score
      L1  H    19    24       P1  7948  0.83
      P1  H  7997  8010       L1     2  0.17
      P1  H 10752 10764       L1    18  0.79

> <Gold.Chemscore.Hbond.Weighted>
-9.2906

> <Gold.Chemscore.Metal.Weighted>
-0.0000

> <Gold.Chemscore.Lipo.Weighted>
-9.0342

> <Gold.Chemscore.Internal_Hbond.Weighted>
0.0000

> <Gold.Chemscore.DEClash.Weighted>
0.2995

> <Gold.Chemscore.DEInternal.Weighted>
1.6780

> <Gold.Chemscore.Rot.Weighted>
5.2319

> <Gold.Chemscore.Internal.Correction.Weighted>
   9.000000E+99

> <Gold.Protein.RotatedTorsions>
[ 6907 6896 6895 6894 ] final -166.96 input  -60.11 | X-H torsion
[ 7974 7965 7964 7962 ] final  157.12 input  175.53 | X-H torsion
[ 8008 7997 7996 7995 ] final   -4.76 input   59.86 | X-H torsion
[ 10167 10162 10161 10158 ] final -113.84 input  -65.29 | X-H torsion
[ 10718 10713 10712 10709 ] final  149.75 input   66.30 | X-H torsion
[ 10763 10752 10751 10750 ] final  -80.89 input  -60.55 | X-H torsion
[ 11005 11000 10999 10996 ] final   93.94 input  -57.11 | X-H torsion

> <Gold.Protein.ActiveResidues>
 VAL166  LYS551  ARG553  GLY616  TRP617  ASP618  TYR619  PRO620  LYS621  CYS622 
 ASP623  PHE694  ASN695  SER759  ASP760  ASP761  ALA762  ILE779  LEU786  VAL792 
 PHE793  MET794  SER795  GLU796  ALA797  LYS798  CYS799  TRP800  GLU811  SER814 

> <Gold.Protein.RotatedAtoms>
  151.4519  133.3615  159.2796 H   0  0  0  0  0  0  0  0  0  0  0  0  # atno 6907 bound_to 6896
  150.9085  134.8503  159.7420 H   0  0  0  0  0  0  0  0  0  0  0  0  # atno 6908 bound_to 6896
  152.4919  134.4446  159.9606 H   0  0  0  0  0  0  0  0  0  0  0  0  # atno 6909 bound_to 6896
  144.7922  139.7297  143.6216 H   0  0  0  0  0  0  0  0  0  0  0  0  # atno 7974 bound_to 7965
  154.6110  140.2476  155.7669 H   0  0  0  0  0  0  0  0  0  0  0  0  # atno 8008 bound_to 7997
  156.2370  140.2946  156.0290 H   0  0  0  0  0  0  0  0  0  0  0  0  # atno 8009 bound_to 7997
  155.2053  140.0395  157.2915 H   0  0  0  0  0  0  0  0  0  0  0  0  # atno 8010 bound_to 7997
  140.1074  143.4558  152.1774 H   0  0  0  0  0  0  0  0  0  0  0  0  # atno 10167 bound_to 10162
  157.2922  131.0855  151.1453 H   0  0  0  0  0  0  0  0  0  0  0  0  # atno 10718 bound_to 10713
  154.5568  135.5645  153.6971 H   0  0  0  0  0  0  0  0  0  0  0  0  # atno 10763 bound_to 10752
  153.0006  135.6264  154.2299 H   0  0  0  0  0  0  0  0  0  0  0  0  # atno 10764 bound_to 10752
  154.2235  135.2868  155.2896 H   0  0  0  0  0  0  0  0  0  0  0  0  # atno 10765 bound_to 10752
  139.8804  134.8817  156.3791 H   0  0  0  0  0  0  0  0  0  0  0  0  # atno 11005 bound_to 11000
  146.2178  139.5581  142.9638 LP  0  0  0  0  0  0  0  0  0  0  0  0  # atno 17320 bound_to 7965
  145.5765  141.0388  143.2145 LP  0  0  0  0  0  0  0  0  0  0  0  0  # atno 17321 bound_to 7965
  139.5638  144.7422  151.4081 LP  0  0  0  0  0  0  0  0  0  0  0  0  # atno 17342 bound_to 10162
  140.6944  143.7784  150.7304 LP  0  0  0  0  0  0  0  0  0  0  0  0  # atno 17343 bound_to 10162
  157.2845  130.6766  149.6083 LP  0  0  0  0  0  0  0  0  0  0  0  0  # atno 17370 bound_to 10713
  155.9667  130.4439  150.5442 LP  0  0  0  0  0  0  0  0  0  0  0  0  # atno 17371 bound_to 10713
  140.9411  133.7514  156.0148 LP  0  0  0  0  0  0  0  0  0  0  0  0  # atno 17394 bound_to 11000
  140.8218  134.3281  157.5379 LP  0  0  0  0  0  0  0  0  0  0  0  0  # atno 17395 bound_to 11000

$$$$
