AV-unprocessed.smi:1529|AV-procd|sdf|6153|dock3
  -GOLD-   22720 6303D 1   1.00000     0.00000
 Structure written by MMmdl.
 50 51  0  0  0  0  0  0  0  0  1 V2000
  146.3996  133.9235  150.9716 C   0  0  0  0  0  0  0  0  0  0  0  0
  147.4256  133.1344  151.7773 C   0  0  0  0  0  0  0  0  0  0  0  0
  147.3507  131.9078  151.8413 O   0  0  0  0  0  0  0  0  0  0  0  0
  148.3789  133.8533  152.3889 N   0  0  0  0  0  0  0  0  0  0  0  0
  149.4523  133.2996  153.2064 C   0  0  0  0  0  0  0  0  0  0  0  0
  150.0758  134.3637  154.1244 C   0  0  0  0  0  0  0  0  0  0  0  0
  149.1012  134.8353  155.2156 C   0  0  0  0  0  0  0  0  0  0  0  0
  149.5939  136.0244  155.9013 N   0  0  0  0  0  0  0  0  0  0  0  0
  150.3710  136.0165  156.9968 C   0  0  0  0  0  0  0  0  0  0  0  0
  150.7716  134.9860  157.5383 O   0  0  0  0  0  0  0  0  0  0  0  0
  150.7953  137.3651  157.5023 C   0  0  0  0  0  0  0  0  0  0  0  0
  150.2034  138.5571  157.0305 C   0  0  0  0  0  0  0  0  0  0  0  0
  150.6308  139.7907  157.5582 C   0  0  0  0  0  0  0  0  0  0  0  0
  151.6377  139.8057  158.5519 C   0  0  0  0  0  0  0  0  0  0  0  0
  152.0858  141.0318  159.0883 N   0  0  0  0  0  0  0  0  0  0  0  0
  151.7291  142.2221  158.3229 C   0  0  0  0  0  0  0  0  0  0  0  0
  151.9427  143.4884  159.1709 C   0  0  2  0  0  0  0  0  0  0  0  0
  151.7053  144.7656  158.3582 C   0  0  0  0  0  0  0  0  0  0  0  0
  153.2836  143.5179  159.6587 O   0  0  0  0  0  0  0  0  0  0  0  0
  153.6613  142.3822  160.4400 C   0  0  1  0  0  0  0  0  0  0  0  0
  152.9798  142.3729  161.8201 C   0  0  0  0  0  0  0  0  0  0  0  0
  153.4394  141.0860  159.6366 C   0  0  0  0  0  0  0  0  0  0  0  0
  152.1897  138.6588  159.0182 N   0  0  0  0  0  0  0  0  0  0  0  0
  151.7767  137.4785  158.5100 C   0  0  0  0  0  0  0  0  0  0  0  0
  145.8661  134.6226  151.6161 H   0  0  0  0  0  0  0  0  0  0  0  0
  145.6688  133.2561  150.5136 H   0  0  0  0  0  0  0  0  0  0  0  0
  146.8904  134.4886  150.1786 H   0  0  0  0  0  0  0  0  0  0  0  0
  148.3614  134.8567  152.2762 H   0  0  0  0  0  0  0  0  0  0  0  0
  149.0789  132.4593  153.7941 H   0  0  0  0  0  0  0  0  0  0  0  0
  150.2121  132.8964  152.5366 H   0  0  0  0  0  0  0  0  0  0  0  0
  150.9762  133.9609  154.5902 H   0  0  0  0  0  0  0  0  0  0  0  0
  150.3940  135.2185  153.5258 H   0  0  0  0  0  0  0  0  0  0  0  0
  148.1152  135.0298  154.7901 H   0  0  0  0  0  0  0  0  0  0  0  0
  148.9682  134.0492  155.9590 H   0  0  0  0  0  0  0  0  0  0  0  0
  149.3340  136.9178  155.5093 H   0  0  0  0  0  0  0  0  0  0  0  0
  149.4276  138.5392  156.2787 H   0  0  0  0  0  0  0  0  0  0  0  0
  150.1732  140.7043  157.2091 H   0  0  0  0  0  0  0  0  0  0  0  0
  152.3519  142.2597  157.4279 H   0  0  0  0  0  0  0  0  0  0  0  0
  150.6942  142.1899  157.9851 H   0  0  0  0  0  0  0  0  0  0  0  0
  151.2458  143.4892  160.0091 H   0  0  0  0  0  0  0  0  0  0  0  0
  150.6871  144.8007  157.9703 H   0  0  0  0  0  0  0  0  0  0  0  0
  152.3889  144.8274  157.5109 H   0  0  0  0  0  0  0  0  0  0  0  0
  151.8564  145.6524  158.9739 H   0  0  0  0  0  0  0  0  0  0  0  0
  154.7324  142.4800  160.6196 H   0  0  0  0  0  0  0  0  0  0  0  0
  153.3870  141.5782  162.4456 H   0  0  0  0  0  0  0  0  0  0  0  0
  151.9049  142.2087  161.7505 H   0  0  0  0  0  0  0  0  0  0  0  0
  153.1423  143.3170  162.3402 H   0  0  0  0  0  0  0  0  0  0  0  0
  153.6299  140.2223  160.2751 H   0  0  0  0  0  0  0  0  0  0  0  0
  154.1522  141.0402  158.8119 H   0  0  0  0  0  0  0  0  0  0  0  0
  152.2539  136.6011  158.9220 H   0  0  0  0  0  0  0  0  0  0  0  0
  1  2  1  0  0  0  0
  1 25  1  0  0  0  0
  1 26  1  0  0  0  0
  1 27  1  0  0  0  0
  2  3  2  0  0  0  0
  2  4  1  0  0  0  0
  4  5  1  0  0  0  0
  4 28  1  0  0  0  0
  5  6  1  0  0  0  0
  5 29  1  0  0  0  0
  5 30  1  0  0  0  0
  6  7  1  0  0  0  0
  6 31  1  0  0  0  0
  6 32  1  0  0  0  0
  7  8  1  0  0  0  0
  7 33  1  0  0  0  0
  7 34  1  0  0  0  0
  8  9  1  0  0  0  0
  8 35  1  0  0  0  0
  9 10  2  0  0  0  0
  9 11  1  0  0  0  0
 11 24  1  0  0  0  0
 11 12  2  0  0  0  0
 12 13  1  0  0  0  0
 12 36  1  0  0  0  0
 13 14  2  0  0  0  0
 13 37  1  0  0  0  0
 14 15  1  0  0  0  0
 14 23  1  0  0  0  0
 15 22  1  0  0  0  0
 15 16  1  0  0  0  0
 16 17  1  0  0  0  0
 16 38  1  0  0  0  0
 16 39  1  0  0  0  0
 17 18  1  0  0  0  0
 17 19  1  0  0  0  0
 17 40  1  0  0  0  0
 18 41  1  0  0  0  0
 18 42  1  0  0  0  0
 18 43  1  0  0  0  0
 19 20  1  0  0  0  0
 20 21  1  0  0  0  0
 20 22  1  0  0  0  0
 20 44  1  0  0  0  0
 21 45  1  0  0  0  0
 21 46  1  0  0  0  0
 21 47  1  0  0  0  0
 22 48  1  0  0  0  0
 22 49  1  0  0  0  0
 23 24  2  0  0  0  0
 24 50  1  0  0  0  0
M  END
> <s_m_source_file>
AV-unprocessed.smi

> <i_m_source_file_index>
1529

> <i_lp_mmshare_version>
43012

> <i_f3d_flags>
0

> <s_epik_input>
W0NIM11DKD1PKVtOSF1bQ0gyXVtDSDJdW0NIMl1bTkhdQyg9TyljMVtjSF1bY0hdYyhuW2NIXTEpTjJbQ0gyXVtDQEBIXShbQ0gzXSlPW0NAQEhdKFtDSDNdKVtDSDJdMg==

> <s_epik_cmdline>
J2VwaWtfcHl0aG9uJywgJy1waCcsICc3LjAnLCAnLXRuJywgJzgnLCAnLW1hJywgJzIwMCcsICctbWV0YWxfYmluZGluZycsICctaW1hZScsICc8aW5maWxlLm1hZT4nLCAnLW9tYWUnLCAnPG91dGZpbGUubWFlPic=

> <r_lp_tautomer_probability>
1

> <r_epik_Ionization_Penalty>
2.1474e-05

> <r_epik_Ionization_Penalty_Charging>
0

> <r_epik_Ionization_Penalty_Neutral>
2.1474e-05

> <r_epik_State_Penalty>
-0

> <r_epik_Charging_Adjusted_Penalty>
0

> <i_epik_Tot_Q>
0

> <i_epik_Tot_abs_Q>
0

> <r_epik_Metal_State_Penalty>
-0

> <b_epik_Metal_Only>
0

> <s_lp_Force_Field>
OPLS_2005

> <r_lp_Energy>
19.6089

> <b_lp_Chiralities_Consistent>
1

> <s_lp_Variant>
AV-unprocessed.smi:1529-2

> <Gold.Version>
5.8.1

> <Gold.Id.Protein>
6NUR|6NUR_protein|mol2

> <Gold.PLP.Fitness>
47.0193

> <Gold.PLP.PLP>
-42.5601

> <Gold.PLP.part.hbond>
-2.0000

> <Gold.PLP.part.metal>
0.0000

> <Gold.PLP.part.buried>
-6.5352

> <Gold.PLP.part.nonpolar>
-34.1050

> <Gold.PLP.part.repulsive>
0.2716

> <Gold.PLP.ligand.clash>
0.0000

> <Gold.PLP.ligand.torsion>
0.9744

> <Gold.PLP.Chemscore.Hbond>
2.0000

> <Gold.PLP.Chemscore.CHOScore>
0.0000

> <Gold.PLP.Chemscore.Metal>
0.0000

> <Gold.Chemscore.Hbonds>
donor molecule, donor type, donor heavy atom, donor atom, acceptor molecule, acceptor atom, score
      L1  H     4    28       P1  7948  0.88
      P1  H  6896  6909       L1    10  0.38

> <Gold.PLP.Chemscore.Internal.Correction>
0.4080

> <Gold.Rescore>
     Score         DG    S(hbond)    S(metal)    S(lipo)     H(rot)  DE(clash)    DE(int)     intcor
     17.25     -17.90       1.88        0.00      97.84       2.07       0.00       0.65       ----

> <Gold.Chemscore.Fitness>
17.2529

> <Gold.Chemscore.DG>
-17.9007

> <Gold.Chemscore.ZeroCoef>
-5.4800

> <Gold.Chemscore.Hbond>
1.8792

> <Gold.Chemscore.Metal>
0.0000

> <Gold.Chemscore.Lipo>
97.8351

> <Gold.Chemscore.Internal_Hbond>
0.0000

> <Gold.Chemscore.DEClash>
0.0000

> <Gold.Chemscore.DEInternal>
0.6478

> <Gold.Chemscore.Rot>
2.0713

> <Gold.Chemscore.Internal.Correction>
   9.000000E+99

> <Gold.Chemscore.Hbonds>
donor molecule, donor type, donor heavy atom, donor atom, acceptor molecule, acceptor atom, score
      L1  H     4    28       P1  7948  0.18
      P1  H  6896  6909       L1    10  0.37

> <Gold.Chemscore.Hbond.Weighted>
-6.2765

> <Gold.Chemscore.Metal.Weighted>
-0.0000

> <Gold.Chemscore.Lipo.Weighted>
-11.4467

> <Gold.Chemscore.Internal_Hbond.Weighted>
0.0000

> <Gold.Chemscore.DEClash.Weighted>
0.0000

> <Gold.Chemscore.DEInternal.Weighted>
0.6478

> <Gold.Chemscore.Rot.Weighted>
5.3025

> <Gold.Chemscore.Internal.Correction.Weighted>
   9.000000E+99

> <Gold.Protein.RotatedTorsions>
[ 6907 6896 6895 6894 ] final   30.65 input  -60.11 | X-H torsion
[ 7974 7965 7964 7962 ] final  157.82 input  175.53 | X-H torsion
[ 8008 7997 7996 7995 ] final -125.75 input   59.86 | X-H torsion
[ 10167 10162 10161 10158 ] final   52.34 input  -65.29 | X-H torsion
[ 10718 10713 10712 10709 ] final  125.23 input   66.30 | X-H torsion
[ 10763 10752 10751 10750 ] final  -90.73 input  -60.55 | X-H torsion
[ 11005 11000 10999 10996 ] final  -65.92 input  -57.11 | X-H torsion

> <Gold.Protein.ActiveResidues>
 VAL166  LYS551  ARG553  GLY616  TRP617  ASP618  TYR619  PRO620  LYS621  CYS622 
 ASP623  PHE694  ASN695  SER759  ASP760  ASP761  ALA762  ILE779  LEU786  VAL792 
 PHE793  MET794  SER795  GLU796  ALA797  LYS798  CYS799  TRP800  GLU811  SER814 

> <Gold.Protein.RotatedAtoms>
  152.0490  134.9665  160.0574 H   0  0  0  0  0  0  0  0  0  0  0  0  # atno 6907 bound_to 6896
  152.1073  133.4277  159.4623 H   0  0  0  0  0  0  0  0  0  0  0  0  # atno 6908 bound_to 6896
  150.6842  134.2609  159.4592 H   0  0  0  0  0  0  0  0  0  0  0  0  # atno 6909 bound_to 6896
  144.7881  139.7392  143.6232 H   0  0  0  0  0  0  0  0  0  0  0  0  # atno 7974 bound_to 7965
  155.2183  140.0421  157.2944 H   0  0  0  0  0  0  0  0  0  0  0  0  # atno 8008 bound_to 7997
  154.5966  140.2441  155.7819 H   0  0  0  0  0  0  0  0  0  0  0  0  # atno 8009 bound_to 7997
  156.2294  140.2943  156.0158 H   0  0  0  0  0  0  0  0  0  0  0  0  # atno 8010 bound_to 7997
  140.2524  144.3464  150.6344 H   0  0  0  0  0  0  0  0  0  0  0  0  # atno 10167 bound_to 10162
  157.5520  131.1093  150.8685 H   0  0  0  0  0  0  0  0  0  0  0  0  # atno 10718 bound_to 10713
  154.6688  135.5293  153.8112 H   0  0  0  0  0  0  0  0  0  0  0  0  # atno 10763 bound_to 10752
  153.0488  135.6524  154.0757 H   0  0  0  0  0  0  0  0  0  0  0  0  # atno 10764 bound_to 10752
  154.0658  135.2958  155.3297 H   0  0  0  0  0  0  0  0  0  0  0  0  # atno 10765 bound_to 10752
  141.1468  133.6690  156.6060 H   0  0  0  0  0  0  0  0  0  0  0  0  # atno 11005 bound_to 11000
  146.2122  139.5486  142.9673 LP  0  0  0  0  0  0  0  0  0  0  0  0  # atno 17320 bound_to 7965
  145.5866  141.0375  143.2093 LP  0  0  0  0  0  0  0  0  0  0  0  0  # atno 17321 bound_to 7965
  140.6030  143.2167  151.7035 LP  0  0  0  0  0  0  0  0  0  0  0  0  # atno 17342 bound_to 10162
  139.5042  144.3763  152.0421 LP  0  0  0  0  0  0  0  0  0  0  0  0  # atno 17343 bound_to 10162
  156.9207  130.5314  149.5279 LP  0  0  0  0  0  0  0  0  0  0  0  0  # atno 17370 bound_to 10713
  156.0585  130.5642  150.9143 LP  0  0  0  0  0  0  0  0  0  0  0  0  # atno 17371 bound_to 10713
  140.3651  134.7654  157.4561 LP  0  0  0  0  0  0  0  0  0  0  0  0  # atno 17394 bound_to 11000
  140.0754  134.5804  155.8597 LP  0  0  0  0  0  0  0  0  0  0  0  0  # atno 17395 bound_to 11000

$$$$
