AV-unprocessed.smi:200|AV-procd|sdf|1578|dock4
  -GOLD-   2262019463D 1   1.00000     0.00000
 Structure written by MMmdl.
 56 59  0  0  0  0  0  0  0  0  1 V2000
  148.4129  140.6682  154.1463 C   0  0  0  0  0  0  0  0  0  0  0  0
  149.0194  139.6373  154.9094 O   0  0  0  0  0  0  0  0  0  0  0  0
  150.4393  139.6958  154.9518 C   0  0  0  0  0  0  0  0  0  0  0  0
  150.9544  140.7153  155.9901 C   0  0  0  0  0  0  0  0  0  0  0  0
  150.4266  140.4950  157.3382 N   0  0  0  0  0  0  0  0  0  0  0  0
  150.6316  139.2579  157.8527 C   0  0  0  0  0  0  0  0  0  0  0  0
  151.8965  138.7979  158.0410 N   0  0  0  0  0  0  0  0  0  0  0  0
  152.0941  137.5811  158.5565 C   0  0  0  0  0  0  0  0  0  0  0  0
  151.1875  136.6817  158.9452 N   0  0  0  0  0  0  0  0  0  0  0  0
  149.9172  137.1391  158.7515 C   0  0  0  0  0  0  0  0  0  0  0  0
  149.5548  138.4004  158.2028 C   0  0  0  0  0  0  0  0  0  0  0  0
  148.1728  138.5120  158.1314 N   0  0  0  0  0  0  0  0  0  0  0  0
  147.7409  137.3793  158.6143 C   0  0  0  0  0  0  0  0  0  0  0  0
  148.7193  136.5051  159.0355 N   0  0  0  0  0  0  0  0  0  0  0  0
  148.5166  135.1868  159.6198 C   0  0  0  0  0  0  0  0  0  0  0  0
  147.4371  135.1344  160.7247 C   0  0  0  0  0  0  0  0  0  0  0  0
  147.8697  135.9505  161.9545 C   0  0  0  0  0  0  0  0  0  0  0  0
  147.7674  137.3397  161.7168 O   0  0  0  0  0  0  0  0  0  0  0  0
  146.0043  135.3923  160.2385 C   0  0  0  0  0  0  0  0  0  0  0  0
  145.6238  134.0102  160.4016 O   0  0  0  0  0  0  0  0  0  0  0  0
  146.8854  133.7376  161.0464 C   0  0  0  0  0  0  0  0  0  0  0  0
  150.5540  141.6222  158.2719 C   0  0  2  0  0  0  0  0  0  0  0  0
  150.8019  142.9926  157.6217 C   0  0  0  0  0  0  0  0  0  0  0  0
  151.4681  143.8518  158.7097 C   0  0  0  0  0  0  0  0  0  0  0  0
  151.7104  142.9273  159.9162 C   0  0  2  0  0  0  0  0  0  0  0  0
  153.0059  143.2282  160.6816 C   0  0  0  0  0  0  0  0  0  0  0  0
  151.6515  141.5117  159.3385 C   0  0  0  0  0  0  0  0  0  0  0  0
  147.3360  140.5045  154.1116 H   0  0  0  0  0  0  0  0  0  0  0  0
  148.7827  140.6730  153.1203 H   0  0  0  0  0  0  0  0  0  0  0  0
  148.5810  141.6508  154.5863 H   0  0  0  0  0  0  0  0  0  0  0  0
  150.8104  138.6976  155.1847 H   0  0  0  0  0  0  0  0  0  0  0  0
  150.8320  139.9341  153.9624 H   0  0  0  0  0  0  0  0  0  0  0  0
  152.0439  140.6787  156.0225 H   0  0  0  0  0  0  0  0  0  0  0  0
  150.7052  141.7274  155.6719 H   0  0  0  0  0  0  0  0  0  0  0  0
  153.1262  137.2867  158.6776 H   0  0  0  0  0  0  0  0  0  0  0  0
  146.6872  137.1532  158.6885 H   0  0  0  0  0  0  0  0  0  0  0  0
  148.2755  134.4940  158.8128 H   0  0  0  0  0  0  0  0  0  0  0  0
  149.4754  134.8461  160.0127 H   0  0  0  0  0  0  0  0  0  0  0  0
  147.2375  135.7158  162.8116 H   0  0  0  0  0  0  0  0  0  0  0  0
  148.8867  135.7091  162.2616 H   0  0  0  0  0  0  0  0  0  0  0  0
  146.8681  137.5437  161.5096 H   0  0  0  0  0  0  0  0  0  0  0  0
  145.4260  136.0512  160.8880 H   0  0  0  0  0  0  0  0  0  0  0  0
  145.9409  135.7203  159.2002 H   0  0  0  0  0  0  0  0  0  0  0  0
  147.4189  132.9176  160.5692 H   0  0  0  0  0  0  0  0  0  0  0  0
  146.7615  133.5446  162.1129 H   0  0  0  0  0  0  0  0  0  0  0  0
  149.6066  141.6842  158.8095 H   0  0  0  0  0  0  0  0  0  0  0  0
  151.4802  142.9118  156.7727 H   0  0  0  0  0  0  0  0  0  0  0  0
  149.8764  143.4377  157.2557 H   0  0  0  0  0  0  0  0  0  0  0  0
  152.4081  144.2546  158.3301 H   0  0  0  0  0  0  0  0  0  0  0  0
  150.8442  144.7013  158.9895 H   0  0  0  0  0  0  0  0  0  0  0  0
  150.8684  143.0418  160.6009 H   0  0  0  0  0  0  0  0  0  0  0  0
  153.8804  143.1274  160.0380 H   0  0  0  0  0  0  0  0  0  0  0  0
  153.1301  142.5437  161.5211 H   0  0  0  0  0  0  0  0  0  0  0  0
  152.9990  144.2434  161.0788 H   0  0  0  0  0  0  0  0  0  0  0  0
  151.4278  140.7585  160.0944 H   0  0  0  0  0  0  0  0  0  0  0  0
  152.6182  141.2696  158.8953 H   0  0  0  0  0  0  0  0  0  0  0  0
  1  2  1  0  0  0  0
  1 28  1  0  0  0  0
  1 29  1  0  0  0  0
  1 30  1  0  0  0  0
  2  3  1  0  0  0  0
  3  4  1  0  0  0  0
  3 31  1  0  0  0  0
  3 32  1  0  0  0  0
  4  5  1  0  0  0  0
  4 33  1  0  0  0  0
  4 34  1  0  0  0  0
  5  6  1  0  0  0  0
  5 22  1  0  0  0  0
  6 11  1  0  0  0  0
  6  7  2  0  0  0  0
  7  8  1  0  0  0  0
  8  9  2  0  0  0  0
  8 35  1  0  0  0  0
  9 10  1  0  0  0  0
 10 14  1  0  0  0  0
 10 11  2  0  0  0  0
 11 12  1  0  0  0  0
 12 13  2  0  0  0  0
 13 14  1  0  0  0  0
 13 36  1  0  0  0  0
 14 15  1  0  0  0  0
 15 16  1  0  0  0  0
 15 37  1  0  0  0  0
 15 38  1  0  0  0  0
 16 21  1  0  0  0  0
 16 17  1  0  0  0  0
 16 19  1  0  0  0  0
 17 18  1  0  0  0  0
 17 39  1  0  0  0  0
 17 40  1  0  0  0  0
 18 41  1  0  0  0  0
 19 20  1  0  0  0  0
 19 42  1  0  0  0  0
 19 43  1  0  0  0  0
 20 21  1  0  0  0  0
 21 44  1  0  0  0  0
 21 45  1  0  0  0  0
 22 27  1  0  0  0  0
 22 23  1  0  0  0  0
 22 46  1  0  0  0  0
 23 24  1  0  0  0  0
 23 47  1  0  0  0  0
 23 48  1  0  0  0  0
 24 25  1  0  0  0  0
 24 49  1  0  0  0  0
 24 50  1  0  0  0  0
 25 26  1  0  0  0  0
 25 27  1  0  0  0  0
 25 51  1  0  0  0  0
 26 52  1  0  0  0  0
 26 53  1  0  0  0  0
 26 54  1  0  0  0  0
 27 55  1  0  0  0  0
 27 56  1  0  0  0  0
M  END
> <s_m_source_file>
AV-unprocessed.smi

> <i_m_source_file_index>
200

> <i_lp_mmshare_version>
43012

> <i_f3d_flags>
0

> <s_epik_input>
W0NIM11bQ0BASF0oW0NIMl0xKVtDSDJdW0NIMl1bQ0BIXTFOKFtDSDJdW0NIMl1PW0NIM10pYyhuW2NIXW4yKWMoYzIzKW5bY0hdbjNbQ0gyXUM0KFtDSDJdW09IXSlbQ0gyXU9bQ0gyXTQ=

> <s_epik_cmdline>
J2VwaWtfcHl0aG9uJywgJy1waCcsICc3LjAnLCAnLXRuJywgJzgnLCAnLW1hJywgJzIwMCcsICctbWV0YWxfYmluZGluZycsICctaW1hZScsICc8aW5maWxlLm1hZT4nLCAnLW9tYWUnLCAnPG91dGZpbGUubWFlPic=

> <r_lp_tautomer_probability>
1

> <r_epik_Ionization_Penalty>
0.00363087

> <r_epik_Ionization_Penalty_Charging>
0

> <r_epik_Ionization_Penalty_Neutral>
0.00363087

> <r_epik_State_Penalty>
0.0024341

> <r_epik_Charging_Adjusted_Penalty>
0.0024341

> <i_epik_Tot_Q>
0

> <i_epik_Tot_abs_Q>
0

> <r_epik_Metal_State_Penalty>
-0

> <b_epik_Metal_Only>
0

> <s_lp_Force_Field>
OPLS_2005

> <r_lp_Energy>
51.1688

> <b_lp_Chiralities_Consistent>
1

> <s_lp_Variant>
AV-unprocessed.smi:200-3

> <Gold.Version>
5.8.1

> <Gold.Id.Protein>
6NUR|6NUR_protein|mol2

> <Gold.PLP.Fitness>
45.3473

> <Gold.PLP.PLP>
-41.8851

> <Gold.PLP.part.hbond>
-3.3235

> <Gold.PLP.part.metal>
0.0000

> <Gold.PLP.part.buried>
-5.1853

> <Gold.PLP.part.nonpolar>
-33.2645

> <Gold.PLP.part.repulsive>
0.0683

> <Gold.PLP.ligand.clash>
0.0000

> <Gold.PLP.ligand.torsion>
1.7856

> <Gold.PLP.Chemscore.Hbond>
1.9040

> <Gold.PLP.Chemscore.CHOScore>
0.0000

> <Gold.PLP.Chemscore.Metal>
0.0000

> <Gold.Chemscore.Hbonds>
donor molecule, donor type, donor heavy atom, donor atom, acceptor molecule, acceptor atom, score
      P1  H  6896  6908       L1     9  0.91
      P1  H  6931  6943       L1    18  0.98

> <Gold.PLP.Chemscore.Internal.Correction>
1.3213

> <Gold.Rescore>
     Score         DG    S(hbond)    S(metal)    S(lipo)     H(rot)  DE(clash)    DE(int)     intcor
     12.71     -15.00       1.86        0.00     100.04       3.28       0.02       2.27       ----

> <Gold.Chemscore.Fitness>
12.7127

> <Gold.Chemscore.DG>
-15.0025

> <Gold.Chemscore.ZeroCoef>
-5.4800

> <Gold.Chemscore.Hbond>
1.8577

> <Gold.Chemscore.Metal>
0.0000

> <Gold.Chemscore.Lipo>
100.0392

> <Gold.Chemscore.Internal_Hbond>
0.0000

> <Gold.Chemscore.DEClash>
0.0247

> <Gold.Chemscore.DEInternal>
2.2651

> <Gold.Chemscore.Rot>
3.2761

> <Gold.Chemscore.Internal.Correction>
   9.000000E+99

> <Gold.Chemscore.Hbonds>
donor molecule, donor type, donor heavy atom, donor atom, acceptor molecule, acceptor atom, score
      P1  H  6896  6908       L1     9  0.62
      P1  H  6931  6943       L1    18  0.88

> <Gold.Chemscore.Hbond.Weighted>
-6.2048

> <Gold.Chemscore.Metal.Weighted>
-0.0000

> <Gold.Chemscore.Lipo.Weighted>
-11.7046

> <Gold.Chemscore.Internal_Hbond.Weighted>
0.0000

> <Gold.Chemscore.DEClash.Weighted>
0.0247

> <Gold.Chemscore.DEInternal.Weighted>
2.2651

> <Gold.Chemscore.Rot.Weighted>
8.3868

> <Gold.Chemscore.Internal.Correction.Weighted>
   9.000000E+99

> <Gold.Protein.RotatedTorsions>
[ 6907 6896 6895 6894 ] final -150.99 input  -60.11 | X-H torsion
[ 7974 7965 7964 7962 ] final -114.14 input  175.53 | X-H torsion
[ 8008 7997 7996 7995 ] final  -99.23 input   59.86 | X-H torsion
[ 10167 10162 10161 10158 ] final  163.11 input  -65.29 | X-H torsion
[ 10718 10713 10712 10709 ] final   33.39 input   66.30 | X-H torsion
[ 10763 10752 10751 10750 ] final   91.96 input  -60.55 | X-H torsion
[ 11005 11000 10999 10996 ] final  169.12 input  -57.11 | X-H torsion

> <Gold.Protein.ActiveResidues>
 VAL166  LYS551  ARG553  GLY616  TRP617  ASP618  TYR619  PRO620  LYS621  CYS622 
 ASP623  PHE694  ASN695  SER759  ASP760  ASP761  ALA762  ILE779  LEU786  VAL792 
 PHE793  MET794  SER795  GLU796  ALA797  LYS798  CYS799  TRP800  GLU811  SER814 

> <Gold.Protein.RotatedAtoms>
  151.2065  133.4580  159.2597 H   0  0  0  0  0  0  0  0  0  0  0  0  # atno 6907 bound_to 6896
  151.1018  134.9976  159.8462 H   0  0  0  0  0  0  0  0  0  0  0  0  # atno 6908 bound_to 6896
  152.5444  134.1991  159.8758 H   0  0  0  0  0  0  0  0  0  0  0  0  # atno 6909 bound_to 6896
  145.1237  140.8684  143.3799 H   0  0  0  0  0  0  0  0  0  0  0  0  # atno 7974 bound_to 7965
  154.8120  140.0449  157.1349 H   0  0  0  0  0  0  0  0  0  0  0  0  # atno 8008 bound_to 7997
  154.9357  140.3046  155.5125 H   0  0  0  0  0  0  0  0  0  0  0  0  # atno 8009 bound_to 7997
  156.2972  140.2315  156.4422 H   0  0  0  0  0  0  0  0  0  0  0  0  # atno 8010 bound_to 7997
  139.4869  144.4370  151.8999 H   0  0  0  0  0  0  0  0  0  0  0  0  # atno 10167 bound_to 10162
  157.2973  130.7332  149.6645 H   0  0  0  0  0  0  0  0  0  0  0  0  # atno 10718 bound_to 10713
  153.2140  135.4378  155.0412 H   0  0  0  0  0  0  0  0  0  0  0  0  # atno 10763 bound_to 10752
  154.8215  135.3340  154.7026 H   0  0  0  0  0  0  0  0  0  0  0  0  # atno 10764 bound_to 10752
  153.7463  135.7001  153.5011 H   0  0  0  0  0  0  0  0  0  0  0  0  # atno 10765 bound_to 10752
  140.2944  134.7647  157.3865 H   0  0  0  0  0  0  0  0  0  0  0  0  # atno 11005 bound_to 11000
  145.0712  139.3030  143.5831 LP  0  0  0  0  0  0  0  0  0  0  0  0  # atno 17320 bound_to 7965
  146.3519  140.0187  142.8660 LP  0  0  0  0  0  0  0  0  0  0  0  0  # atno 17321 bound_to 7965
  140.3821  144.2723  150.5907 LP  0  0  0  0  0  0  0  0  0  0  0  0  # atno 17342 bound_to 10162
  140.5224  143.2262  151.8368 LP  0  0  0  0  0  0  0  0  0  0  0  0  # atno 17343 bound_to 10162
  155.9670  130.4291  150.4816 LP  0  0  0  0  0  0  0  0  0  0  0  0  # atno 17370 bound_to 10713
  157.2790  131.0603  151.2210 LP  0  0  0  0  0  0  0  0  0  0  0  0  # atno 17371 bound_to 10713
  140.1166  134.5275  155.8219 LP  0  0  0  0  0  0  0  0  0  0  0  0  # atno 17394 bound_to 11000
  141.2140  133.6742  156.6788 LP  0  0  0  0  0  0  0  0  0  0  0  0  # atno 17395 bound_to 11000

$$$$
