AV-unprocessed.smi:168|AV-procd|sdf|1396|dock8
  -GOLD-   2262019143D 1   1.00000     0.00000
 Structure written by MMmdl.
 62 66  0  0  0  0  0  0  0  0  1 V2000
  147.9042  141.2491  157.1645 C   0  0  0  0  0  0  0  0  0  0  0  0
  148.7931  141.9956  156.1544 C   0  0  0  0  0  0  0  0  0  0  0  0
  148.4766  141.4846  154.7386 C   0  0  0  0  0  0  0  0  0  0  0  0
  150.2885  141.8467  156.4804 C   0  0  2  0  0  0  0  0  0  0  0  0
  150.5880  140.7274  157.3694 N   0  0  0  0  0  0  0  0  0  0  0  0
  150.9247  139.4951  156.7461 C   0  0  0  0  0  0  0  0  0  0  0  0
  152.0294  139.5033  155.9584 N   0  0  0  0  0  0  0  0  0  0  0  0
  152.4425  138.3974  155.3339 C   0  0  0  0  0  0  0  0  0  0  0  0
  151.9002  137.1802  155.3505 N   0  0  0  0  0  0  0  0  0  0  0  0
  150.7810  137.1537  156.1276 C   0  0  0  0  0  0  0  0  0  0  0  0
  150.2334  138.2498  156.8557 C   0  0  0  0  0  0  0  0  0  0  0  0
  149.0985  137.8305  157.5417 N   0  0  0  0  0  0  0  0  0  0  0  0
  148.9887  136.5651  157.2448 C   0  0  0  0  0  0  0  0  0  0  0  0
  149.9393  136.0829  156.3752 N   0  0  0  0  0  0  0  0  0  0  0  0
  150.0734  134.7309  155.9153 C   0  0  0  0  0  0  0  0  0  0  0  0
  150.1256  134.4059  154.4178 C   0  0  0  0  0  0  0  0  0  0  0  0
  149.3006  133.1210  154.6579 C   0  0  0  0  0  0  0  0  0  0  0  0
  148.1514  132.8535  153.6678 C   0  0  0  0  0  0  0  0  0  0  0  0
  148.5883  132.7822  152.3249 O   0  0  0  0  0  0  0  0  0  0  0  0
  150.0974  131.8006  154.7146 C   0  0  0  0  0  0  0  0  0  0  0  0
  151.0904  131.7861  155.7201 O   0  0  0  0  0  0  0  0  0  0  0  0
  148.9062  133.7413  156.0181 C   0  0  0  0  0  0  0  0  0  0  0  0
  151.7250  141.4410  157.9283 C   0  0  0  0  0  0  0  0  0  0  0  0
  151.0068  142.7385  157.5230 C   0  0  0  0  0  0  0  0  0  0  0  0
  150.1533  143.3852  158.6384 C   0  0  0  0  0  0  0  0  0  0  0  0
  151.0062  144.0490  159.7334 C   0  0  0  0  0  0  0  0  0  0  0  0
  151.9493  145.1028  159.1388 C   0  0  0  0  0  0  0  0  0  0  0  0
  152.7893  144.5156  157.9971 C   0  0  0  0  0  0  0  0  0  0  0  0
  151.8986  143.8450  156.9379 C   0  0  0  0  0  0  0  0  0  0  0  0
  148.1660  140.1918  157.2175 H   0  0  0  0  0  0  0  0  0  0  0  0
  146.8517  141.3179  156.8886 H   0  0  0  0  0  0  0  0  0  0  0  0
  147.9975  141.6656  158.1666 H   0  0  0  0  0  0  0  0  0  0  0  0
  148.5182  143.0505  156.1894 H   0  0  0  0  0  0  0  0  0  0  0  0
  148.7001  140.4214  154.6463 H   0  0  0  0  0  0  0  0  0  0  0  0
  149.0507  142.0045  153.9745 H   0  0  0  0  0  0  0  0  0  0  0  0
  147.4222  141.6231  154.4980 H   0  0  0  0  0  0  0  0  0  0  0  0
  150.8883  141.8026  155.5712 H   0  0  0  0  0  0  0  0  0  0  0  0
  153.3340  138.5046  154.7339 H   0  0  0  0  0  0  0  0  0  0  0  0
  148.2004  135.9478  157.6503 H   0  0  0  0  0  0  0  0  0  0  0  0
  150.9550  134.3356  156.4212 H   0  0  0  0  0  0  0  0  0  0  0  0
  149.6064  135.1532  153.8163 H   0  0  0  0  0  0  0  0  0  0  0  0
  151.1325  134.2378  154.0345 H   0  0  0  0  0  0  0  0  0  0  0  0
  147.6486  131.9147  153.9028 H   0  0  0  0  0  0  0  0  0  0  0  0
  147.3964  133.6381  153.7295 H   0  0  0  0  0  0  0  0  0  0  0  0
  148.6034  131.8748  152.0610 H   0  0  0  0  0  0  0  0  0  0  0  0
  149.4324  130.9558  154.8967 H   0  0  0  0  0  0  0  0  0  0  0  0
  150.5914  131.6081  153.7615 H   0  0  0  0  0  0  0  0  0  0  0  0
  151.7399  132.4399  155.5106 H   0  0  0  0  0  0  0  0  0  0  0  0
  148.9734  133.0609  156.8676 H   0  0  0  0  0  0  0  0  0  0  0  0
  147.9368  134.2412  156.0032 H   0  0  0  0  0  0  0  0  0  0  0  0
  151.8410  141.2974  159.0026 H   0  0  0  0  0  0  0  0  0  0  0  0
  152.6625  141.2796  157.3946 H   0  0  0  0  0  0  0  0  0  0  0  0
  149.4842  144.1371  158.2233 H   0  0  0  0  0  0  0  0  0  0  0  0
  149.5045  142.6421  159.1035 H   0  0  0  0  0  0  0  0  0  0  0  0
  150.3596  144.5099  160.4805 H   0  0  0  0  0  0  0  0  0  0  0  0
  151.5888  143.2912  160.2578 H   0  0  0  0  0  0  0  0  0  0  0  0
  151.3623  145.9412  158.7617 H   0  0  0  0  0  0  0  0  0  0  0  0
  152.6003  145.5048  159.9157 H   0  0  0  0  0  0  0  0  0  0  0  0
  153.3890  145.3008  157.5360 H   0  0  0  0  0  0  0  0  0  0  0  0
  153.4927  143.7853  158.3986 H   0  0  0  0  0  0  0  0  0  0  0  0
  152.5344  143.4397  156.1500 H   0  0  0  0  0  0  0  0  0  0  0  0
  151.2827  144.6044  156.4545 H   0  0  0  0  0  0  0  0  0  0  0  0
  1  2  1  0  0  0  0
  1 30  1  0  0  0  0
  1 31  1  0  0  0  0
  1 32  1  0  0  0  0
  2  3  1  0  0  0  0
  2  4  1  0  0  0  0
  2 33  1  0  0  0  0
  3 34  1  0  0  0  0
  3 35  1  0  0  0  0
  3 36  1  0  0  0  0
  4 24  1  0  0  0  0
  4  5  1  0  0  0  0
  4 37  1  0  0  0  0
  5  6  1  0  0  0  0
  5 23  1  0  0  0  0
  6 11  1  0  0  0  0
  6  7  2  0  0  0  0
  7  8  1  0  0  0  0
  8  9  2  0  0  0  0
  8 38  1  0  0  0  0
  9 10  1  0  0  0  0
 10 14  1  0  0  0  0
 10 11  2  0  0  0  0
 11 12  1  0  0  0  0
 12 13  2  0  0  0  0
 13 14  1  0  0  0  0
 13 39  1  0  0  0  0
 14 15  1  0  0  0  0
 15 22  1  0  0  0  0
 15 16  1  0  0  0  0
 15 40  1  0  0  0  0
 16 17  1  0  0  0  0
 16 41  1  0  0  0  0
 16 42  1  0  0  0  0
 17 18  1  0  0  0  0
 17 20  1  0  0  0  0
 17 22  1  0  0  0  0
 18 19  1  0  0  0  0
 18 43  1  0  0  0  0
 18 44  1  0  0  0  0
 19 45  1  0  0  0  0
 20 21  1  0  0  0  0
 20 46  1  0  0  0  0
 20 47  1  0  0  0  0
 21 48  1  0  0  0  0
 22 49  1  0  0  0  0
 22 50  1  0  0  0  0
 23 24  1  0  0  0  0
 23 51  1  0  0  0  0
 23 52  1  0  0  0  0
 24 29  1  0  0  0  0
 24 25  1  0  0  0  0
 25 26  1  0  0  0  0
 25 53  1  0  0  0  0
 25 54  1  0  0  0  0
 26 27  1  0  0  0  0
 26 55  1  0  0  0  0
 26 56  1  0  0  0  0
 27 28  1  0  0  0  0
 27 57  1  0  0  0  0
 27 58  1  0  0  0  0
 28 29  1  0  0  0  0
 28 59  1  0  0  0  0
 28 60  1  0  0  0  0
 29 61  1  0  0  0  0
 29 62  1  0  0  0  0
M  END
> <s_m_source_file>
AV-unprocessed.smi

> <i_m_source_file_index>
168

> <i_lp_mmshare_version>
43012

> <i_f3d_flags>
0

> <s_epik_input>
W0NIMl0xW0NIMl1bQ0gyXVtDSDJdW0NIMl1DMTJbQ0BIXShbQ0hdKFtDSDNdKVtDSDNdKU4oW0NIMl0yKWMobltjSF1uMyljKGMzNCluW2NIXW40W0NIXShbQ0gyXTUpW0NIMl1DNShbQ0gyXVtPSF0pW0NIMl1bT0hd

> <s_epik_cmdline>
J2VwaWtfcHl0aG9uJywgJy1waCcsICc3LjAnLCAnLXRuJywgJzgnLCAnLW1hJywgJzIwMCcsICctbWV0YWxfYmluZGluZycsICctaW1hZScsICc8aW5maWxlLm1hZT4nLCAnLW9tYWUnLCAnPG91dGZpbGUubWFlPic=

> <r_lp_tautomer_probability>
1

> <r_epik_Ionization_Penalty>
0.00324652

> <r_epik_Ionization_Penalty_Charging>
0

> <r_epik_Ionization_Penalty_Neutral>
0.00324652

> <r_epik_State_Penalty>
0.00223464

> <r_epik_Charging_Adjusted_Penalty>
0.00223464

> <i_epik_Tot_Q>
0

> <i_epik_Tot_abs_Q>
0

> <r_epik_Metal_State_Penalty>
-0

> <b_epik_Metal_Only>
0

> <s_lp_Force_Field>
OPLS_2005

> <r_lp_Energy>
66.0346

> <b_lp_Chiralities_Consistent>
1

> <s_lp_Variant>
AV-unprocessed.smi:168-1

> <Gold.Version>
5.8.1

> <Gold.Id.Protein>
6NUR|6NUR_protein|mol2

> <Gold.PLP.Fitness>
46.7598

> <Gold.PLP.PLP>
-43.9633

> <Gold.PLP.part.hbond>
-2.0000

> <Gold.PLP.part.metal>
0.0000

> <Gold.PLP.part.buried>
-4.8206

> <Gold.PLP.part.nonpolar>
-36.8989

> <Gold.PLP.part.repulsive>
0.0784

> <Gold.PLP.ligand.clash>
0.0000

> <Gold.PLP.ligand.torsion>
1.5737

> <Gold.PLP.Chemscore.Hbond>
1.6950

> <Gold.PLP.Chemscore.CHOScore>
0.0000

> <Gold.PLP.Chemscore.Metal>
0.0000

> <Gold.Chemscore.Hbonds>
donor molecule, donor type, donor heavy atom, donor atom, acceptor molecule, acceptor atom, score
      L1  H    19    45       P1 10747  0.63
      P1  H  7997  8009       L1     7  0.02
      P1  H 10752 10765       L1     9  0.99

> <Gold.PLP.Chemscore.Internal.Correction>
0.8590

> <Gold.Rescore>
     Score         DG    S(hbond)    S(metal)    S(lipo)     H(rot)  DE(clash)    DE(int)     intcor
     13.03     -15.93       1.30        0.00     120.49       3.12       1.33       1.57       ----

> <Gold.Chemscore.Fitness>
13.0340

> <Gold.Chemscore.DG>
-15.9347

> <Gold.Chemscore.ZeroCoef>
-5.4800

> <Gold.Chemscore.Hbond>
1.2992

> <Gold.Chemscore.Metal>
0.0000

> <Gold.Chemscore.Lipo>
120.4919

> <Gold.Chemscore.Internal_Hbond>
0.0000

> <Gold.Chemscore.DEClash>
1.3336

> <Gold.Chemscore.DEInternal>
1.5671

> <Gold.Chemscore.Rot>
3.1181

> <Gold.Chemscore.Internal.Correction>
   9.000000E+99

> <Gold.Chemscore.Hbonds>
donor molecule, donor type, donor heavy atom, donor atom, acceptor molecule, acceptor atom, score
      L1  H    19    45       P1 10747  0.60
      P1  H 10752 10765       L1     9  0.85

> <Gold.Chemscore.Hbond.Weighted>
-4.3395

> <Gold.Chemscore.Metal.Weighted>
-0.0000

> <Gold.Chemscore.Lipo.Weighted>
-14.0975

> <Gold.Chemscore.Internal_Hbond.Weighted>
0.0000

> <Gold.Chemscore.DEClash.Weighted>
1.3336

> <Gold.Chemscore.DEInternal.Weighted>
1.5671

> <Gold.Chemscore.Rot.Weighted>
7.9823

> <Gold.Chemscore.Internal.Correction.Weighted>
   9.000000E+99

> <Gold.Protein.RotatedTorsions>
[ 6907 6896 6895 6894 ] final  -52.17 input  -60.11 | X-H torsion
[ 7974 7965 7964 7962 ] final  -24.15 input  175.53 | X-H torsion
[ 8008 7997 7996 7995 ] final -162.49 input   59.86 | X-H torsion
[ 10167 10162 10161 10158 ] final   67.42 input  -65.29 | X-H torsion
[ 10718 10713 10712 10709 ] final    3.15 input   66.30 | X-H torsion
[ 10763 10752 10751 10750 ] final -172.16 input  -60.55 | X-H torsion
[ 11005 11000 10999 10996 ] final   69.67 input  -57.11 | X-H torsion

> <Gold.Protein.ActiveResidues>
 VAL166  LYS551  ARG553  GLY616  TRP617  ASP618  TYR619  PRO620  LYS621  CYS622 
 ASP623  PHE694  ASN695  SER759  ASP760  ASP761  ALA762  ILE779  LEU786  VAL792 
 PHE793  MET794  SER795  GLU796  ALA797  LYS798  CYS799  TRP800  GLU811  SER814 

> <Gold.Protein.RotatedAtoms>
  150.8543  134.7877  159.7032 H   0  0  0  0  0  0  0  0  0  0  0  0  # atno 6907 bound_to 6896
  152.4599  134.5205  159.9791 H   0  0  0  0  0  0  0  0  0  0  0  0  # atno 6908 bound_to 6896
  151.5320  133.3409  159.2955 H   0  0  0  0  0  0  0  0  0  0  0  0  # atno 6909 bound_to 6896
  146.1573  140.4712  142.8586 H   0  0  0  0  0  0  0  0  0  0  0  0  # atno 7974 bound_to 7965
  155.8076  140.0901  157.1922 H   0  0  0  0  0  0  0  0  0  0  0  0  # atno 8008 bound_to 7997
  154.3980  140.1460  156.3407 H   0  0  0  0  0  0  0  0  0  0  0  0  # atno 8009 bound_to 7997
  155.8399  140.3439  155.5627 H   0  0  0  0  0  0  0  0  0  0  0  0  # atno 8010 bound_to 7997
  140.0897  144.4999  150.7107 H   0  0  0  0  0  0  0  0  0  0  0  0  # atno 10167 bound_to 10162
  156.8736  130.5629  149.5656 H   0  0  0  0  0  0  0  0  0  0  0  0  # atno 10718 bound_to 10713
  154.6224  135.2877  155.0310 H   0  0  0  0  0  0  0  0  0  0  0  0  # atno 10763 bound_to 10752
  154.1501  135.6505  153.4965 H   0  0  0  0  0  0  0  0  0  0  0  0  # atno 10764 bound_to 10752
  153.0242  135.5353  154.7019 H   0  0  0  0  0  0  0  0  0  0  0  0  # atno 10765 bound_to 10752
  139.9640  134.7012  156.0584 H   0  0  0  0  0  0  0  0  0  0  0  0  # atno 11005 bound_to 11000
  144.7980  140.6159  143.6497 LP  0  0  0  0  0  0  0  0  0  0  0  0  # atno 17320 bound_to 7965
  145.4677  139.1506  143.3831 LP  0  0  0  0  0  0  0  0  0  0  0  0  # atno 17321 bound_to 7965
  140.7035  143.2451  151.4795 LP  0  0  0  0  0  0  0  0  0  0  0  0  # atno 17342 bound_to 10162
  139.5732  144.1880  152.1866 LP  0  0  0  0  0  0  0  0  0  0  0  0  # atno 17343 bound_to 10162
  156.0713  130.5745  150.9389 LP  0  0  0  0  0  0  0  0  0  0  0  0  # atno 17370 bound_to 10713
  157.6181  131.0932  150.8673 LP  0  0  0  0  0  0  0  0  0  0  0  0  # atno 17371 bound_to 10713
  141.1319  133.6584  156.3488 LP  0  0  0  0  0  0  0  0  0  0  0  0  # atno 17394 bound_to 11000
  140.5437  134.6096  157.5387 LP  0  0  0  0  0  0  0  0  0  0  0  0  # atno 17395 bound_to 11000

$$$$
