AV-unprocessed.smi:1866|AV-procd|sdf|7558|dock5
  -GOLD-   22720 9273D 1   1.00000     0.00000
 Structure written by MMmdl.
 29 30  0  0  0  0  0  0  0  0  2 V2000
  145.7903  136.7004  162.2240 C   0  0  0  0  0  0  0  0  0  0  0  0
  146.7918  136.7127  161.1205 C   0  0  0  0  0  0  0  0  0  0  0  0
  146.8297  137.6700  160.1907 N   0  0  0  0  0  0  0  0  0  0  0  0
  147.8468  137.4640  159.2695 N   0  0  0  0  0  0  0  0  0  0  0  0
  148.5556  136.3517  159.5088 C   0  0  0  0  0  0  0  0  0  0  0  0
  149.5875  135.9753  158.7355 N   0  5  0  0  0  0  0  0  0  0  0  0
  149.7966  136.5816  157.5446 C   0  0  0  0  0  0  0  0  0  0  0  0
  148.9470  136.8031  156.6789 O   0  0  0  0  0  0  0  0  0  0  0  0
  151.0718  136.9472  157.3445 N   0  0  0  0  0  0  0  0  0  0  0  0
  151.6141  137.6338  156.1708 C   0  0  2  0  0  0  0  0  0  0  0  0
  151.2298  139.1271  156.2596 C   0  0  0  0  0  0  0  0  0  0  0  0
  149.7575  139.3706  155.9137 C   0  0  0  0  0  0  0  0  0  0  0  0
  149.4728  138.8895  154.4860 C   0  0  0  0  0  0  0  0  0  0  0  0
  150.0666  137.5858  154.1993 N   0  0  0  0  0  0  0  0  0  0  0  0
  151.0546  136.9812  154.8846 C   0  0  0  0  0  0  0  0  0  0  0  0
  151.5216  135.9114  154.4987 O   0  0  0  0  0  0  0  0  0  0  0  0
  148.0168  135.4686  160.9374 S   0  0  0  0  0  0  0  0  0  0  0  0
  144.8263  136.3577  161.8481 H   0  0  0  0  0  0  0  0  0  0  0  0
  145.6714  137.7024  162.6371 H   0  0  0  0  0  0  0  0  0  0  0  0
  146.1135  136.0314  163.0216 H   0  0  0  0  0  0  0  0  0  0  0  0
  151.7252  136.7424  158.0857 H   0  0  0  0  0  0  0  0  0  0  0  0
  152.7023  137.5508  156.1692 H   0  0  0  0  0  0  0  0  0  0  0  0
  151.4489  139.5134  157.2562 H   0  0  0  0  0  0  0  0  0  0  0  0
  151.8557  139.7003  155.5740 H   0  0  0  0  0  0  0  0  0  0  0  0
  149.1183  138.8381  156.6193 H   0  0  0  0  0  0  0  0  0  0  0  0
  149.5119  140.4286  156.0097 H   0  0  0  0  0  0  0  0  0  0  0  0
  148.3981  138.8436  154.3088 H   0  0  0  0  0  0  0  0  0  0  0  0
  149.8802  139.6035  153.7696 H   0  0  0  0  0  0  0  0  0  0  0  0
  149.7232  137.1098  153.3779 H   0  0  0  0  0  0  0  0  0  0  0  0
  1  2  1  0  0  0  0
  1 18  1  0  0  0  0
  1 19  1  0  0  0  0
  1 20  1  0  0  0  0
  2 17  1  0  0  0  0
  2  3  2  0  0  0  0
  3  4  1  0  0  0  0
  4  5  2  0  0  0  0
  5  6  1  0  0  0  0
  5 17  1  0  0  0  0
  6  7  1  0  0  0  0
  7  8  2  0  0  0  0
  7  9  1  0  0  0  0
  9 10  1  0  0  0  0
  9 21  1  0  0  0  0
 10 15  1  0  0  0  0
 10 11  1  0  0  0  0
 10 22  1  0  0  0  0
 11 12  1  0  0  0  0
 11 23  1  0  0  0  0
 11 24  1  0  0  0  0
 12 13  1  0  0  0  0
 12 25  1  0  0  0  0
 12 26  1  0  0  0  0
 13 14  1  0  0  0  0
 13 27  1  0  0  0  0
 13 28  1  0  0  0  0
 14 15  1  0  0  0  0
 14 29  1  0  0  0  0
 15 16  2  0  0  0  0
M  CHG  1   6  -1
M  END
> <s_m_source_file>
AV-unprocessed.smi

> <i_m_source_file_index>
1866

> <i_lp_mmshare_version>
43012

> <i_f3d_flags>
0

> <s_epik_input>
W0NIM11jMW5uYyhzMSlbTkhdQyg9TylbTkhdW0NAQEhdMltDSDJdW0NIMl1bQ0gyXVtOSF1DMj1P

> <s_epik_cmdline>
J2VwaWtfcHl0aG9uJywgJy1waCcsICc3LjAnLCAnLXRuJywgJzgnLCAnLW1hJywgJzIwMCcsICctbWV0YWxfYmluZGluZycsICctaW1hZScsICc8aW5maWxlLm1hZT4nLCAnLW9tYWUnLCAnPG91dGZpbGUubWFlPic=

> <r_lp_tautomer_probability>
1

> <r_epik_Ionization_Penalty>
3.97471

> <r_epik_Ionization_Penalty_Charging>
3.84029

> <r_epik_Ionization_Penalty_Neutral>
0.134427

> <r_epik_State_Penalty>
3.83938

> <r_epik_Charging_Adjusted_Penalty>
7.67966

> <i_epik_Tot_Q>
-1

> <i_epik_Tot_abs_Q>
1

> <r_epik_Metal_State_Penalty>
0.577306

> <b_epik_Metal_Only>
1

> <s_lp_Force_Field>
OPLS_2005

> <r_lp_Energy>
8.91555

> <b_lp_Chiralities_Consistent>
1

> <s_lp_Variant>
AV-unprocessed.smi:1866-3

> <Gold.Version>
5.8.1

> <Gold.Id.Protein>
6NUR|6NUR_protein|mol2

> <Gold.PLP.Fitness>
32.7124

> <Gold.PLP.PLP>
-18.9926

> <Gold.PLP.part.hbond>
-4.8133

> <Gold.PLP.part.metal>
0.0000

> <Gold.PLP.part.buried>
-4.0066

> <Gold.PLP.part.nonpolar>
-12.2020

> <Gold.PLP.part.repulsive>
0.5260

> <Gold.PLP.ligand.clash>
0.0000

> <Gold.PLP.ligand.torsion>
0.6418

> <Gold.PLP.Chemscore.Hbond>
5.0000

> <Gold.PLP.Chemscore.CHOScore>
0.0000

> <Gold.PLP.Chemscore.Metal>
0.0000

> <Gold.Chemscore.Hbonds>
donor molecule, donor type, donor heavy atom, donor atom, acceptor molecule, acceptor atom, score
      L1  H    14    29       P1  7948  1.00
      P1  H  6896  6907       L1     6  2.00
      P1  H  6934  6947       L1     3  1.00
      P1  H 10752 10765       L1    16  0.89

> <Gold.PLP.Chemscore.Internal.Correction>
0.0033

> <Gold.Rescore>
     Score         DG    S(hbond)    S(metal)    S(lipo)     H(rot)  DE(clash)    DE(int)     intcor
     12.85     -17.77       3.02        0.00      40.64       1.00       0.16       4.75       ----

> <Gold.Chemscore.Fitness>
12.8523

> <Gold.Chemscore.DG>
-17.7671

> <Gold.Chemscore.ZeroCoef>
-5.4800

> <Gold.Chemscore.Hbond>
3.0217

> <Gold.Chemscore.Metal>
0.0000

> <Gold.Chemscore.Lipo>
40.6389

> <Gold.Chemscore.Internal_Hbond>
0.0000

> <Gold.Chemscore.DEClash>
0.1644

> <Gold.Chemscore.DEInternal>
4.7504

> <Gold.Chemscore.Rot>
1.0000

> <Gold.Chemscore.Internal.Correction>
   9.000000E+99

> <Gold.Chemscore.Hbonds>
donor molecule, donor type, donor heavy atom, donor atom, acceptor molecule, acceptor atom, score
      L1  H    14    29       P1  7948  0.60
      P1  H  6896  6907       L1     6  0.82
      P1  H  6934  6947       L1     3  0.35
      P1  H 10752 10765       L1    16  0.82

> <Gold.Chemscore.Hbond.Weighted>
-10.0923

> <Gold.Chemscore.Metal.Weighted>
-0.0000

> <Gold.Chemscore.Lipo.Weighted>
-4.7547

> <Gold.Chemscore.Internal_Hbond.Weighted>
0.0000

> <Gold.Chemscore.DEClash.Weighted>
0.1644

> <Gold.Chemscore.DEInternal.Weighted>
4.7504

> <Gold.Chemscore.Rot.Weighted>
2.5600

> <Gold.Chemscore.Internal.Correction.Weighted>
   9.000000E+99

> <Gold.Protein.RotatedTorsions>
[ 6907 6896 6895 6894 ] final  -54.17 input  -60.11 | X-H torsion
[ 7974 7965 7964 7962 ] final  -57.85 input  175.53 | X-H torsion
[ 8008 7997 7996 7995 ] final   35.24 input   59.86 | X-H torsion
[ 10167 10162 10161 10158 ] final -107.91 input  -65.29 | X-H torsion
[ 10718 10713 10712 10709 ] final  -24.31 input   66.30 | X-H torsion
[ 10763 10752 10751 10750 ] final  155.02 input  -60.55 | X-H torsion
[ 11005 11000 10999 10996 ] final   67.75 input  -57.11 | X-H torsion

> <Gold.Protein.ActiveResidues>
 VAL166  LYS551  ARG553  GLY616  TRP617  ASP618  TYR619  PRO620  LYS621  CYS622 
 ASP623  PHE694  ASN695  SER759  ASP760  ASP761  ALA762  ILE779  LEU786  VAL792 
 PHE793  MET794  SER795  GLU796  ALA797  LYS798  CYS799  TRP800  GLU811  SER814 

> <Gold.Protein.RotatedAtoms>
  150.8362  134.7635  159.6894 H   0  0  0  0  0  0  0  0  0  0  0  0  # atno 6907 bound_to 6896
  152.4458  134.5494  159.9872 H   0  0  0  0  0  0  0  0  0  0  0  0  # atno 6908 bound_to 6896
  151.5644  133.3361  159.3013 H   0  0  0  0  0  0  0  0  0  0  0  0  # atno 6909 bound_to 6896
  145.8463  140.8383  143.0009 H   0  0  0  0  0  0  0  0  0  0  0  0  # atno 7974 bound_to 7965
  155.1678  140.3289  155.4398 H   0  0  0  0  0  0  0  0  0  0  0  0  # atno 8008 bound_to 7997
  156.2520  140.1949  156.6733 H   0  0  0  0  0  0  0  0  0  0  0  0  # atno 8009 bound_to 7997
  154.6359  140.0576  156.9774 H   0  0  0  0  0  0  0  0  0  0  0  0  # atno 8010 bound_to 7997
  140.1719  143.4036  152.1348 H   0  0  0  0  0  0  0  0  0  0  0  0  # atno 10167 bound_to 10162
  156.4793  130.4541  149.6821 H   0  0  0  0  0  0  0  0  0  0  0  0  # atno 10718 bound_to 10713
  154.1617  135.2809  155.3107 H   0  0  0  0  0  0  0  0  0  0  0  0  # atno 10763 bound_to 10752
  154.6142  135.5489  153.7509 H   0  0  0  0  0  0  0  0  0  0  0  0  # atno 10764 bound_to 10752
  153.0190  135.6423  154.1758 H   0  0  0  0  0  0  0  0  0  0  0  0  # atno 10765 bound_to 10752
  139.9752  134.6834  156.0367 H   0  0  0  0  0  0  0  0  0  0  0  0  # atno 11005 bound_to 11000
  144.6731  140.0886  143.7466 LP  0  0  0  0  0  0  0  0  0  0  0  0  # atno 17320 bound_to 7965
  145.9408  139.2668  143.1269 LP  0  0  0  0  0  0  0  0  0  0  0  0  # atno 17321 bound_to 7965
  139.5334  144.7184  151.4977 LP  0  0  0  0  0  0  0  0  0  0  0  0  # atno 17342 bound_to 10162
  140.6576  143.8566  150.6852 LP  0  0  0  0  0  0  0  0  0  0  0  0  # atno 17343 bound_to 10162
  156.3538  130.7446  151.2409 LP  0  0  0  0  0  0  0  0  0  0  0  0  # atno 17370 bound_to 10713
  157.7484  131.0369  150.4433 LP  0  0  0  0  0  0  0  0  0  0  0  0  # atno 17371 bound_to 10713
  141.1430  133.6561  156.3784 LP  0  0  0  0  0  0  0  0  0  0  0  0  # atno 17394 bound_to 11000
  140.5209  134.6305  157.5318 LP  0  0  0  0  0  0  0  0  0  0  0  0  # atno 17395 bound_to 11000

$$$$
