AV-unprocessed.smi:264|AV-procd|sdf|2011|dock2
  -GOLD-   2262021213D 1   1.00000     0.00000
 Structure written by MMmdl.
 52 56  0  0  0  0  0  0  0  0  1 V2000
  143.3116  135.0997  154.6455 C   0  0  0  0  0  0  0  0  0  0  0  0
  142.6344  136.4684  154.8197 C   0  0  2  0  0  0  0  0  0  0  0  0
  141.2253  136.2695  154.7415 O   0  0  0  0  0  0  0  0  0  0  0  0
  140.6282  137.4453  154.2250 C   0  0  0  0  0  0  0  0  0  0  0  0
  141.6054  137.8531  153.1331 C   0  0  0  0  0  0  0  0  0  0  0  0
  142.9660  137.5574  153.7593 C   0  0  1  0  0  0  0  0  0  0  0  0
  143.3841  138.7199  154.4557 O   0  0  0  0  0  0  0  0  0  0  0  0
  144.0623  137.2007  152.7211 C   0  0  0  0  0  0  0  0  0  0  0  0
  145.3781  137.7193  153.0660 N   0  0  0  0  0  0  0  0  0  0  0  0
  146.1074  138.6489  152.3621 C   0  0  0  0  0  0  0  0  0  0  0  0
  147.2656  138.9519  152.8791 N   0  0  0  0  0  0  0  0  0  0  0  0
  147.3433  138.1845  154.0376 C   0  0  0  0  0  0  0  0  0  0  0  0
  148.3154  138.0168  155.0719 C   0  0  0  0  0  0  0  0  0  0  0  0
  149.5032  138.6722  155.1599 N   0  0  0  0  0  0  0  0  0  0  0  0
  150.5180  138.3298  154.1687 C   0  0  0  0  0  0  0  0  0  0  0  0
  151.9033  138.7672  154.6644 C   0  0  0  0  0  0  0  0  0  0  0  0
  151.8916  140.1530  155.0029 O   0  0  0  0  0  0  0  0  0  0  0  0
  150.9391  140.5033  156.0110 C   0  0  2  0  0  0  0  0  0  0  0  0
  151.0127  142.0119  156.2176 C   0  0  0  0  0  0  0  0  0  0  0  0
  150.7149  142.1718  157.7003 C   0  0  0  0  0  0  0  0  0  0  0  0
  151.4316  141.0937  158.2728 O   0  0  0  0  0  0  0  0  0  0  0  0
  151.3150  139.9657  157.4118 C   0  0  0  0  0  0  0  0  0  0  0  0
  149.5236  140.0744  155.5586 C   0  0  0  0  0  0  0  0  0  0  0  0
  148.0198  137.1338  156.0615 N   0  0  0  0  0  0  0  0  0  0  0  0
  146.8644  136.4645  156.0558 C   0  0  0  0  0  0  0  0  0  0  0  0
  145.8720  136.5240  155.1677 N   0  0  0  0  0  0  0  0  0  0  0  0
  146.1584  137.4015  154.1645 C   0  0  0  0  0  0  0  0  0  0  0  0
  144.3971  135.1819  154.7028 H   0  0  0  0  0  0  0  0  0  0  0  0
  143.0518  134.6423  153.6906 H   0  0  0  0  0  0  0  0  0  0  0  0
  142.9951  134.4133  155.4311 H   0  0  0  0  0  0  0  0  0  0  0  0
  142.8572  136.8352  155.8235 H   0  0  0  0  0  0  0  0  0  0  0  0
  139.6245  137.2546  153.8450 H   0  0  0  0  0  0  0  0  0  0  0  0
  140.5675  138.2051  155.0056 H   0  0  0  0  0  0  0  0  0  0  0  0
  141.4433  137.2109  152.2668 H   0  0  0  0  0  0  0  0  0  0  0  0
  141.4827  138.8872  152.8079 H   0  0  0  0  0  0  0  0  0  0  0  0
  143.2458  139.4695  153.8972 H   0  0  0  0  0  0  0  0  0  0  0  0
  144.1436  136.1189  152.6082 H   0  0  0  0  0  0  0  0  0  0  0  0
  143.8001  137.5940  151.7386 H   0  0  0  0  0  0  0  0  0  0  0  0
  145.7538  139.0940  151.4434 H   0  0  0  0  0  0  0  0  0  0  0  0
  150.5364  137.2608  153.9554 H   0  0  0  0  0  0  0  0  0  0  0  0
  150.2789  138.8361  153.2326 H   0  0  0  0  0  0  0  0  0  0  0  0
  152.2117  138.1627  155.5175 H   0  0  0  0  0  0  0  0  0  0  0  0
  152.6461  138.6049  153.8835 H   0  0  0  0  0  0  0  0  0  0  0  0
  152.0240  142.3698  156.0190 H   0  0  0  0  0  0  0  0  0  0  0  0
  150.3314  142.5770  155.5809 H   0  0  0  0  0  0  0  0  0  0  0  0
  151.0453  143.1315  158.0977 H   0  0  0  0  0  0  0  0  0  0  0  0
  149.6489  142.0586  157.9033 H   0  0  0  0  0  0  0  0  0  0  0  0
  150.5542  139.2869  157.7993 H   0  0  0  0  0  0  0  0  0  0  0  0
  152.2655  139.4325  157.4159 H   0  0  0  0  0  0  0  0  0  0  0  0
  149.2066  140.6789  154.7076 H   0  0  0  0  0  0  0  0  0  0  0  0
  148.8133  140.2507  156.3672 H   0  0  0  0  0  0  0  0  0  0  0  0
  146.7134  135.7850  156.8813 H   0  0  0  0  0  0  0  0  0  0  0  0
  1  2  1  0  0  0  0
  1 28  1  0  0  0  0
  1 29  1  0  0  0  0
  1 30  1  0  0  0  0
  2  6  1  0  0  0  0
  2  3  1  0  0  0  0
  2 31  1  0  0  0  0
  3  4  1  0  0  0  0
  4  5  1  0  0  0  0
  4 32  1  0  0  0  0
  4 33  1  0  0  0  0
  5  6  1  0  0  0  0
  5 34  1  0  0  0  0
  5 35  1  0  0  0  0
  6  7  1  0  0  0  0
  6  8  1  0  0  0  0
  7 36  1  0  0  0  0
  8  9  1  0  0  0  0
  8 37  1  0  0  0  0
  8 38  1  0  0  0  0
  9 27  1  0  0  0  0
  9 10  1  0  0  0  0
 10 11  2  0  0  0  0
 10 39  1  0  0  0  0
 11 12  1  0  0  0  0
 12 27  2  0  0  0  0
 12 13  1  0  0  0  0
 13 14  1  0  0  0  0
 13 24  2  0  0  0  0
 14 23  1  0  0  0  0
 14 15  1  0  0  0  0
 15 16  1  0  0  0  0
 15 40  1  0  0  0  0
 15 41  1  0  0  0  0
 16 17  1  0  0  0  0
 16 42  1  0  0  0  0
 16 43  1  0  0  0  0
 17 18  1  0  0  0  0
 18 22  1  0  0  0  0
 18 19  1  0  0  0  0
 18 23  1  0  0  0  0
 19 20  1  0  0  0  0
 19 44  1  0  0  0  0
 19 45  1  0  0  0  0
 20 21  1  0  0  0  0
 20 46  1  0  0  0  0
 20 47  1  0  0  0  0
 21 22  1  0  0  0  0
 22 48  1  0  0  0  0
 22 49  1  0  0  0  0
 23 50  1  0  0  0  0
 23 51  1  0  0  0  0
 24 25  1  0  0  0  0
 25 26  2  0  0  0  0
 25 52  1  0  0  0  0
 26 27  1  0  0  0  0
M  END
> <s_m_source_file>
AV-unprocessed.smi

> <i_m_source_file_index>
264

> <i_lp_mmshare_version>
43012

> <i_f3d_flags>
0

> <s_epik_input>
W0NIMl0xW0NIMl1PW0NAQEhdKFtDSDNdKVtDQEBdMShbT0hdKVtDSDJdbihbY0hdbjIpYyhjMjMpbltjSF1uYzNOKFtDSDJdNClbQ0gyXVtDSDJdT1tDQF00NVtDSDJdW0NIMl1PW0NIMl01

> <s_epik_cmdline>
J2VwaWtfcHl0aG9uJywgJy1waCcsICc3LjAnLCAnLXRuJywgJzgnLCAnLW1hJywgJzIwMCcsICctbWV0YWxfYmluZGluZycsICctaW1hZScsICc8aW5maWxlLm1hZT4nLCAnLW9tYWUnLCAnPG91dGZpbGUubWFlPic=

> <r_lp_tautomer_probability>
1

> <r_epik_Ionization_Penalty>
0.00539389

> <r_epik_Ionization_Penalty_Charging>
0

> <r_epik_Ionization_Penalty_Neutral>
0.00539389

> <r_epik_State_Penalty>
0.00375441

> <r_epik_Charging_Adjusted_Penalty>
0.00375441

> <i_epik_Tot_Q>
0

> <i_epik_Tot_abs_Q>
0

> <r_epik_Metal_State_Penalty>
-0

> <b_epik_Metal_Only>
0

> <s_lp_Force_Field>
OPLS_2005

> <r_lp_Energy>
55.2391

> <b_lp_Chiralities_Consistent>
1

> <s_lp_Variant>
AV-unprocessed.smi:264-5

> <Gold.Version>
5.8.1

> <Gold.Id.Protein>
6NUR|6NUR_protein|mol2

> <Gold.PLP.Fitness>
39.8324

> <Gold.PLP.PLP>
-33.7539

> <Gold.PLP.part.hbond>
-3.0000

> <Gold.PLP.part.metal>
0.0000

> <Gold.PLP.part.buried>
-5.9743

> <Gold.PLP.part.nonpolar>
-26.1422

> <Gold.PLP.part.repulsive>
0.6050

> <Gold.PLP.ligand.clash>
0.0000

> <Gold.PLP.ligand.torsion>
2.1170

> <Gold.PLP.Chemscore.Hbond>
2.1309

> <Gold.PLP.Chemscore.CHOScore>
1.2068

> <Gold.PLP.Chemscore.Metal>
0.0000

> <Gold.Chemscore.Hbonds>
donor molecule, donor type, donor heavy atom, donor atom, acceptor molecule, acceptor atom, score
      L1  H     7    36       P1 10175  1.00
      P1  H  7989  7998       L1    17  0.85
      P1  H 11000 11005       L1     3  0.17
      L1  C    10    39       P1 10171  1.00
      L1  C    10    39       P1 10175  0.25

> <Gold.PLP.Chemscore.Internal.Correction>
0.2994

> <Gold.Rescore>
     Score         DG    S(hbond)    S(metal)    S(lipo)     H(rot)  DE(clash)    DE(int)     intcor
     13.81     -16.91       2.26        0.00      72.47       1.79       0.04       3.07       ----

> <Gold.Chemscore.Fitness>
13.8067

> <Gold.Chemscore.DG>
-16.9129

> <Gold.Chemscore.ZeroCoef>
-5.4800

> <Gold.Chemscore.Hbond>
2.2591

> <Gold.Chemscore.Metal>
0.0000

> <Gold.Chemscore.Lipo>
72.4693

> <Gold.Chemscore.Internal_Hbond>
0.0000

> <Gold.Chemscore.DEClash>
0.0400

> <Gold.Chemscore.DEInternal>
3.0662

> <Gold.Chemscore.Rot>
1.7935

> <Gold.Chemscore.Internal.Correction>
   9.000000E+99

> <Gold.Chemscore.Hbonds>
donor molecule, donor type, donor heavy atom, donor atom, acceptor molecule, acceptor atom, score
      L1  H     7    36       P1 10175  0.97
      P1  H  7989  7998       L1    17  0.27
      P1  H 11000 11005       L1     3  0.16

> <Gold.Chemscore.Hbond.Weighted>
-7.5453

> <Gold.Chemscore.Metal.Weighted>
-0.0000

> <Gold.Chemscore.Lipo.Weighted>
-8.4789

> <Gold.Chemscore.Internal_Hbond.Weighted>
0.0000

> <Gold.Chemscore.DEClash.Weighted>
0.0400

> <Gold.Chemscore.DEInternal.Weighted>
3.0662

> <Gold.Chemscore.Rot.Weighted>
4.5913

> <Gold.Chemscore.Internal.Correction.Weighted>
   9.000000E+99

> <Gold.Protein.RotatedTorsions>
[ 6907 6896 6895 6894 ] final -133.57 input  -60.11 | X-H torsion
[ 7974 7965 7964 7962 ] final   63.15 input  175.53 | X-H torsion
[ 8008 7997 7996 7995 ] final  104.75 input   59.86 | X-H torsion
[ 10167 10162 10161 10158 ] final  -62.46 input  -65.29 | X-H torsion
[ 10718 10713 10712 10709 ] final  133.79 input   66.30 | X-H torsion
[ 10763 10752 10751 10750 ] final   72.77 input  -60.55 | X-H torsion
[ 11005 11000 10999 10996 ] final   45.23 input  -57.11 | X-H torsion

> <Gold.Protein.ActiveResidues>
 VAL166  LYS551  ARG553  GLY616  TRP617  ASP618  TYR619  PRO620  LYS621  CYS622 
 ASP623  PHE694  ASN695  SER759  ASP760  ASP761  ALA762  ILE779  LEU786  VAL792 
 PHE793  MET794  SER795  GLU796  ALA797  LYS798  CYS799  TRP800  GLU811  SER814 

> <Gold.Protein.RotatedAtoms>
  150.9756  133.6298  159.2730 H   0  0  0  0  0  0  0  0  0  0  0  0  # atno 6907 bound_to 6896
  151.3571  135.0895  159.9432 H   0  0  0  0  0  0  0  0  0  0  0  0  # atno 6908 bound_to 6896
  152.5198  133.9337  159.7647 H   0  0  0  0  0  0  0  0  0  0  0  0  # atno 6909 bound_to 6896
  145.8651  139.3341  143.0795 H   0  0  0  0  0  0  0  0  0  0  0  0  # atno 7974 bound_to 7965
  156.1600  140.3142  155.8791 H   0  0  0  0  0  0  0  0  0  0  0  0  # atno 8008 bound_to 7997
  155.3801  140.0487  157.3061 H   0  0  0  0  0  0  0  0  0  0  0  0  # atno 8009 bound_to 7997
  154.5137  140.2174  155.9117 H   0  0  0  0  0  0  0  0  0  0  0  0  # atno 8010 bound_to 7997
  140.5937  143.2346  151.6083 H   0  0  0  0  0  0  0  0  0  0  0  0  # atno 10167 bound_to 10162
  157.4738  131.1082  150.9769 H   0  0  0  0  0  0  0  0  0  0  0  0  # atno 10718 bound_to 10713
  153.0480  135.5087  154.7794 H   0  0  0  0  0  0  0  0  0  0  0  0  # atno 10763 bound_to 10752
  154.6679  135.2948  154.9783 H   0  0  0  0  0  0  0  0  0  0  0  0  # atno 10764 bound_to 10752
  154.0611  135.6690  153.4864 H   0  0  0  0  0  0  0  0  0  0  0  0  # atno 10765 bound_to 10752
  140.1479  134.4499  155.8402 H   0  0  0  0  0  0  0  0  0  0  0  0  # atno 11005 bound_to 11000
  145.9202  140.9120  143.0409 LP  0  0  0  0  0  0  0  0  0  0  0  0  # atno 17320 bound_to 7965
  144.6726  140.1279  143.7445 LP  0  0  0  0  0  0  0  0  0  0  0  0  # atno 17321 bound_to 7965
  139.5244  144.3104  152.0997 LP  0  0  0  0  0  0  0  0  0  0  0  0  # atno 17342 bound_to 10162
  140.2273  144.4405  150.6315 LP  0  0  0  0  0  0  0  0  0  0  0  0  # atno 17343 bound_to 10162
  157.0525  130.5793  149.5372 LP  0  0  0  0  0  0  0  0  0  0  0  0  # atno 17370 bound_to 10713
  156.0086  130.5176  150.7915 LP  0  0  0  0  0  0  0  0  0  0  0  0  # atno 17371 bound_to 10713
  141.2195  133.6860  156.7367 LP  0  0  0  0  0  0  0  0  0  0  0  0  # atno 17394 bound_to 11000
  140.2641  134.8444  157.3786 LP  0  0  0  0  0  0  0  0  0  0  0  0  # atno 17395 bound_to 11000

$$$$
