AV-unprocessed.smi:1641|AV-procd|sdf|6558|dock6
  -GOLD-   22720 7243D 1   1.00000     0.00000
 Structure written by MMmdl.
 41 42  0  0  0  0  0  0  0  0  1 V2000
  143.2556  144.1272  161.9994 C   0  0  0  0  0  0  0  0  0  0  0  0
  144.5028  143.7601  161.2705 C   0  0  0  0  0  0  0  0  0  0  0  0
  145.4593  142.9983  161.8148 N   0  0  0  0  0  0  0  0  0  0  0  0
  146.5229  142.7895  160.9475 N   0  0  0  0  0  0  0  0  0  0  0  0
  146.3361  143.4036  159.7711 C   0  0  0  0  0  0  0  0  0  0  0  0
  147.2666  143.3577  158.6995 N   0  0  0  0  0  0  0  0  0  0  0  0
  147.8232  142.2771  158.1250 C   0  0  0  0  0  0  0  0  0  0  0  0
  147.5910  141.1084  158.4349 O   0  0  0  0  0  0  0  0  0  0  0  0
  148.6766  142.6318  157.1529 N   0  0  0  0  0  0  0  0  0  0  0  0
  149.4674  141.7093  156.3436 C   0  0  0  0  0  0  0  0  0  0  0  0
  150.9788  141.8837  156.5939 C   0  0  0  0  0  0  0  0  0  0  0  0
  151.3358  142.5331  157.8548 N   0  0  0  0  0  0  0  0  0  0  0  0
  152.3493  141.7960  158.6028 C   0  0  0  0  0  0  0  0  0  0  0  0
  152.6694  142.4731  159.9473 C   0  0  1  0  0  0  0  0  0  0  0  0
  153.7931  141.7549  160.7013 C   0  0  0  0  0  0  0  0  0  0  0  0
  153.0782  143.8206  159.7153 O   0  0  0  0  0  0  0  0  0  0  0  0
  152.1630  144.6126  158.9556 C   0  0  2  0  0  0  0  0  0  0  0  0
  150.9292  145.0103  159.7842 C   0  0  0  0  0  0  0  0  0  0  0  0
  151.8064  143.8959  157.6381 C   0  0  0  0  0  0  0  0  0  0  0  0
  144.8345  144.3013  159.6295 S   0  0  0  0  0  0  0  0  0  0  0  0
  142.9032  143.2850  162.5956 H   0  0  0  0  0  0  0  0  0  0  0  0
  142.4724  144.4040  161.2931 H   0  0  0  0  0  0  0  0  0  0  0  0
  143.4459  144.9717  162.6615 H   0  0  0  0  0  0  0  0  0  0  0  0
  147.5412  144.2543  158.3265 H   0  0  0  0  0  0  0  0  0  0  0  0
  148.8009  143.6161  156.9670 H   0  0  0  0  0  0  0  0  0  0  0  0
  149.1444  140.6781  156.4886 H   0  0  0  0  0  0  0  0  0  0  0  0
  149.2567  141.9381  155.2987 H   0  0  0  0  0  0  0  0  0  0  0  0
  151.4661  140.9093  156.5390 H   0  0  0  0  0  0  0  0  0  0  0  0
  151.3863  142.4640  155.7648 H   0  0  0  0  0  0  0  0  0  0  0  0
  152.0130  140.7790  158.7995 H   0  0  0  0  0  0  0  0  0  0  0  0
  153.2599  141.7128  158.0075 H   0  0  0  0  0  0  0  0  0  0  0  0
  151.7787  142.4678  160.5765 H   0  0  0  0  0  0  0  0  0  0  0  0
  153.5202  140.7221  160.9191 H   0  0  0  0  0  0  0  0  0  0  0  0
  154.0042  142.2496  161.6497 H   0  0  0  0  0  0  0  0  0  0  0  0
  154.7146  141.7429  160.1183 H   0  0  0  0  0  0  0  0  0  0  0  0
  152.6894  145.5339  158.7049 H   0  0  0  0  0  0  0  0  0  0  0  0
  150.2980  145.7045  159.2295 H   0  0  0  0  0  0  0  0  0  0  0  0
  151.2254  145.5012  160.7113 H   0  0  0  0  0  0  0  0  0  0  0  0
  150.3135  144.1490  160.0437 H   0  0  0  0  0  0  0  0  0  0  0  0
  152.6879  143.8765  156.9952 H   0  0  0  0  0  0  0  0  0  0  0  0
  151.0502  144.4725  157.1041 H   0  0  0  0  0  0  0  0  0  0  0  0
  1  2  1  0  0  0  0
  1 21  1  0  0  0  0
  1 22  1  0  0  0  0
  1 23  1  0  0  0  0
  2 20  1  0  0  0  0
  2  3  2  0  0  0  0
  3  4  1  0  0  0  0
  4  5  2  0  0  0  0
  5  6  1  0  0  0  0
  5 20  1  0  0  0  0
  6  7  1  0  0  0  0
  6 24  1  0  0  0  0
  7  8  2  0  0  0  0
  7  9  1  0  0  0  0
  9 10  1  0  0  0  0
  9 25  1  0  0  0  0
 10 11  1  0  0  0  0
 10 26  1  0  0  0  0
 10 27  1  0  0  0  0
 11 12  1  0  0  0  0
 11 28  1  0  0  0  0
 11 29  1  0  0  0  0
 12 19  1  0  0  0  0
 12 13  1  0  0  0  0
 13 14  1  0  0  0  0
 13 30  1  0  0  0  0
 13 31  1  0  0  0  0
 14 15  1  0  0  0  0
 14 16  1  0  0  0  0
 14 32  1  0  0  0  0
 15 33  1  0  0  0  0
 15 34  1  0  0  0  0
 15 35  1  0  0  0  0
 16 17  1  0  0  0  0
 17 18  1  0  0  0  0
 17 19  1  0  0  0  0
 17 36  1  0  0  0  0
 18 37  1  0  0  0  0
 18 38  1  0  0  0  0
 18 39  1  0  0  0  0
 19 40  1  0  0  0  0
 19 41  1  0  0  0  0
M  END
> <s_m_source_file>
AV-unprocessed.smi

> <i_m_source_file_index>
1641

> <i_lp_mmshare_version>
43012

> <i_f3d_flags>
0

> <s_epik_input>
W0NIM11jMW5uYyhzMSlbTkhdQyg9TylbTkhdW0NIMl1bQ0gyXU4yW0NIMl1bQ0BASF0oW0NIM10pT1tDQEBIXShbQ0gzXSlbQ0gyXTI=

> <s_epik_cmdline>
J2VwaWtfcHl0aG9uJywgJy1waCcsICc3LjAnLCAnLXRuJywgJzgnLCAnLW1hJywgJzIwMCcsICctbWV0YWxfYmluZGluZycsICctaW1hZScsICc8aW5maWxlLm1hZT4nLCAnLW9tYWUnLCAnPG91dGZpbGUubWFlPic=

> <r_lp_tautomer_probability>
1

> <r_epik_Ionization_Penalty>
0.221104

> <r_epik_Ionization_Penalty_Charging>
0

> <r_epik_Ionization_Penalty_Neutral>
0.221104

> <r_epik_State_Penalty>
0.209349

> <r_epik_Charging_Adjusted_Penalty>
0.209349

> <i_epik_Tot_Q>
0

> <i_epik_Tot_abs_Q>
0

> <r_epik_Metal_State_Penalty>
0.560954

> <b_epik_Metal_Only>
0

> <s_lp_Force_Field>
OPLS_2005

> <r_lp_Energy>
25.2137

> <b_lp_Chiralities_Consistent>
1

> <s_lp_Variant>
AV-unprocessed.smi:1641-3

> <Gold.Version>
5.8.1

> <Gold.Id.Protein>
6NUR|6NUR_protein|mol2

> <Gold.PLP.Fitness>
47.8615

> <Gold.PLP.PLP>
-40.1151

> <Gold.PLP.part.hbond>
-5.0000

> <Gold.PLP.part.metal>
0.0000

> <Gold.PLP.part.buried>
-4.0198

> <Gold.PLP.part.nonpolar>
-30.2095

> <Gold.PLP.part.repulsive>
0.2286

> <Gold.PLP.ligand.clash>
0.0000

> <Gold.PLP.ligand.torsion>
1.4383

> <Gold.PLP.Chemscore.Hbond>
3.5369

> <Gold.PLP.Chemscore.CHOScore>
0.0000

> <Gold.PLP.Chemscore.Metal>
0.0000

> <Gold.Chemscore.Hbonds>
donor molecule, donor type, donor heavy atom, donor atom, acceptor molecule, acceptor atom, score
      L1  H     6    24       P1  8029  1.00
      L1  H     9    25       P1  8028  0.83
      P1  H  6933  6944       L1     4  0.74
      P1  H  6934  6946       L1     4  0.91

> <Gold.PLP.Chemscore.Internal.Correction>
0.0124

> <Gold.Rescore>
     Score         DG    S(hbond)    S(metal)    S(lipo)     H(rot)  DE(clash)    DE(int)     intcor
     18.88     -20.32       2.25        0.00      97.69       1.60       0.07       1.37       ----

> <Gold.Chemscore.Fitness>
18.8794

> <Gold.Chemscore.DG>
-20.3181

> <Gold.Chemscore.ZeroCoef>
-5.4800

> <Gold.Chemscore.Hbond>
2.2451

> <Gold.Chemscore.Metal>
0.0000

> <Gold.Chemscore.Lipo>
97.6853

> <Gold.Chemscore.Internal_Hbond>
0.0000

> <Gold.Chemscore.DEClash>
0.0650

> <Gold.Chemscore.DEInternal>
1.3737

> <Gold.Chemscore.Rot>
1.5975

> <Gold.Chemscore.Internal.Correction>
   9.000000E+99

> <Gold.Chemscore.Hbonds>
donor molecule, donor type, donor heavy atom, donor atom, acceptor molecule, acceptor atom, score
      L1  H     6    24       P1  8029  0.62
      L1  H     9    25       P1  8028  0.29
      P1  H  6933  6944       L1     4  0.67
      P1  H  6934  6946       L1     4  0.58

> <Gold.Chemscore.Hbond.Weighted>
-7.4985

> <Gold.Chemscore.Metal.Weighted>
-0.0000

> <Gold.Chemscore.Lipo.Weighted>
-11.4292

> <Gold.Chemscore.Internal_Hbond.Weighted>
0.0000

> <Gold.Chemscore.DEClash.Weighted>
0.0650

> <Gold.Chemscore.DEInternal.Weighted>
1.3737

> <Gold.Chemscore.Rot.Weighted>
4.0896

> <Gold.Chemscore.Internal.Correction.Weighted>
   9.000000E+99

> <Gold.Protein.RotatedTorsions>
[ 6907 6896 6895 6894 ] final  106.39 input  -60.11 | X-H torsion
[ 7974 7965 7964 7962 ] final  138.99 input  175.53 | X-H torsion
[ 8008 7997 7996 7995 ] final   34.94 input   59.86 | X-H torsion
[ 10167 10162 10161 10158 ] final -117.67 input  -65.29 | X-H torsion
[ 10718 10713 10712 10709 ] final  -91.04 input   66.30 | X-H torsion
[ 10763 10752 10751 10750 ] final  155.96 input  -60.55 | X-H torsion
[ 11005 11000 10999 10996 ] final   40.23 input  -57.11 | X-H torsion

> <Gold.Protein.ActiveResidues>
 VAL166  LYS551  ARG553  GLY616  TRP617  ASP618  TYR619  PRO620  LYS621  CYS622 
 ASP623  PHE694  ASN695  SER759  ASP760  ASP761  ALA762  ILE779  LEU786  VAL792 
 PHE793  MET794  SER795  GLU796  ALA797  LYS798  CYS799  TRP800  GLU811  SER814 

> <Gold.Protein.RotatedAtoms>
  152.5195  133.9388  159.7616 H   0  0  0  0  0  0  0  0  0  0  0  0  # atno 6907 bound_to 6896
  150.9723  133.6323  159.2743 H   0  0  0  0  0  0  0  0  0  0  0  0  # atno 6908 bound_to 6896
  151.3530  135.0894  159.9462 H   0  0  0  0  0  0  0  0  0  0  0  0  # atno 6909 bound_to 6896
  144.9320  139.5035  143.5613 H   0  0  0  0  0  0  0  0  0  0  0  0  # atno 7974 bound_to 7965
  155.1630  140.3285  155.4407 H   0  0  0  0  0  0  0  0  0  0  0  0  # atno 8008 bound_to 7997
  156.2536  140.1957  156.6687 H   0  0  0  0  0  0  0  0  0  0  0  0  # atno 8009 bound_to 7997
  154.6392  140.0572  156.9811 H   0  0  0  0  0  0  0  0  0  0  0  0  # atno 8010 bound_to 7997
  140.0659  143.4924  152.2007 H   0  0  0  0  0  0  0  0  0  0  0  0  # atno 10167 bound_to 10162
  155.9991  130.4933  150.5415 H   0  0  0  0  0  0  0  0  0  0  0  0  # atno 10718 bound_to 10713
  154.1767  135.2801  155.3065 H   0  0  0  0  0  0  0  0  0  0  0  0  # atno 10763 bound_to 10752
  154.6034  135.5522  153.7401 H   0  0  0  0  0  0  0  0  0  0  0  0  # atno 10764 bound_to 10752
  153.0149  135.6397  154.1906 H   0  0  0  0  0  0  0  0  0  0  0  0  # atno 10765 bound_to 10752
  140.1951  134.3939  155.8125 H   0  0  0  0  0  0  0  0  0  0  0  0  # atno 11005 bound_to 11000
  146.3251  139.8278  142.8914 LP  0  0  0  0  0  0  0  0  0  0  0  0  # atno 17320 bound_to 7965
  145.3126  141.0224  143.3546 LP  0  0  0  0  0  0  0  0  0  0  0  0  # atno 17321 bound_to 7965
  139.5865  144.7533  151.3506 LP  0  0  0  0  0  0  0  0  0  0  0  0  # atno 17342 bound_to 10162
  140.7149  143.7292  150.7637 LP  0  0  0  0  0  0  0  0  0  0  0  0  # atno 17343 bound_to 10162
  157.3351  131.0706  151.1831 LP  0  0  0  0  0  0  0  0  0  0  0  0  # atno 17370 bound_to 10713
  157.2699  130.6699  149.6014 LP  0  0  0  0  0  0  0  0  0  0  0  0  # atno 17371 bound_to 10713
  141.2227  133.7066  156.8162 LP  0  0  0  0  0  0  0  0  0  0  0  0  # atno 17394 bound_to 11000
  140.2116  134.8823  157.3281 LP  0  0  0  0  0  0  0  0  0  0  0  0  # atno 17395 bound_to 11000

$$$$
