AV-unprocessed.smi:3335|AV-procd|sdf|12847|dock10
  -GOLD-   2272019233D 1   1.00000     0.00000
 Structure written by MMmdl.
 46 47  0  0  0  0  0  0  0  0  1 V2000
  153.8643  142.6260  162.9525 C   0  0  0  0  0  0  0  0  0  0  0  0
  153.2508  143.0850  161.6612 C   0  0  0  0  0  0  0  0  0  0  0  0
  152.4561  144.2436  161.4350 C   0  0  0  0  0  0  0  0  0  0  0  0
  152.0632  144.3590  160.1776 N   0  0  0  0  0  0  0  0  0  0  0  0
  152.5957  143.2853  159.5508 N   0  0  0  0  0  0  0  0  0  0  0  0
  152.3473  143.0490  158.1299 C   0  0  2  0  0  0  0  0  0  0  0  0
  151.6896  144.2614  157.4404 C   0  0  0  0  0  0  0  0  0  0  0  0
  151.6090  141.7112  157.8503 C   0  0  1  0  0  0  0  0  0  0  0  0
  150.3055  141.5880  158.6657 C   0  0  0  0  0  0  0  0  0  0  0  0
  151.3657  141.5743  156.4113 N   0  0  0  0  0  0  0  0  0  0  0  0
  150.7522  140.3017  155.9885 C   0  0  2  0  0  0  0  0  0  0  0  0
  151.8598  139.3120  155.5960 C   0  0  0  0  0  0  0  0  0  0  0  0
  149.7842  140.4849  154.7995 C   0  0  0  0  0  0  0  0  0  0  0  0
  150.0840  139.9974  153.7080 O   0  0  0  0  0  0  0  0  0  0  0  0
  148.6381  141.1780  154.9760 N   0  0  0  0  0  0  0  0  0  0  0  0
  148.2367  141.7432  156.2635 C   0  0  0  0  0  0  0  0  0  0  0  0
  146.7952  142.2175  156.0800 C   0  0  0  0  0  0  0  0  0  0  0  0
  146.6833  142.4902  154.5874 C   0  0  0  0  0  0  0  0  0  0  0  0
  147.6388  141.4805  153.9517 C   0  0  0  0  0  0  0  0  0  0  0  0
  153.3129  142.4986  160.4291 C   0  0  0  0  0  0  0  0  0  0  0  0
  153.2853  142.9574  163.8147 H   0  0  0  0  0  0  0  0  0  0  0  0
  154.8757  143.0133  163.0761 H   0  0  0  0  0  0  0  0  0  0  0  0
  153.9257  141.5389  163.0069 H   0  0  0  0  0  0  0  0  0  0  0  0
  152.1521  144.9988  162.1447 H   0  0  0  0  0  0  0  0  0  0  0  0
  153.3328  142.9561  157.6709 H   0  0  0  0  0  0  0  0  0  0  0  0
  151.6042  144.0994  156.3657 H   0  0  0  0  0  0  0  0  0  0  0  0
  152.2839  145.1634  157.5893 H   0  0  0  0  0  0  0  0  0  0  0  0
  150.6880  144.4594  157.8234 H   0  0  0  0  0  0  0  0  0  0  0  0
  152.2814  140.9100  158.1607 H   0  0  0  0  0  0  0  0  0  0  0  0
  150.4767  141.8372  159.7130 H   0  0  0  0  0  0  0  0  0  0  0  0
  149.9137  140.5715  158.6479 H   0  0  0  0  0  0  0  0  0  0  0  0
  149.5285  142.2543  158.2894 H   0  0  0  0  0  0  0  0  0  0  0  0
  152.2333  141.7392  155.9215 H   0  0  0  0  0  0  0  0  0  0  0  0
  150.2364  139.8741  156.8473 H   0  0  0  0  0  0  0  0  0  0  0  0
  151.4445  138.3463  155.3049 H   0  0  0  0  0  0  0  0  0  0  0  0
  152.5388  139.1349  156.4306 H   0  0  0  0  0  0  0  0  0  0  0  0
  152.4542  139.6841  154.7601 H   0  0  0  0  0  0  0  0  0  0  0  0
  148.3130  141.0153  157.0729 H   0  0  0  0  0  0  0  0  0  0  0  0
  148.8899  142.5843  156.5009 H   0  0  0  0  0  0  0  0  0  0  0  0
  146.1085  141.4163  156.3564 H   0  0  0  0  0  0  0  0  0  0  0  0
  146.5547  143.0889  156.6897 H   0  0  0  0  0  0  0  0  0  0  0  0
  145.6623  142.3996  154.2154 H   0  0  0  0  0  0  0  0  0  0  0  0
  147.0277  143.5033  154.3752 H   0  0  0  0  0  0  0  0  0  0  0  0
  148.0864  141.8857  153.0432 H   0  0  0  0  0  0  0  0  0  0  0  0
  147.1053  140.5644  153.6939 H   0  0  0  0  0  0  0  0  0  0  0  0
  153.8011  141.5904  160.1074 H   0  0  0  0  0  0  0  0  0  0  0  0
  1  2  1  0  0  0  0
  1 21  1  0  0  0  0
  1 22  1  0  0  0  0
  1 23  1  0  0  0  0
  2 20  2  0  0  0  0
  2  3  1  0  0  0  0
  3  4  2  0  0  0  0
  3 24  1  0  0  0  0
  4  5  1  0  0  0  0
  5  6  1  0  0  0  0
  5 20  1  0  0  0  0
  6  7  1  0  0  0  0
  6  8  1  0  0  0  0
  6 25  1  0  0  0  0
  7 26  1  0  0  0  0
  7 27  1  0  0  0  0
  7 28  1  0  0  0  0
  8  9  1  0  0  0  0
  8 10  1  0  0  0  0
  8 29  1  0  0  0  0
  9 30  1  0  0  0  0
  9 31  1  0  0  0  0
  9 32  1  0  0  0  0
 10 11  1  0  0  0  0
 10 33  1  0  0  0  0
 11 12  1  0  0  0  0
 11 13  1  0  0  0  0
 11 34  1  0  0  0  0
 12 35  1  0  0  0  0
 12 36  1  0  0  0  0
 12 37  1  0  0  0  0
 13 14  2  0  0  0  0
 13 15  1  0  0  0  0
 15 19  1  0  0  0  0
 15 16  1  0  0  0  0
 16 17  1  0  0  0  0
 16 38  1  0  0  0  0
 16 39  1  0  0  0  0
 17 18  1  0  0  0  0
 17 40  1  0  0  0  0
 17 41  1  0  0  0  0
 18 19  1  0  0  0  0
 18 42  1  0  0  0  0
 18 43  1  0  0  0  0
 19 44  1  0  0  0  0
 19 45  1  0  0  0  0
 20 46  1  0  0  0  0
M  END
> <s_m_source_file>
AV-unprocessed.smi

> <i_m_source_file_index>
3335

> <i_lp_mmshare_version>
43012

> <i_f3d_flags>
0

> <s_epik_input>
W0NIM11jMVtjSF1ubihbY0hdMSlbQ0BIXShbQ0gzXSlbQ0BIXShbQ0gzXSlbTkhdW0NASF0oW0NIM10pQyg9TylOMltDSDJdW0NIMl1bQ0gyXVtDSDJdMg==

> <s_epik_cmdline>
J2VwaWtfcHl0aG9uJywgJy1waCcsICc3LjAnLCAnLXRuJywgJzgnLCAnLW1hJywgJzIwMCcsICctbWV0YWxfYmluZGluZycsICctaW1hZScsICc8aW5maWxlLm1hZT4nLCAnLW9tYWUnLCAnPG91dGZpbGUubWFlPic=

> <r_lp_tautomer_probability>
1

> <r_epik_Ionization_Penalty>
0.918803

> <r_epik_Ionization_Penalty_Charging>
0

> <r_epik_Ionization_Penalty_Neutral>
0.918803

> <r_epik_State_Penalty>
0.958258

> <r_epik_Charging_Adjusted_Penalty>
0.958258

> <i_epik_Tot_Q>
0

> <i_epik_Tot_abs_Q>
0

> <r_epik_Metal_State_Penalty>
0.956786

> <b_epik_Metal_Only>
0

> <s_lp_Force_Field>
OPLS_2005

> <r_lp_Energy>
40.8069

> <b_lp_Chiralities_Consistent>
1

> <s_lp_Variant>
AV-unprocessed.smi:3335-11

> <Gold.Version>
5.8.1

> <Gold.Id.Protein>
6NUR|6NUR_protein|mol2

> <Gold.PLP.Fitness>
45.5089

> <Gold.PLP.PLP>
-44.4780

> <Gold.PLP.part.hbond>
-1.0000

> <Gold.PLP.part.metal>
0.0000

> <Gold.PLP.part.buried>
-2.4555

> <Gold.PLP.part.nonpolar>
-44.0695

> <Gold.PLP.part.repulsive>
3.6569

> <Gold.PLP.ligand.clash>
0.0000

> <Gold.PLP.ligand.torsion>
0.7849

> <Gold.PLP.Chemscore.Hbond>
0.8000

> <Gold.PLP.Chemscore.CHOScore>
0.0000

> <Gold.PLP.Chemscore.Metal>
0.0000

> <Gold.Chemscore.Hbonds>
donor molecule, donor type, donor heavy atom, donor atom, acceptor molecule, acceptor atom, score
      P1  H  7989  7998       L1    14  0.72

> <Gold.PLP.Chemscore.Internal.Correction>
0.2008

> <Gold.Rescore>
     Score         DG    S(hbond)    S(metal)    S(lipo)     H(rot)  DE(clash)    DE(int)     intcor
     10.07     -15.49       0.01        0.00     120.87       1.62       4.17       1.25       ----

> <Gold.Chemscore.Fitness>
10.0749

> <Gold.Chemscore.DG>
-15.4928

> <Gold.Chemscore.ZeroCoef>
-5.4800

> <Gold.Chemscore.Hbond>
0.0058

> <Gold.Chemscore.Metal>
0.0000

> <Gold.Chemscore.Lipo>
120.8693

> <Gold.Chemscore.Internal_Hbond>
0.0000

> <Gold.Chemscore.DEClash>
4.1671

> <Gold.Chemscore.DEInternal>
1.2508

> <Gold.Chemscore.Rot>
1.6204

> <Gold.Chemscore.Internal.Correction>
   9.000000E+99

> <Gold.Chemscore.Hbonds>
donor molecule, donor type, donor heavy atom, donor atom, acceptor molecule, acceptor atom, score
      P1  H  7989  7998       L1    14  0.14

> <Gold.Chemscore.Hbond.Weighted>
-0.0193

> <Gold.Chemscore.Metal.Weighted>
-0.0000

> <Gold.Chemscore.Lipo.Weighted>
-14.1417

> <Gold.Chemscore.Internal_Hbond.Weighted>
0.0000

> <Gold.Chemscore.DEClash.Weighted>
4.1671

> <Gold.Chemscore.DEInternal.Weighted>
1.2508

> <Gold.Chemscore.Rot.Weighted>
4.1482

> <Gold.Chemscore.Internal.Correction.Weighted>
   9.000000E+99

> <Gold.Protein.RotatedTorsions>
[ 6907 6896 6895 6894 ] final  119.96 input  -60.11 | X-H torsion
[ 7974 7965 7964 7962 ] final   23.00 input  175.53 | X-H torsion
[ 8008 7997 7996 7995 ] final -104.95 input   59.86 | X-H torsion
[ 10167 10162 10161 10158 ] final  -35.21 input  -65.29 | X-H torsion
[ 10718 10713 10712 10709 ] final -135.22 input   66.30 | X-H torsion
[ 10763 10752 10751 10750 ] final -151.09 input  -60.55 | X-H torsion
[ 11005 11000 10999 10996 ] final -106.93 input  -57.11 | X-H torsion

> <Gold.Protein.ActiveResidues>
 VAL166  LYS551  ARG553  GLY616  TRP617  ASP618  TYR619  PRO620  LYS621  CYS622 
 ASP623  PHE694  ASN695  SER759  ASP760  ASP761  ALA762  ILE779  LEU786  VAL792 
 PHE793  MET794  SER795  GLU796  ALA797  LYS798  CYS799  TRP800  GLU811  SER814 

> <Gold.Protein.RotatedAtoms>
  152.4434  133.7490  159.6682 H   0  0  0  0  0  0  0  0  0  0  0  0  # atno 6907 bound_to 6896
  150.8328  133.8052  159.3097 H   0  0  0  0  0  0  0  0  0  0  0  0  # atno 6908 bound_to 6896
  151.5700  135.1065  160.0044 H   0  0  0  0  0  0  0  0  0  0  0  0  # atno 6909 bound_to 6896
  146.2004  139.7805  142.8766 H   0  0  0  0  0  0  0  0  0  0  0  0  # atno 7974 bound_to 7965
  154.8928  140.0415  157.1848 H   0  0  0  0  0  0  0  0  0  0  0  0  # atno 8008 bound_to 7997
  154.8523  140.2931  155.5569 H   0  0  0  0  0  0  0  0  0  0  0  0  # atno 8009 bound_to 7997
  156.2996  140.2462  156.3484 H   0  0  0  0  0  0  0  0  0  0  0  0  # atno 8010 bound_to 7997
  140.7170  143.3493  151.2189 H   0  0  0  0  0  0  0  0  0  0  0  0  # atno 10167 bound_to 10162
  156.2638  130.7225  151.1169 H   0  0  0  0  0  0  0  0  0  0  0  0  # atno 10718 bound_to 10713
  154.8079  135.3268  154.7382 H   0  0  0  0  0  0  0  0  0  0  0  0  # atno 10763 bound_to 10752
  153.8037  135.6901  153.4856 H   0  0  0  0  0  0  0  0  0  0  0  0  # atno 10764 bound_to 10752
  153.1837  135.4577  155.0006 H   0  0  0  0  0  0  0  0  0  0  0  0  # atno 10765 bound_to 10752
  141.0980  133.8936  157.1915 H   0  0  0  0  0  0  0  0  0  0  0  0  # atno 11005 bound_to 11000
  145.3504  141.0306  143.3342 LP  0  0  0  0  0  0  0  0  0  0  0  0  # atno 17320 bound_to 7965
  144.8670  139.5093  143.6785 LP  0  0  0  0  0  0  0  0  0  0  0  0  # atno 17321 bound_to 7965
  139.7020  143.9517  152.2910 LP  0  0  0  0  0  0  0  0  0  0  0  0  # atno 17342 bound_to 10162
  139.9213  144.6798  150.8458 LP  0  0  0  0  0  0  0  0  0  0  0  0  # atno 17343 bound_to 10162
  157.7260  131.0649  150.5928 LP  0  0  0  0  0  0  0  0  0  0  0  0  # atno 17370 bound_to 10713
  156.6018  130.4356  149.5894 LP  0  0  0  0  0  0  0  0  0  0  0  0  # atno 17371 bound_to 10713
  139.9822  135.0094  156.9777 LP  0  0  0  0  0  0  0  0  0  0  0  0  # atno 17394 bound_to 11000
  140.5093  134.1018  155.7267 LP  0  0  0  0  0  0  0  0  0  0  0  0  # atno 17395 bound_to 11000

$$$$
