AV-unprocessed.smi:2342|AV-procd|sdf|9354|dock5
  -GOLD-   2272012573D 1   1.00000     0.00000
 Structure written by MMmdl.
 38 38  0  0  0  0  0  0  0  0  2 V2000
  152.0010  141.6884  158.0506 C   0  0  0  0  0  0  0  0  0  0  0  0
  151.1133  140.5742  157.4723 C   0  0  2  0  0  0  0  0  0  0  0  0
  150.8591  139.4492  158.5078 C   0  0  0  0  0  0  0  0  0  0  0  0
  150.1822  138.2905  157.9326 N   0  0  0  0  0  0  0  0  0  0  0  0
  149.8666  137.1699  158.5992 C   0  0  0  0  0  0  0  0  0  0  0  0
  150.2511  136.9260  159.7429 O   0  0  0  0  0  0  0  0  0  0  0  0
  148.9454  136.1892  157.8733 C   0  0  0  0  0  0  0  0  0  0  0  0
  147.7560  135.8878  158.7391 C   0  0  0  0  0  0  0  0  0  0  0  0
  146.4344  135.9644  158.3787 C   0  0  0  0  0  0  0  0  0  0  0  0
  145.3808  135.4676  159.6719 S   0  0  0  0  0  0  0  0  0  0  0  0
  146.7967  135.1781  160.6890 C   0  0  0  0  0  0  0  0  0  0  0  0
  146.7527  134.6674  162.1091 C   0  0  0  0  0  0  0  0  0  0  0  0
  147.5393  133.3465  162.2148 C   0  0  0  0  0  0  0  0  0  0  0  0
  145.3031  134.3832  162.5584 C   0  0  0  0  0  0  0  0  0  0  0  0
  147.3361  135.7269  163.0640 C   0  0  0  0  0  0  0  0  0  0  0  0
  147.9422  135.4557  160.0559 N   0  0  0  0  0  0  0  0  0  0  0  0
  151.7313  140.0362  156.1689 C   0  0  0  0  0  0  0  0  0  0  0  0
  152.8398  139.4617  156.2502 O   0  0  0  0  0  0  0  0  0  0  0  0
  151.0801  140.2050  155.1144 O   0  5  0  0  0  0  0  0  0  0  0  0
  152.1778  142.4769  157.3180 H   0  0  0  0  0  0  0  0  0  0  0  0
  152.9712  141.3037  158.3675 H   0  0  0  0  0  0  0  0  0  0  0  0
  151.5286  142.1486  158.9186 H   0  0  0  0  0  0  0  0  0  0  0  0
  150.1491  141.0165  157.2162 H   0  0  0  0  0  0  0  0  0  0  0  0
  151.8072  139.1045  158.9216 H   0  0  0  0  0  0  0  0  0  0  0  0
  150.2858  139.8367  159.3514 H   0  0  0  0  0  0  0  0  0  0  0  0
  149.8161  138.4012  156.9977 H   0  0  0  0  0  0  0  0  0  0  0  0
  148.6391  136.6192  156.9186 H   0  0  0  0  0  0  0  0  0  0  0  0
  149.4943  135.2755  157.6422 H   0  0  0  0  0  0  0  0  0  0  0  0
  146.0199  136.2611  157.4269 H   0  0  0  0  0  0  0  0  0  0  0  0
  147.5239  132.9534  163.2318 H   0  0  0  0  0  0  0  0  0  0  0  0
  148.5845  133.4774  161.9327 H   0  0  0  0  0  0  0  0  0  0  0  0
  147.1176  132.5820  161.5611 H   0  0  0  0  0  0  0  0  0  0  0  0
  144.8297  133.6254  161.9327 H   0  0  0  0  0  0  0  0  0  0  0  0
  144.6859  135.2818  162.5192 H   0  0  0  0  0  0  0  0  0  0  0  0
  145.2717  134.0160  163.5846 H   0  0  0  0  0  0  0  0  0  0  0  0
  147.3018  135.3907  164.1007 H   0  0  0  0  0  0  0  0  0  0  0  0
  146.7814  136.6639  163.0023 H   0  0  0  0  0  0  0  0  0  0  0  0
  148.3784  135.9458  162.8290 H   0  0  0  0  0  0  0  0  0  0  0  0
  1  2  1  0  0  0  0
  1 20  1  0  0  0  0
  1 21  1  0  0  0  0
  1 22  1  0  0  0  0
  2  3  1  0  0  0  0
  2 17  1  0  0  0  0
  2 23  1  0  0  0  0
  3  4  1  0  0  0  0
  3 24  1  0  0  0  0
  3 25  1  0  0  0  0
  4  5  1  0  0  0  0
  4 26  1  0  0  0  0
  5  6  2  0  0  0  0
  5  7  1  0  0  0  0
  7  8  1  0  0  0  0
  7 27  1  0  0  0  0
  7 28  1  0  0  0  0
  8 16  1  0  0  0  0
  8  9  2  0  0  0  0
  9 10  1  0  0  0  0
  9 29  1  0  0  0  0
 10 11  1  0  0  0  0
 11 12  1  0  0  0  0
 11 16  2  0  0  0  0
 12 13  1  0  0  0  0
 12 14  1  0  0  0  0
 12 15  1  0  0  0  0
 13 30  1  0  0  0  0
 13 31  1  0  0  0  0
 13 32  1  0  0  0  0
 14 33  1  0  0  0  0
 14 34  1  0  0  0  0
 14 35  1  0  0  0  0
 15 36  1  0  0  0  0
 15 37  1  0  0  0  0
 15 38  1  0  0  0  0
 17 18  2  0  0  0  0
 17 19  1  0  0  0  0
M  CHG  1  19  -1
M  END
> <s_m_source_file>
AV-unprocessed.smi

> <i_m_source_file_index>
2342

> <i_lp_mmshare_version>
43012

> <i_f3d_flags>
0

> <s_epik_input>
Tz1DKFtPSF0pW0NASF0oW0NIM10pW0NIMl1bTkhdQyg9TylbQ0gyXWMxW2NIXXNjKG4xKUMoW0NIM10pKFtDSDNdKVtDSDNd

> <s_epik_cmdline>
J2VwaWtfcHl0aG9uJywgJy1waCcsICc3LjAnLCAnLXRuJywgJzgnLCAnLW1hJywgJzIwMCcsICctbWV0YWxfYmluZGluZycsICctaW1hZScsICc8aW5maWxlLm1hZT4nLCAnLW9tYWUnLCAnPG91dGZpbGUubWFlPic=

> <r_epik_Ionization_Penalty>
0.00120065

> <r_epik_Ionization_Penalty_Charging>
0.00115909

> <r_epik_Ionization_Penalty_Neutral>
4.15663e-05

> <r_epik_State_Penalty>
0.00076313

> <r_epik_Charging_Adjusted_Penalty>
0.00192222

> <i_epik_Tot_Q>
-1

> <i_epik_Tot_abs_Q>
1

> <r_epik_Metal_State_Penalty>
-0

> <b_epik_Metal_Only>
0

> <s_lp_Force_Field>
OPLS_2005

> <r_lp_Energy>
-10.4991

> <b_lp_Chiralities_Consistent>
1

> <s_lp_Variant>
AV-unprocessed.smi:2342-1

> <Gold.Version>
5.8.1

> <Gold.Id.Protein>
6NUR|6NUR_protein|mol2

> <Gold.PLP.Fitness>
41.9909

> <Gold.PLP.PLP>
-30.2758

> <Gold.PLP.part.hbond>
-3.1219

> <Gold.PLP.part.metal>
0.0000

> <Gold.PLP.part.buried>
-5.7293

> <Gold.PLP.part.nonpolar>
-22.7539

> <Gold.PLP.part.repulsive>
0.1181

> <Gold.PLP.ligand.clash>
0.0000

> <Gold.PLP.ligand.torsion>
0.1888

> <Gold.PLP.Chemscore.Hbond>
3.9913

> <Gold.PLP.Chemscore.CHOScore>
0.0000

> <Gold.PLP.Chemscore.Metal>
0.0000

> <Gold.Chemscore.Hbonds>
donor molecule, donor type, donor heavy atom, donor atom, acceptor molecule, acceptor atom, score
      P1  H  6896  6908       L1     6  0.96
      P1  H  7989  7998       L1    19  1.00
      P1  H  7997  8009       L1    18  2.00

> <Gold.PLP.Chemscore.Internal.Correction>
0.1189

> <Gold.Rescore>
     Score         DG    S(hbond)    S(metal)    S(lipo)     H(rot)  DE(clash)    DE(int)     intcor
     15.45     -17.03       2.98        0.00      65.73       2.38       0.00       1.58       ----

> <Gold.Chemscore.Fitness>
15.4459

> <Gold.Chemscore.DG>
-17.0297

> <Gold.Chemscore.ZeroCoef>
-5.4800

> <Gold.Chemscore.Hbond>
2.9807

> <Gold.Chemscore.Metal>
0.0000

> <Gold.Chemscore.Lipo>
65.7269

> <Gold.Chemscore.Internal_Hbond>
0.0000

> <Gold.Chemscore.DEClash>
0.0009

> <Gold.Chemscore.DEInternal>
1.5829

> <Gold.Chemscore.Rot>
2.3812

> <Gold.Chemscore.Internal.Correction>
   9.000000E+99

> <Gold.Chemscore.Hbonds>
donor molecule, donor type, donor heavy atom, donor atom, acceptor molecule, acceptor atom, score
      P1  H  6896  6908       L1     6  0.68
      P1  H  7989  7998       L1    19  0.99
      P1  H  7997  8009       L1    18  1.00

> <Gold.Chemscore.Hbond.Weighted>
-9.9555

> <Gold.Chemscore.Metal.Weighted>
-0.0000

> <Gold.Chemscore.Lipo.Weighted>
-7.6901

> <Gold.Chemscore.Internal_Hbond.Weighted>
0.0000

> <Gold.Chemscore.DEClash.Weighted>
0.0009

> <Gold.Chemscore.DEInternal.Weighted>
1.5829

> <Gold.Chemscore.Rot.Weighted>
6.0959

> <Gold.Chemscore.Internal.Correction.Weighted>
   9.000000E+99

> <Gold.Protein.RotatedTorsions>
[ 6907 6896 6895 6894 ] final -153.32 input  -60.11 | X-H torsion
[ 7974 7965 7964 7962 ] final  160.57 input  175.53 | X-H torsion
[ 8008 7997 7996 7995 ] final -159.49 input   59.86 | X-H torsion
[ 10167 10162 10161 10158 ] final -104.68 input  -65.29 | X-H torsion
[ 10718 10713 10712 10709 ] final  -87.01 input   66.30 | X-H torsion
[ 10763 10752 10751 10750 ] final  137.57 input  -60.55 | X-H torsion
[ 11005 11000 10999 10996 ] final -154.89 input  -57.11 | X-H torsion

> <Gold.Protein.ActiveResidues>
 VAL166  LYS551  ARG553  GLY616  TRP617  ASP618  TYR619  PRO620  LYS621  CYS622 
 ASP623  PHE694  ASN695  SER759  ASP760  ASP761  ALA762  ILE779  LEU786  VAL792 
 PHE793  MET794  SER795  GLU796  ALA797  LYS798  CYS799  TRP800  GLU811  SER814 

> <Gold.Protein.RotatedAtoms>
  151.2408  133.4400  159.2607 H   0  0  0  0  0  0  0  0  0  0  0  0  # atno 6907 bound_to 6896
  151.0707  134.9796  159.8317 H   0  0  0  0  0  0  0  0  0  0  0  0  # atno 6908 bound_to 6896
  152.5411  134.2353  159.8894 H   0  0  0  0  0  0  0  0  0  0  0  0  # atno 6909 bound_to 6896
  144.7730  139.7776  143.6289 H   0  0  0  0  0  0  0  0  0  0  0  0  # atno 7974 bound_to 7965
  155.7634  140.0842  157.2144 H   0  0  0  0  0  0  0  0  0  0  0  0  # atno 8008 bound_to 7997
  154.4002  140.1538  156.2915 H   0  0  0  0  0  0  0  0  0  0  0  0  # atno 8009 bound_to 7997
  155.8817  140.3420  155.5895 H   0  0  0  0  0  0  0  0  0  0  0  0  # atno 8010 bound_to 7997
  140.2067  143.3777  152.1084 H   0  0  0  0  0  0  0  0  0  0  0  0  # atno 10167 bound_to 10162
  155.9987  130.4785  150.4802 H   0  0  0  0  0  0  0  0  0  0  0  0  # atno 10718 bound_to 10713
  153.8752  135.3051  155.3443 H   0  0  0  0  0  0  0  0  0  0  0  0  # atno 10763 bound_to 10752
  154.7787  135.4847  153.9801 H   0  0  0  0  0  0  0  0  0  0  0  0  # atno 10764 bound_to 10752
  153.1383  135.6818  153.9164 H   0  0  0  0  0  0  0  0  0  0  0  0  # atno 10765 bound_to 10752
  140.6925  134.4026  157.5218 H   0  0  0  0  0  0  0  0  0  0  0  0  # atno 11005 bound_to 11000
  146.1890  139.5121  142.9817 LP  0  0  0  0  0  0  0  0  0  0  0  0  # atno 17320 bound_to 7965
  145.6268  141.0312  143.1885 LP  0  0  0  0  0  0  0  0  0  0  0  0  # atno 17321 bound_to 7965
  139.5196  144.7021  151.5462 LP  0  0  0  0  0  0  0  0  0  0  0  0  # atno 17342 bound_to 10162
  140.6352  143.8998  150.6641 LP  0  0  0  0  0  0  0  0  0  0  0  0  # atno 17343 bound_to 10162
  157.2808  131.0606  151.2199 LP  0  0  0  0  0  0  0  0  0  0  0  0  # atno 17370 bound_to 10713
  157.3246  130.6954  149.6289 LP  0  0  0  0  0  0  0  0  0  0  0  0  # atno 17371 bound_to 10713
  139.8919  134.8767  156.2295 LP  0  0  0  0  0  0  0  0  0  0  0  0  # atno 17394 bound_to 11000
  141.0230  133.7031  156.1300 LP  0  0  0  0  0  0  0  0  0  0  0  0  # atno 17395 bound_to 11000

$$$$
