AV-unprocessed.smi:2603|AV-procd|sdf|10185|dock1
  -GOLD-   2272014203D 1   1.00000     0.00000
 Structure written by MMmdl.
 35 36  0  0  0  0  0  0  0  0  1 V2000
  152.8748  144.7826  157.8401 C   0  0  0  0  0  0  0  0  0  0  0  0
  151.6797  144.4536  158.7378 C   0  0  0  0  0  0  0  0  0  0  0  0
  151.6947  143.0687  159.0356 O   0  0  0  0  0  0  0  0  0  0  0  0
  150.7108  142.3575  158.3074 C   0  0  2  0  0  0  0  0  0  0  0  0
  151.1898  141.0474  157.7480 C   0  0  0  0  0  0  0  0  0  0  0  0
  151.0472  142.2549  156.8381 C   0  0  1  0  0  0  0  0  0  0  0  0
  149.9607  142.2624  155.9143 N   0  0  0  0  0  0  0  0  0  0  0  0
  149.7037  141.3127  155.0028 C   0  0  0  0  0  0  0  0  0  0  0  0
  150.3936  140.3045  154.8522 O   0  0  0  0  0  0  0  0  0  0  0  0
  148.4695  141.5304  154.1279 C   0  0  0  0  0  0  0  0  0  0  0  0
  147.2618  141.7498  155.0020 C   0  0  0  0  0  0  0  0  0  0  0  0
  146.9562  141.1441  156.2553 C   0  0  0  0  0  0  0  0  0  0  0  0
  147.7510  140.1287  157.0255 C   0  0  0  0  0  0  0  0  0  0  0  0
  145.8021  141.5691  156.7410 N   0  0  0  0  0  0  0  0  0  0  0  0
  145.3062  142.4835  155.8067 O   0  0  0  0  0  0  0  0  0  0  0  0
  146.1916  142.5723  154.7816 C   0  0  0  0  0  0  0  0  0  0  0  0
  145.8391  143.4986  153.6674 C   0  0  0  0  0  0  0  0  0  0  0  0
  152.8911  145.8424  157.5859 H   0  0  0  0  0  0  0  0  0  0  0  0
  152.8336  144.2157  156.9097 H   0  0  0  0  0  0  0  0  0  0  0  0
  153.8149  144.5434  158.3380 H   0  0  0  0  0  0  0  0  0  0  0  0
  151.7326  145.0370  159.6584 H   0  0  0  0  0  0  0  0  0  0  0  0
  150.7498  144.7175  158.2320 H   0  0  0  0  0  0  0  0  0  0  0  0
  149.6766  142.4970  158.6192 H   0  0  0  0  0  0  0  0  0  0  0  0
  152.1981  140.7269  158.0031 H   0  0  0  0  0  0  0  0  0  0  0  0
  150.4590  140.2472  157.6488 H   0  0  0  0  0  0  0  0  0  0  0  0
  151.9762  142.7269  156.5209 H   0  0  0  0  0  0  0  0  0  0  0  0
  149.3336  143.0523  155.9594 H   0  0  0  0  0  0  0  0  0  0  0  0
  148.6393  142.3762  153.4603 H   0  0  0  0  0  0  0  0  0  0  0  0
  148.3397  140.6613  153.4820 H   0  0  0  0  0  0  0  0  0  0  0  0
  147.5010  139.1168  156.7061 H   0  0  0  0  0  0  0  0  0  0  0  0
  147.5582  140.1975  158.0967 H   0  0  0  0  0  0  0  0  0  0  0  0
  148.8213  140.2693  156.8756 H   0  0  0  0  0  0  0  0  0  0  0  0
  145.6375  142.9401  152.7533 H   0  0  0  0  0  0  0  0  0  0  0  0
  146.6573  144.1905  153.4670 H   0  0  0  0  0  0  0  0  0  0  0  0
  144.9521  144.0853  153.9078 H   0  0  0  0  0  0  0  0  0  0  0  0
  1  2  1  0  0  0  0
  1 18  1  0  0  0  0
  1 19  1  0  0  0  0
  1 20  1  0  0  0  0
  2  3  1  0  0  0  0
  2 21  1  0  0  0  0
  2 22  1  0  0  0  0
  3  4  1  0  0  0  0
  4  6  1  0  0  0  0
  4  5  1  0  0  0  0
  4 23  1  0  0  0  0
  5  6  1  0  0  0  0
  5 24  1  0  0  0  0
  5 25  1  0  0  0  0
  6  7  1  0  0  0  0
  6 26  1  0  0  0  0
  7  8  1  0  0  0  0
  7 27  1  0  0  0  0
  8  9  2  0  0  0  0
  8 10  1  0  0  0  0
 10 11  1  0  0  0  0
 10 28  1  0  0  0  0
 10 29  1  0  0  0  0
 11 16  2  0  0  0  0
 11 12  1  0  0  0  0
 12 13  1  0  0  0  0
 12 14  2  0  0  0  0
 13 30  1  0  0  0  0
 13 31  1  0  0  0  0
 13 32  1  0  0  0  0
 14 15  1  0  0  0  0
 15 16  1  0  0  0  0
 16 17  1  0  0  0  0
 17 33  1  0  0  0  0
 17 34  1  0  0  0  0
 17 35  1  0  0  0  0
M  END
> <s_m_source_file>
AV-unprocessed.smi

> <i_m_source_file_index>
2603

> <i_lp_mmshare_version>
43012

> <i_f3d_flags>
0

> <s_epik_input>
W0NIM11bQ0gyXU9bQ0BASF0xW0NIMl1bQ0BIXTFbTkhdQyg9TylbQ0gyXWMyYyhbQ0gzXSlub2MyW0NIM10=

> <s_epik_cmdline>
J2VwaWtfcHl0aG9uJywgJy1waCcsICc3LjAnLCAnLXRuJywgJzgnLCAnLW1hJywgJzIwMCcsICctbWV0YWxfYmluZGluZycsICctaW1hZScsICc8aW5maWxlLm1hZT4nLCAnLW9tYWUnLCAnPG91dGZpbGUubWFlPic=

> <r_lp_tautomer_probability>
1

> <r_epik_Ionization_Penalty>
2.37325e-08

> <r_epik_Ionization_Penalty_Charging>
0

> <r_epik_Ionization_Penalty_Neutral>
2.37325e-08

> <r_epik_State_Penalty>
-0

> <r_epik_Charging_Adjusted_Penalty>
0

> <i_epik_Tot_Q>
0

> <i_epik_Tot_abs_Q>
0

> <r_epik_Metal_State_Penalty>
-0

> <b_epik_Metal_Only>
0

> <s_lp_Force_Field>
OPLS_2005

> <r_lp_Energy>
10.4269

> <b_lp_Chiralities_Consistent>
1

> <s_lp_Variant>
AV-unprocessed.smi:2603-1

> <Gold.Version>
5.8.1

> <Gold.Id.Protein>
6NUR|6NUR_protein|mol2

> <Gold.PLP.Fitness>
39.8424

> <Gold.PLP.PLP>
-35.2088

> <Gold.PLP.part.hbond>
-2.0000

> <Gold.PLP.part.metal>
0.0000

> <Gold.PLP.part.buried>
-4.8614

> <Gold.PLP.part.nonpolar>
-27.9276

> <Gold.PLP.part.repulsive>
0.3758

> <Gold.PLP.ligand.clash>
0.0000

> <Gold.PLP.ligand.torsion>
1.0400

> <Gold.PLP.Chemscore.Hbond>
2.0000

> <Gold.PLP.Chemscore.CHOScore>
0.0000

> <Gold.PLP.Chemscore.Metal>
0.0000

> <Gold.Chemscore.Hbonds>
donor molecule, donor type, donor heavy atom, donor atom, acceptor molecule, acceptor atom, score
      L1  H     7    27       P1  8028  1.00
      P1  H  7989  7998       L1     9  1.00

> <Gold.PLP.Chemscore.Internal.Correction>
0.7136

> <Gold.Rescore>
     Score         DG    S(hbond)    S(metal)    S(lipo)     H(rot)  DE(clash)    DE(int)     intcor
     14.35     -15.73       1.67        0.00      77.08       1.69       0.37       1.01       ----

> <Gold.Chemscore.Fitness>
14.3515

> <Gold.Chemscore.DG>
-15.7308

> <Gold.Chemscore.ZeroCoef>
-5.4800

> <Gold.Chemscore.Hbond>
1.6669

> <Gold.Chemscore.Metal>
0.0000

> <Gold.Chemscore.Lipo>
77.0775

> <Gold.Chemscore.Internal_Hbond>
0.0000

> <Gold.Chemscore.DEClash>
0.3690

> <Gold.Chemscore.DEInternal>
1.0104

> <Gold.Chemscore.Rot>
1.6933

> <Gold.Chemscore.Internal.Correction>
   9.000000E+99

> <Gold.Chemscore.Hbonds>
donor molecule, donor type, donor heavy atom, donor atom, acceptor molecule, acceptor atom, score
      L1  H     7    27       P1  8028  0.98
      P1  H  7989  7998       L1     9  0.29

> <Gold.Chemscore.Hbond.Weighted>
-5.5675

> <Gold.Chemscore.Metal.Weighted>
-0.0000

> <Gold.Chemscore.Lipo.Weighted>
-9.0181

> <Gold.Chemscore.Internal_Hbond.Weighted>
0.0000

> <Gold.Chemscore.DEClash.Weighted>
0.3690

> <Gold.Chemscore.DEInternal.Weighted>
1.0104

> <Gold.Chemscore.Rot.Weighted>
4.3348

> <Gold.Chemscore.Internal.Correction.Weighted>
   9.000000E+99

> <Gold.Protein.RotatedTorsions>
[ 6907 6896 6895 6894 ] final  130.99 input  -60.11 | X-H torsion
[ 7974 7965 7964 7962 ] final  154.90 input  175.53 | X-H torsion
[ 8008 7997 7996 7995 ] final   47.24 input   59.86 | X-H torsion
[ 10167 10162 10161 10158 ] final   15.04 input  -65.29 | X-H torsion
[ 10718 10713 10712 10709 ] final  -28.48 input   66.30 | X-H torsion
[ 10763 10752 10751 10750 ] final   -4.16 input  -60.55 | X-H torsion
[ 11005 11000 10999 10996 ] final   -6.28 input  -57.11 | X-H torsion

> <Gold.Protein.ActiveResidues>
 VAL166  LYS551  ARG553  GLY616  TRP617  ASP618  TYR619  PRO620  LYS621  CYS622 
 ASP623  PHE694  ASN695  SER759  ASP760  ASP761  ALA762  ILE779  LEU786  VAL792 
 PHE793  MET794  SER795  GLU796  ALA797  LYS798  CYS799  TRP800  GLU811  SER814 

> <Gold.Protein.RotatedAtoms>
  152.3471  133.6135  159.5917 H   0  0  0  0  0  0  0  0  0  0  0  0  # atno 6907 bound_to 6896
  150.7514  133.9633  159.3531 H   0  0  0  0  0  0  0  0  0  0  0  0  # atno 6908 bound_to 6896
  151.7489  135.0838  160.0379 H   0  0  0  0  0  0  0  0  0  0  0  0  # atno 6909 bound_to 6896
  144.8059  139.6995  143.6162 H   0  0  0  0  0  0  0  0  0  0  0  0  # atno 7974 bound_to 7965
  155.3658  140.3421  155.4242 H   0  0  0  0  0  0  0  0  0  0  0  0  # atno 8008 bound_to 7997
  156.1689  140.1625  156.8517 H   0  0  0  0  0  0  0  0  0  0  0  0  # atno 8009 bound_to 7997
  154.5213  140.0766  156.8159 H   0  0  0  0  0  0  0  0  0  0  0  0  # atno 8010 bound_to 7997
  140.5894  143.8825  150.6860 H   0  0  0  0  0  0  0  0  0  0  0  0  # atno 10167 bound_to 10162
  156.4247  130.4433  149.7159 H   0  0  0  0  0  0  0  0  0  0  0  0  # atno 10718 bound_to 10713
  153.3811  135.6998  153.6565 H   0  0  0  0  0  0  0  0  0  0  0  0  # atno 10763 bound_to 10752
  153.5176  135.3619  155.2617 H   0  0  0  0  0  0  0  0  0  0  0  0  # atno 10764 bound_to 10752
  154.8692  135.4150  154.3109 H   0  0  0  0  0  0  0  0  0  0  0  0  # atno 10765 bound_to 10752
  140.7003  133.8995  155.8679 H   0  0  0  0  0  0  0  0  0  0  0  0  # atno 11005 bound_to 11000
  146.2350  139.5887  142.9530 LP  0  0  0  0  0  0  0  0  0  0  0  0  # atno 17320 bound_to 7965
  145.5440  141.0418  143.2315 LP  0  0  0  0  0  0  0  0  0  0  0  0  # atno 17321 bound_to 7965
  140.2344  143.3711  152.1539 LP  0  0  0  0  0  0  0  0  0  0  0  0  # atno 17342 bound_to 10162
  139.5218  144.7051  151.5379 LP  0  0  0  0  0  0  0  0  0  0  0  0  # atno 17343 bound_to 10162
  156.4086  130.7710  151.2722 LP  0  0  0  0  0  0  0  0  0  0  0  0  # atno 17370 bound_to 10713
  157.7508  131.0218  150.3766 LP  0  0  0  0  0  0  0  0  0  0  0  0  # atno 17371 bound_to 10713
  141.0169  134.0943  157.4162 LP  0  0  0  0  0  0  0  0  0  0  0  0  # atno 17394 bound_to 11000
  139.8898  135.0108  156.6703 LP  0  0  0  0  0  0  0  0  0  0  0  0  # atno 17395 bound_to 11000

$$$$
