AV-unprocessed.smi:1952|AV-procd|sdf|7888|dock4
  -GOLD-   2272010 43D 1   1.00000     0.00000
 Structure written by MMmdl.
 38 39  0  0  0  0  0  0  0  0  2 V2000
  146.4758  136.7894  162.4864 C   0  0  0  0  0  0  0  0  0  0  0  0
  147.1046  136.3001  161.2265 C   0  0  0  0  0  0  0  0  0  0  0  0
  147.7031  135.1204  160.8861 C   0  0  0  0  0  0  0  0  0  0  0  0
  148.0722  135.3232  159.5281 C   0  0  0  0  0  0  0  0  0  0  0  0
  148.7098  134.4406  158.7440 N   0  5  0  0  0  0  0  0  0  0  0  0
  148.8309  134.6723  157.4161 C   0  0  0  0  0  0  0  0  0  0  0  0
  148.0035  135.2343  156.6944 O   0  0  0  0  0  0  0  0  0  0  0  0
  149.9819  134.2242  156.8934 N   0  0  0  0  0  0  0  0  0  0  0  0
  150.3870  134.3110  155.4911 C   0  0  1  0  0  0  0  0  0  0  0  0
  149.5259  133.3673  154.6379 C   0  0  0  0  0  0  0  0  0  0  0  0
  150.2751  135.7691  154.9997 C   0  0  0  0  0  0  0  0  0  0  0  0
  151.4268  136.6270  155.2862 N   0  0  0  0  0  0  0  0  0  0  0  0
  151.4178  137.8672  154.5138 C   0  0  0  0  0  0  0  0  0  0  0  0
  152.6265  138.7588  154.8479 C   0  0  0  0  0  0  0  0  0  0  0  0
  152.6523  139.0284  156.2459 O   0  0  0  0  0  0  0  0  0  0  0  0
  152.7114  137.8420  157.0305 C   0  0  0  0  0  0  0  0  0  0  0  0
  151.5006  136.9503  156.7064 C   0  0  0  0  0  0  0  0  0  0  0  0
  147.7427  136.5264  159.0890 N   0  0  0  0  0  0  0  0  0  0  0  0
  147.1150  137.1569  160.1698 O   0  0  0  0  0  0  0  0  0  0  0  0
  147.1826  136.7393  163.3143 H   0  0  0  0  0  0  0  0  0  0  0  0
  145.6082  136.1822  162.7444 H   0  0  0  0  0  0  0  0  0  0  0  0
  146.1462  137.8239  162.3861 H   0  0  0  0  0  0  0  0  0  0  0  0
  147.8500  134.2489  161.5063 H   0  0  0  0  0  0  0  0  0  0  0  0
  150.6257  133.7669  157.5223 H   0  0  0  0  0  0  0  0  0  0  0  0
  151.4238  133.9891  155.3887 H   0  0  0  0  0  0  0  0  0  0  0  0
  149.8188  133.4113  153.5888 H   0  0  0  0  0  0  0  0  0  0  0  0
  148.4691  133.6287  154.7003 H   0  0  0  0  0  0  0  0  0  0  0  0
  149.6331  132.3326  154.9654 H   0  0  0  0  0  0  0  0  0  0  0  0
  150.0789  135.7717  153.9264 H   0  0  0  0  0  0  0  0  0  0  0  0
  149.3907  136.2088  155.4632 H   0  0  0  0  0  0  0  0  0  0  0  0
  151.4359  137.6491  153.4466 H   0  0  0  0  0  0  0  0  0  0  0  0
  150.4961  138.4178  154.7074 H   0  0  0  0  0  0  0  0  0  0  0  0
  153.5566  138.2739  154.5473 H   0  0  0  0  0  0  0  0  0  0  0  0
  152.5657  139.7007  154.3029 H   0  0  0  0  0  0  0  0  0  0  0  0
  153.6451  137.3124  156.8342 H   0  0  0  0  0  0  0  0  0  0  0  0
  152.7122  138.1123  158.0865 H   0  0  0  0  0  0  0  0  0  0  0  0
  150.5860  137.4572  157.0180 H   0  0  0  0  0  0  0  0  0  0  0  0
  151.5634  136.0326  157.2922 H   0  0  0  0  0  0  0  0  0  0  0  0
  1  2  1  0  0  0  0
  1 20  1  0  0  0  0
  1 21  1  0  0  0  0
  1 22  1  0  0  0  0
  2 19  1  0  0  0  0
  2  3  2  0  0  0  0
  3  4  1  0  0  0  0
  3 23  1  0  0  0  0
  4  5  1  0  0  0  0
  4 18  2  0  0  0  0
  5  6  1  0  0  0  0
  6  7  2  0  0  0  0
  6  8  1  0  0  0  0
  8  9  1  0  0  0  0
  8 24  1  0  0  0  0
  9 10  1  0  0  0  0
  9 11  1  0  0  0  0
  9 25  1  0  0  0  0
 10 26  1  0  0  0  0
 10 27  1  0  0  0  0
 10 28  1  0  0  0  0
 11 12  1  0  0  0  0
 11 29  1  0  0  0  0
 11 30  1  0  0  0  0
 12 17  1  0  0  0  0
 12 13  1  0  0  0  0
 13 14  1  0  0  0  0
 13 31  1  0  0  0  0
 13 32  1  0  0  0  0
 14 15  1  0  0  0  0
 14 33  1  0  0  0  0
 14 34  1  0  0  0  0
 15 16  1  0  0  0  0
 16 17  1  0  0  0  0
 16 35  1  0  0  0  0
 16 36  1  0  0  0  0
 17 37  1  0  0  0  0
 17 38  1  0  0  0  0
 18 19  1  0  0  0  0
M  CHG  1   5  -1
M  END
> <s_m_source_file>
AV-unprocessed.smi

> <i_m_source_file_index>
1952

> <i_lp_mmshare_version>
43012

> <i_f3d_flags>
0

> <s_epik_input>
W0NIM11jMVtjSF1jKG5vMSlbTkhdQyg9TylbTkhdW0NASF0oW0NIM10pW0NIMl1OMltDSDJdW0NIMl1PW0NIMl1bQ0gyXTI=

> <s_epik_cmdline>
J2VwaWtfcHl0aG9uJywgJy1waCcsICc3LjAnLCAnLXRuJywgJzgnLCAnLW1hJywgJzIwMCcsICctbWV0YWxfYmluZGluZycsICctaW1hZScsICc8aW5maWxlLm1hZT4nLCAnLW9tYWUnLCAnPG91dGZpbGUubWFlPic=

> <r_epik_Ionization_Penalty>
6.81701

> <r_epik_Ionization_Penalty_Charging>
6.50532

> <r_epik_Ionization_Penalty_Neutral>
0.311686

> <r_epik_State_Penalty>
6.70952

> <r_epik_Charging_Adjusted_Penalty>
13.2148

> <i_epik_Tot_Q>
-1

> <i_epik_Tot_abs_Q>
1

> <r_epik_Metal_State_Penalty>
2.64135

> <b_epik_Metal_Only>
1

> <s_lp_Force_Field>
OPLS_2005

> <r_lp_Energy>
19.0911

> <b_lp_Chiralities_Consistent>
1

> <s_lp_Variant>
AV-unprocessed.smi:1952-6

> <Gold.Version>
5.8.1

> <Gold.Id.Protein>
6NUR|6NUR_protein|mol2

> <Gold.PLP.Fitness>
44.1212

> <Gold.PLP.PLP>
-30.4793

> <Gold.PLP.part.hbond>
-4.7673

> <Gold.PLP.part.metal>
0.0000

> <Gold.PLP.part.buried>
-4.4805

> <Gold.PLP.part.nonpolar>
-22.3632

> <Gold.PLP.part.repulsive>
0.2073

> <Gold.PLP.ligand.clash>
0.0000

> <Gold.PLP.ligand.torsion>
0.7070

> <Gold.PLP.Chemscore.Hbond>
4.9920

> <Gold.PLP.Chemscore.CHOScore>
0.0000

> <Gold.PLP.Chemscore.Metal>
0.0000

> <Gold.Chemscore.Hbonds>
donor molecule, donor type, donor heavy atom, donor atom, acceptor molecule, acceptor atom, score
      P1  H  6896  6908       L1     5  1.76
      P1  H  6934  6947       L1    19  1.00
      P1  H  7997  8008       L1    15  0.90
      P1  H 10752 10764       L1    12  1.00

> <Gold.PLP.Chemscore.Internal.Correction>
0.0800

> <Gold.Rescore>
     Score         DG    S(hbond)    S(metal)    S(lipo)     H(rot)  DE(clash)    DE(int)     intcor
     15.10     -18.50       2.67        0.00      68.42       1.53       0.00       3.39       ----

> <Gold.Chemscore.Fitness>
15.1045

> <Gold.Chemscore.DG>
-18.4968

> <Gold.Chemscore.ZeroCoef>
-5.4800

> <Gold.Chemscore.Hbond>
2.6746

> <Gold.Chemscore.Metal>
0.0000

> <Gold.Chemscore.Lipo>
68.4162

> <Gold.Chemscore.Internal_Hbond>
0.0000

> <Gold.Chemscore.DEClash>
0.0000

> <Gold.Chemscore.DEInternal>
3.3924

> <Gold.Chemscore.Rot>
1.5317

> <Gold.Chemscore.Internal.Correction>
   9.000000E+99

> <Gold.Chemscore.Hbonds>
donor molecule, donor type, donor heavy atom, donor atom, acceptor molecule, acceptor atom, score
      P1  H  6896  6908       L1     5  0.32
      P1  H  6934  6947       L1    19  0.62
      P1  H  7997  8008       L1    15  0.15
      P1  H 10752 10764       L1    12  0.23

> <Gold.Chemscore.Hbond.Weighted>
-8.9333

> <Gold.Chemscore.Metal.Weighted>
-0.0000

> <Gold.Chemscore.Lipo.Weighted>
-8.0047

> <Gold.Chemscore.Internal_Hbond.Weighted>
0.0000

> <Gold.Chemscore.DEClash.Weighted>
0.0000

> <Gold.Chemscore.DEInternal.Weighted>
3.3924

> <Gold.Chemscore.Rot.Weighted>
3.9211

> <Gold.Chemscore.Internal.Correction.Weighted>
   9.000000E+99

> <Gold.Protein.RotatedTorsions>
[ 6907 6896 6895 6894 ] final  136.09 input  -60.11 | X-H torsion
[ 7974 7965 7964 7962 ] final -155.91 input  175.53 | X-H torsion
[ 8008 7997 7996 7995 ] final  -39.37 input   59.86 | X-H torsion
[ 10167 10162 10161 10158 ] final  -84.78 input  -65.29 | X-H torsion
[ 10718 10713 10712 10709 ] final -177.19 input   66.30 | X-H torsion
[ 10763 10752 10751 10750 ] final  -55.00 input  -60.55 | X-H torsion
[ 11005 11000 10999 10996 ] final   42.24 input  -57.11 | X-H torsion

> <Gold.Protein.ActiveResidues>
 VAL166  LYS551  ARG553  GLY616  TRP617  ASP618  TYR619  PRO620  LYS621  CYS622 
 ASP623  PHE694  ASN695  SER759  ASP760  ASP761  ALA762  ILE779  LEU786  VAL792 
 PHE793  MET794  SER795  GLU796  ALA797  LYS798  CYS799  TRP800  GLU811  SER814 

> <Gold.Protein.RotatedAtoms>
  152.2932  133.5582  159.5570 H   0  0  0  0  0  0  0  0  0  0  0  0  # atno 6907 bound_to 6896
  150.7244  134.0398  159.3771 H   0  0  0  0  0  0  0  0  0  0  0  0  # atno 6908 bound_to 6896
  151.8303  135.0624  160.0487 H   0  0  0  0  0  0  0  0  0  0  0  0  # atno 6909 bound_to 6896
  144.7618  140.4184  143.5971 H   0  0  0  0  0  0  0  0  0  0  0  0  # atno 7974 bound_to 7965
  154.4024  140.1553  156.2853 H   0  0  0  0  0  0  0  0  0  0  0  0  # atno 8008 bound_to 7997
  155.8834  140.3442  155.5882 H   0  0  0  0  0  0  0  0  0  0  0  0  # atno 8009 bound_to 7997
  155.7641  140.0821  157.2131 H   0  0  0  0  0  0  0  0  0  0  0  0  # atno 8010 bound_to 7997
  140.4100  143.2627  151.9030 H   0  0  0  0  0  0  0  0  0  0  0  0  # atno 10167 bound_to 10162
  156.8259  130.9636  151.3109 H   0  0  0  0  0  0  0  0  0  0  0  0  # atno 10718 bound_to 10713
  154.1839  135.6439  153.5041 H   0  0  0  0  0  0  0  0  0  0  0  0  # atno 10763 bound_to 10752
  153.0052  135.5412  154.6486 H   0  0  0  0  0  0  0  0  0  0  0  0  # atno 10764 bound_to 10752
  154.5857  135.2929  155.0660 H   0  0  0  0  0  0  0  0  0  0  0  0  # atno 10765 bound_to 10752
  140.1758  134.4165  155.8229 H   0  0  0  0  0  0  0  0  0  0  0  0  # atno 11005 bound_to 11000
  145.6596  139.1579  143.2816 LP  0  0  0  0  0  0  0  0  0  0  0  0  # atno 17320 bound_to 7965
  146.1688  140.6677  142.9243 LP  0  0  0  0  0  0  0  0  0  0  0  0  # atno 17321 bound_to 7965
  139.4783  144.5547  151.8332 LP  0  0  0  0  0  0  0  0  0  0  0  0  # atno 17342 bound_to 10162
  140.4648  144.1670  150.5910 LP  0  0  0  0  0  0  0  0  0  0  0  0  # atno 17343 bound_to 10162
  157.6432  130.8823  149.9489 LP  0  0  0  0  0  0  0  0  0  0  0  0  # atno 17370 bound_to 10713
  156.0962  130.3659  150.0302 LP  0  0  0  0  0  0  0  0  0  0  0  0  # atno 17371 bound_to 10713
  141.2220  133.6977  156.7844 LP  0  0  0  0  0  0  0  0  0  0  0  0  # atno 17394 bound_to 11000
  140.2324  134.8675  157.3490 LP  0  0  0  0  0  0  0  0  0  0  0  0  # atno 17395 bound_to 11000

$$$$
