AV-unprocessed.smi:1401|AV-procd|sdf|5688|dock3
  -GOLD-   22720 5313D 1   1.00000     0.00000
 Structure written by MMmdl.
 48 50  0  0  0  0  0  0  0  0  1 V2000
  138.6046  134.7718  165.6366 C   0  0  0  0  0  0  0  0  0  0  0  0
  139.0687  136.0315  164.9568 C   0  0  0  0  0  0  0  0  0  0  0  0
  139.8073  135.8852  163.9066 N   0  0  0  0  0  0  0  0  0  0  0  0
  140.2759  136.9750  163.1974 N   0  0  0  0  0  0  0  0  0  0  0  0
  141.0438  136.6151  161.9931 C   0  0  0  0  0  0  0  0  0  0  0  0
  142.2826  135.7430  162.2653 C   0  0  0  0  0  0  0  0  0  0  0  0
  142.4963  135.3422  163.4087 O   0  0  0  0  0  0  0  0  0  0  0  0
  143.0760  135.4382  161.2244 N   0  0  0  0  0  0  0  0  0  0  0  0
  144.2391  134.5584  161.2474 C   0  0  2  0  0  0  0  0  0  0  0  0
  143.8035  133.1162  161.5585 C   0  0  0  0  0  0  0  0  0  0  0  0
  145.2479  135.1046  162.2855 C   0  0  2  0  0  0  0  0  0  0  0  0
  145.6460  136.5868  162.0923 C   0  0  0  0  0  0  0  0  0  0  0  0
  147.1829  136.5458  162.1804 C   0  0  2  0  0  0  0  0  0  0  0  0
  147.7430  135.9378  160.8818 C   0  0  0  0  0  0  0  0  0  0  0  0
  147.3801  134.4481  161.0230 C   0  0  0  0  0  0  0  0  0  0  0  0
  146.6266  134.4039  162.3685 C   0  0  1  0  0  0  0  0  0  0  0  0
  147.4208  135.4214  163.1821 C   0  0  0  0  0  0  0  0  0  0  0  0
  140.0244  138.2767  163.5197 C   0  0  0  0  0  0  0  0  0  0  0  0
  140.4447  139.2190  162.8472 O   0  0  0  0  0  0  0  0  0  0  0  0
  139.1975  138.4351  164.7182 C   0  0  0  0  0  0  0  0  0  0  0  0
  138.9102  139.7824  165.0916 C   0  0  0  0  0  0  0  0  0  0  0  0
  138.6566  140.8715  165.3913 N   0  0  0  0  0  0  0  0  0  0  0  0
  138.7283  137.3728  165.4195 C   0  0  0  0  0  0  0  0  0  0  0  0
  137.8575  137.4836  166.6634 C   0  0  0  0  0  0  0  0  0  0  0  0
  138.9899  134.7171  166.6548 H   0  0  0  0  0  0  0  0  0  0  0  0
  138.9396  133.8775  165.1092 H   0  0  0  0  0  0  0  0  0  0  0  0
  137.5161  134.7356  165.6829 H   0  0  0  0  0  0  0  0  0  0  0  0
  140.4114  136.1035  161.2657 H   0  0  0  0  0  0  0  0  0  0  0  0
  141.3766  137.5251  161.4908 H   0  0  0  0  0  0  0  0  0  0  0  0
  142.8229  135.8183  160.3240 H   0  0  0  0  0  0  0  0  0  0  0  0
  144.6932  134.5830  160.2566 H   0  0  0  0  0  0  0  0  0  0  0  0
  144.6537  132.4344  161.5418 H   0  0  0  0  0  0  0  0  0  0  0  0
  143.0849  132.7515  160.8240 H   0  0  0  0  0  0  0  0  0  0  0  0
  143.3380  133.0454  162.5420 H   0  0  0  0  0  0  0  0  0  0  0  0
  144.7821  135.0144  163.2690 H   0  0  0  0  0  0  0  0  0  0  0  0
  145.3098  137.0006  161.1406 H   0  0  0  0  0  0  0  0  0  0  0  0
  145.2213  137.2026  162.8863 H   0  0  0  0  0  0  0  0  0  0  0  0
  147.6319  137.5040  162.4437 H   0  0  0  0  0  0  0  0  0  0  0  0
  147.3067  136.3899  159.9904 H   0  0  0  0  0  0  0  0  0  0  0  0
  148.8248  136.0651  160.8262 H   0  0  0  0  0  0  0  0  0  0  0  0
  146.7970  134.0719  160.1836 H   0  0  0  0  0  0  0  0  0  0  0  0
  148.2875  133.8453  161.0781 H   0  0  0  0  0  0  0  0  0  0  0  0
  146.5854  133.4089  162.8126 H   0  0  0  0  0  0  0  0  0  0  0  0
  148.4742  135.1590  163.2964 H   0  0  0  0  0  0  0  0  0  0  0  0
  146.9943  135.6212  164.1667 H   0  0  0  0  0  0  0  0  0  0  0  0
  137.6975  138.5181  166.9649 H   0  0  0  0  0  0  0  0  0  0  0  0
  138.3212  136.9680  167.5048 H   0  0  0  0  0  0  0  0  0  0  0  0
  136.8787  137.0379  166.4840 H   0  0  0  0  0  0  0  0  0  0  0  0
  1  2  1  0  0  0  0
  1 25  1  0  0  0  0
  1 26  1  0  0  0  0
  1 27  1  0  0  0  0
  2 23  1  0  0  0  0
  2  3  2  0  0  0  0
  3  4  1  0  0  0  0
  4  5  1  0  0  0  0
  4 18  1  0  0  0  0
  5  6  1  0  0  0  0
  5 28  1  0  0  0  0
  5 29  1  0  0  0  0
  6  7  2  0  0  0  0
  6  8  1  0  0  0  0
  8  9  1  0  0  0  0
  8 30  1  0  0  0  0
  9 10  1  0  0  0  0
  9 11  1  0  0  0  0
  9 31  1  0  0  0  0
 10 32  1  0  0  0  0
 10 33  1  0  0  0  0
 10 34  1  0  0  0  0
 11 16  1  0  0  0  0
 11 12  1  0  0  0  0
 11 35  1  0  0  0  0
 12 13  1  0  0  0  0
 12 36  1  0  0  0  0
 12 37  1  0  0  0  0
 13 17  1  0  0  0  0
 13 14  1  0  0  0  0
 13 38  1  0  0  0  0
 14 15  1  0  0  0  0
 14 39  1  0  0  0  0
 14 40  1  0  0  0  0
 15 16  1  0  0  0  0
 15 41  1  0  0  0  0
 15 42  1  0  0  0  0
 16 17  1  0  0  0  0
 16 43  1  0  0  0  0
 17 44  1  0  0  0  0
 17 45  1  0  0  0  0
 18 19  2  0  0  0  0
 18 20  1  0  0  0  0
 20 21  1  0  0  0  0
 20 23  2  0  0  0  0
 21 22  3  0  0  0  0
 23 24  1  0  0  0  0
 24 46  1  0  0  0  0
 24 47  1  0  0  0  0
 24 48  1  0  0  0  0
M  END
> <s_m_source_file>
AV-unprocessed.smi

> <i_m_source_file_index>
1401

> <i_lp_mmshare_version>
43012

> <i_f3d_flags>
0

> <s_epik_input>
TiNDYyhjMVtDSDNdKWMoPU8pbihuYzFbQ0gzXSlbQ0gyXUMoPU8pW05IXVtDQEhdKFtDSDNdKVtDQEhdKFtDSDJdW0NASF0yMylbQ0BIXShbQ0gyXTMpW0NIMl1bQ0gyXTI=

> <s_epik_cmdline>
J2VwaWtfcHl0aG9uJywgJy1waCcsICc3LjAnLCAnLXRuJywgJzgnLCAnLW1hJywgJzIwMCcsICctbWV0YWxfYmluZGluZycsICctaW1hZScsICc8aW5maWxlLm1hZT4nLCAnLW9tYWUnLCAnPG91dGZpbGUubWFlPic=

> <r_lp_tautomer_probability>
1

> <r_epik_Ionization_Penalty>
2.16501e-08

> <r_epik_Ionization_Penalty_Charging>
2.29436e-11

> <r_epik_Ionization_Penalty_Neutral>
2.16271e-08

> <r_epik_State_Penalty>
-0

> <r_epik_Charging_Adjusted_Penalty>
2.29436e-11

> <i_epik_Tot_Q>
0

> <i_epik_Tot_abs_Q>
0

> <r_epik_Metal_State_Penalty>
-0

> <b_epik_Metal_Only>
0

> <s_lp_Force_Field>
OPLS_2005

> <r_lp_Energy>
65.8104

> <b_lp_Chiralities_Consistent>
1

> <s_lp_Variant>
AV-unprocessed.smi:1401-1

> <Gold.Version>
5.8.1

> <Gold.Id.Protein>
6NUR|6NUR_protein|mol2

> <Gold.PLP.Fitness>
44.3208

> <Gold.PLP.PLP>
-44.4510

> <Gold.PLP.part.hbond>
-1.0000

> <Gold.PLP.part.metal>
0.0000

> <Gold.PLP.part.buried>
-7.0544

> <Gold.PLP.part.nonpolar>
-37.2955

> <Gold.PLP.part.repulsive>
0.2713

> <Gold.PLP.ligand.clash>
0.0000

> <Gold.PLP.ligand.torsion>
0.0722

> <Gold.PLP.Chemscore.Hbond>
0.0000

> <Gold.PLP.Chemscore.CHOScore>
0.0000

> <Gold.PLP.Chemscore.Metal>
0.0000

> <Gold.PLP.Chemscore.Internal.Correction>
0.0143

> <Gold.Rescore>
     Score         DG    S(hbond)    S(metal)    S(lipo)     H(rot)  DE(clash)    DE(int)     intcor
     11.72     -14.42       0.00        0.00     112.03       1.63       0.06       2.64       ----

> <Gold.Chemscore.Fitness>
11.7209

> <Gold.Chemscore.DG>
-14.4194

> <Gold.Chemscore.ZeroCoef>
-5.4800

> <Gold.Chemscore.Hbond>
0.0000

> <Gold.Chemscore.Metal>
0.0000

> <Gold.Chemscore.Lipo>
112.0275

> <Gold.Chemscore.Internal_Hbond>
0.0000

> <Gold.Chemscore.DEClash>
0.0605

> <Gold.Chemscore.DEInternal>
2.6380

> <Gold.Chemscore.Rot>
1.6281

> <Gold.Chemscore.Internal.Correction>
   9.000000E+99

> <Gold.Chemscore.Hbond.Weighted>
-0.0000

> <Gold.Chemscore.Metal.Weighted>
-0.0000

> <Gold.Chemscore.Lipo.Weighted>
-13.1072

> <Gold.Chemscore.Internal_Hbond.Weighted>
0.0000

> <Gold.Chemscore.DEClash.Weighted>
0.0605

> <Gold.Chemscore.DEInternal.Weighted>
2.6380

> <Gold.Chemscore.Rot.Weighted>
4.1678

> <Gold.Chemscore.Internal.Correction.Weighted>
   9.000000E+99

> <Gold.Protein.RotatedTorsions>
[ 6907 6896 6895 6894 ] final   79.16 input  -60.11 | X-H torsion
[ 7974 7965 7964 7962 ] final -166.94 input  175.53 | X-H torsion
[ 8008 7997 7996 7995 ] final  121.18 input   59.86 | X-H torsion
[ 10167 10162 10161 10158 ] final   93.74 input  -65.29 | X-H torsion
[ 10718 10713 10712 10709 ] final   37.21 input   66.30 | X-H torsion
[ 10763 10752 10751 10750 ] final  -37.92 input  -60.55 | X-H torsion
[ 11005 11000 10999 10996 ] final -148.98 input  -57.11 | X-H torsion

> <Gold.Protein.ActiveResidues>
 VAL166  LYS551  ARG553  GLY616  TRP617  ASP618  TYR619  PRO620  LYS621  CYS622 
 ASP623  PHE694  ASN695  SER759  ASP760  ASP761  ALA762  ILE779  LEU786  VAL792 
 PHE793  MET794  SER795  GLU796  ALA797  LYS798  CYS799  TRP800  GLU811  SER814 

> <Gold.Protein.RotatedAtoms>
  152.5188  134.3554  159.9265 H   0  0  0  0  0  0  0  0  0  0  0  0  # atno 6907 bound_to 6896
  151.3505  133.3921  159.2687 H   0  0  0  0  0  0  0  0  0  0  0  0  # atno 6908 bound_to 6896
  150.9730  134.9118  159.7857 H   0  0  0  0  0  0  0  0  0  0  0  0  # atno 6909 bound_to 6896
  144.7234  140.2592  143.6267 H   0  0  0  0  0  0  0  0  0  0  0  0  # atno 7974 bound_to 7965
  156.2675  140.2814  156.1267 H   0  0  0  0  0  0  0  0  0  0  0  0  # atno 8008 bound_to 7997
  155.1098  140.0390  157.2738 H   0  0  0  0  0  0  0  0  0  0  0  0  # atno 8009 bound_to 7997
  154.6751  140.2596  155.6972 H   0  0  0  0  0  0  0  0  0  0  0  0  # atno 8010 bound_to 7997
  139.8150  144.6756  150.9591 H   0  0  0  0  0  0  0  0  0  0  0  0  # atno 10167 bound_to 10162
  157.3442  130.7564  149.6933 H   0  0  0  0  0  0  0  0  0  0  0  0  # atno 10718 bound_to 10713
  153.9043  135.6799  153.4754 H   0  0  0  0  0  0  0  0  0  0  0  0  # atno 10763 bound_to 10752
  153.1112  135.4782  154.9036 H   0  0  0  0  0  0  0  0  0  0  0  0  # atno 10764 bound_to 10752
  154.7559  135.3197  154.8425 H   0  0  0  0  0  0  0  0  0  0  0  0  # atno 10765 bound_to 10752
  140.7555  134.3357  157.5115 H   0  0  0  0  0  0  0  0  0  0  0  0  # atno 11005 bound_to 11000
  145.8152  139.2020  143.1970 LP  0  0  0  0  0  0  0  0  0  0  0  0  # atno 17320 bound_to 7965
  146.0561  140.8019  142.9757 LP  0  0  0  0  0  0  0  0  0  0  0  0  # atno 17321 bound_to 7965
  140.7816  143.4147  151.0936 LP  0  0  0  0  0  0  0  0  0  0  0  0  # atno 17342 bound_to 10162
  139.7811  143.8354  152.3138 LP  0  0  0  0  0  0  0  0  0  0  0  0  # atno 17343 bound_to 10162
  155.9712  130.4159  150.4204 LP  0  0  0  0  0  0  0  0  0  0  0  0  # atno 17370 bound_to 10713
  157.2257  131.0492  151.2521 LP  0  0  0  0  0  0  0  0  0  0  0  0  # atno 17371 bound_to 10713
  139.8780  134.9169  156.3166 LP  0  0  0  0  0  0  0  0  0  0  0  0  # atno 17394 bound_to 11000
  140.9711  133.7327  156.0536 LP  0  0  0  0  0  0  0  0  0  0  0  0  # atno 17395 bound_to 11000

$$$$
