AV-unprocessed.smi:1452|AV-procd|sdf|5910|dock1
  -GOLD-   22720 5593D 1   1.00000     0.00000
 Structure written by MMmdl.
 40 42  0  0  0  0  0  0  0  0  2 V2000
  145.2842  137.5746  154.2413 O   0  0  0  0  0  0  0  0  0  0  0  0
  146.2289  137.1035  153.6104 C   0  0  0  0  0  0  0  0  0  0  0  0
  147.3427  137.8303  153.3772 N   0  0  0  0  0  0  0  0  0  0  0  0
  147.6934  139.1665  153.7332 C   0  0  0  0  0  0  0  0  0  0  0  0
  149.0417  139.3323  154.1232 C   0  0  0  0  0  0  0  0  0  0  0  0
  149.5074  140.6076  154.4975 C   0  0  0  0  0  0  0  0  0  0  0  0
  148.6101  141.6898  154.4755 C   0  0  0  0  0  0  0  0  0  0  0  0
  147.2842  141.4422  154.0772 C   0  0  0  0  0  0  0  0  0  0  0  0
  146.8371  140.2206  153.7164 N   0  0  0  0  0  0  0  0  0  0  0  0
  146.2234  135.8508  153.1270 N   0  0  0  0  0  0  0  0  0  0  0  0
  145.1448  134.8815  153.2866 C   0  0  1  0  0  0  0  0  0  0  0  0
  143.7481  135.5176  153.1725 C   0  0  0  0  0  0  0  0  0  0  0  0
  142.8905  134.4884  152.4100 C   0  0  0  0  0  0  0  0  0  0  0  0
  143.7633  133.3135  152.2239 N   0  3  1  0  0  0  0  0  0  0  0  0
  143.4452  132.4094  151.0970 C   0  0  0  0  0  0  0  0  0  0  0  0
  144.4120  131.2085  151.1199 C   0  0  0  0  0  0  0  0  0  0  0  0
  145.8859  131.6611  151.1506 C   0  0  0  0  0  0  0  0  0  0  0  0
  146.1343  132.6718  152.2871 C   0  0  0  0  0  0  0  0  0  0  0  0
  145.1367  133.8364  152.1681 C   0  0  2  0  0  0  0  0  0  0  0  0
  148.0462  137.3485  152.8363 H   0  0  0  0  0  0  0  0  0  0  0  0
  149.7196  138.4908  154.1357 H   0  0  0  0  0  0  0  0  0  0  0  0
  150.5350  140.7512  154.7968 H   0  0  0  0  0  0  0  0  0  0  0  0
  148.9295  142.6827  154.7560 H   0  0  0  0  0  0  0  0  0  0  0  0
  146.5628  142.2453  154.0471 H   0  0  0  0  0  0  0  0  0  0  0  0
  147.0408  135.5456  152.6168 H   0  0  0  0  0  0  0  0  0  0  0  0
  145.2166  134.3812  154.2547 H   0  0  0  0  0  0  0  0  0  0  0  0
  143.3362  135.7382  154.1580 H   0  0  0  0  0  0  0  0  0  0  0  0
  143.7803  136.4551  152.6148 H   0  0  0  0  0  0  0  0  0  0  0  0
  141.9857  134.2154  152.9537 H   0  0  0  0  0  0  0  0  0  0  0  0
  142.5946  134.8938  151.4412 H   0  0  0  0  0  0  0  0  0  0  0  0
  142.4143  132.0643  151.1837 H   0  0  0  0  0  0  0  0  0  0  0  0
  143.5280  132.9493  150.1523 H   0  0  0  0  0  0  0  0  0  0  0  0
  144.2066  130.5968  151.9994 H   0  0  0  0  0  0  0  0  0  0  0  0
  144.2352  130.5702  150.2537 H   0  0  0  0  0  0  0  0  0  0  0  0
  146.5421  130.7979  151.2653 H   0  0  0  0  0  0  0  0  0  0  0  0
  146.1432  132.1200  150.1951 H   0  0  0  0  0  0  0  0  0  0  0  0
  146.0256  132.1796  153.2544 H   0  0  0  0  0  0  0  0  0  0  0  0
  147.1589  133.0410  152.2368 H   0  0  0  0  0  0  0  0  0  0  0  0
  145.2784  134.3387  151.2081 H   0  0  0  0  0  0  0  0  0  0  0  0
  143.6996  132.7710  153.0735 H   0  0  0  0  0  0  0  0  0  0  0  0
  1  2  2  0  0  0  0
  2  3  1  0  0  0  0
  2 10  1  0  0  0  0
  3  4  1  0  0  0  0
  3 20  1  0  0  0  0
  4  9  1  0  0  0  0
  4  5  2  0  0  0  0
  5  6  1  0  0  0  0
  5 21  1  0  0  0  0
  6  7  2  0  0  0  0
  6 22  1  0  0  0  0
  7  8  1  0  0  0  0
  7 23  1  0  0  0  0
  8  9  2  0  0  0  0
  8 24  1  0  0  0  0
 10 11  1  0  0  0  0
 10 25  1  0  0  0  0
 11 19  1  0  0  0  0
 11 12  1  0  0  0  0
 11 26  1  0  0  0  0
 12 13  1  0  0  0  0
 12 27  1  0  0  0  0
 12 28  1  0  0  0  0
 13 14  1  0  0  0  0
 13 29  1  0  0  0  0
 13 30  1  0  0  0  0
 14 19  1  0  0  0  0
 14 15  1  0  0  0  0
 14 40  1  0  0  0  0
 15 16  1  0  0  0  0
 15 31  1  0  0  0  0
 15 32  1  0  0  0  0
 16 17  1  0  0  0  0
 16 33  1  0  0  0  0
 16 34  1  0  0  0  0
 17 18  1  0  0  0  0
 17 35  1  0  0  0  0
 17 36  1  0  0  0  0
 18 19  1  0  0  0  0
 18 37  1  0  0  0  0
 18 38  1  0  0  0  0
 19 39  1  0  0  0  0
M  CHG  1  14   1
M  END
> <s_m_source_file>
AV-unprocessed.smi

> <i_m_source_file_index>
1452

> <i_lp_mmshare_version>
43012

> <i_f3d_flags>
0

> <s_epik_input>
W0NIMl0xW0NIMl1bQ0gyXVtDSDJdW0NASF0oTjEyKVtDQEBIXShbQ0gyXVtDSDJdMilbTkhdQyg9TylbTkhdYzNbY0hdW2NIXVtjSF1bY0hdbjM=

> <s_epik_cmdline>
J2VwaWtfcHl0aG9uJywgJy1waCcsICc3LjAnLCAnLXRuJywgJzgnLCAnLW1hJywgJzIwMCcsICctbWV0YWxfYmluZGluZycsICctaW1hZScsICc8aW5maWxlLm1hZT4nLCAnLW9tYWUnLCAnPG91dGZpbGUubWFlPic=

> <r_epik_Ionization_Penalty>
0.00100813

> <r_epik_Ionization_Penalty_Charging>
0.000974069

> <r_epik_Ionization_Penalty_Neutral>
3.40643e-05

> <r_epik_State_Penalty>
0.000633842

> <r_epik_Charging_Adjusted_Penalty>
0.00160791

> <i_epik_Tot_Q>
1

> <i_epik_Tot_abs_Q>
1

> <r_epik_Metal_State_Penalty>
-0

> <b_epik_Metal_Only>
0

> <s_lp_Force_Field>
OPLS_2005

> <r_lp_Energy>
38.162

> <b_lp_Chiralities_Consistent>
1

> <s_lp_Variant>
AV-unprocessed.smi:1452-8

> <Gold.Version>
5.8.1

> <Gold.Id.Protein>
6NUR|6NUR_protein|mol2

> <Gold.PLP.Fitness>
37.2650

> <Gold.PLP.PLP>
-30.4931

> <Gold.PLP.part.hbond>
-2.5245

> <Gold.PLP.part.metal>
0.0000

> <Gold.PLP.part.buried>
-2.6280

> <Gold.PLP.part.nonpolar>
-26.1526

> <Gold.PLP.part.repulsive>
0.2787

> <Gold.PLP.ligand.clash>
0.0000

> <Gold.PLP.ligand.torsion>
0.6232

> <Gold.PLP.Chemscore.Hbond>
2.6692

> <Gold.PLP.Chemscore.CHOScore>
0.0000

> <Gold.PLP.Chemscore.Metal>
0.0000

> <Gold.Chemscore.Hbonds>
donor molecule, donor type, donor heavy atom, donor atom, acceptor molecule, acceptor atom, score
      L1  H     3    20       P1  7948  1.00
      L1  H    10    25       P1  7948  0.61
      L1  H    14    40       P1 10957  1.04

> <Gold.PLP.Chemscore.Internal.Correction>
0.0106

> <Gold.Rescore>
     Score         DG    S(hbond)    S(metal)    S(lipo)     H(rot)  DE(clash)    DE(int)     intcor
     16.48     -18.78       1.90        0.00      81.31       1.00       0.15       2.15       ----

> <Gold.Chemscore.Fitness>
16.4842

> <Gold.Chemscore.DG>
-18.7792

> <Gold.Chemscore.ZeroCoef>
-5.4800

> <Gold.Chemscore.Hbond>
1.8999

> <Gold.Chemscore.Metal>
0.0000

> <Gold.Chemscore.Lipo>
81.3134

> <Gold.Chemscore.Internal_Hbond>
0.0000

> <Gold.Chemscore.DEClash>
0.1470

> <Gold.Chemscore.DEInternal>
2.1480

> <Gold.Chemscore.Rot>
1.0000

> <Gold.Chemscore.Internal.Correction>
   9.000000E+99

> <Gold.Chemscore.Hbonds>
donor molecule, donor type, donor heavy atom, donor atom, acceptor molecule, acceptor atom, score
      L1  H     3    20       P1  7948  1.00
      L1  H    10    25       P1  7948  0.61
      L1  H    14    40       P1 10957  0.18

> <Gold.Chemscore.Hbond.Weighted>
-6.3455

> <Gold.Chemscore.Metal.Weighted>
-0.0000

> <Gold.Chemscore.Lipo.Weighted>
-9.5137

> <Gold.Chemscore.Internal_Hbond.Weighted>
0.0000

> <Gold.Chemscore.DEClash.Weighted>
0.1470

> <Gold.Chemscore.DEInternal.Weighted>
2.1480

> <Gold.Chemscore.Rot.Weighted>
2.5600

> <Gold.Chemscore.Internal.Correction.Weighted>
   9.000000E+99

> <Gold.Protein.RotatedTorsions>
[ 6907 6896 6895 6894 ] final  121.75 input  -60.11 | X-H torsion
[ 7974 7965 7964 7962 ] final -102.77 input  175.53 | X-H torsion
[ 8008 7997 7996 7995 ] final  -45.15 input   59.86 | X-H torsion
[ 10167 10162 10161 10158 ] final  -61.16 input  -65.29 | X-H torsion
[ 10718 10713 10712 10709 ] final    2.62 input   66.30 | X-H torsion
[ 10763 10752 10751 10750 ] final -112.70 input  -60.55 | X-H torsion
[ 11005 11000 10999 10996 ] final -122.27 input  -57.11 | X-H torsion

> <Gold.Protein.ActiveResidues>
 VAL166  LYS551  ARG553  GLY616  TRP617  ASP618  TYR619  PRO620  LYS621  CYS622 
 ASP623  PHE694  ASN695  SER759  ASP760  ASP761  ALA762  ILE779  LEU786  VAL792 
 PHE793  MET794  SER795  GLU796  ALA797  LYS798  CYS799  TRP800  GLU811  SER814 

> <Gold.Protein.RotatedAtoms>
  152.4297  133.7256  159.6557 H   0  0  0  0  0  0  0  0  0  0  0  0  # atno 6907 bound_to 6896
  150.8175  133.8300  159.3160 H   0  0  0  0  0  0  0  0  0  0  0  0  # atno 6908 bound_to 6896
  151.5992  135.1050  160.0108 H   0  0  0  0  0  0  0  0  0  0  0  0  # atno 6909 bound_to 6896
  145.2644  140.9279  143.3022 H   0  0  0  0  0  0  0  0  0  0  0  0  # atno 7974 bound_to 7965
  154.4000  140.1404  156.3800 H   0  0  0  0  0  0  0  0  0  0  0  0  # atno 8008 bound_to 7997
  155.8012  140.3476  155.5383 H   0  0  0  0  0  0  0  0  0  0  0  0  # atno 8009 bound_to 7997
  155.8481  140.0937  157.1682 H   0  0  0  0  0  0  0  0  0  0  0  0  # atno 8010 bound_to 7997
  140.6024  143.2365  151.5898 H   0  0  0  0  0  0  0  0  0  0  0  0  # atno 10167 bound_to 10162
  156.8658  130.5602  149.5660 H   0  0  0  0  0  0  0  0  0  0  0  0  # atno 10718 bound_to 10713
  154.8362  135.4481  154.1234 H   0  0  0  0  0  0  0  0  0  0  0  0  # atno 10763 bound_to 10752
  153.2464  135.6922  153.7733 H   0  0  0  0  0  0  0  0  0  0  0  0  # atno 10764 bound_to 10752
  153.7062  135.3364  155.3212 H   0  0  0  0  0  0  0  0  0  0  0  0  # atno 10765 bound_to 10752
  141.0008  134.0406  157.3540 H   0  0  0  0  0  0  0  0  0  0  0  0  # atno 11005 bound_to 11000
  144.9390  139.4211  143.6458 LP  0  0  0  0  0  0  0  0  0  0  0  0  # atno 17320 bound_to 7965
  146.3265  139.8339  142.8903 LP  0  0  0  0  0  0  0  0  0  0  0  0  # atno 17321 bound_to 7965
  139.5301  144.2942  152.1127 LP  0  0  0  0  0  0  0  0  0  0  0  0  # atno 17342 bound_to 10162
  140.2126  144.4547  150.6379 LP  0  0  0  0  0  0  0  0  0  0  0  0  # atno 17343 bound_to 10162
  156.0753  130.5776  150.9461 LP  0  0  0  0  0  0  0  0  0  0  0  0  # atno 17370 bound_to 10713
  157.6224  131.0928  150.8597 LP  0  0  0  0  0  0  0  0  0  0  0  0  # atno 17371 bound_to 10713
  139.9038  135.0173  156.7391 LP  0  0  0  0  0  0  0  0  0  0  0  0  # atno 17394 bound_to 11000
  140.6892  133.9405  155.7956 LP  0  0  0  0  0  0  0  0  0  0  0  0  # atno 17395 bound_to 11000

$$$$
