AV-unprocessed.smi:870|AV-procd|sdf|4010|dock8
  -GOLD-   22720 1503D 1   1.00000     0.00000
 Structure written by MMmdl.
 47 49  0  0  0  0  0  0  0  0  2 V2000
  150.6641  136.4330  155.2931 C   0  0  0  0  0  0  0  0  0  0  0  0
  151.7686  137.2893  155.0598 O   0  0  0  0  0  0  0  0  0  0  0  0
  151.5082  138.2471  154.0465 C   0  0  0  0  0  0  0  0  0  0  0  0
  150.4915  139.2532  154.4769 C   0  0  0  0  0  0  0  0  0  0  0  0
  149.7812  140.0787  153.6568 N   0  3  0  0  0  0  0  0  0  0  0  0
  148.9257  140.8785  154.4156 C   0  0  0  0  0  0  0  0  0  0  0  0
  148.0155  141.8593  154.0337 C   0  0  0  0  0  0  0  0  0  0  0  0
  147.2930  142.4891  155.0685 C   0  0  0  0  0  0  0  0  0  0  0  0
  147.4889  142.1380  156.4202 C   0  0  0  0  0  0  0  0  0  0  0  0
  148.4152  141.1424  156.7951 C   0  0  0  0  0  0  0  0  0  0  0  0
  149.1243  140.5246  155.7657 C   0  0  0  0  0  0  0  0  0  0  0  0
  150.0968  139.5193  155.7554 N   0  0  0  0  0  0  0  0  0  0  0  0
  150.5282  138.9250  157.0300 C   0  0  0  0  0  0  0  0  0  0  0  0
  151.7172  139.6709  157.6686 C   0  0  1  0  0  0  0  0  0  0  0  0
  152.9018  139.3176  156.9821 O   0  0  0  0  0  0  0  0  0  0  0  0
  151.5442  141.1953  157.5903 C   0  0  0  0  0  0  0  0  0  0  0  0
  152.3835  141.7982  158.5659 O   0  0  0  0  0  0  0  0  0  0  0  0
  152.3447  143.1698  158.7120 C   0  0  0  0  0  0  0  0  0  0  0  0
  151.7798  144.0487  157.7522 C   0  0  0  0  0  0  0  0  0  0  0  0
  151.7767  145.4396  157.9695 C   0  0  0  0  0  0  0  0  0  0  0  0
  152.3351  145.9715  159.1452 C   0  0  0  0  0  0  0  0  0  0  0  0
  152.8966  145.1101  160.1048 C   0  0  0  0  0  0  0  0  0  0  0  0
  152.9027  143.7154  159.8920 C   0  0  0  0  0  0  0  0  0  0  0  0
  153.5138  142.8010  160.9375 C   0  0  0  0  0  0  0  0  0  0  0  0
  150.9168  135.7116  156.0703 H   0  0  0  0  0  0  0  0  0  0  0  0
  150.3973  135.8780  154.3928 H   0  0  0  0  0  0  0  0  0  0  0  0
  149.7925  136.9968  155.6277 H   0  0  0  0  0  0  0  0  0  0  0  0
  152.4294  138.7694  153.7849 H   0  0  0  0  0  0  0  0  0  0  0  0
  151.1456  137.7484  153.1464 H   0  0  0  0  0  0  0  0  0  0  0  0
  147.8638  142.1298  152.9990 H   0  0  0  0  0  0  0  0  0  0  0  0
  146.5738  143.2563  154.8206 H   0  0  0  0  0  0  0  0  0  0  0  0
  146.9168  142.6420  157.1858 H   0  0  0  0  0  0  0  0  0  0  0  0
  148.5572  140.8791  157.8329 H   0  0  0  0  0  0  0  0  0  0  0  0
  149.6721  138.9284  157.7059 H   0  0  0  0  0  0  0  0  0  0  0  0
  150.7733  137.8767  156.8534 H   0  0  0  0  0  0  0  0  0  0  0  0
  151.8133  139.3682  158.7119 H   0  0  0  0  0  0  0  0  0  0  0  0
  153.1189  138.4244  157.2029 H   0  0  0  0  0  0  0  0  0  0  0  0
  151.7646  141.5586  156.5849 H   0  0  0  0  0  0  0  0  0  0  0  0
  150.5089  141.4526  157.8205 H   0  0  0  0  0  0  0  0  0  0  0  0
  151.3400  143.6809  156.8378 H   0  0  0  0  0  0  0  0  0  0  0  0
  151.3441  146.0997  157.2322 H   0  0  0  0  0  0  0  0  0  0  0  0
  152.3324  147.0388  159.3115 H   0  0  0  0  0  0  0  0  0  0  0  0
  153.3236  145.5258  161.0059 H   0  0  0  0  0  0  0  0  0  0  0  0
  153.9166  143.3679  161.7772 H   0  0  0  0  0  0  0  0  0  0  0  0
  154.3258  142.2173  160.5032 H   0  0  0  0  0  0  0  0  0  0  0  0
  152.7621  142.1119  161.3232 H   0  0  0  0  0  0  0  0  0  0  0  0
  149.8783  140.0870  152.6496 H   0  0  0  0  0  0  0  0  0  0  0  0
  1  2  1  0  0  0  0
  1 25  1  0  0  0  0
  1 26  1  0  0  0  0
  1 27  1  0  0  0  0
  2  3  1  0  0  0  0
  3  4  1  0  0  0  0
  3 28  1  0  0  0  0
  3 29  1  0  0  0  0
  4 12  1  0  0  0  0
  4  5  2  0  0  0  0
  5  6  1  0  0  0  0
  5 47  1  0  0  0  0
  6 11  2  0  0  0  0
  6  7  1  0  0  0  0
  7  8  2  0  0  0  0
  7 30  1  0  0  0  0
  8  9  1  0  0  0  0
  8 31  1  0  0  0  0
  9 10  2  0  0  0  0
  9 32  1  0  0  0  0
 10 11  1  0  0  0  0
 10 33  1  0  0  0  0
 11 12  1  0  0  0  0
 12 13  1  0  0  0  0
 13 14  1  0  0  0  0
 13 34  1  0  0  0  0
 13 35  1  0  0  0  0
 14 15  1  0  0  0  0
 14 16  1  0  0  0  0
 14 36  1  0  0  0  0
 15 37  1  0  0  0  0
 16 17  1  0  0  0  0
 16 38  1  0  0  0  0
 16 39  1  0  0  0  0
 17 18  1  0  0  0  0
 18 23  1  0  0  0  0
 18 19  2  0  0  0  0
 19 20  1  0  0  0  0
 19 40  1  0  0  0  0
 20 21  2  0  0  0  0
 20 41  1  0  0  0  0
 21 22  1  0  0  0  0
 21 42  1  0  0  0  0
 22 23  2  0  0  0  0
 22 43  1  0  0  0  0
 23 24  1  0  0  0  0
 24 44  1  0  0  0  0
 24 45  1  0  0  0  0
 24 46  1  0  0  0  0
M  CHG  1   5   1
M  END
> <s_m_source_file>
AV-unprocessed.smi

> <i_m_source_file_index>
870

> <i_lp_mmshare_version>
43012

> <i_f3d_flags>
0

> <s_epik_input>
W2NIXTFbY0hdW2NIXVtjSF1jKGMxMiluKGMobjIpW0NIMl1PW0NIM10pW0NIMl1bQ0BIXShbT0hdKVtDSDJdT2MzW2NIXVtjSF1bY0hdW2NIXWMzW0NIM10=

> <s_epik_cmdline>
J2VwaWtfcHl0aG9uJywgJy1waCcsICc3LjAnLCAnLXRuJywgJzgnLCAnLW1hJywgJzIwMCcsICctbWV0YWxfYmluZGluZycsICctaW1hZScsICc8aW5maWxlLm1hZT4nLCAnLW9tYWUnLCAnPG91dGZpbGUubWFlPic=

> <r_lp_tautomer_probability>
1

> <r_epik_Ionization_Penalty>
1.55338

> <r_epik_Ionization_Penalty_Charging>
1.55338

> <r_epik_Ionization_Penalty_Neutral>
2.3993e-06

> <r_epik_State_Penalty>
1.64778

> <r_epik_Charging_Adjusted_Penalty>
3.20115

> <i_epik_Tot_Q>
1

> <i_epik_Tot_abs_Q>
1

> <r_epik_Metal_State_Penalty>
5.70266

> <b_epik_Metal_Only>
0

> <s_lp_Force_Field>
OPLS_2005

> <r_lp_Energy>
19.1039

> <b_lp_Chiralities_Consistent>
1

> <s_lp_Variant>
AV-unprocessed.smi:870-4

> <Gold.Version>
5.8.1

> <Gold.Id.Protein>
6NUR|6NUR_protein|mol2

> <Gold.PLP.Fitness>
50.3348

> <Gold.PLP.PLP>
-48.9844

> <Gold.PLP.part.hbond>
-2.4256

> <Gold.PLP.part.metal>
0.0000

> <Gold.PLP.part.buried>
-8.5789

> <Gold.PLP.part.nonpolar>
-39.7286

> <Gold.PLP.part.repulsive>
1.2594

> <Gold.PLP.ligand.clash>
0.0000

> <Gold.PLP.ligand.torsion>
1.1713

> <Gold.PLP.Chemscore.Hbond>
1.2099

> <Gold.PLP.Chemscore.CHOScore>
0.0000

> <Gold.PLP.Chemscore.Metal>
0.0000

> <Gold.Chemscore.Hbonds>
donor molecule, donor type, donor heavy atom, donor atom, acceptor molecule, acceptor atom, score
      L1  H     5    47       P1  7957  0.94
      P1  H  7997  8010       L1    15  0.09
      P1  H 10752 10765       L1     2  0.18

> <Gold.PLP.Chemscore.Internal.Correction>
0.0633

> <Gold.Rescore>
     Score         DG    S(hbond)    S(metal)    S(lipo)     H(rot)  DE(clash)    DE(int)     intcor
     14.48     -17.03       0.96        0.00     124.87       2.45       0.03       2.52       ----

> <Gold.Chemscore.Fitness>
14.4843

> <Gold.Chemscore.DG>
-17.0311

> <Gold.Chemscore.ZeroCoef>
-5.4800

> <Gold.Chemscore.Hbond>
0.9616

> <Gold.Chemscore.Metal>
0.0000

> <Gold.Chemscore.Lipo>
124.8698

> <Gold.Chemscore.Internal_Hbond>
0.0000

> <Gold.Chemscore.DEClash>
0.0263

> <Gold.Chemscore.DEInternal>
2.5204

> <Gold.Chemscore.Rot>
2.4494

> <Gold.Chemscore.Internal.Correction>
   9.000000E+99

> <Gold.Chemscore.Hbonds>
donor molecule, donor type, donor heavy atom, donor atom, acceptor molecule, acceptor atom, score
      L1  H     5    47       P1  7957  0.90
      P1  H  7997  8010       L1    15  0.07
      P1  H 10752 10765       L1     2  0.01

> <Gold.Chemscore.Hbond.Weighted>
-3.2117

> <Gold.Chemscore.Metal.Weighted>
-0.0000

> <Gold.Chemscore.Lipo.Weighted>
-14.6098

> <Gold.Chemscore.Internal_Hbond.Weighted>
0.0000

> <Gold.Chemscore.DEClash.Weighted>
0.0263

> <Gold.Chemscore.DEInternal.Weighted>
2.5204

> <Gold.Chemscore.Rot.Weighted>
6.2704

> <Gold.Chemscore.Internal.Correction.Weighted>
   9.000000E+99

> <Gold.Protein.RotatedTorsions>
[ 6907 6896 6895 6894 ] final -116.80 input  -60.11 | X-H torsion
[ 7974 7965 7964 7962 ] final -164.97 input  175.53 | X-H torsion
[ 8008 7997 7996 7995 ] final  115.10 input   59.86 | X-H torsion
[ 10167 10162 10161 10158 ] final -110.77 input  -65.29 | X-H torsion
[ 10718 10713 10712 10709 ] final -163.29 input   66.30 | X-H torsion
[ 10763 10752 10751 10750 ] final  143.14 input  -60.55 | X-H torsion
[ 11005 11000 10999 10996 ] final -142.80 input  -57.11 | X-H torsion

> <Gold.Protein.ActiveResidues>
 VAL166  LYS551  ARG553  GLY616  TRP617  ASP618  TYR619  PRO620  LYS621  CYS622 
 ASP623  PHE694  ASN695  SER759  ASP760  ASP761  ALA762  ILE779  LEU786  VAL792 
 PHE793  MET794  SER795  GLU796  ALA797  LYS798  CYS799  TRP800  GLU811  SER814 

> <Gold.Protein.RotatedAtoms>
  150.8085  133.8466  159.3193 H   0  0  0  0  0  0  0  0  0  0  0  0  # atno 6907 bound_to 6896
  151.6258  135.1026  160.0121 H   0  0  0  0  0  0  0  0  0  0  0  0  # atno 6908 bound_to 6896
  152.4176  133.7024  159.6488 H   0  0  0  0  0  0  0  0  0  0  0  0  # atno 6909 bound_to 6896
  144.7282  140.2882  143.6225 H   0  0  0  0  0  0  0  0  0  0  0  0  # atno 7974 bound_to 7965
  156.2361  140.2945  156.0317 H   0  0  0  0  0  0  0  0  0  0  0  0  # atno 8008 bound_to 7997
  155.2087  140.0412  157.2947 H   0  0  0  0  0  0  0  0  0  0  0  0  # atno 8009 bound_to 7997
  154.6082  140.2445  155.7711 H   0  0  0  0  0  0  0  0  0  0  0  0  # atno 8010 bound_to 7997
  140.1409  143.4280  152.1563 H   0  0  0  0  0  0  0  0  0  0  0  0  # atno 10167 bound_to 10162
  156.6226  130.8897  151.2961 H   0  0  0  0  0  0  0  0  0  0  0  0  # atno 10718 bound_to 10713
  153.9675  135.2954  155.3429 H   0  0  0  0  0  0  0  0  0  0  0  0  # atno 10763 bound_to 10752
  154.7341  135.5054  153.9015 H   0  0  0  0  0  0  0  0  0  0  0  0  # atno 10764 bound_to 10752
  153.0916  135.6709  153.9954 H   0  0  0  0  0  0  0  0  0  0  0  0  # atno 10765 bound_to 10752
  140.8189  134.2655  157.4909 H   0  0  0  0  0  0  0  0  0  0  0  0  # atno 11005 bound_to 11000
  145.7881  139.1916  143.2118 LP  0  0  0  0  0  0  0  0  0  0  0  0  # atno 17320 bound_to 7965
  146.0778  140.7798  142.9656 LP  0  0  0  0  0  0  0  0  0  0  0  0  # atno 17321 bound_to 7965
  139.5472  144.7309  151.4545 LP  0  0  0  0  0  0  0  0  0  0  0  0  # atno 17342 bound_to 10162
  140.6761  143.8186  150.7060 LP  0  0  0  0  0  0  0  0  0  0  0  0  # atno 17343 bound_to 10162
  157.7223  130.9575  150.1489 LP  0  0  0  0  0  0  0  0  0  0  0  0  # atno 17370 bound_to 10713
  156.2299  130.3681  149.8457 LP  0  0  0  0  0  0  0  0  0  0  0  0  # atno 17371 bound_to 10713
  139.8709  134.9524  156.4115 LP  0  0  0  0  0  0  0  0  0  0  0  0  # atno 17394 bound_to 11000
  140.9120  133.7705  155.9802 LP  0  0  0  0  0  0  0  0  0  0  0  0  # atno 17395 bound_to 11000

$$$$
