AV-unprocessed.smi:1033|AV-procd|sdf|4505|dock5
  -GOLD-   22720 2503D 1   1.00000     0.00000
 Structure written by MMmdl.
 57 59  0  0  0  0  0  0  0  0  3 V2000
  151.6447  144.9357  160.7231 C   0  0  0  0  0  0  0  0  0  0  0  0
  151.6773  143.7217  159.8103 C   0  0  0  0  0  0  0  0  0  0  0  0
  150.9598  143.7735  158.5935 C   0  0  0  0  0  0  0  0  0  0  0  0
  151.0106  142.6486  157.7789 C   0  0  0  0  0  0  0  0  0  0  0  0
  150.4238  142.3888  156.5384 N   0  3  0  0  0  0  0  0  0  0  0  0
  150.7648  141.1359  156.1275 C   0  0  0  0  0  0  0  0  0  0  0  0
  151.5567  140.5904  157.0905 N   0  0  0  0  0  0  0  0  0  0  0  0
  152.1971  139.2702  157.1517 C   0  0  0  0  0  0  0  0  0  0  0  0
  151.3216  138.2127  157.8572 C   0  0  1  0  0  0  0  0  0  0  0  0
  150.9156  138.6489  159.1393 O   0  0  0  0  0  0  0  0  0  0  0  0
  150.1013  137.7429  157.0355 C   0  0  0  0  0  0  0  0  0  0  0  0
  150.3664  137.2470  155.6773 N   0  0  0  0  0  0  0  0  0  0  0  0
  149.4987  136.1284  155.3092 C   0  0  0  0  0  0  0  0  0  0  0  0
  148.0337  136.5478  155.0655 C   0  0  0  0  0  0  0  0  0  0  0  0
  147.9595  137.6015  154.0203 N   0  3  0  0  0  0  0  0  0  0  0  0
  146.5608  137.9934  153.7122 C   0  0  0  0  0  0  0  0  0  0  0  0
  146.4211  138.7061  152.3519 C   0  0  1  0  0  0  0  0  0  0  0  0
  146.8839  140.1703  152.3866 C   0  0  0  0  0  0  0  0  0  0  0  0
  147.2120  138.0172  151.4068 O   0  0  0  0  0  0  0  0  0  0  0  0
  148.8383  138.7501  154.3680 C   0  0  0  0  0  0  0  0  0  0  0  0
  150.2775  138.2611  154.6238 C   0  0  0  0  0  0  0  0  0  0  0  0
  151.7409  141.4992  158.1376 C   0  0  0  0  0  0  0  0  0  0  0  0
  152.4541  141.4312  159.3318 C   0  0  0  0  0  0  0  0  0  0  0  0
  152.4151  142.5652  160.1742 C   0  0  0  0  0  0  0  0  0  0  0  0
  153.1839  142.5214  161.4839 C   0  0  0  0  0  0  0  0  0  0  0  0
  151.0143  145.7257  160.3139 H   0  0  0  0  0  0  0  0  0  0  0  0
  152.6475  145.3431  160.8525 H   0  0  0  0  0  0  0  0  0  0  0  0
  151.2490  144.6695  161.7035 H   0  0  0  0  0  0  0  0  0  0  0  0
  150.3969  144.6506  158.3091 H   0  0  0  0  0  0  0  0  0  0  0  0
  150.4604  140.6610  155.2057 H   0  0  0  0  0  0  0  0  0  0  0  0
  152.4128  138.9708  156.1256 H   0  0  0  0  0  0  0  0  0  0  0  0
  153.1607  139.3762  157.6516 H   0  0  0  0  0  0  0  0  0  0  0  0
  151.9346  137.3298  158.0393 H   0  0  0  0  0  0  0  0  0  0  0  0
  151.3543  138.1200  159.7879 H   0  0  0  0  0  0  0  0  0  0  0  0
  149.6503  136.9255  157.5997 H   0  0  0  0  0  0  0  0  0  0  0  0
  149.3469  138.5291  157.0246 H   0  0  0  0  0  0  0  0  0  0  0  0
  149.8874  135.6615  154.4031 H   0  0  0  0  0  0  0  0  0  0  0  0
  149.5401  135.3570  156.0791 H   0  0  0  0  0  0  0  0  0  0  0  0
  147.4617  135.6765  154.7447 H   0  0  0  0  0  0  0  0  0  0  0  0
  147.5700  136.9037  155.9865 H   0  0  0  0  0  0  0  0  0  0  0  0
  145.9301  137.1026  153.7015 H   0  0  0  0  0  0  0  0  0  0  0  0
  146.1819  138.6252  154.5176 H   0  0  0  0  0  0  0  0  0  0  0  0
  145.3924  138.6585  151.9963 H   0  0  0  0  0  0  0  0  0  0  0  0
  146.2771  140.7609  153.0732 H   0  0  0  0  0  0  0  0  0  0  0  0
  146.8013  140.6305  151.4013 H   0  0  0  0  0  0  0  0  0  0  0  0
  147.9235  140.2530  152.7061 H   0  0  0  0  0  0  0  0  0  0  0  0
  147.3304  137.1262  151.6997 H   0  0  0  0  0  0  0  0  0  0  0  0
  148.8555  139.4713  153.5522 H   0  0  0  0  0  0  0  0  0  0  0  0
  148.4450  139.2747  155.2397 H   0  0  0  0  0  0  0  0  0  0  0  0
  150.9261  139.1061  154.8492 H   0  0  0  0  0  0  0  0  0  0  0  0
  150.6713  137.8404  153.6975 H   0  0  0  0  0  0  0  0  0  0  0  0
  153.0155  140.5508  159.6083 H   0  0  0  0  0  0  0  0  0  0  0  0
  153.7033  141.5709  161.6103 H   0  0  0  0  0  0  0  0  0  0  0  0
  152.5078  142.6465  162.3300 H   0  0  0  0  0  0  0  0  0  0  0  0
  153.9305  143.3151  161.5160 H   0  0  0  0  0  0  0  0  0  0  0  0
  148.3364  137.1877  153.1796 H   0  0  0  0  0  0  0  0  0  0  0  0
  149.8358  143.0190  156.0080 H   0  0  0  0  0  0  0  0  0  0  0  0
  1  2  1  0  0  0  0
  1 26  1  0  0  0  0
  1 27  1  0  0  0  0
  1 28  1  0  0  0  0
  2 24  1  0  0  0  0
  2  3  2  0  0  0  0
  3  4  1  0  0  0  0
  3 29  1  0  0  0  0
  4 22  2  0  0  0  0
  4  5  1  0  0  0  0
  5  6  2  0  0  0  0
  5 57  1  0  0  0  0
  6  7  1  0  0  0  0
  6 30  1  0  0  0  0
  7  8  1  0  0  0  0
  7 22  1  0  0  0  0
  8  9  1  0  0  0  0
  8 31  1  0  0  0  0
  8 32  1  0  0  0  0
  9 10  1  0  0  0  0
  9 11  1  0  0  0  0
  9 33  1  0  0  0  0
 10 34  1  0  0  0  0
 11 12  1  0  0  0  0
 11 35  1  0  0  0  0
 11 36  1  0  0  0  0
 12 21  1  0  0  0  0
 12 13  1  0  0  0  0
 13 14  1  0  0  0  0
 13 37  1  0  0  0  0
 13 38  1  0  0  0  0
 14 15  1  0  0  0  0
 14 39  1  0  0  0  0
 14 40  1  0  0  0  0
 15 16  1  0  0  0  0
 15 20  1  0  0  0  0
 15 56  1  0  0  0  0
 16 17  1  0  0  0  0
 16 41  1  0  0  0  0
 16 42  1  0  0  0  0
 17 18  1  0  0  0  0
 17 19  1  0  0  0  0
 17 43  1  0  0  0  0
 18 44  1  0  0  0  0
 18 45  1  0  0  0  0
 18 46  1  0  0  0  0
 19 47  1  0  0  0  0
 20 21  1  0  0  0  0
 20 48  1  0  0  0  0
 20 49  1  0  0  0  0
 21 50  1  0  0  0  0
 21 51  1  0  0  0  0
 22 23  1  0  0  0  0
 23 24  2  0  0  0  0
 23 52  1  0  0  0  0
 24 25  1  0  0  0  0
 25 53  1  0  0  0  0
 25 54  1  0  0  0  0
 25 55  1  0  0  0  0
M  CHG  1   5   1
M  CHG  1  15   1
M  END
> <s_m_source_file>
AV-unprocessed.smi

> <i_m_source_file_index>
1033

> <i_lp_mmshare_version>
43012

> <i_f3d_flags>
0

> <s_epik_input>
W0NIM11jKFtjSF0xKWMoW0NIM10pW2NIXWMoYzEyKW4oW2NIXW4yKVtDSDJdW0NASF0oW09IXSlbQ0gyXU4zW0NIMl1bQ0gyXU4oW0NIMl1bQ0gyXTMpW0NIMl1bQ0BIXShbQ0gzXSlbT0hd

> <s_epik_cmdline>
J2VwaWtfcHl0aG9uJywgJy1waCcsICc3LjAnLCAnLXRuJywgJzgnLCAnLW1hJywgJzIwMCcsICctbWV0YWxfYmluZGluZycsICctaW1hZScsICc8aW5maWxlLm1hZT4nLCAnLW9tYWUnLCAnPG91dGZpbGUubWFlPic=

> <r_epik_Ionization_Penalty>
1.28617

> <r_epik_Ionization_Penalty_Charging>
1.23646

> <r_epik_Ionization_Penalty_Neutral>
0.0497112

> <r_epik_State_Penalty>
1.79157

> <r_epik_Charging_Adjusted_Penalty>
3.02803

> <i_epik_Tot_Q>
2

> <i_epik_Tot_abs_Q>
2

> <r_epik_Metal_State_Penalty>
5.81739

> <b_epik_Metal_Only>
0

> <s_lp_Force_Field>
OPLS_2005

> <r_lp_Energy>
43.5011

> <b_lp_Chiralities_Consistent>
1

> <s_lp_Variant>
AV-unprocessed.smi:1033-16

> <Gold.Version>
5.8.1

> <Gold.Id.Protein>
6NUR|6NUR_protein|mol2

> <Gold.PLP.Fitness>
62.8744

> <Gold.PLP.PLP>
-48.5693

> <Gold.PLP.part.hbond>
-4.7590

> <Gold.PLP.part.metal>
0.0000

> <Gold.PLP.part.buried>
-4.5086

> <Gold.PLP.part.nonpolar>
-40.4063

> <Gold.PLP.part.repulsive>
0.1659

> <Gold.PLP.ligand.clash>
0.0000

> <Gold.PLP.ligand.torsion>
1.1565

> <Gold.PLP.Chemscore.Hbond>
5.4780

> <Gold.PLP.Chemscore.CHOScore>
0.0000

> <Gold.PLP.Chemscore.Metal>
0.0000

> <Gold.Chemscore.Hbonds>
donor molecule, donor type, donor heavy atom, donor atom, acceptor molecule, acceptor atom, score
      L1  H     5    57       P1  8028  2.00
      L1  H    15    56       P1  7948  2.00
      L1  H    19    47       P1  7948  0.51
      P1  H  7954  7966       L1    19  0.85

> <Gold.PLP.Chemscore.Internal.Correction>
0.1842

> <Gold.Rescore>
     Score         DG    S(hbond)    S(metal)    S(lipo)     H(rot)  DE(clash)    DE(int)     intcor
     21.24     -23.39       3.05        0.00     134.72       3.15       0.94       1.21       ----

> <Gold.Chemscore.Fitness>
21.2350

> <Gold.Chemscore.DG>
-23.3857

> <Gold.Chemscore.ZeroCoef>
-5.4800

> <Gold.Chemscore.Hbond>
3.0547

> <Gold.Chemscore.Metal>
0.0000

> <Gold.Chemscore.Lipo>
134.7230

> <Gold.Chemscore.Internal_Hbond>
0.0000

> <Gold.Chemscore.DEClash>
0.9450

> <Gold.Chemscore.DEInternal>
1.2057

> <Gold.Chemscore.Rot>
3.1483

> <Gold.Chemscore.Internal.Correction>
   9.000000E+99

> <Gold.Chemscore.Hbonds>
donor molecule, donor type, donor heavy atom, donor atom, acceptor molecule, acceptor atom, score
      L1  H     5    57       P1  8028  0.96
      L1  H    15    56       P1  7948  1.00
      L1  H    19    47       P1  7948  0.50
      P1  H  7954  7966       L1    19  0.15

> <Gold.Chemscore.Hbond.Weighted>
-10.2029

> <Gold.Chemscore.Metal.Weighted>
-0.0000

> <Gold.Chemscore.Lipo.Weighted>
-15.7626

> <Gold.Chemscore.Internal_Hbond.Weighted>
0.0000

> <Gold.Chemscore.DEClash.Weighted>
0.9450

> <Gold.Chemscore.DEInternal.Weighted>
1.2057

> <Gold.Chemscore.Rot.Weighted>
8.0597

> <Gold.Chemscore.Internal.Correction.Weighted>
   9.000000E+99

> <Gold.Protein.RotatedTorsions>
[ 6907 6896 6895 6894 ] final -170.51 input  -60.11 | X-H torsion
[ 7974 7965 7964 7962 ] final -103.21 input  175.53 | X-H torsion
[ 8008 7997 7996 7995 ] final  146.95 input   59.86 | X-H torsion
[ 10167 10162 10161 10158 ] final   95.39 input  -65.29 | X-H torsion
[ 10718 10713 10712 10709 ] final   82.38 input   66.30 | X-H torsion
[ 10763 10752 10751 10750 ] final   30.90 input  -60.55 | X-H torsion
[ 11005 11000 10999 10996 ] final -130.88 input  -57.11 | X-H torsion

> <Gold.Protein.ActiveResidues>
 VAL166  LYS551  ARG553  GLY616  TRP617  ASP618  TYR619  PRO620  LYS621  CYS622 
 ASP623  PHE694  ASN695  SER759  ASP760  ASP761  ALA762  ILE779  LEU786  VAL792 
 PHE793  MET794  SER795  GLU796  ALA797  LYS798  CYS799  TRP800  GLU811  SER814 

> <Gold.Protein.RotatedAtoms>
  151.5088  133.3489  159.2881 H   0  0  0  0  0  0  0  0  0  0  0  0  # atno 6907 bound_to 6896
  150.8725  134.8104  159.7176 H   0  0  0  0  0  0  0  0  0  0  0  0  # atno 6908 bound_to 6896
  152.4708  134.4974  159.9766 H   0  0  0  0  0  0  0  0  0  0  0  0  # atno 6909 bound_to 6896
  145.2588  140.9262  143.3052 H   0  0  0  0  0  0  0  0  0  0  0  0  # atno 7974 bound_to 7965
  156.2840  140.2168  156.5460 H   0  0  0  0  0  0  0  0  0  0  0  0  # atno 8008 bound_to 7997
  154.7330  140.0494  157.0766 H   0  0  0  0  0  0  0  0  0  0  0  0  # atno 8009 bound_to 7997
  155.0328  140.3137  155.4755 H   0  0  0  0  0  0  0  0  0  0  0  0  # atno 8010 bound_to 7997
  139.7993  144.6820  150.9786 H   0  0  0  0  0  0  0  0  0  0  0  0  # atno 10167 bound_to 10162
  157.6856  131.0045  150.2366 H   0  0  0  0  0  0  0  0  0  0  0  0  # atno 10718 bound_to 10713
  153.0345  135.6452  154.1117 H   0  0  0  0  0  0  0  0  0  0  0  0  # atno 10763 bound_to 10752
  154.0834  135.2871  155.3287 H   0  0  0  0  0  0  0  0  0  0  0  0  # atno 10764 bound_to 10752
  154.6514  135.5424  153.7971 H   0  0  0  0  0  0  0  0  0  0  0  0  # atno 10765 bound_to 10752
  140.9308  134.1322  157.4236 H   0  0  0  0  0  0  0  0  0  0  0  0  # atno 11005 bound_to 11000
  144.9437  139.4160  143.6436 LP  0  0  0  0  0  0  0  0  0  0  0  0  # atno 17320 bound_to 7965
  146.3281  139.8409  142.8890 LP  0  0  0  0  0  0  0  0  0  0  0  0  # atno 17321 bound_to 7965
  140.7820  143.4298  151.0712 LP  0  0  0  0  0  0  0  0  0  0  0  0  # atno 17342 bound_to 10162
  139.7971  143.8136  152.3159 LP  0  0  0  0  0  0  0  0  0  0  0  0  # atno 17343 bound_to 10162
  156.2989  130.3755  149.7770 LP  0  0  0  0  0  0  0  0  0  0  0  0  # atno 17370 bound_to 10713
  156.5406  130.8298  151.3267 LP  0  0  0  0  0  0  0  0  0  0  0  0  # atno 17371 bound_to 10713
  139.8796  135.0004  156.6009 LP  0  0  0  0  0  0  0  0  0  0  0  0  # atno 17394 bound_to 11000
  140.7865  133.8617  155.8611 LP  0  0  0  0  0  0  0  0  0  0  0  0  # atno 17395 bound_to 11000

$$$$
