AV-unprocessed.smi:3331|AV-procd|sdf|12826|dock6
  -GOLD-   2272019203D 1   1.00000     0.00000
 Structure written by MMmdl.
 46 47  0  0  0  0  0  0  0  0  1 V2000
  146.3925  129.5264  152.6546 C   0  0  0  0  0  0  0  0  0  0  0  0
  145.9574  130.9488  152.2768 C   0  0  2  0  0  0  0  0  0  0  0  0
  145.6081  131.0526  150.7748 C   0  0  0  0  0  0  0  0  0  0  0  0
  145.2976  132.4988  150.3277 C   0  0  1  0  0  0  0  0  0  0  0  0
  143.8900  132.9496  150.7565 C   0  0  0  0  0  0  0  0  0  0  0  0
  146.4065  133.4542  150.8216 C   0  0  0  0  0  0  0  0  0  0  0  0
  146.5595  133.3286  152.2794 N   0  0  0  0  0  0  0  0  0  0  0  0
  146.2312  134.2654  153.2067 C   0  0  0  0  0  0  0  0  0  0  0  0
  146.3717  134.0592  154.4137 O   0  0  0  0  0  0  0  0  0  0  0  0
  145.6757  135.6322  152.7518 C   0  0  1  0  0  0  0  0  0  0  0  0
  144.1966  135.8094  153.1624 C   0  0  0  0  0  0  0  0  0  0  0  0
  146.5155  136.7140  153.2921 N   0  0  0  0  0  0  0  0  0  0  0  0
  145.8915  138.0267  153.1808 C   0  0  0  0  0  0  0  0  0  0  0  0
  146.8578  139.0198  152.5137 C   0  0  0  0  0  0  0  0  0  0  0  0
  147.8126  139.5791  153.4547 N   0  0  0  0  0  0  0  0  0  0  0  0
  148.8642  138.9469  154.0842 C   0  0  0  0  0  0  0  0  0  0  0  0
  149.4808  139.8734  154.8754 C   0  0  0  0  0  0  0  0  0  0  0  0
  148.7212  141.0577  154.6631 C   0  0  0  0  0  0  0  0  0  0  0  0
  147.7220  140.8779  153.8145 N   0  0  0  0  0  0  0  0  0  0  0  0
  147.0359  131.9881  152.6471 C   0  0  0  0  0  0  0  0  0  0  0  0
  147.2936  129.2312  152.1164 H   0  0  0  0  0  0  0  0  0  0  0  0
  145.6115  128.8023  152.4207 H   0  0  0  0  0  0  0  0  0  0  0  0
  146.6024  129.4509  153.7219 H   0  0  0  0  0  0  0  0  0  0  0  0
  145.0595  131.1769  152.8530 H   0  0  0  0  0  0  0  0  0  0  0  0
  146.4558  130.6879  150.1929 H   0  0  0  0  0  0  0  0  0  0  0  0
  144.7737  130.3934  150.5320 H   0  0  0  0  0  0  0  0  0  0  0  0
  145.3102  132.5148  149.2371 H   0  0  0  0  0  0  0  0  0  0  0  0
  143.7774  132.9637  151.8406 H   0  0  0  0  0  0  0  0  0  0  0  0
  143.1271  132.2820  150.3554 H   0  0  0  0  0  0  0  0  0  0  0  0
  143.6730  133.9526  150.3884 H   0  0  0  0  0  0  0  0  0  0  0  0
  147.3532  133.1846  150.3510 H   0  0  0  0  0  0  0  0  0  0  0  0
  146.2085  134.4678  150.4796 H   0  0  0  0  0  0  0  0  0  0  0  0
  145.7031  135.6543  151.6626 H   0  0  0  0  0  0  0  0  0  0  0  0
  143.5978  134.9454  152.8716 H   0  0  0  0  0  0  0  0  0  0  0  0
  143.7436  136.6744  152.6792 H   0  0  0  0  0  0  0  0  0  0  0  0
  144.0916  135.9395  154.2404 H   0  0  0  0  0  0  0  0  0  0  0  0
  147.4080  136.7487  152.8200 H   0  0  0  0  0  0  0  0  0  0  0  0
  144.9880  137.9450  152.5751 H   0  0  0  0  0  0  0  0  0  0  0  0
  145.5923  138.4045  154.1580 H   0  0  0  0  0  0  0  0  0  0  0  0
  147.3923  138.5436  151.6897 H   0  0  0  0  0  0  0  0  0  0  0  0
  146.2939  139.8463  152.0801 H   0  0  0  0  0  0  0  0  0  0  0  0
  149.0850  137.9031  153.9158 H   0  0  0  0  0  0  0  0  0  0  0  0
  150.3427  139.7275  155.5091 H   0  0  0  0  0  0  0  0  0  0  0  0
  148.8643  142.0356  155.0986 H   0  0  0  0  0  0  0  0  0  0  0  0
  147.2837  131.9042  153.7061 H   0  0  0  0  0  0  0  0  0  0  0  0
  147.9638  131.7764  152.1133 H   0  0  0  0  0  0  0  0  0  0  0  0
  1  2  1  0  0  0  0
  1 21  1  0  0  0  0
  1 22  1  0  0  0  0
  1 23  1  0  0  0  0
  2 20  1  0  0  0  0
  2  3  1  0  0  0  0
  2 24  1  0  0  0  0
  3  4  1  0  0  0  0
  3 25  1  0  0  0  0
  3 26  1  0  0  0  0
  4  5  1  0  0  0  0
  4  6  1  0  0  0  0
  4 27  1  0  0  0  0
  5 28  1  0  0  0  0
  5 29  1  0  0  0  0
  5 30  1  0  0  0  0
  6  7  1  0  0  0  0
  6 31  1  0  0  0  0
  6 32  1  0  0  0  0
  7  8  1  0  0  0  0
  7 20  1  0  0  0  0
  8  9  2  0  0  0  0
  8 10  1  0  0  0  0
 10 11  1  0  0  0  0
 10 12  1  0  0  0  0
 10 33  1  0  0  0  0
 11 34  1  0  0  0  0
 11 35  1  0  0  0  0
 11 36  1  0  0  0  0
 12 13  1  0  0  0  0
 12 37  1  0  0  0  0
 13 14  1  0  0  0  0
 13 38  1  0  0  0  0
 13 39  1  0  0  0  0
 14 15  1  0  0  0  0
 14 40  1  0  0  0  0
 14 41  1  0  0  0  0
 15 19  1  0  0  0  0
 15 16  1  0  0  0  0
 16 17  2  0  0  0  0
 16 42  1  0  0  0  0
 17 18  1  0  0  0  0
 17 43  1  0  0  0  0
 18 19  2  0  0  0  0
 18 44  1  0  0  0  0
 20 45  1  0  0  0  0
 20 46  1  0  0  0  0
M  END
> <s_m_source_file>
AV-unprocessed.smi

> <i_m_source_file_index>
3331

> <i_lp_mmshare_version>
43012

> <i_f3d_flags>
0

> <s_epik_input>
W0NIM11bQ0BASF0xW0NIMl1bQ0BASF0oW0NIM10pW0NIMl1OKFtDSDJdMSlDKD1PKVtDQEhdKFtDSDNdKVtOSF1bQ0gyXVtDSDJdbjJbY0hdW2NIXVtjSF1uMg==

> <s_epik_cmdline>
J2VwaWtfcHl0aG9uJywgJy1waCcsICc3LjAnLCAnLXRuJywgJzgnLCAnLW1hJywgJzIwMCcsICctbWV0YWxfYmluZGluZycsICctaW1hZScsICc8aW5maWxlLm1hZT4nLCAnLW9tYWUnLCAnPG91dGZpbGUubWFlPic=

> <r_lp_tautomer_probability>
1

> <r_epik_Ionization_Penalty>
0.767994

> <r_epik_Ionization_Penalty_Charging>
0

> <r_epik_Ionization_Penalty_Neutral>
0.767994

> <r_epik_State_Penalty>
0.795453

> <r_epik_Charging_Adjusted_Penalty>
0.795453

> <i_epik_Tot_Q>
0

> <i_epik_Tot_abs_Q>
0

> <r_epik_Metal_State_Penalty>
0.794784

> <b_epik_Metal_Only>
0

> <s_lp_Force_Field>
OPLS_2005

> <r_lp_Energy>
31.6007

> <b_lp_Chiralities_Consistent>
1

> <s_lp_Variant>
AV-unprocessed.smi:3331-10

> <Gold.Version>
5.8.1

> <Gold.Id.Protein>
6NUR|6NUR_protein|mol2

> <Gold.PLP.Fitness>
41.8689

> <Gold.PLP.PLP>
-35.3848

> <Gold.PLP.part.hbond>
-1.0000

> <Gold.PLP.part.metal>
0.0000

> <Gold.PLP.part.buried>
0.5387

> <Gold.PLP.part.nonpolar>
-34.4763

> <Gold.PLP.part.repulsive>
0.2402

> <Gold.PLP.ligand.clash>
0.0000

> <Gold.PLP.ligand.torsion>
0.7604

> <Gold.PLP.Chemscore.Hbond>
1.0000

> <Gold.PLP.Chemscore.CHOScore>
1.6537

> <Gold.PLP.Chemscore.Metal>
0.0000

> <Gold.Chemscore.Hbonds>
donor molecule, donor type, donor heavy atom, donor atom, acceptor molecule, acceptor atom, score
      L1  H    12    37       P1  7948  1.00
      L1  C    16    42       P1  7948  0.75
      L1  C    18    44       P1  8028  0.50

> <Gold.PLP.Chemscore.Internal.Correction>
0.0437

> <Gold.Rescore>
     Score         DG    S(hbond)    S(metal)    S(lipo)     H(rot)  DE(clash)    DE(int)     intcor
     14.85     -15.56       0.99        0.00      94.25       1.66       0.08       0.63       ----

> <Gold.Chemscore.Fitness>
14.8486

> <Gold.Chemscore.DG>
-15.5584

> <Gold.Chemscore.ZeroCoef>
-5.4800

> <Gold.Chemscore.Hbond>
0.9920

> <Gold.Chemscore.Metal>
0.0000

> <Gold.Chemscore.Lipo>
94.2496

> <Gold.Chemscore.Internal_Hbond>
0.0000

> <Gold.Chemscore.DEClash>
0.0755

> <Gold.Chemscore.DEInternal>
0.6343

> <Gold.Chemscore.Rot>
1.6649

> <Gold.Chemscore.Internal.Correction>
   9.000000E+99

> <Gold.Chemscore.Hbonds>
donor molecule, donor type, donor heavy atom, donor atom, acceptor molecule, acceptor atom, score
      L1  H    12    37       P1  7948  1.00

> <Gold.Chemscore.Hbond.Weighted>
-3.3133

> <Gold.Chemscore.Metal.Weighted>
-0.0000

> <Gold.Chemscore.Lipo.Weighted>
-11.0272

> <Gold.Chemscore.Internal_Hbond.Weighted>
0.0000

> <Gold.Chemscore.DEClash.Weighted>
0.0755

> <Gold.Chemscore.DEInternal.Weighted>
0.6343

> <Gold.Chemscore.Rot.Weighted>
4.2621

> <Gold.Chemscore.Internal.Correction.Weighted>
   9.000000E+99

> <Gold.Protein.RotatedTorsions>
[ 6907 6896 6895 6894 ] final  -84.60 input  -60.11 | X-H torsion
[ 7974 7965 7964 7962 ] final  111.87 input  175.53 | X-H torsion
[ 8008 7997 7996 7995 ] final  162.71 input   59.86 | X-H torsion
[ 10167 10162 10161 10158 ] final  127.34 input  -65.29 | X-H torsion
[ 10718 10713 10712 10709 ] final -104.75 input   66.30 | X-H torsion
[ 10763 10752 10751 10750 ] final  -13.80 input  -60.55 | X-H torsion
[ 11005 11000 10999 10996 ] final  -58.08 input  -57.11 | X-H torsion

> <Gold.Protein.ActiveResidues>
 VAL166  LYS551  ARG553  GLY616  TRP617  ASP618  TYR619  PRO620  LYS621  CYS622 
 ASP623  PHE694  ASN695  SER759  ASP760  ASP761  ALA762  ILE779  LEU786  VAL792 
 PHE793  MET794  SER795  GLU796  ALA797  LYS798  CYS799  TRP800  GLU811  SER814 

> <Gold.Protein.RotatedAtoms>
  150.6875  134.3333  159.4836 H   0  0  0  0  0  0  0  0  0  0  0  0  # atno 6907 bound_to 6896
  152.1195  134.9213  160.0573 H   0  0  0  0  0  0  0  0  0  0  0  0  # atno 6908 bound_to 6896
  152.0425  133.3949  159.4380 H   0  0  0  0  0  0  0  0  0  0  0  0  # atno 6909 bound_to 6896
  145.2367  139.2796  143.4139 H   0  0  0  0  0  0  0  0  0  0  0  0  # atno 7974 bound_to 7965
  156.2011  140.1743  156.7897 H   0  0  0  0  0  0  0  0  0  0  0  0  # atno 8008 bound_to 7997
  154.5593  140.0702  156.8825 H   0  0  0  0  0  0  0  0  0  0  0  0  # atno 8009 bound_to 7997
  155.2878  140.3353  155.4256 H   0  0  0  0  0  0  0  0  0  0  0  0  # atno 8010 bound_to 7997
  139.5583  144.6864  151.4117 H   0  0  0  0  0  0  0  0  0  0  0  0  # atno 10167 bound_to 10162
  156.0317  130.5530  150.7441 H   0  0  0  0  0  0  0  0  0  0  0  0  # atno 10718 bound_to 10713
  153.5187  135.7016  153.5743 H   0  0  0  0  0  0  0  0  0  0  0  0  # atno 10763 bound_to 10752
  153.3801  135.3922  155.1850 H   0  0  0  0  0  0  0  0  0  0  0  0  # atno 10764 bound_to 10752
  154.8696  135.3833  154.4674 H   0  0  0  0  0  0  0  0  0  0  0  0  # atno 10765 bound_to 10752
  141.1192  133.6611  156.4866 H   0  0  0  0  0  0  0  0  0  0  0  0  # atno 11005 bound_to 11000
  146.3339  140.2719  142.8606 LP  0  0  0  0  0  0  0  0  0  0  0  0  # atno 17320 bound_to 7965
  144.9626  140.8290  143.5504 LP  0  0  0  0  0  0  0  0  0  0  0  0  # atno 17321 bound_to 7965
  140.6859  143.7974  150.7186 LP  0  0  0  0  0  0  0  0  0  0  0  0  # atno 17342 bound_to 10162
  140.1442  143.4414  152.2174 LP  0  0  0  0  0  0  0  0  0  0  0  0  # atno 17343 bound_to 10162
  157.5002  131.0918  151.0323 LP  0  0  0  0  0  0  0  0  0  0  0  0  # atno 17370 bound_to 10713
  157.0706  130.5862  149.5402 LP  0  0  0  0  0  0  0  0  0  0  0  0  # atno 17371 bound_to 10713
  140.4557  134.6887  157.5061 LP  0  0  0  0  0  0  0  0  0  0  0  0  # atno 17394 bound_to 11000
  140.0136  134.6653  155.9343 LP  0  0  0  0  0  0  0  0  0  0  0  0  # atno 17395 bound_to 11000

$$$$
