AV-unprocessed.smi:2567|AV-procd|sdf|10087|dock2
  -GOLD-   2272014113D 1   1.00000     0.00000
 Structure written by MMmdl.
 32 33  0  0  0  0  0  0  0  0  2 V2000
  152.7408  144.7432  158.2940 C   0  0  0  0  0  0  0  0  0  0  0  0
  152.0130  143.5556  158.9463 C   0  0  0  0  0  0  0  0  0  0  0  0
  152.9169  142.9023  160.0114 C   0  0  0  0  0  0  0  0  0  0  0  0
  150.7395  144.0472  159.6631 C   0  0  0  0  0  0  0  0  0  0  0  0
  151.6460  142.5323  157.8763 C   0  0  0  0  0  0  0  0  0  0  0  0
  151.9541  141.2208  157.8982 N   0  5  0  0  0  0  0  0  0  0  0  0
  151.3807  140.6014  156.8874 N   0  0  0  0  0  0  0  0  0  0  0  0
  150.6782  141.5458  156.2451 C   0  0  0  0  0  0  0  0  0  0  0  0
  149.8036  141.2905  155.0337 C   0  0  1  0  0  0  0  0  0  0  0  0
  149.8508  139.8050  154.6212 C   0  0  0  0  0  0  0  0  0  0  0  0
  148.9949  139.5626  153.4596 N   0  0  0  0  0  0  0  0  0  0  0  0
  147.6295  140.0222  153.7033 C   0  0  0  0  0  0  0  0  0  0  0  0
  147.6332  141.5000  154.1293 C   0  0  0  0  0  0  0  0  0  0  0  0
  148.4483  141.6575  155.2850 O   0  0  0  0  0  0  0  0  0  0  0  0
  150.8055  142.7291  156.8625 N   0  0  0  0  0  0  0  0  0  0  0  0
  153.0222  145.4931  159.0337 H   0  0  0  0  0  0  0  0  0  0  0  0
  152.1100  145.2316  157.5506 H   0  0  0  0  0  0  0  0  0  0  0  0
  153.6515  144.4186  157.7896 H   0  0  0  0  0  0  0  0  0  0  0  0
  153.8532  142.5486  159.5787 H   0  0  0  0  0  0  0  0  0  0  0  0
  152.4266  142.0465  160.4770 H   0  0  0  0  0  0  0  0  0  0  0  0
  153.1725  143.6073  160.8029 H   0  0  0  0  0  0  0  0  0  0  0  0
  150.9778  144.7620  160.4513 H   0  0  0  0  0  0  0  0  0  0  0  0
  150.1976  143.2191  160.1211 H   0  0  0  0  0  0  0  0  0  0  0  0
  150.0578  144.5436  158.9718 H   0  0  0  0  0  0  0  0  0  0  0  0
  150.1895  141.9095  154.2211 H   0  0  0  0  0  0  0  0  0  0  0  0
  150.8761  139.5118  154.3943 H   0  0  0  0  0  0  0  0  0  0  0  0
  149.5260  139.1832  155.4567 H   0  0  0  0  0  0  0  0  0  0  0  0
  147.0244  139.8915  152.8060 H   0  0  0  0  0  0  0  0  0  0  0  0
  147.1677  139.4176  154.4849 H   0  0  0  0  0  0  0  0  0  0  0  0
  147.9914  142.1406  153.3217 H   0  0  0  0  0  0  0  0  0  0  0  0
  146.6197  141.8233  154.3663 H   0  0  0  0  0  0  0  0  0  0  0  0
  148.9871  138.5705  153.2473 H   0  0  0  0  0  0  0  0  0  0  0  0
  1  2  1  0  0  0  0
  1 16  1  0  0  0  0
  1 17  1  0  0  0  0
  1 18  1  0  0  0  0
  2  3  1  0  0  0  0
  2  4  1  0  0  0  0
  2  5  1  0  0  0  0
  3 19  1  0  0  0  0
  3 20  1  0  0  0  0
  3 21  1  0  0  0  0
  4 22  1  0  0  0  0
  4 23  1  0  0  0  0
  4 24  1  0  0  0  0
  5 15  2  0  0  0  0
  5  6  1  0  0  0  0
  6  7  1  0  0  0  0
  7  8  2  0  0  0  0
  8  9  1  0  0  0  0
  8 15  1  0  0  0  0
  9 14  1  0  0  0  0
  9 10  1  0  0  0  0
  9 25  1  0  0  0  0
 10 11  1  0  0  0  0
 10 26  1  0  0  0  0
 10 27  1  0  0  0  0
 11 12  1  0  0  0  0
 11 32  1  0  0  0  0
 12 13  1  0  0  0  0
 12 28  1  0  0  0  0
 12 29  1  0  0  0  0
 13 14  1  0  0  0  0
 13 30  1  0  0  0  0
 13 31  1  0  0  0  0
M  CHG  1   6  -1
M  END
> <s_m_source_file>
AV-unprocessed.smi

> <i_m_source_file_index>
2567

> <i_lp_mmshare_version>
43012

> <i_f3d_flags>
0

> <s_epik_input>
W0NIM11DKFtDSDNdKShbQ0gzXSljMW5bbkhdYyhuMSlbQ0BASF0yW0NIMl1bTkhdW0NIMl1bQ0gyXU8y

> <s_epik_cmdline>
J2VwaWtfcHl0aG9uJywgJy1waCcsICc3LjAnLCAnLXRuJywgJzgnLCAnLW1hJywgJzIwMCcsICctbWV0YWxfYmluZGluZycsICctaW1hZScsICc8aW5maWxlLm1hZT4nLCAnLW9tYWUnLCAnPG91dGZpbGUubWFlPic=

> <r_lp_tautomer_probability>
0.948284

> <r_epik_Ionization_Penalty>
17.5852

> <r_epik_Ionization_Penalty_Charging>
16.0119

> <r_epik_Ionization_Penalty_Neutral>
1.5733

> <r_epik_State_Penalty>
6.64574

> <r_epik_Charging_Adjusted_Penalty>
22.6576

> <i_epik_Tot_Q>
-1

> <i_epik_Tot_abs_Q>
1

> <r_epik_Metal_State_Penalty>
2.89273

> <b_epik_Metal_Only>
1

> <s_lp_Force_Field>
OPLS_2005

> <r_lp_Energy>
12.7072

> <b_lp_Chiralities_Consistent>
1

> <s_lp_Variant>
AV-unprocessed.smi:2567-12

> <Gold.Version>
5.8.1

> <Gold.Id.Protein>
6NUR|6NUR_protein|mol2

> <Gold.PLP.Fitness>
32.6421

> <Gold.PLP.PLP>
-32.6574

> <Gold.PLP.part.hbond>
-0.8363

> <Gold.PLP.part.metal>
0.0000

> <Gold.PLP.part.buried>
-5.3934

> <Gold.PLP.part.nonpolar>
-27.3055

> <Gold.PLP.part.repulsive>
1.4030

> <Gold.PLP.ligand.clash>
0.0000

> <Gold.PLP.ligand.torsion>
0.1001

> <Gold.PLP.Chemscore.Hbond>
0.0000

> <Gold.PLP.Chemscore.CHOScore>
0.0000

> <Gold.PLP.Chemscore.Metal>
0.0000

> <Gold.PLP.Chemscore.Internal.Correction>
0.1848

> <Gold.Rescore>
     Score         DG    S(hbond)    S(metal)    S(lipo)     H(rot)  DE(clash)    DE(int)     intcor
     13.63     -13.92       0.96        0.00      71.45       1.23       0.16       0.13       ----

> <Gold.Chemscore.Fitness>
13.6272

> <Gold.Chemscore.DG>
-13.9184

> <Gold.Chemscore.ZeroCoef>
-5.4800

> <Gold.Chemscore.Hbond>
0.9650

> <Gold.Chemscore.Metal>
0.0000

> <Gold.Chemscore.Lipo>
71.4504

> <Gold.Chemscore.Internal_Hbond>
0.0000

> <Gold.Chemscore.DEClash>
0.1600

> <Gold.Chemscore.DEInternal>
0.1311

> <Gold.Chemscore.Rot>
1.2283

> <Gold.Chemscore.Internal.Correction>
   9.000000E+99

> <Gold.Chemscore.Hbond.Weighted>
-3.2231

> <Gold.Chemscore.Metal.Weighted>
-0.0000

> <Gold.Chemscore.Lipo.Weighted>
-8.3597

> <Gold.Chemscore.Internal_Hbond.Weighted>
0.0000

> <Gold.Chemscore.DEClash.Weighted>
0.1600

> <Gold.Chemscore.DEInternal.Weighted>
0.1311

> <Gold.Chemscore.Rot.Weighted>
3.1444

> <Gold.Chemscore.Internal.Correction.Weighted>
   9.000000E+99

> <Gold.Protein.RotatedTorsions>
[ 6907 6896 6895 6894 ] final -173.79 input  -60.11 | X-H torsion
[ 7974 7965 7964 7962 ] final  -80.08 input  175.53 | X-H torsion
[ 8008 7997 7996 7995 ] final  -48.29 input   59.86 | X-H torsion
[ 10167 10162 10161 10158 ] final  -43.26 input  -65.29 | X-H torsion
[ 10718 10713 10712 10709 ] final   83.34 input   66.30 | X-H torsion
[ 10763 10752 10751 10750 ] final -156.02 input  -60.55 | X-H torsion
[ 11005 11000 10999 10996 ] final -165.09 input  -57.11 | X-H torsion

> <Gold.Protein.ActiveResidues>
 VAL166  LYS551  ARG553  GLY616  TRP617  ASP618  TYR619  PRO620  LYS621  CYS622 
 ASP623  PHE694  ASN695  SER759  ASP760  ASP761  ALA762  ILE779  LEU786  VAL792 
 PHE793  MET794  SER795  GLU796  ALA797  LYS798  CYS799  TRP800  GLU811  SER814 

> <Gold.Protein.RotatedAtoms>
  151.5618  133.3402  159.2972 H   0  0  0  0  0  0  0  0  0  0  0  0  # atno 6907 bound_to 6896
  150.8418  134.7716  159.6950 H   0  0  0  0  0  0  0  0  0  0  0  0  # atno 6908 bound_to 6896
  152.4484  134.5453  159.9902 H   0  0  0  0  0  0  0  0  0  0  0  0  # atno 6909 bound_to 6896
  145.5647  140.9476  143.1428 H   0  0  0  0  0  0  0  0  0  0  0  0  # atno 7974 bound_to 7965
  154.4027  140.1325  156.4315 H   0  0  0  0  0  0  0  0  0  0  0  0  # atno 8008 bound_to 7997
  155.7546  140.3487  155.5147 H   0  0  0  0  0  0  0  0  0  0  0  0  # atno 8009 bound_to 7997
  155.8917  140.1004  157.1404 H   0  0  0  0  0  0  0  0  0  0  0  0  # atno 8010 bound_to 7997
  140.6940  143.2993  151.3326 H   0  0  0  0  0  0  0  0  0  0  0  0  # atno 10167 bound_to 10162
  157.6877  131.0087  150.2509 H   0  0  0  0  0  0  0  0  0  0  0  0  # atno 10718 bound_to 10713
  154.7744  135.3155  154.8123 H   0  0  0  0  0  0  0  0  0  0  0  0  # atno 10763 bound_to 10752
  153.8850  135.6831  153.4768 H   0  0  0  0  0  0  0  0  0  0  0  0  # atno 10764 bound_to 10752
  153.1364  135.4758  154.9365 H   0  0  0  0  0  0  0  0  0  0  0  0  # atno 10765 bound_to 10752
  140.5796  134.5155  157.5176 H   0  0  0  0  0  0  0  0  0  0  0  0  # atno 11005 bound_to 11000
  144.7466  139.7303  143.7290 LP  0  0  0  0  0  0  0  0  0  0  0  0  # atno 17320 bound_to 7965
  146.1827  139.5027  142.9856 LP  0  0  0  0  0  0  0  0  0  0  0  0  # atno 17321 bound_to 7965
  139.6374  144.0604  152.2527 LP  0  0  0  0  0  0  0  0  0  0  0  0  # atno 17342 bound_to 10162
  140.0099  144.6232  150.7657 LP  0  0  0  0  0  0  0  0  0  0  0  0  # atno 17343 bound_to 10162
  156.3106  130.3771  149.7665 LP  0  0  0  0  0  0  0  0  0  0  0  0  # atno 17370 bound_to 10713
  156.5266  130.8239  151.3222 LP  0  0  0  0  0  0  0  0  0  0  0  0  # atno 17371 bound_to 10713
  139.9323  134.7940  156.0896 LP  0  0  0  0  0  0  0  0  0  0  0  0  # atno 17394 bound_to 11000
  141.1005  133.6679  156.2743 LP  0  0  0  0  0  0  0  0  0  0  0  0  # atno 17395 bound_to 11000

$$$$
