AV-unprocessed.smi:438|AV-procd|sdf|2564|dock9
  -GOLD-   2262022533D 1   1.00000     0.00000
 Structure written by MMmdl.
 48 49  0  0  0  0  0  0  0  0  1 V2000
  145.5988  130.2047  151.8373 C   0  0  0  0  0  0  0  0  0  0  0  0
  145.8509  131.4635  152.6485 C   0  0  0  0  0  0  0  0  0  0  0  0
  146.5251  131.2762  153.8610 N   0  0  0  0  0  0  0  0  0  0  0  0
  146.7909  132.2897  154.6217 C   0  0  0  0  0  0  0  0  0  0  0  0
  147.6642  132.3406  156.2168 S   0  0  0  0  0  0  0  0  0  0  0  0
  146.3395  132.8079  157.3726 C   0  0  0  0  0  0  0  0  0  0  0  0
  146.7079  132.5111  158.8259 C   0  0  0  0  0  0  0  0  0  0  0  0
  147.7766  131.9611  159.0896 O   0  0  0  0  0  0  0  0  0  0  0  0
  145.8001  132.8571  159.7517 N   0  0  0  0  0  0  0  0  0  0  0  0
  145.8682  132.5796  161.1863 C   0  0  1  0  0  0  0  0  0  0  0  0
  147.3123  132.7778  161.6881 C   0  0  0  0  0  0  0  0  0  0  0  0
  147.7324  134.2573  161.6772 C   0  0  0  0  0  0  0  0  0  0  0  0
  146.7494  135.1213  162.4804 C   0  0  0  0  0  0  0  0  0  0  0  0
  145.3075  134.9463  161.9787 C   0  0  0  0  0  0  0  0  0  0  0  0
  144.8759  133.4649  161.9854 C   0  0  1  0  0  0  0  0  0  0  0  0
  143.4167  133.3064  161.5247 C   0  0  0  0  0  0  0  0  0  0  0  0
  146.4055  133.5757  154.2439 N   0  0  0  0  0  0  0  0  0  0  0  0
  145.7672  133.8648  153.0885 C   0  0  0  0  0  0  0  0  0  0  0  0
  145.4833  135.0287  152.8109 O   0  0  0  0  0  0  0  0  0  0  0  0
  145.4602  132.7024  152.2374 C   0  0  0  0  0  0  0  0  0  0  0  0
  144.7445  132.9507  150.9100 C   0  0  0  0  0  0  0  0  0  0  0  0
  143.3892  132.2295  150.8036 C   0  0  0  0  0  0  0  0  0  0  0  0
  142.9051  132.2426  149.4777 O   0  0  0  0  0  0  0  0  0  0  0  0
  144.5436  130.1089  151.5837 H   0  0  0  0  0  0  0  0  0  0  0  0
  145.8873  129.3122  152.3938 H   0  0  0  0  0  0  0  0  0  0  0  0
  146.1776  130.2248  150.9138 H   0  0  0  0  0  0  0  0  0  0  0  0
  145.4038  132.3158  157.1053 H   0  0  0  0  0  0  0  0  0  0  0  0
  146.1652  133.8793  157.2693 H   0  0  0  0  0  0  0  0  0  0  0  0
  144.9568  133.3079  159.4262 H   0  0  0  0  0  0  0  0  0  0  0  0
  145.6063  131.5348  161.3617 H   0  0  0  0  0  0  0  0  0  0  0  0
  147.3934  132.3922  162.7053 H   0  0  0  0  0  0  0  0  0  0  0  0
  148.0052  132.1888  161.0856 H   0  0  0  0  0  0  0  0  0  0  0  0
  148.7371  134.3611  162.0873 H   0  0  0  0  0  0  0  0  0  0  0  0
  147.7824  134.6169  160.6496 H   0  0  0  0  0  0  0  0  0  0  0  0
  146.8032  134.8492  163.5352 H   0  0  0  0  0  0  0  0  0  0  0  0
  147.0392  136.1706  162.4169 H   0  0  0  0  0  0  0  0  0  0  0  0
  144.6335  135.5325  162.6040 H   0  0  0  0  0  0  0  0  0  0  0  0
  145.2186  135.3557  160.9728 H   0  0  0  0  0  0  0  0  0  0  0  0
  144.9134  133.1249  163.0214 H   0  0  0  0  0  0  0  0  0  0  0  0
  143.2660  133.6974  160.5180 H   0  0  0  0  0  0  0  0  0  0  0  0
  142.7378  133.8430  162.1878 H   0  0  0  0  0  0  0  0  0  0  0  0
  143.1171  132.2583  161.5245 H   0  0  0  0  0  0  0  0  0  0  0  0
  146.6293  134.3452  154.8580 H   0  0  0  0  0  0  0  0  0  0  0  0
  145.3852  132.6171  150.0940 H   0  0  0  0  0  0  0  0  0  0  0  0
  144.6150  134.0205  150.7414 H   0  0  0  0  0  0  0  0  0  0  0  0
  143.4947  131.1917  151.1203 H   0  0  0  0  0  0  0  0  0  0  0  0
  142.6484  132.6892  151.4577 H   0  0  0  0  0  0  0  0  0  0  0  0
  142.2754  132.9421  149.3940 H   0  0  0  0  0  0  0  0  0  0  0  0
  1 24  1  0  0  0  0
  1 25  1  0  0  0  0
  1 26  1  0  0  0  0
  1  2  1  0  0  0  0
  2 20  2  0  0  0  0
  2  3  1  0  0  0  0
  3  4  2  0  0  0  0
  4  5  1  0  0  0  0
  4 17  1  0  0  0  0
  5  6  1  0  0  0  0
  6  7  1  0  0  0  0
  6 27  1  0  0  0  0
  6 28  1  0  0  0  0
  7  8  2  0  0  0  0
  7  9  1  0  0  0  0
  9 10  1  0  0  0  0
  9 29  1  0  0  0  0
 10 15  1  0  0  0  0
 10 11  1  0  0  0  0
 10 30  1  0  0  0  0
 11 12  1  0  0  0  0
 11 31  1  0  0  0  0
 11 32  1  0  0  0  0
 12 13  1  0  0  0  0
 12 33  1  0  0  0  0
 12 34  1  0  0  0  0
 13 14  1  0  0  0  0
 13 35  1  0  0  0  0
 13 36  1  0  0  0  0
 14 15  1  0  0  0  0
 14 37  1  0  0  0  0
 14 38  1  0  0  0  0
 15 16  1  0  0  0  0
 15 39  1  0  0  0  0
 16 40  1  0  0  0  0
 16 41  1  0  0  0  0
 16 42  1  0  0  0  0
 17 43  1  0  0  0  0
 17 18  1  0  0  0  0
 18 19  2  0  0  0  0
 18 20  1  0  0  0  0
 20 21  1  0  0  0  0
 21 22  1  0  0  0  0
 21 44  1  0  0  0  0
 21 45  1  0  0  0  0
 22 23  1  0  0  0  0
 22 46  1  0  0  0  0
 22 47  1  0  0  0  0
 23 48  1  0  0  0  0
M  END
> <s_m_source_file>
AV-unprocessed.smi

> <i_m_source_file_index>
438

> <i_lp_mmshare_version>
43012

> <i_f3d_flags>
0

> <s_epik_input>
W09IXVtDSDJdW0NIMl1jMWMoW09IXSluYyhuYzFbQ0gzXSlTW0NIMl1DKD1PKVtOSF1bQ0BASF0yW0NIMl1bQ0gyXVtDSDJdW0NIMl1bQ0BIXTJbQ0gzXQ==

> <s_epik_cmdline>
J2VwaWtfcHl0aG9uJywgJy1waCcsICc3LjAnLCAnLXRuJywgJzgnLCAnLW1hJywgJzIwMCcsICctbWV0YWxfYmluZGluZycsICctaW1hZScsICc8aW5maWxlLm1hZT4nLCAnLW9tYWUnLCAnPG91dGZpbGUubWFlPic=

> <r_lp_tautomer_probability>
0.660323

> <r_epik_Ionization_Penalty>
0.00860626

> <r_epik_Ionization_Penalty_Charging>
0.00860522

> <r_epik_Ionization_Penalty_Neutral>
1.04215e-06

> <r_epik_State_Penalty>
0.156825

> <r_epik_Charging_Adjusted_Penalty>
0.16543

> <i_epik_Tot_Q>
0

> <i_epik_Tot_abs_Q>
0

> <r_epik_Metal_State_Penalty>
0.752038

> <b_epik_Metal_Only>
0

> <s_lp_Force_Field>
OPLS_2005

> <r_lp_Energy>
10.8925

> <b_lp_Chiralities_Consistent>
1

> <s_lp_Variant>
AV-unprocessed.smi:438-2

> <Gold.Version>
5.8.1

> <Gold.Id.Protein>
6NUR|6NUR_protein|mol2

> <Gold.PLP.Fitness>
37.4006

> <Gold.PLP.PLP>
-33.0363

> <Gold.PLP.part.hbond>
-2.8138

> <Gold.PLP.part.metal>
0.0000

> <Gold.PLP.part.buried>
-6.2037

> <Gold.PLP.part.nonpolar>
-24.6791

> <Gold.PLP.part.repulsive>
0.2279

> <Gold.PLP.ligand.clash>
0.0000

> <Gold.PLP.ligand.torsion>
0.4277

> <Gold.PLP.Chemscore.Hbond>
1.7225

> <Gold.PLP.Chemscore.CHOScore>
0.0000

> <Gold.PLP.Chemscore.Metal>
0.0000

> <Gold.Chemscore.Hbonds>
donor molecule, donor type, donor heavy atom, donor atom, acceptor molecule, acceptor atom, score
      L1  H    23    48       P1 10186  1.00
      P1  H 10785 10796       L1    23  0.47

> <Gold.PLP.Chemscore.Internal.Correction>
0.0522

> <Gold.Rescore>
     Score         DG    S(hbond)    S(metal)    S(lipo)     H(rot)  DE(clash)    DE(int)     intcor
     11.87     -13.46       1.57        0.00      85.93       2.86       0.00       1.58       ----

> <Gold.Chemscore.Fitness>
11.8718

> <Gold.Chemscore.DG>
-13.4610

> <Gold.Chemscore.ZeroCoef>
-5.4800

> <Gold.Chemscore.Hbond>
1.5749

> <Gold.Chemscore.Metal>
0.0000

> <Gold.Chemscore.Lipo>
85.9306

> <Gold.Chemscore.Internal_Hbond>
0.0000

> <Gold.Chemscore.DEClash>
0.0042

> <Gold.Chemscore.DEInternal>
1.5849

> <Gold.Chemscore.Rot>
2.8645

> <Gold.Chemscore.Internal.Correction>
   9.000000E+99

> <Gold.Chemscore.Hbonds>
donor molecule, donor type, donor heavy atom, donor atom, acceptor molecule, acceptor atom, score
      L1  H    23    48       P1 10186  0.99
      P1  H 10785 10796       L1    23  0.23

> <Gold.Chemscore.Hbond.Weighted>
-5.2602

> <Gold.Chemscore.Metal.Weighted>
-0.0000

> <Gold.Chemscore.Lipo.Weighted>
-10.0539

> <Gold.Chemscore.Internal_Hbond.Weighted>
0.0000

> <Gold.Chemscore.DEClash.Weighted>
0.0042

> <Gold.Chemscore.DEInternal.Weighted>
1.5849

> <Gold.Chemscore.Rot.Weighted>
7.3331

> <Gold.Chemscore.Internal.Correction.Weighted>
   9.000000E+99

> <Gold.Protein.RotatedTorsions>
[ 6907 6896 6895 6894 ] final   31.90 input  -60.11 | X-H torsion
[ 7974 7965 7964 7962 ] final -177.12 input  175.53 | X-H torsion
[ 8008 7997 7996 7995 ] final   40.51 input   59.86 | X-H torsion
[ 10167 10162 10161 10158 ] final  -27.20 input  -65.29 | X-H torsion
[ 10718 10713 10712 10709 ] final  -56.02 input   66.30 | X-H torsion
[ 10763 10752 10751 10750 ] final  -49.65 input  -60.55 | X-H torsion
[ 11005 11000 10999 10996 ] final -131.63 input  -57.11 | X-H torsion

> <Gold.Protein.ActiveResidues>
 VAL166  LYS551  ARG553  GLY616  TRP617  ASP618  TYR619  PRO620  LYS621  CYS622 
 ASP623  PHE694  ASN695  SER759  ASP760  ASP761  ALA762  ILE779  LEU786  VAL792 
 PHE793  MET794  SER795  GLU796  ALA797  LYS798  CYS799  TRP800  GLU811  SER814 

> <Gold.Protein.RotatedAtoms>
  152.0668  134.9559  160.0574 H   0  0  0  0  0  0  0  0  0  0  0  0  # atno 6907 bound_to 6896
  152.0901  133.4191  159.4548 H   0  0  0  0  0  0  0  0  0  0  0  0  # atno 6908 bound_to 6896
  150.6837  134.2802  159.4667 H   0  0  0  0  0  0  0  0  0  0  0  0  # atno 6909 bound_to 6896
  144.7127  140.1068  143.6413 H   0  0  0  0  0  0  0  0  0  0  0  0  # atno 7974 bound_to 7965
  155.2542  140.3354  155.4279 H   0  0  0  0  0  0  0  0  0  0  0  0  # atno 8008 bound_to 7997
  156.2202  140.1806  156.7537 H   0  0  0  0  0  0  0  0  0  0  0  0  # atno 8009 bound_to 7997
  154.5814  140.0653  156.9094 H   0  0  0  0  0  0  0  0  0  0  0  0  # atno 8010 bound_to 7997
  140.7279  143.4114  151.1100 H   0  0  0  0  0  0  0  0  0  0  0  0  # atno 10167 bound_to 10162
  156.1322  130.4159  150.0249 H   0  0  0  0  0  0  0  0  0  0  0  0  # atno 10718 bound_to 10713
  154.0976  135.6568  153.4863 H   0  0  0  0  0  0  0  0  0  0  0  0  # atno 10763 bound_to 10752
  153.0300  135.5217  154.7318 H   0  0  0  0  0  0  0  0  0  0  0  0  # atno 10764 bound_to 10752
  154.6461  135.2995  155.0014 H   0  0  0  0  0  0  0  0  0  0  0  0  # atno 10765 bound_to 10752
  140.9242  134.1404  157.4289 H   0  0  0  0  0  0  0  0  0  0  0  0  # atno 11005 bound_to 11000
  145.9490  139.2720  143.1223 LP  0  0  0  0  0  0  0  0  0  0  0  0  # atno 17320 bound_to 7965
  145.9343  140.9026  143.0340 LP  0  0  0  0  0  0  0  0  0  0  0  0  # atno 17321 bound_to 7965
  139.7747  143.8442  152.3127 LP  0  0  0  0  0  0  0  0  0  0  0  0  # atno 17342 bound_to 10162
  139.8373  144.7226  150.9375 LP  0  0  0  0  0  0  0  0  0  0  0  0  # atno 17343 bound_to 10162
  156.8158  130.9341  151.3643 LP  0  0  0  0  0  0  0  0  0  0  0  0  # atno 17370 bound_to 10713
  157.6498  130.8875  149.9611 LP  0  0  0  0  0  0  0  0  0  0  0  0  # atno 17371 bound_to 10713
  139.8782  134.9982  156.5888 LP  0  0  0  0  0  0  0  0  0  0  0  0  # atno 17394 bound_to 11000
  140.7948  133.8553  155.8676 LP  0  0  0  0  0  0  0  0  0  0  0  0  # atno 17395 bound_to 11000

$$$$
