AV-unprocessed.smi:2144|AV-procd|sdf|8730|dock6
  -GOLD-   2272011503D 1   1.00000     0.00000
 Structure written by MMmdl.
 40 42  0  0  0  0  0  0  0  0  1 V2000
  151.7083  137.1741  159.6365 O   0  0  0  0  0  0  0  0  0  0  0  0
  152.2248  137.8710  158.5240 C   0  0  0  0  0  0  0  0  0  0  0  0
  152.2181  139.3578  158.7123 C   0  0  0  0  0  0  0  0  0  0  0  0
  152.8592  139.9349  159.7293 N   0  0  0  0  0  0  0  0  0  0  0  0
  152.6210  141.2782  159.5180 C   0  0  0  0  0  0  0  0  0  0  0  0
  153.0388  142.4115  160.2517 C   0  0  0  0  0  0  0  0  0  0  0  0
  152.6736  143.7076  159.8326 C   0  0  0  0  0  0  0  0  0  0  0  0
  151.8880  143.8887  158.6759 C   0  0  0  0  0  0  0  0  0  0  0  0
  151.4596  142.7727  157.9318 C   0  0  0  0  0  0  0  0  0  0  0  0
  151.8241  141.4808  158.3562 C   0  0  0  0  0  0  0  0  0  0  0  0
  151.5706  140.2024  157.8678 N   0  0  0  0  0  0  0  0  0  0  0  0
  150.7858  139.8854  156.6806 C   0  0  0  0  0  0  0  0  0  0  0  0
  151.5231  138.9366  155.7131 C   0  0  2  0  0  0  0  0  0  0  0  0
  152.8253  139.4217  155.4575 O   0  0  0  0  0  0  0  0  0  0  0  0
  150.7897  138.7849  154.3729 C   0  0  0  0  0  0  0  0  0  0  0  0
  149.4121  138.5475  154.6303 O   0  0  0  0  0  0  0  0  0  0  0  0
  148.5357  139.6074  154.5367 C   0  0  0  0  0  0  0  0  0  0  0  0
  148.9217  140.9325  154.2095 C   0  0  0  0  0  0  0  0  0  0  0  0
  147.9590  141.9579  154.1345 C   0  0  0  0  0  0  0  0  0  0  0  0
  146.6037  141.6747  154.3841 C   0  0  0  0  0  0  0  0  0  0  0  0
  146.2115  140.3634  154.7098 C   0  0  0  0  0  0  0  0  0  0  0  0
  147.1729  139.3372  154.7852 C   0  0  0  0  0  0  0  0  0  0  0  0
  146.7823  138.0788  155.0997 F   0  0  0  0  0  0  0  0  0  0  0  0
  151.5988  137.7851  160.3488 H   0  0  0  0  0  0  0  0  0  0  0  0
  153.2481  137.5353  158.3527 H   0  0  0  0  0  0  0  0  0  0  0  0
  151.6620  137.6075  157.6287 H   0  0  0  0  0  0  0  0  0  0  0  0
  153.6432  142.2831  161.1373 H   0  0  0  0  0  0  0  0  0  0  0  0
  152.9992  144.5668  160.4006 H   0  0  0  0  0  0  0  0  0  0  0  0
  151.6146  144.8849  158.3600 H   0  0  0  0  0  0  0  0  0  0  0  0
  150.8586  142.9085  157.0450 H   0  0  0  0  0  0  0  0  0  0  0  0
  149.8543  139.4262  157.0135 H   0  0  0  0  0  0  0  0  0  0  0  0
  150.5013  140.8007  156.1637 H   0  0  0  0  0  0  0  0  0  0  0  0
  151.6282  137.9517  156.1689 H   0  0  0  0  0  0  0  0  0  0  0  0
  153.1201  139.0682  154.6319 H   0  0  0  0  0  0  0  0  0  0  0  0
  150.9235  139.6845  153.7696 H   0  0  0  0  0  0  0  0  0  0  0  0
  151.2044  137.9403  153.8197 H   0  0  0  0  0  0  0  0  0  0  0  0
  149.9510  141.1888  154.0101 H   0  0  0  0  0  0  0  0  0  0  0  0
  148.2619  142.9640  153.8847 H   0  0  0  0  0  0  0  0  0  0  0  0
  145.8664  142.4620  154.3258 H   0  0  0  0  0  0  0  0  0  0  0  0
  145.1718  140.1432  154.9021 H   0  0  0  0  0  0  0  0  0  0  0  0
  1  2  1  0  0  0  0
  1 24  1  0  0  0  0
  2  3  1  0  0  0  0
  2 25  1  0  0  0  0
  2 26  1  0  0  0  0
  3 11  1  0  0  0  0
  3  4  2  0  0  0  0
  4  5  1  0  0  0  0
  5 10  2  0  0  0  0
  5  6  1  0  0  0  0
  6  7  2  0  0  0  0
  6 27  1  0  0  0  0
  7  8  1  0  0  0  0
  7 28  1  0  0  0  0
  8  9  2  0  0  0  0
  8 29  1  0  0  0  0
  9 10  1  0  0  0  0
  9 30  1  0  0  0  0
 10 11  1  0  0  0  0
 11 12  1  0  0  0  0
 12 13  1  0  0  0  0
 12 31  1  0  0  0  0
 12 32  1  0  0  0  0
 13 14  1  0  0  0  0
 13 15  1  0  0  0  0
 13 33  1  0  0  0  0
 14 34  1  0  0  0  0
 15 16  1  0  0  0  0
 15 35  1  0  0  0  0
 15 36  1  0  0  0  0
 16 17  1  0  0  0  0
 17 22  1  0  0  0  0
 17 18  2  0  0  0  0
 18 19  1  0  0  0  0
 18 37  1  0  0  0  0
 19 20  2  0  0  0  0
 19 38  1  0  0  0  0
 20 21  1  0  0  0  0
 20 39  1  0  0  0  0
 21 22  2  0  0  0  0
 21 40  1  0  0  0  0
 22 23  1  0  0  0  0
M  END
> <s_m_source_file>
AV-unprocessed.smi

> <i_m_source_file_index>
2144

> <i_lp_mmshare_version>
43012

> <i_f3d_flags>
0

> <s_epik_input>
W2NIXTFbY0hdW2NIXVtjSF1jKGMxMiluKGMobjIpW0NIMl1bT0hdKVtDSDJdW0NASF0oW09IXSlbQ0gyXU9jM1tjSF1bY0hdW2NIXVtjSF1jM0Y=

> <s_epik_cmdline>
J2VwaWtfcHl0aG9uJywgJy1waCcsICc3LjAnLCAnLXRuJywgJzgnLCAnLW1hJywgJzIwMCcsICctbWV0YWxfYmluZGluZycsICctaW1hZScsICc8aW5maWxlLm1hZT4nLCAnLW9tYWUnLCAnPG91dGZpbGUubWFlPic=

> <r_lp_tautomer_probability>
1

> <r_epik_Ionization_Penalty>
0.0547315

> <r_epik_Ionization_Penalty_Charging>
0

> <r_epik_Ionization_Penalty_Neutral>
0.0547315

> <r_epik_State_Penalty>
0.047032

> <r_epik_Charging_Adjusted_Penalty>
0.047032

> <i_epik_Tot_Q>
0

> <i_epik_Tot_abs_Q>
0

> <r_epik_Metal_State_Penalty>
4.89471e-05

> <b_epik_Metal_Only>
0

> <s_lp_Force_Field>
OPLS_2005

> <r_lp_Energy>
15.0425

> <b_lp_Chiralities_Consistent>
1

> <s_lp_Variant>
AV-unprocessed.smi:2144-1

> <Gold.Version>
5.8.1

> <Gold.Id.Protein>
6NUR|6NUR_protein|mol2

> <Gold.PLP.Fitness>
49.4901

> <Gold.PLP.PLP>
-44.5969

> <Gold.PLP.part.hbond>
-1.9433

> <Gold.PLP.part.metal>
0.0000

> <Gold.PLP.part.buried>
-5.8731

> <Gold.PLP.part.nonpolar>
-37.4498

> <Gold.PLP.part.repulsive>
0.1685

> <Gold.PLP.ligand.clash>
0.0000

> <Gold.PLP.ligand.torsion>
0.4834

> <Gold.PLP.Chemscore.Hbond>
1.9425

> <Gold.PLP.Chemscore.CHOScore>
0.0000

> <Gold.PLP.Chemscore.Metal>
0.0000

> <Gold.Chemscore.Hbonds>
donor molecule, donor type, donor heavy atom, donor atom, acceptor molecule, acceptor atom, score
      P1  H  6896  6907       L1     1  0.99
      P1  H  7997  8010       L1    14  1.00

> <Gold.PLP.Chemscore.Internal.Correction>
0.0325

> <Gold.Rescore>
     Score         DG    S(hbond)    S(metal)    S(lipo)     H(rot)  DE(clash)    DE(int)     intcor
     16.50     -16.97       1.74        0.00     118.88       3.22       0.02       0.45       ----

> <Gold.Chemscore.Fitness>
16.4977

> <Gold.Chemscore.DG>
-16.9715

> <Gold.Chemscore.ZeroCoef>
-5.4800

> <Gold.Chemscore.Hbond>
1.7439

> <Gold.Chemscore.Metal>
0.0000

> <Gold.Chemscore.Lipo>
118.8819

> <Gold.Chemscore.Internal_Hbond>
0.0000

> <Gold.Chemscore.DEClash>
0.0215

> <Gold.Chemscore.DEInternal>
0.4522

> <Gold.Chemscore.Rot>
3.2196

> <Gold.Chemscore.Internal.Correction>
   9.000000E+99

> <Gold.Chemscore.Hbonds>
donor molecule, donor type, donor heavy atom, donor atom, acceptor molecule, acceptor atom, score
      P1  H  6896  6907       L1     1  0.90
      P1  H  7997  8010       L1    14  0.30

> <Gold.Chemscore.Hbond.Weighted>
-5.8245

> <Gold.Chemscore.Metal.Weighted>
-0.0000

> <Gold.Chemscore.Lipo.Weighted>
-13.9092

> <Gold.Chemscore.Internal_Hbond.Weighted>
0.0000

> <Gold.Chemscore.DEClash.Weighted>
0.0215

> <Gold.Chemscore.DEInternal.Weighted>
0.4522

> <Gold.Chemscore.Rot.Weighted>
8.2422

> <Gold.Chemscore.Internal.Correction.Weighted>
   9.000000E+99

> <Gold.Protein.RotatedTorsions>
[ 6907 6896 6895 6894 ] final   -1.65 input  -60.11 | X-H torsion
[ 7974 7965 7964 7962 ] final  -17.24 input  175.53 | X-H torsion
[ 8008 7997 7996 7995 ] final   91.95 input   59.86 | X-H torsion
[ 10167 10162 10161 10158 ] final  136.26 input  -65.29 | X-H torsion
[ 10718 10713 10712 10709 ] final -135.94 input   66.30 | X-H torsion
[ 10763 10752 10751 10750 ] final  171.29 input  -60.55 | X-H torsion
[ 11005 11000 10999 10996 ] final   24.32 input  -57.11 | X-H torsion

> <Gold.Protein.ActiveResidues>
 VAL166  LYS551  ARG553  GLY616  TRP617  ASP618  TYR619  PRO620  LYS621  CYS622 
 ASP623  PHE694  ASN695  SER759  ASP760  ASP761  ALA762  ILE779  LEU786  VAL792 
 PHE793  MET794  SER795  GLU796  ALA797  LYS798  CYS799  TRP800  GLU811  SER814 

> <Gold.Protein.RotatedAtoms>
  151.5427  135.1068  159.9930 H   0  0  0  0  0  0  0  0  0  0  0  0  # atno 6907 bound_to 6896
  152.4528  133.7658  159.6782 H   0  0  0  0  0  0  0  0  0  0  0  0  # atno 6908 bound_to 6896
  150.8461  133.7792  159.3067 H   0  0  0  0  0  0  0  0  0  0  0  0  # atno 6909 bound_to 6896
  146.1950  140.3752  142.8444 H   0  0  0  0  0  0  0  0  0  0  0  0  # atno 7974 bound_to 7965
  156.0297  140.3331  155.7126 H   0  0  0  0  0  0  0  0  0  0  0  0  # atno 8008 bound_to 7997
  155.5903  140.0645  157.2778 H   0  0  0  0  0  0  0  0  0  0  0  0  # atno 8009 bound_to 7997
  154.4348  140.1828  156.1056 H   0  0  0  0  0  0  0  0  0  0  0  0  # atno 8010 bound_to 7997
  139.5186  144.6474  151.5401 H   0  0  0  0  0  0  0  0  0  0  0  0  # atno 10167 bound_to 10162
  156.2716  130.7269  151.1238 H   0  0  0  0  0  0  0  0  0  0  0  0  # atno 10718 bound_to 10713
  154.4097  135.2756  155.2044 H   0  0  0  0  0  0  0  0  0  0  0  0  # atno 10763 bound_to 10752
  154.4035  135.6039  153.5914 H   0  0  0  0  0  0  0  0  0  0  0  0  # atno 10764 bound_to 10752
  152.9831  135.5932  154.4377 H   0  0  0  0  0  0  0  0  0  0  0  0  # atno 10765 bound_to 10752
  140.3600  134.2135  155.7673 H   0  0  0  0  0  0  0  0  0  0  0  0  # atno 11005 bound_to 11000
  144.8562  140.7073  143.6136 LP  0  0  0  0  0  0  0  0  0  0  0  0  # atno 17320 bound_to 7965
  145.3672  139.1667  143.4351 LP  0  0  0  0  0  0  0  0  0  0  0  0  # atno 17321 bound_to 7965
  140.6264  143.9160  150.6568 LP  0  0  0  0  0  0  0  0  0  0  0  0  # atno 17342 bound_to 10162
  140.2450  143.3635  152.1454 LP  0  0  0  0  0  0  0  0  0  0  0  0  # atno 17343 bound_to 10162
  157.7286  131.0631  150.5814 LP  0  0  0  0  0  0  0  0  0  0  0  0  # atno 17370 bound_to 10713
  156.5911  130.4329  149.5936 LP  0  0  0  0  0  0  0  0  0  0  0  0  # atno 17371 bound_to 10713
  141.1987  133.8030  157.0571 LP  0  0  0  0  0  0  0  0  0  0  0  0  # atno 17394 bound_to 11000
  140.0634  134.9742  157.1344 LP  0  0  0  0  0  0  0  0  0  0  0  0  # atno 17395 bound_to 11000

$$$$
