AV-unprocessed.smi:1897|AV-procd|sdf|7686|dock7
  -GOLD-   22720 9423D 1   1.00000     0.00000
 Structure written by MMmdl.
 39 41  0  0  0  0  0  0  0  0  2 V2000
  147.4957  136.0494  163.0113 C   0  0  0  0  0  0  0  0  0  0  0  0
  147.4489  136.0982  161.5222 C   0  0  0  0  0  0  0  0  0  0  0  0
  147.7097  137.2118  160.8277 N   0  0  0  0  0  0  0  0  0  0  0  0
  147.6042  137.0141  159.4587 N   0  0  0  0  0  0  0  0  0  0  0  0
  147.2718  135.7508  159.1554 C   0  0  0  0  0  0  0  0  0  0  0  0
  147.0837  135.2567  157.8310 N   0  0  0  0  0  0  0  0  0  0  0  0
  147.2027  135.8506  156.6242 C   0  0  0  0  0  0  0  0  0  0  0  0
  147.5275  137.0328  156.5294 O   0  0  0  0  0  0  0  0  0  0  0  0
  146.9481  135.0825  155.5524 N   0  0  0  0  0  0  0  0  0  0  0  0
  147.0272  135.5111  154.1598 C   0  0  2  0  0  0  0  0  0  0  0  0
  146.2089  136.7843  153.8806 C   0  0  0  0  0  0  0  0  0  0  0  0
  145.5910  136.5753  152.4839 C   0  0  0  0  0  0  0  0  0  0  0  0
  146.1417  135.2949  152.0000 N   0  3  2  0  0  0  0  0  0  0  0  0
  145.3567  134.5655  150.9803 C   0  0  0  0  0  0  0  0  0  0  0  0
  146.1334  133.3067  150.5449 C   0  0  0  0  0  0  0  0  0  0  0  0
  146.5350  132.4367  151.7535 C   0  0  0  0  0  0  0  0  0  0  0  0
  147.2664  133.2714  152.8225 C   0  0  0  0  0  0  0  0  0  0  0  0
  146.4078  134.4901  153.2021 C   0  0  1  0  0  0  0  0  0  0  0  0
  147.0509  134.6938  160.5402 S   0  0  0  0  0  0  0  0  0  0  0  0
  147.0940  136.9708  163.4338 H   0  0  0  0  0  0  0  0  0  0  0  0
  148.5253  135.9280  163.3480 H   0  0  0  0  0  0  0  0  0  0  0  0
  146.9046  135.2114  163.3815 H   0  0  0  0  0  0  0  0  0  0  0  0
  146.7849  134.2929  157.7899 H   0  0  0  0  0  0  0  0  0  0  0  0
  146.6844  134.1214  155.7193 H   0  0  0  0  0  0  0  0  0  0  0  0
  148.0641  135.6993  153.8730 H   0  0  0  0  0  0  0  0  0  0  0  0
  145.4150  136.9176  154.6174 H   0  0  0  0  0  0  0  0  0  0  0  0
  146.8405  137.6727  153.9166 H   0  0  0  0  0  0  0  0  0  0  0  0
  144.5045  136.5120  152.5621 H   0  0  0  0  0  0  0  0  0  0  0  0
  145.8346  137.3853  151.7960 H   0  0  0  0  0  0  0  0  0  0  0  0
  144.3818  134.2914  151.3866 H   0  0  0  0  0  0  0  0  0  0  0  0
  145.1792  135.2138  150.1216 H   0  0  0  0  0  0  0  0  0  0  0  0
  145.5358  132.7213  149.8454 H   0  0  0  0  0  0  0  0  0  0  0  0
  147.0323  133.6070  150.0045 H   0  0  0  0  0  0  0  0  0  0  0  0
  145.6408  131.9911  152.1914 H   0  0  0  0  0  0  0  0  0  0  0  0
  147.1648  131.6083  151.4276 H   0  0  0  0  0  0  0  0  0  0  0  0
  147.4640  132.6564  153.7006 H   0  0  0  0  0  0  0  0  0  0  0  0
  148.2355  133.5969  152.4423 H   0  0  0  0  0  0  0  0  0  0  0  0
  145.4533  134.1488  153.6104 H   0  0  0  0  0  0  0  0  0  0  0  0
  147.0422  135.5050  151.5936 H   0  0  0  0  0  0  0  0  0  0  0  0
  1  2  1  0  0  0  0
  1 20  1  0  0  0  0
  1 21  1  0  0  0  0
  1 22  1  0  0  0  0
  2 19  1  0  0  0  0
  2  3  2  0  0  0  0
  3  4  1  0  0  0  0
  4  5  2  0  0  0  0
  5  6  1  0  0  0  0
  5 19  1  0  0  0  0
  6  7  1  0  0  0  0
  6 23  1  0  0  0  0
  7  8  2  0  0  0  0
  7  9  1  0  0  0  0
  9 10  1  0  0  0  0
  9 24  1  0  0  0  0
 10 18  1  0  0  0  0
 10 11  1  0  0  0  0
 10 25  1  0  0  0  0
 11 12  1  0  0  0  0
 11 26  1  0  0  0  0
 11 27  1  0  0  0  0
 12 13  1  0  0  0  0
 12 28  1  0  0  0  0
 12 29  1  0  0  0  0
 13 18  1  0  0  0  0
 13 14  1  0  0  0  0
 13 39  1  0  0  0  0
 14 15  1  0  0  0  0
 14 30  1  0  0  0  0
 14 31  1  0  0  0  0
 15 16  1  0  0  0  0
 15 32  1  0  0  0  0
 15 33  1  0  0  0  0
 16 17  1  0  0  0  0
 16 34  1  0  0  0  0
 16 35  1  0  0  0  0
 17 18  1  0  0  0  0
 17 36  1  0  0  0  0
 17 37  1  0  0  0  0
 18 38  1  0  0  0  0
M  CHG  1  13   1
M  END
> <s_m_source_file>
AV-unprocessed.smi

> <i_m_source_file_index>
1897

> <i_lp_mmshare_version>
43012

> <i_f3d_flags>
0

> <s_epik_input>
W0NIM11jMW5uYyhzMSlbTkhdQyg9TylbTkhdW0NASF0oW0NIMl1bQ0gyXTIpW0NAQEhdKE4yMylbQ0gyXVtDSDJdW0NIMl1bQ0gyXTM=

> <s_epik_cmdline>
J2VwaWtfcHl0aG9uJywgJy1waCcsICc3LjAnLCAnLXRuJywgJzgnLCAnLW1hJywgJzIwMCcsICctbWV0YWxfYmluZGluZycsICctaW1hZScsICc8aW5maWxlLm1hZT4nLCAnLW9tYWUnLCAnPG91dGZpbGUubWFlPic=

> <r_lp_tautomer_probability>
1

> <r_epik_Ionization_Penalty>
0.00228891

> <r_epik_Ionization_Penalty_Charging>
0.00107044

> <r_epik_Ionization_Penalty_Neutral>
0.00121847

> <r_epik_State_Penalty>
-0

> <r_epik_Charging_Adjusted_Penalty>
0.00107044

> <i_epik_Tot_Q>
1

> <i_epik_Tot_abs_Q>
1

> <r_epik_Metal_State_Penalty>
0.304057

> <b_epik_Metal_Only>
0

> <s_lp_Force_Field>
OPLS_2005

> <r_lp_Energy>
35.6377

> <b_lp_Chiralities_Consistent>
1

> <s_lp_Variant>
AV-unprocessed.smi:1897-3

> <Gold.Version>
5.8.1

> <Gold.Id.Protein>
6NUR|6NUR_protein|mol2

> <Gold.PLP.Fitness>
35.9604

> <Gold.PLP.PLP>
-24.9424

> <Gold.PLP.part.hbond>
-3.0000

> <Gold.PLP.part.metal>
0.0000

> <Gold.PLP.part.buried>
-1.5621

> <Gold.PLP.part.nonpolar>
-20.1566

> <Gold.PLP.part.repulsive>
0.0248

> <Gold.PLP.ligand.clash>
0.0000

> <Gold.PLP.ligand.torsion>
0.0879

> <Gold.PLP.Chemscore.Hbond>
3.7280

> <Gold.PLP.Chemscore.CHOScore>
0.0000

> <Gold.PLP.Chemscore.Metal>
0.0000

> <Gold.Chemscore.Hbonds>
donor molecule, donor type, donor heavy atom, donor atom, acceptor molecule, acceptor atom, score
      L1  H    13    39       P1  7948  1.98
      P1  H  6931  6943       L1     3  0.83
      P1  H  6934  6947       L1     3  0.90

> <Gold.PLP.Chemscore.Internal.Correction>
0.0097

> <Gold.Rescore>
     Score         DG    S(hbond)    S(metal)    S(lipo)     H(rot)  DE(clash)    DE(int)     intcor
     15.31     -16.55       1.97        0.00      60.12       1.00       0.01       1.22       ----

> <Gold.Chemscore.Fitness>
15.3128

> <Gold.Chemscore.DG>
-16.5478

> <Gold.Chemscore.ZeroCoef>
-5.4800

> <Gold.Chemscore.Hbond>
1.9743

> <Gold.Chemscore.Metal>
0.0000

> <Gold.Chemscore.Lipo>
60.1173

> <Gold.Chemscore.Internal_Hbond>
0.0000

> <Gold.Chemscore.DEClash>
0.0149

> <Gold.Chemscore.DEInternal>
1.2201

> <Gold.Chemscore.Rot>
1.0000

> <Gold.Chemscore.Internal.Correction>
   9.000000E+99

> <Gold.Chemscore.Hbonds>
donor molecule, donor type, donor heavy atom, donor atom, acceptor molecule, acceptor atom, score
      L1  H    13    39       P1  7948  0.89
      P1  H  6931  6943       L1     3  0.49
      P1  H  6934  6947       L1     3  0.23

> <Gold.Chemscore.Hbond.Weighted>
-6.5940

> <Gold.Chemscore.Metal.Weighted>
-0.0000

> <Gold.Chemscore.Lipo.Weighted>
-7.0337

> <Gold.Chemscore.Internal_Hbond.Weighted>
0.0000

> <Gold.Chemscore.DEClash.Weighted>
0.0149

> <Gold.Chemscore.DEInternal.Weighted>
1.2201

> <Gold.Chemscore.Rot.Weighted>
2.5600

> <Gold.Chemscore.Internal.Correction.Weighted>
   9.000000E+99

> <Gold.Protein.RotatedTorsions>
[ 6907 6896 6895 6894 ] final  -41.86 input  -60.11 | X-H torsion
[ 7974 7965 7964 7962 ] final   54.71 input  175.53 | X-H torsion
[ 8008 7997 7996 7995 ] final  -25.41 input   59.86 | X-H torsion
[ 10167 10162 10161 10158 ] final  -17.41 input  -65.29 | X-H torsion
[ 10718 10713 10712 10709 ] final -169.13 input   66.30 | X-H torsion
[ 10763 10752 10751 10750 ] final -142.59 input  -60.55 | X-H torsion
[ 11005 11000 10999 10996 ] final  -59.62 input  -57.11 | X-H torsion

> <Gold.Protein.ActiveResidues>
 VAL166  LYS551  ARG553  GLY616  TRP617  ASP618  TYR619  PRO620  LYS621  CYS622 
 ASP623  PHE694  ASN695  SER759  ASP760  ASP761  ALA762  ILE779  LEU786  VAL792 
 PHE793  MET794  SER795  GLU796  ALA797  LYS798  CYS799  TRP800  GLU811  SER814 

> <Gold.Protein.RotatedAtoms>
  150.9619  134.9006  159.7735 H   0  0  0  0  0  0  0  0  0  0  0  0  # atno 6907 bound_to 6896
  152.5159  134.3661  159.9311 H   0  0  0  0  0  0  0  0  0  0  0  0  # atno 6908 bound_to 6896
  151.3673  133.3827  159.2730 H   0  0  0  0  0  0  0  0  0  0  0  0  # atno 6909 bound_to 6896
  145.9580  139.4032  143.0265 H   0  0  0  0  0  0  0  0  0  0  0  0  # atno 7974 bound_to 7965
  154.4477  140.1927  156.0615 H   0  0  0  0  0  0  0  0  0  0  0  0  # atno 8008 bound_to 7997
  156.0579  140.3300  155.7400 H   0  0  0  0  0  0  0  0  0  0  0  0  # atno 8009 bound_to 7997
  155.5456  140.0590  157.2851 H   0  0  0  0  0  0  0  0  0  0  0  0  # atno 8010 bound_to 7997
  140.7247  143.5018  150.9859 H   0  0  0  0  0  0  0  0  0  0  0  0  # atno 10167 bound_to 10162
  156.7070  130.9218  151.3085 H   0  0  0  0  0  0  0  0  0  0  0  0  # atno 10718 bound_to 10713
  154.8503  135.3491  154.6052 H   0  0  0  0  0  0  0  0  0  0  0  0  # atno 10763 bound_to 10752
  153.6661  135.6987  153.5166 H   0  0  0  0  0  0  0  0  0  0  0  0  # atno 10764 bound_to 10752
  153.2779  135.4272  155.1008 H   0  0  0  0  0  0  0  0  0  0  0  0  # atno 10765 bound_to 10752
  141.1255  133.6617  156.5099 H   0  0  0  0  0  0  0  0  0  0  0  0  # atno 11005 bound_to 11000
  145.8080  140.9739  143.0964 LP  0  0  0  0  0  0  0  0  0  0  0  0  # atno 17320 bound_to 7965
  144.6809  139.9885  143.7484 LP  0  0  0  0  0  0  0  0  0  0  0  0  # atno 17321 bound_to 7965
  139.8728  143.7171  152.3165 LP  0  0  0  0  0  0  0  0  0  0  0  0  # atno 17342 bound_to 10162
  139.7426  144.7555  151.0630 LP  0  0  0  0  0  0  0  0  0  0  0  0  # atno 17343 bound_to 10162
  157.6951  130.9273  150.0621 LP  0  0  0  0  0  0  0  0  0  0  0  0  # atno 17370 bound_to 10713
  156.1688  130.3646  149.9194 LP  0  0  0  0  0  0  0  0  0  0  0  0  # atno 17371 bound_to 10713
  140.4378  134.7043  157.4976 LP  0  0  0  0  0  0  0  0  0  0  0  0  # atno 17394 bound_to 11000
  140.0250  134.6491  155.9186 LP  0  0  0  0  0  0  0  0  0  0  0  0  # atno 17395 bound_to 11000

$$$$
