AV-unprocessed.smi:275|AV-procd|sdf|2062|dock4
  -GOLD-   2262021313D 1   1.00000     0.00000
 Structure written by MMmdl.
 65 69  0  0  0  0  0  0  0  0  1 V2000
  153.7959  140.8011  159.7500 C   0  0  0  0  0  0  0  0  0  0  0  0
  152.3275  140.3703  159.5508 C   0  0  0  0  0  0  0  0  0  0  0  0
  152.2716  138.9266  159.0250 C   0  0  0  0  0  0  0  0  0  0  0  0
  151.4538  141.2999  158.6791 C   0  0  2  0  0  0  0  0  0  0  0  0
  151.9204  141.4726  157.3085 N   0  0  0  0  0  0  0  0  0  0  0  0
  151.4387  140.5210  156.3708 C   0  0  0  0  0  0  0  0  0  0  0  0
  152.3785  139.8667  155.6430 N   0  0  0  0  0  0  0  0  0  0  0  0
  152.0361  138.9442  154.7395 C   0  0  0  0  0  0  0  0  0  0  0  0
  150.8181  138.5218  154.4012 N   0  0  0  0  0  0  0  0  0  0  0  0
  149.8607  139.1680  155.1233 C   0  0  0  0  0  0  0  0  0  0  0  0
  150.0789  140.1673  156.1153 C   0  0  0  0  0  0  0  0  0  0  0  0
  148.8558  140.5843  156.6307 N   0  0  0  0  0  0  0  0  0  0  0  0
  147.9714  139.8756  155.9842 C   0  0  0  0  0  0  0  0  0  0  0  0
  148.4892  139.0051  155.0535 N   0  0  0  0  0  0  0  0  0  0  0  0
  147.7450  138.1058  154.1892 C   0  0  0  0  0  0  0  0  0  0  0  0
  146.3417  138.6445  153.8143 C   0  0  2  0  0  0  0  0  0  0  0  0
  145.3404  138.5717  154.9927 C   0  0  0  0  0  0  0  0  0  0  0  0
  144.0310  138.9063  154.5800 O   0  0  0  0  0  0  0  0  0  0  0  0
  145.7920  137.9666  152.5337 C   0  0  2  0  0  0  0  0  0  0  0  0
  145.7893  136.4484  152.5683 C   0  0  0  0  0  0  0  0  0  0  0  0
  145.6668  136.0915  151.0907 C   0  0  0  0  0  0  0  0  0  0  0  0
  146.3325  137.1331  150.3855 O   0  0  0  0  0  0  0  0  0  0  0  0
  146.6227  138.2112  151.2695 C   0  0  0  0  0  0  0  0  0  0  0  0
  151.3037  142.7889  157.2359 C   0  0  0  0  0  0  0  0  0  0  0  0
  151.4264  142.8455  158.7702 C   0  0  0  0  0  0  0  0  0  0  0  0
  150.2110  143.4080  159.5274 C   0  0  0  0  0  0  0  0  0  0  0  0
  150.0629  144.9319  159.3938 C   0  0  0  0  0  0  0  0  0  0  0  0
  151.3205  145.6516  159.8918 C   0  0  0  0  0  0  0  0  0  0  0  0
  152.5702  145.1155  159.1854 C   0  0  0  0  0  0  0  0  0  0  0  0
  152.6731  143.5845  159.3012 C   0  0  0  0  0  0  0  0  0  0  0  0
  154.3173  140.9276  158.8009 H   0  0  0  0  0  0  0  0  0  0  0  0
  154.3419  140.0456  160.3152 H   0  0  0  0  0  0  0  0  0  0  0  0
  153.8884  141.7242  160.3159 H   0  0  0  0  0  0  0  0  0  0  0  0
  151.8770  140.3419  160.5436 H   0  0  0  0  0  0  0  0  0  0  0  0
  152.7317  138.8441  158.0399 H   0  0  0  0  0  0  0  0  0  0  0  0
  151.2425  138.5763  158.9411 H   0  0  0  0  0  0  0  0  0  0  0  0
  152.7953  138.2423  159.6928 H   0  0  0  0  0  0  0  0  0  0  0  0
  150.4192  140.9549  158.6883 H   0  0  0  0  0  0  0  0  0  0  0  0
  152.8562  138.4789  154.2127 H   0  0  0  0  0  0  0  0  0  0  0  0
  146.9105  139.9752  156.1628 H   0  0  0  0  0  0  0  0  0  0  0  0
  148.3450  137.9392  153.2945 H   0  0  0  0  0  0  0  0  0  0  0  0
  147.6595  137.1388  154.6867 H   0  0  0  0  0  0  0  0  0  0  0  0
  146.4631  139.7044  153.5855 H   0  0  0  0  0  0  0  0  0  0  0  0
  145.3249  137.5748  155.4331 H   0  0  0  0  0  0  0  0  0  0  0  0
  145.6363  139.2462  155.7958 H   0  0  0  0  0  0  0  0  0  0  0  0
  144.0888  139.5301  153.8722 H   0  0  0  0  0  0  0  0  0  0  0  0
  144.7715  138.3061  152.3489 H   0  0  0  0  0  0  0  0  0  0  0  0
  146.7332  136.0731  152.9667 H   0  0  0  0  0  0  0  0  0  0  0  0
  144.9774  136.0309  153.1640 H   0  0  0  0  0  0  0  0  0  0  0  0
  146.0950  135.1157  150.8608 H   0  0  0  0  0  0  0  0  0  0  0  0
  144.6193  136.0827  150.7871 H   0  0  0  0  0  0  0  0  0  0  0  0
  146.3983  139.1702  150.8018 H   0  0  0  0  0  0  0  0  0  0  0  0
  147.6894  138.1879  151.4967 H   0  0  0  0  0  0  0  0  0  0  0  0
  151.9102  143.5221  156.7042 H   0  0  0  0  0  0  0  0  0  0  0  0
  150.2725  142.7841  156.8822 H   0  0  0  0  0  0  0  0  0  0  0  0
  149.2934  142.9381  159.1711 H   0  0  0  0  0  0  0  0  0  0  0  0
  150.2807  143.1462  160.5840 H   0  0  0  0  0  0  0  0  0  0  0  0
  149.8784  145.1926  158.3510 H   0  0  0  0  0  0  0  0  0  0  0  0
  149.1937  145.2725  159.9570 H   0  0  0  0  0  0  0  0  0  0  0  0
  151.2285  146.7259  159.7294 H   0  0  0  0  0  0  0  0  0  0  0  0
  151.4206  145.5072  160.9683 H   0  0  0  0  0  0  0  0  0  0  0  0
  152.5429  145.4014  158.1333 H   0  0  0  0  0  0  0  0  0  0  0  0
  153.4620  145.5808  159.6061 H   0  0  0  0  0  0  0  0  0  0  0  0
  152.8561  143.3126  160.3414 H   0  0  0  0  0  0  0  0  0  0  0  0
  153.5586  143.2818  158.7434 H   0  0  0  0  0  0  0  0  0  0  0  0
  1  2  1  0  0  0  0
  1 31  1  0  0  0  0
  1 32  1  0  0  0  0
  1 33  1  0  0  0  0
  2  3  1  0  0  0  0
  2  4  1  0  0  0  0
  2 34  1  0  0  0  0
  3 35  1  0  0  0  0
  3 36  1  0  0  0  0
  3 37  1  0  0  0  0
  4 25  1  0  0  0  0
  4  5  1  0  0  0  0
  4 38  1  0  0  0  0
  5  6  1  0  0  0  0
  5 24  1  0  0  0  0
  6 11  1  0  0  0  0
  6  7  2  0  0  0  0
  7  8  1  0  0  0  0
  8  9  2  0  0  0  0
  8 39  1  0  0  0  0
  9 10  1  0  0  0  0
 10 14  1  0  0  0  0
 10 11  2  0  0  0  0
 11 12  1  0  0  0  0
 12 13  2  0  0  0  0
 13 14  1  0  0  0  0
 13 40  1  0  0  0  0
 14 15  1  0  0  0  0
 15 16  1  0  0  0  0
 15 41  1  0  0  0  0
 15 42  1  0  0  0  0
 16 17  1  0  0  0  0
 16 19  1  0  0  0  0
 16 43  1  0  0  0  0
 17 18  1  0  0  0  0
 17 44  1  0  0  0  0
 17 45  1  0  0  0  0
 18 46  1  0  0  0  0
 19 23  1  0  0  0  0
 19 20  1  0  0  0  0
 19 47  1  0  0  0  0
 20 21  1  0  0  0  0
 20 48  1  0  0  0  0
 20 49  1  0  0  0  0
 21 22  1  0  0  0  0
 21 50  1  0  0  0  0
 21 51  1  0  0  0  0
 22 23  1  0  0  0  0
 23 52  1  0  0  0  0
 23 53  1  0  0  0  0
 24 25  1  0  0  0  0
 24 54  1  0  0  0  0
 24 55  1  0  0  0  0
 25 30  1  0  0  0  0
 25 26  1  0  0  0  0
 26 27  1  0  0  0  0
 26 56  1  0  0  0  0
 26 57  1  0  0  0  0
 27 28  1  0  0  0  0
 27 58  1  0  0  0  0
 27 59  1  0  0  0  0
 28 29  1  0  0  0  0
 28 60  1  0  0  0  0
 28 61  1  0  0  0  0
 29 30  1  0  0  0  0
 29 62  1  0  0  0  0
 29 63  1  0  0  0  0
 30 64  1  0  0  0  0
 30 65  1  0  0  0  0
M  END
> <s_m_source_file>
AV-unprocessed.smi

> <i_m_source_file_index>
275

> <i_lp_mmshare_version>
43012

> <i_f3d_flags>
0

> <s_epik_input>
W0NIMl0xW0NIMl1bQ0gyXVtDSDJdW0NIMl1DMTJbQ0BIXShbQ0hdKFtDSDNdKVtDSDNdKU4oW0NIMl0yKWMobltjSF1uMyljKGMzNCluW2NIXW40W0NIMl1bQ0BIXShbQ0gyXVtPSF0pW0NAQEhdNVtDSDJdW0NIMl1PW0NIMl01

> <s_epik_cmdline>
J2VwaWtfcHl0aG9uJywgJy1waCcsICc3LjAnLCAnLXRuJywgJzgnLCAnLW1hJywgJzIwMCcsICctbWV0YWxfYmluZGluZycsICctaW1hZScsICc8aW5maWxlLm1hZT4nLCAnLW9tYWUnLCAnPG91dGZpbGUubWFlPic=

> <r_lp_tautomer_probability>
1

> <r_epik_Ionization_Penalty>
0.00375122

> <r_epik_Ionization_Penalty_Charging>
0

> <r_epik_Ionization_Penalty_Neutral>
0.00375122

> <r_epik_State_Penalty>
0.00260593

> <r_epik_Charging_Adjusted_Penalty>
0.00260593

> <i_epik_Tot_Q>
0

> <i_epik_Tot_abs_Q>
0

> <r_epik_Metal_State_Penalty>
-0

> <b_epik_Metal_Only>
0

> <s_lp_Force_Field>
OPLS_2005

> <r_lp_Energy>
69.4255

> <b_lp_Chiralities_Consistent>
1

> <s_lp_Variant>
AV-unprocessed.smi:275-1

> <Gold.Version>
5.8.1

> <Gold.Id.Protein>
6NUR|6NUR_protein|mol2

> <Gold.PLP.Fitness>
45.9576

> <Gold.PLP.PLP>
-41.6381

> <Gold.PLP.part.hbond>
-3.1782

> <Gold.PLP.part.metal>
0.0000

> <Gold.PLP.part.buried>
0.6856

> <Gold.PLP.part.nonpolar>
-40.5985

> <Gold.PLP.part.repulsive>
2.2760

> <Gold.PLP.ligand.clash>
0.0000

> <Gold.PLP.ligand.torsion>
0.8902

> <Gold.PLP.Chemscore.Hbond>
1.8450

> <Gold.PLP.Chemscore.CHOScore>
0.0000

> <Gold.PLP.Chemscore.Metal>
0.0000

> <Gold.Chemscore.Hbonds>
donor molecule, donor type, donor heavy atom, donor atom, acceptor molecule, acceptor atom, score
      L1  H    18    46       P1 10175  1.00
      P1  H  7997  8010       L1     7  0.93

> <Gold.PLP.Chemscore.Internal.Correction>
0.5649

> <Gold.Rescore>
     Score         DG    S(hbond)    S(metal)    S(lipo)     H(rot)  DE(clash)    DE(int)     intcor
     16.90     -21.00       1.75        0.00     138.29       2.54       3.20       0.89       ----

> <Gold.Chemscore.Fitness>
16.8956

> <Gold.Chemscore.DG>
-20.9953

> <Gold.Chemscore.ZeroCoef>
-5.4800

> <Gold.Chemscore.Hbond>
1.7459

> <Gold.Chemscore.Metal>
0.0000

> <Gold.Chemscore.Lipo>
138.2949

> <Gold.Chemscore.Internal_Hbond>
0.0000

> <Gold.Chemscore.DEClash>
3.2047

> <Gold.Chemscore.DEInternal>
0.8949

> <Gold.Chemscore.Rot>
2.5377

> <Gold.Chemscore.Internal.Correction>
   9.000000E+99

> <Gold.Chemscore.Hbonds>
donor molecule, donor type, donor heavy atom, donor atom, acceptor molecule, acceptor atom, score
      L1  H    18    46       P1 10175  1.00
      P1  H  7997  8010       L1     7  0.82

> <Gold.Chemscore.Hbond.Weighted>
-5.8313

> <Gold.Chemscore.Metal.Weighted>
-0.0000

> <Gold.Chemscore.Lipo.Weighted>
-16.1805

> <Gold.Chemscore.Internal_Hbond.Weighted>
0.0000

> <Gold.Chemscore.DEClash.Weighted>
3.2047

> <Gold.Chemscore.DEInternal.Weighted>
0.8949

> <Gold.Chemscore.Rot.Weighted>
6.4966

> <Gold.Chemscore.Internal.Correction.Weighted>
   9.000000E+99

> <Gold.Protein.RotatedTorsions>
[ 6907 6896 6895 6894 ] final  -24.74 input  -60.11 | X-H torsion
[ 7974 7965 7964 7962 ] final   60.01 input  175.53 | X-H torsion
[ 8008 7997 7996 7995 ] final   85.86 input   59.86 | X-H torsion
[ 10167 10162 10161 10158 ] final   58.16 input  -65.29 | X-H torsion
[ 10718 10713 10712 10709 ] final  163.42 input   66.30 | X-H torsion
[ 10763 10752 10751 10750 ] final  112.52 input  -60.55 | X-H torsion
[ 11005 11000 10999 10996 ] final -177.61 input  -57.11 | X-H torsion

> <Gold.Protein.ActiveResidues>
 VAL166  LYS551  ARG553  GLY616  TRP617  ASP618  TYR619  PRO620  LYS621  CYS622 
 ASP623  PHE694  ASN695  SER759  ASP760  ASP761  ALA762  ILE779  LEU786  VAL792 
 PHE793  MET794  SER795  GLU796  ALA797  LYS798  CYS799  TRP800  GLU811  SER814 

> <Gold.Protein.RotatedAtoms>
  151.1852  135.0378  159.8809 H   0  0  0  0  0  0  0  0  0  0  0  0  # atno 6907 bound_to 6896
  152.5442  134.1018  159.8331 H   0  0  0  0  0  0  0  0  0  0  0  0  # atno 6908 bound_to 6896
  151.1139  133.5105  159.2637 H   0  0  0  0  0  0  0  0  0  0  0  0  # atno 6909 bound_to 6896
  145.9008  139.3580  143.0593 H   0  0  0  0  0  0  0  0  0  0  0  0  # atno 7974 bound_to 7965
  155.9554  140.3397  155.6444 H   0  0  0  0  0  0  0  0  0  0  0  0  # atno 8008 bound_to 7997
  155.6866  140.0744  157.2482 H   0  0  0  0  0  0  0  0  0  0  0  0  # atno 8009 bound_to 7997
  154.4131  140.1665  156.2028 H   0  0  0  0  0  0  0  0  0  0  0  0  # atno 8010 bound_to 7997
  140.1902  144.4093  150.6575 H   0  0  0  0  0  0  0  0  0  0  0  0  # atno 10167 bound_to 10162
  157.1087  131.0462  151.2466 H   0  0  0  0  0  0  0  0  0  0  0  0  # atno 10718 bound_to 10713
  153.4791  135.3683  155.2432 H   0  0  0  0  0  0  0  0  0  0  0  0  # atno 10763 bound_to 10752
  154.8755  135.3950  154.3721 H   0  0  0  0  0  0  0  0  0  0  0  0  # atno 10764 bound_to 10752
  153.4322  135.7082  153.6288 H   0  0  0  0  0  0  0  0  0  0  0  0  # atno 10765 bound_to 10752
  140.4390  134.6449  157.4748 H   0  0  0  0  0  0  0  0  0  0  0  0  # atno 11005 bound_to 11000
  145.8793  140.9372  143.0609 LP  0  0  0  0  0  0  0  0  0  0  0  0  # atno 17320 bound_to 7965
  144.6736  140.0759  143.7471 LP  0  0  0  0  0  0  0  0  0  0  0  0  # atno 17321 bound_to 7965
  140.6461  143.2214  151.6183 LP  0  0  0  0  0  0  0  0  0  0  0  0  # atno 17342 bound_to 10162
  139.5259  144.3061  152.1033 LP  0  0  0  0  0  0  0  0  0  0  0  0  # atno 17343 bound_to 10162
  157.4578  130.7635  149.7208 LP  0  0  0  0  0  0  0  0  0  0  0  0  # atno 17370 bound_to 10713
  155.9856  130.3982  150.3255 LP  0  0  0  0  0  0  0  0  0  0  0  0  # atno 17371 bound_to 10713
  140.0083  134.6730  155.9421 LP  0  0  0  0  0  0  0  0  0  0  0  0  # atno 17394 bound_to 11000
  141.1713  133.6537  156.4664 LP  0  0  0  0  0  0  0  0  0  0  0  0  # atno 17395 bound_to 11000

$$$$
