AV-unprocessed.smi:2377|AV-procd|sdf|9445|dock3
  -GOLD-   2272013 73D 1   1.00000     0.00000
 Structure written by MMmdl.
 24 24  0  0  0  0  0  0  0  0  2 V2000
  146.2250  142.5210  154.1950 C   0  0  0  0  0  0  0  0  0  0  0  0
  147.2387  142.3164  155.2461 N   0  3  0  0  0  0  0  0  0  0  0  0
  148.2107  141.2472  154.9412 C   0  0  0  0  0  0  0  0  0  0  0  0
  149.4302  141.3078  155.8780 C   0  0  2  0  0  0  0  0  0  0  0  0
  149.9736  142.6134  155.8350 O   0  0  0  0  0  0  0  0  0  0  0  0
  150.4607  140.2543  155.5050 C   0  0  0  0  0  0  0  0  0  0  0  0
  150.1490  139.1982  154.6207 C   0  0  0  0  0  0  0  0  0  0  0  0
  151.1422  138.2467  154.3193 C   0  0  0  0  0  0  0  0  0  0  0  0
  152.4097  138.3874  154.9180 C   0  0  0  0  0  0  0  0  0  0  0  0
  152.7196  139.3894  155.7685 N   0  0  0  0  0  0  0  0  0  0  0  0
  151.7623  140.2983  156.0511 C   0  0  0  0  0  0  0  0  0  0  0  0
  145.5451  143.3225  154.4837 H   0  0  0  0  0  0  0  0  0  0  0  0
  145.6388  141.6145  154.0402 H   0  0  0  0  0  0  0  0  0  0  0  0
  146.6963  142.7965  153.2509 H   0  0  0  0  0  0  0  0  0  0  0  0
  147.7493  143.1787  155.3754 H   0  0  0  0  0  0  0  0  0  0  0  0
  147.7094  140.2844  155.0518 H   0  0  0  0  0  0  0  0  0  0  0  0
  148.5261  141.3254  153.8995 H   0  0  0  0  0  0  0  0  0  0  0  0
  149.1058  141.1244  156.9034 H   0  0  0  0  0  0  0  0  0  0  0  0
  149.2618  143.2359  155.8234 H   0  0  0  0  0  0  0  0  0  0  0  0
  149.1660  139.1148  154.1806 H   0  0  0  0  0  0  0  0  0  0  0  0
  150.9376  137.4279  153.6452 H   0  0  0  0  0  0  0  0  0  0  0  0
  153.1948  137.6755  154.7098 H   0  0  0  0  0  0  0  0  0  0  0  0
  152.0452  141.0834  156.7368 H   0  0  0  0  0  0  0  0  0  0  0  0
  146.7683  142.0876  156.1101 H   0  0  0  0  0  0  0  0  0  0  0  0
  1  2  1  0  0  0  0
  1 12  1  0  0  0  0
  1 13  1  0  0  0  0
  1 14  1  0  0  0  0
  2  3  1  0  0  0  0
  2 15  1  0  0  0  0
  2 24  1  0  0  0  0
  3  4  1  0  0  0  0
  3 16  1  0  0  0  0
  3 17  1  0  0  0  0
  4  5  1  0  0  0  0
  4  6  1  0  0  0  0
  4 18  1  0  0  0  0
  5 19  1  0  0  0  0
  6 11  1  0  0  0  0
  6  7  2  0  0  0  0
  7  8  1  0  0  0  0
  7 20  1  0  0  0  0
  8  9  2  0  0  0  0
  8 21  1  0  0  0  0
  9 10  1  0  0  0  0
  9 22  1  0  0  0  0
 10 11  2  0  0  0  0
 11 23  1  0  0  0  0
M  CHG  1   2   1
M  END
> <s_m_source_file>
AV-unprocessed.smi

> <i_m_source_file_index>
2377

> <i_lp_mmshare_version>
43012

> <i_f3d_flags>
0

> <s_epik_input>
W0NIM11bTkhdW0NIMl1bQ0BIXShbT0hdKWMxW2NIXVtjSF1bY0hdbltjSF0x

> <s_epik_cmdline>
J2VwaWtfcHl0aG9uJywgJy1waCcsICc3LjAnLCAnLXRuJywgJzgnLCAnLW1hJywgJzIwMCcsICctbWV0YWxfYmluZGluZycsICctaW1hZScsICc8aW5maWxlLm1hZT4nLCAnLW9tYWUnLCAnPG91dGZpbGUubWFlPic=

> <r_epik_Ionization_Penalty>
0.00990913

> <r_epik_Ionization_Penalty_Charging>
0.00939893

> <r_epik_Ionization_Penalty_Neutral>
0.000510194

> <r_epik_State_Penalty>
0.00713549

> <r_epik_Charging_Adjusted_Penalty>
0.0165344

> <i_epik_Tot_Q>
1

> <i_epik_Tot_abs_Q>
1

> <r_epik_Metal_State_Penalty>
0.00716299

> <b_epik_Metal_Only>
0

> <s_lp_Force_Field>
OPLS_2005

> <r_lp_Energy>
6.48909

> <b_lp_Chiralities_Consistent>
1

> <s_lp_Variant>
AV-unprocessed.smi:2377-1

> <Gold.Version>
5.8.1

> <Gold.Id.Protein>
6NUR|6NUR_protein|mol2

> <Gold.PLP.Fitness>
38.5243

> <Gold.PLP.PLP>
-27.3053

> <Gold.PLP.part.hbond>
-2.7746

> <Gold.PLP.part.metal>
0.0000

> <Gold.PLP.part.buried>
-3.6736

> <Gold.PLP.part.nonpolar>
-20.1981

> <Gold.PLP.part.repulsive>
0.1010

> <Gold.PLP.ligand.clash>
0.0000

> <Gold.PLP.ligand.torsion>
0.3971

> <Gold.PLP.Chemscore.Hbond>
4.0000

> <Gold.PLP.Chemscore.CHOScore>
0.0000

> <Gold.PLP.Chemscore.Metal>
0.0000

> <Gold.Chemscore.Hbonds>
donor molecule, donor type, donor heavy atom, donor atom, acceptor molecule, acceptor atom, score
      L1  H     2    15       P1  8028  2.00
      L1  H     5    19       P1  8028  0.91
      P1  H  7997  8010       L1    10  1.00

> <Gold.PLP.Chemscore.Internal.Correction>
0.0133

> <Gold.Rescore>
     Score         DG    S(hbond)    S(metal)    S(lipo)     H(rot)  DE(clash)    DE(int)     intcor
     15.03     -15.33       2.42        0.00      59.72       2.03       0.10       0.20       ----

> <Gold.Chemscore.Fitness>
15.0320

> <Gold.Chemscore.DG>
-15.3293

> <Gold.Chemscore.ZeroCoef>
-5.4800

> <Gold.Chemscore.Hbond>
2.4163

> <Gold.Chemscore.Metal>
0.0000

> <Gold.Chemscore.Lipo>
59.7155

> <Gold.Chemscore.Internal_Hbond>
0.0000

> <Gold.Chemscore.DEClash>
0.0980

> <Gold.Chemscore.DEInternal>
0.1993

> <Gold.Chemscore.Rot>
2.0344

> <Gold.Chemscore.Internal.Correction>
   9.000000E+99

> <Gold.Chemscore.Hbonds>
donor molecule, donor type, donor heavy atom, donor atom, acceptor molecule, acceptor atom, score
      L1  H     2    15       P1  8028  0.45
      L1  H     5    19       P1  8028  0.83
      P1  H  7997  8010       L1    10  0.65

> <Gold.Chemscore.Hbond.Weighted>
-8.0705

> <Gold.Chemscore.Metal.Weighted>
-0.0000

> <Gold.Chemscore.Lipo.Weighted>
-6.9867

> <Gold.Chemscore.Internal_Hbond.Weighted>
0.0000

> <Gold.Chemscore.DEClash.Weighted>
0.0980

> <Gold.Chemscore.DEInternal.Weighted>
0.1993

> <Gold.Chemscore.Rot.Weighted>
5.2080

> <Gold.Chemscore.Internal.Correction.Weighted>
   9.000000E+99

> <Gold.Protein.RotatedTorsions>
[ 6907 6896 6895 6894 ] final  -36.54 input  -60.11 | X-H torsion
[ 7974 7965 7964 7962 ] final -116.49 input  175.53 | X-H torsion
[ 8008 7997 7996 7995 ] final   82.97 input   59.86 | X-H torsion
[ 10167 10162 10161 10158 ] final  122.96 input  -65.29 | X-H torsion
[ 10718 10713 10712 10709 ] final -145.42 input   66.30 | X-H torsion
[ 10763 10752 10751 10750 ] final  108.18 input  -60.55 | X-H torsion
[ 11005 11000 10999 10996 ] final   13.43 input  -57.11 | X-H torsion

> <Gold.Protein.ActiveResidues>
 VAL166  LYS551  ARG553  GLY616  TRP617  ASP618  TYR619  PRO620  LYS621  CYS622 
 ASP623  PHE694  ASN695  SER759  ASP760  ASP761  ALA762  ILE779  LEU786  VAL792 
 PHE793  MET794  SER795  GLU796  ALA797  LYS798  CYS799  TRP800  GLU811  SER814 

> <Gold.Protein.RotatedAtoms>
  151.0259  134.9503  159.8084 H   0  0  0  0  0  0  0  0  0  0  0  0  # atno 6907 bound_to 6896
  152.5335  134.2843  159.9029 H   0  0  0  0  0  0  0  0  0  0  0  0  # atno 6908 bound_to 6896
  151.2851  133.4149  159.2663 H   0  0  0  0  0  0  0  0  0  0  0  0  # atno 6909 bound_to 6896
  145.0962  140.8522  143.3953 H   0  0  0  0  0  0  0  0  0  0  0  0  # atno 7974 bound_to 7965
  155.9178  140.3423  155.6149 H   0  0  0  0  0  0  0  0  0  0  0  0  # atno 8008 bound_to 7997
  155.7310  140.0795  157.2307 H   0  0  0  0  0  0  0  0  0  0  0  0  # atno 8009 bound_to 7997
  154.4065  140.1588  156.2496 H   0  0  0  0  0  0  0  0  0  0  0  0  # atno 8010 bound_to 7997
  139.5827  144.6993  151.3487 H   0  0  0  0  0  0  0  0  0  0  0  0  # atno 10167 bound_to 10162
  156.3822  130.7843  151.2036 H   0  0  0  0  0  0  0  0  0  0  0  0  # atno 10718 bound_to 10713
  153.4171  135.3820  155.2088 H   0  0  0  0  0  0  0  0  0  0  0  0  # atno 10763 bound_to 10752
  154.8742  135.3808  154.4429 H   0  0  0  0  0  0  0  0  0  0  0  0  # atno 10764 bound_to 10752
  153.4945  135.7088  153.5928 H   0  0  0  0  0  0  0  0  0  0  0  0  # atno 10765 bound_to 10752
  140.4809  134.0937  155.7751 H   0  0  0  0  0  0  0  0  0  0  0  0  # atno 11005 bound_to 11000
  145.1008  139.2824  143.5687 LP  0  0  0  0  0  0  0  0  0  0  0  0  # atno 17320 bound_to 7965
  146.3530  140.0575  142.8631 LP  0  0  0  0  0  0  0  0  0  0  0  0  # atno 17321 bound_to 7965
  140.7103  143.7407  150.7556 LP  0  0  0  0  0  0  0  0  0  0  0  0  # atno 17342 bound_to 10162
  140.0943  143.4848  152.2461 LP  0  0  0  0  0  0  0  0  0  0  0  0  # atno 17343 bound_to 10162
  157.7493  131.0341  150.4300 LP  0  0  0  0  0  0  0  0  0  0  0  0  # atno 17370 bound_to 10713
  156.4546  130.4019  149.6614 LP  0  0  0  0  0  0  0  0  0  0  0  0  # atno 17371 bound_to 10713
  141.1532  133.8931  157.2045 LP  0  0  0  0  0  0  0  0  0  0  0  0  # atno 17394 bound_to 11000
  139.9827  135.0092  156.9789 LP  0  0  0  0  0  0  0  0  0  0  0  0  # atno 17395 bound_to 11000

$$$$
