AV-unprocessed.smi:3078|AV-procd|sdf|11732|dock3
  -GOLD-   2272017133D 1   1.00000     0.00000
 Structure written by MMmdl.
 23 23  0  0  0  0  0  0  0  0  2 V2000
  146.0567  128.9808  152.3964 C   0  0  0  0  0  0  0  0  0  0  0  0
  145.8896  130.3402  151.9284 N   0  0  0  0  0  0  0  0  0  0  0  0
  144.8909  130.8614  151.1349 C   0  0  0  0  0  0  0  0  0  0  0  0
  145.1578  132.1914  150.9567 C   0  0  0  0  0  0  0  0  0  0  0  0
  144.3809  133.2275  150.1875 C   0  0  1  0  0  0  0  0  0  0  0  0
  145.1747  134.4306  150.0107 N   0  0  0  0  0  0  0  0  0  0  0  0
  143.9782  132.6891  148.8028 C   0  0  0  0  0  0  0  0  0  0  0  0
  143.4756  133.7594  147.9243 N   0  3  0  0  0  0  0  0  0  0  0  0
  146.3581  132.3859  151.6989 C   0  0  0  0  0  0  0  0  0  0  0  0
  146.7936  131.2783  152.2758 N   0  0  0  0  0  0  0  0  0  0  0  0
  145.2024  128.3736  152.0961 H   0  0  0  0  0  0  0  0  0  0  0  0
  146.1334  128.9705  153.4842 H   0  0  0  0  0  0  0  0  0  0  0  0
  146.9641  128.5532  151.9690 H   0  0  0  0  0  0  0  0  0  0  0  0
  144.0798  130.2503  150.7668 H   0  0  0  0  0  0  0  0  0  0  0  0
  143.4815  133.5037  150.7396 H   0  0  0  0  0  0  0  0  0  0  0  0
  145.6345  134.4085  149.1112 H   0  0  0  0  0  0  0  0  0  0  0  0
  144.5667  135.2378  149.9991 H   0  0  0  0  0  0  0  0  0  0  0  0
  144.8154  132.1840  148.3184 H   0  0  0  0  0  0  0  0  0  0  0  0
  143.1819  131.9513  148.9089 H   0  0  0  0  0  0  0  0  0  0  0  0
  142.7483  134.2737  148.4001 H   0  0  0  0  0  0  0  0  0  0  0  0
  143.1017  133.3471  147.0813 H   0  0  0  0  0  0  0  0  0  0  0  0
  146.9231  133.2964  151.8347 H   0  0  0  0  0  0  0  0  0  0  0  0
  144.2323  134.3847  147.6867 H   0  0  0  0  0  0  0  0  0  0  0  0
  1  2  1  0  0  0  0
  1 11  1  0  0  0  0
  1 12  1  0  0  0  0
  1 13  1  0  0  0  0
  2 10  1  0  0  0  0
  2  3  1  0  0  0  0
  3  4  2  0  0  0  0
  3 14  1  0  0  0  0
  4  5  1  0  0  0  0
  4  9  1  0  0  0  0
  5  6  1  0  0  0  0
  5  7  1  0  0  0  0
  5 15  1  0  0  0  0
  6 16  1  0  0  0  0
  6 17  1  0  0  0  0
  7  8  1  0  0  0  0
  7 18  1  0  0  0  0
  7 19  1  0  0  0  0
  8 20  1  0  0  0  0
  8 21  1  0  0  0  0
  8 23  1  0  0  0  0
  9 10  2  0  0  0  0
  9 22  1  0  0  0  0
M  CHG  1   8   1
M  END
> <s_m_source_file>
AV-unprocessed.smi

> <i_m_source_file_index>
3078

> <i_lp_mmshare_version>
43012

> <i_f3d_flags>
0

> <s_epik_input>
W0NIM11uMVtjSF1jKFtjSF1uMSlbQ0BIXShbTkgyXSlbQ0gyXVtOSDJd

> <s_epik_cmdline>
J2VwaWtfcHl0aG9uJywgJy1waCcsICc3LjAnLCAnLXRuJywgJzgnLCAnLW1hJywgJzIwMCcsICctbWV0YWxfYmluZGluZycsICctaW1hZScsICc8aW5maWxlLm1hZT4nLCAnLW9tYWUnLCAnPG91dGZpbGUubWFlPic=

> <r_lp_tautomer_probability>
1

> <r_epik_Ionization_Penalty>
0.0498714

> <r_epik_Ionization_Penalty_Charging>
0.00651912

> <r_epik_Ionization_Penalty_Neutral>
0.0433523

> <r_epik_State_Penalty>
0.141593

> <r_epik_Charging_Adjusted_Penalty>
0.148112

> <i_epik_Tot_Q>
1

> <i_epik_Tot_abs_Q>
1

> <r_epik_Metal_State_Penalty>
0.141584

> <b_epik_Metal_Only>
0

> <s_lp_Force_Field>
OPLS_2005

> <r_lp_Energy>
-1.23381

> <b_lp_Chiralities_Consistent>
1

> <s_lp_Variant>
AV-unprocessed.smi:3078-2

> <Gold.Version>
5.8.1

> <Gold.Id.Protein>
6NUR|6NUR_protein|mol2

> <Gold.PLP.Fitness>
39.5808

> <Gold.PLP.PLP>
-25.4024

> <Gold.PLP.part.hbond>
-4.0000

> <Gold.PLP.part.metal>
0.0000

> <Gold.PLP.part.buried>
-5.1219

> <Gold.PLP.part.nonpolar>
-16.9350

> <Gold.PLP.part.repulsive>
1.1502

> <Gold.PLP.ligand.clash>
0.0000

> <Gold.PLP.ligand.torsion>
0.4121

> <Gold.PLP.Chemscore.Hbond>
5.0000

> <Gold.PLP.Chemscore.CHOScore>
0.0000

> <Gold.PLP.Chemscore.Metal>
0.0000

> <Gold.Chemscore.Hbonds>
donor molecule, donor type, donor heavy atom, donor atom, acceptor molecule, acceptor atom, score
      L1  H     6    16       P1  7921  1.00
      L1  H     8    20       P1 10186  1.82
      L1  H     8    21       P1 10195  1.00
      L1  H     8    23       P1  7921  1.00

> <Gold.PLP.Chemscore.Internal.Correction>
0.0025

> <Gold.Rescore>
     Score         DG    S(hbond)    S(metal)    S(lipo)     H(rot)  DE(clash)    DE(int)     intcor
     20.89     -21.40       3.83        0.00      57.57       1.41       0.26       0.26       ----

> <Gold.Chemscore.Fitness>
20.8860

> <Gold.Chemscore.DG>
-21.4045

> <Gold.Chemscore.ZeroCoef>
-5.4800

> <Gold.Chemscore.Hbond>
3.8337

> <Gold.Chemscore.Metal>
0.0000

> <Gold.Chemscore.Lipo>
57.5685

> <Gold.Chemscore.Internal_Hbond>
0.0000

> <Gold.Chemscore.DEClash>
0.2566

> <Gold.Chemscore.DEInternal>
0.2620

> <Gold.Chemscore.Rot>
1.4123

> <Gold.Chemscore.Internal.Correction>
   9.000000E+99

> <Gold.Chemscore.Hbonds>
donor molecule, donor type, donor heavy atom, donor atom, acceptor molecule, acceptor atom, score
      L1  H     6    16       P1  7921  0.87
      L1  H     8    20       P1 10186  0.85
      L1  H     8    21       P1 10195  0.91
      L1  H     8    23       P1  7921  0.96

> <Gold.Chemscore.Hbond.Weighted>
-12.8044

> <Gold.Chemscore.Metal.Weighted>
-0.0000

> <Gold.Chemscore.Lipo.Weighted>
-6.7355

> <Gold.Chemscore.Internal_Hbond.Weighted>
0.0000

> <Gold.Chemscore.DEClash.Weighted>
0.2566

> <Gold.Chemscore.DEInternal.Weighted>
0.2620

> <Gold.Chemscore.Rot.Weighted>
3.6154

> <Gold.Chemscore.Internal.Correction.Weighted>
   9.000000E+99

> <Gold.Protein.RotatedTorsions>
[ 6907 6896 6895 6894 ] final -121.80 input  -60.11 | X-H torsion
[ 7974 7965 7964 7962 ] final -143.93 input  175.53 | X-H torsion
[ 8008 7997 7996 7995 ] final -173.92 input   59.86 | X-H torsion
[ 10167 10162 10161 10158 ] final  132.45 input  -65.29 | X-H torsion
[ 10718 10713 10712 10709 ] final  152.13 input   66.30 | X-H torsion
[ 10763 10752 10751 10750 ] final -176.01 input  -60.55 | X-H torsion
[ 11005 11000 10999 10996 ] final -125.49 input  -57.11 | X-H torsion

> <Gold.Protein.ActiveResidues>
 VAL166  LYS551  ARG553  GLY616  TRP617  ASP618  TYR619  PRO620  LYS621  CYS622 
 ASP623  PHE694  ASN695  SER759  ASP760  ASP761  ALA762  ILE779  LEU786  VAL792 
 PHE793  MET794  SER795  GLU796  ALA797  LYS798  CYS799  TRP800  GLU811  SER814 

> <Gold.Protein.RotatedAtoms>
  150.8517  133.7777  159.3023 H   0  0  0  0  0  0  0  0  0  0  0  0  # atno 6907 bound_to 6896
  151.5448  135.1066  159.9944 H   0  0  0  0  0  0  0  0  0  0  0  0  # atno 6908 bound_to 6896
  152.4557  133.7676  159.6837 H   0  0  0  0  0  0  0  0  0  0  0  0  # atno 6909 bound_to 6896
  144.8333  140.5773  143.5500 H   0  0  0  0  0  0  0  0  0  0  0  0  # atno 7974 bound_to 7965
  155.9636  140.1149  157.0874 H   0  0  0  0  0  0  0  0  0  0  0  0  # atno 8008 bound_to 7997
  154.4138  140.1177  156.5279 H   0  0  0  0  0  0  0  0  0  0  0  0  # atno 8009 bound_to 7997
  155.6688  140.3473  155.4813 H   0  0  0  0  0  0  0  0  0  0  0  0  # atno 8010 bound_to 7997
  139.5339  144.6661  151.4854 H   0  0  0  0  0  0  0  0  0  0  0  0  # atno 10167 bound_to 10162
  157.2618  131.0799  151.1660 H   0  0  0  0  0  0  0  0  0  0  0  0  # atno 10718 bound_to 10713
  154.5775  135.2833  155.0766 H   0  0  0  0  0  0  0  0  0  0  0  0  # atno 10763 bound_to 10752
  154.2115  135.6407  153.5120 H   0  0  0  0  0  0  0  0  0  0  0  0  # atno 10764 bound_to 10752
  153.0077  135.5493  154.6418 H   0  0  0  0  0  0  0  0  0  0  0  0  # atno 10765 bound_to 10752
  140.9758  134.0742  157.3820 H   0  0  0  0  0  0  0  0  0  0  0  0  # atno 11005 bound_to 11000
  145.4848  139.1493  143.3742 LP  0  0  0  0  0  0  0  0  0  0  0  0  # atno 17320 bound_to 7965
  146.2635  140.4984  142.8844 LP  0  0  0  0  0  0  0  0  0  0  0  0  # atno 17321 bound_to 7965
  140.6534  143.8650  150.6809 LP  0  0  0  0  0  0  0  0  0  0  0  0  # atno 17342 bound_to 10162
  140.2022  143.3950  152.1783 LP  0  0  0  0  0  0  0  0  0  0  0  0  # atno 17343 bound_to 10162
  157.3167  130.6917  149.6246 LP  0  0  0  0  0  0  0  0  0  0  0  0  # atno 17370 bound_to 10713
  155.9664  130.4347  150.5061 LP  0  0  0  0  0  0  0  0  0  0  0  0  # atno 17371 bound_to 10713
  139.8930  135.0128  156.6875 LP  0  0  0  0  0  0  0  0  0  0  0  0  # atno 17394 bound_to 11000
  140.7261  133.9099  155.8179 LP  0  0  0  0  0  0  0  0  0  0  0  0  # atno 17395 bound_to 11000

$$$$
