AV-unprocessed.smi:1586|AV-procd|sdf|6380|dock3
  -GOLD-   22720 7 13D 1   1.00000     0.00000
 Structure written by MMmdl.
 46 47  0  0  0  0  0  0  0  0  3 V2000
  145.5834  132.9766  150.5206 C   0  0  0  0  0  0  0  0  0  0  0  0
  144.4081  132.6060  151.4364 C   0  0  0  0  0  0  0  0  0  0  0  0
  144.6787  132.9091  152.8637 N   0  3  0  0  0  0  0  0  0  0  0  0
  144.5299  134.3525  153.1718 C   0  0  0  0  0  0  0  0  0  0  0  0
  144.7670  134.6139  154.6740 C   0  0  0  0  0  0  0  0  0  0  0  0
  146.1035  134.1787  155.1004 N   0  0  0  0  0  0  0  0  0  0  0  0
  147.2286  134.9794  154.5692 C   0  0  1  0  0  0  0  0  0  0  0  0
  147.2736  136.3798  155.2179 C   0  0  0  0  0  0  0  0  0  0  0  0
  148.5929  134.2730  154.7610 C   0  0  0  0  0  0  0  0  0  0  0  0
  149.7114  135.1967  154.6043 N   0  0  0  0  0  0  0  0  0  0  0  0
  150.6618  135.4226  155.5201 C   0  0  0  0  0  0  0  0  0  0  0  0
  150.6302  134.8223  156.5967 O   0  0  0  0  0  0  0  0  0  0  0  0
  151.5884  136.3278  155.1303 N   0  5  0  0  0  0  0  0  0  0  0  0
  151.2740  137.6305  155.0604 C   0  0  0  0  0  0  0  0  0  0  0  0
  149.9606  138.1701  154.9940 C   0  0  0  0  0  0  0  0  0  0  0  0
  150.1778  139.5182  154.9577 C   0  0  0  0  0  0  0  0  0  0  0  0
  149.2590  140.6896  154.8825 C   0  0  0  0  0  0  0  0  0  0  0  0
  151.5111  139.7826  155.0073 O   0  0  0  0  0  0  0  0  0  0  0  0
  152.2056  138.5691  155.0783 N   0  0  0  0  0  0  0  0  0  0  0  0
  146.1816  132.7350  154.8381 C   0  0  0  0  0  0  0  0  0  0  0  0
  145.9939  132.4118  153.3410 C   0  0  0  0  0  0  0  0  0  0  0  0
  145.3868  132.6540  149.4979 H   0  0  0  0  0  0  0  0  0  0  0  0
  146.5057  132.4942  150.8458 H   0  0  0  0  0  0  0  0  0  0  0  0
  145.7565  134.0520  150.4911 H   0  0  0  0  0  0  0  0  0  0  0  0
  143.4953  133.1085  151.1133 H   0  0  0  0  0  0  0  0  0  0  0  0
  144.2266  131.5356  151.3296 H   0  0  0  0  0  0  0  0  0  0  0  0
  145.2088  134.9432  152.5556 H   0  0  0  0  0  0  0  0  0  0  0  0
  143.5198  134.6714  152.9125 H   0  0  0  0  0  0  0  0  0  0  0  0
  144.5976  135.6622  154.9137 H   0  0  0  0  0  0  0  0  0  0  0  0
  144.0235  134.0667  155.2555 H   0  0  0  0  0  0  0  0  0  0  0  0
  147.0948  135.1241  153.4980 H   0  0  0  0  0  0  0  0  0  0  0  0
  148.1824  136.9108  154.9341 H   0  0  0  0  0  0  0  0  0  0  0  0
  147.2569  136.3201  156.3069 H   0  0  0  0  0  0  0  0  0  0  0  0
  146.4427  137.0081  154.8989 H   0  0  0  0  0  0  0  0  0  0  0  0
  148.6521  133.7794  155.7310 H   0  0  0  0  0  0  0  0  0  0  0  0
  148.6950  133.4739  154.0250 H   0  0  0  0  0  0  0  0  0  0  0  0
  149.7660  135.7086  153.7359 H   0  0  0  0  0  0  0  0  0  0  0  0
  149.0144  137.6510  154.9731 H   0  0  0  0  0  0  0  0  0  0  0  0
  148.6505  140.7594  155.7841 H   0  0  0  0  0  0  0  0  0  0  0  0
  148.5890  140.5993  154.0275 H   0  0  0  0  0  0  0  0  0  0  0  0
  149.8160  141.6210  154.7779 H   0  0  0  0  0  0  0  0  0  0  0  0
  147.1152  132.3154  155.2086 H   0  0  0  0  0  0  0  0  0  0  0  0
  145.4010  132.2360  155.4140 H   0  0  0  0  0  0  0  0  0  0  0  0
  146.0493  131.3316  153.2114 H   0  0  0  0  0  0  0  0  0  0  0  0
  146.8005  132.8367  152.7421 H   0  0  0  0  0  0  0  0  0  0  0  0
  143.9714  132.4325  153.4048 H   0  0  0  0  0  0  0  0  0  0  0  0
  1  2  1  0  0  0  0
  1 22  1  0  0  0  0
  1 23  1  0  0  0  0
  1 24  1  0  0  0  0
  2  3  1  0  0  0  0
  2 25  1  0  0  0  0
  2 26  1  0  0  0  0
  3 21  1  0  0  0  0
  3  4  1  0  0  0  0
  3 46  1  0  0  0  0
  4  5  1  0  0  0  0
  4 27  1  0  0  0  0
  4 28  1  0  0  0  0
  5  6  1  0  0  0  0
  5 29  1  0  0  0  0
  5 30  1  0  0  0  0
  6  7  1  0  0  0  0
  6 20  1  0  0  0  0
  7  8  1  0  0  0  0
  7  9  1  0  0  0  0
  7 31  1  0  0  0  0
  8 32  1  0  0  0  0
  8 33  1  0  0  0  0
  8 34  1  0  0  0  0
  9 10  1  0  0  0  0
  9 35  1  0  0  0  0
  9 36  1  0  0  0  0
 10 11  1  0  0  0  0
 10 37  1  0  0  0  0
 11 12  2  0  0  0  0
 11 13  1  0  0  0  0
 13 14  1  0  0  0  0
 14 19  2  0  0  0  0
 14 15  1  0  0  0  0
 15 16  2  0  0  0  0
 15 38  1  0  0  0  0
 16 17  1  0  0  0  0
 16 18  1  0  0  0  0
 17 39  1  0  0  0  0
 17 40  1  0  0  0  0
 17 41  1  0  0  0  0
 18 19  1  0  0  0  0
 20 21  1  0  0  0  0
 20 42  1  0  0  0  0
 20 43  1  0  0  0  0
 21 44  1  0  0  0  0
 21 45  1  0  0  0  0
M  CHG  1   3   1
M  CHG  1  13  -1
M  END
> <s_m_source_file>
AV-unprocessed.smi

> <i_m_source_file_index>
1586

> <i_lp_mmshare_version>
43012

> <i_f3d_flags>
0

> <s_epik_input>
W0NIM11bQ0gyXU4xW0NIMl1bQ0gyXU4oW0NIMl1bQ0gyXTEpW0NASF0oW0NIM10pW0NIMl1bTkhdQyg9TylbTkhdYzJbY0hdYyhbQ0gzXSlvbjI=

> <s_epik_cmdline>
J2VwaWtfcHl0aG9uJywgJy1waCcsICc3LjAnLCAnLXRuJywgJzgnLCAnLW1hJywgJzIwMCcsICctbWV0YWxfYmluZGluZycsICctaW1hZScsICc8aW5maWxlLm1hZT4nLCAnLW9tYWUnLCAnPG91dGZpbGUubWFlPic=

> <r_epik_Ionization_Penalty>
6.66134

> <r_epik_Ionization_Penalty_Charging>
6.66063

> <r_epik_Ionization_Penalty_Neutral>
0.000714131

> <r_epik_State_Penalty>
6.77843

> <r_epik_Charging_Adjusted_Penalty>
13.4391

> <i_epik_Tot_Q>
0

> <i_epik_Tot_abs_Q>
2

> <r_epik_Metal_State_Penalty>
2.70494

> <b_epik_Metal_Only>
1

> <s_lp_Force_Field>
OPLS_2005

> <r_lp_Energy>
15.0096

> <b_lp_Chiralities_Consistent>
1

> <s_lp_Variant>
AV-unprocessed.smi:1586-8

> <Gold.Version>
5.8.1

> <Gold.Id.Protein>
6NUR|6NUR_protein|mol2

> <Gold.PLP.Fitness>
43.4666

> <Gold.PLP.PLP>
-28.4941

> <Gold.PLP.part.hbond>
-3.9848

> <Gold.PLP.part.metal>
0.0000

> <Gold.PLP.part.buried>
-5.6021

> <Gold.PLP.part.nonpolar>
-19.4791

> <Gold.PLP.part.repulsive>
0.3497

> <Gold.PLP.ligand.clash>
0.0000

> <Gold.PLP.ligand.torsion>
1.2806

> <Gold.PLP.Chemscore.Hbond>
5.8000

> <Gold.PLP.Chemscore.CHOScore>
0.0000

> <Gold.PLP.Chemscore.Metal>
0.0000

> <Gold.Chemscore.Hbonds>
donor molecule, donor type, donor heavy atom, donor atom, acceptor molecule, acceptor atom, score
      L1  H     3    46       P1 10957  1.80
      L1  H    10    37       P1  7948  0.73
      P1  H  7989  7998       L1    18  0.95
      P1  H 10752 10764       L1    13  2.00

> <Gold.PLP.Chemscore.Internal.Correction>
0.1337

> <Gold.Rescore>
     Score         DG    S(hbond)    S(metal)    S(lipo)     H(rot)  DE(clash)    DE(int)     intcor
     16.24     -17.61       3.41        0.00      44.08       1.73       0.11       1.26       ----

> <Gold.Chemscore.Fitness>
16.2381

> <Gold.Chemscore.DG>
-17.6077

> <Gold.Chemscore.ZeroCoef>
-5.4800

> <Gold.Chemscore.Hbond>
3.4091

> <Gold.Chemscore.Metal>
0.0000

> <Gold.Chemscore.Lipo>
44.0793

> <Gold.Chemscore.Internal_Hbond>
0.0000

> <Gold.Chemscore.DEClash>
0.1120

> <Gold.Chemscore.DEInternal>
1.2576

> <Gold.Chemscore.Rot>
1.7250

> <Gold.Chemscore.Internal.Correction>
   9.000000E+99

> <Gold.Chemscore.Hbonds>
donor molecule, donor type, donor heavy atom, donor atom, acceptor molecule, acceptor atom, score
      L1  H     3    46       P1 10957  0.17
      L1  H    10    37       P1  7948  0.10
      P1  H  7989  7998       L1    18  0.21
      P1  H 10752 10764       L1    13  0.70

> <Gold.Chemscore.Hbond.Weighted>
-11.3865

> <Gold.Chemscore.Metal.Weighted>
-0.0000

> <Gold.Chemscore.Lipo.Weighted>
-5.1573

> <Gold.Chemscore.Internal_Hbond.Weighted>
0.0000

> <Gold.Chemscore.DEClash.Weighted>
0.1120

> <Gold.Chemscore.DEInternal.Weighted>
1.2576

> <Gold.Chemscore.Rot.Weighted>
4.4161

> <Gold.Chemscore.Internal.Correction.Weighted>
   9.000000E+99

> <Gold.Protein.RotatedTorsions>
[ 6907 6896 6895 6894 ] final   98.60 input  -60.11 | X-H torsion
[ 7974 7965 7964 7962 ] final  -16.72 input  175.53 | X-H torsion
[ 8008 7997 7996 7995 ] final  -70.51 input   59.86 | X-H torsion
[ 10167 10162 10161 10158 ] final  -84.12 input  -65.29 | X-H torsion
[ 10718 10713 10712 10709 ] final  -83.11 input   66.30 | X-H torsion
[ 10763 10752 10751 10750 ] final  -46.86 input  -60.55 | X-H torsion
[ 11005 11000 10999 10996 ] final   68.96 input  -57.11 | X-H torsion

> <Gold.Protein.ActiveResidues>
 VAL166  LYS551  ARG553  GLY616  TRP617  ASP618  TYR619  PRO620  LYS621  CYS622 
 ASP623  PHE694  ASN695  SER759  ASP760  ASP761  ALA762  ILE779  LEU786  VAL792 
 PHE793  MET794  SER795  GLU796  ALA797  LYS798  CYS799  TRP800  GLU811  SER814 

> <Gold.Protein.RotatedAtoms>
  152.5406  134.0555  159.8128 H   0  0  0  0  0  0  0  0  0  0  0  0  # atno 6907 bound_to 6896
  151.0691  133.5474  159.2635 H   0  0  0  0  0  0  0  0  0  0  0  0  # atno 6908 bound_to 6896
  151.2344  135.0574  159.9054 H   0  0  0  0  0  0  0  0  0  0  0  0  # atno 6909 bound_to 6896
  146.1974  140.3677  142.8435 H   0  0  0  0  0  0  0  0  0  0  0  0  # atno 7974 bound_to 7965
  154.5017  140.0833  156.7812 H   0  0  0  0  0  0  0  0  0  0  0  0  # atno 8008 bound_to 7997
  155.3986  140.3436  155.4237 H   0  0  0  0  0  0  0  0  0  0  0  0  # atno 8009 bound_to 7997
  156.1465  140.1545  156.8826 H   0  0  0  0  0  0  0  0  0  0  0  0  # atno 8010 bound_to 7997
  140.4162  143.2602  151.8951 H   0  0  0  0  0  0  0  0  0  0  0  0  # atno 10167 bound_to 10162
  156.0023  130.4655  150.4208 H   0  0  0  0  0  0  0  0  0  0  0  0  # atno 10718 bound_to 10713
  154.0518  135.6630  153.4801 H   0  0  0  0  0  0  0  0  0  0  0  0  # atno 10763 bound_to 10752
  153.0460  135.5114  154.7743 H   0  0  0  0  0  0  0  0  0  0  0  0  # atno 10764 bound_to 10752
  154.6752  135.3036  154.9655 H   0  0  0  0  0  0  0  0  0  0  0  0  # atno 10765 bound_to 10752
  139.9681  134.6946  156.0503 H   0  0  0  0  0  0  0  0  0  0  0  0  # atno 11005 bound_to 11000
  144.8610  140.7139  143.6107 LP  0  0  0  0  0  0  0  0  0  0  0  0  # atno 17320 bound_to 7965
  145.3597  139.1685  143.4390 LP  0  0  0  0  0  0  0  0  0  0  0  0  # atno 17321 bound_to 7965
  139.4782  144.5485  151.8421 LP  0  0  0  0  0  0  0  0  0  0  0  0  # atno 17342 bound_to 10162
  140.4584  144.1757  150.5904 LP  0  0  0  0  0  0  0  0  0  0  0  0  # atno 17343 bound_to 10162
  157.2264  131.0494  151.2517 LP  0  0  0  0  0  0  0  0  0  0  0  0  # atno 17370 bound_to 10713
  157.3752  130.7202  149.6592 LP  0  0  0  0  0  0  0  0  0  0  0  0  # atno 17371 bound_to 10713
  141.1361  133.6575  156.3597 LP  0  0  0  0  0  0  0  0  0  0  0  0  # atno 17394 bound_to 11000
  140.5352  134.6174  157.5363 LP  0  0  0  0  0  0  0  0  0  0  0  0  # atno 17395 bound_to 11000

$$$$
