AV-unprocessed.smi:35|AV-procd|sdf|250|dock3
  -GOLD-   2262016 13D 1   1.00000     0.00000
 Structure written by MMmdl.
 29 30  0  0  0  0  0  0  0  0  1 V2000
  143.9957  146.1049  155.0345 O   0  0  0  0  0  0  0  0  0  0  0  0
  144.5654  145.0160  155.0488 C   0  0  0  0  0  0  0  0  0  0  0  0
  144.7362  144.3244  156.2517 N   0  0  0  0  0  0  0  0  0  0  0  0
  145.3621  143.0841  156.3916 C   0  0  0  0  0  0  0  0  0  0  0  0
  145.4721  142.5709  157.5044 O   0  0  0  0  0  0  0  0  0  0  0  0
  145.8566  142.4729  155.2182 N   0  0  0  0  0  0  0  0  0  0  0  0
  146.5431  141.1260  155.3379 C   0  0  1  0  0  0  0  0  0  0  0  0
  146.0994  140.2854  154.3097 O   0  0  0  0  0  0  0  0  0  0  0  0
  147.1784  139.9923  153.4297 C   0  0  2  0  0  0  0  0  0  0  0  0
  146.9159  138.6853  152.6606 C   0  0  0  0  0  0  0  0  0  0  0  0
  147.5946  138.6521  151.4220 O   0  0  0  0  0  0  0  0  0  0  0  0
  148.4118  140.0383  154.3324 C   0  0  1  0  0  0  0  0  0  0  0  0
  149.6251  140.1839  153.6177 O   0  0  0  0  0  0  0  0  0  0  0  0
  148.0869  141.2213  155.2390 C   0  0  1  0  0  0  0  0  0  0  0  0
  148.5416  142.4534  154.6974 O   0  0  0  0  0  0  0  0  0  0  0  0
  145.7207  143.1287  154.0005 C   0  0  0  0  0  0  0  0  0  0  0  0
  145.1144  144.3333  153.8824 C   0  0  0  0  0  0  0  0  0  0  0  0
  145.0251  145.1039  152.0597 Br  0  0  0  0  0  0  0  0  0  0  0  0
  144.3799  144.7603  157.0898 H   0  0  0  0  0  0  0  0  0  0  0  0
  146.1973  140.6892  156.2767 H   0  0  0  0  0  0  0  0  0  0  0  0
  147.2334  140.8106  152.7095 H   0  0  0  0  0  0  0  0  0  0  0  0
  147.2060  137.8229  153.2612 H   0  0  0  0  0  0  0  0  0  0  0  0
  145.8494  138.5879  152.4572 H   0  0  0  0  0  0  0  0  0  0  0  0
  148.2066  139.3719  151.3949 H   0  0  0  0  0  0  0  0  0  0  0  0
  148.4699  139.1383  154.9452 H   0  0  0  0  0  0  0  0  0  0  0  0
  149.4982  139.8547  152.7411 H   0  0  0  0  0  0  0  0  0  0  0  0
  148.5254  141.1007  156.2301 H   0  0  0  0  0  0  0  0  0  0  0  0
  148.6023  143.0825  155.3998 H   0  0  0  0  0  0  0  0  0  0  0  0
  146.1121  142.6790  153.1012 H   0  0  0  0  0  0  0  0  0  0  0  0
  1  2  2  0  0  0  0
  2 17  1  0  0  0  0
  2  3  1  0  0  0  0
  3 19  1  0  0  0  0
  3  4  1  0  0  0  0
  4  5  2  0  0  0  0
  4  6  1  0  0  0  0
  6  7  1  0  0  0  0
  6 16  1  0  0  0  0
  7 14  1  0  0  0  0
  7  8  1  0  0  0  0
  7 20  1  0  0  0  0
  8  9  1  0  0  0  0
  9 10  1  0  0  0  0
  9 12  1  0  0  0  0
  9 21  1  0  0  0  0
 10 11  1  0  0  0  0
 10 22  1  0  0  0  0
 10 23  1  0  0  0  0
 11 24  1  0  0  0  0
 12 13  1  0  0  0  0
 12 14  1  0  0  0  0
 12 25  1  0  0  0  0
 13 26  1  0  0  0  0
 14 15  1  0  0  0  0
 14 27  1  0  0  0  0
 15 28  1  0  0  0  0
 16 17  2  0  0  0  0
 16 29  1  0  0  0  0
 17 18  1  0  0  0  0
M  END
> <s_m_source_file>
AV-unprocessed.smi

> <i_m_source_file_index>
35

> <i_lp_mmshare_version>
43012

> <i_f3d_flags>
0

> <s_epik_input>
Tz1jMVtuSF1jKD1PKW4oW2NIXWMxQnIpW0NAQEhdMk9bQ0BASF0oW0NIMl1bT0hdKVtDQEBIXShbT0hdKVtDQEhdMltPSF0=

> <s_epik_cmdline>
J2VwaWtfcHl0aG9uJywgJy1waCcsICc3LjAnLCAnLXRuJywgJzgnLCAnLW1hJywgJzIwMCcsICctbWV0YWxfYmluZGluZycsICctaW1hZScsICc8aW5maWxlLm1hZT4nLCAnLW9tYWUnLCAnPG91dGZpbGUubWFlPic=

> <r_lp_tautomer_probability>
0.999537

> <r_epik_Ionization_Penalty>
0.10812

> <r_epik_Ionization_Penalty_Charging>
0.108119

> <r_epik_Ionization_Penalty_Neutral>
4.93006e-07

> <r_epik_State_Penalty>
0.0979238

> <r_epik_Charging_Adjusted_Penalty>
0.206043

> <i_epik_Tot_Q>
0

> <i_epik_Tot_abs_Q>
0

> <r_epik_Metal_State_Penalty>
3.07911

> <b_epik_Metal_Only>
0

> <s_epik_Chemistry_Notes>
This compound contains an acetal/aminal-like group ( X-CH(R)-Y where X, Y are N, S, or O) that may be acid/base labile, releasing an aldehyde.

> <s_lp_Force_Field>
OPLS_2005

> <r_lp_Energy>
39.8494

> <b_lp_Chiralities_Consistent>
1

> <s_lp_Variant>
AV-unprocessed.smi:35-4

> <Gold.Version>
5.8.1

> <Gold.Id.Protein>
6NUR|6NUR_protein|mol2

> <Gold.PLP.Fitness>
37.8934

> <Gold.PLP.PLP>
-27.8197

> <Gold.PLP.part.hbond>
-5.5883

> <Gold.PLP.part.metal>
0.0000

> <Gold.PLP.part.buried>
-2.7829

> <Gold.PLP.part.nonpolar>
-20.3495

> <Gold.PLP.part.repulsive>
0.5075

> <Gold.PLP.ligand.clash>
0.5594

> <Gold.PLP.ligand.torsion>
0.7239

> <Gold.PLP.Chemscore.Hbond>
4.0158

> <Gold.PLP.Chemscore.CHOScore>
0.0000

> <Gold.PLP.Chemscore.Metal>
0.0000

> <Gold.Chemscore.Hbonds>
donor molecule, donor type, donor heavy atom, donor atom, acceptor molecule, acceptor atom, score
      L1  H    11    24       P1  7957  0.99
      L1  H    13    26       P1  7957  1.00
      L1  H    15    28       P1  8028  0.80
      P1  H  7954  7966       L1    11  0.70
      P1  H  7989  7998       L1    13  0.50

> <Gold.PLP.Chemscore.Internal.Correction>
0.0333

> <Gold.Rescore>
     Score         DG    S(hbond)    S(metal)    S(lipo)     H(rot)  DE(clash)    DE(int)     intcor
      9.26     -11.24       2.87        0.00      47.68       3.67       0.29       1.69       ----

> <Gold.Chemscore.Fitness>
9.2631

> <Gold.Chemscore.DG>
-11.2388

> <Gold.Chemscore.ZeroCoef>
-5.4800

> <Gold.Chemscore.Hbond>
2.8669

> <Gold.Chemscore.Metal>
0.0000

> <Gold.Chemscore.Lipo>
47.6824

> <Gold.Chemscore.Internal_Hbond>
0.0000

> <Gold.Chemscore.DEClash>
0.2879

> <Gold.Chemscore.DEInternal>
1.6878

> <Gold.Chemscore.Rot>
3.6701

> <Gold.Chemscore.Internal.Correction>
   9.000000E+99

> <Gold.Chemscore.Hbonds>
donor molecule, donor type, donor heavy atom, donor atom, acceptor molecule, acceptor atom, score
      L1  H    11    24       P1  7957  0.82
      L1  H    13    26       P1  7957  0.93
      L1  H    15    28       P1  8028  0.79
      P1  H  7954  7966       L1    11  0.09
      P1  H  7989  7998       L1    13  0.13

> <Gold.Chemscore.Hbond.Weighted>
-9.5754

> <Gold.Chemscore.Metal.Weighted>
-0.0000

> <Gold.Chemscore.Lipo.Weighted>
-5.5788

> <Gold.Chemscore.Internal_Hbond.Weighted>
0.0000

> <Gold.Chemscore.DEClash.Weighted>
0.2879

> <Gold.Chemscore.DEInternal.Weighted>
1.6878

> <Gold.Chemscore.Rot.Weighted>
9.3955

> <Gold.Chemscore.Internal.Correction.Weighted>
   9.000000E+99

> <Gold.Protein.RotatedTorsions>
[ 6907 6896 6895 6894 ] final -109.64 input  -60.11 | X-H torsion
[ 7974 7965 7964 7962 ] final  -44.38 input  175.53 | X-H torsion
[ 8008 7997 7996 7995 ] final  -31.73 input   59.86 | X-H torsion
[ 10167 10162 10161 10158 ] final    3.79 input  -65.29 | X-H torsion
[ 10718 10713 10712 10709 ] final  -22.24 input   66.30 | X-H torsion
[ 10763 10752 10751 10750 ] final    2.70 input  -60.55 | X-H torsion
[ 11005 11000 10999 10996 ] final  176.78 input  -57.11 | X-H torsion

> <Gold.Protein.ActiveResidues>
 VAL166  LYS551  ARG553  GLY616  TRP617  ASP618  TYR619  PRO620  LYS621  CYS622 
 ASP623  PHE694  ASN695  SER759  ASP760  ASP761  ALA762  ILE779  LEU786  VAL792 
 PHE793  MET794  SER795  GLU796  ALA797  LYS798  CYS799  TRP800  GLU811  SER814 

> <Gold.Protein.RotatedAtoms>
  150.7575  133.9499  159.3482 H   0  0  0  0  0  0  0  0  0  0  0  0  # atno 6907 bound_to 6896
  151.7415  135.0851  160.0326 H   0  0  0  0  0  0  0  0  0  0  0  0  # atno 6908 bound_to 6896
  152.3525  133.6160  159.5991 H   0  0  0  0  0  0  0  0  0  0  0  0  # atno 6909 bound_to 6896
  145.9926  140.7163  142.9309 H   0  0  0  0  0  0  0  0  0  0  0  0  # atno 7974 bound_to 7965
  154.4204  140.1756  156.1613 H   0  0  0  0  0  0  0  0  0  0  0  0  # atno 8008 bound_to 7997
  155.9836  140.3375  155.6662 H   0  0  0  0  0  0  0  0  0  0  0  0  # atno 8009 bound_to 7997
  155.6467  140.0686  157.2591 H   0  0  0  0  0  0  0  0  0  0  0  0  # atno 8010 bound_to 7997
  140.6568  143.7406  150.7668 H   0  0  0  0  0  0  0  0  0  0  0  0  # atno 10167 bound_to 10162
  156.5072  130.4601  149.6668 H   0  0  0  0  0  0  0  0  0  0  0  0  # atno 10718 bound_to 10713
  153.2923  135.6949  153.7281 H   0  0  0  0  0  0  0  0  0  0  0  0  # atno 10763 bound_to 10752
  153.6227  135.3424  155.3017 H   0  0  0  0  0  0  0  0  0  0  0  0  # atno 10764 bound_to 10752
  154.8527  135.4390  154.2009 H   0  0  0  0  0  0  0  0  0  0  0  0  # atno 10765 bound_to 10752
  140.3769  134.6981  157.4427 H   0  0  0  0  0  0  0  0  0  0  0  0  # atno 11005 bound_to 11000
  144.6894  140.3096  143.7250 LP  0  0  0  0  0  0  0  0  0  0  0  0  # atno 17320 bound_to 7965
  145.7607  139.1824  143.2269 LP  0  0  0  0  0  0  0  0  0  0  0  0  # atno 17321 bound_to 7965
  140.1068  143.4736  152.2393 LP  0  0  0  0  0  0  0  0  0  0  0  0  # atno 17342 bound_to 10162
  139.5792  144.7502  151.3683 LP  0  0  0  0  0  0  0  0  0  0  0  0  # atno 17343 bound_to 10162
  156.3275  130.7314  151.2237 LP  0  0  0  0  0  0  0  0  0  0  0  0  # atno 17370 bound_to 10713
  157.7455  131.0439  150.4765 LP  0  0  0  0  0  0  0  0  0  0  0  0  # atno 17371 bound_to 10713
  140.0508  134.6133  155.8864 LP  0  0  0  0  0  0  0  0  0  0  0  0  # atno 17394 bound_to 11000
  141.1936  133.6579  156.5557 LP  0  0  0  0  0  0  0  0  0  0  0  0  # atno 17395 bound_to 11000

$$$$
