AV-unprocessed.smi:85|AV-procd|sdf|810|dock10
  -GOLD-   2262017203D 1   1.00000     0.00000
 Structure written by MMmdl.
 62 65  0  0  0  0  0  0  0  0  1 V2000
  146.9755  137.1653  158.8901 C   0  0  0  0  0  0  0  0  0  0  0  0
  148.0732  137.5781  157.8951 C   0  0  0  0  0  0  0  0  0  0  0  0
  147.5673  137.8690  156.5520 N   0  0  0  0  0  0  0  0  0  0  0  0
  146.8804  136.8617  155.9577 C   0  0  0  0  0  0  0  0  0  0  0  0
  146.9656  135.6339  156.5285 N   0  0  0  0  0  0  0  0  0  0  0  0
  146.3141  134.5983  155.9924 C   0  0  0  0  0  0  0  0  0  0  0  0
  145.5353  134.5727  154.9094 N   0  0  0  0  0  0  0  0  0  0  0  0
  145.4487  135.8044  154.3299 C   0  0  0  0  0  0  0  0  0  0  0  0
  146.0943  136.9919  154.7763 C   0  0  0  0  0  0  0  0  0  0  0  0
  145.7864  138.0449  153.9230 N   0  0  0  0  0  0  0  0  0  0  0  0
  144.9964  137.5135  153.0317 C   0  0  0  0  0  0  0  0  0  0  0  0
  144.7217  136.1765  153.2119 N   0  0  0  0  0  0  0  0  0  0  0  0
  143.8655  135.3462  152.3766 C   0  0  0  0  0  0  0  0  0  0  0  0
  144.6239  134.3583  151.4398 C   0  0  0  0  0  0  0  0  0  0  0  0
  145.4806  135.1282  150.3937 C   0  0  0  0  0  0  0  0  0  0  0  0
  144.6856  135.8930  149.5097 O   0  0  0  0  0  0  0  0  0  0  0  0
  145.5038  133.4338  152.3181 C   0  0  0  0  0  0  0  0  0  0  0  0
  146.0743  132.2331  151.5429 C   0  0  0  0  0  0  0  0  0  0  0  0
  145.0143  131.4861  150.9610 O   0  0  0  0  0  0  0  0  0  0  0  0
  144.2643  132.2381  150.0163 C   0  0  0  0  0  0  0  0  0  0  0  0
  143.6072  133.4491  150.7037 C   0  0  0  0  0  0  0  0  0  0  0  0
  148.4413  138.6680  155.6788 C   0  0  2  0  0  0  0  0  0  0  0  0
  149.5794  137.8658  155.0230 C   0  0  0  0  0  0  0  0  0  0  0  0
  150.3835  138.7675  154.0773 C   0  0  0  0  0  0  0  0  0  0  0  0
  150.8974  139.8958  154.7838 O   0  0  0  0  0  0  0  0  0  0  0  0
  149.9326  140.7428  155.4177 C   0  0  0  0  0  0  0  0  0  0  0  0
  150.7583  141.7527  156.2320 C   0  0  0  0  0  0  0  0  0  0  0  0
  149.1004  141.5088  154.3668 C   0  0  0  0  0  0  0  0  0  0  0  0
  149.0514  139.9030  156.3730 C   0  0  0  0  0  0  0  0  0  0  0  0
  147.3937  137.0311  159.8878 H   0  0  0  0  0  0  0  0  0  0  0  0
  146.5008  136.2253  158.6080 H   0  0  0  0  0  0  0  0  0  0  0  0
  146.2000  137.9286  158.9559 H   0  0  0  0  0  0  0  0  0  0  0  0
  148.5674  138.4722  158.2762 H   0  0  0  0  0  0  0  0  0  0  0  0
  148.8410  136.8067  157.8505 H   0  0  0  0  0  0  0  0  0  0  0  0
  146.4310  133.6559  156.5067 H   0  0  0  0  0  0  0  0  0  0  0  0
  144.5799  138.0896  152.2183 H   0  0  0  0  0  0  0  0  0  0  0  0
  143.1922  134.7963  153.0354 H   0  0  0  0  0  0  0  0  0  0  0  0
  143.2253  136.0077  151.7914 H   0  0  0  0  0  0  0  0  0  0  0  0
  146.1844  135.8079  150.8706 H   0  0  0  0  0  0  0  0  0  0  0  0
  146.0875  134.4403  149.8049 H   0  0  0  0  0  0  0  0  0  0  0  0
  144.6884  136.7907  149.8048 H   0  0  0  0  0  0  0  0  0  0  0  0
  146.3163  133.9961  152.7793 H   0  0  0  0  0  0  0  0  0  0  0  0
  144.9068  133.0457  153.1444 H   0  0  0  0  0  0  0  0  0  0  0  0
  146.7823  132.5481  150.7760 H   0  0  0  0  0  0  0  0  0  0  0  0
  146.6238  131.5821  152.2231 H   0  0  0  0  0  0  0  0  0  0  0  0
  144.9011  132.5428  149.1853 H   0  0  0  0  0  0  0  0  0  0  0  0
  143.4941  131.5923  149.5940 H   0  0  0  0  0  0  0  0  0  0  0  0
  142.8753  133.0712  151.4187 H   0  0  0  0  0  0  0  0  0  0  0  0
  143.0441  134.0205  149.9654 H   0  0  0  0  0  0  0  0  0  0  0  0
  147.7980  139.0196  154.8722 H   0  0  0  0  0  0  0  0  0  0  0  0
  150.2556  137.4646  155.7789 H   0  0  0  0  0  0  0  0  0  0  0  0
  149.1769  137.0150  154.4722 H   0  0  0  0  0  0  0  0  0  0  0  0
  151.2239  138.2106  153.6626 H   0  0  0  0  0  0  0  0  0  0  0  0
  149.7771  139.0826  153.2283 H   0  0  0  0  0  0  0  0  0  0  0  0
  150.1148  142.4440  156.7772 H   0  0  0  0  0  0  0  0  0  0  0  0
  151.4079  142.3441  155.5861 H   0  0  0  0  0  0  0  0  0  0  0  0
  151.3946  141.2488  156.9607 H   0  0  0  0  0  0  0  0  0  0  0  0
  148.4301  142.2226  154.8467 H   0  0  0  0  0  0  0  0  0  0  0  0
  148.4817  140.8528  153.7566 H   0  0  0  0  0  0  0  0  0  0  0  0
  149.7455  142.0697  153.6900 H   0  0  0  0  0  0  0  0  0  0  0  0
  148.2701  140.5307  156.8025 H   0  0  0  0  0  0  0  0  0  0  0  0
  149.6705  139.5700  157.2059 H   0  0  0  0  0  0  0  0  0  0  0  0
  1  2  1  0  0  0  0
  1 30  1  0  0  0  0
  1 31  1  0  0  0  0
  1 32  1  0  0  0  0
  2  3  1  0  0  0  0
  2 33  1  0  0  0  0
  2 34  1  0  0  0  0
  3  4  1  0  0  0  0
  3 22  1  0  0  0  0
  4  9  1  0  0  0  0
  4  5  2  0  0  0  0
  5  6  1  0  0  0  0
  6  7  2  0  0  0  0
  6 35  1  0  0  0  0
  7  8  1  0  0  0  0
  8 12  1  0  0  0  0
  8  9  2  0  0  0  0
  9 10  1  0  0  0  0
 10 11  2  0  0  0  0
 11 12  1  0  0  0  0
 11 36  1  0  0  0  0
 12 13  1  0  0  0  0
 13 14  1  0  0  0  0
 13 37  1  0  0  0  0
 13 38  1  0  0  0  0
 14 21  1  0  0  0  0
 14 15  1  0  0  0  0
 14 17  1  0  0  0  0
 15 16  1  0  0  0  0
 15 39  1  0  0  0  0
 15 40  1  0  0  0  0
 16 41  1  0  0  0  0
 17 18  1  0  0  0  0
 17 42  1  0  0  0  0
 17 43  1  0  0  0  0
 18 19  1  0  0  0  0
 18 44  1  0  0  0  0
 18 45  1  0  0  0  0
 19 20  1  0  0  0  0
 20 21  1  0  0  0  0
 20 46  1  0  0  0  0
 20 47  1  0  0  0  0
 21 48  1  0  0  0  0
 21 49  1  0  0  0  0
 22 29  1  0  0  0  0
 22 23  1  0  0  0  0
 22 50  1  0  0  0  0
 23 24  1  0  0  0  0
 23 51  1  0  0  0  0
 23 52  1  0  0  0  0
 24 25  1  0  0  0  0
 24 53  1  0  0  0  0
 24 54  1  0  0  0  0
 25 26  1  0  0  0  0
 26 27  1  0  0  0  0
 26 28  1  0  0  0  0
 26 29  1  0  0  0  0
 27 55  1  0  0  0  0
 27 56  1  0  0  0  0
 27 57  1  0  0  0  0
 28 58  1  0  0  0  0
 28 59  1  0  0  0  0
 28 60  1  0  0  0  0
 29 61  1  0  0  0  0
 29 62  1  0  0  0  0
M  END
> <s_m_source_file>
AV-unprocessed.smi

> <i_m_source_file_index>
85

> <i_lp_mmshare_version>
43012

> <i_f3d_flags>
0

> <s_epik_input>
W0NIM11DMShbQ0gzXSlPW0NIMl1bQ0gyXVtDQEhdKFtDSDJdMSlOKFtDSDJdW0NIM10pYyhuW2NIXW4yKWMoYzIzKW5bY0hdbjNbQ0gyXUM0KFtDSDJdW09IXSlbQ0gyXVtDSDJdT1tDSDJdW0NIMl00

> <s_epik_cmdline>
J2VwaWtfcHl0aG9uJywgJy1waCcsICc3LjAnLCAnLXRuJywgJzgnLCAnLW1hJywgJzIwMCcsICctbWV0YWxfYmluZGluZycsICctaW1hZScsICc8aW5maWxlLm1hZT4nLCAnLW9tYWUnLCAnPG91dGZpbGUubWFlPic=

> <r_lp_tautomer_probability>
1

> <r_epik_Ionization_Penalty>
0.00336056

> <r_epik_Ionization_Penalty_Charging>
0

> <r_epik_Ionization_Penalty_Neutral>
0.00336056

> <r_epik_State_Penalty>
0.00222191

> <r_epik_Charging_Adjusted_Penalty>
0.00222191

> <i_epik_Tot_Q>
0

> <i_epik_Tot_abs_Q>
0

> <r_epik_Metal_State_Penalty>
-0

> <b_epik_Metal_Only>
0

> <s_lp_Force_Field>
OPLS_2005

> <r_lp_Energy>
35.7443

> <b_lp_Chiralities_Consistent>
1

> <s_lp_Variant>
AV-unprocessed.smi:85-1

> <Gold.Version>
5.8.1

> <Gold.Id.Protein>
6NUR|6NUR_protein|mol2

> <Gold.PLP.Fitness>
44.9074

> <Gold.PLP.PLP>
-33.9515

> <Gold.PLP.part.hbond>
-3.0000

> <Gold.PLP.part.metal>
0.0000

> <Gold.PLP.part.buried>
-2.5487

> <Gold.PLP.part.nonpolar>
-28.1788

> <Gold.PLP.part.repulsive>
0.3811

> <Gold.PLP.ligand.clash>
0.0000

> <Gold.PLP.ligand.torsion>
0.6633

> <Gold.PLP.Chemscore.Hbond>
1.9920

> <Gold.PLP.Chemscore.CHOScore>
1.8244

> <Gold.PLP.Chemscore.Metal>
0.0000

> <Gold.Chemscore.Hbonds>
donor molecule, donor type, donor heavy atom, donor atom, acceptor molecule, acceptor atom, score
      L1  H    16    41       P1 10171  0.98
      P1  H  7989  7998       L1    25  1.00
      L1  C    11    36       P1 10171  0.95
      L1  C    11    36       P1 10175  0.89

> <Gold.PLP.Chemscore.Internal.Correction>
0.8332

> <Gold.Rescore>
     Score         DG    S(hbond)    S(metal)    S(lipo)     H(rot)  DE(clash)    DE(int)     intcor
      9.62     -14.16       1.56        0.00      87.64       2.65       1.31       3.23       ----

> <Gold.Chemscore.Fitness>
9.6191

> <Gold.Chemscore.DG>
-14.1603

> <Gold.Chemscore.ZeroCoef>
-5.4800

> <Gold.Chemscore.Hbond>
1.5577

> <Gold.Chemscore.Metal>
0.0000

> <Gold.Chemscore.Lipo>
87.6386

> <Gold.Chemscore.Internal_Hbond>
0.0000

> <Gold.Chemscore.DEClash>
1.3120

> <Gold.Chemscore.DEInternal>
3.2292

> <Gold.Chemscore.Rot>
2.6469

> <Gold.Chemscore.Internal.Correction>
   9.000000E+99

> <Gold.Chemscore.Hbonds>
donor molecule, donor type, donor heavy atom, donor atom, acceptor molecule, acceptor atom, score
      L1  H    16    41       P1 10171  0.92
      P1  H  7989  7998       L1    25  0.22

> <Gold.Chemscore.Hbond.Weighted>
-5.2027

> <Gold.Chemscore.Metal.Weighted>
-0.0000

> <Gold.Chemscore.Lipo.Weighted>
-10.2537

> <Gold.Chemscore.Internal_Hbond.Weighted>
0.0000

> <Gold.Chemscore.DEClash.Weighted>
1.3120

> <Gold.Chemscore.DEInternal.Weighted>
3.2292

> <Gold.Chemscore.Rot.Weighted>
6.7761

> <Gold.Chemscore.Internal.Correction.Weighted>
   9.000000E+99

> <Gold.Protein.RotatedTorsions>
[ 6907 6896 6895 6894 ] final  -35.43 input  -60.11 | X-H torsion
[ 7974 7965 7964 7962 ] final  -16.21 input  175.53 | X-H torsion
[ 8008 7997 7996 7995 ] final   48.07 input   59.86 | X-H torsion
[ 10167 10162 10161 10158 ] final  -35.78 input  -65.29 | X-H torsion
[ 10718 10713 10712 10709 ] final  -63.44 input   66.30 | X-H torsion
[ 10763 10752 10751 10750 ] final  -98.04 input  -60.55 | X-H torsion
[ 11005 11000 10999 10996 ] final -134.81 input  -57.11 | X-H torsion

> <Gold.Protein.ActiveResidues>
 VAL166  LYS551  ARG553  GLY616  TRP617  ASP618  TYR619  PRO620  LYS621  CYS622 
 ASP623  PHE694  ASN695  SER759  ASP760  ASP761  ALA762  ILE779  LEU786  VAL792 
 PHE793  MET794  SER795  GLU796  ALA797  LYS798  CYS799  TRP800  GLU811  SER814 

> <Gold.Protein.RotatedAtoms>
  151.0399  134.9600  159.8155 H   0  0  0  0  0  0  0  0  0  0  0  0  # atno 6907 bound_to 6896
  152.5362  134.2671  159.8967 H   0  0  0  0  0  0  0  0  0  0  0  0  # atno 6908 bound_to 6896
  151.2683  133.4225  159.2654 H   0  0  0  0  0  0  0  0  0  0  0  0  # atno 6909 bound_to 6896
  146.1998  140.3604  142.8427 H   0  0  0  0  0  0  0  0  0  0  0  0  # atno 7974 bound_to 7965
  155.3796  140.3428  155.4246 H   0  0  0  0  0  0  0  0  0  0  0  0  # atno 8008 bound_to 7997
  156.1618  140.1603  156.8633 H   0  0  0  0  0  0  0  0  0  0  0  0  # atno 8009 bound_to 7997
  154.5146  140.0781  156.8039 H   0  0  0  0  0  0  0  0  0  0  0  0  # atno 8010 bound_to 7997
  140.7157  143.3453  151.2269 H   0  0  0  0  0  0  0  0  0  0  0  0  # atno 10167 bound_to 10162
  156.0791  130.4221  150.1277 H   0  0  0  0  0  0  0  0  0  0  0  0  # atno 10718 bound_to 10713
  154.7380  135.5024  153.9074 H   0  0  0  0  0  0  0  0  0  0  0  0  # atno 10763 bound_to 10752
  153.1014  135.6686  153.9673 H   0  0  0  0  0  0  0  0  0  0  0  0  # atno 10764 bound_to 10752
  153.9458  135.3063  155.3420 H   0  0  0  0  0  0  0  0  0  0  0  0  # atno 10765 bound_to 10752
  140.8956  134.1756  157.4497 H   0  0  0  0  0  0  0  0  0  0  0  0  # atno 11005 bound_to 11000
  144.8657  140.7203  143.6079 LP  0  0  0  0  0  0  0  0  0  0  0  0  # atno 17320 bound_to 7965
  145.3524  139.1703  143.4427 LP  0  0  0  0  0  0  0  0  0  0  0  0  # atno 17321 bound_to 7965
  139.6971  143.9595  152.2888 LP  0  0  0  0  0  0  0  0  0  0  0  0  # atno 17342 bound_to 10162
  139.9275  144.6762  150.8397 LP  0  0  0  0  0  0  0  0  0  0  0  0  # atno 17343 bound_to 10162
  156.9312  130.9714  151.3532 LP  0  0  0  0  0  0  0  0  0  0  0  0  # atno 17370 bound_to 10713
  157.5900  130.8437  149.8645 LP  0  0  0  0  0  0  0  0  0  0  0  0  # atno 17371 bound_to 10713
  139.8735  134.9877  156.5379 LP  0  0  0  0  0  0  0  0  0  0  0  0  # atno 17394 bound_to 11000
  140.8293  133.8291  155.8969 LP  0  0  0  0  0  0  0  0  0  0  0  0  # atno 17395 bound_to 11000

$$$$
