AV-unprocessed.smi:1779|AV-procd|sdf|7182|dock3
  -GOLD-   22720 8423D 1   1.00000     0.00000
 Structure written by MMmdl.
 47 48  0  0  0  0  0  0  0  0  2 V2000
  152.4855  141.6500  158.7268 C   0  0  0  0  0  0  0  0  0  0  0  0
  152.0463  140.9821  157.4573 C   0  0  0  0  0  0  0  0  0  0  0  0
  150.8582  141.2189  156.7065 C   0  0  0  0  0  0  0  0  0  0  0  0
  150.9803  140.3405  155.6646 C   0  0  0  0  0  0  0  0  0  0  0  0
  150.1314  140.1229  154.6249 N   0  0  0  0  0  0  0  0  0  0  0  0
  148.8031  140.3231  154.5688 C   0  0  0  0  0  0  0  0  0  0  0  0
  148.1076  140.7666  155.4825 O   0  0  0  0  0  0  0  0  0  0  0  0
  148.3117  139.9765  153.3713 N   0  0  0  0  0  0  0  0  0  0  0  0
  146.9041  140.0582  152.9981 C   0  0  0  0  0  0  0  0  0  0  0  0
  146.4470  138.7847  152.2655 C   0  0  1  0  0  0  0  0  0  0  0  0
  147.3917  138.5153  151.2488 O   0  0  0  0  0  0  0  0  0  0  0  0
  146.3517  137.5632  153.2065 C   0  0  0  0  0  0  0  0  0  0  0  0
  146.1916  136.2799  152.4749 N   0  3  0  0  0  0  0  0  0  0  0  0
  146.0125  135.1265  153.3955 C   0  0  0  0  0  0  0  0  0  0  0  0
  145.9934  133.7958  152.6244 C   0  0  0  0  0  0  0  0  0  0  0  0
  144.9059  133.8022  151.5425 C   0  0  0  0  0  0  0  0  0  0  0  0
  145.0882  135.0181  150.6250 C   0  0  0  0  0  0  0  0  0  0  0  0
  145.1241  136.3223  151.4391 C   0  0  0  0  0  0  0  0  0  0  0  0
  152.1591  139.6428  155.8068 N   0  0  0  0  0  0  0  0  0  0  0  0
  152.7273  138.6111  154.9610 C   0  0  0  0  0  0  0  0  0  0  0  0
  152.8162  140.0448  156.9161 N   0  0  0  0  0  0  0  0  0  0  0  0
  151.7660  142.4053  159.0442 H   0  0  0  0  0  0  0  0  0  0  0  0
  153.4491  142.1435  158.5982 H   0  0  0  0  0  0  0  0  0  0  0  0
  152.5851  140.9268  159.5365 H   0  0  0  0  0  0  0  0  0  0  0  0
  150.0640  141.9193  156.9169 H   0  0  0  0  0  0  0  0  0  0  0  0
  150.5632  139.7581  153.7888 H   0  0  0  0  0  0  0  0  0  0  0  0
  148.9506  139.6122  152.6799 H   0  0  0  0  0  0  0  0  0  0  0  0
  146.3255  140.1934  153.9134 H   0  0  0  0  0  0  0  0  0  0  0  0
  146.7174  140.9346  152.3743 H   0  0  0  0  0  0  0  0  0  0  0  0
  145.4905  138.9876  151.7846 H   0  0  0  0  0  0  0  0  0  0  0  0
  148.1995  138.9613  151.4517 H   0  0  0  0  0  0  0  0  0  0  0  0
  147.2556  137.5312  153.8172 H   0  0  0  0  0  0  0  0  0  0  0  0
  145.5222  137.6746  153.9064 H   0  0  0  0  0  0  0  0  0  0  0  0
  146.8260  135.1039  154.1219 H   0  0  0  0  0  0  0  0  0  0  0  0
  145.0865  135.2500  153.9595 H   0  0  0  0  0  0  0  0  0  0  0  0
  146.9674  133.6250  152.1639 H   0  0  0  0  0  0  0  0  0  0  0  0
  145.8280  132.9671  153.3137 H   0  0  0  0  0  0  0  0  0  0  0  0
  144.9454  132.8804  150.9612 H   0  0  0  0  0  0  0  0  0  0  0  0
  143.9205  133.8361  152.0095 H   0  0  0  0  0  0  0  0  0  0  0  0
  146.0139  134.9144  150.0573 H   0  0  0  0  0  0  0  0  0  0  0  0
  144.2799  135.0568  149.8941 H   0  0  0  0  0  0  0  0  0  0  0  0
  144.1580  136.4902  151.9178 H   0  0  0  0  0  0  0  0  0  0  0  0
  145.2853  137.1571  150.7583 H   0  0  0  0  0  0  0  0  0  0  0  0
  151.9904  137.8248  154.7947 H   0  0  0  0  0  0  0  0  0  0  0  0
  153.6097  138.1733  155.4294 H   0  0  0  0  0  0  0  0  0  0  0  0
  153.0124  139.0424  154.0011 H   0  0  0  0  0  0  0  0  0  0  0  0
  147.0647  136.1166  151.9944 H   0  0  0  0  0  0  0  0  0  0  0  0
  1  2  1  0  0  0  0
  1 22  1  0  0  0  0
  1 23  1  0  0  0  0
  1 24  1  0  0  0  0
  2 21  2  0  0  0  0
  2  3  1  0  0  0  0
  3  4  2  0  0  0  0
  3 25  1  0  0  0  0
  4  5  1  0  0  0  0
  4 19  1  0  0  0  0
  5  6  1  0  0  0  0
  5 26  1  0  0  0  0
  6  7  2  0  0  0  0
  6  8  1  0  0  0  0
  8  9  1  0  0  0  0
  8 27  1  0  0  0  0
  9 10  1  0  0  0  0
  9 28  1  0  0  0  0
  9 29  1  0  0  0  0
 10 11  1  0  0  0  0
 10 12  1  0  0  0  0
 10 30  1  0  0  0  0
 11 31  1  0  0  0  0
 12 13  1  0  0  0  0
 12 32  1  0  0  0  0
 12 33  1  0  0  0  0
 13 18  1  0  0  0  0
 13 14  1  0  0  0  0
 13 47  1  0  0  0  0
 14 15  1  0  0  0  0
 14 34  1  0  0  0  0
 14 35  1  0  0  0  0
 15 16  1  0  0  0  0
 15 36  1  0  0  0  0
 15 37  1  0  0  0  0
 16 17  1  0  0  0  0
 16 38  1  0  0  0  0
 16 39  1  0  0  0  0
 17 18  1  0  0  0  0
 17 40  1  0  0  0  0
 17 41  1  0  0  0  0
 18 42  1  0  0  0  0
 18 43  1  0  0  0  0
 19 20  1  0  0  0  0
 19 21  1  0  0  0  0
 20 44  1  0  0  0  0
 20 45  1  0  0  0  0
 20 46  1  0  0  0  0
M  CHG  1  13   1
M  END
> <s_m_source_file>
AV-unprocessed.smi

> <i_m_source_file_index>
1779

> <i_lp_mmshare_version>
43012

> <i_f3d_flags>
0

> <s_epik_input>
W0NIM11jMVtjSF1jKG4objEpW0NIM10pW05IXUMoPU8pW05IXVtDSDJdW0NASF0oW09IXSlbQ0gyXU4yW0NIMl1bQ0gyXVtDSDJdW0NIMl1bQ0gyXTI=

> <s_epik_cmdline>
J2VwaWtfcHl0aG9uJywgJy1waCcsICc3LjAnLCAnLXRuJywgJzgnLCAnLW1hJywgJzIwMCcsICctbWV0YWxfYmluZGluZycsICctaW1hZScsICc8aW5maWxlLm1hZT4nLCAnLW9tYWUnLCAnPG91dGZpbGUubWFlPic=

> <r_lp_tautomer_probability>
1

> <r_epik_Ionization_Penalty>
0.00528203

> <r_epik_Ionization_Penalty_Charging>
0.00519125

> <r_epik_Ionization_Penalty_Neutral>
9.07781e-05

> <r_epik_State_Penalty>
0.0037836

> <r_epik_Charging_Adjusted_Penalty>
0.00897485

> <i_epik_Tot_Q>
1

> <i_epik_Tot_abs_Q>
1

> <r_epik_Metal_State_Penalty>
-0

> <b_epik_Metal_Only>
0

> <s_lp_Force_Field>
OPLS_2005

> <r_lp_Energy>
21.4604

> <b_lp_Chiralities_Consistent>
1

> <s_lp_Variant>
AV-unprocessed.smi:1779-2

> <Gold.Version>
5.8.1

> <Gold.Id.Protein>
6NUR|6NUR_protein|mol2

> <Gold.PLP.Fitness>
52.7705

> <Gold.PLP.PLP>
-37.3350

> <Gold.PLP.part.hbond>
-6.0000

> <Gold.PLP.part.metal>
0.0000

> <Gold.PLP.part.buried>
-0.3826

> <Gold.PLP.part.nonpolar>
-30.5533

> <Gold.PLP.part.repulsive>
0.4820

> <Gold.PLP.ligand.clash>
0.0000

> <Gold.PLP.ligand.torsion>
0.4007

> <Gold.PLP.Chemscore.Hbond>
5.3820

> <Gold.PLP.Chemscore.CHOScore>
0.0000

> <Gold.PLP.Chemscore.Metal>
0.0000

> <Gold.Chemscore.Hbonds>
donor molecule, donor type, donor heavy atom, donor atom, acceptor molecule, acceptor atom, score
      L1  H     8    27       P1  7957  0.80
      L1  H    11    31       P1  7957  1.00
      L1  H    13    47       P1  7948  2.00
      P1  H  7954  7966       L1    11  0.35
      P1  H  7997  8008       L1    21  1.00

> <Gold.PLP.Chemscore.Internal.Correction>
0.0907

> <Gold.Rescore>
     Score         DG    S(hbond)    S(metal)    S(lipo)     H(rot)  DE(clash)    DE(int)     intcor
     19.62     -20.15       3.67        0.00      72.23       2.36       0.05       0.49       ----

> <Gold.Chemscore.Fitness>
19.6186

> <Gold.Chemscore.DG>
-20.1525

> <Gold.Chemscore.ZeroCoef>
-5.4800

> <Gold.Chemscore.Hbond>
3.6693

> <Gold.Chemscore.Metal>
0.0000

> <Gold.Chemscore.Lipo>
72.2293

> <Gold.Chemscore.Internal_Hbond>
0.0000

> <Gold.Chemscore.DEClash>
0.0480

> <Gold.Chemscore.DEInternal>
0.4859

> <Gold.Chemscore.Rot>
2.3569

> <Gold.Chemscore.Internal.Correction>
   9.000000E+99

> <Gold.Chemscore.Hbonds>
donor molecule, donor type, donor heavy atom, donor atom, acceptor molecule, acceptor atom, score
      L1  H     8    27       P1  7957  0.80
      L1  H    11    31       P1  7957  0.64
      L1  H    13    47       P1  7948  0.98
      P1  H  7954  7966       L1    11  0.01
      P1  H  7997  8008       L1    21  0.83

> <Gold.Chemscore.Hbond.Weighted>
-12.2554

> <Gold.Chemscore.Metal.Weighted>
-0.0000

> <Gold.Chemscore.Lipo.Weighted>
-8.4508

> <Gold.Chemscore.Internal_Hbond.Weighted>
0.0000

> <Gold.Chemscore.DEClash.Weighted>
0.0480

> <Gold.Chemscore.DEInternal.Weighted>
0.4859

> <Gold.Chemscore.Rot.Weighted>
6.0337

> <Gold.Chemscore.Internal.Correction.Weighted>
   9.000000E+99

> <Gold.Protein.RotatedTorsions>
[ 6907 6896 6895 6894 ] final -121.78 input  -60.11 | X-H torsion
[ 7974 7965 7964 7962 ] final  -55.60 input  175.53 | X-H torsion
[ 8008 7997 7996 7995 ] final  -68.30 input   59.86 | X-H torsion
[ 10167 10162 10161 10158 ] final   87.02 input  -65.29 | X-H torsion
[ 10718 10713 10712 10709 ] final  -71.85 input   66.30 | X-H torsion
[ 10763 10752 10751 10750 ] final  -55.25 input  -60.55 | X-H torsion
[ 11005 11000 10999 10996 ] final  123.98 input  -57.11 | X-H torsion

> <Gold.Protein.ActiveResidues>
 VAL166  LYS551  ARG553  GLY616  TRP617  ASP618  TYR619  PRO620  LYS621  CYS622 
 ASP623  PHE694  ASN695  SER759  ASP760  ASP761  ALA762  ILE779  LEU786  VAL792 
 PHE793  MET794  SER795  GLU796  ALA797  LYS798  CYS799  TRP800  GLU811  SER814 

> <Gold.Protein.RotatedAtoms>
  150.8515  133.7780  159.3023 H   0  0  0  0  0  0  0  0  0  0  0  0  # atno 6907 bound_to 6896
  151.5450  135.1066  159.9945 H   0  0  0  0  0  0  0  0  0  0  0  0  # atno 6908 bound_to 6896
  152.4556  133.7673  159.6836 H   0  0  0  0  0  0  0  0  0  0  0  0  # atno 6909 bound_to 6896
  145.8723  140.8206  142.9882 H   0  0  0  0  0  0  0  0  0  0  0  0  # atno 7974 bound_to 7965
  154.4859  140.0875  156.7484 H   0  0  0  0  0  0  0  0  0  0  0  0  # atno 8008 bound_to 7997
  155.4352  140.3451  155.4266 H   0  0  0  0  0  0  0  0  0  0  0  0  # atno 8009 bound_to 7997
  156.1260  140.1487  156.9124 H   0  0  0  0  0  0  0  0  0  0  0  0  # atno 8010 bound_to 7997
  139.8816  144.6436  150.8836 H   0  0  0  0  0  0  0  0  0  0  0  0  # atno 10167 bound_to 10162
  156.0345  130.4360  150.2505 H   0  0  0  0  0  0  0  0  0  0  0  0  # atno 10718 bound_to 10713
  154.1878  135.6432  153.5051 H   0  0  0  0  0  0  0  0  0  0  0  0  # atno 10763 bound_to 10752
  153.0042  135.5421  154.6447 H   0  0  0  0  0  0  0  0  0  0  0  0  # atno 10764 bound_to 10752
  154.5828  135.2927  155.0688 H   0  0  0  0  0  0  0  0  0  0  0  0  # atno 10765 bound_to 10752
  139.9337  134.9640  156.8341 H   0  0  0  0  0  0  0  0  0  0  0  0  # atno 11005 bound_to 11000
  144.6726  140.1258  143.7447 LP  0  0  0  0  0  0  0  0  0  0  0  0  # atno 17320 bound_to 7965
  145.9122  139.2494  143.1431 LP  0  0  0  0  0  0  0  0  0  0  0  0  # atno 17321 bound_to 7965
  140.7743  143.3581  151.1882 LP  0  0  0  0  0  0  0  0  0  0  0  0  # atno 17342 bound_to 10162
  139.7191  143.9253  152.2978 LP  0  0  0  0  0  0  0  0  0  0  0  0  # atno 17343 bound_to 10162
  157.0605  131.0088  151.3224 LP  0  0  0  0  0  0  0  0  0  0  0  0  # atno 17370 bound_to 10713
  157.5074  130.7917  149.7668 LP  0  0  0  0  0  0  0  0  0  0  0  0  # atno 17371 bound_to 10713
  140.6131  134.0063  155.7585 LP  0  0  0  0  0  0  0  0  0  0  0  0  # atno 17394 bound_to 11000
  141.0940  133.9872  157.3190 LP  0  0  0  0  0  0  0  0  0  0  0  0  # atno 17395 bound_to 11000

$$$$
