AV-unprocessed.smi:1580|AV-procd|sdf|6359|dock3
  -GOLD-   22720 6583D 1   1.00000     0.00000
 Structure written by MMmdl.
 37 38  0  0  0  0  0  0  0  0  1 V2000
  154.1267  135.6555  157.9430 C   0  0  0  0  0  0  0  0  0  0  0  0
  152.8312  136.9152  158.2839 S   0  0  0  0  0  0  0  0  0  0  0  0
  152.3719  136.7268  159.6690 O   0  0  0  0  0  0  0  0  0  0  0  0
  153.3414  138.2287  157.8605 O   0  0  0  0  0  0  0  0  0  0  0  0
  151.4964  136.4616  157.1821 C   0  0  0  0  0  0  0  0  0  0  0  0
  150.2559  136.0399  157.7001 C   0  0  0  0  0  0  0  0  0  0  0  0
  149.2516  135.6564  156.7909 C   0  0  0  0  0  0  0  0  0  0  0  0
  149.5294  135.7029  155.4015 C   0  0  0  0  0  0  0  0  0  0  0  0
  148.6136  135.3427  154.3740 N   0  0  0  0  0  0  0  0  0  0  0  0
  147.4431  134.6871  154.4613 C   0  0  0  0  0  0  0  0  0  0  0  0
  146.9362  134.2570  155.4966 O   0  0  0  0  0  0  0  0  0  0  0  0
  146.8744  134.5561  153.2549 N   0  0  0  0  0  0  0  0  0  0  0  0
  145.6091  133.8782  152.9966 C   0  0  0  0  0  0  0  0  0  0  0  0
  145.3462  133.7320  151.4886 C   0  0  1  0  0  0  0  0  0  0  0  0
  146.1994  132.6568  150.8181 C   0  0  0  0  0  0  0  0  0  0  0  0
  145.3511  132.3001  149.6192 C   0  0  0  0  0  0  0  0  0  0  0  0
  143.9445  132.3621  150.2064 C   0  0  0  0  0  0  0  0  0  0  0  0
  143.9979  133.3318  151.2504 O   0  0  0  0  0  0  0  0  0  0  0  0
  150.8174  136.1225  155.0033 C   0  0  0  0  0  0  0  0  0  0  0  0
  151.7884  136.4906  155.8648 N   0  0  0  0  0  0  0  0  0  0  0  0
  154.9954  135.8490  158.5717 H   0  0  0  0  0  0  0  0  0  0  0  0
  154.4186  135.7087  156.8944 H   0  0  0  0  0  0  0  0  0  0  0  0
  153.7342  134.6625  158.1610 H   0  0  0  0  0  0  0  0  0  0  0  0
  150.0723  136.0082  158.7637 H   0  0  0  0  0  0  0  0  0  0  0  0
  148.3028  135.3310  157.1855 H   0  0  0  0  0  0  0  0  0  0  0  0
  148.8732  135.6472  153.4473 H   0  0  0  0  0  0  0  0  0  0  0  0
  147.3567  134.9378  152.4545 H   0  0  0  0  0  0  0  0  0  0  0  0
  145.6079  132.8982  153.4768 H   0  0  0  0  0  0  0  0  0  0  0  0
  144.8081  134.4515  153.4637 H   0  0  0  0  0  0  0  0  0  0  0  0
  145.5116  134.6811  150.9759 H   0  0  0  0  0  0  0  0  0  0  0  0
  147.1947  133.0109  150.5486 H   0  0  0  0  0  0  0  0  0  0  0  0
  146.3090  131.7878  151.4686 H   0  0  0  0  0  0  0  0  0  0  0  0
  145.4681  133.0545  148.8400 H   0  0  0  0  0  0  0  0  0  0  0  0
  145.5940  131.3261  149.1935 H   0  0  0  0  0  0  0  0  0  0  0  0
  143.1943  132.6213  149.4592 H   0  0  0  0  0  0  0  0  0  0  0  0
  143.6705  131.4005  150.6418 H   0  0  0  0  0  0  0  0  0  0  0  0
  151.0798  136.1641  153.9562 H   0  0  0  0  0  0  0  0  0  0  0  0
  1  2  1  0  0  0  0
  1 21  1  0  0  0  0
  1 22  1  0  0  0  0
  1 23  1  0  0  0  0
  2  3  2  0  0  0  0
  2  4  2  0  0  0  0
  2  5  1  0  0  0  0
  5 20  1  0  0  0  0
  5  6  2  0  0  0  0
  6  7  1  0  0  0  0
  6 24  1  0  0  0  0
  7  8  2  0  0  0  0
  7 25  1  0  0  0  0
  8  9  1  0  0  0  0
  8 19  1  0  0  0  0
  9 10  1  0  0  0  0
  9 26  1  0  0  0  0
 10 11  2  0  0  0  0
 10 12  1  0  0  0  0
 12 13  1  0  0  0  0
 12 27  1  0  0  0  0
 13 14  1  0  0  0  0
 13 28  1  0  0  0  0
 13 29  1  0  0  0  0
 14 18  1  0  0  0  0
 14 15  1  0  0  0  0
 14 30  1  0  0  0  0
 15 16  1  0  0  0  0
 15 31  1  0  0  0  0
 15 32  1  0  0  0  0
 16 17  1  0  0  0  0
 16 33  1  0  0  0  0
 16 34  1  0  0  0  0
 17 18  1  0  0  0  0
 17 35  1  0  0  0  0
 17 36  1  0  0  0  0
 19 20  2  0  0  0  0
 19 37  1  0  0  0  0
M  END
> <s_m_source_file>
AV-unprocessed.smi

> <i_m_source_file_index>
1580

> <i_lp_mmshare_version>
43012

> <i_f3d_flags>
0

> <s_epik_input>
W0NIM11TKD1PKSg9TyljMVtjSF1bY0hdYyhbY0hdbjEpW05IXUMoPU8pW05IXVtDSDJdW0NAQEhdMltDSDJdW0NIMl1bQ0gyXU8y

> <s_epik_cmdline>
J2VwaWtfcHl0aG9uJywgJy1waCcsICc3LjAnLCAnLXRuJywgJzgnLCAnLW1hJywgJzIwMCcsICctbWV0YWxfYmluZGluZycsICctaW1hZScsICc8aW5maWxlLm1hZT4nLCAnLW9tYWUnLCAnPG91dGZpbGUubWFlPic=

> <r_lp_tautomer_probability>
1

> <r_epik_Ionization_Penalty>
3.28405e-05

> <r_epik_Ionization_Penalty_Charging>
0

> <r_epik_Ionization_Penalty_Neutral>
3.28405e-05

> <r_epik_State_Penalty>
-0

> <r_epik_Charging_Adjusted_Penalty>
0

> <i_epik_Tot_Q>
0

> <i_epik_Tot_abs_Q>
0

> <r_epik_Metal_State_Penalty>
-0

> <b_epik_Metal_Only>
0

> <s_lp_Force_Field>
OPLS_2005

> <r_lp_Energy>
18.5383

> <b_lp_Chiralities_Consistent>
1

> <s_lp_Variant>
AV-unprocessed.smi:1580-2

> <Gold.Version>
5.8.1

> <Gold.Id.Protein>
6NUR|6NUR_protein|mol2

> <Gold.PLP.Fitness>
39.9576

> <Gold.PLP.PLP>
-24.0800

> <Gold.PLP.part.hbond>
-4.8399

> <Gold.PLP.part.metal>
0.0000

> <Gold.PLP.part.buried>
-4.1698

> <Gold.PLP.part.nonpolar>
-16.1449

> <Gold.PLP.part.repulsive>
0.2439

> <Gold.PLP.ligand.clash>
0.0000

> <Gold.PLP.ligand.torsion>
1.2211

> <Gold.PLP.Chemscore.Hbond>
4.4305

> <Gold.PLP.Chemscore.CHOScore>
1.0000

> <Gold.PLP.Chemscore.Metal>
0.0000

> <Gold.Chemscore.Hbonds>
donor molecule, donor type, donor heavy atom, donor atom, acceptor molecule, acceptor atom, score
      L1  H     9    26       P1  7948  1.00
      L1  H    12    27       P1  7948  0.73
      P1  H  6896  6909       L1     3  1.00
      P1  H  7997  8008       L1     4  0.21
      P1  H 10752 10765       L1    20  0.85
      L1  C    19    37       P1  7949  1.00

> <Gold.PLP.Chemscore.Internal.Correction>
2.0282

> <Gold.Rescore>
     Score         DG    S(hbond)    S(metal)    S(lipo)     H(rot)  DE(clash)    DE(int)     intcor
     18.24     -20.68       3.59        0.00      55.32       1.27       0.00       2.45       ----

> <Gold.Chemscore.Fitness>
18.2351

> <Gold.Chemscore.DG>
-20.6802

> <Gold.Chemscore.ZeroCoef>
-5.4800

> <Gold.Chemscore.Hbond>
3.5883

> <Gold.Chemscore.Metal>
0.0000

> <Gold.Chemscore.Lipo>
55.3235

> <Gold.Chemscore.Internal_Hbond>
0.0000

> <Gold.Chemscore.DEClash>
0.0000

> <Gold.Chemscore.DEInternal>
2.4450

> <Gold.Chemscore.Rot>
1.2725

> <Gold.Chemscore.Internal.Correction>
   9.000000E+99

> <Gold.Chemscore.Hbonds>
donor molecule, donor type, donor heavy atom, donor atom, acceptor molecule, acceptor atom, score
      L1  H     9    26       P1  7948  0.91
      L1  H    12    27       P1  7948  0.70
      P1  H  6896  6909       L1     3  0.88
      P1  H  7997  8008       L1     4  0.21
      P1  H 10752 10765       L1    20  0.14

> <Gold.Chemscore.Hbond.Weighted>
-11.9849

> <Gold.Chemscore.Metal.Weighted>
-0.0000

> <Gold.Chemscore.Lipo.Weighted>
-6.4728

> <Gold.Chemscore.Internal_Hbond.Weighted>
0.0000

> <Gold.Chemscore.DEClash.Weighted>
0.0000

> <Gold.Chemscore.DEInternal.Weighted>
2.4450

> <Gold.Chemscore.Rot.Weighted>
3.2576

> <Gold.Chemscore.Internal.Correction.Weighted>
   9.000000E+99

> <Gold.Protein.RotatedTorsions>
[ 6907 6896 6895 6894 ] final  121.34 input  -60.11 | X-H torsion
[ 7974 7965 7964 7962 ] final   92.13 input  175.53 | X-H torsion
[ 8008 7997 7996 7995 ] final  -77.48 input   59.86 | X-H torsion
[ 10167 10162 10161 10158 ] final  -90.46 input  -65.29 | X-H torsion
[ 10718 10713 10712 10709 ] final -147.60 input   66.30 | X-H torsion
[ 10763 10752 10751 10750 ] final -145.99 input  -60.55 | X-H torsion
[ 11005 11000 10999 10996 ] final   34.58 input  -57.11 | X-H torsion

> <Gold.Protein.ActiveResidues>
 VAL166  LYS551  ARG553  GLY616  TRP617  ASP618  TYR619  PRO620  LYS621  CYS622 
 ASP623  PHE694  ASN695  SER759  ASP760  ASP761  ALA762  ILE779  LEU786  VAL792 
 PHE793  MET794  SER795  GLU796  ALA797  LYS798  CYS799  TRP800  GLU811  SER814 

> <Gold.Protein.RotatedAtoms>
  152.4329  133.7310  159.6586 H   0  0  0  0  0  0  0  0  0  0  0  0  # atno 6907 bound_to 6896
  150.8210  133.8242  159.3145 H   0  0  0  0  0  0  0  0  0  0  0  0  # atno 6908 bound_to 6896
  151.5924  135.1055  160.0093 H   0  0  0  0  0  0  0  0  0  0  0  0  # atno 6909 bound_to 6896
  145.4964  139.2276  143.2801 H   0  0  0  0  0  0  0  0  0  0  0  0  # atno 7974 bound_to 7965
  154.5600  140.0710  156.8804 H   0  0  0  0  0  0  0  0  0  0  0  0  # atno 8008 bound_to 7997
  155.2830  140.3373  155.4239 H   0  0  0  0  0  0  0  0  0  0  0  0  # atno 8009 bound_to 7997
  156.2034  140.1730  156.7837 H   0  0  0  0  0  0  0  0  0  0  0  0  # atno 8010 bound_to 7997
  140.3547  143.2873  151.9685 H   0  0  0  0  0  0  0  0  0  0  0  0  # atno 10167 bound_to 10162
  156.4096  130.7975  151.2191 H   0  0  0  0  0  0  0  0  0  0  0  0  # atno 10718 bound_to 10713
  154.8357  135.3398  154.6591 H   0  0  0  0  0  0  0  0  0  0  0  0  # atno 10763 bound_to 10752
  153.7206  135.6958  153.5018 H   0  0  0  0  0  0  0  0  0  0  0  0  # atno 10764 bound_to 10752
  153.2384  135.4393  155.0624 H   0  0  0  0  0  0  0  0  0  0  0  0  # atno 10765 bound_to 10752
  140.2514  134.3299  155.7889 H   0  0  0  0  0  0  0  0  0  0  0  0  # atno 11005 bound_to 11000
  146.2253  140.5762  142.8999 LP  0  0  0  0  0  0  0  0  0  0  0  0  # atno 17320 bound_to 7965
  144.7805  140.5829  143.6609 LP  0  0  0  0  0  0  0  0  0  0  0  0  # atno 17321 bound_to 7965
  139.4821  144.6045  151.7546 LP  0  0  0  0  0  0  0  0  0  0  0  0  # atno 17342 bound_to 10162
  140.5185  144.0916  150.6015 LP  0  0  0  0  0  0  0  0  0  0  0  0  # atno 17343 bound_to 10162
  157.7506  131.0262  150.3950 LP  0  0  0  0  0  0  0  0  0  0  0  0  # atno 17370 bound_to 10713
  156.4246  130.3960  149.6801 LP  0  0  0  0  0  0  0  0  0  0  0  0  # atno 17371 bound_to 10713
  141.2201  133.7355  156.9042 LP  0  0  0  0  0  0  0  0  0  0  0  0  # atno 17394 bound_to 11000
  140.1555  134.9201  157.2647 LP  0  0  0  0  0  0  0  0  0  0  0  0  # atno 17395 bound_to 11000

$$$$
