AV-unprocessed.smi:41|AV-procd|sdf|385|dock3
  -GOLD-   2262016243D 1   1.00000     0.00000
 Structure written by MMmdl.
 26 27  0  0  0  0  0  0  0  0  1 V2000
  148.8937  138.7966  153.2213 N   0  0  0  0  0  0  0  0  0  0  0  0
  149.4708  139.5562  154.1639 C   0  0  0  0  0  0  0  0  0  0  0  0
  150.6763  139.2388  154.5933 N   0  0  0  0  0  0  0  0  0  0  0  0
  151.3459  139.9524  155.5528 C   0  0  0  0  0  0  0  0  0  0  0  0
  152.4811  139.6215  155.8927 O   0  0  0  0  0  0  0  0  0  0  0  0
  150.6811  141.0659  156.1281 N   0  0  0  0  0  0  0  0  0  0  0  0
  151.3604  141.9050  157.1142 C   0  0  2  0  0  0  0  0  0  0  0  0
  151.8962  141.1492  158.3443 C   0  0  0  0  0  0  0  0  0  0  0  0
  152.0864  142.3861  159.6355 S   0  0  0  0  0  0  0  0  0  0  0  0
  151.0693  143.5484  158.6915 C   0  0  1  0  0  0  0  0  0  0  0  0
  151.8940  144.7678  158.2360 C   0  0  0  0  0  0  0  0  0  0  0  0
  151.8787  145.7650  159.2350 O   0  0  0  0  0  0  0  0  0  0  0  0
  150.4900  142.8926  157.5689 O   0  0  0  0  0  0  0  0  0  0  0  0
  149.4267  141.4280  155.6506 C   0  0  0  0  0  0  0  0  0  0  0  0
  148.7906  140.7133  154.6978 C   0  0  0  0  0  0  0  0  0  0  0  0
  147.5719  141.0731  154.2592 F   0  0  0  0  0  0  0  0  0  0  0  0
  152.2020  142.4116  156.6413 H   0  0  0  0  0  0  0  0  0  0  0  0
  150.2670  143.8811  159.3511 H   0  0  0  0  0  0  0  0  0  0  0  0
  147.9737  139.0325  152.8782 H   0  0  0  0  0  0  0  0  0  0  0  0
  149.3791  137.9889  152.8585 H   0  0  0  0  0  0  0  0  0  0  0  0
  151.1951  140.4018  158.7073 H   0  0  0  0  0  0  0  0  0  0  0  0
  152.8393  140.6557  158.1091 H   0  0  0  0  0  0  0  0  0  0  0  0
  152.9358  144.4810  158.0898 H   0  0  0  0  0  0  0  0  0  0  0  0
  151.5416  145.1775  157.2897 H   0  0  0  0  0  0  0  0  0  0  0  0
  152.6006  146.3554  159.0818 H   0  0  0  0  0  0  0  0  0  0  0  0
  148.9271  142.3087  156.0236 H   0  0  0  0  0  0  0  0  0  0  0  0
  1  2  1  0  0  0  0
  1 19  1  0  0  0  0
  1 20  1  0  0  0  0
  2 15  1  0  0  0  0
  2  3  2  0  0  0  0
  3  4  1  0  0  0  0
  4  5  2  0  0  0  0
  4  6  1  0  0  0  0
  6  7  1  0  0  0  0
  6 14  1  0  0  0  0
  7 17  1  0  0  0  0
  7 13  1  0  0  0  0
  7  8  1  0  0  0  0
  8  9  1  0  0  0  0
  8 21  1  0  0  0  0
  8 22  1  0  0  0  0
  9 10  1  0  0  0  0
 10 18  1  0  0  0  0
 10 11  1  0  0  0  0
 10 13  1  0  0  0  0
 11 12  1  0  0  0  0
 11 23  1  0  0  0  0
 11 24  1  0  0  0  0
 12 25  1  0  0  0  0
 14 15  2  0  0  0  0
 14 26  1  0  0  0  0
 15 16  1  0  0  0  0
M  END
> <s_m_source_file>
AV-unprocessed.smi

> <i_m_source_file_index>
41

> <i_lp_mmshare_version>
43012

> <i_f3d_flags>
0

> <s_epik_input>
W05IMl1jMW5jKD1PKW4oW2NIXWMxRilbQ0BASF0yW0NIMl1TW0NAQEhdKE8yKVtDSDJdW09IXQ==

> <s_epik_cmdline>
J2VwaWtfcHl0aG9uJywgJy1waCcsICc3LjAnLCAnLXRuJywgJzgnLCAnLW1hJywgJzIwMCcsICctbWV0YWxfYmluZGluZycsICctaW1hZScsICc8aW5maWxlLm1hZT4nLCAnLW9tYWUnLCAnPG91dGZpbGUubWFlPic=

> <r_lp_tautomer_probability>
1

> <r_epik_Ionization_Penalty>
0.000101883

> <r_epik_Ionization_Penalty_Charging>
1.48607e-08

> <r_epik_Ionization_Penalty_Neutral>
0.000101868

> <r_epik_State_Penalty>
-0

> <r_epik_Charging_Adjusted_Penalty>
1.48607e-08

> <i_epik_Tot_Q>
0

> <i_epik_Tot_abs_Q>
0

> <r_epik_Metal_State_Penalty>
-0

> <b_epik_Metal_Only>
0

> <s_epik_Chemistry_Notes>
This compound contains an acetal/aminal-like group ( X-CH(R)-Y where X, Y are N, S, or O) that may be acid/base labile, releasing an aldehyde.

> <s_lp_Force_Field>
OPLS_2005

> <r_lp_Energy>
16.0015

> <b_lp_Chiralities_Consistent>
1

> <s_lp_Variant>
AV-unprocessed.smi:41-3

> <Gold.Version>
5.8.1

> <Gold.Id.Protein>
6NUR|6NUR_protein|mol2

> <Gold.PLP.Fitness>
41.4248

> <Gold.PLP.PLP>
-33.8435

> <Gold.PLP.part.hbond>
-4.2759

> <Gold.PLP.part.metal>
0.0000

> <Gold.PLP.part.buried>
-5.4175

> <Gold.PLP.part.nonpolar>
-26.2603

> <Gold.PLP.part.repulsive>
0.6922

> <Gold.PLP.ligand.clash>
0.0000

> <Gold.PLP.ligand.torsion>
0.4551

> <Gold.PLP.Chemscore.Hbond>
1.8160

> <Gold.PLP.Chemscore.CHOScore>
1.0000

> <Gold.PLP.Chemscore.Metal>
0.0000

> <Gold.Chemscore.Hbonds>
donor molecule, donor type, donor heavy atom, donor atom, acceptor molecule, acceptor atom, score
      L1  H     1    20       P1  7948  0.80
      P1  H  7997  8008       L1     5  1.00
      L1  C    14    26       P1  8028  1.00

> <Gold.PLP.Chemscore.Internal.Correction>
0.0436

> <Gold.Rescore>
     Score         DG    S(hbond)    S(metal)    S(lipo)     H(rot)  DE(clash)    DE(int)     intcor
     10.95     -12.04       1.80        0.00      52.73       2.19       0.16       0.94       ----

> <Gold.Chemscore.Fitness>
10.9473

> <Gold.Chemscore.DG>
-12.0435

> <Gold.Chemscore.ZeroCoef>
-5.4800

> <Gold.Chemscore.Hbond>
1.7988

> <Gold.Chemscore.Metal>
0.0000

> <Gold.Chemscore.Lipo>
52.7270

> <Gold.Chemscore.Internal_Hbond>
0.0000

> <Gold.Chemscore.DEClash>
0.1568

> <Gold.Chemscore.DEInternal>
0.9394

> <Gold.Chemscore.Rot>
2.1929

> <Gold.Chemscore.Internal.Correction>
   9.000000E+99

> <Gold.Chemscore.Hbonds>
donor molecule, donor type, donor heavy atom, donor atom, acceptor molecule, acceptor atom, score
      L1  H     1    20       P1  7948  0.67
      P1  H  7997  8008       L1     5  0.98

> <Gold.Chemscore.Hbond.Weighted>
-6.0081

> <Gold.Chemscore.Metal.Weighted>
-0.0000

> <Gold.Chemscore.Lipo.Weighted>
-6.1691

> <Gold.Chemscore.Internal_Hbond.Weighted>
0.0000

> <Gold.Chemscore.DEClash.Weighted>
0.1568

> <Gold.Chemscore.DEInternal.Weighted>
0.9394

> <Gold.Chemscore.Rot.Weighted>
5.6137

> <Gold.Chemscore.Internal.Correction.Weighted>
   9.000000E+99

> <Gold.Protein.RotatedTorsions>
[ 6907 6896 6895 6894 ] final  110.43 input  -60.11 | X-H torsion
[ 7974 7965 7964 7962 ] final  143.83 input  175.53 | X-H torsion
[ 8008 7997 7996 7995 ] final  -43.99 input   59.86 | X-H torsion
[ 10167 10162 10161 10158 ] final   47.99 input  -65.29 | X-H torsion
[ 10718 10713 10712 10709 ] final   94.10 input   66.30 | X-H torsion
[ 10763 10752 10751 10750 ] final -169.57 input  -60.55 | X-H torsion
[ 11005 11000 10999 10996 ] final  130.44 input  -57.11 | X-H torsion

> <Gold.Protein.ActiveResidues>
 VAL166  LYS551  ARG553  GLY616  TRP617  ASP618  TYR619  PRO620  LYS621  CYS622 
 ASP623  PHE694  ASN695  SER759  ASP760  ASP761  ALA762  ILE779  LEU786  VAL792 
 PHE793  MET794  SER795  GLU796  ALA797  LYS798  CYS799  TRP800  GLU811  SER814 

> <Gold.Protein.RotatedAtoms>
  152.5020  133.8801  159.7341 H   0  0  0  0  0  0  0  0  0  0  0  0  # atno 6907 bound_to 6896
  150.9266  133.6808  159.2827 H   0  0  0  0  0  0  0  0  0  0  0  0  # atno 6908 bound_to 6896
  151.4167  135.0997  159.9654 H   0  0  0  0  0  0  0  0  0  0  0  0  # atno 6909 bound_to 6896
  144.8887  139.5590  143.5808 H   0  0  0  0  0  0  0  0  0  0  0  0  # atno 7974 bound_to 7965
  154.3997  140.1433  156.3609 H   0  0  0  0  0  0  0  0  0  0  0  0  # atno 8008 bound_to 7997
  155.8182  140.3470  155.5477 H   0  0  0  0  0  0  0  0  0  0  0  0  # atno 8009 bound_to 7997
  155.8316  140.0913  157.1779 H   0  0  0  0  0  0  0  0  0  0  0  0  # atno 8010 bound_to 7997
  140.2980  144.2968  150.6225 H   0  0  0  0  0  0  0  0  0  0  0  0  # atno 10167 bound_to 10162
  157.6950  131.0501  150.4135 H   0  0  0  0  0  0  0  0  0  0  0  0  # atno 10718 bound_to 10713
  154.6508  135.2911  154.9989 H   0  0  0  0  0  0  0  0  0  0  0  0  # atno 10763 bound_to 10752
  154.1082  135.6566  153.4884 H   0  0  0  0  0  0  0  0  0  0  0  0  # atno 10764 bound_to 10752
  153.0375  135.5259  154.7415 H   0  0  0  0  0  0  0  0  0  0  0  0  # atno 10765 bound_to 10752
  139.9672  134.9587  156.9293 H   0  0  0  0  0  0  0  0  0  0  0  0  # atno 11005 bound_to 11000
  146.3040  139.7520  142.9070 LP  0  0  0  0  0  0  0  0  0  0  0  0  # atno 17320 bound_to 7965
  145.3822  141.0360  143.3171 LP  0  0  0  0  0  0  0  0  0  0  0  0  # atno 17321 bound_to 7965
  140.5676  143.2184  151.7656 LP  0  0  0  0  0  0  0  0  0  0  0  0  # atno 17342 bound_to 10162
  139.4922  144.4262  151.9923 LP  0  0  0  0  0  0  0  0  0  0  0  0  # atno 17343 bound_to 10162
  156.4517  130.4013  149.6632 LP  0  0  0  0  0  0  0  0  0  0  0  0  # atno 17370 bound_to 10713
  156.3779  130.7564  151.2554 LP  0  0  0  0  0  0  0  0  0  0  0  0  # atno 17371 bound_to 10713
  140.5371  134.0756  155.7331 LP  0  0  0  0  0  0  0  0  0  0  0  0  # atno 17394 bound_to 11000
  141.1352  133.9234  157.2450 LP  0  0  0  0  0  0  0  0  0  0  0  0  # atno 17395 bound_to 11000

$$$$
