AV-unprocessed.smi:2227|AV-procd|sdf|9022|dock1
  -GOLD-   2272012223D 1   1.00000     0.00000
 Structure written by MMmdl.
 42 44  0  0  0  0  0  0  0  0  1 V2000
  152.7483  139.1083  154.6638 C   0  0  0  0  0  0  0  0  0  0  0  0
  151.4039  138.7382  155.3063 C   0  0  0  0  0  0  0  0  0  0  0  0
  150.8149  137.4520  154.7088 C   0  0  0  0  0  0  0  0  0  0  0  0
  150.4294  139.8830  155.2367 C   0  0  0  0  0  0  0  0  0  0  0  0
  149.9838  140.3887  154.0890 N   0  0  0  0  0  0  0  0  0  0  0  0
  149.1398  141.4299  154.4549 C   0  0  0  0  0  0  0  0  0  0  0  0
  149.1069  141.5263  155.8237 C   0  0  0  0  0  0  0  0  0  0  0  0
  149.9439  140.5329  156.3181 N   0  0  0  0  0  0  0  0  0  0  0  0
  150.2079  140.2901  157.7293 C   0  0  0  0  0  0  0  0  0  0  0  0
  150.4440  141.5971  158.4909 C   0  0  0  0  0  0  0  0  0  0  0  0
  149.5471  142.4363  158.5693 O   0  0  0  0  0  0  0  0  0  0  0  0
  151.6596  141.7565  159.0370 N   0  0  0  0  0  0  0  0  0  0  0  0
  152.1171  142.9289  159.7742 C   0  0  0  0  0  0  0  0  0  0  0  0
  152.1458  144.1612  158.8885 C   0  0  0  0  0  0  0  0  0  0  0  0
  151.9985  145.5506  159.4626 C   0  0  0  0  0  0  0  0  0  0  0  0
  150.8925  144.9585  158.6187 C   0  0  0  0  0  0  0  0  0  0  0  0
  153.4747  142.7175  160.4253 C   0  0  0  0  0  0  0  0  0  0  0  0
  154.3545  141.5455  160.0574 C   0  0  0  0  0  0  0  0  0  0  0  0
  153.7045  141.6037  161.4201 C   0  0  0  0  0  0  0  0  0  0  0  0
  153.1815  139.9862  155.1445 H   0  0  0  0  0  0  0  0  0  0  0  0
  152.6339  139.3328  153.6028 H   0  0  0  0  0  0  0  0  0  0  0  0
  153.4662  138.2931  154.7560 H   0  0  0  0  0  0  0  0  0  0  0  0
  151.6096  138.5164  156.3514 H   0  0  0  0  0  0  0  0  0  0  0  0
  149.8922  137.1712  155.2175 H   0  0  0  0  0  0  0  0  0  0  0  0
  151.5116  136.6189  154.8062 H   0  0  0  0  0  0  0  0  0  0  0  0
  150.5885  137.5719  153.6487 H   0  0  0  0  0  0  0  0  0  0  0  0
  148.6286  142.0245  153.7123 H   0  0  0  0  0  0  0  0  0  0  0  0
  148.5750  142.2075  156.4716 H   0  0  0  0  0  0  0  0  0  0  0  0
  149.3491  139.7797  158.1668 H   0  0  0  0  0  0  0  0  0  0  0  0
  151.0556  139.6106  157.8250 H   0  0  0  0  0  0  0  0  0  0  0  0
  152.3288  141.0098  158.9195 H   0  0  0  0  0  0  0  0  0  0  0  0
  151.3968  143.1289  160.5705 H   0  0  0  0  0  0  0  0  0  0  0  0
  152.8349  144.0735  158.0501 H   0  0  0  0  0  0  0  0  0  0  0  0
  151.8105  145.6471  160.5299 H   0  0  0  0  0  0  0  0  0  0  0  0
  152.5999  146.3426  159.0212 H   0  0  0  0  0  0  0  0  0  0  0  0
  150.7558  145.3544  157.6145 H   0  0  0  0  0  0  0  0  0  0  0  0
  149.9802  144.6617  159.1315 H   0  0  0  0  0  0  0  0  0  0  0  0
  153.9969  143.6477  160.6419 H   0  0  0  0  0  0  0  0  0  0  0  0
  153.9650  140.8151  159.3514 H   0  0  0  0  0  0  0  0  0  0  0  0
  155.4269  141.7212  160.0019 H   0  0  0  0  0  0  0  0  0  0  0  0
  154.3427  141.8185  162.2746 H   0  0  0  0  0  0  0  0  0  0  0  0
  152.8887  140.9095  161.6097 H   0  0  0  0  0  0  0  0  0  0  0  0
  1  2  1  0  0  0  0
  1 20  1  0  0  0  0
  1 21  1  0  0  0  0
  1 22  1  0  0  0  0
  2  3  1  0  0  0  0
  2  4  1  0  0  0  0
  2 23  1  0  0  0  0
  3 24  1  0  0  0  0
  3 25  1  0  0  0  0
  3 26  1  0  0  0  0
  4  8  1  0  0  0  0
  4  5  2  0  0  0  0
  5  6  1  0  0  0  0
  6  7  2  0  0  0  0
  6 27  1  0  0  0  0
  7  8  1  0  0  0  0
  7 28  1  0  0  0  0
  8  9  1  0  0  0  0
  9 10  1  0  0  0  0
  9 29  1  0  0  0  0
  9 30  1  0  0  0  0
 10 11  2  0  0  0  0
 10 12  1  0  0  0  0
 12 13  1  0  0  0  0
 12 31  1  0  0  0  0
 13 14  1  0  0  0  0
 13 17  1  0  0  0  0
 13 32  1  0  0  0  0
 14 16  1  0  0  0  0
 14 15  1  0  0  0  0
 14 33  1  0  0  0  0
 15 16  1  0  0  0  0
 15 34  1  0  0  0  0
 15 35  1  0  0  0  0
 16 36  1  0  0  0  0
 16 37  1  0  0  0  0
 17 19  1  0  0  0  0
 17 18  1  0  0  0  0
 17 38  1  0  0  0  0
 18 19  1  0  0  0  0
 18 39  1  0  0  0  0
 18 40  1  0  0  0  0
 19 41  1  0  0  0  0
 19 42  1  0  0  0  0
M  END
> <s_m_source_file>
AV-unprocessed.smi

> <i_m_source_file_index>
2227

> <i_lp_mmshare_version>
43012

> <i_f3d_flags>
0

> <s_epik_input>
W0NIM11bQ0hdKFtDSDNdKWMxbltjSF1bY0hdbjFbQ0gyXUMoPU8pW05IXVtDSF0oW0NIXTJbQ0gyXVtDSDJdMilbQ0hdM1tDSDJdW0NIMl0z

> <s_epik_cmdline>
J2VwaWtfcHl0aG9uJywgJy1waCcsICc3LjAnLCAnLXRuJywgJzgnLCAnLW1hJywgJzIwMCcsICctbWV0YWxfYmluZGluZycsICctaW1hZScsICc8aW5maWxlLm1hZT4nLCAnLW9tYWUnLCAnPG91dGZpbGUubWFlPic=

> <r_lp_tautomer_probability>
1

> <r_epik_Ionization_Penalty>
0.615412

> <r_epik_Ionization_Penalty_Charging>
0.615412

> <r_epik_Ionization_Penalty_Neutral>
4.7269e-08

> <r_epik_State_Penalty>
0.630977

> <r_epik_Charging_Adjusted_Penalty>
1.24639

> <i_epik_Tot_Q>
0

> <i_epik_Tot_abs_Q>
0

> <r_epik_Metal_State_Penalty>
0.305199

> <b_epik_Metal_Only>
0

> <s_lp_Force_Field>
OPLS_2005

> <r_lp_Energy>
23.5493

> <b_lp_Chiralities_Consistent>
1

> <s_lp_Variant>
AV-unprocessed.smi:2227-2

> <Gold.Version>
5.8.1

> <Gold.Id.Protein>
6NUR|6NUR_protein|mol2

> <Gold.PLP.Fitness>
49.3552

> <Gold.PLP.PLP>
-45.6469

> <Gold.PLP.part.hbond>
-1.0000

> <Gold.PLP.part.metal>
0.0000

> <Gold.PLP.part.buried>
-3.5602

> <Gold.PLP.part.nonpolar>
-41.4581

> <Gold.PLP.part.repulsive>
1.3690

> <Gold.PLP.ligand.clash>
0.0000

> <Gold.PLP.ligand.torsion>
1.5016

> <Gold.PLP.Chemscore.Hbond>
0.8480

> <Gold.PLP.Chemscore.CHOScore>
0.6346

> <Gold.PLP.Chemscore.Metal>
0.0000

> <Gold.Chemscore.Hbonds>
donor molecule, donor type, donor heavy atom, donor atom, acceptor molecule, acceptor atom, score
      P1  H  7989  7998       L1     5  0.64
      L1  C     7    28       P1  8028  0.43

> <Gold.PLP.Chemscore.Internal.Correction>
2.2638

> <Gold.Rescore>
     Score         DG    S(hbond)    S(metal)    S(lipo)     H(rot)  DE(clash)    DE(int)     intcor
     12.91     -16.38       0.33        0.00     120.13       1.66       0.13       3.35       ----

> <Gold.Chemscore.Fitness>
12.9060

> <Gold.Chemscore.DG>
-16.3788

> <Gold.Chemscore.ZeroCoef>
-5.4800

> <Gold.Chemscore.Hbond>
0.3293

> <Gold.Chemscore.Metal>
0.0000

> <Gold.Chemscore.Lipo>
120.1313

> <Gold.Chemscore.Internal_Hbond>
0.0000

> <Gold.Chemscore.DEClash>
0.1271

> <Gold.Chemscore.DEInternal>
3.3457

> <Gold.Chemscore.Rot>
1.6627

> <Gold.Chemscore.Internal.Correction>
   9.000000E+99

> <Gold.Chemscore.Hbonds>
donor molecule, donor type, donor heavy atom, donor atom, acceptor molecule, acceptor atom, score
      P1  H  7989  7998       L1     5  0.09

> <Gold.Chemscore.Hbond.Weighted>
-1.0999

> <Gold.Chemscore.Metal.Weighted>
-0.0000

> <Gold.Chemscore.Lipo.Weighted>
-14.0554

> <Gold.Chemscore.Internal_Hbond.Weighted>
0.0000

> <Gold.Chemscore.DEClash.Weighted>
0.1271

> <Gold.Chemscore.DEInternal.Weighted>
3.3457

> <Gold.Chemscore.Rot.Weighted>
4.2565

> <Gold.Chemscore.Internal.Correction.Weighted>
   9.000000E+99

> <Gold.Protein.RotatedTorsions>
[ 6907 6896 6895 6894 ] final   -6.85 input  -60.11 | X-H torsion
[ 7974 7965 7964 7962 ] final   69.50 input  175.53 | X-H torsion
[ 8008 7997 7996 7995 ] final    7.03 input   59.86 | X-H torsion
[ 10167 10162 10161 10158 ] final   82.10 input  -65.29 | X-H torsion
[ 10718 10713 10712 10709 ] final  127.53 input   66.30 | X-H torsion
[ 10763 10752 10751 10750 ] final -147.46 input  -60.55 | X-H torsion
[ 11005 11000 10999 10996 ] final -164.13 input  -57.11 | X-H torsion

> <Gold.Protein.ActiveResidues>
 VAL166  LYS551  ARG553  GLY616  TRP617  ASP618  TYR619  PRO620  LYS621  CYS622 
 ASP623  PHE694  ASN695  SER759  ASP760  ASP761  ALA762  ILE779  LEU786  VAL792 
 PHE793  MET794  SER795  GLU796  ALA797  LYS798  CYS799  TRP800  GLU811  SER814 

> <Gold.Protein.RotatedAtoms>
  151.4590  135.1036  159.9719 H   0  0  0  0  0  0  0  0  0  0  0  0  # atno 6907 bound_to 6896
  152.4860  133.8370  159.7143 H   0  0  0  0  0  0  0  0  0  0  0  0  # atno 6908 bound_to 6896
  150.8970  133.7108  159.2916 H   0  0  0  0  0  0  0  0  0  0  0  0  # atno 6909 bound_to 6896
  145.7897  139.2927  143.1218 H   0  0  0  0  0  0  0  0  0  0  0  0  # atno 7974 bound_to 7965
  154.7486  140.2762  155.6311 H   0  0  0  0  0  0  0  0  0  0  0  0  # atno 8008 bound_to 7997
  156.2890  140.2683  156.2160 H   0  0  0  0  0  0  0  0  0  0  0  0  # atno 8009 bound_to 7997
  155.0166  140.0372  157.2410 H   0  0  0  0  0  0  0  0  0  0  0  0  # atno 8010 bound_to 7997
  139.9323  144.6144  150.8333 H   0  0  0  0  0  0  0  0  0  0  0  0  # atno 10167 bound_to 10162
  157.5325  131.1098  150.8987 H   0  0  0  0  0  0  0  0  0  0  0  0  # atno 10718 bound_to 10713
  154.8284  135.3359  154.6822 H   0  0  0  0  0  0  0  0  0  0  0  0  # atno 10763 bound_to 10752
  153.7444  135.6943  153.4964 H   0  0  0  0  0  0  0  0  0  0  0  0  # atno 10764 bound_to 10752
  153.2221  135.4445  155.0451 H   0  0  0  0  0  0  0  0  0  0  0  0  # atno 10765 bound_to 10752
  140.5903  134.5051  157.5192 H   0  0  0  0  0  0  0  0  0  0  0  0  # atno 11005 bound_to 11000
  145.9990  140.8537  143.0028 LP  0  0  0  0  0  0  0  0  0  0  0  0  # atno 17320 bound_to 7965
  144.6784  140.2324  143.7353 LP  0  0  0  0  0  0  0  0  0  0  0  0  # atno 17321 bound_to 7965
  140.7634  143.3222  151.2596 LP  0  0  0  0  0  0  0  0  0  0  0  0  # atno 17342 bound_to 10162
  139.6772  143.9917  152.2788 LP  0  0  0  0  0  0  0  0  0  0  0  0  # atno 17343 bound_to 10162
  156.9564  130.5439  149.5284 LP  0  0  0  0  0  0  0  0  0  0  0  0  # atno 17370 bound_to 10713
  156.0433  130.5513  150.8822 LP  0  0  0  0  0  0  0  0  0  0  0  0  # atno 17371 bound_to 10713
  139.9277  134.8024  156.1021 LP  0  0  0  0  0  0  0  0  0  0  0  0  # atno 17394 bound_to 11000
  141.0939  133.6703  156.2601 LP  0  0  0  0  0  0  0  0  0  0  0  0  # atno 17395 bound_to 11000

$$$$
