AV-unprocessed.smi:102|AV-procd|sdf|972|dock5
  -GOLD-   2262017523D 1   1.00000     0.00000
 Structure written by MMmdl.
 43 44  0  0  0  0  0  0  0  0  2 V2000
  148.6499  131.5861  158.8552 C   0  0  0  0  0  0  0  0  0  0  0  0
  149.2058  132.7302  158.0181 C   0  0  0  0  0  0  0  0  0  0  0  0
  150.4057  132.8088  157.7547 O   0  0  0  0  0  0  0  0  0  0  0  0
  148.2485  133.5921  157.6292 O   0  0  0  0  0  0  0  0  0  0  0  0
  148.5627  134.6773  156.7667 C   0  0  0  0  0  0  0  0  0  0  0  0
  149.2297  135.8166  157.5513 C   0  0  1  0  0  0  0  0  0  0  0  0
  149.4184  136.9546  156.7223 O   0  0  0  0  0  0  0  0  0  0  0  0
  149.5909  138.0710  157.5329 C   0  0  2  0  0  0  0  0  0  0  0  0
  151.0775  138.2205  157.8265 N   0  0  0  0  0  0  0  0  0  0  0  0
  151.6385  137.8003  159.0248 C   0  0  0  0  0  0  0  0  0  0  0  0
  152.9667  137.8706  159.2452 C   0  0  0  0  0  0  0  0  0  0  0  0
  153.4733  137.4530  160.4181 F   0  0  0  0  0  0  0  0  0  0  0  0
  153.8467  138.3811  158.1981 C   0  0  0  0  0  0  0  0  0  0  0  0
  155.0541  138.4718  158.4149 O   0  0  0  0  0  0  0  0  0  0  0  0
  153.2809  138.7305  157.0077 N   0  5  0  0  0  0  0  0  0  0  0  0
  151.9384  138.6446  156.7743 C   0  0  0  0  0  0  0  0  0  0  0  0
  151.4345  138.9193  155.6852 O   0  0  0  0  0  0  0  0  0  0  0  0
  148.7281  137.8415  158.7874 C   0  0  1  0  0  0  0  0  0  0  0  0
  147.5456  138.6294  158.7327 O   0  0  0  0  0  0  0  0  0  0  0  0
  146.6826  138.4881  157.7118 C   0  0  0  0  0  0  0  0  0  0  0  0
  145.4983  139.4392  157.8191 C   0  0  0  0  0  0  0  0  0  0  0  0
  146.7886  137.6960  156.7754 O   0  0  0  0  0  0  0  0  0  0  0  0
  148.3577  136.3599  158.6905 C   0  0  2  0  0  0  0  0  0  0  0  0
  148.6556  135.6860  159.9064 O   0  0  0  0  0  0  0  0  0  0  0  0
  148.1272  136.1153  161.0653 C   0  0  0  0  0  0  0  0  0  0  0  0
  147.9280  134.9844  162.0656 C   0  0  0  0  0  0  0  0  0  0  0  0
  147.8282  137.2775  161.3402 O   0  0  0  0  0  0  0  0  0  0  0  0
  147.8709  131.0576  158.3059 H   0  0  0  0  0  0  0  0  0  0  0  0
  148.2229  131.9697  159.7818 H   0  0  0  0  0  0  0  0  0  0  0  0
  149.4388  130.8766  159.1062 H   0  0  0  0  0  0  0  0  0  0  0  0
  149.1770  134.3642  155.9212 H   0  0  0  0  0  0  0  0  0  0  0  0
  147.6215  135.0359  156.3497 H   0  0  0  0  0  0  0  0  0  0  0  0
  150.1956  135.4898  157.9395 H   0  0  0  0  0  0  0  0  0  0  0  0
  149.3024  138.9838  157.0098 H   0  0  0  0  0  0  0  0  0  0  0  0
  151.0238  137.3865  159.8082 H   0  0  0  0  0  0  0  0  0  0  0  0
  149.2824  138.0693  159.6972 H   0  0  0  0  0  0  0  0  0  0  0  0
  145.8464  140.4683  157.9087 H   0  0  0  0  0  0  0  0  0  0  0  0
  144.8981  139.1976  158.6965 H   0  0  0  0  0  0  0  0  0  0  0  0
  144.8647  139.3644  156.9351 H   0  0  0  0  0  0  0  0  0  0  0  0
  147.3056  136.2487  158.4215 H   0  0  0  0  0  0  0  0  0  0  0  0
  147.4066  134.1497  161.5972 H   0  0  0  0  0  0  0  0  0  0  0  0
  147.3395  135.3254  162.9176 H   0  0  0  0  0  0  0  0  0  0  0  0
  148.8924  134.6307  162.4303 H   0  0  0  0  0  0  0  0  0  0  0  0
  1  2  1  0  0  0  0
  1 28  1  0  0  0  0
  1 29  1  0  0  0  0
  1 30  1  0  0  0  0
  2  3  2  0  0  0  0
  2  4  1  0  0  0  0
  4  5  1  0  0  0  0
  5  6  1  0  0  0  0
  5 31  1  0  0  0  0
  5 32  1  0  0  0  0
  6 23  1  0  0  0  0
  6  7  1  0  0  0  0
  6 33  1  0  0  0  0
  7  8  1  0  0  0  0
  8  9  1  0  0  0  0
  8 18  1  0  0  0  0
  8 34  1  0  0  0  0
  9 16  1  0  0  0  0
  9 10  1  0  0  0  0
 10 11  2  0  0  0  0
 10 35  1  0  0  0  0
 11 12  1  0  0  0  0
 11 13  1  0  0  0  0
 13 14  2  0  0  0  0
 13 15  1  0  0  0  0
 15 16  1  0  0  0  0
 16 17  2  0  0  0  0
 18 19  1  0  0  0  0
 18 23  1  0  0  0  0
 18 36  1  0  0  0  0
 19 20  1  0  0  0  0
 20 21  1  0  0  0  0
 20 22  2  0  0  0  0
 21 37  1  0  0  0  0
 21 38  1  0  0  0  0
 21 39  1  0  0  0  0
 23 24  1  0  0  0  0
 23 40  1  0  0  0  0
 24 25  1  0  0  0  0
 25 26  1  0  0  0  0
 25 27  2  0  0  0  0
 26 41  1  0  0  0  0
 26 42  1  0  0  0  0
 26 43  1  0  0  0  0
M  CHG  1  15  -1
M  END
> <s_m_source_file>
AV-unprocessed.smi

> <i_m_source_file_index>
102

> <i_lp_mmshare_version>
43012

> <i_f3d_flags>
0

> <s_epik_input>
W0NIM11DKD1PKU9bQ0gyXVtDQEBIXTFPW0NASF0oW0NAQEhdKE9DKD1PKVtDSDNdKVtDQEhdMU9DKD1PKVtDSDNdKW4yW2NIXWMoRiljKD1PKVtuSF1jMj1P

> <s_epik_cmdline>
J2VwaWtfcHl0aG9uJywgJy1waCcsICc3LjAnLCAnLXRuJywgJzgnLCAnLW1hJywgJzIwMCcsICctbWV0YWxfYmluZGluZycsICctaW1hZScsICc8aW5maWxlLm1hZT4nLCAnLW9tYWUnLCAnPG91dGZpbGUubWFlPic=

> <r_epik_Ionization_Penalty>
1.40304

> <r_epik_Ionization_Penalty_Charging>
1.43915e-08

> <r_epik_Ionization_Penalty_Neutral>
1.40304

> <r_epik_State_Penalty>
1.48536

> <r_epik_Charging_Adjusted_Penalty>
1.48536

> <i_epik_Tot_Q>
-1

> <i_epik_Tot_abs_Q>
1

> <r_epik_Metal_State_Penalty>
0.00663881

> <b_epik_Metal_Only>
0

> <s_epik_Chemistry_Notes>
This compound has an ester and may undergo hydrolysis at high or low pH. This compound contains an acetal/aminal-like group ( X-CH(R)-Y where X, Y are N, S, or O) that may be acid/base labile, releasing an aldehyde.

> <s_lp_Force_Field>
OPLS_2005

> <r_lp_Energy>
19.0054

> <b_lp_Chiralities_Consistent>
1

> <s_lp_Variant>
AV-unprocessed.smi:102-28

> <Gold.Version>
5.8.1

> <Gold.Id.Protein>
6NUR|6NUR_protein|mol2

> <Gold.PLP.Fitness>
39.1377

> <Gold.PLP.PLP>
-25.8552

> <Gold.PLP.part.hbond>
-6.0000

> <Gold.PLP.part.metal>
0.0000

> <Gold.PLP.part.buried>
-4.1121

> <Gold.PLP.part.nonpolar>
-14.8184

> <Gold.PLP.part.repulsive>
0.0000

> <Gold.PLP.ligand.clash>
0.0000

> <Gold.PLP.ligand.torsion>
0.8762

> <Gold.PLP.Chemscore.Hbond>
4.9475

> <Gold.PLP.Chemscore.CHOScore>
0.0000

> <Gold.PLP.Chemscore.Metal>
0.0000

> <Gold.Chemscore.Hbonds>
donor molecule, donor type, donor heavy atom, donor atom, acceptor molecule, acceptor atom, score
      P1  H  6896  6909       L1     3  0.95
      P1  H  6931  6943       L1    27  0.98
      P1  H  6934  6947       L1    27  0.74
      P1  H  7997  8008       L1    14  0.24
      P1  H  7997  8009       L1    15  1.95

> <Gold.PLP.Chemscore.Internal.Correction>
0.1922

> <Gold.Rescore>
     Score         DG    S(hbond)    S(metal)    S(lipo)     H(rot)  DE(clash)    DE(int)     intcor
     -0.86      -7.95       2.85        0.00      27.16       4.00       0.28       8.52       ----

> <Gold.Chemscore.Fitness>
-0.8574

> <Gold.Chemscore.DG>
-7.9454

> <Gold.Chemscore.ZeroCoef>
-5.4800

> <Gold.Chemscore.Hbond>
2.8487

> <Gold.Chemscore.Metal>
0.0000

> <Gold.Chemscore.Lipo>
27.1628

> <Gold.Chemscore.Internal_Hbond>
0.0000

> <Gold.Chemscore.DEClash>
0.2826

> <Gold.Chemscore.DEInternal>
8.5201

> <Gold.Chemscore.Rot>
3.9951

> <Gold.Chemscore.Internal.Correction>
   9.000000E+99

> <Gold.Chemscore.Hbonds>
donor molecule, donor type, donor heavy atom, donor atom, acceptor molecule, acceptor atom, score
      P1  H  6896  6909       L1     3  0.22
      P1  H  6931  6943       L1    27  0.89
      P1  H  6934  6947       L1    27  0.74
      P1  H  7997  8008       L1    14  0.17
      P1  H  7997  8009       L1    15  0.28

> <Gold.Chemscore.Hbond.Weighted>
-9.5147

> <Gold.Chemscore.Metal.Weighted>
-0.0000

> <Gold.Chemscore.Lipo.Weighted>
-3.1780

> <Gold.Chemscore.Internal_Hbond.Weighted>
0.0000

> <Gold.Chemscore.DEClash.Weighted>
0.2826

> <Gold.Chemscore.DEInternal.Weighted>
8.5201

> <Gold.Chemscore.Rot.Weighted>
10.2274

> <Gold.Chemscore.Internal.Correction.Weighted>
   9.000000E+99

> <Gold.Protein.RotatedTorsions>
[ 6907 6896 6895 6894 ] final  -13.47 input  -60.11 | X-H torsion
[ 7974 7965 7964 7962 ] final   83.93 input  175.53 | X-H torsion
[ 8008 7997 7996 7995 ] final -169.68 input   59.86 | X-H torsion
[ 10167 10162 10161 10158 ] final  -75.75 input  -65.29 | X-H torsion
[ 10718 10713 10712 10709 ] final -129.38 input   66.30 | X-H torsion
[ 10763 10752 10751 10750 ] final  177.31 input  -60.55 | X-H torsion
[ 11005 11000 10999 10996 ] final  104.84 input  -57.11 | X-H torsion

> <Gold.Protein.ActiveResidues>
 VAL166  LYS551  ARG553  GLY616  TRP617  ASP618  TYR619  PRO620  LYS621  CYS622 
 ASP623  PHE694  ASN695  SER759  ASP760  ASP761  ALA762  ILE779  LEU786  VAL792 
 PHE793  MET794  SER795  GLU796  ALA797  LYS798  CYS799  TRP800  GLU811  SER814 

> <Gold.Protein.RotatedAtoms>
  151.3544  135.0891  159.9413 H   0  0  0  0  0  0  0  0  0  0  0  0  # atno 6907 bound_to 6896
  152.5178  133.9320  159.7595 H   0  0  0  0  0  0  0  0  0  0  0  0  # atno 6908 bound_to 6896
  150.9702  133.6298  159.2768 H   0  0  0  0  0  0  0  0  0  0  0  0  # atno 6909 bound_to 6896
  145.6055  139.2359  143.2222 H   0  0  0  0  0  0  0  0  0  0  0  0  # atno 7974 bound_to 7965
  155.9081  140.1052  157.1300 H   0  0  0  0  0  0  0  0  0  0  0  0  # atno 8008 bound_to 7997
  154.4035  140.1279  156.4587 H   0  0  0  0  0  0  0  0  0  0  0  0  # atno 8009 bound_to 7997
  155.7342  140.3468  155.5076 H   0  0  0  0  0  0  0  0  0  0  0  0  # atno 8010 bound_to 7997
  140.4916  143.2379  151.7898 H   0  0  0  0  0  0  0  0  0  0  0  0  # atno 10167 bound_to 10162
  156.2041  130.6876  151.0573 H   0  0  0  0  0  0  0  0  0  0  0  0  # atno 10718 bound_to 10713
  154.4928  135.2780  155.1483 H   0  0  0  0  0  0  0  0  0  0  0  0  # atno 10763 bound_to 10752
  154.3148  135.6221  153.5485 H   0  0  0  0  0  0  0  0  0  0  0  0  # atno 10764 bound_to 10752
  152.9890  135.5728  154.5353 H   0  0  0  0  0  0  0  0  0  0  0  0  # atno 10765 bound_to 10752
  139.8796  134.9315  156.5423 H   0  0  0  0  0  0  0  0  0  0  0  0  # atno 11005 bound_to 11000
  146.1544  140.6879  142.9307 LP  0  0  0  0  0  0  0  0  0  0  0  0  # atno 17320 bound_to 7965
  144.7292  140.4619  143.6950 LP  0  0  0  0  0  0  0  0  0  0  0  0  # atno 17321 bound_to 7965
  139.4852  144.4642  151.9505 LP  0  0  0  0  0  0  0  0  0  0  0  0  # atno 17342 bound_to 10162
  140.3728  144.2833  150.5918 LP  0  0  0  0  0  0  0  0  0  0  0  0  # atno 17343 bound_to 10162
  157.7002  131.0779  150.6844 LP  0  0  0  0  0  0  0  0  0  0  0  0  # atno 17370 bound_to 10713
  156.6902  130.4593  149.5602 LP  0  0  0  0  0  0  0  0  0  0  0  0  # atno 17371 bound_to 10713
  140.8301  133.8285  155.8976 LP  0  0  0  0  0  0  0  0  0  0  0  0  # atno 17394 bound_to 11000
  140.9336  134.1990  157.4847 LP  0  0  0  0  0  0  0  0  0  0  0  0  # atno 17395 bound_to 11000

$$$$
