AV-unprocessed.smi:485|AV-procd|sdf|2692|dock7
  -GOLD-   2262023123D 1   1.00000     0.00000
 Structure written by MMmdl.
 36 38  0  0  0  0  0  0  0  0  1 V2000
  154.2326  138.6683  157.9810 O   0  0  0  0  0  0  0  0  0  0  0  0
  152.9425  138.8400  158.5273 C   0  0  0  0  0  0  0  0  0  0  0  0
  152.5713  140.2823  158.6939 C   0  0  0  0  0  0  0  0  0  0  0  0
  153.2458  141.0939  159.5089 N   0  0  0  0  0  0  0  0  0  0  0  0
  152.5907  142.2992  159.3481 C   0  0  0  0  0  0  0  0  0  0  0  0
  152.8291  143.5598  159.9410 C   0  0  0  0  0  0  0  0  0  0  0  0
  152.0157  144.6658  159.6186 C   0  0  0  0  0  0  0  0  0  0  0  0
  150.9544  144.5277  158.7004 C   0  0  0  0  0  0  0  0  0  0  0  0
  150.7000  143.2807  158.0978 C   0  0  0  0  0  0  0  0  0  0  0  0
  151.5152  142.1796  158.4230 C   0  0  0  0  0  0  0  0  0  0  0  0
  151.5365  140.8471  158.0220 N   0  0  0  0  0  0  0  0  0  0  0  0
  150.6297  140.2163  157.0722 C   0  0  0  0  0  0  0  0  0  0  0  0
  150.7570  140.7909  155.6470 C   0  0  1  0  0  0  0  0  0  0  0  0
  151.8706  140.2181  154.9884 O   0  0  0  0  0  0  0  0  0  0  0  0
  149.4634  140.6102  154.8678 C   0  0  0  0  0  0  0  0  0  0  0  0
  148.6841  141.7258  154.4877 C   0  0  0  0  0  0  0  0  0  0  0  0
  147.4945  141.5442  153.7554 C   0  0  0  0  0  0  0  0  0  0  0  0
  147.0799  140.2479  153.3945 C   0  0  0  0  0  0  0  0  0  0  0  0
  147.8552  139.1328  153.7662 C   0  0  0  0  0  0  0  0  0  0  0  0
  149.0440  139.3138  154.4996 C   0  0  0  0  0  0  0  0  0  0  0  0
  154.7585  138.1848  158.5994 H   0  0  0  0  0  0  0  0  0  0  0  0
  152.2122  138.3370  157.8946 H   0  0  0  0  0  0  0  0  0  0  0  0
  152.9070  138.3449  159.4983 H   0  0  0  0  0  0  0  0  0  0  0  0
  153.6397  143.6758  160.6451 H   0  0  0  0  0  0  0  0  0  0  0  0
  152.2066  145.6245  160.0782 H   0  0  0  0  0  0  0  0  0  0  0  0
  150.3354  145.3796  158.4591 H   0  0  0  0  0  0  0  0  0  0  0  0
  149.8863  143.1701  157.3965 H   0  0  0  0  0  0  0  0  0  0  0  0
  150.8247  139.1431  157.0655 H   0  0  0  0  0  0  0  0  0  0  0  0
  149.6083  140.3317  157.4354 H   0  0  0  0  0  0  0  0  0  0  0  0
  150.9613  141.8598  155.7112 H   0  0  0  0  0  0  0  0  0  0  0  0
  152.1044  139.4191  155.4357 H   0  0  0  0  0  0  0  0  0  0  0  0
  148.9970  142.7253  154.7526 H   0  0  0  0  0  0  0  0  0  0  0  0
  146.9011  142.3998  153.4685 H   0  0  0  0  0  0  0  0  0  0  0  0
  146.1689  140.1089  152.8310 H   0  0  0  0  0  0  0  0  0  0  0  0
  147.5391  138.1385  153.4869 H   0  0  0  0  0  0  0  0  0  0  0  0
  149.6350  138.4527  154.7756 H   0  0  0  0  0  0  0  0  0  0  0  0
  1  2  1  0  0  0  0
  1 21  1  0  0  0  0
  2  3  1  0  0  0  0
  2 22  1  0  0  0  0
  2 23  1  0  0  0  0
  3 11  1  0  0  0  0
  3  4  2  0  0  0  0
  4  5  1  0  0  0  0
  5 10  2  0  0  0  0
  5  6  1  0  0  0  0
  6  7  2  0  0  0  0
  6 24  1  0  0  0  0
  7  8  1  0  0  0  0
  7 25  1  0  0  0  0
  8  9  2  0  0  0  0
  8 26  1  0  0  0  0
  9 10  1  0  0  0  0
  9 27  1  0  0  0  0
 10 11  1  0  0  0  0
 11 12  1  0  0  0  0
 12 13  1  0  0  0  0
 12 28  1  0  0  0  0
 12 29  1  0  0  0  0
 13 14  1  0  0  0  0
 13 15  1  0  0  0  0
 13 30  1  0  0  0  0
 14 31  1  0  0  0  0
 15 20  1  0  0  0  0
 15 16  2  0  0  0  0
 16 17  1  0  0  0  0
 16 32  1  0  0  0  0
 17 18  2  0  0  0  0
 17 33  1  0  0  0  0
 18 19  1  0  0  0  0
 18 34  1  0  0  0  0
 19 20  2  0  0  0  0
 19 35  1  0  0  0  0
 20 36  1  0  0  0  0
M  END
> <s_m_source_file>
AV-unprocessed.smi

> <i_m_source_file_index>
485

> <i_lp_mmshare_version>
43012

> <i_f3d_flags>
0

> <s_epik_input>
W2NIXTFbY0hdW2NIXVtjSF1jKGMxMiluKGMobjIpW0NIMl1bT0hdKVtDSDJdW0NASF0oW09IXSljM1tjSF1bY0hdW2NIXVtjSF1bY0hdMw==

> <s_epik_cmdline>
J2VwaWtfcHl0aG9uJywgJy1waCcsICc3LjAnLCAnLXRuJywgJzgnLCAnLW1hJywgJzIwMCcsICctbWV0YWxfYmluZGluZycsICctaW1hZScsICc8aW5maWxlLm1hZT4nLCAnLW9tYWUnLCAnPG91dGZpbGUubWFlPic=

> <r_epik_Ionization_Penalty>
0.0634722

> <r_epik_Ionization_Penalty_Charging>
0

> <r_epik_Ionization_Penalty_Neutral>
0.0634722

> <r_epik_State_Penalty>
0.0551572

> <r_epik_Charging_Adjusted_Penalty>
0.0551572

> <i_epik_Tot_Q>
0

> <i_epik_Tot_abs_Q>
0

> <r_epik_Metal_State_Penalty>
5.78034e-05

> <b_epik_Metal_Only>
0

> <s_lp_Force_Field>
OPLS_2005

> <r_lp_Energy>
11.9135

> <b_lp_Chiralities_Consistent>
1

> <s_lp_Variant>
AV-unprocessed.smi:485-2

> <Gold.Version>
5.8.1

> <Gold.Id.Protein>
6NUR|6NUR_protein|mol2

> <Gold.PLP.Fitness>
49.9299

> <Gold.PLP.PLP>
-45.1565

> <Gold.PLP.part.hbond>
-1.9756

> <Gold.PLP.part.metal>
0.0000

> <Gold.PLP.part.buried>
-4.3226

> <Gold.PLP.part.nonpolar>
-38.5012

> <Gold.PLP.part.repulsive>
0.0000

> <Gold.PLP.ligand.clash>
0.0000

> <Gold.PLP.ligand.torsion>
0.3396

> <Gold.PLP.Chemscore.Hbond>
1.8056

> <Gold.PLP.Chemscore.CHOScore>
0.0000

> <Gold.PLP.Chemscore.Metal>
0.0000

> <Gold.Chemscore.Hbonds>
donor molecule, donor type, donor heavy atom, donor atom, acceptor molecule, acceptor atom, score
      P1  H  7989  7998       L1    14  0.81
      P1  H  7997  8008       L1     1  1.00

> <Gold.PLP.Chemscore.Internal.Correction>
0.0357

> <Gold.Rescore>
     Score         DG    S(hbond)    S(metal)    S(lipo)     H(rot)  DE(clash)    DE(int)     intcor
     17.34     -17.60       1.72        0.00     111.92       2.62       0.00       0.26       ----

> <Gold.Chemscore.Fitness>
17.3374

> <Gold.Chemscore.DG>
-17.5974

> <Gold.Chemscore.ZeroCoef>
-5.4800

> <Gold.Chemscore.Hbond>
1.7181

> <Gold.Chemscore.Metal>
0.0000

> <Gold.Chemscore.Lipo>
111.9167

> <Gold.Chemscore.Internal_Hbond>
0.0000

> <Gold.Chemscore.DEClash>
0.0004

> <Gold.Chemscore.DEInternal>
0.2595

> <Gold.Chemscore.Rot>
2.6232

> <Gold.Chemscore.Internal.Correction>
   9.000000E+99

> <Gold.Chemscore.Hbonds>
donor molecule, donor type, donor heavy atom, donor atom, acceptor molecule, acceptor atom, score
      P1  H  7989  7998       L1    14  0.18
      P1  H  7997  8008       L1     1  0.87

> <Gold.Chemscore.Hbond.Weighted>
-5.7385

> <Gold.Chemscore.Metal.Weighted>
-0.0000

> <Gold.Chemscore.Lipo.Weighted>
-13.0943

> <Gold.Chemscore.Internal_Hbond.Weighted>
0.0000

> <Gold.Chemscore.DEClash.Weighted>
0.0004

> <Gold.Chemscore.DEInternal.Weighted>
0.2595

> <Gold.Chemscore.Rot.Weighted>
6.7154

> <Gold.Chemscore.Internal.Correction.Weighted>
   9.000000E+99

> <Gold.Protein.RotatedTorsions>
[ 6907 6896 6895 6894 ] final  -76.77 input  -60.11 | X-H torsion
[ 7974 7965 7964 7962 ] final  160.56 input  175.53 | X-H torsion
[ 8008 7997 7996 7995 ] final -109.00 input   59.86 | X-H torsion
[ 10167 10162 10161 10158 ] final   72.83 input  -65.29 | X-H torsion
[ 10718 10713 10712 10709 ] final  -22.14 input   66.30 | X-H torsion
[ 10763 10752 10751 10750 ] final    9.63 input  -60.55 | X-H torsion
[ 11005 11000 10999 10996 ] final  -37.59 input  -57.11 | X-H torsion

> <Gold.Protein.ActiveResidues>
 VAL166  LYS551  ARG553  GLY616  TRP617  ASP618  TYR619  PRO620  LYS621  CYS622 
 ASP623  PHE694  ASN695  SER759  ASP760  ASP761  ALA762  ILE779  LEU786  VAL792 
 PHE793  MET794  SER795  GLU796  ALA797  LYS798  CYS799  TRP800  GLU811  SER814 

> <Gold.Protein.RotatedAtoms>
  150.7018  134.4522  159.5341 H   0  0  0  0  0  0  0  0  0  0  0  0  # atno 6907 bound_to 6896
  152.2213  134.8408  160.0495 H   0  0  0  0  0  0  0  0  0  0  0  0  # atno 6908 bound_to 6896
  151.9257  133.3562  159.3950 H   0  0  0  0  0  0  0  0  0  0  0  0  # atno 6909 bound_to 6896
  144.7730  139.7774  143.6289 H   0  0  0  0  0  0  0  0  0  0  0  0  # atno 7974 bound_to 7965
  154.9527  140.0400  157.2152 H   0  0  0  0  0  0  0  0  0  0  0  0  # atno 8008 bound_to 7997
  154.7963  140.2844  155.5932 H   0  0  0  0  0  0  0  0  0  0  0  0  # atno 8009 bound_to 7997
  156.2956  140.2563  156.2822 H   0  0  0  0  0  0  0  0  0  0  0  0  # atno 8010 bound_to 7997
  140.0310  144.5465  150.7507 H   0  0  0  0  0  0  0  0  0  0  0  0  # atno 10167 bound_to 10162
  156.5086  130.4604  149.6661 H   0  0  0  0  0  0  0  0  0  0  0  0  # atno 10718 bound_to 10713
  153.2120  135.6870  153.8103 H   0  0  0  0  0  0  0  0  0  0  0  0  # atno 10763 bound_to 10752
  153.7332  135.3249  155.3291 H   0  0  0  0  0  0  0  0  0  0  0  0  # atno 10764 bound_to 10752
  154.8226  135.4641  154.0931 H   0  0  0  0  0  0  0  0  0  0  0  0  # atno 10765 bound_to 10752
  140.9963  133.6978  156.1941 H   0  0  0  0  0  0  0  0  0  0  0  0  # atno 11005 bound_to 11000
  146.1891  139.5122  142.9817 LP  0  0  0  0  0  0  0  0  0  0  0  0  # atno 17320 bound_to 7965
  145.6267  141.0312  143.1885 LP  0  0  0  0  0  0  0  0  0  0  0  0  # atno 17321 bound_to 7965
  140.7302  143.2680  151.3979 LP  0  0  0  0  0  0  0  0  0  0  0  0  # atno 17342 bound_to 10162
  139.6076  144.1165  152.2265 LP  0  0  0  0  0  0  0  0  0  0  0  0  # atno 17343 bound_to 10162
  156.3263  130.7307  151.2228 LP  0  0  0  0  0  0  0  0  0  0  0  0  # atno 17370 bound_to 10713
  157.7453  131.0442  150.4782 LP  0  0  0  0  0  0  0  0  0  0  0  0  # atno 17371 bound_to 10713
  140.6960  134.4615  157.5587 LP  0  0  0  0  0  0  0  0  0  0  0  0  # atno 17394 bound_to 11000
  139.9016  134.8542  156.1871 LP  0  0  0  0  0  0  0  0  0  0  0  0  # atno 17395 bound_to 11000

$$$$
