AV-unprocessed.smi:3286|AV-procd|sdf|12589|dock8
  -GOLD-   2272018513D 1   1.00000     0.00000
 Structure written by MMmdl.
 43 44  0  0  0  0  0  0  0  0  2 V2000
  144.6609  132.3972  149.4955 C   0  0  0  0  0  0  0  0  0  0  0  0
  144.8720  133.4815  150.5313 C   0  0  0  0  0  0  0  0  0  0  0  0
  145.5625  133.2132  151.7322 C   0  0  0  0  0  0  0  0  0  0  0  0
  145.7274  134.2598  152.6593 C   0  0  0  0  0  0  0  0  0  0  0  0
  145.1974  135.5302  152.3523 C   0  0  0  0  0  0  0  0  0  0  0  0
  145.3519  136.6923  153.3130 C   0  0  0  0  0  0  0  0  0  0  0  0
  146.1762  137.8350  152.7062 C   0  0  0  0  0  0  0  0  0  0  0  0
  147.4458  138.0194  153.4378 N   0  3  0  0  0  0  0  0  0  0  0  0
  147.8356  139.4306  153.6605 C   0  0  1  0  0  0  0  0  0  0  0  0
  146.6150  140.1884  154.2103 C   0  0  0  0  0  0  0  0  0  0  0  0
  149.0729  139.5063  154.5938 C   0  0  0  0  0  0  0  0  0  0  0  0
  149.5462  140.9530  154.8471 C   0  0  0  0  0  0  0  0  0  0  0  0
  150.8272  140.9840  155.6972 C   0  0  0  0  0  0  0  0  0  0  0  0
  151.8501  140.2234  155.0672 O   0  0  0  0  0  0  0  0  0  0  0  0
  151.5083  138.8501  154.9342 C   0  0  0  0  0  0  0  0  0  0  0  0
  150.2699  138.7067  154.0356 C   0  0  0  0  0  0  0  0  0  0  0  0
  144.5231  135.6928  151.1236 C   0  0  0  0  0  0  0  0  0  0  0  0
  144.3619  134.6955  150.2282 N   0  0  0  0  0  0  0  0  0  0  0  0
  145.0959  131.4507  149.8177 H   0  0  0  0  0  0  0  0  0  0  0  0
  145.1245  132.6806  148.5503 H   0  0  0  0  0  0  0  0  0  0  0  0
  143.5958  132.2406  149.3225 H   0  0  0  0  0  0  0  0  0  0  0  0
  145.9568  132.2293  151.9404 H   0  0  0  0  0  0  0  0  0  0  0  0
  146.2526  134.0883  153.5876 H   0  0  0  0  0  0  0  0  0  0  0  0
  144.3614  137.0524  153.5948 H   0  0  0  0  0  0  0  0  0  0  0  0
  145.8226  136.3342  154.2296 H   0  0  0  0  0  0  0  0  0  0  0  0
  146.3915  137.6218  151.6583 H   0  0  0  0  0  0  0  0  0  0  0  0
  145.6071  138.7652  152.7378 H   0  0  0  0  0  0  0  0  0  0  0  0
  147.3628  137.5667  154.3368 H   0  0  0  0  0  0  0  0  0  0  0  0
  148.0983  139.8857  152.7036 H   0  0  0  0  0  0  0  0  0  0  0  0
  146.7939  141.2620  154.2639 H   0  0  0  0  0  0  0  0  0  0  0  0
  146.3472  139.8411  155.2090 H   0  0  0  0  0  0  0  0  0  0  0  0
  145.7459  140.0476  153.5665 H   0  0  0  0  0  0  0  0  0  0  0  0
  148.7993  139.0736  155.5577 H   0  0  0  0  0  0  0  0  0  0  0  0
  149.7305  141.4555  153.8966 H   0  0  0  0  0  0  0  0  0  0  0  0
  148.7767  141.5279  155.3617 H   0  0  0  0  0  0  0  0  0  0  0  0
  151.1750  142.0109  155.8124 H   0  0  0  0  0  0  0  0  0  0  0  0
  150.6378  140.5989  156.7004 H   0  0  0  0  0  0  0  0  0  0  0  0
  152.3530  138.3189  154.4946 H   0  0  0  0  0  0  0  0  0  0  0  0
  151.3319  138.4088  155.9166 H   0  0  0  0  0  0  0  0  0  0  0  0
  150.0209  137.6493  153.9442 H   0  0  0  0  0  0  0  0  0  0  0  0
  150.5135  139.0567  153.0316 H   0  0  0  0  0  0  0  0  0  0  0  0
  144.1044  136.6499  150.8490 H   0  0  0  0  0  0  0  0  0  0  0  0
  148.1843  137.5655  152.9192 H   0  0  0  0  0  0  0  0  0  0  0  0
  1  2  1  0  0  0  0
  1 19  1  0  0  0  0
  1 20  1  0  0  0  0
  1 21  1  0  0  0  0
  2 18  1  0  0  0  0
  2  3  2  0  0  0  0
  3  4  1  0  0  0  0
  3 22  1  0  0  0  0
  4  5  2  0  0  0  0
  4 23  1  0  0  0  0
  5  6  1  0  0  0  0
  5 17  1  0  0  0  0
  6  7  1  0  0  0  0
  6 24  1  0  0  0  0
  6 25  1  0  0  0  0
  7  8  1  0  0  0  0
  7 26  1  0  0  0  0
  7 27  1  0  0  0  0
  8  9  1  0  0  0  0
  8 28  1  0  0  0  0
  8 43  1  0  0  0  0
  9 10  1  0  0  0  0
  9 11  1  0  0  0  0
  9 29  1  0  0  0  0
 10 30  1  0  0  0  0
 10 31  1  0  0  0  0
 10 32  1  0  0  0  0
 11 16  1  0  0  0  0
 11 12  1  0  0  0  0
 11 33  1  0  0  0  0
 12 13  1  0  0  0  0
 12 34  1  0  0  0  0
 12 35  1  0  0  0  0
 13 14  1  0  0  0  0
 13 36  1  0  0  0  0
 13 37  1  0  0  0  0
 14 15  1  0  0  0  0
 15 16  1  0  0  0  0
 15 38  1  0  0  0  0
 15 39  1  0  0  0  0
 16 40  1  0  0  0  0
 16 41  1  0  0  0  0
 17 18  2  0  0  0  0
 17 42  1  0  0  0  0
M  CHG  1   8   1
M  END
> <s_m_source_file>
AV-unprocessed.smi

> <i_m_source_file_index>
3286

> <i_lp_mmshare_version>
43012

> <i_f3d_flags>
0

> <s_epik_input>
W0NIM11jMVtjSF1bY0hdYyhbY0hdbjEpW0NIMl1bQ0gyXVtOSF1bQ0BIXShbQ0gzXSlbQ0hdMltDSDJdW0NIMl1PW0NIMl1bQ0gyXTI=

> <s_epik_cmdline>
J2VwaWtfcHl0aG9uJywgJy1waCcsICc3LjAnLCAnLXRuJywgJzgnLCAnLW1hJywgJzIwMCcsICctbWV0YWxfYmluZGluZycsICctaW1hZScsICc8aW5maWxlLm1hZT4nLCAnLW9tYWUnLCAnPG91dGZpbGUubWFlPic=

> <r_lp_tautomer_probability>
1

> <r_epik_Ionization_Penalty>
0.00336271

> <r_epik_Ionization_Penalty_Charging>
0.000752246

> <r_epik_Ionization_Penalty_Neutral>
0.00261046

> <r_epik_State_Penalty>
-0

> <r_epik_Charging_Adjusted_Penalty>
0.000752246

> <i_epik_Tot_Q>
1

> <i_epik_Tot_abs_Q>
1

> <r_epik_Metal_State_Penalty>
-0

> <b_epik_Metal_Only>
0

> <s_lp_Force_Field>
OPLS_2005

> <r_lp_Energy>
16.504

> <b_lp_Chiralities_Consistent>
1

> <s_lp_Variant>
AV-unprocessed.smi:3286-2

> <Gold.Version>
5.8.1

> <Gold.Id.Protein>
6NUR|6NUR_protein|mol2

> <Gold.PLP.Fitness>
43.5820

> <Gold.PLP.PLP>
-33.3874

> <Gold.PLP.part.hbond>
-2.0000

> <Gold.PLP.part.metal>
0.0000

> <Gold.PLP.part.buried>
-4.8572

> <Gold.PLP.part.nonpolar>
-27.3963

> <Gold.PLP.part.repulsive>
0.5044

> <Gold.PLP.ligand.clash>
0.0000

> <Gold.PLP.ligand.torsion>
0.7173

> <Gold.PLP.Chemscore.Hbond>
2.8640

> <Gold.PLP.Chemscore.CHOScore>
1.0000

> <Gold.PLP.Chemscore.Metal>
0.0000

> <Gold.Chemscore.Hbonds>
donor molecule, donor type, donor heavy atom, donor atom, acceptor molecule, acceptor atom, score
      L1  H     8    43       P1  7948  2.00
      P1  H  7989  7998       L1    14  0.72
      L1  C    17    42       P1 10171  1.00

> <Gold.PLP.Chemscore.Internal.Correction>
0.0372

> <Gold.Rescore>
     Score         DG    S(hbond)    S(metal)    S(lipo)     H(rot)  DE(clash)    DE(int)     intcor
     16.16     -16.88       1.35        0.00      90.32       1.43       0.01       0.72       ----

> <Gold.Chemscore.Fitness>
16.1588

> <Gold.Chemscore.DG>
-16.8836

> <Gold.Chemscore.ZeroCoef>
-5.4800

> <Gold.Chemscore.Hbond>
1.3475

> <Gold.Chemscore.Metal>
0.0000

> <Gold.Chemscore.Lipo>
90.3241

> <Gold.Chemscore.Internal_Hbond>
0.0000

> <Gold.Chemscore.DEClash>
0.0064

> <Gold.Chemscore.DEInternal>
0.7184

> <Gold.Chemscore.Rot>
1.4317

> <Gold.Chemscore.Internal.Correction>
   9.000000E+99

> <Gold.Chemscore.Hbonds>
donor molecule, donor type, donor heavy atom, donor atom, acceptor molecule, acceptor atom, score
      L1  H     8    43       P1  7948  0.99
      P1  H  7989  7998       L1    14  0.06

> <Gold.Chemscore.Hbond.Weighted>
-4.5007

> <Gold.Chemscore.Metal.Weighted>
-0.0000

> <Gold.Chemscore.Lipo.Weighted>
-10.5679

> <Gold.Chemscore.Internal_Hbond.Weighted>
0.0000

> <Gold.Chemscore.DEClash.Weighted>
0.0064

> <Gold.Chemscore.DEInternal.Weighted>
0.7184

> <Gold.Chemscore.Rot.Weighted>
3.6651

> <Gold.Chemscore.Internal.Correction.Weighted>
   9.000000E+99

> <Gold.Protein.RotatedTorsions>
[ 6907 6896 6895 6894 ] final   59.38 input  -60.11 | X-H torsion
[ 7974 7965 7964 7962 ] final  106.46 input  175.53 | X-H torsion
[ 8008 7997 7996 7995 ] final   83.13 input   59.86 | X-H torsion
[ 10167 10162 10161 10158 ] final   -5.99 input  -65.29 | X-H torsion
[ 10718 10713 10712 10709 ] final -149.49 input   66.30 | X-H torsion
[ 10763 10752 10751 10750 ] final   64.83 input  -60.55 | X-H torsion
[ 11005 11000 10999 10996 ] final  -53.04 input  -57.11 | X-H torsion

> <Gold.Protein.ActiveResidues>
 VAL166  LYS551  ARG553  GLY616  TRP617  ASP618  TYR619  PRO620  LYS621  CYS622 
 ASP623  PHE694  ASN695  SER759  ASP760  ASP761  ALA762  ILE779  LEU786  VAL792 
 PHE793  MET794  SER795  GLU796  ALA797  LYS798  CYS799  TRP800  GLU811  SER814 

> <Gold.Protein.RotatedAtoms>
  152.3909  134.6442  160.0107 H   0  0  0  0  0  0  0  0  0  0  0  0  # atno 6907 bound_to 6896
  151.6676  133.3309  159.3197 H   0  0  0  0  0  0  0  0  0  0  0  0  # atno 6908 bound_to 6896
  150.7825  134.6827  159.6497 H   0  0  0  0  0  0  0  0  0  0  0  0  # atno 6909 bound_to 6896
  145.3063  139.2554  143.3787 H   0  0  0  0  0  0  0  0  0  0  0  0  # atno 7974 bound_to 7965
  155.9198  140.3422  155.6164 H   0  0  0  0  0  0  0  0  0  0  0  0  # atno 8008 bound_to 7997
  155.7287  140.0792  157.2317 H   0  0  0  0  0  0  0  0  0  0  0  0  # atno 8009 bound_to 7997
  154.4068  140.1592  156.2471 H   0  0  0  0  0  0  0  0  0  0  0  0  # atno 8010 bound_to 7997
  140.6982  143.6245  150.8581 H   0  0  0  0  0  0  0  0  0  0  0  0  # atno 10167 bound_to 10162
  156.4338  130.8088  151.2316 H   0  0  0  0  0  0  0  0  0  0  0  0  # atno 10718 bound_to 10713
  153.0071  135.5379  154.6571 H   0  0  0  0  0  0  0  0  0  0  0  0  # atno 10763 bound_to 10752
  154.5789  135.2848  155.0755 H   0  0  0  0  0  0  0  0  0  0  0  0  # atno 10764 bound_to 10752
  154.1892  135.6503  153.5107 H   0  0  0  0  0  0  0  0  0  0  0  0  # atno 10765 bound_to 10752
  141.0956  133.6625  156.4114 H   0  0  0  0  0  0  0  0  0  0  0  0  # atno 11005 bound_to 11000
  146.3134  140.3589  142.8663 LP  0  0  0  0  0  0  0  0  0  0  0  0  # atno 17320 bound_to 7965
  144.9052  140.7691  143.5842 LP  0  0  0  0  0  0  0  0  0  0  0  0  # atno 17321 bound_to 7965
  139.9965  143.5790  152.2891 LP  0  0  0  0  0  0  0  0  0  0  0  0  # atno 17342 bound_to 10162
  139.6464  144.7658  151.2235 LP  0  0  0  0  0  0  0  0  0  0  0  0  # atno 17343 bound_to 10162
  157.7508  131.0190  150.3649 LP  0  0  0  0  0  0  0  0  0  0  0  0  # atno 17370 bound_to 10713
  156.3992  130.3912  149.6972 LP  0  0  0  0  0  0  0  0  0  0  0  0  # atno 17371 bound_to 10713
  140.5149  134.6360  157.5297 LP  0  0  0  0  0  0  0  0  0  0  0  0  # atno 17394 bound_to 11000
  139.9791  134.7166  155.9892 LP  0  0  0  0  0  0  0  0  0  0  0  0  # atno 17395 bound_to 11000

$$$$
