AV-unprocessed.smi:36|AV-procd|sdf|291|dock7
  -GOLD-   2262016 83D 1   1.00000     0.00000
 Structure written by MMmdl.
 64 67  0  0  0  0  0  0  0  0  1 V2000
  150.9802  129.9600  160.6499 C   0  0  0  0  0  0  0  0  0  0  0  0
  149.9098  129.5059  161.6564 C   0  0  0  0  0  0  0  0  0  0  0  0
  148.9360  130.6644  161.9330 C   0  0  0  0  0  0  0  0  0  0  0  0
  149.1420  128.2976  161.0946 C   0  0  0  0  0  0  0  0  0  0  0  0
  150.7610  129.0117  163.2932 Si  0  0  0  0  0  0  0  0  0  0  0  0
  149.4725  128.5902  164.6270 C   0  0  0  0  0  0  0  0  0  0  0  0
  151.9280  127.5336  163.0461 C   0  0  0  0  0  0  0  0  0  0  0  0
  151.6917  130.3299  163.8071 O   0  0  0  0  0  0  0  0  0  0  0  0
  152.7839  130.8636  163.0862 C   0  0  0  0  0  0  0  0  0  0  0  0
  153.1849  132.2111  163.7068 C   0  0  2  0  0  0  0  0  0  0  0  0
  154.2484  132.8143  162.9808 O   0  0  0  0  0  0  0  0  0  0  0  0
  154.9067  133.7426  163.7899 C   0  0  1  0  0  0  0  0  0  0  0  0
  154.4859  135.1213  163.3858 N   0  0  0  0  0  0  0  0  0  0  0  0
  153.8449  136.0505  164.1230 C   0  0  0  0  0  0  0  0  0  0  0  0
  153.5966  137.2000  163.4996 N   0  0  0  0  0  0  0  0  0  0  0  0
  154.1308  136.9818  162.2339 C   0  0  0  0  0  0  0  0  0  0  0  0
  154.1824  137.8659  161.0488 C   0  0  0  0  0  0  0  0  0  0  0  0
  153.6669  139.0530  161.1578 N   0  0  0  0  0  0  0  0  0  0  0  0
  153.6696  139.9174  160.0701 C   0  0  0  0  0  0  0  0  0  0  0  0
  154.0383  139.6995  158.9125 O   0  0  0  0  0  0  0  0  0  0  0  0
  153.2309  141.3048  160.4144 C   0  0  0  0  0  0  0  0  0  0  0  0
  152.8751  142.2126  159.3937 C   0  0  0  0  0  0  0  0  0  0  0  0
  152.4600  143.5179  159.7221 C   0  0  0  0  0  0  0  0  0  0  0  0
  152.4002  143.9207  161.0703 C   0  0  0  0  0  0  0  0  0  0  0  0
  152.7549  143.0178  162.0912 C   0  0  0  0  0  0  0  0  0  0  0  0
  153.1683  141.7114  161.7644 C   0  0  0  0  0  0  0  0  0  0  0  0
  154.8166  137.2038  159.9894 N   0  0  0  0  0  0  0  0  0  0  0  0
  155.3396  135.9020  160.0267 C   0  0  0  0  0  0  0  0  0  0  0  0
  155.3037  135.1118  161.0663 N   0  0  0  0  0  0  0  0  0  0  0  0
  154.6770  135.7197  162.1450 C   0  0  0  0  0  0  0  0  0  0  0  0
  154.4873  133.4697  165.2429 C   0  0  0  0  0  0  0  0  0  0  0  0
  153.7245  132.1606  165.1394 C   0  0  2  0  0  0  0  0  0  0  0  0
  154.5876  131.0575  165.3423 O   0  0  0  0  0  0  0  0  0  0  0  0
  150.5305  130.2727  159.7071 H   0  0  0  0  0  0  0  0  0  0  0  0
  151.6839  129.1577  160.4273 H   0  0  0  0  0  0  0  0  0  0  0  0
  151.5544  130.8029  161.0362 H   0  0  0  0  0  0  0  0  0  0  0  0
  149.4556  131.5272  162.3515 H   0  0  0  0  0  0  0  0  0  0  0  0
  148.1605  130.3735  162.6419 H   0  0  0  0  0  0  0  0  0  0  0  0
  148.4382  130.9915  161.0196 H   0  0  0  0  0  0  0  0  0  0  0  0
  148.6432  128.5464  160.1573 H   0  0  0  0  0  0  0  0  0  0  0  0
  148.3773  127.9536  161.7915 H   0  0  0  0  0  0  0  0  0  0  0  0
  149.8102  127.4587  160.8984 H   0  0  0  0  0  0  0  0  0  0  0  0
  148.8814  127.7183  164.3479 H   0  0  0  0  0  0  0  0  0  0  0  0
  148.7763  129.4123  164.7902 H   0  0  0  0  0  0  0  0  0  0  0  0
  149.9428  128.3678  165.5845 H   0  0  0  0  0  0  0  0  0  0  0  0
  151.3911  126.6529  162.6939 H   0  0  0  0  0  0  0  0  0  0  0  0
  152.4269  127.2599  163.9754 H   0  0  0  0  0  0  0  0  0  0  0  0
  152.7055  127.7550  162.3154 H   0  0  0  0  0  0  0  0  0  0  0  0
  153.6191  130.1634  163.1243 H   0  0  0  0  0  0  0  0  0  0  0  0
  152.5064  130.9787  162.0383 H   0  0  0  0  0  0  0  0  0  0  0  0
  152.3333  132.8918  163.6915 H   0  0  0  0  0  0  0  0  0  0  0  0
  155.9834  133.7114  163.6194 H   0  0  0  0  0  0  0  0  0  0  0  0
  153.5473  135.8841  165.1477 H   0  0  0  0  0  0  0  0  0  0  0  0
  152.9164  141.9113  158.3569 H   0  0  0  0  0  0  0  0  0  0  0  0
  152.1869  144.2104  158.9394 H   0  0  0  0  0  0  0  0  0  0  0  0
  152.0822  144.9219  161.3213 H   0  0  0  0  0  0  0  0  0  0  0  0
  152.7094  143.3261  163.1252 H   0  0  0  0  0  0  0  0  0  0  0  0
  153.4376  141.0246  162.5539 H   0  0  0  0  0  0  0  0  0  0  0  0
  155.7974  135.5814  159.0898 H   0  0  0  0  0  0  0  0  0  0  0  0
  155.3559  133.4252  165.9010 H   0  0  0  0  0  0  0  0  0  0  0  0
  153.8266  134.2638  165.5952 H   0  0  0  0  0  0  0  0  0  0  0  0
  152.9176  132.1040  165.8705 H   0  0  0  0  0  0  0  0  0  0  0  0
  155.3838  131.2041  164.8550 H   0  0  0  0  0  0  0  0  0  0  0  0
  154.9088  137.7121  159.1216 H   0  0  0  0  0  0  0  0  0  0  0  0
  1  2  1  0  0  0  0
  1 34  1  0  0  0  0
  1 35  1  0  0  0  0
  1 36  1  0  0  0  0
  2  3  1  0  0  0  0
  2  4  1  0  0  0  0
  2  5  1  0  0  0  0
  3 37  1  0  0  0  0
  3 38  1  0  0  0  0
  3 39  1  0  0  0  0
  4 40  1  0  0  0  0
  4 41  1  0  0  0  0
  4 42  1  0  0  0  0
  5  6  1  0  0  0  0
  5  7  1  0  0  0  0
  5  8  1  0  0  0  0
  6 43  1  0  0  0  0
  6 44  1  0  0  0  0
  6 45  1  0  0  0  0
  7 46  1  0  0  0  0
  7 47  1  0  0  0  0
  7 48  1  0  0  0  0
  8  9  1  0  0  0  0
  9 10  1  0  0  0  0
  9 49  1  0  0  0  0
  9 50  1  0  0  0  0
 10 32  1  0  0  0  0
 10 11  1  0  0  0  0
 10 51  1  0  0  0  0
 11 12  1  0  0  0  0
 12 13  1  0  0  0  0
 12 31  1  0  0  0  0
 12 52  1  0  0  0  0
 13 30  1  0  0  0  0
 13 14  1  0  0  0  0
 14 15  2  0  0  0  0
 14 53  1  0  0  0  0
 15 16  1  0  0  0  0
 16 30  2  0  0  0  0
 16 17  1  0  0  0  0
 17 18  2  0  0  0  0
 17 27  1  0  0  0  0
 18 19  1  0  0  0  0
 19 20  2  0  0  0  0
 19 21  1  0  0  0  0
 21 26  1  0  0  0  0
 21 22  2  0  0  0  0
 22 23  1  0  0  0  0
 22 54  1  0  0  0  0
 23 24  2  0  0  0  0
 23 55  1  0  0  0  0
 24 25  1  0  0  0  0
 24 56  1  0  0  0  0
 25 26  2  0  0  0  0
 25 57  1  0  0  0  0
 26 58  1  0  0  0  0
 27 28  1  0  0  0  0
 27 64  1  0  0  0  0
 28 29  2  0  0  0  0
 28 59  1  0  0  0  0
 29 30  1  0  0  0  0
 31 32  1  0  0  0  0
 31 60  1  0  0  0  0
 31 61  1  0  0  0  0
 32 33  1  0  0  0  0
 32 62  1  0  0  0  0
 33 63  1  0  0  0  0
M  END
> <s_m_source_file>
AV-unprocessed.smi

> <i_m_source_file_index>
36

> <i_lp_mmshare_version>
43012

> <i_f3d_flags>
0

> <s_epik_input>
W0NIM11DKFtDSDNdKShbQ0gzXSlbU2ldKFtDSDNdKShbQ0gzXSlPW0NIMl1bQ0BASF0xT1tDQEhdKFtDSDJdW0NASF0xW09IXSluKFtjSF1uMiljKGMyMyluW2NIXW5jM1tOSF1DKD1PKWM0W2NIXVtjSF1bY0hdW2NIXVtjSF00

> <s_epik_cmdline>
J2VwaWtfcHl0aG9uJywgJy1waCcsICc3LjAnLCAnLXRuJywgJzgnLCAnLW1hJywgJzIwMCcsICctbWV0YWxfYmluZGluZycsICctaW1hZScsICc8aW5maWxlLm1hZT4nLCAnLW9tYWUnLCAnPG91dGZpbGUubWFlPic=

> <r_epik_Ionization_Penalty>
0.0850405

> <r_epik_Ionization_Penalty_Charging>
0.0850403

> <r_epik_Ionization_Penalty_Neutral>
1.47497e-07

> <r_epik_State_Penalty>
2.6133

> <r_epik_Charging_Adjusted_Penalty>
2.69834

> <i_epik_Tot_Q>
0

> <i_epik_Tot_abs_Q>
0

> <r_epik_Metal_State_Penalty>
2.92945

> <b_epik_Metal_Only>
0

> <s_epik_Chemistry_Notes>
This compound contains an acetal/aminal-like group ( X-CH(R)-Y where X, Y are N, S, or O) that may be acid/base labile, releasing an aldehyde.

> <s_lp_Force_Field>
OPLS_2005

> <r_lp_Energy>
50.6146

> <b_lp_Chiralities_Consistent>
1

> <s_lp_Variant>
AV-unprocessed.smi:36-13

> <Gold.Version>
5.8.1

> <Gold.Id.Protein>
6NUR|6NUR_protein|mol2

> <Gold.PLP.Fitness>
57.0705

> <Gold.PLP.PLP>
-54.4347

> <Gold.PLP.part.hbond>
-1.0000

> <Gold.PLP.part.metal>
0.0000

> <Gold.PLP.part.buried>
-5.4131

> <Gold.PLP.part.nonpolar>
-47.6960

> <Gold.PLP.part.repulsive>
0.1189

> <Gold.PLP.ligand.clash>
0.0000

> <Gold.PLP.ligand.torsion>
0.2212

> <Gold.PLP.Chemscore.Hbond>
1.0000

> <Gold.PLP.Chemscore.CHOScore>
0.0000

> <Gold.PLP.Chemscore.Metal>
0.0000

> <Gold.Chemscore.Hbonds>
donor molecule, donor type, donor heavy atom, donor atom, acceptor molecule, acceptor atom, score
      P1  H  7997  8008       L1    20  1.00

> <Gold.PLP.Chemscore.Internal.Correction>
0.0782

> <Gold.Rescore>
     Score         DG    S(hbond)    S(metal)    S(lipo)     H(rot)  DE(clash)    DE(int)     intcor
     16.64     -16.86       1.00        0.00     127.96       2.70       0.02       0.20       ----

> <Gold.Chemscore.Fitness>
16.6399

> <Gold.Chemscore.DG>
-16.8576

> <Gold.Chemscore.ZeroCoef>
-5.4800

> <Gold.Chemscore.Hbond>
0.9968

> <Gold.Chemscore.Metal>
0.0000

> <Gold.Chemscore.Lipo>
127.9555

> <Gold.Chemscore.Internal_Hbond>
0.0000

> <Gold.Chemscore.DEClash>
0.0177

> <Gold.Chemscore.DEInternal>
0.2000

> <Gold.Chemscore.Rot>
2.7041

> <Gold.Chemscore.Internal.Correction>
   9.000000E+99

> <Gold.Chemscore.Hbonds>
donor molecule, donor type, donor heavy atom, donor atom, acceptor molecule, acceptor atom, score
      P1  H  7997  8008       L1    20  1.00

> <Gold.Chemscore.Hbond.Weighted>
-3.3293

> <Gold.Chemscore.Metal.Weighted>
-0.0000

> <Gold.Chemscore.Lipo.Weighted>
-14.9708

> <Gold.Chemscore.Internal_Hbond.Weighted>
0.0000

> <Gold.Chemscore.DEClash.Weighted>
0.0177

> <Gold.Chemscore.DEInternal.Weighted>
0.2000

> <Gold.Chemscore.Rot.Weighted>
6.9225

> <Gold.Chemscore.Internal.Correction.Weighted>
   9.000000E+99

> <Gold.Protein.RotatedTorsions>
[ 6907 6896 6895 6894 ] final   48.91 input  -60.11 | X-H torsion
[ 7974 7965 7964 7962 ] final  -28.69 input  175.53 | X-H torsion
[ 8008 7997 7996 7995 ] final -107.13 input   59.86 | X-H torsion
[ 10167 10162 10161 10158 ] final   47.07 input  -65.29 | X-H torsion
[ 10718 10713 10712 10709 ] final  137.02 input   66.30 | X-H torsion
[ 10763 10752 10751 10750 ] final   96.79 input  -60.55 | X-H torsion
[ 11005 11000 10999 10996 ] final    4.52 input  -57.11 | X-H torsion

> <Gold.Protein.ActiveResidues>
 VAL166  LYS551  ARG553  GLY616  TRP617  ASP618  TYR619  PRO620  LYS621  CYS622 
 ASP623  PHE694  ASN695  SER759  ASP760  ASP761  ALA762  ILE779  LEU786  VAL792 
 PHE793  MET794  SER795  GLU796  ALA797  LYS798  CYS799  TRP800  GLU811  SER814 

> <Gold.Protein.RotatedAtoms>
  152.2848  134.7788  160.0389 H   0  0  0  0  0  0  0  0  0  0  0  0  # atno 6907 bound_to 6896
  151.8355  133.3410  159.3635 H   0  0  0  0  0  0  0  0  0  0  0  0  # atno 6908 bound_to 6896
  150.7205  134.5371  159.5773 H   0  0  0  0  0  0  0  0  0  0  0  0  # atno 6909 bound_to 6896
  146.1270  140.5315  142.8710 H   0  0  0  0  0  0  0  0  0  0  0  0  # atno 7974 bound_to 7965
  154.9248  140.0406  157.2017 H   0  0  0  0  0  0  0  0  0  0  0  0  # atno 8008 bound_to 7997
  154.8219  140.2885  155.5760 H   0  0  0  0  0  0  0  0  0  0  0  0  # atno 8009 bound_to 7997
  156.2980  140.2517  156.3127 H   0  0  0  0  0  0  0  0  0  0  0  0  # atno 8010 bound_to 7997
  140.3074  144.2862  150.6206 H   0  0  0  0  0  0  0  0  0  0  0  0  # atno 10167 bound_to 10162
  157.4406  131.1057  151.0148 H   0  0  0  0  0  0  0  0  0  0  0  0  # atno 10718 bound_to 10713
  153.2692  135.4206  155.0971 H   0  0  0  0  0  0  0  0  0  0  0  0  # atno 10763 bound_to 10752
  154.8449  135.3468  154.6268 H   0  0  0  0  0  0  0  0  0  0  0  0  # atno 10764 bound_to 10752
  153.6688  135.7044  153.5211 H   0  0  0  0  0  0  0  0  0  0  0  0  # atno 10765 bound_to 10752
  140.5810  134.0013  155.8048 H   0  0  0  0  0  0  0  0  0  0  0  0  # atno 11005 bound_to 11000
  144.7652  140.5514  143.6708 LP  0  0  0  0  0  0  0  0  0  0  0  0  # atno 17320 bound_to 7965
  145.5344  139.1475  143.3482 LP  0  0  0  0  0  0  0  0  0  0  0  0  # atno 17321 bound_to 7965
  140.5598  143.2194  151.7784 LP  0  0  0  0  0  0  0  0  0  0  0  0  # atno 17342 bound_to 10162
  139.4901  144.4364  151.9815 LP  0  0  0  0  0  0  0  0  0  0  0  0  # atno 17343 bound_to 10162
  157.1013  130.5983  149.5461 LP  0  0  0  0  0  0  0  0  0  0  0  0  # atno 17370 bound_to 10713
  155.9947  130.5012  150.7430 LP  0  0  0  0  0  0  0  0  0  0  0  0  # atno 17371 bound_to 10713
  141.0996  133.9789  157.3101 LP  0  0  0  0  0  0  0  0  0  0  0  0  # atno 17394 bound_to 11000
  139.9317  135.0199  156.8423 LP  0  0  0  0  0  0  0  0  0  0  0  0  # atno 17395 bound_to 11000

$$$$
