AV-unprocessed.smi:553|AV-procd|sdf|2905|dock3
  -GOLD-   2262023393D 1   1.00000     0.00000
 Structure written by MMmdl.
 43 45  0  0  0  0  0  0  0  0  1 V2000
  146.7442  139.2424  154.3665 O   0  0  0  0  0  0  0  0  0  0  0  0
  147.5175  138.5283  153.7323 C   0  0  0  0  0  0  0  0  0  0  0  0
  148.8590  138.5436  153.8591 N   0  0  0  0  0  0  0  0  0  0  0  0
  149.6685  139.3139  154.7373 C   0  0  0  0  0  0  0  0  0  0  0  0
  151.0835  139.2843  154.7604 C   0  0  0  0  0  0  0  0  0  0  0  0
  151.7664  140.1141  155.6705 C   0  0  0  0  0  0  0  0  0  0  0  0
  151.0187  140.9520  156.5228 C   0  0  0  0  0  0  0  0  0  0  0  0
  151.6957  141.7786  157.4307 N   0  0  0  0  0  0  0  0  0  0  0  0
  151.6773  141.2738  158.7979 C   0  0  0  0  0  0  0  0  0  0  0  0
  152.5483  142.1661  159.6995 C   0  0  0  0  0  0  0  0  0  0  0  0
  152.0994  143.5159  159.6135 O   0  0  0  0  0  0  0  0  0  0  0  0
  152.1873  144.0259  158.2858 C   0  0  0  0  0  0  0  0  0  0  0  0
  151.3059  143.1809  157.3496 C   0  0  0  0  0  0  0  0  0  0  0  0
  149.6656  140.9932  156.4990 N   0  0  0  0  0  0  0  0  0  0  0  0
  149.0171  140.1954  155.6247 C   0  0  0  0  0  0  0  0  0  0  0  0
  147.0619  137.6637  152.8077 N   0  0  0  0  0  0  0  0  0  0  0  0
  145.6758  137.3975  152.4198 C   0  0  1  0  0  0  0  0  0  0  0  0
  145.5960  136.2222  151.4277 C   0  0  0  0  0  0  0  0  0  0  0  0
  144.1360  135.7626  151.3267 C   0  0  0  0  0  0  0  0  0  0  0  0
  143.3839  136.0966  152.9648 S   0  0  0  0  0  0  0  0  0  0  0  0
  142.2362  136.9987  152.7859 O   0  0  0  0  0  0  0  0  0  0  0  0
  143.2497  134.8381  153.7142 O   0  0  0  0  0  0  0  0  0  0  0  0
  144.8021  137.0430  153.6340 C   0  0  0  0  0  0  0  0  0  0  0  0
  149.3664  137.9553  153.2145 H   0  0  0  0  0  0  0  0  0  0  0  0
  151.6595  138.6589  154.0970 H   0  0  0  0  0  0  0  0  0  0  0  0
  152.8461  140.1089  155.7072 H   0  0  0  0  0  0  0  0  0  0  0  0
  150.6526  141.2589  159.1724 H   0  0  0  0  0  0  0  0  0  0  0  0
  152.0445  140.2470  158.8186 H   0  0  0  0  0  0  0  0  0  0  0  0
  152.4807  141.8341  160.7356 H   0  0  0  0  0  0  0  0  0  0  0  0
  153.5989  142.1026  159.4116 H   0  0  0  0  0  0  0  0  0  0  0  0
  151.8551  145.0640  158.2805 H   0  0  0  0  0  0  0  0  0  0  0  0
  153.2262  144.0213  157.9515 H   0  0  0  0  0  0  0  0  0  0  0  0
  151.4037  143.5333  156.3220 H   0  0  0  0  0  0  0  0  0  0  0  0
  150.2576  143.2910  157.6316 H   0  0  0  0  0  0  0  0  0  0  0  0
  147.9388  140.2621  155.6371 H   0  0  0  0  0  0  0  0  0  0  0  0
  147.7638  137.1439  152.3007 H   0  0  0  0  0  0  0  0  0  0  0  0
  145.2518  138.2715  151.9217 H   0  0  0  0  0  0  0  0  0  0  0  0
  145.9992  136.4876  150.4500 H   0  0  0  0  0  0  0  0  0  0  0  0
  146.1960  135.3927  151.8050 H   0  0  0  0  0  0  0  0  0  0  0  0
  143.5966  136.3505  150.5838 H   0  0  0  0  0  0  0  0  0  0  0  0
  144.0379  134.7068  151.0735 H   0  0  0  0  0  0  0  0  0  0  0  0
  145.3366  136.3925  154.3274 H   0  0  0  0  0  0  0  0  0  0  0  0
  144.4457  137.9160  154.1808 H   0  0  0  0  0  0  0  0  0  0  0  0
  1  2  2  0  0  0  0
  2  3  1  0  0  0  0
  2 16  1  0  0  0  0
  3  4  1  0  0  0  0
  3 24  1  0  0  0  0
  4 15  1  0  0  0  0
  4  5  2  0  0  0  0
  5  6  1  0  0  0  0
  5 25  1  0  0  0  0
  6  7  2  0  0  0  0
  6 26  1  0  0  0  0
  7  8  1  0  0  0  0
  7 14  1  0  0  0  0
  8 13  1  0  0  0  0
  8  9  1  0  0  0  0
  9 10  1  0  0  0  0
  9 27  1  0  0  0  0
  9 28  1  0  0  0  0
 10 11  1  0  0  0  0
 10 29  1  0  0  0  0
 10 30  1  0  0  0  0
 11 12  1  0  0  0  0
 12 13  1  0  0  0  0
 12 31  1  0  0  0  0
 12 32  1  0  0  0  0
 13 33  1  0  0  0  0
 13 34  1  0  0  0  0
 14 15  2  0  0  0  0
 15 35  1  0  0  0  0
 16 17  1  0  0  0  0
 16 36  1  0  0  0  0
 17 23  1  0  0  0  0
 17 18  1  0  0  0  0
 17 37  1  0  0  0  0
 18 19  1  0  0  0  0
 18 38  1  0  0  0  0
 18 39  1  0  0  0  0
 19 20  1  0  0  0  0
 19 40  1  0  0  0  0
 19 41  1  0  0  0  0
 20 21  2  0  0  0  0
 20 22  2  0  0  0  0
 20 23  1  0  0  0  0
 23 42  1  0  0  0  0
 23 43  1  0  0  0  0
M  END
> <s_m_source_file>
AV-unprocessed.smi

> <i_m_source_file_index>
553

> <i_lp_mmshare_version>
43012

> <i_f3d_flags>
0

> <s_epik_input>
Tz1TMSg9TylbQ0gyXVtDSDJdW0NASF0oW0NIMl0xKVtOSF1DKD1PKVtOSF1jMltjSF1bY0hdYyhuW2NIXTIpTjNbQ0gyXVtDSDJdT1tDSDJdW0NIMl0z

> <s_epik_cmdline>
J2VwaWtfcHl0aG9uJywgJy1waCcsICc3LjAnLCAnLXRuJywgJzgnLCAnLW1hJywgJzIwMCcsICctbWV0YWxfYmluZGluZycsICctaW1hZScsICc8aW5maWxlLm1hZT4nLCAnLW9tYWUnLCAnPG91dGZpbGUubWFlPic=

> <r_lp_tautomer_probability>
1

> <r_epik_Ionization_Penalty>
0.00171806

> <r_epik_Ionization_Penalty_Charging>
0

> <r_epik_Ionization_Penalty_Neutral>
0.00171806

> <r_epik_State_Penalty>
0.00114322

> <r_epik_Charging_Adjusted_Penalty>
0.00114322

> <i_epik_Tot_Q>
0

> <i_epik_Tot_abs_Q>
0

> <r_epik_Metal_State_Penalty>
-0

> <b_epik_Metal_Only>
0

> <s_lp_Force_Field>
OPLS_2005

> <r_lp_Energy>
34.1165

> <b_lp_Chiralities_Consistent>
1

> <s_lp_Variant>
AV-unprocessed.smi:553-2

> <Gold.Version>
5.8.1

> <Gold.Id.Protein>
6NUR|6NUR_protein|mol2

> <Gold.PLP.Fitness>
38.9368

> <Gold.PLP.PLP>
-35.0757

> <Gold.PLP.part.hbond>
-2.3515

> <Gold.PLP.part.metal>
0.0000

> <Gold.PLP.part.buried>
-2.8192

> <Gold.PLP.part.nonpolar>
-30.9048

> <Gold.PLP.part.repulsive>
0.6172

> <Gold.PLP.ligand.clash>
0.0000

> <Gold.PLP.ligand.torsion>
0.3235

> <Gold.PLP.Chemscore.Hbond>
1.4680

> <Gold.PLP.Chemscore.CHOScore>
0.0000

> <Gold.PLP.Chemscore.Metal>
0.0000

> <Gold.Chemscore.Hbonds>
donor molecule, donor type, donor heavy atom, donor atom, acceptor molecule, acceptor atom, score
      L1  H     3    24       P1  7948  0.46
      L1  H    16    36       P1  7948  1.00

> <Gold.PLP.Chemscore.Internal.Correction>
0.1041

> <Gold.Rescore>
     Score         DG    S(hbond)    S(metal)    S(lipo)     H(rot)  DE(clash)    DE(int)     intcor
     16.20     -18.16       1.74        0.00      86.46       1.27       0.30       1.65       ----

> <Gold.Chemscore.Fitness>
16.2032

> <Gold.Chemscore.DG>
-18.1605

> <Gold.Chemscore.ZeroCoef>
-5.4800

> <Gold.Chemscore.Hbond>
1.7416

> <Gold.Chemscore.Metal>
0.0000

> <Gold.Chemscore.Lipo>
86.4580

> <Gold.Chemscore.Internal_Hbond>
0.0000

> <Gold.Chemscore.DEClash>
0.3042

> <Gold.Chemscore.DEInternal>
1.6531

> <Gold.Chemscore.Rot>
1.2703

> <Gold.Chemscore.Internal.Correction>
   9.000000E+99

> <Gold.Chemscore.Hbonds>
donor molecule, donor type, donor heavy atom, donor atom, acceptor molecule, acceptor atom, score
      L1  H     3    24       P1  7948  0.44
      L1  H    16    36       P1  7948  0.95

> <Gold.Chemscore.Hbond.Weighted>
-5.8169

> <Gold.Chemscore.Metal.Weighted>
-0.0000

> <Gold.Chemscore.Lipo.Weighted>
-10.1156

> <Gold.Chemscore.Internal_Hbond.Weighted>
0.0000

> <Gold.Chemscore.DEClash.Weighted>
0.3042

> <Gold.Chemscore.DEInternal.Weighted>
1.6531

> <Gold.Chemscore.Rot.Weighted>
3.2520

> <Gold.Chemscore.Internal.Correction.Weighted>
   9.000000E+99

> <Gold.Protein.RotatedTorsions>
[ 6907 6896 6895 6894 ] final  -97.93 input  -60.11 | X-H torsion
[ 7974 7965 7964 7962 ] final -158.99 input  175.53 | X-H torsion
[ 8008 7997 7996 7995 ] final   91.29 input   59.86 | X-H torsion
[ 10167 10162 10161 10158 ] final  -80.08 input  -65.29 | X-H torsion
[ 10718 10713 10712 10709 ] final  -64.63 input   66.30 | X-H torsion
[ 10763 10752 10751 10750 ] final  -73.31 input  -60.55 | X-H torsion
[ 11005 11000 10999 10996 ] final   49.58 input  -57.11 | X-H torsion

> <Gold.Protein.ActiveResidues>
 VAL166  LYS551  ARG553  GLY616  TRP617  ASP618  TYR619  PRO620  LYS621  CYS622 
 ASP623  PHE694  ASN695  SER759  ASP760  ASP761  ALA762  ILE779  LEU786  VAL792 
 PHE793  MET794  SER795  GLU796  ALA797  LYS798  CYS799  TRP800  GLU811  SER814 

> <Gold.Protein.RotatedAtoms>
  150.7031  134.1273  159.4056 H   0  0  0  0  0  0  0  0  0  0  0  0  # atno 6907 bound_to 6896
  151.9259  135.0275  160.0535 H   0  0  0  0  0  0  0  0  0  0  0  0  # atno 6908 bound_to 6896
  152.2217  133.4953  159.5203 H   0  0  0  0  0  0  0  0  0  0  0  0  # atno 6909 bound_to 6896
  144.7483  140.3748  143.6068 H   0  0  0  0  0  0  0  0  0  0  0  0  # atno 7974 bound_to 7965
  156.0220  140.3339  155.7049 H   0  0  0  0  0  0  0  0  0  0  0  0  # atno 8008 bound_to 7997
  155.6009  140.0655  157.2751 H   0  0  0  0  0  0  0  0  0  0  0  0  # atno 8009 bound_to 7997
  154.4319  140.1810  156.1160 H   0  0  0  0  0  0  0  0  0  0  0  0  # atno 8010 bound_to 7997
  140.4535  143.2475  151.8453 H   0  0  0  0  0  0  0  0  0  0  0  0  # atno 10167 bound_to 10162
  156.0717  130.4236  150.1448 H   0  0  0  0  0  0  0  0  0  0  0  0  # atno 10718 bound_to 10713
  154.4577  135.5901  153.6234 H   0  0  0  0  0  0  0  0  0  0  0  0  # atno 10763 bound_to 10752
  152.9820  135.6036  154.3525 H   0  0  0  0  0  0  0  0  0  0  0  0  # atno 10764 bound_to 10752
  154.3393  135.2842  155.2410 H   0  0  0  0  0  0  0  0  0  0  0  0  # atno 10765 bound_to 10752
  140.1091  134.4978  155.8693 H   0  0  0  0  0  0  0  0  0  0  0  0  # atno 11005 bound_to 11000
  145.7039  139.1668  143.2577 LP  0  0  0  0  0  0  0  0  0  0  0  0  # atno 17320 bound_to 7965
  146.1396  140.7076  142.9373 LP  0  0  0  0  0  0  0  0  0  0  0  0  # atno 17321 bound_to 7965
  139.4799  144.5092  151.8956 LP  0  0  0  0  0  0  0  0  0  0  0  0  # atno 17342 bound_to 10162
  140.4178  144.2283  150.5887 LP  0  0  0  0  0  0  0  0  0  0  0  0  # atno 17343 bound_to 10162
  156.9497  130.9771  151.3500 LP  0  0  0  0  0  0  0  0  0  0  0  0  # atno 17370 bound_to 10713
  157.5792  130.8364  149.8498 LP  0  0  0  0  0  0  0  0  0  0  0  0  # atno 17371 bound_to 10713
  141.2126  133.6721  156.6670 LP  0  0  0  0  0  0  0  0  0  0  0  0  # atno 17394 bound_to 11000
  140.3115  134.8082  157.4180 LP  0  0  0  0  0  0  0  0  0  0  0  0  # atno 17395 bound_to 11000

$$$$
