AV-unprocessed.smi:2454|AV-procd|sdf|9696|dock2
  -GOLD-   2272013333D 1   1.00000     0.00000
 Structure written by MMmdl.
 42 43  0  0  0  0  0  0  0  0  1 V2000
  150.6106  141.4673  156.8482 C   0  0  0  0  0  0  0  0  0  0  0  0
  151.2482  140.9502  155.6936 O   0  0  0  0  0  0  0  0  0  0  0  0
  150.5385  139.8649  155.1208 C   0  0  0  0  0  0  0  0  0  0  0  0
  149.2287  140.3224  154.5131 C   0  0  0  0  0  0  0  0  0  0  0  0
  148.4083  139.4332  153.7873 C   0  0  0  0  0  0  0  0  0  0  0  0
  147.2085  139.9493  153.2475 C   0  0  0  0  0  0  0  0  0  0  0  0
  146.4154  139.0087  152.5266 N   0  0  0  0  0  0  0  0  0  0  0  0
  146.1348  137.7088  152.7612 C   0  0  0  0  0  0  0  0  0  0  0  0
  146.5953  137.1314  153.7447 O   0  0  0  0  0  0  0  0  0  0  0  0
  145.3380  137.1034  151.8651 N   0  0  0  0  0  0  0  0  0  0  0  0
  144.8992  135.7116  151.8956 C   0  0  1  0  0  0  0  0  0  0  0  0
  144.4099  135.2928  150.4979 C   0  0  0  0  0  0  0  0  0  0  0  0
  144.0250  133.8065  150.4652 C   0  0  0  0  0  0  0  0  0  0  0  0
  145.1885  132.9183  150.9333 C   0  0  0  0  0  0  0  0  0  0  0  0
  145.6802  133.3187  152.3406 C   0  0  1  0  0  0  0  0  0  0  0  0
  146.8375  132.4217  152.8264 C   0  0  0  0  0  0  0  0  0  0  0  0
  147.0431  132.5785  154.1344 F   0  0  0  0  0  0  0  0  0  0  0  0
  146.5559  131.1413  152.5847 F   0  0  0  0  0  0  0  0  0  0  0  0
  147.9587  132.7300  152.1745 F   0  0  0  0  0  0  0  0  0  0  0  0
  146.0604  134.8148  152.3641 C   0  0  0  0  0  0  0  0  0  0  0  0
  146.8927  141.2556  153.4417 N   0  0  0  0  0  0  0  0  0  0  0  0
  147.7410  142.0113  154.1430 C   0  0  0  0  0  0  0  0  0  0  0  0
  148.8915  141.6175  154.6896 N   0  0  0  0  0  0  0  0  0  0  0  0
  151.1897  142.3015  157.2442 H   0  0  0  0  0  0  0  0  0  0  0  0
  150.5348  140.7100  157.6294 H   0  0  0  0  0  0  0  0  0  0  0  0
  149.6095  141.8331  156.6161 H   0  0  0  0  0  0  0  0  0  0  0  0
  151.1436  139.3918  154.3458 H   0  0  0  0  0  0  0  0  0  0  0  0
  150.3398  139.1052  155.8793 H   0  0  0  0  0  0  0  0  0  0  0  0
  148.6927  138.4000  153.6498 H   0  0  0  0  0  0  0  0  0  0  0  0
  145.9904  139.3803  151.6897 H   0  0  0  0  0  0  0  0  0  0  0  0
  145.0081  137.6618  151.0901 H   0  0  0  0  0  0  0  0  0  0  0  0
  144.0717  135.5887  152.5968 H   0  0  0  0  0  0  0  0  0  0  0  0
  143.5543  135.9014  150.2023 H   0  0  0  0  0  0  0  0  0  0  0  0
  145.1917  135.4794  149.7600 H   0  0  0  0  0  0  0  0  0  0  0  0
  143.1571  133.6394  151.1045 H   0  0  0  0  0  0  0  0  0  0  0  0
  143.7243  133.5237  149.4560 H   0  0  0  0  0  0  0  0  0  0  0  0
  144.8704  131.8755  150.9289 H   0  0  0  0  0  0  0  0  0  0  0  0
  146.0100  132.9921  150.2197 H   0  0  0  0  0  0  0  0  0  0  0  0
  144.8488  133.1789  153.0334 H   0  0  0  0  0  0  0  0  0  0  0  0
  146.9311  134.9801  151.7277 H   0  0  0  0  0  0  0  0  0  0  0  0
  146.3581  135.1054  153.3724 H   0  0  0  0  0  0  0  0  0  0  0  0
  147.4666  143.0464  154.2821 H   0  0  0  0  0  0  0  0  0  0  0  0
  1  2  1  0  0  0  0
  1 24  1  0  0  0  0
  1 25  1  0  0  0  0
  1 26  1  0  0  0  0
  2  3  1  0  0  0  0
  3  4  1  0  0  0  0
  3 27  1  0  0  0  0
  3 28  1  0  0  0  0
  4 23  1  0  0  0  0
  4  5  2  0  0  0  0
  5  6  1  0  0  0  0
  5 29  1  0  0  0  0
  6  7  1  0  0  0  0
  6 21  2  0  0  0  0
  7  8  1  0  0  0  0
  7 30  1  0  0  0  0
  8  9  2  0  0  0  0
  8 10  1  0  0  0  0
 10 11  1  0  0  0  0
 10 31  1  0  0  0  0
 11 20  1  0  0  0  0
 11 12  1  0  0  0  0
 11 32  1  0  0  0  0
 12 13  1  0  0  0  0
 12 33  1  0  0  0  0
 12 34  1  0  0  0  0
 13 14  1  0  0  0  0
 13 35  1  0  0  0  0
 13 36  1  0  0  0  0
 14 15  1  0  0  0  0
 14 37  1  0  0  0  0
 14 38  1  0  0  0  0
 15 16  1  0  0  0  0
 15 20  1  0  0  0  0
 15 39  1  0  0  0  0
 16 17  1  0  0  0  0
 16 18  1  0  0  0  0
 16 19  1  0  0  0  0
 20 40  1  0  0  0  0
 20 41  1  0  0  0  0
 21 22  1  0  0  0  0
 22 23  2  0  0  0  0
 22 42  1  0  0  0  0
M  END
> <s_m_source_file>
AV-unprocessed.smi

> <i_m_source_file_index>
2454

> <i_lp_mmshare_version>
43012

> <i_f3d_flags>
0

> <s_epik_input>
W0NIM11PW0NIMl1jMVtjSF1jKG5bY0hdbjEpW05IXUMoPU8pW05IXVtDQEBIXTJbQ0gyXVtDSDJdW0NIMl1bQ0BASF0oQyhGKShGKUYpW0NIMl0y

> <s_epik_cmdline>
J2VwaWtfcHl0aG9uJywgJy1waCcsICc3LjAnLCAnLXRuJywgJzgnLCAnLW1hJywgJzIwMCcsICctbWV0YWxfYmluZGluZycsICctaW1hZScsICc8aW5maWxlLm1hZT4nLCAnLW9tYWUnLCAnPG91dGZpbGUubWFlPic=

> <r_lp_tautomer_probability>
1

> <r_epik_Ionization_Penalty>
3.01554e-05

> <r_epik_Ionization_Penalty_Charging>
0

> <r_epik_Ionization_Penalty_Neutral>
3.01554e-05

> <r_epik_State_Penalty>
-0

> <r_epik_Charging_Adjusted_Penalty>
0

> <i_epik_Tot_Q>
0

> <i_epik_Tot_abs_Q>
0

> <r_epik_Metal_State_Penalty>
-0

> <b_epik_Metal_Only>
0

> <s_lp_Force_Field>
OPLS_2005

> <r_lp_Energy>
13.6068

> <b_lp_Chiralities_Consistent>
1

> <s_lp_Variant>
AV-unprocessed.smi:2454-2

> <Gold.Version>
5.8.1

> <Gold.Id.Protein>
6NUR|6NUR_protein|mol2

> <Gold.PLP.Fitness>
39.9020

> <Gold.PLP.PLP>
-35.9507

> <Gold.PLP.part.hbond>
-2.8535

> <Gold.PLP.part.metal>
0.0000

> <Gold.PLP.part.buried>
0.7128

> <Gold.PLP.part.nonpolar>
-34.0684

> <Gold.PLP.part.repulsive>
0.5562

> <Gold.PLP.ligand.clash>
0.0216

> <Gold.PLP.ligand.torsion>
0.8425

> <Gold.PLP.Chemscore.Hbond>
1.0000

> <Gold.PLP.Chemscore.CHOScore>
0.8722

> <Gold.PLP.Chemscore.Metal>
0.0000

> <Gold.Chemscore.Hbonds>
donor molecule, donor type, donor heavy atom, donor atom, acceptor molecule, acceptor atom, score
      L1  H    10    31       P1 10171  1.00
      L1  C    22    42       P1  8028  0.87

> <Gold.PLP.Chemscore.Internal.Correction>
0.0413

> <Gold.Rescore>
     Score         DG    S(hbond)    S(metal)    S(lipo)     H(rot)  DE(clash)    DE(int)     intcor
      6.84     -12.09       0.99        0.00      63.32       1.60       0.20       5.05       ----

> <Gold.Chemscore.Fitness>
6.8448

> <Gold.Chemscore.DG>
-12.0892

> <Gold.Chemscore.ZeroCoef>
-5.4800

> <Gold.Chemscore.Hbond>
0.9896

> <Gold.Chemscore.Metal>
0.0000

> <Gold.Chemscore.Lipo>
63.3237

> <Gold.Chemscore.Internal_Hbond>
0.0000

> <Gold.Chemscore.DEClash>
0.1983

> <Gold.Chemscore.DEInternal>
5.0461

> <Gold.Chemscore.Rot>
1.6035

> <Gold.Chemscore.Internal.Correction>
   9.000000E+99

> <Gold.Chemscore.Hbonds>
donor molecule, donor type, donor heavy atom, donor atom, acceptor molecule, acceptor atom, score
      L1  H    10    31       P1 10171  0.99

> <Gold.Chemscore.Hbond.Weighted>
-3.3053

> <Gold.Chemscore.Metal.Weighted>
-0.0000

> <Gold.Chemscore.Lipo.Weighted>
-7.4089

> <Gold.Chemscore.Internal_Hbond.Weighted>
0.0000

> <Gold.Chemscore.DEClash.Weighted>
0.1983

> <Gold.Chemscore.DEInternal.Weighted>
5.0461

> <Gold.Chemscore.Rot.Weighted>
4.1050

> <Gold.Chemscore.Internal.Correction.Weighted>
   9.000000E+99

> <Gold.Protein.RotatedTorsions>
[ 6907 6896 6895 6894 ] final  -55.86 input  -60.11 | X-H torsion
[ 7974 7965 7964 7962 ] final  105.65 input  175.53 | X-H torsion
[ 8008 7997 7996 7995 ] final  170.20 input   59.86 | X-H torsion
[ 10167 10162 10161 10158 ] final  119.33 input  -65.29 | X-H torsion
[ 10718 10713 10712 10709 ] final  117.76 input   66.30 | X-H torsion
[ 10763 10752 10751 10750 ] final  -77.53 input  -60.55 | X-H torsion
[ 11005 11000 10999 10996 ] final   12.89 input  -57.11 | X-H torsion

> <Gold.Protein.ActiveResidues>
 VAL166  LYS551  ARG553  GLY616  TRP617  ASP618  TYR619  PRO620  LYS621  CYS622 
 ASP623  PHE694  ASN695  SER759  ASP760  ASP761  ALA762  ILE779  LEU786  VAL792 
 PHE793  MET794  SER795  GLU796  ALA797  LYS798  CYS799  TRP800  GLU811  SER814 

> <Gold.Protein.RotatedAtoms>
  150.8216  134.7427  159.6776 H   0  0  0  0  0  0  0  0  0  0  0  0  # atno 6907 bound_to 6896
  152.4331  134.5736  159.9938 H   0  0  0  0  0  0  0  0  0  0  0  0  # atno 6908 bound_to 6896
  151.5918  133.3328  159.3065 H   0  0  0  0  0  0  0  0  0  0  0  0  # atno 6909 bound_to 6896
  145.3169  139.2524  143.3733 H   0  0  0  0  0  0  0  0  0  0  0  0  # atno 7974 bound_to 7965
  156.1387  140.1544  156.8954 H   0  0  0  0  0  0  0  0  0  0  0  0  # atno 8008 bound_to 7997
  154.4969  140.0836  156.7754 H   0  0  0  0  0  0  0  0  0  0  0  0  # atno 8009 bound_to 7997
  155.4120  140.3419  155.4266 H   0  0  0  0  0  0  0  0  0  0  0  0  # atno 8010 bound_to 7997
  139.6053  144.7068  151.2967 H   0  0  0  0  0  0  0  0  0  0  0  0  # atno 10167 bound_to 10162
  157.6075  131.1041  150.7660 H   0  0  0  0  0  0  0  0  0  0  0  0  # atno 10718 bound_to 10713
  154.5141  135.5761  153.6628 H   0  0  0  0  0  0  0  0  0  0  0  0  # atno 10763 bound_to 10752
  152.9903  135.6166  154.2840 H   0  0  0  0  0  0  0  0  0  0  0  0  # atno 10764 bound_to 10752
  154.2756  135.2852  155.2699 H   0  0  0  0  0  0  0  0  0  0  0  0  # atno 10765 bound_to 10752
  140.4869  134.0879  155.7763 H   0  0  0  0  0  0  0  0  0  0  0  0  # atno 11005 bound_to 11000
  146.3097  140.3718  142.8675 LP  0  0  0  0  0  0  0  0  0  0  0  0  # atno 17320 bound_to 7965
  144.8970  140.7596  143.5890 LP  0  0  0  0  0  0  0  0  0  0  0  0  # atno 17321 bound_to 7965
  140.7280  143.6947  150.7893 LP  0  0  0  0  0  0  0  0  0  0  0  0  # atno 17342 bound_to 10162
  140.0531  143.5229  152.2664 LP  0  0  0  0  0  0  0  0  0  0  0  0  # atno 17343 bound_to 10162
  156.8045  130.4932  149.5365 LP  0  0  0  0  0  0  0  0  0  0  0  0  # atno 17370 bound_to 10713
  156.1167  130.6080  151.0131 LP  0  0  0  0  0  0  0  0  0  0  0  0  # atno 17371 bound_to 10713
  141.1503  133.8980  157.2113 LP  0  0  0  0  0  0  0  0  0  0  0  0  # atno 17394 bound_to 11000
  139.9792  135.0104  156.9708 LP  0  0  0  0  0  0  0  0  0  0  0  0  # atno 17395 bound_to 11000

$$$$
