AV-unprocessed.smi:1554|AV-procd|sdf|6257|dock2
  -GOLD-   22720 6443D 1   1.00000     0.00000
 Structure written by MMmdl.
 49 51  0  0  0  0  0  0  0  0  3 V2000
  152.1698  144.4393  160.5218 C   0  0  0  0  0  0  0  0  0  0  0  0
  151.9809  143.3651  159.4642 C   0  0  0  0  0  0  0  0  0  0  0  0
  151.1394  143.6426  158.3636 C   0  0  0  0  0  0  0  0  0  0  0  0
  150.9891  142.6412  157.4116 C   0  0  0  0  0  0  0  0  0  0  0  0
  150.2431  142.6074  156.2320 N   0  3  0  0  0  0  0  0  0  0  0  0
  150.4119  141.4019  155.6218 C   0  0  0  0  0  0  0  0  0  0  0  0
  151.2554  140.6640  156.3943 N   0  0  0  0  0  0  0  0  0  0  0  0
  151.7600  139.2980  156.1891 C   0  0  0  0  0  0  0  0  0  0  0  0
  150.6336  138.2483  156.1065 C   0  0  1  0  0  0  0  0  0  0  0  0
  149.5818  138.6070  156.9825 O   0  0  0  0  0  0  0  0  0  0  0  0
  150.0678  138.1280  154.6772 C   0  0  0  0  0  0  0  0  0  0  0  0
  149.4881  136.7883  154.4006 N   0  3  1  0  0  0  0  0  0  0  0  0
  150.3974  135.6853  154.7922 C   0  0  0  0  0  0  0  0  0  0  0  0
  149.7797  134.3251  154.4292 C   0  0  0  0  0  0  0  0  0  0  0  0
  148.5088  134.1975  155.0546 O   0  0  0  0  0  0  0  0  0  0  0  0
  147.5914  135.1956  154.6211 C   0  0  1  0  0  0  0  0  0  0  0  0
  146.2347  134.9171  155.2775 C   0  0  0  0  0  0  0  0  0  0  0  0
  148.1439  136.5848  154.9960 C   0  0  0  0  0  0  0  0  0  0  0  0
  151.6398  141.3968  157.5245 C   0  0  0  0  0  0  0  0  0  0  0  0
  152.4710  141.1072  158.6044 C   0  0  0  0  0  0  0  0  0  0  0  0
  152.6373  142.1127  159.5835 C   0  0  0  0  0  0  0  0  0  0  0  0
  153.5395  141.8246  160.7715 C   0  0  0  0  0  0  0  0  0  0  0  0
  151.6137  145.3442  160.2754 H   0  0  0  0  0  0  0  0  0  0  0  0
  153.2225  144.7096  160.6099 H   0  0  0  0  0  0  0  0  0  0  0  0
  151.8196  144.0868  161.4921 H   0  0  0  0  0  0  0  0  0  0  0  0
  150.6360  144.5936  158.2665 H   0  0  0  0  0  0  0  0  0  0  0  0
  149.9577  141.0887  154.6928 H   0  0  0  0  0  0  0  0  0  0  0  0
  152.3934  139.2750  155.3020 H   0  0  0  0  0  0  0  0  0  0  0  0
  152.4128  139.0717  157.0331 H   0  0  0  0  0  0  0  0  0  0  0  0
  151.0347  137.2907  156.4372 H   0  0  0  0  0  0  0  0  0  0  0  0
  149.9340  139.1449  157.6752 H   0  0  0  0  0  0  0  0  0  0  0  0
  149.3022  138.8942  154.5431 H   0  0  0  0  0  0  0  0  0  0  0  0
  150.8417  138.3423  153.9385 H   0  0  0  0  0  0  0  0  0  0  0  0
  151.3571  135.7966  154.2860 H   0  0  0  0  0  0  0  0  0  0  0  0
  150.5914  135.7342  155.8649 H   0  0  0  0  0  0  0  0  0  0  0  0
  149.6805  134.2169  153.3480 H   0  0  0  0  0  0  0  0  0  0  0  0
  150.4250  133.5160  154.7717 H   0  0  0  0  0  0  0  0  0  0  0  0
  147.4727  135.1272  153.5382 H   0  0  0  0  0  0  0  0  0  0  0  0
  145.4890  135.6485  154.9645 H   0  0  0  0  0  0  0  0  0  0  0  0
  146.3058  134.9557  156.3650 H   0  0  0  0  0  0  0  0  0  0  0  0
  145.8648  133.9289  155.0034 H   0  0  0  0  0  0  0  0  0  0  0  0
  148.2074  136.6826  156.0811 H   0  0  0  0  0  0  0  0  0  0  0  0
  147.4540  137.3523  154.6472 H   0  0  0  0  0  0  0  0  0  0  0  0
  152.9748  140.1570  158.6969 H   0  0  0  0  0  0  0  0  0  0  0  0
  153.9385  140.8105  160.7332 H   0  0  0  0  0  0  0  0  0  0  0  0
  152.9887  141.9291  161.7066 H   0  0  0  0  0  0  0  0  0  0  0  0
  154.3834  142.5147  160.7866 H   0  0  0  0  0  0  0  0  0  0  0  0
  149.3817  136.7243  153.3979 H   0  0  0  0  0  0  0  0  0  0  0  0
  149.6605  143.3508  155.8682 H   0  0  0  0  0  0  0  0  0  0  0  0
  1  2  1  0  0  0  0
  1 23  1  0  0  0  0
  1 24  1  0  0  0  0
  1 25  1  0  0  0  0
  2 21  1  0  0  0  0
  2  3  2  0  0  0  0
  3  4  1  0  0  0  0
  3 26  1  0  0  0  0
  4 19  2  0  0  0  0
  4  5  1  0  0  0  0
  5  6  2  0  0  0  0
  5 49  1  0  0  0  0
  6  7  1  0  0  0  0
  6 27  1  0  0  0  0
  7  8  1  0  0  0  0
  7 19  1  0  0  0  0
  8  9  1  0  0  0  0
  8 28  1  0  0  0  0
  8 29  1  0  0  0  0
  9 10  1  0  0  0  0
  9 11  1  0  0  0  0
  9 30  1  0  0  0  0
 10 31  1  0  0  0  0
 11 12  1  0  0  0  0
 11 32  1  0  0  0  0
 11 33  1  0  0  0  0
 12 18  1  0  0  0  0
 12 13  1  0  0  0  0
 12 48  1  0  0  0  0
 13 14  1  0  0  0  0
 13 34  1  0  0  0  0
 13 35  1  0  0  0  0
 14 15  1  0  0  0  0
 14 36  1  0  0  0  0
 14 37  1  0  0  0  0
 15 16  1  0  0  0  0
 16 17  1  0  0  0  0
 16 18  1  0  0  0  0
 16 38  1  0  0  0  0
 17 39  1  0  0  0  0
 17 40  1  0  0  0  0
 17 41  1  0  0  0  0
 18 42  1  0  0  0  0
 18 43  1  0  0  0  0
 19 20  1  0  0  0  0
 20 21  2  0  0  0  0
 20 44  1  0  0  0  0
 21 22  1  0  0  0  0
 22 45  1  0  0  0  0
 22 46  1  0  0  0  0
 22 47  1  0  0  0  0
M  CHG  1   5   1
M  CHG  1  12   1
M  END
> <s_m_source_file>
AV-unprocessed.smi

> <i_m_source_file_index>
1554

> <i_lp_mmshare_version>
43012

> <i_f3d_flags>
0

> <s_epik_input>
W0NIM11jKFtjSF0xKWMoW0NIM10pW2NIXWMoYzEyKW4oW2NIXW4yKVtDSDJdW0NASF0oW09IXSlbQ0gyXU4zW0NIMl1bQ0gyXU9bQ0BASF0oW0NIM10pW0NIMl0z

> <s_epik_cmdline>
J2VwaWtfcHl0aG9uJywgJy1waCcsICc3LjAnLCAnLXRuJywgJzgnLCAnLW1hJywgJzIwMCcsICctbWV0YWxfYmluZGluZycsICctaW1hZScsICc8aW5maWxlLm1hZT4nLCAnLW9tYWUnLCAnPG91dGZpbGUubWFlPic=

> <r_epik_Ionization_Penalty>
1.8848

> <r_epik_Ionization_Penalty_Charging>
1.88479

> <r_epik_Ionization_Penalty_Neutral>
1.42224e-05

> <r_epik_State_Penalty>
1.94551

> <r_epik_Charging_Adjusted_Penalty>
3.8303

> <i_epik_Tot_Q>
2

> <i_epik_Tot_abs_Q>
2

> <r_epik_Metal_State_Penalty>
5.95849

> <b_epik_Metal_Only>
0

> <s_lp_Force_Field>
OPLS_2005

> <r_lp_Energy>
30.3036

> <b_lp_Chiralities_Consistent>
1

> <s_lp_Variant>
AV-unprocessed.smi:1554-18

> <Gold.Version>
5.8.1

> <Gold.Id.Protein>
6NUR|6NUR_protein|mol2

> <Gold.PLP.Fitness>
51.6740

> <Gold.PLP.PLP>
-40.9836

> <Gold.PLP.part.hbond>
-2.0000

> <Gold.PLP.part.metal>
0.0000

> <Gold.PLP.part.buried>
-5.1641

> <Gold.PLP.part.nonpolar>
-33.7138

> <Gold.PLP.part.repulsive>
0.1913

> <Gold.PLP.ligand.clash>
0.0000

> <Gold.PLP.ligand.torsion>
0.6816

> <Gold.PLP.Chemscore.Hbond>
4.0000

> <Gold.PLP.Chemscore.CHOScore>
0.0000

> <Gold.PLP.Chemscore.Metal>
0.0000

> <Gold.Chemscore.Hbonds>
donor molecule, donor type, donor heavy atom, donor atom, acceptor molecule, acceptor atom, score
      L1  H     5    49       P1  8028  2.00
      L1  H    12    48       P1  7948  2.00

> <Gold.PLP.Chemscore.Internal.Correction>
0.0535

> <Gold.Rescore>
     Score         DG    S(hbond)    S(metal)    S(lipo)     H(rot)  DE(clash)    DE(int)     intcor
     18.96     -19.63       1.99        0.00     110.37       2.11       0.02       0.64       ----

> <Gold.Chemscore.Fitness>
18.9627

> <Gold.Chemscore.DG>
-19.6255

> <Gold.Chemscore.ZeroCoef>
-5.4800

> <Gold.Chemscore.Hbond>
1.9878

> <Gold.Chemscore.Metal>
0.0000

> <Gold.Chemscore.Lipo>
110.3710

> <Gold.Chemscore.Internal_Hbond>
0.0000

> <Gold.Chemscore.DEClash>
0.0201

> <Gold.Chemscore.DEInternal>
0.6427

> <Gold.Chemscore.Rot>
2.1122

> <Gold.Chemscore.Internal.Correction>
   9.000000E+99

> <Gold.Chemscore.Hbonds>
donor molecule, donor type, donor heavy atom, donor atom, acceptor molecule, acceptor atom, score
      L1  H     5    49       P1  8028  0.98
      L1  H    12    48       P1  7948  0.90

> <Gold.Chemscore.Hbond.Weighted>
-6.6393

> <Gold.Chemscore.Metal.Weighted>
-0.0000

> <Gold.Chemscore.Lipo.Weighted>
-12.9134

> <Gold.Chemscore.Internal_Hbond.Weighted>
0.0000

> <Gold.Chemscore.DEClash.Weighted>
0.0201

> <Gold.Chemscore.DEInternal.Weighted>
0.6427

> <Gold.Chemscore.Rot.Weighted>
5.4073

> <Gold.Chemscore.Internal.Correction.Weighted>
   9.000000E+99

> <Gold.Protein.RotatedTorsions>
[ 6907 6896 6895 6894 ] final   97.78 input  -60.11 | X-H torsion
[ 7974 7965 7964 7962 ] final  -62.74 input  175.53 | X-H torsion
[ 8008 7997 7996 7995 ] final   45.72 input   59.86 | X-H torsion
[ 10167 10162 10161 10158 ] final  170.58 input  -65.29 | X-H torsion
[ 10718 10713 10712 10709 ] final -118.44 input   66.30 | X-H torsion
[ 10763 10752 10751 10750 ] final  -40.14 input  -60.55 | X-H torsion
[ 11005 11000 10999 10996 ] final   60.77 input  -57.11 | X-H torsion

> <Gold.Protein.ActiveResidues>
 VAL166  LYS551  ARG553  GLY616  TRP617  ASP618  TYR619  PRO620  LYS621  CYS622 
 ASP623  PHE694  ASN695  SER759  ASP760  ASP761  ALA762  ILE779  LEU786  VAL792 
 PHE793  MET794  SER795  GLU796  ALA797  LYS798  CYS799  TRP800  GLU811  SER814 

> <Gold.Protein.RotatedAtoms>
  152.5419  134.0680  159.8181 H   0  0  0  0  0  0  0  0  0  0  0  0  # atno 6907 bound_to 6896
  151.0799  133.5391  159.2628 H   0  0  0  0  0  0  0  0  0  0  0  0  # atno 6908 bound_to 6896
  151.2222  135.0531  159.9008 H   0  0  0  0  0  0  0  0  0  0  0  0  # atno 6909 bound_to 6896
  145.7877  140.8727  143.0297 H   0  0  0  0  0  0  0  0  0  0  0  0  # atno 7974 bound_to 7965
  155.3406  140.3408  155.4239 H   0  0  0  0  0  0  0  0  0  0  0  0  # atno 8008 bound_to 7997
  156.1815  140.1665  156.8301 H   0  0  0  0  0  0  0  0  0  0  0  0  # atno 8009 bound_to 7997
  154.5339  140.0739  156.8376 H   0  0  0  0  0  0  0  0  0  0  0  0  # atno 8010 bound_to 7997
  139.5022  144.3581  151.9854 H   0  0  0  0  0  0  0  0  0  0  0  0  # atno 10167 bound_to 10162
  156.1107  130.6246  150.9291 H   0  0  0  0  0  0  0  0  0  0  0  0  # atno 10718 bound_to 10713
  153.9411  135.6761  153.4744 H   0  0  0  0  0  0  0  0  0  0  0  0  # atno 10763 bound_to 10752
  153.0931  135.4864  154.8725 H   0  0  0  0  0  0  0  0  0  0  0  0  # atno 10764 bound_to 10752
  154.7377  135.3153  154.8741 H   0  0  0  0  0  0  0  0  0  0  0  0  # atno 10765 bound_to 10752
  140.0208  134.6156  155.9642 H   0  0  0  0  0  0  0  0  0  0  0  0  # atno 11005 bound_to 11000
  144.6786  140.0078  143.7484 LP  0  0  0  0  0  0  0  0  0  0  0  0  # atno 17320 bound_to 7965
  146.0009  139.3090  143.0928 LP  0  0  0  0  0  0  0  0  0  0  0  0  # atno 17321 bound_to 7965
  140.3017  144.3639  150.6058 LP  0  0  0  0  0  0  0  0  0  0  0  0  # atno 17342 bound_to 10162
  140.5868  143.2169  151.7327 LP  0  0  0  0  0  0  0  0  0  0  0  0  # atno 17343 bound_to 10162
  157.6287  131.0923  150.8483 LP  0  0  0  0  0  0  0  0  0  0  0  0  # atno 17370 bound_to 10713
  156.8594  130.5108  149.5305 LP  0  0  0  0  0  0  0  0  0  0  0  0  # atno 17371 bound_to 10713
  141.1772  133.6542  156.4877 LP  0  0  0  0  0  0  0  0  0  0  0  0  # atno 17394 bound_to 11000
  140.4390  134.7032  157.4982 LP  0  0  0  0  0  0  0  0  0  0  0  0  # atno 17395 bound_to 11000

$$$$
