AV-unprocessed.smi:2962|AV-procd|sdf|11316|dock10
  -GOLD-   2272016223D 1   1.00000     0.00000
 Structure written by MMmdl.
 36 37  0  0  0  0  0  0  0  0  1 V2000
  147.7149  141.9296  154.0907 C   0  0  0  0  0  0  0  0  0  0  0  0
  147.8269  140.9239  155.0816 O   0  0  0  0  0  0  0  0  0  0  0  0
  149.1615  140.4772  155.2557 C   0  0  0  0  0  0  0  0  0  0  0  0
  150.0682  141.6691  155.5907 C   0  0  0  0  0  0  0  0  0  0  0  0
  151.0693  141.3283  156.5916 N   0  0  0  0  0  0  0  0  0  0  0  0
  151.9014  140.2572  156.6232 C   0  0  0  0  0  0  0  0  0  0  0  0
  151.9077  139.0260  155.3629 S   0  0  0  0  0  0  0  0  0  0  0  0
  151.1780  137.6591  156.3158 C   0  0  1  0  0  0  0  0  0  0  0  0
  150.0069  138.1454  157.1891 C   0  0  0  0  0  0  0  0  0  0  0  0
  150.7764  136.5034  155.3915 C   0  0  0  0  0  0  0  0  0  0  0  0
  149.8925  136.7817  154.4293 N   0  0  0  0  0  0  0  0  0  0  0  0
  151.2486  135.3767  155.5353 O   0  0  0  0  0  0  0  0  0  0  0  0
  152.7127  140.1860  157.6782 N   0  0  0  0  0  0  0  0  0  0  0  0
  152.3815  141.3187  158.3951 C   0  0  0  0  0  0  0  0  0  0  0  0
  152.8917  141.8153  159.6159 C   0  0  0  0  0  0  0  0  0  0  0  0
  152.3868  143.0116  160.1662 C   0  0  0  0  0  0  0  0  0  0  0  0
  151.3665  143.7264  159.5058 C   0  0  0  0  0  0  0  0  0  0  0  0
  150.8446  143.2492  158.2881 C   0  0  0  0  0  0  0  0  0  0  0  0
  151.3539  142.0557  157.7423 C   0  0  0  0  0  0  0  0  0  0  0  0
  146.6740  142.2405  154.0009 H   0  0  0  0  0  0  0  0  0  0  0  0
  148.0419  141.5618  153.1173 H   0  0  0  0  0  0  0  0  0  0  0  0
  148.3072  142.8078  154.3508 H   0  0  0  0  0  0  0  0  0  0  0  0
  149.2069  139.7426  156.0609 H   0  0  0  0  0  0  0  0  0  0  0  0
  149.5122  139.9863  154.3465 H   0  0  0  0  0  0  0  0  0  0  0  0
  150.5561  142.0355  154.6885 H   0  0  0  0  0  0  0  0  0  0  0  0
  149.4695  142.4978  155.9699 H   0  0  0  0  0  0  0  0  0  0  0  0
  151.9480  137.2722  156.9843 H   0  0  0  0  0  0  0  0  0  0  0  0
  149.5257  137.3154  157.7082 H   0  0  0  0  0  0  0  0  0  0  0  0
  149.2472  138.6515  156.5922 H   0  0  0  0  0  0  0  0  0  0  0  0
  150.3478  138.8453  157.9516 H   0  0  0  0  0  0  0  0  0  0  0  0
  149.6010  136.0594  153.7871 H   0  0  0  0  0  0  0  0  0  0  0  0
  149.5263  137.7187  154.3428 H   0  0  0  0  0  0  0  0  0  0  0  0
  153.6722  141.2740  160.1298 H   0  0  0  0  0  0  0  0  0  0  0  0
  152.7832  143.3820  161.1004 H   0  0  0  0  0  0  0  0  0  0  0  0
  150.9844  144.6410  159.9350 H   0  0  0  0  0  0  0  0  0  0  0  0
  150.0626  143.7934  157.7800 H   0  0  0  0  0  0  0  0  0  0  0  0
  1  2  1  0  0  0  0
  1 20  1  0  0  0  0
  1 21  1  0  0  0  0
  1 22  1  0  0  0  0
  2  3  1  0  0  0  0
  3  4  1  0  0  0  0
  3 23  1  0  0  0  0
  3 24  1  0  0  0  0
  4  5  1  0  0  0  0
  4 25  1  0  0  0  0
  4 26  1  0  0  0  0
  5 19  1  0  0  0  0
  5  6  1  0  0  0  0
  6  7  1  0  0  0  0
  6 13  2  0  0  0  0
  7  8  1  0  0  0  0
  8  9  1  0  0  0  0
  8 10  1  0  0  0  0
  8 27  1  0  0  0  0
  9 28  1  0  0  0  0
  9 29  1  0  0  0  0
  9 30  1  0  0  0  0
 10 11  1  0  0  0  0
 10 12  2  0  0  0  0
 11 31  1  0  0  0  0
 11 32  1  0  0  0  0
 13 14  1  0  0  0  0
 14 19  2  0  0  0  0
 14 15  1  0  0  0  0
 15 16  2  0  0  0  0
 15 33  1  0  0  0  0
 16 17  1  0  0  0  0
 16 34  1  0  0  0  0
 17 18  2  0  0  0  0
 17 35  1  0  0  0  0
 18 19  1  0  0  0  0
 18 36  1  0  0  0  0
M  END
> <s_m_source_file>
AV-unprocessed.smi

> <i_m_source_file_index>
2962

> <i_lp_mmshare_version>
43012

> <i_f3d_flags>
0

> <s_epik_input>
W2NIXTFbY0hdW2NIXVtjSF1jKGMxMiluKFtDSDJdW0NIMl1PW0NIM10pYyhuMilTW0NASF0oW0NIM10pQyg9TylbTkgyXQ==

> <s_epik_cmdline>
J2VwaWtfcHl0aG9uJywgJy1waCcsICc3LjAnLCAnLXRuJywgJzgnLCAnLW1hJywgJzIwMCcsICctbWV0YWxfYmluZGluZycsICctaW1hZScsICc8aW5maWxlLm1hZT4nLCAnLW9tYWUnLCAnPG91dGZpbGUubWFlPic=

> <r_epik_Ionization_Penalty>
0.0199986

> <r_epik_Ionization_Penalty_Charging>
0

> <r_epik_Ionization_Penalty_Neutral>
0.0199986

> <r_epik_State_Penalty>
0.0160044

> <r_epik_Charging_Adjusted_Penalty>
0.0160044

> <i_epik_Tot_Q>
0

> <i_epik_Tot_abs_Q>
0

> <r_epik_Metal_State_Penalty>
0.015472

> <b_epik_Metal_Only>
0

> <s_lp_Force_Field>
OPLS_2005

> <r_lp_Energy>
4.7896

> <b_lp_Chiralities_Consistent>
1

> <s_lp_Variant>
AV-unprocessed.smi:2962-2

> <Gold.Version>
5.8.1

> <Gold.Id.Protein>
6NUR|6NUR_protein|mol2

> <Gold.PLP.Fitness>
42.8375

> <Gold.PLP.PLP>
-36.1578

> <Gold.PLP.part.hbond>
-3.1818

> <Gold.PLP.part.metal>
0.0000

> <Gold.PLP.part.buried>
-4.0388

> <Gold.PLP.part.nonpolar>
-29.0239

> <Gold.PLP.part.repulsive>
0.2071

> <Gold.PLP.ligand.clash>
0.0000

> <Gold.PLP.ligand.torsion>
0.6327

> <Gold.PLP.Chemscore.Hbond>
2.6240

> <Gold.PLP.Chemscore.CHOScore>
0.0000

> <Gold.PLP.Chemscore.Metal>
0.0000

> <Gold.Chemscore.Hbonds>
donor molecule, donor type, donor heavy atom, donor atom, acceptor molecule, acceptor atom, score
      L1  H    11    31       P1  7948  0.59
      P1  H  7997  8008       L1    13  0.95
      P1  H 10752 10763       L1    12  1.00

> <Gold.PLP.Chemscore.Internal.Correction>
0.0732

> <Gold.Rescore>
     Score         DG    S(hbond)    S(metal)    S(lipo)     H(rot)  DE(clash)    DE(int)     intcor
     16.76     -17.68       2.35        0.00      92.02       2.50       0.37       0.55       ----

> <Gold.Chemscore.Fitness>
16.7632

> <Gold.Chemscore.DG>
-17.6775

> <Gold.Chemscore.ZeroCoef>
-5.4800

> <Gold.Chemscore.Hbond>
2.3469

> <Gold.Chemscore.Metal>
0.0000

> <Gold.Chemscore.Lipo>
92.0170

> <Gold.Chemscore.Internal_Hbond>
0.0000

> <Gold.Chemscore.DEClash>
0.3656

> <Gold.Chemscore.DEInternal>
0.5488

> <Gold.Chemscore.Rot>
2.5027

> <Gold.Chemscore.Internal.Correction>
   9.000000E+99

> <Gold.Chemscore.Hbonds>
donor molecule, donor type, donor heavy atom, donor atom, acceptor molecule, acceptor atom, score
      L1  H    11    31       P1  7948  0.26
      P1  H  7997  8008       L1    13  0.20
      P1  H 10752 10763       L1    12  0.53

> <Gold.Chemscore.Hbond.Weighted>
-7.8386

> <Gold.Chemscore.Metal.Weighted>
-0.0000

> <Gold.Chemscore.Lipo.Weighted>
-10.7660

> <Gold.Chemscore.Internal_Hbond.Weighted>
0.0000

> <Gold.Chemscore.DEClash.Weighted>
0.3656

> <Gold.Chemscore.DEInternal.Weighted>
0.5488

> <Gold.Chemscore.Rot.Weighted>
6.4070

> <Gold.Chemscore.Internal.Correction.Weighted>
   9.000000E+99

> <Gold.Protein.RotatedTorsions>
[ 6907 6896 6895 6894 ] final   -6.71 input  -60.11 | X-H torsion
[ 7974 7965 7964 7962 ] final   -8.68 input  175.53 | X-H torsion
[ 8008 7997 7996 7995 ] final  -65.55 input   59.86 | X-H torsion
[ 10167 10162 10161 10158 ] final -118.64 input  -65.29 | X-H torsion
[ 10718 10713 10712 10709 ] final   29.29 input   66.30 | X-H torsion
[ 10763 10752 10751 10750 ] final   82.65 input  -60.55 | X-H torsion
[ 11005 11000 10999 10996 ] final  -22.57 input  -57.11 | X-H torsion

> <Gold.Protein.ActiveResidues>
 VAL166  LYS551  ARG553  GLY616  TRP617  ASP618  TYR619  PRO620  LYS621  CYS622 
 ASP623  PHE694  ASN695  SER759  ASP760  ASP761  ALA762  ILE779  LEU786  VAL792 
 PHE793  MET794  SER795  GLU796  ALA797  LYS798  CYS799  TRP800  GLU811  SER814 

> <Gold.Protein.RotatedAtoms>
  151.4612  135.1038  159.9724 H   0  0  0  0  0  0  0  0  0  0  0  0  # atno 6907 bound_to 6896
  152.4852  133.8351  159.7134 H   0  0  0  0  0  0  0  0  0  0  0  0  # atno 6908 bound_to 6896
  150.8956  133.7125  159.2919 H   0  0  0  0  0  0  0  0  0  0  0  0  # atno 6909 bound_to 6896
  146.2273  140.2504  142.8347 H   0  0  0  0  0  0  0  0  0  0  0  0  # atno 7974 bound_to 7965
  154.4678  140.0931  156.7067 H   0  0  0  0  0  0  0  0  0  0  0  0  # atno 8008 bound_to 7997
  155.4808  140.3467  155.4321 H   0  0  0  0  0  0  0  0  0  0  0  0  # atno 8009 bound_to 7997
  156.0987  140.1416  156.9484 H   0  0  0  0  0  0  0  0  0  0  0  0  # atno 8010 bound_to 7997
  140.0553  143.5020  152.2060 H   0  0  0  0  0  0  0  0  0  0  0  0  # atno 10167 bound_to 10162
  157.2447  130.7086  149.6375 H   0  0  0  0  0  0  0  0  0  0  0  0  # atno 10718 bound_to 10713
  153.1221  135.4720  154.9213 H   0  0  0  0  0  0  0  0  0  0  0  0  # atno 10763 bound_to 10752
  154.7585  135.3125  154.8425 H   0  0  0  0  0  0  0  0  0  0  0  0  # atno 10764 bound_to 10752
  153.8987  135.6877  153.4810 H   0  0  0  0  0  0  0  0  0  0  0  0  # atno 10765 bound_to 10752
  140.8670  133.7747  156.0141 H   0  0  0  0  0  0  0  0  0  0  0  0  # atno 11005 bound_to 11000
  144.9416  140.8084  143.5627 LP  0  0  0  0  0  0  0  0  0  0  0  0  # atno 17320 bound_to 7965
  145.2457  139.2053  143.4969 LP  0  0  0  0  0  0  0  0  0  0  0  0  # atno 17321 bound_to 7965
  139.5927  144.7556  151.3361 LP  0  0  0  0  0  0  0  0  0  0  0  0  # atno 17342 bound_to 10162
  140.7197  143.7169  150.7726 LP  0  0  0  0  0  0  0  0  0  0  0  0  # atno 17343 bound_to 10162
  155.9668  130.4447  150.5471 LP  0  0  0  0  0  0  0  0  0  0  0  0  # atno 17370 bound_to 10713
  157.3342  131.0705  151.1838 LP  0  0  0  0  0  0  0  0  0  0  0  0  # atno 17371 bound_to 10713
  140.8617  134.2832  157.5231 LP  0  0  0  0  0  0  0  0  0  0  0  0  # atno 17394 bound_to 11000
  139.8710  134.9522  156.4107 LP  0  0  0  0  0  0  0  0  0  0  0  0  # atno 17395 bound_to 11000

$$$$
