AV-unprocessed.smi:2834|AV-procd|sdf|10916|dock10
  -GOLD-   2272015363D 1   1.00000     0.00000
 Structure written by MMmdl.
 35 36  0  0  0  0  0  0  0  0  1 V2000
  144.7191  143.6614  159.1570 C   0  0  0  0  0  0  0  0  0  0  0  0
  146.0998  144.1644  159.6279 C   0  0  1  0  0  0  0  0  0  0  0  0
  147.1328  143.8487  158.6318 N   0  0  0  0  0  0  0  0  0  0  0  0
  147.6541  142.6467  158.3363 C   0  0  0  0  0  0  0  0  0  0  0  0
  147.3234  141.5975  158.8885 O   0  0  0  0  0  0  0  0  0  0  0  0
  148.5750  142.7463  157.3639 N   0  0  0  0  0  0  0  0  0  0  0  0
  149.3301  141.6967  156.7823 C   0  0  0  0  0  0  0  0  0  0  0  0
  150.1260  141.8238  155.6144 C   0  0  0  0  0  0  0  0  0  0  0  0
  150.7147  140.6774  155.3091 N   0  0  0  0  0  0  0  0  0  0  0  0
  150.3100  139.8075  156.2676 N   0  0  0  0  0  0  0  0  0  0  0  0
  150.7821  138.4351  156.2381 C   0  0  0  0  0  0  0  0  0  0  0  0
  150.9449  137.9022  154.8049 C   0  0  0  0  0  0  0  0  0  0  0  0
  150.0959  138.5424  154.0017 F   0  0  0  0  0  0  0  0  0  0  0  0
  152.1863  138.1086  154.3640 F   0  0  0  0  0  0  0  0  0  0  0  0
  150.6733  136.5976  154.7590 F   0  0  0  0  0  0  0  0  0  0  0  0
  149.4622  140.3975  157.1841 C   0  0  0  0  0  0  0  0  0  0  0  0
  146.1000  145.6419  160.0115 C   0  0  0  0  0  0  0  0  0  0  0  0
  147.2663  145.7402  160.9886 C   0  0  0  0  0  0  0  0  0  0  0  0
  147.2992  144.4893  161.6642 O   0  0  0  0  0  0  0  0  0  0  0  0
  146.5070  143.5309  160.9670 C   0  0  0  0  0  0  0  0  0  0  0  0
  143.9575  143.8197  159.9211 H   0  0  0  0  0  0  0  0  0  0  0  0
  144.7435  142.5937  158.9365 H   0  0  0  0  0  0  0  0  0  0  0  0
  144.3813  144.1786  158.2590 H   0  0  0  0  0  0  0  0  0  0  0  0
  147.4834  144.6372  158.1079 H   0  0  0  0  0  0  0  0  0  0  0  0
  148.7529  143.6704  156.9985 H   0  0  0  0  0  0  0  0  0  0  0  0
  150.2928  142.6899  154.9908 H   0  0  0  0  0  0  0  0  0  0  0  0
  151.7352  138.3893  156.7667 H   0  0  0  0  0  0  0  0  0  0  0  0
  150.0842  137.8103  156.7976 H   0  0  0  0  0  0  0  0  0  0  0  0
  149.0463  139.8484  158.0160 H   0  0  0  0  0  0  0  0  0  0  0  0
  146.1939  146.3313  159.1728 H   0  0  0  0  0  0  0  0  0  0  0  0
  145.1749  145.8909  160.5334 H   0  0  0  0  0  0  0  0  0  0  0  0
  148.2048  145.8709  160.4486 H   0  0  0  0  0  0  0  0  0  0  0  0
  147.1588  146.5701  161.6872 H   0  0  0  0  0  0  0  0  0  0  0  0
  145.6290  143.3288  161.5820 H   0  0  0  0  0  0  0  0  0  0  0  0
  147.0413  142.5873  160.8490 H   0  0  0  0  0  0  0  0  0  0  0  0
  1  2  1  0  0  0  0
  1 21  1  0  0  0  0
  1 22  1  0  0  0  0
  1 23  1  0  0  0  0
  2 20  1  0  0  0  0
  2  3  1  0  0  0  0
  2 17  1  0  0  0  0
  3  4  1  0  0  0  0
  3 24  1  0  0  0  0
  4  5  2  0  0  0  0
  4  6  1  0  0  0  0
  6  7  1  0  0  0  0
  6 25  1  0  0  0  0
  7 16  2  0  0  0  0
  7  8  1  0  0  0  0
  8  9  2  0  0  0  0
  8 26  1  0  0  0  0
  9 10  1  0  0  0  0
 10 11  1  0  0  0  0
 10 16  1  0  0  0  0
 11 12  1  0  0  0  0
 11 27  1  0  0  0  0
 11 28  1  0  0  0  0
 12 13  1  0  0  0  0
 12 14  1  0  0  0  0
 12 15  1  0  0  0  0
 16 29  1  0  0  0  0
 17 18  1  0  0  0  0
 17 30  1  0  0  0  0
 17 31  1  0  0  0  0
 18 19  1  0  0  0  0
 18 32  1  0  0  0  0
 18 33  1  0  0  0  0
 19 20  1  0  0  0  0
 20 34  1  0  0  0  0
 20 35  1  0  0  0  0
M  END
> <s_m_source_file>
AV-unprocessed.smi

> <i_m_source_file_index>
2834

> <i_lp_mmshare_version>
43012

> <i_f3d_flags>
0

> <s_epik_input>
W0NIMl0xT1tDSDJdW0NIMl1bQ0BAXTEoW0NIM10pW05IXUMoPU8pW05IXWMyW2NIXW5uKFtjSF0yKVtDSDJdQyhGKShGKUY=

> <s_epik_cmdline>
J2VwaWtfcHl0aG9uJywgJy1waCcsICc3LjAnLCAnLXRuJywgJzgnLCAnLW1hJywgJzIwMCcsICctbWV0YWxfYmluZGluZycsICctaW1hZScsICc8aW5maWxlLm1hZT4nLCAnLW9tYWUnLCAnPG91dGZpbGUubWFlPic=

> <r_lp_tautomer_probability>
1

> <r_epik_Ionization_Penalty>
3.3002e-05

> <r_epik_Ionization_Penalty_Charging>
0

> <r_epik_Ionization_Penalty_Neutral>
3.3002e-05

> <r_epik_State_Penalty>
-0

> <r_epik_Charging_Adjusted_Penalty>
0

> <i_epik_Tot_Q>
0

> <i_epik_Tot_abs_Q>
0

> <r_epik_Metal_State_Penalty>
-0

> <b_epik_Metal_Only>
0

> <s_lp_Force_Field>
OPLS_2005

> <r_lp_Energy>
24.6434

> <b_lp_Chiralities_Consistent>
1

> <s_lp_Variant>
AV-unprocessed.smi:2834-1

> <Gold.Version>
5.8.1

> <Gold.Id.Protein>
6NUR|6NUR_protein|mol2

> <Gold.PLP.Fitness>
38.3957

> <Gold.PLP.PLP>
-29.0880

> <Gold.PLP.part.hbond>
-4.2555

> <Gold.PLP.part.metal>
0.0000

> <Gold.PLP.part.buried>
-2.8320

> <Gold.PLP.part.nonpolar>
-22.2897

> <Gold.PLP.part.repulsive>
0.3334

> <Gold.PLP.ligand.clash>
0.0000

> <Gold.PLP.ligand.torsion>
1.2477

> <Gold.PLP.Chemscore.Hbond>
3.2640

> <Gold.PLP.Chemscore.CHOScore>
0.6518

> <Gold.PLP.Chemscore.Metal>
0.0000

> <Gold.Chemscore.Hbonds>
donor molecule, donor type, donor heavy atom, donor atom, acceptor molecule, acceptor atom, score
      L1  H     3    24       P1  8029  1.00
      L1  H     6    25       P1  8028  0.95
      P1  H  6934  6946       L1     5  0.37
      P1  H  7989  7998       L1     9  0.89
      L1  C     8    26       P1  8028  0.66

> <Gold.PLP.Chemscore.Internal.Correction>
0.0559

> <Gold.Rescore>
     Score         DG    S(hbond)    S(metal)    S(lipo)     H(rot)  DE(clash)    DE(int)     intcor
      8.82     -14.13       1.93        0.00      48.16       1.34       0.13       5.18       ----

> <Gold.Chemscore.Fitness>
8.8209

> <Gold.Chemscore.DG>
-14.1294

> <Gold.Chemscore.ZeroCoef>
-5.4800

> <Gold.Chemscore.Hbond>
1.9309

> <Gold.Chemscore.Metal>
0.0000

> <Gold.Chemscore.Lipo>
48.1614

> <Gold.Chemscore.Internal_Hbond>
0.0000

> <Gold.Chemscore.DEClash>
0.1265

> <Gold.Chemscore.DEInternal>
5.1820

> <Gold.Chemscore.Rot>
1.3417

> <Gold.Chemscore.Internal.Correction>
   9.000000E+99

> <Gold.Chemscore.Hbonds>
donor molecule, donor type, donor heavy atom, donor atom, acceptor molecule, acceptor atom, score
      L1  H     3    24       P1  8029  0.69
      L1  H     6    25       P1  8028  0.20
      P1  H  6934  6946       L1     5  0.37
      P1  H  7989  7998       L1     9  0.53

> <Gold.Chemscore.Hbond.Weighted>
-6.4492

> <Gold.Chemscore.Metal.Weighted>
-0.0000

> <Gold.Chemscore.Lipo.Weighted>
-5.6349

> <Gold.Chemscore.Internal_Hbond.Weighted>
0.0000

> <Gold.Chemscore.DEClash.Weighted>
0.1265

> <Gold.Chemscore.DEInternal.Weighted>
5.1820

> <Gold.Chemscore.Rot.Weighted>
3.4347

> <Gold.Chemscore.Internal.Correction.Weighted>
   9.000000E+99

> <Gold.Protein.RotatedTorsions>
[ 6907 6896 6895 6894 ] final  140.58 input  -60.11 | X-H torsion
[ 7974 7965 7964 7962 ] final  -99.23 input  175.53 | X-H torsion
[ 8008 7997 7996 7995 ] final  125.66 input   59.86 | X-H torsion
[ 10167 10162 10161 10158 ] final   57.08 input  -65.29 | X-H torsion
[ 10718 10713 10712 10709 ] final  136.11 input   66.30 | X-H torsion
[ 10763 10752 10751 10750 ] final  -41.02 input  -60.55 | X-H torsion
[ 11005 11000 10999 10996 ] final  -12.38 input  -57.11 | X-H torsion

> <Gold.Protein.ActiveResidues>
 VAL166  LYS551  ARG553  GLY616  TRP617  ASP618  TYR619  PRO620  LYS621  CYS622 
 ASP623  PHE694  ASN695  SER759  ASP760  ASP761  ALA762  ILE779  LEU786  VAL792 
 PHE793  MET794  SER795  GLU796  ALA797  LYS798  CYS799  TRP800  GLU811  SER814 

> <Gold.Protein.RotatedAtoms>
  152.2413  133.5138  159.5271 H   0  0  0  0  0  0  0  0  0  0  0  0  # atno 6907 bound_to 6896
  150.7065  134.1085  159.4000 H   0  0  0  0  0  0  0  0  0  0  0  0  # atno 6908 bound_to 6896
  151.9006  135.0380  160.0556 H   0  0  0  0  0  0  0  0  0  0  0  0  # atno 6909 bound_to 6896
  145.3102  140.9398  143.2774 H   0  0  0  0  0  0  0  0  0  0  0  0  # atno 7974 bound_to 7965
  156.2841  140.2711  156.1985 H   0  0  0  0  0  0  0  0  0  0  0  0  # atno 8008 bound_to 7997
  155.0385  140.0386  157.2519 H   0  0  0  0  0  0  0  0  0  0  0  0  # atno 8009 bound_to 7997
  154.7294  140.2703  155.6475 H   0  0  0  0  0  0  0  0  0  0  0  0  # atno 8010 bound_to 7997
  140.2018  144.3980  150.6526 H   0  0  0  0  0  0  0  0  0  0  0  0  # atno 10167 bound_to 10162
  157.4501  131.1065  151.0043 H   0  0  0  0  0  0  0  0  0  0  0  0  # atno 10718 bound_to 10713
  153.9556  135.6745  153.4744 H   0  0  0  0  0  0  0  0  0  0  0  0  # atno 10763 bound_to 10752
  153.0863  135.4897  154.8599 H   0  0  0  0  0  0  0  0  0  0  0  0  # atno 10764 bound_to 10752
  154.7301  135.3136  154.8865 H   0  0  0  0  0  0  0  0  0  0  0  0  # atno 10765 bound_to 10752
  140.7651  133.8484  155.9158 H   0  0  0  0  0  0  0  0  0  0  0  0  # atno 11005 bound_to 11000
  144.9022  139.4635  143.6627 LP  0  0  0  0  0  0  0  0  0  0  0  0  # atno 17320 bound_to 7965
  146.3120  139.7782  142.9012 LP  0  0  0  0  0  0  0  0  0  0  0  0  # atno 17321 bound_to 7965
  140.6385  143.2199  151.6342 LP  0  0  0  0  0  0  0  0  0  0  0  0  # atno 17342 bound_to 10162
  139.5214  144.3193  152.0924 LP  0  0  0  0  0  0  0  0  0  0  0  0  # atno 17343 bound_to 10162
  157.0876  130.5929  149.5433 LP  0  0  0  0  0  0  0  0  0  0  0  0  # atno 17370 bound_to 10713
  155.9983  130.5057  150.7567 LP  0  0  0  0  0  0  0  0  0  0  0  0  # atno 17371 bound_to 10713
  140.9627  134.1635  157.4641 LP  0  0  0  0  0  0  0  0  0  0  0  0  # atno 17394 bound_to 11000
  139.8764  134.9950  156.5724 LP  0  0  0  0  0  0  0  0  0  0  0  0  # atno 17395 bound_to 11000

$$$$
