AV-unprocessed.smi:2629|AV-procd|sdf|10245|dock9
  -GOLD-   2272014253D 1   1.00000     0.00000
 Structure written by MMmdl.
 23 24  0  0  0  0  0  0  0  0  2 V2000
  152.1246  137.7873  154.1233 O   0  0  0  0  0  0  0  0  0  0  0  0
  152.0340  138.6123  155.0296 C   0  0  0  0  0  0  0  0  0  0  0  0
  150.9849  139.7005  154.9566 N   0  0  0  0  0  0  0  0  0  0  0  0
  150.8924  140.5457  155.8846 N   0  0  0  0  0  0  0  0  0  0  0  0
  151.7267  140.5428  157.0241 C   0  0  0  0  0  0  0  0  0  0  0  0
  151.4705  141.5669  157.9375 N   0  0  0  0  0  0  0  0  0  0  0  0
  150.7200  142.7803  157.6330 C   0  0  0  0  0  0  0  0  0  0  0  0
  151.6590  143.9980  157.6512 C   0  0  0  0  0  0  0  0  0  0  0  0
  152.2779  144.0930  158.9312 O   0  0  0  0  0  0  0  0  0  0  0  0
  153.0378  142.9297  159.2483 C   0  0  0  0  0  0  0  0  0  0  0  0
  152.1243  141.6902  159.2383 C   0  0  0  0  0  0  0  0  0  0  0  0
  152.7044  139.5591  157.1248 C   0  0  0  0  0  0  0  0  0  0  0  0
  153.5831  139.2468  157.9588 O   0  5  0  0  0  0  0  0  0  0  0  0
  152.8256  138.6153  156.1131 N   0  0  0  0  0  0  0  0  0  0  0  0
  149.9403  142.9057  158.3852 H   0  0  0  0  0  0  0  0  0  0  0  0
  150.2031  142.7046  156.6780 H   0  0  0  0  0  0  0  0  0  0  0  0
  152.4166  143.9179  156.8698 H   0  0  0  0  0  0  0  0  0  0  0  0
  151.0962  144.9115  157.4606 H   0  0  0  0  0  0  0  0  0  0  0  0
  153.8552  142.8124  158.5349 H   0  0  0  0  0  0  0  0  0  0  0  0
  153.4885  143.0581  160.2323 H   0  0  0  0  0  0  0  0  0  0  0  0
  152.7132  140.8066  159.4820 H   0  0  0  0  0  0  0  0  0  0  0  0
  151.3612  141.7786  160.0123 H   0  0  0  0  0  0  0  0  0  0  0  0
  153.5428  137.9126  156.2150 H   0  0  0  0  0  0  0  0  0  0  0  0
  1  2  2  0  0  0  0
  2 14  1  0  0  0  0
  2  3  1  0  0  0  0
  3  4  2  0  0  0  0
  4  5  1  0  0  0  0
  5 12  2  0  0  0  0
  5  6  1  0  0  0  0
  6 11  1  0  0  0  0
  6  7  1  0  0  0  0
  7  8  1  0  0  0  0
  7 15  1  0  0  0  0
  7 16  1  0  0  0  0
  8  9  1  0  0  0  0
  8 17  1  0  0  0  0
  8 18  1  0  0  0  0
  9 10  1  0  0  0  0
 10 11  1  0  0  0  0
 10 19  1  0  0  0  0
 10 20  1  0  0  0  0
 11 21  1  0  0  0  0
 11 22  1  0  0  0  0
 12 13  1  0  0  0  0
 12 14  1  0  0  0  0
 14 23  1  0  0  0  0
M  CHG  1  13  -1
M  END
> <s_m_source_file>
AV-unprocessed.smi

> <i_m_source_file_index>
2629

> <i_lp_mmshare_version>
43012

> <i_f3d_flags>
0

> <s_epik_input>
Tz1jMVtuSF1uYyhjKD1PKVtuSF0xKU4yW0NIMl1bQ0gyXU9bQ0gyXVtDSDJdMg==

> <s_epik_cmdline>
J2VwaWtfcHl0aG9uJywgJy1waCcsICc3LjAnLCAnLXRuJywgJzgnLCAnLW1hJywgJzIwMCcsICctbWV0YWxfYmluZGluZycsICctaW1hZScsICc8aW5maWxlLm1hZT4nLCAnLW9tYWUnLCAnPG91dGZpbGUubWFlPic=

> <r_lp_tautomer_probability>
1

> <r_epik_Ionization_Penalty>
0.519034

> <r_epik_Ionization_Penalty_Charging>
1.15035e-06

> <r_epik_Ionization_Penalty_Neutral>
0.519033

> <r_epik_State_Penalty>
0

> <r_epik_Charging_Adjusted_Penalty>
1.15035e-06

> <i_epik_Tot_Q>
-1

> <i_epik_Tot_abs_Q>
1

> <r_epik_Metal_State_Penalty>
8.21436e-06

> <b_epik_Metal_Only>
1

> <s_epik_pKa_notes>
Reset negative state penalty to 0 from Metal Processing

> <s_lp_Force_Field>
OPLS_2005

> <r_lp_Energy>
19.1466

> <b_lp_Chiralities_Consistent>
1

> <s_lp_Variant>
AV-unprocessed.smi:2629-2

> <Gold.Version>
5.8.1

> <Gold.Id.Protein>
6NUR|6NUR_protein|mol2

> <Gold.PLP.Fitness>
33.0452

> <Gold.PLP.PLP>
-23.8017

> <Gold.PLP.part.hbond>
-2.7646

> <Gold.PLP.part.metal>
0.0000

> <Gold.PLP.part.buried>
-2.3957

> <Gold.PLP.part.nonpolar>
-19.0171

> <Gold.PLP.part.repulsive>
0.6122

> <Gold.PLP.ligand.clash>
0.0000

> <Gold.PLP.ligand.torsion>
0.0805

> <Gold.PLP.Chemscore.Hbond>
3.1235

> <Gold.PLP.Chemscore.CHOScore>
0.0000

> <Gold.PLP.Chemscore.Metal>
0.0000

> <Gold.Chemscore.Hbonds>
donor molecule, donor type, donor heavy atom, donor atom, acceptor molecule, acceptor atom, score
      P1  H  7989  7998       L1     3  1.00
      P1  H  7997  8008       L1    13  1.79
      P1  H 10752 10765       L1     1  0.30

> <Gold.PLP.Chemscore.Internal.Correction>
0.0338

> <Gold.Rescore>
     Score         DG    S(hbond)    S(metal)    S(lipo)     H(rot)  DE(clash)    DE(int)     intcor
     13.02     -13.39       0.93        0.00      41.02       0.00       0.30       0.07       ----

> <Gold.Chemscore.Fitness>
13.0171

> <Gold.Chemscore.DG>
-13.3897

> <Gold.Chemscore.ZeroCoef>
-5.4800

> <Gold.Chemscore.Hbond>
0.9312

> <Gold.Chemscore.Metal>
0.0000

> <Gold.Chemscore.Lipo>
41.0216

> <Gold.Chemscore.Internal_Hbond>
0.0000

> <Gold.Chemscore.DEClash>
0.2982

> <Gold.Chemscore.DEInternal>
0.0744

> <Gold.Chemscore.Rot>
0.0000

> <Gold.Chemscore.Internal.Correction>
   9.000000E+99

> <Gold.Chemscore.Hbonds>
donor molecule, donor type, donor heavy atom, donor atom, acceptor molecule, acceptor atom, score
      P1  H  7989  7998       L1     3  0.10
      P1  H  7997  8008       L1    13  0.23
      P1  H 10752 10765       L1     1  0.30

> <Gold.Chemscore.Hbond.Weighted>
-3.1102

> <Gold.Chemscore.Metal.Weighted>
-0.0000

> <Gold.Chemscore.Lipo.Weighted>
-4.7995

> <Gold.Chemscore.Internal_Hbond.Weighted>
0.0000

> <Gold.Chemscore.DEClash.Weighted>
0.2982

> <Gold.Chemscore.DEInternal.Weighted>
0.0744

> <Gold.Chemscore.Rot.Weighted>
0.0000

> <Gold.Chemscore.Internal.Correction.Weighted>
   9.000000E+99

> <Gold.Protein.RotatedTorsions>
[ 6907 6896 6895 6894 ] final   55.11 input  -60.11 | X-H torsion
[ 7974 7965 7964 7962 ] final   26.71 input  175.53 | X-H torsion
[ 8008 7997 7996 7995 ] final -111.18 input   59.86 | X-H torsion
[ 10167 10162 10161 10158 ] final  -39.23 input  -65.29 | X-H torsion
[ 10718 10713 10712 10709 ] final -154.53 input   66.30 | X-H torsion
[ 10763 10752 10751 10750 ] final  137.31 input  -60.55 | X-H torsion
[ 11005 11000 10999 10996 ] final   75.14 input  -57.11 | X-H torsion

> <Gold.Protein.ActiveResidues>
 VAL166  LYS551  ARG553  GLY616  TRP617  ASP618  TYR619  PRO620  LYS621  CYS622 
 ASP623  PHE694  ASN695  SER759  ASP760  ASP761  ALA762  ILE779  LEU786  VAL792 
 PHE793  MET794  SER795  GLU796  ALA797  LYS798  CYS799  TRP800  GLU811  SER814 

> <Gold.Protein.RotatedAtoms>
  152.3506  134.7011  160.0237 H   0  0  0  0  0  0  0  0  0  0  0  0  # atno 6907 bound_to 6896
  151.7366  133.3314  159.3362 H   0  0  0  0  0  0  0  0  0  0  0  0  # atno 6908 bound_to 6896
  150.7537  134.6249  159.6200 H   0  0  0  0  0  0  0  0  0  0  0  0  # atno 6909 bound_to 6896
  146.1823  139.7290  142.8892 H   0  0  0  0  0  0  0  0  0  0  0  0  # atno 7974 bound_to 7965
  154.9858  140.0395  157.2298 H   0  0  0  0  0  0  0  0  0  0  0  0  # atno 8008 bound_to 7997
  154.7673  140.2795  155.6143 H   0  0  0  0  0  0  0  0  0  0  0  0  # atno 8009 bound_to 7997
  156.2915  140.2617  156.2466 H   0  0  0  0  0  0  0  0  0  0  0  0  # atno 8010 bound_to 7997
  140.7070  143.3227  151.2753 H   0  0  0  0  0  0  0  0  0  0  0  0  # atno 10167 bound_to 10162
  156.5006  130.8389  151.2607 H   0  0  0  0  0  0  0  0  0  0  0  0  # atno 10718 bound_to 10713
  153.8709  135.3056  155.3442 H   0  0  0  0  0  0  0  0  0  0  0  0  # atno 10763 bound_to 10752
  154.7806  135.4837  153.9839 H   0  0  0  0  0  0  0  0  0  0  0  0  # atno 10764 bound_to 10752
  153.1406  135.6823  153.9128 H   0  0  0  0  0  0  0  0  0  0  0  0  # atno 10765 bound_to 10752
  139.9358  134.7492  156.1234 H   0  0  0  0  0  0  0  0  0  0  0  0  # atno 11005 bound_to 11000
  145.4041  141.0389  143.3054 LP  0  0  0  0  0  0  0  0  0  0  0  0  # atno 17320 bound_to 7965
  144.8336  139.5587  143.6932 LP  0  0  0  0  0  0  0  0  0  0  0  0  # atno 17321 bound_to 7965
  139.6686  144.0060  152.2739 LP  0  0  0  0  0  0  0  0  0  0  0  0  # atno 17342 bound_to 10162
  139.9651  144.6531  150.8042 LP  0  0  0  0  0  0  0  0  0  0  0  0  # atno 17343 bound_to 10162
  157.7463  130.9983  150.2848 LP  0  0  0  0  0  0  0  0  0  0  0  0  # atno 17370 bound_to 10713
  156.3337  130.3804  149.7469 LP  0  0  0  0  0  0  0  0  0  0  0  0  # atno 17371 bound_to 10713
  141.0970  133.6691  156.2668 LP  0  0  0  0  0  0  0  0  0  0  0  0  # atno 17394 bound_to 11000
  140.6081  134.5487  157.5529 LP  0  0  0  0  0  0  0  0  0  0  0  0  # atno 17395 bound_to 11000

$$$$
