AV-unprocessed.smi:1522|AV-procd|sdf|6135|dock6
  -GOLD-   22720 6273D 1   1.00000     0.00000
 Structure written by MMmdl.
 35 36  0  0  0  0  0  0  0  0  2 V2000
  144.1544  135.4582  150.6216 C   0  0  0  0  0  0  0  0  0  0  0  0
  145.5721  135.8852  151.0647 C   0  0  1  0  0  0  0  0  0  0  0  0
  145.5108  137.1188  151.9974 C   0  0  0  0  0  0  0  0  0  0  0  0
  146.8404  137.5869  152.3768 N   0  0  0  0  0  0  0  0  0  0  0  0
  147.0844  138.6772  153.1174 C   0  0  0  0  0  0  0  0  0  0  0  0
  146.1968  139.3986  153.5723 O   0  0  0  0  0  0  0  0  0  0  0  0
  148.4049  138.8664  153.2874 N   0  0  0  0  0  0  0  0  0  0  0  0
  149.0600  139.9179  153.9820 C   0  0  0  0  0  0  0  0  0  0  0  0
  150.2833  139.8040  154.5227 N   0  0  0  0  0  0  0  0  0  0  0  0
  150.6873  140.9774  155.1460 N   0  0  0  0  0  0  0  0  0  0  0  0
  149.7541  141.9287  155.0516 C   0  0  0  0  0  0  0  0  0  0  0  0
  148.2898  141.4841  154.1919 S   0  0  0  0  0  0  0  0  0  0  0  0
  146.2890  134.7524  151.7214 N   0  3  0  0  0  0  0  0  0  0  0  0
  145.8067  134.3984  153.0743 C   0  0  0  0  0  0  0  0  0  0  0  0
  146.3142  132.9813  153.3501 C   0  0  0  0  0  0  0  0  0  0  0  0
  146.6205  132.3812  151.9758 C   0  0  0  0  0  0  0  0  0  0  0  0
  146.2903  133.4815  150.9643 C   0  0  0  0  0  0  0  0  0  0  0  0
  143.6138  136.2759  150.1448 H   0  0  0  0  0  0  0  0  0  0  0  0
  143.5593  135.1237  151.4720 H   0  0  0  0  0  0  0  0  0  0  0  0
  144.1803  134.6487  149.8923 H   0  0  0  0  0  0  0  0  0  0  0  0
  146.1339  136.1625  150.1712 H   0  0  0  0  0  0  0  0  0  0  0  0
  144.9484  137.9148  151.5058 H   0  0  0  0  0  0  0  0  0  0  0  0
  144.9850  136.8860  152.9235 H   0  0  0  0  0  0  0  0  0  0  0  0
  147.6279  137.0463  152.0497 H   0  0  0  0  0  0  0  0  0  0  0  0
  149.0153  138.1839  152.8629 H   0  0  0  0  0  0  0  0  0  0  0  0
  149.9297  142.8993  155.4913 H   0  0  0  0  0  0  0  0  0  0  0  0
  146.1555  135.1036  153.8294 H   0  0  0  0  0  0  0  0  0  0  0  0
  144.7154  134.4035  153.0850 H   0  0  0  0  0  0  0  0  0  0  0  0
  147.2249  133.0152  153.9495 H   0  0  0  0  0  0  0  0  0  0  0  0
  145.5800  132.3935  153.9018 H   0  0  0  0  0  0  0  0  0  0  0  0
  147.6764  132.1141  151.9154 H   0  0  0  0  0  0  0  0  0  0  0  0
  146.0418  131.4770  151.7841 H   0  0  0  0  0  0  0  0  0  0  0  0
  145.2979  133.3061  150.5455 H   0  0  0  0  0  0  0  0  0  0  0  0
  147.0062  133.4977  150.1419 H   0  0  0  0  0  0  0  0  0  0  0  0
  147.2565  135.0238  151.8252 H   0  0  0  0  0  0  0  0  0  0  0  0
  1  2  1  0  0  0  0
  1 18  1  0  0  0  0
  1 19  1  0  0  0  0
  1 20  1  0  0  0  0
  2  3  1  0  0  0  0
  2 13  1  0  0  0  0
  2 21  1  0  0  0  0
  3  4  1  0  0  0  0
  3 22  1  0  0  0  0
  3 23  1  0  0  0  0
  4  5  1  0  0  0  0
  4 24  1  0  0  0  0
  5  6  2  0  0  0  0
  5  7  1  0  0  0  0
  7  8  1  0  0  0  0
  7 25  1  0  0  0  0
  8 12  1  0  0  0  0
  8  9  2  0  0  0  0
  9 10  1  0  0  0  0
 10 11  2  0  0  0  0
 11 12  1  0  0  0  0
 11 26  1  0  0  0  0
 13 17  1  0  0  0  0
 13 14  1  0  0  0  0
 13 35  1  0  0  0  0
 14 15  1  0  0  0  0
 14 27  1  0  0  0  0
 14 28  1  0  0  0  0
 15 16  1  0  0  0  0
 15 29  1  0  0  0  0
 15 30  1  0  0  0  0
 16 17  1  0  0  0  0
 16 31  1  0  0  0  0
 16 32  1  0  0  0  0
 17 33  1  0  0  0  0
 17 34  1  0  0  0  0
M  CHG  1  13   1
M  END
> <s_m_source_file>
AV-unprocessed.smi

> <i_m_source_file_index>
1522

> <i_lp_mmshare_version>
43012

> <i_f3d_flags>
0

> <s_epik_input>
W0NIMl0xW0NIMl1bQ0gyXVtDSDJdTjFbQ0BIXShbQ0gzXSlbQ0gyXVtOSF1DKD1PKVtOSF1jMm5uW2NIXXMy

> <s_epik_cmdline>
J2VwaWtfcHl0aG9uJywgJy1waCcsICc3LjAnLCAnLXRuJywgJzgnLCAnLW1hJywgJzIwMCcsICctbWV0YWxfYmluZGluZycsICctaW1hZScsICc8aW5maWxlLm1hZT4nLCAnLW9tYWUnLCAnPG91dGZpbGUubWFlPic=

> <r_lp_tautomer_probability>
1

> <r_epik_Ionization_Penalty>
0.00457064

> <r_epik_Ionization_Penalty_Charging>
0.000848324

> <r_epik_Ionization_Penalty_Neutral>
0.00372231

> <r_epik_State_Penalty>
-0

> <r_epik_Charging_Adjusted_Penalty>
0.000848324

> <i_epik_Tot_Q>
1

> <i_epik_Tot_abs_Q>
1

> <r_epik_Metal_State_Penalty>
0.370178

> <b_epik_Metal_Only>
0

> <s_lp_Force_Field>
OPLS_2005

> <r_lp_Energy>
30.6198

> <b_lp_Chiralities_Consistent>
1

> <s_lp_Variant>
AV-unprocessed.smi:1522-2

> <Gold.Version>
5.8.1

> <Gold.Id.Protein>
6NUR|6NUR_protein|mol2

> <Gold.PLP.Fitness>
41.7419

> <Gold.PLP.PLP>
-28.2197

> <Gold.PLP.part.hbond>
-5.7937

> <Gold.PLP.part.metal>
0.0000

> <Gold.PLP.part.buried>
-1.0726

> <Gold.PLP.part.nonpolar>
-22.6915

> <Gold.PLP.part.repulsive>
0.4885

> <Gold.PLP.ligand.clash>
0.0000

> <Gold.PLP.ligand.torsion>
0.2339

> <Gold.PLP.Chemscore.Hbond>
3.6510

> <Gold.PLP.Chemscore.CHOScore>
1.0000

> <Gold.PLP.Chemscore.Metal>
0.0000

> <Gold.Chemscore.Hbonds>
donor molecule, donor type, donor heavy atom, donor atom, acceptor molecule, acceptor atom, score
      L1  H     4    24       P1  7948  1.00
      L1  H     7    25       P1  7948  0.56
      L1  H    13    35       P1  7948  1.95
      L1  C    11    26       P1  8028  1.00

> <Gold.PLP.Chemscore.Internal.Correction>
0.0370

> <Gold.Rescore>
     Score         DG    S(hbond)    S(metal)    S(lipo)     H(rot)  DE(clash)    DE(int)     intcor
     14.62     -15.25       2.30        0.00      55.14       1.70       0.10       0.53       ----

> <Gold.Chemscore.Fitness>
14.6176

> <Gold.Chemscore.DG>
-15.2507

> <Gold.Chemscore.ZeroCoef>
-5.4800

> <Gold.Chemscore.Hbond>
2.2989

> <Gold.Chemscore.Metal>
0.0000

> <Gold.Chemscore.Lipo>
55.1412

> <Gold.Chemscore.Internal_Hbond>
0.0000

> <Gold.Chemscore.DEClash>
0.1012

> <Gold.Chemscore.DEInternal>
0.5319

> <Gold.Chemscore.Rot>
1.7028

> <Gold.Chemscore.Internal.Correction>
   9.000000E+99

> <Gold.Chemscore.Hbonds>
donor molecule, donor type, donor heavy atom, donor atom, acceptor molecule, acceptor atom, score
      L1  H     4    24       P1  7948  0.95
      L1  H     7    25       P1  7948  0.55
      L1  H    13    35       P1  7948  0.85

> <Gold.Chemscore.Hbond.Weighted>
-7.6783

> <Gold.Chemscore.Metal.Weighted>
-0.0000

> <Gold.Chemscore.Lipo.Weighted>
-6.4515

> <Gold.Chemscore.Internal_Hbond.Weighted>
0.0000

> <Gold.Chemscore.DEClash.Weighted>
0.1012

> <Gold.Chemscore.DEInternal.Weighted>
0.5319

> <Gold.Chemscore.Rot.Weighted>
4.3592

> <Gold.Chemscore.Internal.Correction.Weighted>
   9.000000E+99

> <Gold.Protein.RotatedTorsions>
[ 6907 6896 6895 6894 ] final   14.82 input  -60.11 | X-H torsion
[ 7974 7965 7964 7962 ] final -170.79 input  175.53 | X-H torsion
[ 8008 7997 7996 7995 ] final  -40.63 input   59.86 | X-H torsion
[ 10167 10162 10161 10158 ] final   96.77 input  -65.29 | X-H torsion
[ 10718 10713 10712 10709 ] final -158.01 input   66.30 | X-H torsion
[ 10763 10752 10751 10750 ] final  124.78 input  -60.55 | X-H torsion
[ 11005 11000 10999 10996 ] final -136.67 input  -57.11 | X-H torsion

> <Gold.Protein.ActiveResidues>
 VAL166  LYS551  ARG553  GLY616  TRP617  ASP618  TYR619  PRO620  LYS621  CYS622 
 ASP623  PHE694  ASN695  SER759  ASP760  ASP761  ALA762  ILE779  LEU786  VAL792 
 PHE793  MET794  SER795  GLU796  ALA797  LYS798  CYS799  TRP800  GLU811  SER814 

> <Gold.Protein.RotatedAtoms>
  151.8083  135.0688  160.0409 H   0  0  0  0  0  0  0  0  0  0  0  0  # atno 6907 bound_to 6896
  152.3039  133.5678  159.5644 H   0  0  0  0  0  0  0  0  0  0  0  0  # atno 6908 bound_to 6896
  150.7286  134.0168  159.3730 H   0  0  0  0  0  0  0  0  0  0  0  0  # atno 6909 bound_to 6896
  144.7165  140.2019  143.6337 H   0  0  0  0  0  0  0  0  0  0  0  0  # atno 7974 bound_to 7965
  154.4010  140.1520  156.3058 H   0  0  0  0  0  0  0  0  0  0  0  0  # atno 8008 bound_to 7997
  155.8660  140.3451  155.5767 H   0  0  0  0  0  0  0  0  0  0  0  0  # atno 8009 bound_to 7997
  155.7828  140.0845  157.2041 H   0  0  0  0  0  0  0  0  0  0  0  0  # atno 8010 bound_to 7997
  139.7863  144.6869  150.9953 H   0  0  0  0  0  0  0  0  0  0  0  0  # atno 10167 bound_to 10162
  156.5482  130.8593  151.2771 H   0  0  0  0  0  0  0  0  0  0  0  0  # atno 10718 bound_to 10713
  153.6668  135.3337  155.3142 H   0  0  0  0  0  0  0  0  0  0  0  0  # atno 10763 bound_to 10752
  154.8501  135.4377  154.1746 H   0  0  0  0  0  0  0  0  0  0  0  0  # atno 10764 bound_to 10752
  153.2727  135.7002  153.7540 H   0  0  0  0  0  0  0  0  0  0  0  0  # atno 10765 bound_to 10752
  140.8783  134.1964  157.4607 H   0  0  0  0  0  0  0  0  0  0  0  0  # atno 11005 bound_to 11000
  145.8672  139.2253  143.1682 LP  0  0  0  0  0  0  0  0  0  0  0  0  # atno 17320 bound_to 7965
  146.0119  140.8428  142.9967 LP  0  0  0  0  0  0  0  0  0  0  0  0  # atno 17321 bound_to 7965
  140.7819  143.4428  151.0526 LP  0  0  0  0  0  0  0  0  0  0  0  0  # atno 17342 bound_to 10162
  139.8107  143.7955  152.3171 LP  0  0  0  0  0  0  0  0  0  0  0  0  # atno 17343 bound_to 10162
  157.7392  130.9828  150.2302 LP  0  0  0  0  0  0  0  0  0  0  0  0  # atno 17370 bound_to 10713
  156.2909  130.3745  149.7843 LP  0  0  0  0  0  0  0  0  0  0  0  0  # atno 17371 bound_to 10713
  139.8717  134.9806  156.5081 LP  0  0  0  0  0  0  0  0  0  0  0  0  # atno 17394 bound_to 11000
  140.8491  133.8146  155.9151 LP  0  0  0  0  0  0  0  0  0  0  0  0  # atno 17395 bound_to 11000

$$$$
