AV-unprocessed.smi:213|AV-procd|sdf|1642|dock3
  -GOLD-   2262020 13D 1   1.00000     0.00000
 Structure written by MMmdl.
 58 61  0  0  0  0  0  0  0  0  1 V2000
  151.1970  139.9357  155.4048 C   0  0  0  0  0  0  0  0  0  0  0  0
  149.8938  140.3156  156.1315 C   0  0  1  0  0  0  0  0  0  0  0  0
  149.9113  141.6937  156.8373 C   0  0  0  0  0  0  0  0  0  0  0  0
  151.1651  142.0739  157.4943 N   0  0  0  0  0  0  0  0  0  0  0  0
  151.4215  141.2233  158.6538 C   0  0  0  0  0  0  0  0  0  0  0  0
  152.7346  141.5931  159.3651 C   0  0  0  0  0  0  0  0  0  0  0  0
  152.6948  142.9605  159.7571 O   0  0  0  0  0  0  0  0  0  0  0  0
  152.4846  143.8373  158.6560 C   0  0  0  0  0  0  0  0  0  0  0  0
  151.1724  143.4663  157.9425 C   0  0  0  0  0  0  0  0  0  0  0  0
  148.7728  140.2524  155.1903 N   0  0  0  0  0  0  0  0  0  0  0  0
  148.5097  141.3372  154.2484 C   0  0  0  0  0  0  0  0  0  0  0  0
  148.0124  139.1305  155.1113 C   0  0  0  0  0  0  0  0  0  0  0  0
  147.9576  138.3108  156.1943 N   0  0  0  0  0  0  0  0  0  0  0  0
  147.2138  137.2014  156.1669 C   0  0  0  0  0  0  0  0  0  0  0  0
  146.4650  136.7235  155.1716 N   0  0  0  0  0  0  0  0  0  0  0  0
  146.5300  137.5301  154.0745 C   0  0  0  0  0  0  0  0  0  0  0  0
  147.2707  138.7410  153.9573 C   0  0  0  0  0  0  0  0  0  0  0  0
  147.1021  139.2700  152.6815 N   0  0  0  0  0  0  0  0  0  0  0  0
  146.3035  138.4278  152.0854 C   0  0  0  0  0  0  0  0  0  0  0  0
  145.9121  137.3530  152.8499 N   0  0  0  0  0  0  0  0  0  0  0  0
  145.0391  136.2655  152.4452 C   0  0  0  0  0  0  0  0  0  0  0  0
  145.5947  135.4869  151.2369 C   0  0  2  0  0  0  0  0  0  0  0  0
  145.0231  135.9613  150.0324 O   0  0  0  0  0  0  0  0  0  0  0  0
  145.3974  133.9633  151.3647 C   0  0  2  0  0  0  0  0  0  0  0  0
  146.2260  133.0886  150.4195 C   0  0  0  0  0  0  0  0  0  0  0  0
  145.3878  131.8311  150.3678 C   0  0  0  0  0  0  0  0  0  0  0  0
  143.9722  132.4021  150.3791 C   0  0  0  0  0  0  0  0  0  0  0  0
  144.0360  133.5853  151.1708 O   0  0  0  0  0  0  0  0  0  0  0  0
  151.9831  139.6548  156.1021 H   0  0  0  0  0  0  0  0  0  0  0  0
  151.5644  140.7491  154.7788 H   0  0  0  0  0  0  0  0  0  0  0  0
  151.0421  139.0675  154.7632 H   0  0  0  0  0  0  0  0  0  0  0  0
  149.7436  139.5509  156.8929 H   0  0  0  0  0  0  0  0  0  0  0  0
  149.5853  142.4818  156.1576 H   0  0  0  0  0  0  0  0  0  0  0  0
  149.1359  141.6458  157.6036 H   0  0  0  0  0  0  0  0  0  0  0  0
  150.5933  141.2995  159.3601 H   0  0  0  0  0  0  0  0  0  0  0  0
  151.4706  140.1789  158.3431 H   0  0  0  0  0  0  0  0  0  0  0  0
  152.8754  140.9725  160.2502 H   0  0  0  0  0  0  0  0  0  0  0  0
  153.5904  141.4192  158.7110 H   0  0  0  0  0  0  0  0  0  0  0  0
  152.4405  144.8635  159.0213 H   0  0  0  0  0  0  0  0  0  0  0  0
  153.3289  143.7774  157.9672 H   0  0  0  0  0  0  0  0  0  0  0  0
  151.0371  144.1460  157.1078 H   0  0  0  0  0  0  0  0  0  0  0  0
  150.3357  143.6409  158.6209 H   0  0  0  0  0  0  0  0  0  0  0  0
  147.4372  141.4810  154.1118 H   0  0  0  0  0  0  0  0  0  0  0  0
  148.9549  141.1160  153.2780 H   0  0  0  0  0  0  0  0  0  0  0  0
  148.9278  142.2779  154.6058 H   0  0  0  0  0  0  0  0  0  0  0  0
  147.2193  136.6129  157.0725 H   0  0  0  0  0  0  0  0  0  0  0  0
  145.9815  138.5650  151.0635 H   0  0  0  0  0  0  0  0  0  0  0  0
  144.9109  135.5976  153.2979 H   0  0  0  0  0  0  0  0  0  0  0  0
  144.0541  136.6758  152.2190 H   0  0  0  0  0  0  0  0  0  0  0  0
  146.6662  135.6776  151.1662 H   0  0  0  0  0  0  0  0  0  0  0  0
  144.8833  136.8922  150.1169 H   0  0  0  0  0  0  0  0  0  0  0  0
  145.6439  133.6711  152.3868 H   0  0  0  0  0  0  0  0  0  0  0  0
  146.2923  133.5228  149.4216 H   0  0  0  0  0  0  0  0  0  0  0  0
  147.2393  132.9137  150.7821 H   0  0  0  0  0  0  0  0  0  0  0  0
  145.5924  131.2138  149.4928 H   0  0  0  0  0  0  0  0  0  0  0  0
  145.5587  131.2285  151.2610 H   0  0  0  0  0  0  0  0  0  0  0  0
  143.6679  132.6792  149.3690 H   0  0  0  0  0  0  0  0  0  0  0  0
  143.2392  131.6972  150.7718 H   0  0  0  0  0  0  0  0  0  0  0  0
  1  2  1  0  0  0  0
  1 29  1  0  0  0  0
  1 30  1  0  0  0  0
  1 31  1  0  0  0  0
  2  3  1  0  0  0  0
  2 10  1  0  0  0  0
  2 32  1  0  0  0  0
  3  4  1  0  0  0  0
  3 33  1  0  0  0  0
  3 34  1  0  0  0  0
  4  9  1  0  0  0  0
  4  5  1  0  0  0  0
  5  6  1  0  0  0  0
  5 35  1  0  0  0  0
  5 36  1  0  0  0  0
  6  7  1  0  0  0  0
  6 37  1  0  0  0  0
  6 38  1  0  0  0  0
  7  8  1  0  0  0  0
  8  9  1  0  0  0  0
  8 39  1  0  0  0  0
  8 40  1  0  0  0  0
  9 41  1  0  0  0  0
  9 42  1  0  0  0  0
 10 11  1  0  0  0  0
 10 12  1  0  0  0  0
 11 43  1  0  0  0  0
 11 44  1  0  0  0  0
 11 45  1  0  0  0  0
 12 17  1  0  0  0  0
 12 13  2  0  0  0  0
 13 14  1  0  0  0  0
 14 15  2  0  0  0  0
 14 46  1  0  0  0  0
 15 16  1  0  0  0  0
 16 20  1  0  0  0  0
 16 17  2  0  0  0  0
 17 18  1  0  0  0  0
 18 19  2  0  0  0  0
 19 20  1  0  0  0  0
 19 47  1  0  0  0  0
 20 21  1  0  0  0  0
 21 22  1  0  0  0  0
 21 48  1  0  0  0  0
 21 49  1  0  0  0  0
 22 23  1  0  0  0  0
 22 24  1  0  0  0  0
 22 50  1  0  0  0  0
 23 51  1  0  0  0  0
 24 28  1  0  0  0  0
 24 25  1  0  0  0  0
 24 52  1  0  0  0  0
 25 26  1  0  0  0  0
 25 53  1  0  0  0  0
 25 54  1  0  0  0  0
 26 27  1  0  0  0  0
 26 55  1  0  0  0  0
 26 56  1  0  0  0  0
 27 28  1  0  0  0  0
 27 57  1  0  0  0  0
 27 58  1  0  0  0  0
M  END
> <s_m_source_file>
AV-unprocessed.smi

> <i_m_source_file_index>
213

> <i_lp_mmshare_version>
43012

> <i_f3d_flags>
0

> <s_epik_input>
W0NIMl0xW0NIMl1PW0NIMl1bQ0gyXU4xW0NIMl1bQ0BASF0oW0NIM10pTihbQ0gzXSljKG5bY0hdbjIpYyhjMjMpbltjSF1uM1tDSDJdW0NASF0oW09IXSlbQ0BASF00W0NIMl1bQ0gyXVtDSDJdTzQ=

> <s_epik_cmdline>
J2VwaWtfcHl0aG9uJywgJy1waCcsICc3LjAnLCAnLXRuJywgJzgnLCAnLW1hJywgJzIwMCcsICctbWV0YWxfYmluZGluZycsICctaW1hZScsICc8aW5maWxlLm1hZT4nLCAnLW9tYWUnLCAnPG91dGZpbGUubWFlPic=

> <r_lp_tautomer_probability>
1

> <r_epik_Ionization_Penalty>
0.423322

> <r_epik_Ionization_Penalty_Charging>
0

> <r_epik_Ionization_Penalty_Neutral>
0.423322

> <r_epik_State_Penalty>
0.569486

> <r_epik_Charging_Adjusted_Penalty>
0.569486

> <i_epik_Tot_Q>
0

> <i_epik_Tot_abs_Q>
0

> <r_epik_Metal_State_Penalty>
0.568671

> <b_epik_Metal_Only>
0

> <s_lp_Force_Field>
OPLS_2005

> <r_lp_Energy>
55.7593

> <b_lp_Chiralities_Consistent>
1

> <s_lp_Variant>
AV-unprocessed.smi:213-10

> <Gold.Version>
5.8.1

> <Gold.Id.Protein>
6NUR|6NUR_protein|mol2

> <Gold.PLP.Fitness>
50.9658

> <Gold.PLP.PLP>
-47.8661

> <Gold.PLP.part.hbond>
-2.0000

> <Gold.PLP.part.metal>
0.0000

> <Gold.PLP.part.buried>
-9.0474

> <Gold.PLP.part.nonpolar>
-41.0569

> <Gold.PLP.part.repulsive>
2.4758

> <Gold.PLP.ligand.clash>
0.0000

> <Gold.PLP.ligand.torsion>
1.6282

> <Gold.PLP.Chemscore.Hbond>
0.9920

> <Gold.PLP.Chemscore.CHOScore>
1.0000

> <Gold.PLP.Chemscore.Metal>
0.0000

> <Gold.Chemscore.Hbonds>
donor molecule, donor type, donor heavy atom, donor atom, acceptor molecule, acceptor atom, score
      L1  H    23    51       P1 10171  1.00
      L1  C    19    47       P1 10171  1.00

> <Gold.PLP.Chemscore.Internal.Correction>
0.3801

> <Gold.Rescore>
     Score         DG    S(hbond)    S(metal)    S(lipo)     H(rot)  DE(clash)    DE(int)     intcor
     12.12     -15.29       1.00        0.00     115.31       2.74       0.39       2.77       ----

> <Gold.Chemscore.Fitness>
12.1230

> <Gold.Chemscore.DG>
-15.2880

> <Gold.Chemscore.ZeroCoef>
-5.4800

> <Gold.Chemscore.Hbond>
0.9955

> <Gold.Chemscore.Metal>
0.0000

> <Gold.Chemscore.Lipo>
115.3142

> <Gold.Chemscore.Internal_Hbond>
0.0000

> <Gold.Chemscore.DEClash>
0.3905

> <Gold.Chemscore.DEInternal>
2.7745

> <Gold.Chemscore.Rot>
2.7378

> <Gold.Chemscore.Internal.Correction>
   9.000000E+99

> <Gold.Chemscore.Hbonds>
donor molecule, donor type, donor heavy atom, donor atom, acceptor molecule, acceptor atom, score
      L1  H    23    51       P1 10171  0.94

> <Gold.Chemscore.Hbond.Weighted>
-3.3249

> <Gold.Chemscore.Metal.Weighted>
-0.0000

> <Gold.Chemscore.Lipo.Weighted>
-13.4918

> <Gold.Chemscore.Internal_Hbond.Weighted>
0.0000

> <Gold.Chemscore.DEClash.Weighted>
0.3905

> <Gold.Chemscore.DEInternal.Weighted>
2.7745

> <Gold.Chemscore.Rot.Weighted>
7.0087

> <Gold.Chemscore.Internal.Correction.Weighted>
   9.000000E+99

> <Gold.Protein.RotatedTorsions>
[ 6907 6896 6895 6894 ] final   96.48 input  -60.11 | X-H torsion
[ 7974 7965 7964 7962 ] final   12.04 input  175.53 | X-H torsion
[ 8008 7997 7996 7995 ] final  101.50 input   59.86 | X-H torsion
[ 10167 10162 10161 10158 ] final  -61.89 input  -65.29 | X-H torsion
[ 10718 10713 10712 10709 ] final  -32.35 input   66.30 | X-H torsion
[ 10763 10752 10751 10750 ] final   53.15 input  -60.55 | X-H torsion
[ 11005 11000 10999 10996 ] final   -4.41 input  -57.11 | X-H torsion

> <Gold.Protein.ActiveResidues>
 VAL166  LYS551  ARG553  GLY616  TRP617  ASP618  TYR619  PRO620  LYS621  CYS622 
 ASP623  PHE694  ASN695  SER759  ASP760  ASP761  ALA762  ILE779  LEU786  VAL792 
 PHE793  MET794  SER795  GLU796  ALA797  LYS798  CYS799  TRP800  GLU811  SER814 

> <Gold.Protein.RotatedAtoms>
  152.5434  134.0879  159.8263 H   0  0  0  0  0  0  0  0  0  0  0  0  # atno 6907 bound_to 6896
  151.0972  133.5263  159.2619 H   0  0  0  0  0  0  0  0  0  0  0  0  # atno 6908 bound_to 6896
  151.2032  135.0460  159.8935 H   0  0  0  0  0  0  0  0  0  0  0  0  # atno 6909 bound_to 6896
  146.2359  139.9396  142.8485 H   0  0  0  0  0  0  0  0  0  0  0  0  # atno 7974 bound_to 7965
  156.1305  140.3196  155.8342 H   0  0  0  0  0  0  0  0  0  0  0  0  # atno 8008 bound_to 7997
  155.4341  140.0521  157.3033 H   0  0  0  0  0  0  0  0  0  0  0  0  # atno 8009 bound_to 7997
  154.4896  140.2086  155.9592 H   0  0  0  0  0  0  0  0  0  0  0  0  # atno 8010 bound_to 7997
  140.5975  143.2354  151.6002 H   0  0  0  0  0  0  0  0  0  0  0  0  # atno 10167 bound_to 10162
  156.3760  130.4347  149.7507 H   0  0  0  0  0  0  0  0  0  0  0  0  # atno 10718 bound_to 10713
  152.9793  135.5788  154.4695 H   0  0  0  0  0  0  0  0  0  0  0  0  # atno 10763 bound_to 10752
  154.4260  135.2772  155.1946 H   0  0  0  0  0  0  0  0  0  0  0  0  # atno 10764 bound_to 10752
  154.3675  135.6175  153.5776 H   0  0  0  0  0  0  0  0  0  0  0  0  # atno 10765 bound_to 10752
  140.6799  133.9162  155.8549 H   0  0  0  0  0  0  0  0  0  0  0  0  # atno 11005 bound_to 11000
  145.1965  140.9835  143.4180 LP  0  0  0  0  0  0  0  0  0  0  0  0  # atno 17320 bound_to 7965
  144.9811  139.3783  143.6262 LP  0  0  0  0  0  0  0  0  0  0  0  0  # atno 17321 bound_to 7965
  139.5268  144.3034  152.1054 LP  0  0  0  0  0  0  0  0  0  0  0  0  # atno 17342 bound_to 10162
  140.2209  144.4467  150.6342 LP  0  0  0  0  0  0  0  0  0  0  0  0  # atno 17343 bound_to 10162
  156.4616  130.7954  151.2974 LP  0  0  0  0  0  0  0  0  0  0  0  0  # atno 17370 bound_to 10713
  157.7488  131.0064  150.3149 LP  0  0  0  0  0  0  0  0  0  0  0  0  # atno 17371 bound_to 10713
  141.0325  134.0735  157.3997 LP  0  0  0  0  0  0  0  0  0  0  0  0  # atno 17394 bound_to 11000
  139.8955  135.0141  156.7004 LP  0  0  0  0  0  0  0  0  0  0  0  0  # atno 17395 bound_to 11000

$$$$
