AV-unprocessed.smi:454|AV-procd|sdf|2612|dock5
  -GOLD-   2262023 13D 1   1.00000     0.00000
 Structure written by MMmdl.
 43 44  0  0  0  0  0  0  0  0  1 V2000
  143.7419  132.7037  148.8973 C   0  0  0  0  0  0  0  0  0  0  0  0
  144.1052  132.6993  150.2666 O   0  0  0  0  0  0  0  0  0  0  0  0
  145.5078  132.6104  150.4561 C   0  0  0  0  0  0  0  0  0  0  0  0
  145.7984  132.3266  151.9334 C   0  0  0  0  0  0  0  0  0  0  0  0
  147.2258  132.1747  152.1775 N   0  0  0  0  0  0  0  0  0  0  0  0
  147.9050  133.0691  153.0153 C   0  0  0  0  0  0  0  0  0  0  0  0
  147.1626  134.0749  153.6714 C   0  0  0  0  0  0  0  0  0  0  0  0
  147.8387  134.9820  154.5104 C   0  0  0  0  0  0  0  0  0  0  0  0
  149.2332  134.8497  154.6503 C   0  0  0  0  0  0  0  0  0  0  0  0
  150.1515  135.9728  155.6944 S   0  0  0  0  0  0  0  0  0  0  0  0
  149.2839  136.3786  156.8115 O   0  0  0  0  0  0  0  0  0  0  0  0
  151.4688  135.3770  155.9672 O   0  0  0  0  0  0  0  0  0  0  0  0
  150.3952  137.3622  154.6758 N   0  0  0  0  0  0  0  0  0  0  0  0
  151.7423  137.9494  154.5602 C   0  0  0  0  0  0  0  0  0  0  0  0
  151.8906  139.2014  155.4464 C   0  0  0  0  0  0  0  0  0  0  0  0
  150.8475  140.1753  155.1367 N   0  0  0  0  0  0  0  0  0  0  0  0
  151.0265  141.3561  155.9695 C   0  0  0  0  0  0  0  0  0  0  0  0
  149.5393  139.5855  155.4091 C   0  0  0  0  0  0  0  0  0  0  0  0
  149.3089  138.3466  154.5218 C   0  0  0  0  0  0  0  0  0  0  0  0
  149.8923  133.8090  153.9676 C   0  0  0  0  0  0  0  0  0  0  0  0
  149.2464  132.9397  153.1612 N   0  0  0  0  0  0  0  0  0  0  0  0
  142.6583  132.7774  148.8061 H   0  0  0  0  0  0  0  0  0  0  0  0
  144.0596  131.7851  148.4018 H   0  0  0  0  0  0  0  0  0  0  0  0
  144.1824  133.5540  148.3750 H   0  0  0  0  0  0  0  0  0  0  0  0
  145.9034  131.7963  149.8469 H   0  0  0  0  0  0  0  0  0  0  0  0
  146.0034  133.5285  150.1354 H   0  0  0  0  0  0  0  0  0  0  0  0
  145.3961  133.1265  152.5561 H   0  0  0  0  0  0  0  0  0  0  0  0
  145.2967  131.4042  152.2281 H   0  0  0  0  0  0  0  0  0  0  0  0
  147.7503  131.5364  151.5968 H   0  0  0  0  0  0  0  0  0  0  0  0
  146.0938  134.1535  153.5360 H   0  0  0  0  0  0  0  0  0  0  0  0
  147.2980  135.7650  155.0213 H   0  0  0  0  0  0  0  0  0  0  0  0
  152.5027  137.2117  154.8150 H   0  0  0  0  0  0  0  0  0  0  0  0
  151.9121  138.2187  153.5170 H   0  0  0  0  0  0  0  0  0  0  0  0
  151.8481  138.9319  156.5015 H   0  0  0  0  0  0  0  0  0  0  0  0
  152.8693  139.6515  155.2753 H   0  0  0  0  0  0  0  0  0  0  0  0
  150.2607  142.1002  155.7473 H   0  0  0  0  0  0  0  0  0  0  0  0
  151.9980  141.8140  155.7810 H   0  0  0  0  0  0  0  0  0  0  0  0
  150.9654  141.1092  157.0306 H   0  0  0  0  0  0  0  0  0  0  0  0
  149.4616  139.3228  156.4640 H   0  0  0  0  0  0  0  0  0  0  0  0
  148.7603  140.3223  155.2099 H   0  0  0  0  0  0  0  0  0  0  0  0
  149.2647  138.6503  153.4754 H   0  0  0  0  0  0  0  0  0  0  0  0
  148.3463  137.8903  154.7507 H   0  0  0  0  0  0  0  0  0  0  0  0
  150.9606  133.6767  154.0539 H   0  0  0  0  0  0  0  0  0  0  0  0
  1  2  1  0  0  0  0
  1 22  1  0  0  0  0
  1 23  1  0  0  0  0
  1 24  1  0  0  0  0
  2  3  1  0  0  0  0
  3  4  1  0  0  0  0
  3 25  1  0  0  0  0
  3 26  1  0  0  0  0
  4  5  1  0  0  0  0
  4 27  1  0  0  0  0
  4 28  1  0  0  0  0
  5  6  1  0  0  0  0
  5 29  1  0  0  0  0
  6 21  1  0  0  0  0
  6  7  2  0  0  0  0
  7  8  1  0  0  0  0
  7 30  1  0  0  0  0
  8  9  2  0  0  0  0
  8 31  1  0  0  0  0
  9 10  1  0  0  0  0
  9 20  1  0  0  0  0
 10 11  2  0  0  0  0
 10 12  2  0  0  0  0
 10 13  1  0  0  0  0
 13 19  1  0  0  0  0
 13 14  1  0  0  0  0
 14 15  1  0  0  0  0
 14 32  1  0  0  0  0
 14 33  1  0  0  0  0
 15 16  1  0  0  0  0
 15 34  1  0  0  0  0
 15 35  1  0  0  0  0
 16 17  1  0  0  0  0
 16 18  1  0  0  0  0
 17 36  1  0  0  0  0
 17 37  1  0  0  0  0
 17 38  1  0  0  0  0
 18 19  1  0  0  0  0
 18 39  1  0  0  0  0
 18 40  1  0  0  0  0
 19 41  1  0  0  0  0
 19 42  1  0  0  0  0
 20 21  2  0  0  0  0
 20 43  1  0  0  0  0
M  END
> <s_m_source_file>
AV-unprocessed.smi

> <i_m_source_file_index>
454

> <i_lp_mmshare_version>
43012

> <i_f3d_flags>
0

> <s_epik_input>
W0NIM11PW0NIMl1bQ0gyXVtOSF1jMVtjSF1bY0hdYyhbY0hdbjEpUyg9TykoPU8pTjJbQ0gyXVtDSDJdTihbQ0gzXSlbQ0gyXVtDSDJdMg==

> <s_epik_cmdline>
J2VwaWtfcHl0aG9uJywgJy1waCcsICc3LjAnLCAnLXRuJywgJzgnLCAnLW1hJywgJzIwMCcsICctbWV0YWxfYmluZGluZycsICctaW1hZScsICc8aW5maWxlLm1hZT4nLCAnLW9tYWUnLCAnPG91dGZpbGUubWFlPic=

> <r_lp_tautomer_probability>
1

> <r_epik_Ionization_Penalty>
0.0786276

> <r_epik_Ionization_Penalty_Charging>
0

> <r_epik_Ionization_Penalty_Neutral>
0.0786276

> <r_epik_State_Penalty>
0.0691961

> <r_epik_Charging_Adjusted_Penalty>
0.0691961

> <i_epik_Tot_Q>
0

> <i_epik_Tot_abs_Q>
0

> <r_epik_Metal_State_Penalty>
0.0691754

> <b_epik_Metal_Only>
0

> <s_lp_Force_Field>
OPLS_2005

> <r_lp_Energy>
0.101834

> <b_lp_Chiralities_Consistent>
1

> <s_lp_Variant>
AV-unprocessed.smi:454-1

> <Gold.Version>
5.8.1

> <Gold.Id.Protein>
6NUR|6NUR_protein|mol2

> <Gold.PLP.Fitness>
43.1791

> <Gold.PLP.PLP>
-34.7286

> <Gold.PLP.part.hbond>
-3.0000

> <Gold.PLP.part.metal>
0.0000

> <Gold.PLP.part.buried>
-3.1668

> <Gold.PLP.part.nonpolar>
-27.4646

> <Gold.PLP.part.repulsive>
0.4550

> <Gold.PLP.ligand.clash>
0.0000

> <Gold.PLP.ligand.torsion>
2.1113

> <Gold.PLP.Chemscore.Hbond>
2.8550

> <Gold.PLP.Chemscore.CHOScore>
0.0000

> <Gold.PLP.Chemscore.Metal>
0.0000

> <Gold.Chemscore.Hbonds>
donor molecule, donor type, donor heavy atom, donor atom, acceptor molecule, acceptor atom, score
      L1  H     5    29       P1 10747  1.00
      P1  H  7989  7998       L1    16  0.76
      P1  H 10752 10764       L1    12  1.00

> <Gold.PLP.Chemscore.Internal.Correction>
4.1080

> <Gold.Rescore>
     Score         DG    S(hbond)    S(metal)    S(lipo)     H(rot)  DE(clash)    DE(int)     intcor
     15.63     -17.91       2.05        0.00      78.28       1.40       0.16       2.12       ----

> <Gold.Chemscore.Fitness>
15.6334

> <Gold.Chemscore.DG>
-17.9123

> <Gold.Chemscore.ZeroCoef>
-5.4800

> <Gold.Chemscore.Hbond>
2.0510

> <Gold.Chemscore.Metal>
0.0000

> <Gold.Chemscore.Lipo>
78.2775

> <Gold.Chemscore.Internal_Hbond>
0.0000

> <Gold.Chemscore.DEClash>
0.1553

> <Gold.Chemscore.DEInternal>
2.1236

> <Gold.Chemscore.Rot>
1.3970

> <Gold.Chemscore.Internal.Correction>
   9.000000E+99

> <Gold.Chemscore.Hbonds>
donor molecule, donor type, donor heavy atom, donor atom, acceptor molecule, acceptor atom, score
      L1  H     5    29       P1 10747  0.99
      P1  H  7989  7998       L1    16  0.03
      P1  H 10752 10764       L1    12  0.99

> <Gold.Chemscore.Hbond.Weighted>
-6.8503

> <Gold.Chemscore.Metal.Weighted>
-0.0000

> <Gold.Chemscore.Lipo.Weighted>
-9.1585

> <Gold.Chemscore.Internal_Hbond.Weighted>
0.0000

> <Gold.Chemscore.DEClash.Weighted>
0.1553

> <Gold.Chemscore.DEInternal.Weighted>
2.1236

> <Gold.Chemscore.Rot.Weighted>
3.5764

> <Gold.Chemscore.Internal.Correction.Weighted>
   9.000000E+99

> <Gold.Protein.RotatedTorsions>
[ 6907 6896 6895 6894 ] final  -76.11 input  -60.11 | X-H torsion
[ 7974 7965 7964 7962 ] final   14.22 input  175.53 | X-H torsion
[ 8008 7997 7996 7995 ] final  111.60 input   59.86 | X-H torsion
[ 10167 10162 10161 10158 ] final  166.33 input  -65.29 | X-H torsion
[ 10718 10713 10712 10709 ] final  -94.95 input   66.30 | X-H torsion
[ 10763 10752 10751 10750 ] final  -38.86 input  -60.55 | X-H torsion
[ 11005 11000 10999 10996 ] final   37.92 input  -57.11 | X-H torsion

> <Gold.Protein.ActiveResidues>
 VAL166  LYS551  ARG553  GLY616  TRP617  ASP618  TYR619  PRO620  LYS621  CYS622 
 ASP623  PHE694  ASN695  SER759  ASP760  ASP761  ALA762  ILE779  LEU786  VAL792 
 PHE793  MET794  SER795  GLU796  ALA797  LYS798  CYS799  TRP800  GLU811  SER814 

> <Gold.Protein.RotatedAtoms>
  150.7037  134.4620  159.5384 H   0  0  0  0  0  0  0  0  0  0  0  0  # atno 6907 bound_to 6896
  152.2293  134.8334  160.0485 H   0  0  0  0  0  0  0  0  0  0  0  0  # atno 6908 bound_to 6896
  151.9156  133.3537  159.3916 H   0  0  0  0  0  0  0  0  0  0  0  0  # atno 6909 bound_to 6896
  146.2310  139.9074  142.8530 H   0  0  0  0  0  0  0  0  0  0  0  0  # atno 7974 bound_to 7965
  156.2135  140.3016  155.9786 H   0  0  0  0  0  0  0  0  0  0  0  0  # atno 8008 bound_to 7997
  155.2665  140.0432  157.3020 H   0  0  0  0  0  0  0  0  0  0  0  0  # atno 8009 bound_to 7997
  154.5733  140.2354  155.8167 H   0  0  0  0  0  0  0  0  0  0  0  0  # atno 8010 bound_to 7997
  139.4923  144.4038  151.9379 H   0  0  0  0  0  0  0  0  0  0  0  0  # atno 10167 bound_to 10162
  156.0035  130.5089  150.6003 H   0  0  0  0  0  0  0  0  0  0  0  0  # atno 10718 bound_to 10713
  153.9198  135.6783  153.4748 H   0  0  0  0  0  0  0  0  0  0  0  0  # atno 10763 bound_to 10752
  153.1034  135.4817  154.8905 H   0  0  0  0  0  0  0  0  0  0  0  0  # atno 10764 bound_to 10752
  154.7484  135.3178  154.8560 H   0  0  0  0  0  0  0  0  0  0  0  0  # atno 10765 bound_to 10752
  140.2178  134.3678  155.8019 H   0  0  0  0  0  0  0  0  0  0  0  0  # atno 11005 bound_to 11000
  145.2263  140.9955  143.4016 LP  0  0  0  0  0  0  0  0  0  0  0  0  # atno 17320 bound_to 7965
  144.9567  139.4023  143.6376 LP  0  0  0  0  0  0  0  0  0  0  0  0  # atno 17321 bound_to 7965
  140.3478  144.3126  150.5955 LP  0  0  0  0  0  0  0  0  0  0  0  0  # atno 17342 bound_to 10162
  140.5511  143.2206  151.7925 LP  0  0  0  0  0  0  0  0  0  0  0  0  # atno 17343 bound_to 10162
  157.3853  131.0787  151.1441 LP  0  0  0  0  0  0  0  0  0  0  0  0  # atno 17370 bound_to 10713
  157.2150  130.6455  149.5789 LP  0  0  0  0  0  0  0  0  0  0  0  0  # atno 17371 bound_to 10713
  141.2224  133.7177  156.8525 LP  0  0  0  0  0  0  0  0  0  0  0  0  # atno 17394 bound_to 11000
  140.1882  134.8984  157.3029 LP  0  0  0  0  0  0  0  0  0  0  0  0  # atno 17395 bound_to 11000

$$$$
