AV-unprocessed.smi:2424|AV-procd|sdf|9565|dock2
  -GOLD-   2272013193D 1   1.00000     0.00000
 Structure written by MMmdl.
 50 51  0  0  0  0  0  0  0  0  1 V2000
  150.5970  139.5922  154.6674 C   0  0  0  0  0  0  0  0  0  0  0  0
  149.3535  138.9041  154.0794 C   0  0  0  0  0  0  0  0  0  0  0  0
  148.0005  139.5908  154.4058 C   0  0  0  0  0  0  0  0  0  0  0  0
  147.9920  141.0049  153.7811 C   0  0  0  0  0  0  0  0  0  0  0  0
  146.6526  141.7538  153.8723 C   0  0  0  0  0  0  0  0  0  0  0  0
  146.7152  138.7619  154.1392 C   0  0  1  0  0  0  0  0  0  0  0  0
  146.8714  137.7085  153.1394 N   0  0  0  0  0  0  0  0  0  0  0  0
  145.9327  136.8122  152.8080 C   0  0  0  0  0  0  0  0  0  0  0  0
  144.8209  136.7736  153.3328 O   0  0  0  0  0  0  0  0  0  0  0  0
  146.3808  135.9900  151.8421 N   0  0  0  0  0  0  0  0  0  0  0  0
  145.7252  134.9266  151.2054 C   0  0  0  0  0  0  0  0  0  0  0  0
  144.4895  135.1524  150.7273 C   0  0  0  0  0  0  0  0  0  0  0  0
  143.7601  134.1539  150.0777 N   0  0  0  0  0  0  0  0  0  0  0  0
  144.2105  132.8957  149.8718 C   0  0  0  0  0  0  0  0  0  0  0  0
  143.5086  132.0701  149.2907 O   0  0  0  0  0  0  0  0  0  0  0  0
  145.5609  132.6152  150.3860 C   0  0  0  0  0  0  0  0  0  0  0  0
  146.1225  131.2182  150.1895 C   0  0  0  0  0  0  0  0  0  0  0  0
  146.2663  133.5843  151.0150 C   0  0  0  0  0  0  0  0  0  0  0  0
  146.7806  138.2212  155.5702 C   0  0  2  0  0  0  0  0  0  0  0  0
  145.4944  137.9069  156.3241 C   0  0  0  0  0  0  0  0  0  0  0  0
  147.5826  139.4894  155.9034 C   0  0  2  0  0  0  0  0  0  0  0  0
  146.7144  140.5289  156.3403 O   0  0  0  0  0  0  0  0  0  0  0  0
  147.4123  141.6616  156.8301 C   0  0  0  0  0  0  0  0  0  0  0  0
  142.8392  134.4008  149.7450 H   0  0  0  0  0  0  0  0  0  0  0  0
  151.4839  138.9809  154.5018 H   0  0  0  0  0  0  0  0  0  0  0  0
  150.5030  139.7474  155.7420 H   0  0  0  0  0  0  0  0  0  0  0  0
  150.7855  140.5589  154.2017 H   0  0  0  0  0  0  0  0  0  0  0  0
  149.4857  138.7942  153.0037 H   0  0  0  0  0  0  0  0  0  0  0  0
  149.3501  137.8814  154.4565 H   0  0  0  0  0  0  0  0  0  0  0  0
  148.7317  141.6289  154.2832 H   0  0  0  0  0  0  0  0  0  0  0  0
  148.3165  140.9765  152.7419 H   0  0  0  0  0  0  0  0  0  0  0  0
  146.7585  142.7698  153.4922 H   0  0  0  0  0  0  0  0  0  0  0  0
  146.3057  141.8274  154.9020 H   0  0  0  0  0  0  0  0  0  0  0  0
  145.8722  141.2730  153.2838 H   0  0  0  0  0  0  0  0  0  0  0  0
  145.8367  139.3964  153.9985 H   0  0  0  0  0  0  0  0  0  0  0  0
  147.7583  137.6677  152.6594 H   0  0  0  0  0  0  0  0  0  0  0  0
  147.3236  136.1552  151.5214 H   0  0  0  0  0  0  0  0  0  0  0  0
  143.9704  136.0972  150.8007 H   0  0  0  0  0  0  0  0  0  0  0  0
  147.1275  131.1293  150.6034 H   0  0  0  0  0  0  0  0  0  0  0  0
  146.1729  130.9731  149.1281 H   0  0  0  0  0  0  0  0  0  0  0  0
  145.4891  130.4804  150.6829 H   0  0  0  0  0  0  0  0  0  0  0  0
  147.2483  133.3259  151.3753 H   0  0  0  0  0  0  0  0  0  0  0  0
  147.4547  137.3639  155.6170 H   0  0  0  0  0  0  0  0  0  0  0  0
  144.7637  138.7101  156.2258 H   0  0  0  0  0  0  0  0  0  0  0  0
  145.6862  137.7628  157.3874 H   0  0  0  0  0  0  0  0  0  0  0  0
  145.0308  136.9960  155.9450 H   0  0  0  0  0  0  0  0  0  0  0  0
  148.3949  139.2826  156.6022 H   0  0  0  0  0  0  0  0  0  0  0  0
  146.7002  142.4399  157.1042 H   0  0  0  0  0  0  0  0  0  0  0  0
  148.0891  142.0727  156.0811 H   0  0  0  0  0  0  0  0  0  0  0  0
  147.9907  141.4082  157.7192 H   0  0  0  0  0  0  0  0  0  0  0  0
  1  2  1  0  0  0  0
  1 25  1  0  0  0  0
  1 26  1  0  0  0  0
  1 27  1  0  0  0  0
  2  3  1  0  0  0  0
  2 28  1  0  0  0  0
  2 29  1  0  0  0  0
  3 21  1  0  0  0  0
  3  4  1  0  0  0  0
  3  6  1  0  0  0  0
  4  5  1  0  0  0  0
  4 30  1  0  0  0  0
  4 31  1  0  0  0  0
  5 32  1  0  0  0  0
  5 33  1  0  0  0  0
  5 34  1  0  0  0  0
  6  7  1  0  0  0  0
  6 19  1  0  0  0  0
  6 35  1  0  0  0  0
  7  8  1  0  0  0  0
  7 36  1  0  0  0  0
  8  9  2  0  0  0  0
  8 10  1  0  0  0  0
 10 11  1  0  0  0  0
 10 37  1  0  0  0  0
 11 18  1  0  0  0  0
 11 12  2  0  0  0  0
 12 13  1  0  0  0  0
 12 38  1  0  0  0  0
 13 24  1  0  0  0  0
 13 14  1  0  0  0  0
 14 15  2  0  0  0  0
 14 16  1  0  0  0  0
 16 17  1  0  0  0  0
 16 18  2  0  0  0  0
 17 39  1  0  0  0  0
 17 40  1  0  0  0  0
 17 41  1  0  0  0  0
 18 42  1  0  0  0  0
 19 20  1  0  0  0  0
 19 21  1  0  0  0  0
 19 43  1  0  0  0  0
 20 44  1  0  0  0  0
 20 45  1  0  0  0  0
 20 46  1  0  0  0  0
 21 22  1  0  0  0  0
 21 47  1  0  0  0  0
 22 23  1  0  0  0  0
 23 48  1  0  0  0  0
 23 49  1  0  0  0  0
 23 50  1  0  0  0  0
M  END
> <s_m_source_file>
AV-unprocessed.smi

> <i_m_source_file_index>
2424

> <i_lp_mmshare_version>
43012

> <i_f3d_flags>
0

> <s_epik_input>
W0NIM11PW0NAQEhdMVtDQEhdKFtDSDNdKVtDQEBIXShDMShbQ0gyXVtDSDNdKVtDSDJdW0NIM10pW05IXUMoPU8pW05IXWMyW2NIXVtuSF1jKD1PKWMoW0NIM10pW2NIXTI=

> <s_epik_cmdline>
J2VwaWtfcHl0aG9uJywgJy1waCcsICc3LjAnLCAnLXRuJywgJzgnLCAnLW1hJywgJzIwMCcsICctbWV0YWxfYmluZGluZycsICctaW1hZScsICc8aW5maWxlLm1hZT4nLCAnLW9tYWUnLCAnPG91dGZpbGUubWFlPic=

> <r_lp_tautomer_probability>
1

> <r_epik_Ionization_Penalty>
4.7326e-05

> <r_epik_Ionization_Penalty_Charging>
2.70169e-05

> <r_epik_Ionization_Penalty_Neutral>
2.0309e-05

> <r_epik_State_Penalty>
-0

> <r_epik_Charging_Adjusted_Penalty>
2.70169e-05

> <i_epik_Tot_Q>
0

> <i_epik_Tot_abs_Q>
0

> <r_epik_Metal_State_Penalty>
0.0198736

> <b_epik_Metal_Only>
0

> <s_lp_Force_Field>
OPLS_2005

> <r_lp_Energy>
37.615

> <b_lp_Chiralities_Consistent>
1

> <s_lp_Variant>
AV-unprocessed.smi:2424-7

> <Gold.Version>
5.8.1

> <Gold.Id.Protein>
6NUR|6NUR_protein|mol2

> <Gold.PLP.Fitness>
47.5550

> <Gold.PLP.PLP>
-34.7405

> <Gold.PLP.part.hbond>
-4.0563

> <Gold.PLP.part.metal>
0.0000

> <Gold.PLP.part.buried>
-4.5462

> <Gold.PLP.part.nonpolar>
-27.4993

> <Gold.PLP.part.repulsive>
0.5794

> <Gold.PLP.ligand.clash>
0.0000

> <Gold.PLP.ligand.torsion>
0.9138

> <Gold.PLP.Chemscore.Hbond>
3.6210

> <Gold.PLP.Chemscore.CHOScore>
1.0000

> <Gold.PLP.Chemscore.Metal>
0.0000

> <Gold.Chemscore.Hbonds>
donor molecule, donor type, donor heavy atom, donor atom, acceptor molecule, acceptor atom, score
      L1  H     7    36       P1  7948  0.75
      L1  H    10    37       P1  7948  1.00
      L1  H    13    24       P1 10186  1.00
      P1  H 10785 10796       L1    15  0.98
      L1  C    12    38       P1 10171  0.66

> <Gold.PLP.Chemscore.Internal.Correction>
0.7791

> <Gold.Rescore>
     Score         DG    S(hbond)    S(metal)    S(lipo)     H(rot)  DE(clash)    DE(int)     intcor
     20.15     -22.68       3.60        0.00      78.26       1.55       0.09       2.43       ----

> <Gold.Chemscore.Fitness>
20.1527

> <Gold.Chemscore.DG>
-22.6775

> <Gold.Chemscore.ZeroCoef>
-5.4800

> <Gold.Chemscore.Hbond>
3.5958

> <Gold.Chemscore.Metal>
0.0000

> <Gold.Chemscore.Lipo>
78.2551

> <Gold.Chemscore.Internal_Hbond>
0.0000

> <Gold.Chemscore.DEClash>
0.0918

> <Gold.Chemscore.DEInternal>
2.4329

> <Gold.Chemscore.Rot>
1.5502

> <Gold.Chemscore.Internal.Correction>
   9.000000E+99

> <Gold.Chemscore.Hbonds>
donor molecule, donor type, donor heavy atom, donor atom, acceptor molecule, acceptor atom, score
      L1  H     7    36       P1  7948  0.72
      L1  H    10    37       P1  7948  0.95
      L1  H    13    24       P1 10186  0.98
      P1  H 10785 10796       L1    15  0.87

> <Gold.Chemscore.Hbond.Weighted>
-12.0101

> <Gold.Chemscore.Metal.Weighted>
-0.0000

> <Gold.Chemscore.Lipo.Weighted>
-9.1559

> <Gold.Chemscore.Internal_Hbond.Weighted>
0.0000

> <Gold.Chemscore.DEClash.Weighted>
0.0918

> <Gold.Chemscore.DEInternal.Weighted>
2.4329

> <Gold.Chemscore.Rot.Weighted>
3.9685

> <Gold.Chemscore.Internal.Correction.Weighted>
   9.000000E+99

> <Gold.Protein.RotatedTorsions>
[ 6907 6896 6895 6894 ] final  159.63 input  -60.11 | X-H torsion
[ 7974 7965 7964 7962 ] final -127.42 input  175.53 | X-H torsion
[ 8008 7997 7996 7995 ] final  -39.41 input   59.86 | X-H torsion
[ 10167 10162 10161 10158 ] final    2.86 input  -65.29 | X-H torsion
[ 10718 10713 10712 10709 ] final  145.39 input   66.30 | X-H torsion
[ 10763 10752 10751 10750 ] final -126.56 input  -60.55 | X-H torsion
[ 11005 11000 10999 10996 ] final  151.25 input  -57.11 | X-H torsion

> <Gold.Protein.ActiveResidues>
 VAL166  LYS551  ARG553  GLY616  TRP617  ASP618  TYR619  PRO620  LYS621  CYS622 
 ASP623  PHE694  ASN695  SER759  ASP760  ASP761  ALA762  ILE779  LEU786  VAL792 
 PHE793  MET794  SER795  GLU796  ALA797  LYS798  CYS799  TRP800  GLU811  SER814 

> <Gold.Protein.RotatedAtoms>
  151.9827  133.3763  159.4113 H   0  0  0  0  0  0  0  0  0  0  0  0  # atno 6907 bound_to 6896
  150.6932  134.4021  159.5133 H   0  0  0  0  0  0  0  0  0  0  0  0  # atno 6908 bound_to 6896
  152.1743  134.8808  160.0582 H   0  0  0  0  0  0  0  0  0  0  0  0  # atno 6909 bound_to 6896
  144.9772  140.7605  143.4634 H   0  0  0  0  0  0  0  0  0  0  0  0  # atno 7974 bound_to 7965
  154.4023  140.1552  156.2858 H   0  0  0  0  0  0  0  0  0  0  0  0  # atno 8008 bound_to 7997
  155.8829  140.3443  155.5879 H   0  0  0  0  0  0  0  0  0  0  0  0  # atno 8009 bound_to 7997
  155.7647  140.0822  157.2129 H   0  0  0  0  0  0  0  0  0  0  0  0  # atno 8010 bound_to 7997
  140.6614  143.7293  150.7746 H   0  0  0  0  0  0  0  0  0  0  0  0  # atno 10167 bound_to 10162
  157.3459  131.0943  151.1042 H   0  0  0  0  0  0  0  0  0  0  0  0  # atno 10718 bound_to 10713
  154.8746  135.3991  154.3451 H   0  0  0  0  0  0  0  0  0  0  0  0  # atno 10763 bound_to 10752
  153.4245  135.7024  153.6277 H   0  0  0  0  0  0  0  0  0  0  0  0  # atno 10764 bound_to 10752
  153.4925  135.3745  155.2469 H   0  0  0  0  0  0  0  0  0  0  0  0  # atno 10765 bound_to 10752
  140.1203  134.8868  157.2062 H   0  0  0  0  0  0  0  0  0  0  0  0  # atno 11005 bound_to 11000
  145.2473  139.2047  143.4961 LP  0  0  0  0  0  0  0  0  0  0  0  0  # atno 17320 bound_to 7965
  146.3398  140.2379  142.8595 LP  0  0  0  0  0  0  0  0  0  0  0  0  # atno 17321 bound_to 7965
  140.0963  143.4830  152.2451 LP  0  0  0  0  0  0  0  0  0  0  0  0  # atno 17342 bound_to 10162
  139.5849  144.7527  151.3545 LP  0  0  0  0  0  0  0  0  0  0  0  0  # atno 17343 bound_to 10162
  157.2237  130.6493  149.5821 LP  0  0  0  0  0  0  0  0  0  0  0  0  # atno 17370 bound_to 10713
  155.9714  130.4621  150.6133 LP  0  0  0  0  0  0  0  0  0  0  0  0  # atno 17371 bound_to 10713
  140.2974  134.3170  155.7298 LP  0  0  0  0  0  0  0  0  0  0  0  0  # atno 17394 bound_to 11000
  141.2150  133.7571  156.9592 LP  0  0  0  0  0  0  0  0  0  0  0  0  # atno 17395 bound_to 11000

$$$$
