AV-unprocessed.smi:1718|AV-procd|sdf|6929|dock4
  -GOLD-   22720 8143D 1   1.00000     0.00000
 Structure written by MMmdl.
 39 40  0  0  0  0  0  0  0  0  2 V2000
  147.9360  138.9785  157.8216 C   0  0  0  0  0  0  0  0  0  0  0  0
  149.3583  138.4356  158.0255 C   0  0  1  0  0  0  0  0  0  0  0  0
  150.1751  139.5199  158.4578 O   0  0  0  0  0  0  0  0  0  0  0  0
  150.1783  140.6581  157.6037 C   0  0  0  0  0  0  0  0  0  0  0  0
  150.7418  141.8542  158.3791 C   0  0  1  0  0  0  0  0  0  0  0  0
  152.1849  141.6685  158.8475 C   0  0  0  0  0  0  0  0  0  0  0  0
  152.6594  143.0998  158.9475 C   0  0  0  0  0  0  0  0  0  0  0  0
  151.9774  143.7350  157.7398 C   0  0  0  0  0  0  0  0  0  0  0  0
  150.7589  143.0186  157.5566 O   0  0  0  0  0  0  0  0  0  0  0  0
  149.3833  137.3064  159.0685 C   0  0  0  0  0  0  0  0  0  0  0  0
  150.4622  136.9294  159.5258 O   0  0  0  0  0  0  0  0  0  0  0  0
  148.1783  136.8070  159.4059 N   0  0  0  0  0  0  0  0  0  0  0  0
  147.8629  135.7481  160.2735 C   0  0  0  0  0  0  0  0  0  0  0  0
  147.7940  134.4385  159.9062 C   0  0  0  0  0  0  0  0  0  0  0  0
  147.4444  133.3819  160.8471 C   0  0  0  0  0  0  0  0  0  0  0  0
  147.4602  131.9039  160.4992 C   0  0  0  0  0  0  0  0  0  0  0  0
  147.8004  131.7152  159.2239 F   0  0  0  0  0  0  0  0  0  0  0  0
  148.3459  131.2671  161.2639 F   0  0  0  0  0  0  0  0  0  0  0  0
  146.2635  131.3523  160.7014 F   0  0  0  0  0  0  0  0  0  0  0  0
  147.2051  133.8695  162.1173 C   0  0  0  0  0  0  0  0  0  0  0  0
  147.2218  135.1474  162.5555 N   0  5  0  0  0  0  0  0  0  0  0  0
  147.5513  136.1273  161.6671 C   0  0  0  0  0  0  0  0  0  0  0  0
  147.5931  137.3120  162.0007 O   0  0  0  0  0  0  0  0  0  0  0  0
  147.2516  138.1889  157.5095 H   0  0  0  0  0  0  0  0  0  0  0  0
  147.9237  139.7480  157.0497 H   0  0  0  0  0  0  0  0  0  0  0  0
  147.5409  139.4239  158.7354 H   0  0  0  0  0  0  0  0  0  0  0  0
  149.7241  138.0660  157.0654 H   0  0  0  0  0  0  0  0  0  0  0  0
  150.7694  140.4902  156.7028 H   0  0  0  0  0  0  0  0  0  0  0  0
  149.1568  140.8726  157.2863 H   0  0  0  0  0  0  0  0  0  0  0  0
  150.1065  142.0749  159.2384 H   0  0  0  0  0  0  0  0  0  0  0  0
  152.2594  141.1243  159.7894 H   0  0  0  0  0  0  0  0  0  0  0  0
  152.7700  141.1343  158.0975 H   0  0  0  0  0  0  0  0  0  0  0  0
  152.2928  143.5528  159.8699 H   0  0  0  0  0  0  0  0  0  0  0  0
  153.7450  143.1966  158.9248 H   0  0  0  0  0  0  0  0  0  0  0  0
  151.7969  144.8014  157.8768 H   0  0  0  0  0  0  0  0  0  0  0  0
  152.5907  143.6068  156.8469 H   0  0  0  0  0  0  0  0  0  0  0  0
  147.3747  137.2709  159.0074 H   0  0  0  0  0  0  0  0  0  0  0  0
  147.9760  134.1405  158.8867 H   0  0  0  0  0  0  0  0  0  0  0  0
  146.9702  133.1184  162.9015 H   0  0  0  0  0  0  0  0  0  0  0  0
  1  2  1  0  0  0  0
  1 24  1  0  0  0  0
  1 25  1  0  0  0  0
  1 26  1  0  0  0  0
  2  3  1  0  0  0  0
  2 10  1  0  0  0  0
  2 27  1  0  0  0  0
  3  4  1  0  0  0  0
  4  5  1  0  0  0  0
  4 28  1  0  0  0  0
  4 29  1  0  0  0  0
  5  9  1  0  0  0  0
  5  6  1  0  0  0  0
  5 30  1  0  0  0  0
  6  7  1  0  0  0  0
  6 31  1  0  0  0  0
  6 32  1  0  0  0  0
  7  8  1  0  0  0  0
  7 33  1  0  0  0  0
  7 34  1  0  0  0  0
  8  9  1  0  0  0  0
  8 35  1  0  0  0  0
  8 36  1  0  0  0  0
 10 11  2  0  0  0  0
 10 12  1  0  0  0  0
 12 13  1  0  0  0  0
 12 37  1  0  0  0  0
 13 22  1  0  0  0  0
 13 14  2  0  0  0  0
 14 15  1  0  0  0  0
 14 38  1  0  0  0  0
 15 16  1  0  0  0  0
 15 20  2  0  0  0  0
 16 17  1  0  0  0  0
 16 18  1  0  0  0  0
 16 19  1  0  0  0  0
 20 21  1  0  0  0  0
 20 39  1  0  0  0  0
 21 22  1  0  0  0  0
 22 23  2  0  0  0  0
M  CHG  1  21  -1
M  END
> <s_m_source_file>
AV-unprocessed.smi

> <i_m_source_file_index>
1718

> <i_lp_mmshare_version>
43012

> <i_f3d_flags>
0

> <s_epik_input>
TzFbQ0gyXVtDSDJdW0NIMl1bQ0BIXTFbQ0gyXU9bQ0BASF0oW0NIM10pQyg9TylbTkhdYzJbY0hdYyhDKEYpKEYpRilbY0hdW25IXWMyPU8=

> <s_epik_cmdline>
J2VwaWtfcHl0aG9uJywgJy1waCcsICc3LjAnLCAnLXRuJywgJzgnLCAnLW1hJywgJzIwMCcsICctbWV0YWxfYmluZGluZycsICctaW1hZScsICc8aW5maWxlLm1hZT4nLCAnLW9tYWUnLCAnPG91dGZpbGUubWFlPic=

> <r_epik_Ionization_Penalty>
2.5466

> <r_epik_Ionization_Penalty_Charging>
0.0575837

> <r_epik_Ionization_Penalty_Neutral>
2.48901

> <r_epik_State_Penalty>
2.6532

> <r_epik_Charging_Adjusted_Penalty>
2.71078

> <i_epik_Tot_Q>
-1

> <i_epik_Tot_abs_Q>
1

> <r_epik_Metal_State_Penalty>
0.516196

> <b_epik_Metal_Only>
0

> <s_lp_Force_Field>
OPLS_2005

> <r_lp_Energy>
35.9934

> <b_lp_Chiralities_Consistent>
1

> <s_lp_Variant>
AV-unprocessed.smi:1718-8

> <Gold.Version>
5.8.1

> <Gold.Id.Protein>
6NUR|6NUR_protein|mol2

> <Gold.PLP.Fitness>
41.4843

> <Gold.PLP.PLP>
-37.8528

> <Gold.PLP.part.hbond>
-3.2405

> <Gold.PLP.part.metal>
0.0000

> <Gold.PLP.part.buried>
-6.0342

> <Gold.PLP.part.nonpolar>
-29.3538

> <Gold.PLP.part.repulsive>
0.4833

> <Gold.PLP.ligand.clash>
1.8413

> <Gold.PLP.ligand.torsion>
1.1331

> <Gold.PLP.Chemscore.Hbond>
2.5360

> <Gold.PLP.Chemscore.CHOScore>
0.0000

> <Gold.PLP.Chemscore.Metal>
0.0000

> <Gold.Chemscore.Hbonds>
donor molecule, donor type, donor heavy atom, donor atom, acceptor molecule, acceptor atom, score
      P1  H  6896  6907       L1    11  1.00
      P1  H  6931  6943       L1    23  0.90
      P1  H  6934  6947       L1    23  0.60

> <Gold.PLP.Chemscore.Internal.Correction>
0.1310

> <Gold.Rescore>
     Score         DG    S(hbond)    S(metal)    S(lipo)     H(rot)  DE(clash)    DE(int)     intcor
     17.22     -18.31       2.65        0.00      74.34       1.85       0.00       1.10       ----

> <Gold.Chemscore.Fitness>
17.2172

> <Gold.Chemscore.DG>
-18.3134

> <Gold.Chemscore.ZeroCoef>
-5.4800

> <Gold.Chemscore.Hbond>
2.6529

> <Gold.Chemscore.Metal>
0.0000

> <Gold.Chemscore.Lipo>
74.3359

> <Gold.Chemscore.Internal_Hbond>
0.0000

> <Gold.Chemscore.DEClash>
0.0000

> <Gold.Chemscore.DEInternal>
1.0962

> <Gold.Chemscore.Rot>
1.8455

> <Gold.Chemscore.Internal.Correction>
   9.000000E+99

> <Gold.Chemscore.Hbonds>
donor molecule, donor type, donor heavy atom, donor atom, acceptor molecule, acceptor atom, score
      P1  H  6896  6907       L1    11  0.97
      P1  H  6931  6943       L1    23  0.87
      P1  H  6934  6947       L1    23  0.57

> <Gold.Chemscore.Hbond.Weighted>
-8.8606

> <Gold.Chemscore.Metal.Weighted>
-0.0000

> <Gold.Chemscore.Lipo.Weighted>
-8.6973

> <Gold.Chemscore.Internal_Hbond.Weighted>
0.0000

> <Gold.Chemscore.DEClash.Weighted>
0.0000

> <Gold.Chemscore.DEInternal.Weighted>
1.0962

> <Gold.Chemscore.Rot.Weighted>
4.7245

> <Gold.Chemscore.Internal.Correction.Weighted>
   9.000000E+99

> <Gold.Protein.RotatedTorsions>
[ 6907 6896 6895 6894 ] final  -29.37 input  -60.11 | X-H torsion
[ 7974 7965 7964 7962 ] final   33.16 input  175.53 | X-H torsion
[ 8008 7997 7996 7995 ] final   25.26 input   59.86 | X-H torsion
[ 10167 10162 10161 10158 ] final   98.43 input  -65.29 | X-H torsion
[ 10718 10713 10712 10709 ] final  150.88 input   66.30 | X-H torsion
[ 10763 10752 10751 10750 ] final  116.87 input  -60.55 | X-H torsion
[ 11005 11000 10999 10996 ] final  -49.98 input  -57.11 | X-H torsion

> <Gold.Protein.ActiveResidues>
 VAL166  LYS551  ARG553  GLY616  TRP617  ASP618  TYR619  PRO620  LYS621  CYS622 
 ASP623  PHE694  ASN695  SER759  ASP760  ASP761  ALA762  ILE779  LEU786  VAL792 
 PHE793  MET794  SER795  GLU796  ALA797  LYS798  CYS799  TRP800  GLU811  SER814 

> <Gold.Protein.RotatedAtoms>
  151.1200  135.0074  159.8533 H   0  0  0  0  0  0  0  0  0  0  0  0  # atno 6907 bound_to 6896
  152.5447  134.1733  159.8616 H   0  0  0  0  0  0  0  0  0  0  0  0  # atno 6908 bound_to 6896
  151.1791  133.4691  159.2627 H   0  0  0  0  0  0  0  0  0  0  0  0  # atno 6909 bound_to 6896
  146.1439  139.6432  142.9144 H   0  0  0  0  0  0  0  0  0  0  0  0  # atno 7974 bound_to 7965
  155.0089  140.3134  155.4837 H   0  0  0  0  0  0  0  0  0  0  0  0  # atno 8008 bound_to 7997
  156.2912  140.2218  156.5144 H   0  0  0  0  0  0  0  0  0  0  0  0  # atno 8009 bound_to 7997
  154.7552  140.0463  157.0915 H   0  0  0  0  0  0  0  0  0  0  0  0  # atno 8010 bound_to 7997
  139.7710  144.6922  151.0156 H   0  0  0  0  0  0  0  0  0  0  0  0  # atno 10167 bound_to 10162
  157.2778  131.0829  151.1553 H   0  0  0  0  0  0  0  0  0  0  0  0  # atno 10718 bound_to 10713
  153.5438  135.3553  155.2730 H   0  0  0  0  0  0  0  0  0  0  0  0  # atno 10763 bound_to 10752
  154.8714  135.4097  154.3014 H   0  0  0  0  0  0  0  0  0  0  0  0  # atno 10764 bound_to 10752
  153.3726  135.7065  153.6694 H   0  0  0  0  0  0  0  0  0  0  0  0  # atno 10765 bound_to 10752
  141.0790  133.6658  156.3665 H   0  0  0  0  0  0  0  0  0  0  0  0  # atno 11005 bound_to 11000
  145.4983  141.0438  143.2554 LP  0  0  0  0  0  0  0  0  0  0  0  0  # atno 17320 bound_to 7965
  144.7823  139.6499  143.7149 LP  0  0  0  0  0  0  0  0  0  0  0  0  # atno 17321 bound_to 7965
  140.7814  143.4589  151.0306 LP  0  0  0  0  0  0  0  0  0  0  0  0  # atno 17342 bound_to 10162
  139.8272  143.7739  152.3179 LP  0  0  0  0  0  0  0  0  0  0  0  0  # atno 17343 bound_to 10162
  157.2999  130.6838  149.6158 LP  0  0  0  0  0  0  0  0  0  0  0  0  # atno 17370 bound_to 10713
  155.9664  130.4395  150.5261 LP  0  0  0  0  0  0  0  0  0  0  0  0  # atno 17371 bound_to 10713
  140.5510  134.6028  157.5407 LP  0  0  0  0  0  0  0  0  0  0  0  0  # atno 17394 bound_to 11000
  139.9603  134.7464  156.0251 LP  0  0  0  0  0  0  0  0  0  0  0  0  # atno 17395 bound_to 11000

$$$$
