AV-unprocessed.smi:86|AV-procd|sdf|812|dock9
  -GOLD-   2262017213D 1   1.00000     0.00000
 Structure written by MMmdl.
 51 55  0  0  0  0  0  0  0  0  1 V2000
  155.3589  144.4151  169.7823 O   0  0  0  0  0  0  0  0  0  0  0  0
  155.9435  144.2101  168.5123 C   0  0  0  0  0  0  0  0  0  0  0  0
  156.3740  142.7451  168.3226 C   0  0  0  0  0  0  0  0  0  0  0  0
  157.0071  142.5448  166.9307 C   0  0  0  0  0  0  0  0  0  0  0  0
  156.0691  142.7088  165.8301 N   0  0  0  0  0  0  0  0  0  0  0  0
  155.3075  143.8211  165.5538 C   0  0  0  0  0  0  0  0  0  0  0  0
  154.5360  143.7200  164.5067 N   0  0  0  0  0  0  0  0  0  0  0  0
  154.7951  142.4480  164.0072 C   0  0  0  0  0  0  0  0  0  0  0  0
  154.3100  141.6897  162.9008 C   0  0  0  0  0  0  0  0  0  0  0  0
  153.3851  142.1376  162.0139 N   0  0  0  0  0  0  0  0  0  0  0  0
  152.8851  143.5110  162.0280 C   0  0  0  0  0  0  0  0  0  0  0  0
  152.5659  143.8059  160.5611 C   0  0  2  0  0  0  0  0  0  0  0  0
  151.4906  144.8475  160.2302 C   0  0  0  0  0  0  0  0  0  0  0  0
  151.2996  144.9033  158.6985 C   0  0  0  0  0  0  0  0  0  0  0  0
  151.0156  143.5087  158.0871 C   0  0  1  0  0  0  0  0  0  0  0  0
  150.9792  143.6099  156.6792 O   0  0  0  0  0  0  0  0  0  0  0  0
  152.0683  142.4549  158.5010 C   0  0  0  0  0  0  0  0  0  0  0  0
  152.1704  142.4346  160.0307 C   0  0  1  0  0  0  0  0  0  0  0  0
  153.2160  141.5395  160.6910 C   0  0  0  0  0  0  0  0  0  0  0  0
  154.8004  140.4314  162.7466 N   0  0  0  0  0  0  0  0  0  0  0  0
  155.7114  139.9489  163.5959 C   0  0  0  0  0  0  0  0  0  0  0  0
  156.2565  140.5422  164.6582 N   0  0  0  0  0  0  0  0  0  0  0  0
  155.7604  141.8004  164.8314 C   0  0  0  0  0  0  0  0  0  0  0  0
  157.1552  142.1580  169.5072 C   0  0  0  0  0  0  0  0  0  0  0  0
  155.9936  141.4582  170.0004 O   0  0  0  0  0  0  0  0  0  0  0  0
  155.3283  141.7027  168.7427 C   0  0  0  0  0  0  0  0  0  0  0  0
  154.4206  144.3440  169.6955 H   0  0  0  0  0  0  0  0  0  0  0  0
  155.2423  144.5284  167.7409 H   0  0  0  0  0  0  0  0  0  0  0  0
  156.8030  144.8764  168.4311 H   0  0  0  0  0  0  0  0  0  0  0  0
  157.8199  143.2557  166.7772 H   0  0  0  0  0  0  0  0  0  0  0  0
  157.4670  141.5590  166.8521 H   0  0  0  0  0  0  0  0  0  0  0  0
  155.3374  144.7162  166.1573 H   0  0  0  0  0  0  0  0  0  0  0  0
  151.9889  143.5597  162.6472 H   0  0  0  0  0  0  0  0  0  0  0  0
  153.6178  144.2194  162.4157 H   0  0  0  0  0  0  0  0  0  0  0  0
  153.4974  144.1103  160.0790 H   0  0  0  0  0  0  0  0  0  0  0  0
  150.5495  144.5845  160.7149 H   0  0  0  0  0  0  0  0  0  0  0  0
  151.7804  145.8273  160.6109 H   0  0  0  0  0  0  0  0  0  0  0  0
  150.4892  145.5905  158.4539 H   0  0  0  0  0  0  0  0  0  0  0  0
  152.2010  145.3202  158.2461 H   0  0  0  0  0  0  0  0  0  0  0  0
  150.0320  143.1737  158.4192 H   0  0  0  0  0  0  0  0  0  0  0  0
  150.3856  144.3065  156.4440 H   0  0  0  0  0  0  0  0  0  0  0  0
  151.7884  141.4691  158.1278 H   0  0  0  0  0  0  0  0  0  0  0  0
  153.0393  142.6958  158.0651 H   0  0  0  0  0  0  0  0  0  0  0  0
  151.1944  142.1643  160.4397 H   0  0  0  0  0  0  0  0  0  0  0  0
  154.1601  141.5703  160.1450 H   0  0  0  0  0  0  0  0  0  0  0  0
  152.8813  140.5036  160.7550 H   0  0  0  0  0  0  0  0  0  0  0  0
  156.0512  138.9435  163.3958 H   0  0  0  0  0  0  0  0  0  0  0  0
  157.9467  141.4636  169.2219 H   0  0  0  0  0  0  0  0  0  0  0  0
  157.5273  142.9047  170.2097 H   0  0  0  0  0  0  0  0  0  0  0  0
  154.3226  142.1050  168.8709 H   0  0  0  0  0  0  0  0  0  0  0  0
  155.3128  140.8111  168.1136 H   0  0  0  0  0  0  0  0  0  0  0  0
  1  2  1  0  0  0  0
  1 27  1  0  0  0  0
  2  3  1  0  0  0  0
  2 28  1  0  0  0  0
  2 29  1  0  0  0  0
  3 26  1  0  0  0  0
  3  4  1  0  0  0  0
  3 24  1  0  0  0  0
  4  5  1  0  0  0  0
  4 30  1  0  0  0  0
  4 31  1  0  0  0  0
  5 23  1  0  0  0  0
  5  6  1  0  0  0  0
  6  7  2  0  0  0  0
  6 32  1  0  0  0  0
  7  8  1  0  0  0  0
  8 23  2  0  0  0  0
  8  9  1  0  0  0  0
  9 10  1  0  0  0  0
  9 20  2  0  0  0  0
 10 19  1  0  0  0  0
 10 11  1  0  0  0  0
 11 12  1  0  0  0  0
 11 33  1  0  0  0  0
 11 34  1  0  0  0  0
 12 18  1  0  0  0  0
 12 13  1  0  0  0  0
 12 35  1  0  0  0  0
 13 14  1  0  0  0  0
 13 36  1  0  0  0  0
 13 37  1  0  0  0  0
 14 15  1  0  0  0  0
 14 38  1  0  0  0  0
 14 39  1  0  0  0  0
 15 16  1  0  0  0  0
 15 17  1  0  0  0  0
 15 40  1  0  0  0  0
 16 41  1  0  0  0  0
 17 18  1  0  0  0  0
 17 42  1  0  0  0  0
 17 43  1  0  0  0  0
 18 19  1  0  0  0  0
 18 44  1  0  0  0  0
 19 45  1  0  0  0  0
 19 46  1  0  0  0  0
 20 21  1  0  0  0  0
 21 22  2  0  0  0  0
 21 47  1  0  0  0  0
 22 23  1  0  0  0  0
 24 25  1  0  0  0  0
 24 48  1  0  0  0  0
 24 49  1  0  0  0  0
 25 26  1  0  0  0  0
 26 50  1  0  0  0  0
 26 51  1  0  0  0  0
M  END
> <s_m_source_file>
AV-unprocessed.smi

> <i_m_source_file_index>
86

> <i_lp_mmshare_version>
43012

> <i_f3d_flags>
0

> <s_epik_input>
W0NIMl0xT1tDSDJdQzEoW0NIMl1bT0hdKVtDSDJdbihbY0hdbjIpYyhjMjMpbltjSF1uYzNOKFtDSDJdNClbQ0gyXVtDQEBIXShbQ0BIXTQ1KVtDSDJdW0NASF0oW09IXSlbQ0gyXVtDSDJdNQ==

> <s_epik_cmdline>
J2VwaWtfcHl0aG9uJywgJy1waCcsICc3LjAnLCAnLXRuJywgJzgnLCAnLW1hJywgJzIwMCcsICctbWV0YWxfYmluZGluZycsICctaW1hZScsICc8aW5maWxlLm1hZT4nLCAnLW9tYWUnLCAnPG91dGZpbGUubWFlPic=

> <r_lp_tautomer_probability>
1

> <r_epik_Ionization_Penalty>
0.00425795

> <r_epik_Ionization_Penalty_Charging>
0

> <r_epik_Ionization_Penalty_Neutral>
0.00425795

> <r_epik_State_Penalty>
0.00299946

> <r_epik_Charging_Adjusted_Penalty>
0.00299946

> <i_epik_Tot_Q>
0

> <i_epik_Tot_abs_Q>
0

> <r_epik_Metal_State_Penalty>
-0

> <b_epik_Metal_Only>
0

> <s_lp_Force_Field>
OPLS_2005

> <r_lp_Energy>
53.7305

> <b_lp_Chiralities_Consistent>
1

> <s_lp_Variant>
AV-unprocessed.smi:86-1

> <Gold.Version>
5.8.1

> <Gold.Id.Protein>
6NUR|6NUR_protein|mol2

> <Gold.PLP.Fitness>
57.7963

> <Gold.PLP.PLP>
-55.3519

> <Gold.PLP.part.hbond>
-3.3802

> <Gold.PLP.part.metal>
0.0000

> <Gold.PLP.part.buried>
-4.8991

> <Gold.PLP.part.nonpolar>
-47.4929

> <Gold.PLP.part.repulsive>
0.1633

> <Gold.PLP.ligand.clash>
0.0000

> <Gold.PLP.ligand.torsion>
0.2993

> <Gold.PLP.Chemscore.Hbond>
0.8480

> <Gold.PLP.Chemscore.CHOScore>
0.0000

> <Gold.PLP.Chemscore.Metal>
0.0000

> <Gold.Chemscore.Hbonds>
donor molecule, donor type, donor heavy atom, donor atom, acceptor molecule, acceptor atom, score
      L1  H    16    41       P1  8028  0.96

> <Gold.PLP.Chemscore.Internal.Correction>
0.4990

> <Gold.Rescore>
     Score         DG    S(hbond)    S(metal)    S(lipo)     H(rot)  DE(clash)    DE(int)     intcor
     10.54     -14.52       1.00        0.00     109.21       2.76       1.64       2.35       ----

> <Gold.Chemscore.Fitness>
10.5359

> <Gold.Chemscore.DG>
-14.5214

> <Gold.Chemscore.ZeroCoef>
-5.4800

> <Gold.Chemscore.Hbond>
0.9993

> <Gold.Chemscore.Metal>
0.0000

> <Gold.Chemscore.Lipo>
109.2062

> <Gold.Chemscore.Internal_Hbond>
0.0000

> <Gold.Chemscore.DEClash>
1.6356

> <Gold.Chemscore.DEInternal>
2.3499

> <Gold.Chemscore.Rot>
2.7630

> <Gold.Chemscore.Internal.Correction>
   9.000000E+99

> <Gold.Chemscore.Hbonds>
donor molecule, donor type, donor heavy atom, donor atom, acceptor molecule, acceptor atom, score
      L1  H    16    41       P1  8028  0.92

> <Gold.Chemscore.Hbond.Weighted>
-3.3377

> <Gold.Chemscore.Metal.Weighted>
-0.0000

> <Gold.Chemscore.Lipo.Weighted>
-12.7771

> <Gold.Chemscore.Internal_Hbond.Weighted>
0.0000

> <Gold.Chemscore.DEClash.Weighted>
1.6356

> <Gold.Chemscore.DEInternal.Weighted>
2.3499

> <Gold.Chemscore.Rot.Weighted>
7.0734

> <Gold.Chemscore.Internal.Correction.Weighted>
   9.000000E+99

> <Gold.Protein.RotatedTorsions>
[ 6907 6896 6895 6894 ] final   66.80 input  -60.11 | X-H torsion
[ 7974 7965 7964 7962 ] final -167.85 input  175.53 | X-H torsion
[ 8008 7997 7996 7995 ] final  -79.68 input   59.86 | X-H torsion
[ 10167 10162 10161 10158 ] final  -81.75 input  -65.29 | X-H torsion
[ 10718 10713 10712 10709 ] final   32.70 input   66.30 | X-H torsion
[ 10763 10752 10751 10750 ] final   92.05 input  -60.55 | X-H torsion
[ 11005 11000 10999 10996 ] final  134.29 input  -57.11 | X-H torsion

> <Gold.Protein.ActiveResidues>
 VAL166  LYS551  ARG553  GLY616  TRP617  ASP618  TYR619  PRO620  LYS621  CYS622 
 ASP623  PHE694  ASN695  SER759  ASP760  ASP761  ALA762  ILE779  LEU786  VAL792 
 PHE793  MET794  SER795  GLU796  ALA797  LYS798  CYS799  TRP800  GLU811  SER814 

> <Gold.Protein.RotatedAtoms>
  152.4507  134.5400  159.9836 H   0  0  0  0  0  0  0  0  0  0  0  0  # atno 6907 bound_to 6896
  151.5474  133.3417  159.2954 H   0  0  0  0  0  0  0  0  0  0  0  0  # atno 6908 bound_to 6896
  150.8435  134.7767  159.7014 H   0  0  0  0  0  0  0  0  0  0  0  0  # atno 6909 bound_to 6896
  144.7215  140.2458  143.6285 H   0  0  0  0  0  0  0  0  0  0  0  0  # atno 7974 bound_to 7965
  154.5809  140.0674  156.9102 H   0  0  0  0  0  0  0  0  0  0  0  0  # atno 8008 bound_to 7997
  155.2465  140.3348  155.4268 H   0  0  0  0  0  0  0  0  0  0  0  0  # atno 8009 bound_to 7997
  156.2188  140.1790  156.7510 H   0  0  0  0  0  0  0  0  0  0  0  0  # atno 8010 bound_to 7997
  140.4383  143.2524  151.8662 H   0  0  0  0  0  0  0  0  0  0  0  0  # atno 10167 bound_to 10162
  157.2886  130.7291  149.6597 H   0  0  0  0  0  0  0  0  0  0  0  0  # atno 10718 bound_to 10713
  153.2149  135.4375  155.0423 H   0  0  0  0  0  0  0  0  0  0  0  0  # atno 10763 bound_to 10752
  154.8220  135.3342  154.7013 H   0  0  0  0  0  0  0  0  0  0  0  0  # atno 10764 bound_to 10752
  153.7448  135.7002  153.5014 H   0  0  0  0  0  0  0  0  0  0  0  0  # atno 10765 bound_to 10752
  139.9906  134.9516  156.9846 H   0  0  0  0  0  0  0  0  0  0  0  0  # atno 11005 bound_to 11000
  145.8276  139.2071  143.1901 LP  0  0  0  0  0  0  0  0  0  0  0  0  # atno 17320 bound_to 7965
  146.0459  140.8118  142.9805 LP  0  0  0  0  0  0  0  0  0  0  0  0  # atno 17321 bound_to 7965
  139.4788  144.5258  151.8737 LP  0  0  0  0  0  0  0  0  0  0  0  0  # atno 17342 bound_to 10162
  140.4348  144.2066  150.5889 LP  0  0  0  0  0  0  0  0  0  0  0  0  # atno 17343 bound_to 10162
  155.9666  130.4316  150.4927 LP  0  0  0  0  0  0  0  0  0  0  0  0  # atno 17370 bound_to 10713
  157.2885  131.0621  151.2150 LP  0  0  0  0  0  0  0  0  0  0  0  0  # atno 17371 bound_to 10713
  140.4916  134.1187  155.7234 LP  0  0  0  0  0  0  0  0  0  0  0  0  # atno 17394 bound_to 11000
  141.1562  133.8878  157.1970 LP  0  0  0  0  0  0  0  0  0  0  0  0  # atno 17395 bound_to 11000

$$$$
