AV-unprocessed.smi:1764|AV-procd|sdf|7133|dock3
  -GOLD-   22720 8373D 1   1.00000     0.00000
 Structure written by MMmdl.
 31 32  0  0  0  0  0  0  0  0  1 V2000
  153.8913  140.1022  159.0336 O   0  0  0  0  0  0  0  0  0  0  0  0
  153.7890  140.2979  160.2450 C   0  0  0  0  0  0  0  0  0  0  0  0
  154.1057  139.3823  161.1720 N   0  0  0  0  0  0  0  0  0  0  0  0
  154.6044  138.0383  160.8978 C   0  0  0  0  0  0  0  0  0  0  0  0
  154.9819  137.2957  162.1908 C   0  0  1  0  0  0  0  0  0  0  0  0
  153.9063  137.2937  163.2776 C   0  0  0  0  0  0  0  0  0  0  0  0
  154.2861  136.0679  164.0754 C   0  0  0  0  0  0  0  0  0  0  0  0
  154.7297  135.1061  162.9768 C   0  0  0  0  0  0  0  0  0  0  0  0
  155.2236  135.9188  161.9144 O   0  0  0  0  0  0  0  0  0  0  0  0
  153.3466  141.4328  160.8149 N   0  0  0  0  0  0  0  0  0  0  0  0
  152.9329  142.6327  160.1770 C   0  0  0  0  0  0  0  0  0  0  0  0
  152.5159  143.6620  161.0510 C   0  0  0  0  0  0  0  0  0  0  0  0
  152.0896  144.8938  160.5177 C   0  0  0  0  0  0  0  0  0  0  0  0
  152.0921  145.0653  159.1221 C   0  0  0  0  0  0  0  0  0  0  0  0
  152.5223  143.9903  158.3227 C   0  0  0  0  0  0  0  0  0  0  0  0
  152.9306  142.8088  158.8317 N   0  0  0  0  0  0  0  0  0  0  0  0
  153.9880  139.6300  162.1436 H   0  0  0  0  0  0  0  0  0  0  0  0
  153.8822  137.4584  160.3203 H   0  0  0  0  0  0  0  0  0  0  0  0
  155.4873  138.1362  160.2662 H   0  0  0  0  0  0  0  0  0  0  0  0
  155.9042  137.7100  162.6014 H   0  0  0  0  0  0  0  0  0  0  0  0
  153.8980  138.2070  163.8735 H   0  0  0  0  0  0  0  0  0  0  0  0
  152.9158  137.1606  162.8399 H   0  0  0  0  0  0  0  0  0  0  0  0
  155.1229  136.2972  164.7366 H   0  0  0  0  0  0  0  0  0  0  0  0
  153.4680  135.6767  164.6806 H   0  0  0  0  0  0  0  0  0  0  0  0
  155.4861  134.4023  163.3245 H   0  0  0  0  0  0  0  0  0  0  0  0
  153.8793  134.5327  162.6061 H   0  0  0  0  0  0  0  0  0  0  0  0
  153.3046  141.4411  161.8230 H   0  0  0  0  0  0  0  0  0  0  0  0
  152.5207  143.5139  162.1213 H   0  0  0  0  0  0  0  0  0  0  0  0
  151.7668  145.6924  161.1692 H   0  0  0  0  0  0  0  0  0  0  0  0
  151.7728  145.9956  158.6761 H   0  0  0  0  0  0  0  0  0  0  0  0
  152.5403  144.0814  157.2468 H   0  0  0  0  0  0  0  0  0  0  0  0
  1  2  2  0  0  0  0
  2  3  1  0  0  0  0
  2 10  1  0  0  0  0
  3  4  1  0  0  0  0
  3 17  1  0  0  0  0
  4  5  1  0  0  0  0
  4 18  1  0  0  0  0
  4 19  1  0  0  0  0
  5  9  1  0  0  0  0
  5  6  1  0  0  0  0
  5 20  1  0  0  0  0
  6  7  1  0  0  0  0
  6 21  1  0  0  0  0
  6 22  1  0  0  0  0
  7  8  1  0  0  0  0
  7 23  1  0  0  0  0
  7 24  1  0  0  0  0
  8  9  1  0  0  0  0
  8 25  1  0  0  0  0
  8 26  1  0  0  0  0
 10 11  1  0  0  0  0
 10 27  1  0  0  0  0
 11 16  1  0  0  0  0
 11 12  2  0  0  0  0
 12 13  1  0  0  0  0
 12 28  1  0  0  0  0
 13 14  2  0  0  0  0
 13 29  1  0  0  0  0
 14 15  1  0  0  0  0
 14 30  1  0  0  0  0
 15 16  2  0  0  0  0
 15 31  1  0  0  0  0
M  END
> <s_m_source_file>
AV-unprocessed.smi

> <i_m_source_file_index>
1764

> <i_lp_mmshare_version>
43012

> <i_f3d_flags>
0

> <s_epik_input>
bjFbY0hdW2NIXVtjSF1bY0hdYzFbTkhdQyg9TylbTkhdW0NIMl1bQ0BASF0yW0NIMl1bQ0gyXVtDSDJdTzI=

> <s_epik_cmdline>
J2VwaWtfcHl0aG9uJywgJy1waCcsICc3LjAnLCAnLXRuJywgJzgnLCAnLW1hJywgJzIwMCcsICctbWV0YWxfYmluZGluZycsICctaW1hZScsICc8aW5maWxlLm1hZT4nLCAnLW9tYWUnLCAnPG91dGZpbGUubWFlPic=

> <r_lp_tautomer_probability>
1

> <r_epik_Ionization_Penalty>
4.47751e-05

> <r_epik_Ionization_Penalty_Charging>
0

> <r_epik_Ionization_Penalty_Neutral>
4.47751e-05

> <r_epik_State_Penalty>
-0

> <r_epik_Charging_Adjusted_Penalty>
0

> <i_epik_Tot_Q>
0

> <i_epik_Tot_abs_Q>
0

> <r_epik_Metal_State_Penalty>
-0

> <b_epik_Metal_Only>
0

> <s_lp_Force_Field>
OPLS_2005

> <r_lp_Energy>
18.9713

> <b_lp_Chiralities_Consistent>
1

> <s_lp_Variant>
AV-unprocessed.smi:1764-2

> <Gold.Version>
5.8.1

> <Gold.Id.Protein>
6NUR|6NUR_protein|mol2

> <Gold.PLP.Fitness>
40.6241

> <Gold.PLP.PLP>
-37.7729

> <Gold.PLP.part.hbond>
-1.0000

> <Gold.PLP.part.metal>
0.0000

> <Gold.PLP.part.buried>
-5.0605

> <Gold.PLP.part.nonpolar>
-31.8540

> <Gold.PLP.part.repulsive>
0.0951

> <Gold.PLP.ligand.clash>
0.0000

> <Gold.PLP.ligand.torsion>
0.0629

> <Gold.PLP.Chemscore.Hbond>
0.9920

> <Gold.PLP.Chemscore.CHOScore>
0.0000

> <Gold.PLP.Chemscore.Metal>
0.0000

> <Gold.Chemscore.Hbonds>
donor molecule, donor type, donor heavy atom, donor atom, acceptor molecule, acceptor atom, score
      P1  H  7997  8008       L1     1  0.95

> <Gold.PLP.Chemscore.Internal.Correction>
0.0011

> <Gold.Rescore>
     Score         DG    S(hbond)    S(metal)    S(lipo)     H(rot)  DE(clash)    DE(int)     intcor
     14.18     -15.62       0.97        0.00      86.69       1.27       0.02       1.42       ----

> <Gold.Chemscore.Fitness>
14.1842

> <Gold.Chemscore.DG>
-15.6221

> <Gold.Chemscore.ZeroCoef>
-5.4800

> <Gold.Chemscore.Hbond>
0.9716

> <Gold.Chemscore.Metal>
0.0000

> <Gold.Chemscore.Lipo>
86.6881

> <Gold.Chemscore.Internal_Hbond>
0.0000

> <Gold.Chemscore.DEClash>
0.0186

> <Gold.Chemscore.DEInternal>
1.4193

> <Gold.Chemscore.Rot>
1.2678

> <Gold.Chemscore.Internal.Correction>
   9.000000E+99

> <Gold.Chemscore.Hbonds>
donor molecule, donor type, donor heavy atom, donor atom, acceptor molecule, acceptor atom, score
      P1  H  7997  8008       L1     1  0.85

> <Gold.Chemscore.Hbond.Weighted>
-3.2451

> <Gold.Chemscore.Metal.Weighted>
-0.0000

> <Gold.Chemscore.Lipo.Weighted>
-10.1425

> <Gold.Chemscore.Internal_Hbond.Weighted>
0.0000

> <Gold.Chemscore.DEClash.Weighted>
0.0186

> <Gold.Chemscore.DEInternal.Weighted>
1.4193

> <Gold.Chemscore.Rot.Weighted>
3.2455

> <Gold.Chemscore.Internal.Correction.Weighted>
   9.000000E+99

> <Gold.Protein.RotatedTorsions>
[ 6907 6896 6895 6894 ] final   -3.72 input  -60.11 | X-H torsion
[ 7974 7965 7964 7962 ] final   -0.29 input  175.53 | X-H torsion
[ 8008 7997 7996 7995 ] final  -99.78 input   59.86 | X-H torsion
[ 10167 10162 10161 10158 ] final  157.65 input  -65.29 | X-H torsion
[ 10718 10713 10712 10709 ] final   99.10 input   66.30 | X-H torsion
[ 10763 10752 10751 10750 ] final   66.68 input  -60.55 | X-H torsion
[ 11005 11000 10999 10996 ] final   30.88 input  -57.11 | X-H torsion

> <Gold.Protein.ActiveResidues>
 VAL166  LYS551  ARG553  GLY616  TRP617  ASP618  TYR619  PRO620  LYS621  CYS622 
 ASP623  PHE694  ASN695  SER759  ASP760  ASP761  ALA762  ILE779  LEU786  VAL792 
 PHE793  MET794  SER795  GLU796  ALA797  LYS798  CYS799  TRP800  GLU811  SER814 

> <Gold.Protein.RotatedAtoms>
  151.5093  135.1064  159.9849 H   0  0  0  0  0  0  0  0  0  0  0  0  # atno 6907 bound_to 6896
  152.4668  133.7938  159.6926 H   0  0  0  0  0  0  0  0  0  0  0  0  # atno 6908 bound_to 6896
  150.8657  133.7515  159.3003 H   0  0  0  0  0  0  0  0  0  0  0  0  # atno 6909 bound_to 6896
  146.2428  140.1247  142.8339 H   0  0  0  0  0  0  0  0  0  0  0  0  # atno 7974 bound_to 7965
  154.8195  140.0445  157.1400 H   0  0  0  0  0  0  0  0  0  0  0  0  # atno 8008 bound_to 7997
  154.9276  140.3035  155.5164 H   0  0  0  0  0  0  0  0  0  0  0  0  # atno 8009 bound_to 7997
  156.2979  140.2329  156.4333 H   0  0  0  0  0  0  0  0  0  0  0  0  # atno 8010 bound_to 7997
  139.4824  144.4897  151.8326 H   0  0  0  0  0  0  0  0  0  0  0  0  # atno 10167 bound_to 10162
  157.6883  131.0660  150.4897 H   0  0  0  0  0  0  0  0  0  0  0  0  # atno 10718 bound_to 10713
  153.0151  135.5311  154.6861 H   0  0  0  0  0  0  0  0  0  0  0  0  # atno 10763 bound_to 10752
  154.6008  135.2868  155.0539 H   0  0  0  0  0  0  0  0  0  0  0  0  # atno 10764 bound_to 10752
  154.1597  135.6549  153.5035 H   0  0  0  0  0  0  0  0  0  0  0  0  # atno 10765 bound_to 10752
  140.2897  134.2878  155.7779 H   0  0  0  0  0  0  0  0  0  0  0  0  # atno 11005 bound_to 11000
  145.0376  140.8920  143.5071 LP  0  0  0  0  0  0  0  0  0  0  0  0  # atno 17320 bound_to 7965
  145.1322  139.2625  143.5533 LP  0  0  0  0  0  0  0  0  0  0  0  0  # atno 17321 bound_to 7965
  140.4380  144.2025  150.5890 LP  0  0  0  0  0  0  0  0  0  0  0  0  # atno 17342 bound_to 10162
  140.4712  143.2412  151.9087 LP  0  0  0  0  0  0  0  0  0  0  0  0  # atno 17343 bound_to 10162
  156.5224  130.4165  149.6243 LP  0  0  0  0  0  0  0  0  0  0  0  0  # atno 17370 bound_to 10713
  156.3142  130.7245  151.2144 LP  0  0  0  0  0  0  0  0  0  0  0  0  # atno 17371 bound_to 10713
  141.2148  133.7577  156.9606 LP  0  0  0  0  0  0  0  0  0  0  0  0  # atno 17394 bound_to 11000
  140.1207  134.9419  157.2199 LP  0  0  0  0  0  0  0  0  0  0  0  0  # atno 17395 bound_to 11000

$$$$
