AV-unprocessed.smi:62|AV-procd|sdf|601|dock2
  -GOLD-   2262016493D 1   1.00000     0.00000
 Structure written by MMmdl.
 31 32  0  0  0  0  0  0  0  0  3 V2000
  148.2629  131.8677  154.1764 C   0  0  0  0  0  0  0  0  0  0  0  0
  149.2341  132.8168  154.6764 N   0  0  0  0  0  0  0  0  0  0  0  0
  149.4618  134.1115  154.2701 C   0  0  0  0  0  0  0  0  0  0  0  0
  150.4761  134.6211  155.0330 C   0  0  0  0  0  0  0  0  0  0  0  0
  151.0524  136.0139  154.9319 C   0  0  0  0  0  0  0  0  0  0  0  0
  150.0446  136.9814  154.4397 N   0  3  1  0  0  0  0  0  0  0  0  0
  148.8586  137.1744  155.3096 C   0  0  0  0  0  0  0  0  0  0  0  0
  148.5975  138.6851  155.3726 C   0  0  0  0  0  0  0  0  0  0  0  0
  149.3840  139.2506  154.1925 C   0  0  1  0  0  0  0  0  0  0  0  0
  149.7634  140.5946  154.4007 O   0  0  0  0  0  0  0  0  0  0  0  0
  150.5870  138.3147  154.1126 C   0  0  0  0  0  0  0  0  0  0  0  0
  150.8120  133.5259  155.8998 C   0  0  0  0  0  0  0  0  0  0  0  0
  151.9094  133.6160  156.9275 C   0  0  0  0  0  0  0  0  0  0  0  0
  152.6127  134.6477  157.0030 O   0  0  0  0  0  0  0  0  0  0  0  0
  152.0905  132.6324  157.6777 O   0  5  0  0  0  0  0  0  0  0  0  0
  150.0611  132.4561  155.6750 N   0  0  0  0  0  0  0  0  0  0  0  0
  147.6855  132.3142  153.3665 H   0  0  0  0  0  0  0  0  0  0  0  0
  147.5835  131.5781  154.9787 H   0  0  0  0  0  0  0  0  0  0  0  0
  148.7733  130.9801  153.8011 H   0  0  0  0  0  0  0  0  0  0  0  0
  148.8858  134.5642  153.4765 H   0  0  0  0  0  0  0  0  0  0  0  0
  151.4259  136.3556  155.8983 H   0  0  0  0  0  0  0  0  0  0  0  0
  151.9132  136.0271  154.2624 H   0  0  0  0  0  0  0  0  0  0  0  0
  148.0139  136.6476  154.8645 H   0  0  0  0  0  0  0  0  0  0  0  0
  149.0100  136.7712  156.3119 H   0  0  0  0  0  0  0  0  0  0  0  0
  147.5366  138.9337  155.3323 H   0  0  0  0  0  0  0  0  0  0  0  0
  148.9949  139.0772  156.3104 H   0  0  0  0  0  0  0  0  0  0  0  0
  148.7925  139.1727  153.2790 H   0  0  0  0  0  0  0  0  0  0  0  0
  148.9976  141.0901  154.6491 H   0  0  0  0  0  0  0  0  0  0  0  0
  151.3321  138.5966  154.8592 H   0  0  0  0  0  0  0  0  0  0  0  0
  151.0669  138.3253  153.1334 H   0  0  0  0  0  0  0  0  0  0  0  0
  149.6955  136.6082  153.5672 H   0  0  0  0  0  0  0  0  0  0  0  0
  1  2  1  0  0  0  0
  1 17  1  0  0  0  0
  1 18  1  0  0  0  0
  1 19  1  0  0  0  0
  2 16  1  0  0  0  0
  2  3  1  0  0  0  0
  3  4  2  0  0  0  0
  3 20  1  0  0  0  0
  4  5  1  0  0  0  0
  4 12  1  0  0  0  0
  5  6  1  0  0  0  0
  5 21  1  0  0  0  0
  5 22  1  0  0  0  0
  6 11  1  0  0  0  0
  6  7  1  0  0  0  0
  6 31  1  0  0  0  0
  7  8  1  0  0  0  0
  7 23  1  0  0  0  0
  7 24  1  0  0  0  0
  8  9  1  0  0  0  0
  8 25  1  0  0  0  0
  8 26  1  0  0  0  0
  9 10  1  0  0  0  0
  9 11  1  0  0  0  0
  9 27  1  0  0  0  0
 10 28  1  0  0  0  0
 11 29  1  0  0  0  0
 11 30  1  0  0  0  0
 12 13  1  0  0  0  0
 12 16  2  0  0  0  0
 13 14  2  0  0  0  0
 13 15  1  0  0  0  0
M  CHG  1   6   1
M  CHG  1  15  -1
M  END
> <s_m_source_file>
AV-unprocessed.smi

> <i_m_source_file_index>
62

> <i_lp_mmshare_version>
43012

> <i_f3d_flags>
0

> <s_epik_input>
W0NIM11uMVtjSF1jKGMobjEpQyg9TylbT0hdKVtDSDJdTjJbQ0gyXVtDSDJdW0NAQEhdKFtPSF0pW0NIMl0y

> <s_epik_cmdline>
J2VwaWtfcHl0aG9uJywgJy1waCcsICc3LjAnLCAnLXRuJywgJzgnLCAnLW1hJywgJzIwMCcsICctbWV0YWxfYmluZGluZycsICctaW1hZScsICc8aW5maWxlLm1hZT4nLCAnLW9tYWUnLCAnPG91dGZpbGUubWFlPic=

> <r_epik_Ionization_Penalty>
0.0522993

> <r_epik_Ionization_Penalty_Charging>
0.0522915

> <r_epik_Ionization_Penalty_Neutral>
7.84975e-06

> <r_epik_State_Penalty>
0.0448084

> <r_epik_Charging_Adjusted_Penalty>
0.0970998

> <i_epik_Tot_Q>
0

> <i_epik_Tot_abs_Q>
2

> <r_epik_Metal_State_Penalty>
0.0448097

> <b_epik_Metal_Only>
0

> <s_lp_Force_Field>
OPLS_2005

> <r_lp_Energy>
17.2463

> <b_lp_Chiralities_Consistent>
1

> <s_lp_Variant>
AV-unprocessed.smi:62-1

> <Gold.Version>
5.8.1

> <Gold.Id.Protein>
6NUR|6NUR_protein|mol2

> <Gold.PLP.Fitness>
42.9313

> <Gold.PLP.PLP>
-20.8992

> <Gold.PLP.part.hbond>
-5.0788

> <Gold.PLP.part.metal>
0.0000

> <Gold.PLP.part.buried>
1.8021

> <Gold.PLP.part.nonpolar>
-17.6852

> <Gold.PLP.part.repulsive>
0.0397

> <Gold.PLP.ligand.clash>
0.0000

> <Gold.PLP.ligand.torsion>
0.4022

> <Gold.PLP.Chemscore.Hbond>
6.6080

> <Gold.PLP.Chemscore.CHOScore>
1.0000

> <Gold.PLP.Chemscore.Metal>
0.0000

> <Gold.Chemscore.Hbonds>
donor molecule, donor type, donor heavy atom, donor atom, acceptor molecule, acceptor atom, score
      L1  H     6    31       P1  7948  2.00
      P1  H  6896  6907       L1    15  2.00
      P1  H  7989  7998       L1    10  0.66
      P1  H 10752 10765       L1    14  1.92
      L1  C     3    20       P1  7948  0.93

> <Gold.PLP.Chemscore.Internal.Correction>
0.0125

> <Gold.Rescore>
     Score         DG    S(hbond)    S(metal)    S(lipo)     H(rot)  DE(clash)    DE(int)     intcor
     13.19     -16.68       3.13        0.00      46.00       1.81       1.86       1.63       ----

> <Gold.Chemscore.Fitness>
13.1882

> <Gold.Chemscore.DG>
-16.6826

> <Gold.Chemscore.ZeroCoef>
-5.4800

> <Gold.Chemscore.Hbond>
3.1292

> <Gold.Chemscore.Metal>
0.0000

> <Gold.Chemscore.Lipo>
46.0045

> <Gold.Chemscore.Internal_Hbond>
0.0000

> <Gold.Chemscore.DEClash>
1.8599

> <Gold.Chemscore.DEInternal>
1.6344

> <Gold.Chemscore.Rot>
1.8091

> <Gold.Chemscore.Internal.Correction>
   9.000000E+99

> <Gold.Chemscore.Hbonds>
donor molecule, donor type, donor heavy atom, donor atom, acceptor molecule, acceptor atom, score
      L1  H     6    31       P1  7948  0.50
      P1  H  6896  6907       L1    15  0.38
      P1  H  7989  7998       L1    10  0.41
      P1  H 10752 10765       L1    14  0.83

> <Gold.Chemscore.Hbond.Weighted>
-10.4514

> <Gold.Chemscore.Metal.Weighted>
-0.0000

> <Gold.Chemscore.Lipo.Weighted>
-5.3825

> <Gold.Chemscore.Internal_Hbond.Weighted>
0.0000

> <Gold.Chemscore.DEClash.Weighted>
1.8599

> <Gold.Chemscore.DEInternal.Weighted>
1.6344

> <Gold.Chemscore.Rot.Weighted>
4.6314

> <Gold.Chemscore.Internal.Correction.Weighted>
   9.000000E+99

> <Gold.Protein.RotatedTorsions>
[ 6907 6896 6895 6894 ] final  172.94 input  -60.11 | X-H torsion
[ 7974 7965 7964 7962 ] final  116.96 input  175.53 | X-H torsion
[ 8008 7997 7996 7995 ] final   94.89 input   59.86 | X-H torsion
[ 10167 10162 10161 10158 ] final  117.40 input  -65.29 | X-H torsion
[ 10718 10713 10712 10709 ] final  153.48 input   66.30 | X-H torsion
[ 10763 10752 10751 10750 ] final -124.72 input  -60.55 | X-H torsion
[ 11005 11000 10999 10996 ] final -126.10 input  -57.11 | X-H torsion

> <Gold.Protein.ActiveResidues>
 VAL166  LYS551  ARG553  GLY616  TRP617  ASP618  TYR619  PRO620  LYS621  CYS622 
 ASP623  PHE694  ASN695  SER759  ASP760  ASP761  ALA762  ILE779  LEU786  VAL792 
 PHE793  MET794  SER795  GLU796  ALA797  LYS798  CYS799  TRP800  GLU811  SER814 

> <Gold.Protein.RotatedAtoms>
  151.7762  133.3345  159.3458 H   0  0  0  0  0  0  0  0  0  0  0  0  # atno 6907 bound_to 6896
  150.7443  134.5973  159.6028 H   0  0  0  0  0  0  0  0  0  0  0  0  # atno 6908 bound_to 6896
  152.3307  134.7264  160.0341 H   0  0  0  0  0  0  0  0  0  0  0  0  # atno 6909 bound_to 6896
  145.1732  139.3090  143.4457 H   0  0  0  0  0  0  0  0  0  0  0  0  # atno 7974 bound_to 7965
  156.0629  140.3294  155.7483 H   0  0  0  0  0  0  0  0  0  0  0  0  # atno 8008 bound_to 7997
  155.5427  140.0603  157.2884 H   0  0  0  0  0  0  0  0  0  0  0  0  # atno 8009 bound_to 7997
  154.4490  140.1908  156.0595 H   0  0  0  0  0  0  0  0  0  0  0  0  # atno 8010 bound_to 7997
  139.6181  144.7096  151.2694 H   0  0  0  0  0  0  0  0  0  0  0  0  # atno 10167 bound_to 10162
  157.2442  131.0765  151.1772 H   0  0  0  0  0  0  0  0  0  0  0  0  # atno 10718 bound_to 10713
  154.8727  135.4054  154.3152 H   0  0  0  0  0  0  0  0  0  0  0  0  # atno 10763 bound_to 10752
  153.3989  135.7017  153.6446 H   0  0  0  0  0  0  0  0  0  0  0  0  # atno 10764 bound_to 10752
  153.5197  135.3690  155.2597 H   0  0  0  0  0  0  0  0  0  0  0  0  # atno 10765 bound_to 10752
  140.9709  134.0807  157.3871 H   0  0  0  0  0  0  0  0  0  0  0  0  # atno 11005 bound_to 11000
  146.3465  140.1885  142.8589 LP  0  0  0  0  0  0  0  0  0  0  0  0  # atno 17320 bound_to 7965
  145.0211  140.8794  143.5166 LP  0  0  0  0  0  0  0  0  0  0  0  0  # atno 17321 bound_to 7965
  140.7364  143.6708  150.8083 LP  0  0  0  0  0  0  0  0  0  0  0  0  # atno 17342 bound_to 10162
  140.0314  143.5439  152.2758 LP  0  0  0  0  0  0  0  0  0  0  0  0  # atno 17343 bound_to 10162
  157.3347  130.7002  149.6345 LP  0  0  0  0  0  0  0  0  0  0  0  0  # atno 17370 bound_to 10713
  155.9668  130.4297  150.4845 LP  0  0  0  0  0  0  0  0  0  0  0  0  # atno 17371 bound_to 10713
  139.8912  135.0117  156.6777 LP  0  0  0  0  0  0  0  0  0  0  0  0  # atno 17394 bound_to 11000
  140.7331  133.9042  155.8225 LP  0  0  0  0  0  0  0  0  0  0  0  0  # atno 17395 bound_to 11000

$$$$
