AV-unprocessed.smi:3343|AV-procd|sdf|12891|dock5
  -GOLD-   2272019293D 1   1.00000     0.00000
 Structure written by MMmdl.
 42 43  0  0  0  0  0  0  0  0  2 V2000
  150.4400  135.4673  154.7468 C   0  0  0  0  0  0  0  0  0  0  0  0
  150.0433  133.9806  154.6474 C   0  0  2  0  0  0  0  0  0  0  0  0
  148.5203  133.7818  154.6638 C   0  0  0  0  0  0  0  0  0  0  0  0
  147.9940  133.0440  155.4973 O   0  0  0  0  0  0  0  0  0  0  0  0
  147.8214  134.4504  153.7329 N   0  0  0  0  0  0  0  0  0  0  0  0
  146.3731  134.3932  153.5572 C   0  0  0  0  0  0  0  0  0  0  0  0
  145.9372  134.5702  152.0870 C   0  0  0  0  0  0  0  0  0  0  0  0
  144.5006  134.8229  151.9437 N   0  0  0  0  0  0  0  0  0  0  0  0
  144.1915  135.5733  150.7229 C   0  0  0  0  0  0  0  0  0  0  0  0
  144.3915  134.7221  149.4496 C   0  0  0  0  0  0  0  0  0  0  0  0
  143.5634  133.4952  149.5096 N   0  3  0  0  0  0  0  0  0  0  0  0
  143.6742  132.6705  148.2880 C   0  0  0  0  0  0  0  0  0  0  0  0
  143.8506  132.7302  150.7455 C   0  0  0  0  0  0  0  0  0  0  0  0
  143.6539  133.6255  151.9869 C   0  0  0  0  0  0  0  0  0  0  0  0
  150.6661  133.1702  155.6869 N   0  0  0  0  0  0  0  0  0  0  0  0
  151.4958  133.5269  156.6698 C   0  0  0  0  0  0  0  0  0  0  0  0
  151.9144  132.5145  157.4164 N   0  0  0  0  0  0  0  0  0  0  0  0
  151.2699  131.4869  156.7883 C   0  0  0  0  0  0  0  0  0  0  0  0
  150.5168  131.8230  155.7414 N   0  0  0  0  0  0  0  0  0  0  0  0
  150.0031  136.0448  153.9315 H   0  0  0  0  0  0  0  0  0  0  0  0
  151.5223  135.5845  154.6861 H   0  0  0  0  0  0  0  0  0  0  0  0
  150.1123  135.9197  155.6837 H   0  0  0  0  0  0  0  0  0  0  0  0
  150.4163  133.6125  153.6900 H   0  0  0  0  0  0  0  0  0  0  0  0
  148.3333  135.0306  153.0842 H   0  0  0  0  0  0  0  0  0  0  0  0
  145.9925  133.4580  153.9696 H   0  0  0  0  0  0  0  0  0  0  0  0
  145.9310  135.1875  154.1606 H   0  0  0  0  0  0  0  0  0  0  0  0
  146.4534  135.4520  151.7053 H   0  0  0  0  0  0  0  0  0  0  0  0
  146.2749  133.7407  151.4671 H   0  0  0  0  0  0  0  0  0  0  0  0
  143.1559  135.9125  150.7757 H   0  0  0  0  0  0  0  0  0  0  0  0
  144.8050  136.4739  150.6773 H   0  0  0  0  0  0  0  0  0  0  0  0
  144.1010  135.3074  148.5766 H   0  0  0  0  0  0  0  0  0  0  0  0
  145.4413  134.4602  149.3107 H   0  0  0  0  0  0  0  0  0  0  0  0
  144.6920  132.3009  148.1551 H   0  0  0  0  0  0  0  0  0  0  0  0
  143.4028  133.2520  147.4061 H   0  0  0  0  0  0  0  0  0  0  0  0
  143.0023  131.8131  148.3416 H   0  0  0  0  0  0  0  0  0  0  0  0
  143.1718  131.8788  150.8053 H   0  0  0  0  0  0  0  0  0  0  0  0
  144.8605  132.3191  150.7111 H   0  0  0  0  0  0  0  0  0  0  0  0
  143.8377  133.0603  152.8996 H   0  0  0  0  0  0  0  0  0  0  0  0
  142.6116  133.9434  152.0414 H   0  0  0  0  0  0  0  0  0  0  0  0
  151.8035  134.5479  156.8410 H   0  0  0  0  0  0  0  0  0  0  0  0
  151.3629  130.4597  157.1089 H   0  0  0  0  0  0  0  0  0  0  0  0
  142.6016  133.7982  149.5728 H   0  0  0  0  0  0  0  0  0  0  0  0
  1  2  1  0  0  0  0
  1 20  1  0  0  0  0
  1 21  1  0  0  0  0
  1 22  1  0  0  0  0
  2  3  1  0  0  0  0
  2 15  1  0  0  0  0
  2 23  1  0  0  0  0
  3  4  2  0  0  0  0
  3  5  1  0  0  0  0
  5  6  1  0  0  0  0
  5 24  1  0  0  0  0
  6  7  1  0  0  0  0
  6 25  1  0  0  0  0
  6 26  1  0  0  0  0
  7  8  1  0  0  0  0
  7 27  1  0  0  0  0
  7 28  1  0  0  0  0
  8 14  1  0  0  0  0
  8  9  1  0  0  0  0
  9 10  1  0  0  0  0
  9 29  1  0  0  0  0
  9 30  1  0  0  0  0
 10 11  1  0  0  0  0
 10 31  1  0  0  0  0
 10 32  1  0  0  0  0
 11 12  1  0  0  0  0
 11 13  1  0  0  0  0
 11 42  1  0  0  0  0
 12 33  1  0  0  0  0
 12 34  1  0  0  0  0
 12 35  1  0  0  0  0
 13 14  1  0  0  0  0
 13 36  1  0  0  0  0
 13 37  1  0  0  0  0
 14 38  1  0  0  0  0
 14 39  1  0  0  0  0
 15 19  1  0  0  0  0
 15 16  1  0  0  0  0
 16 17  2  0  0  0  0
 16 40  1  0  0  0  0
 17 18  1  0  0  0  0
 18 19  2  0  0  0  0
 18 41  1  0  0  0  0
M  CHG  1  11   1
M  END
> <s_m_source_file>
AV-unprocessed.smi

> <i_m_source_file_index>
3343

> <i_lp_mmshare_version>
43012

> <i_f3d_flags>
0

> <s_epik_input>
bjFbY0hdbltjSF1uMVtDQEhdKFtDSDNdKUMoPU8pW05IXVtDSDJdW0NIMl1OMltDSDJdW0NIMl1OKFtDSDNdKVtDSDJdW0NIMl0y

> <s_epik_cmdline>
J2VwaWtfcHl0aG9uJywgJy1waCcsICc3LjAnLCAnLXRuJywgJzgnLCAnLW1hJywgJzIwMCcsICctbWV0YWxfYmluZGluZycsICctaW1hZScsICc8aW5maWxlLm1hZT4nLCAnLW9tYWUnLCAnPG91dGZpbGUubWFlPic=

> <r_lp_tautomer_probability>
1

> <r_epik_Ionization_Penalty>
0.0359277

> <r_epik_Ionization_Penalty_Charging>
0.0358005

> <r_epik_Ionization_Penalty_Neutral>
0.000127293

> <r_epik_State_Penalty>
0.0476325

> <r_epik_Charging_Adjusted_Penalty>
0.0834329

> <i_epik_Tot_Q>
1

> <i_epik_Tot_abs_Q>
1

> <r_epik_Metal_State_Penalty>
0.0476323

> <b_epik_Metal_Only>
0

> <s_lp_Force_Field>
OPLS_2005

> <r_lp_Energy>
27.0486

> <b_lp_Chiralities_Consistent>
1

> <s_lp_Variant>
AV-unprocessed.smi:3343-1

> <Gold.Version>
5.8.1

> <Gold.Id.Protein>
6NUR|6NUR_protein|mol2

> <Gold.PLP.Fitness>
38.9635

> <Gold.PLP.PLP>
-27.8733

> <Gold.PLP.part.hbond>
-3.0000

> <Gold.PLP.part.metal>
0.0000

> <Gold.PLP.part.buried>
0.9389

> <Gold.PLP.part.nonpolar>
-25.5711

> <Gold.PLP.part.repulsive>
0.2266

> <Gold.PLP.ligand.clash>
0.0000

> <Gold.PLP.ligand.torsion>
0.5378

> <Gold.PLP.Chemscore.Hbond>
4.0000

> <Gold.PLP.Chemscore.CHOScore>
0.0000

> <Gold.PLP.Chemscore.Metal>
0.0000

> <Gold.Chemscore.Hbonds>
donor molecule, donor type, donor heavy atom, donor atom, acceptor molecule, acceptor atom, score
      L1  H     5    24       P1  7948  1.00
      L1  H    11    42       P1 10186  2.00
      P1  H  6896  6908       L1    17  1.00

> <Gold.PLP.Chemscore.Internal.Correction>
0.1657

> <Gold.Rescore>
     Score         DG    S(hbond)    S(metal)    S(lipo)     H(rot)  DE(clash)    DE(int)     intcor
     11.62     -15.05       2.63        0.00      64.19       2.63       1.55       1.89       ----

> <Gold.Chemscore.Fitness>
11.6238

> <Gold.Chemscore.DG>
-15.0547

> <Gold.Chemscore.ZeroCoef>
-5.4800

> <Gold.Chemscore.Hbond>
2.6323

> <Gold.Chemscore.Metal>
0.0000

> <Gold.Chemscore.Lipo>
64.1875

> <Gold.Chemscore.Internal_Hbond>
0.0000

> <Gold.Chemscore.DEClash>
1.5453

> <Gold.Chemscore.DEInternal>
1.8856

> <Gold.Chemscore.Rot>
2.6278

> <Gold.Chemscore.Internal.Correction>
   9.000000E+99

> <Gold.Chemscore.Hbonds>
donor molecule, donor type, donor heavy atom, donor atom, acceptor molecule, acceptor atom, score
      L1  H     5    24       P1  7948  0.85
      L1  H    11    42       P1 10186  1.00
      P1  H  6896  6908       L1    17  0.27

> <Gold.Chemscore.Hbond.Weighted>
-8.7918

> <Gold.Chemscore.Metal.Weighted>
-0.0000

> <Gold.Chemscore.Lipo.Weighted>
-7.5099

> <Gold.Chemscore.Internal_Hbond.Weighted>
0.0000

> <Gold.Chemscore.DEClash.Weighted>
1.5453

> <Gold.Chemscore.DEInternal.Weighted>
1.8856

> <Gold.Chemscore.Rot.Weighted>
6.7271

> <Gold.Chemscore.Internal.Correction.Weighted>
   9.000000E+99

> <Gold.Protein.RotatedTorsions>
[ 6907 6896 6895 6894 ] final   54.27 input  -60.11 | X-H torsion
[ 7974 7965 7964 7962 ] final   17.67 input  175.53 | X-H torsion
[ 8008 7997 7996 7995 ] final  100.68 input   59.86 | X-H torsion
[ 10167 10162 10161 10158 ] final  154.73 input  -65.29 | X-H torsion
[ 10718 10713 10712 10709 ] final  148.39 input   66.30 | X-H torsion
[ 10763 10752 10751 10750 ] final -111.75 input  -60.55 | X-H torsion
[ 11005 11000 10999 10996 ] final  153.61 input  -57.11 | X-H torsion

> <Gold.Protein.ActiveResidues>
 VAL166  LYS551  ARG553  GLY616  TRP617  ASP618  TYR619  PRO620  LYS621  CYS622 
 ASP623  PHE694  ASN695  SER759  ASP760  ASP761  ALA762  ILE779  LEU786  VAL792 
 PHE793  MET794  SER795  GLU796  ALA797  LYS798  CYS799  TRP800  GLU811  SER814 

> <Gold.Protein.RotatedAtoms>
  152.3422  134.7119  160.0260 H   0  0  0  0  0  0  0  0  0  0  0  0  # atno 6907 bound_to 6896
  151.7501  133.3321  159.3397 H   0  0  0  0  0  0  0  0  0  0  0  0  # atno 6908 bound_to 6896
  150.7486  134.6133  159.6142 H   0  0  0  0  0  0  0  0  0  0  0  0  # atno 6909 bound_to 6896
  146.2211  139.8568  142.8612 H   0  0  0  0  0  0  0  0  0  0  0  0  # atno 7974 bound_to 7965
  156.1227  140.3209  155.8232 H   0  0  0  0  0  0  0  0  0  0  0  0  # atno 8008 bound_to 7997
  155.4476  140.0530  157.3021 H   0  0  0  0  0  0  0  0  0  0  0  0  # atno 8009 bound_to 7997
  154.4839  140.2064  155.9713 H   0  0  0  0  0  0  0  0  0  0  0  0  # atno 8010 bound_to 7997
  139.4822  144.5161  151.7949 H   0  0  0  0  0  0  0  0  0  0  0  0  # atno 10167 bound_to 10162
  157.3092  131.0885  151.1329 H   0  0  0  0  0  0  0  0  0  0  0  0  # atno 10718 bound_to 10713
  154.8316  135.4516  154.1088 H   0  0  0  0  0  0  0  0  0  0  0  0  # atno 10763 bound_to 10752
  153.2356  135.6910  153.7847 H   0  0  0  0  0  0  0  0  0  0  0  0  # atno 10764 bound_to 10752
  153.7213  135.3341  155.3243 H   0  0  0  0  0  0  0  0  0  0  0  0  # atno 10765 bound_to 10752
  140.1413  134.8737  157.2335 H   0  0  0  0  0  0  0  0  0  0  0  0  # atno 11005 bound_to 11000
  145.2745  141.0119  143.3753 LP  0  0  0  0  0  0  0  0  0  0  0  0  # atno 17320 bound_to 7965
  144.9198  139.4426  143.6547 LP  0  0  0  0  0  0  0  0  0  0  0  0  # atno 17321 bound_to 7965
  140.4670  144.1641  150.5913 LP  0  0  0  0  0  0  0  0  0  0  0  0  # atno 17342 bound_to 10162
  140.4423  143.2521  151.9456 LP  0  0  0  0  0  0  0  0  0  0  0  0  # atno 17343 bound_to 10162
  157.2658  130.6680  149.5996 LP  0  0  0  0  0  0  0  0  0  0  0  0  # atno 17370 bound_to 10713
  155.9676  130.4494  150.5658 LP  0  0  0  0  0  0  0  0  0  0  0  0  # atno 17371 bound_to 10713
  140.2718  134.3451  155.7371 LP  0  0  0  0  0  0  0  0  0  0  0  0  # atno 17394 bound_to 11000
  141.2186  133.7428  156.9234 LP  0  0  0  0  0  0  0  0  0  0  0  0  # atno 17395 bound_to 11000

$$$$
