AV-unprocessed.smi:3163|AV-procd|sdf|12073|dock1
  -GOLD-   2272017503D 1   1.00000     0.00000
 Structure written by MMmdl.
 36 37  0  0  0  0  0  0  0  0  2 V2000
  144.1348  132.8592  149.5071 C   0  0  0  0  0  0  0  0  0  0  0  0
  143.6218  133.9578  150.3521 N   0  3  1  0  0  0  0  0  0  0  0  0
  143.3175  133.5606  151.7437 C   0  0  0  0  0  0  0  0  0  0  0  0
  143.5849  134.8042  152.5876 C   0  0  0  0  0  0  0  0  0  0  0  0
  144.7847  135.4334  151.8841 C   0  0  2  0  0  0  0  0  0  0  0  0
  145.0094  136.9145  152.2450 C   0  0  0  0  0  0  0  0  0  0  0  0
  146.4108  137.2094  152.5305 N   0  0  0  0  0  0  0  0  0  0  0  0
  146.8584  138.2536  153.2433 C   0  0  0  0  0  0  0  0  0  0  0  0
  146.1180  139.1194  153.7082 O   0  0  0  0  0  0  0  0  0  0  0  0
  148.1980  138.2235  153.3574 N   0  0  0  0  0  0  0  0  0  0  0  0
  149.0664  139.1158  154.0464 C   0  0  0  0  0  0  0  0  0  0  0  0
  148.6613  140.4630  154.1506 C   0  0  0  0  0  0  0  0  0  0  0  0
  149.5018  141.3780  154.8155 C   0  0  0  0  0  0  0  0  0  0  0  0
  150.6876  141.0350  155.3600 N   0  0  0  0  0  0  0  0  0  0  0  0
  151.0795  139.7481  155.2521 C   0  0  0  0  0  0  0  0  0  0  0  0
  150.3154  138.7540  154.6083 C   0  0  0  0  0  0  0  0  0  0  0  0
  144.4952  135.1538  150.4004 C   0  0  0  0  0  0  0  0  0  0  0  0
  145.0875  132.4848  149.8845 H   0  0  0  0  0  0  0  0  0  0  0  0
  144.2828  133.2034  148.4829 H   0  0  0  0  0  0  0  0  0  0  0  0
  143.4245  132.0321  149.4853 H   0  0  0  0  0  0  0  0  0  0  0  0
  142.2938  133.1983  151.8422 H   0  0  0  0  0  0  0  0  0  0  0  0
  143.9886  132.7595  152.0587 H   0  0  0  0  0  0  0  0  0  0  0  0
  142.7249  135.4749  152.5463 H   0  0  0  0  0  0  0  0  0  0  0  0
  143.7806  134.5697  153.6343 H   0  0  0  0  0  0  0  0  0  0  0  0
  145.6704  134.8634  152.1704 H   0  0  0  0  0  0  0  0  0  0  0  0
  144.6299  137.5664  151.4558 H   0  0  0  0  0  0  0  0  0  0  0  0
  144.4364  137.1590  153.1399 H   0  0  0  0  0  0  0  0  0  0  0  0
  147.0910  136.5492  152.1823 H   0  0  0  0  0  0  0  0  0  0  0  0
  148.6623  137.4698  152.8722 H   0  0  0  0  0  0  0  0  0  0  0  0
  147.7229  140.7952  153.7309 H   0  0  0  0  0  0  0  0  0  0  0  0
  149.2138  142.4147  154.9099 H   0  0  0  0  0  0  0  0  0  0  0  0
  152.0362  139.5019  155.6882 H   0  0  0  0  0  0  0  0  0  0  0  0
  150.7111  137.7526  154.5547 H   0  0  0  0  0  0  0  0  0  0  0  0
  145.4170  135.0287  149.8299 H   0  0  0  0  0  0  0  0  0  0  0  0
  143.9410  135.9782  149.9511 H   0  0  0  0  0  0  0  0  0  0  0  0
  142.7512  134.2655  149.9425 H   0  0  0  0  0  0  0  0  0  0  0  0
  1  2  1  0  0  0  0
  1 18  1  0  0  0  0
  1 19  1  0  0  0  0
  1 20  1  0  0  0  0
  2 17  1  0  0  0  0
  2  3  1  0  0  0  0
  2 36  1  0  0  0  0
  3  4  1  0  0  0  0
  3 21  1  0  0  0  0
  3 22  1  0  0  0  0
  4  5  1  0  0  0  0
  4 23  1  0  0  0  0
  4 24  1  0  0  0  0
  5  6  1  0  0  0  0
  5 17  1  0  0  0  0
  5 25  1  0  0  0  0
  6  7  1  0  0  0  0
  6 26  1  0  0  0  0
  6 27  1  0  0  0  0
  7  8  1  0  0  0  0
  7 28  1  0  0  0  0
  8  9  2  0  0  0  0
  8 10  1  0  0  0  0
 10 11  1  0  0  0  0
 10 29  1  0  0  0  0
 11 16  1  0  0  0  0
 11 12  2  0  0  0  0
 12 13  1  0  0  0  0
 12 30  1  0  0  0  0
 13 14  2  0  0  0  0
 13 31  1  0  0  0  0
 14 15  1  0  0  0  0
 15 16  2  0  0  0  0
 15 32  1  0  0  0  0
 16 33  1  0  0  0  0
 17 34  1  0  0  0  0
 17 35  1  0  0  0  0
M  CHG  1   2   1
M  END
> <s_m_source_file>
AV-unprocessed.smi

> <i_m_source_file_index>
3163

> <i_lp_mmshare_version>
43012

> <i_f3d_flags>
0

> <s_epik_input>
W0NIM11OMVtDSDJdW0NIMl1bQ0BIXShbQ0gyXTEpW0NIMl1bTkhdQyg9TylbTkhdYzJbY0hdW2NIXW5bY0hdW2NIXTI=

> <s_epik_cmdline>
J2VwaWtfcHl0aG9uJywgJy1waCcsICc3LjAnLCAnLXRuJywgJzgnLCAnLW1hJywgJzIwMCcsICctbWV0YWxfYmluZGluZycsICctaW1hZScsICc8aW5maWxlLm1hZT4nLCAnLW9tYWUnLCAnPG91dGZpbGUubWFlPic=

> <r_epik_Ionization_Penalty>
0.103936

> <r_epik_Ionization_Penalty_Charging>
0.0012301

> <r_epik_Ionization_Penalty_Neutral>
0.102706

> <r_epik_State_Penalty>
0.0926275

> <r_epik_Charging_Adjusted_Penalty>
0.0938576

> <i_epik_Tot_Q>
1

> <i_epik_Tot_abs_Q>
1

> <r_epik_Metal_State_Penalty>
0.0788376

> <b_epik_Metal_Only>
0

> <s_lp_Force_Field>
OPLS_2005

> <r_lp_Energy>
32.204

> <b_lp_Chiralities_Consistent>
1

> <s_lp_Variant>
AV-unprocessed.smi:3163-3

> <Gold.Version>
5.8.1

> <Gold.Id.Protein>
6NUR|6NUR_protein|mol2

> <Gold.PLP.Fitness>
45.8555

> <Gold.PLP.PLP>
-32.9992

> <Gold.PLP.part.hbond>
-4.4697

> <Gold.PLP.part.metal>
0.0000

> <Gold.PLP.part.buried>
-2.1115

> <Gold.PLP.part.nonpolar>
-27.2163

> <Gold.PLP.part.repulsive>
0.3071

> <Gold.PLP.ligand.clash>
0.0000

> <Gold.PLP.ligand.torsion>
0.9887

> <Gold.PLP.Chemscore.Hbond>
3.9440

> <Gold.PLP.Chemscore.CHOScore>
1.0000

> <Gold.PLP.Chemscore.Metal>
0.0000

> <Gold.Chemscore.Hbonds>
donor molecule, donor type, donor heavy atom, donor atom, acceptor molecule, acceptor atom, score
      L1  H     2    36       P1 10186  2.00
      L1  H     7    28       P1  7948  0.91
      L1  H    10    29       P1  7948  1.00
      L1  C    13    31       P1  8028  1.00

> <Gold.PLP.Chemscore.Internal.Correction>
0.0017

> <Gold.Rescore>
     Score         DG    S(hbond)    S(metal)    S(lipo)     H(rot)  DE(clash)    DE(int)     intcor
     18.06     -20.39       2.90        0.00      72.16       1.26       0.10       2.23       ----

> <Gold.Chemscore.Fitness>
18.0592

> <Gold.Chemscore.DG>
-20.3913

> <Gold.Chemscore.ZeroCoef>
-5.4800

> <Gold.Chemscore.Hbond>
2.8995

> <Gold.Chemscore.Metal>
0.0000

> <Gold.Chemscore.Lipo>
72.1551

> <Gold.Chemscore.Internal_Hbond>
0.0000

> <Gold.Chemscore.DEClash>
0.0990

> <Gold.Chemscore.DEInternal>
2.2330

> <Gold.Chemscore.Rot>
1.2559

> <Gold.Chemscore.Internal.Correction>
   9.000000E+99

> <Gold.Chemscore.Hbonds>
donor molecule, donor type, donor heavy atom, donor atom, acceptor molecule, acceptor atom, score
      L1  H     2    36       P1 10186  0.97
      L1  H     7    28       P1  7948  0.89
      L1  H    10    29       P1  7948  0.99

> <Gold.Chemscore.Hbond.Weighted>
-9.6842

> <Gold.Chemscore.Metal.Weighted>
-0.0000

> <Gold.Chemscore.Lipo.Weighted>
-8.4421

> <Gold.Chemscore.Internal_Hbond.Weighted>
0.0000

> <Gold.Chemscore.DEClash.Weighted>
0.0990

> <Gold.Chemscore.DEInternal.Weighted>
2.2330

> <Gold.Chemscore.Rot.Weighted>
3.2151

> <Gold.Chemscore.Internal.Correction.Weighted>
   9.000000E+99

> <Gold.Protein.RotatedTorsions>
[ 6907 6896 6895 6894 ] final  -89.41 input  -60.11 | X-H torsion
[ 7974 7965 7964 7962 ] final  -71.42 input  175.53 | X-H torsion
[ 8008 7997 7996 7995 ] final -142.68 input   59.86 | X-H torsion
[ 10167 10162 10161 10158 ] final  -80.61 input  -65.29 | X-H torsion
[ 10718 10713 10712 10709 ] final  142.99 input   66.30 | X-H torsion
[ 10763 10752 10751 10750 ] final  134.19 input  -60.55 | X-H torsion
[ 11005 11000 10999 10996 ] final  117.37 input  -57.11 | X-H torsion

> <Gold.Protein.ActiveResidues>
 VAL166  LYS551  ARG553  GLY616  TRP617  ASP618  TYR619  PRO620  LYS621  CYS622 
 ASP623  PHE694  ASN695  SER759  ASP760  ASP761  ALA762  ILE779  LEU786  VAL792 
 PHE793  MET794  SER795  GLU796  ALA797  LYS798  CYS799  TRP800  GLU811  SER814 

> <Gold.Protein.RotatedAtoms>
  150.6874  134.2592  159.4541 H   0  0  0  0  0  0  0  0  0  0  0  0  # atno 6907 bound_to 6896
  152.0523  134.9643  160.0584 H   0  0  0  0  0  0  0  0  0  0  0  0  # atno 6908 bound_to 6896
  152.1103  133.4262  159.4664 H   0  0  0  0  0  0  0  0  0  0  0  0  # atno 6909 bound_to 6896
  145.6784  140.9197  143.0845 H   0  0  0  0  0  0  0  0  0  0  0  0  # atno 7974 bound_to 7965
  155.4981  140.0573  157.2943 H   0  0  0  0  0  0  0  0  0  0  0  0  # atno 8008 bound_to 7997
  154.4597  140.1990  156.0229 H   0  0  0  0  0  0  0  0  0  0  0  0  # atno 8009 bound_to 7997
  156.0867  140.3239  155.7767 H   0  0  0  0  0  0  0  0  0  0  0  0  # atno 8010 bound_to 7997
  140.4488  143.2490  151.8519 H   0  0  0  0  0  0  0  0  0  0  0  0  # atno 10167 bound_to 10162
  157.3741  131.0983  151.0801 H   0  0  0  0  0  0  0  0  0  0  0  0  # atno 10718 bound_to 10713
  153.8195  135.3118  155.3409 H   0  0  0  0  0  0  0  0  0  0  0  0  # atno 10763 bound_to 10752
  154.8018  135.4722  154.0298 H   0  0  0  0  0  0  0  0  0  0  0  0  # atno 10764 bound_to 10752
  153.1702  135.6876  153.8708 H   0  0  0  0  0  0  0  0  0  0  0  0  # atno 10765 bound_to 10752
  139.9072  134.9609  156.7340 H   0  0  0  0  0  0  0  0  0  0  0  0  # atno 11005 bound_to 11000
  144.7034  139.8664  143.7437 LP  0  0  0  0  0  0  0  0  0  0  0  0  # atno 17320 bound_to 7965
  146.0986  139.3979  143.0361 LP  0  0  0  0  0  0  0  0  0  0  0  0  # atno 17321 bound_to 7965
  139.4795  144.5144  151.8888 LP  0  0  0  0  0  0  0  0  0  0  0  0  # atno 17342 bound_to 10162
  140.4232  144.2215  150.5887 LP  0  0  0  0  0  0  0  0  0  0  0  0  # atno 17343 bound_to 10162
  157.1894  130.6345  149.5699 LP  0  0  0  0  0  0  0  0  0  0  0  0  # atno 17370 bound_to 10713
  155.9761  130.4727  150.6509 LP  0  0  0  0  0  0  0  0  0  0  0  0  # atno 17371 bound_to 10713
  140.6902  133.9396  155.7962 LP  0  0  0  0  0  0  0  0  0  0  0  0  # atno 17394 bound_to 11000
  141.0447  134.0571  157.3859 LP  0  0  0  0  0  0  0  0  0  0  0  0  # atno 17395 bound_to 11000

$$$$
