AV-unprocessed.smi:1842|AV-procd|sdf|7499|dock7
  -GOLD-   22720 9203D 1   1.00000     0.00000
 Structure written by MMmdl.
 38 39  0  0  0  0  0  0  0  0  1 V2000
  151.9077  140.2565  155.2237 O   0  0  0  0  0  0  0  0  0  0  0  0
  151.0921  140.8244  155.9499 C   0  0  0  0  0  0  0  0  0  0  0  0
  151.5405  141.4403  157.2763 C   0  0  0  0  0  0  0  0  0  0  0  0
  151.1788  142.9336  157.3696 C   0  0  0  0  0  0  0  0  0  0  0  0
  151.8837  143.6559  158.5313 C   0  0  0  0  0  0  0  0  0  0  0  0
  151.8550  142.8998  159.8631 C   0  0  0  0  0  0  0  0  0  0  0  0
  152.1408  143.9644  160.9273 C   0  0  0  0  0  0  0  0  0  0  0  0
  151.7260  145.3093  160.3114 C   0  0  0  0  0  0  0  0  0  0  0  0
  151.2463  145.0012  158.8882 C   0  0  0  0  0  0  0  0  0  0  0  0
  149.7924  140.9511  155.6429 N   0  0  0  0  0  0  0  0  0  0  0  0
  149.1677  140.4931  154.4055 C   0  0  0  0  0  0  0  0  0  0  0  0
  147.8964  141.2905  154.0539 C   0  0  0  0  0  0  0  0  0  0  0  0
  146.9189  141.2718  155.1261 N   0  0  0  0  0  0  0  0  0  0  0  0
  145.6903  140.6248  155.1307 C   0  0  0  0  0  0  0  0  0  0  0  0
  145.1161  140.8817  156.3554 C   0  0  0  0  0  0  0  0  0  0  0  0
  145.9683  141.6801  157.1151 N   0  0  0  0  0  0  0  0  0  0  0  0
  147.0136  141.8717  156.3210 C   0  0  0  0  0  0  0  0  0  0  0  0
  151.0892  140.8923  158.1049 H   0  0  0  0  0  0  0  0  0  0  0  0
  152.6194  141.3115  157.3686 H   0  0  0  0  0  0  0  0  0  0  0  0
  151.4504  143.4290  156.4362 H   0  0  0  0  0  0  0  0  0  0  0  0
  150.0978  143.0462  157.4693 H   0  0  0  0  0  0  0  0  0  0  0  0
  152.9246  143.8379  158.2588 H   0  0  0  0  0  0  0  0  0  0  0  0
  150.8628  142.4774  160.0297 H   0  0  0  0  0  0  0  0  0  0  0  0
  152.5728  142.0799  159.8977 H   0  0  0  0  0  0  0  0  0  0  0  0
  151.6070  143.7554  161.8550 H   0  0  0  0  0  0  0  0  0  0  0  0
  153.2061  143.9812  161.1608 H   0  0  0  0  0  0  0  0  0  0  0  0
  150.9454  145.8000  160.8938 H   0  0  0  0  0  0  0  0  0  0  0  0
  152.5834  145.9829  160.2839 H   0  0  0  0  0  0  0  0  0  0  0  0
  151.5096  145.7880  158.1806 H   0  0  0  0  0  0  0  0  0  0  0  0
  150.1591  144.9084  158.8863 H   0  0  0  0  0  0  0  0  0  0  0  0
  149.1958  141.4290  156.3028 H   0  0  0  0  0  0  0  0  0  0  0  0
  149.8871  140.5554  153.5878 H   0  0  0  0  0  0  0  0  0  0  0  0
  148.9228  139.4368  154.5196 H   0  0  0  0  0  0  0  0  0  0  0  0
  148.1400  142.3270  153.8166 H   0  0  0  0  0  0  0  0  0  0  0  0
  147.4313  140.8709  153.1613 H   0  0  0  0  0  0  0  0  0  0  0  0
  145.3373  140.0500  154.2872 H   0  0  0  0  0  0  0  0  0  0  0  0
  144.1633  140.5555  156.7456 H   0  0  0  0  0  0  0  0  0  0  0  0
  147.8715  142.4580  156.6172 H   0  0  0  0  0  0  0  0  0  0  0  0
  1  2  2  0  0  0  0
  2  3  1  0  0  0  0
  2 10  1  0  0  0  0
  3  4  1  0  0  0  0
  3 18  1  0  0  0  0
  3 19  1  0  0  0  0
  4  5  1  0  0  0  0
  4 20  1  0  0  0  0
  4 21  1  0  0  0  0
  5  9  1  0  0  0  0
  5  6  1  0  0  0  0
  5 22  1  0  0  0  0
  6  7  1  0  0  0  0
  6 23  1  0  0  0  0
  6 24  1  0  0  0  0
  7  8  1  0  0  0  0
  7 25  1  0  0  0  0
  7 26  1  0  0  0  0
  8  9  1  0  0  0  0
  8 27  1  0  0  0  0
  8 28  1  0  0  0  0
  9 29  1  0  0  0  0
  9 30  1  0  0  0  0
 10 11  1  0  0  0  0
 10 31  1  0  0  0  0
 11 12  1  0  0  0  0
 11 32  1  0  0  0  0
 11 33  1  0  0  0  0
 12 13  1  0  0  0  0
 12 34  1  0  0  0  0
 12 35  1  0  0  0  0
 13 17  1  0  0  0  0
 13 14  1  0  0  0  0
 14 15  2  0  0  0  0
 14 36  1  0  0  0  0
 15 16  1  0  0  0  0
 15 37  1  0  0  0  0
 16 17  2  0  0  0  0
 17 38  1  0  0  0  0
M  END
> <s_m_source_file>
AV-unprocessed.smi

> <i_m_source_file_index>
1842

> <i_lp_mmshare_version>
43012

> <i_f3d_flags>
0

> <s_epik_input>
W0NIMl0xW0NIMl1bQ0gyXVtDSDJdW0NIXTFbQ0gyXVtDSDJdQyg9TylbTkhdW0NIMl1bQ0gyXW4yW2NIXVtjSF1uW2NIXTI=

> <s_epik_cmdline>
J2VwaWtfcHl0aG9uJywgJy1waCcsICc3LjAnLCAnLXRuJywgJzgnLCAnLW1hJywgJzIwMCcsICctbWV0YWxfYmluZGluZycsICctaW1hZScsICc8aW5maWxlLm1hZT4nLCAnLW9tYWUnLCAnPG91dGZpbGUubWFlPic=

> <r_lp_tautomer_probability>
1

> <r_epik_Ionization_Penalty>
0.595716

> <r_epik_Ionization_Penalty_Charging>
0.595716

> <r_epik_Ionization_Penalty_Neutral>
2.42503e-08

> <r_epik_State_Penalty>
0.60967

> <r_epik_Charging_Adjusted_Penalty>
1.20539

> <i_epik_Tot_Q>
0

> <i_epik_Tot_abs_Q>
0

> <r_epik_Metal_State_Penalty>
0.299956

> <b_epik_Metal_Only>
0

> <s_lp_Force_Field>
OPLS_2005

> <r_lp_Energy>
23.0444

> <b_lp_Chiralities_Consistent>
1

> <s_lp_Variant>
AV-unprocessed.smi:1842-2

> <Gold.Version>
5.8.1

> <Gold.Id.Protein>
6NUR|6NUR_protein|mol2

> <Gold.PLP.Fitness>
45.5926

> <Gold.PLP.PLP>
-38.0280

> <Gold.PLP.part.hbond>
-1.0000

> <Gold.PLP.part.metal>
0.0000

> <Gold.PLP.part.buried>
-5.0780

> <Gold.PLP.part.nonpolar>
-32.4722

> <Gold.PLP.part.repulsive>
0.2062

> <Gold.PLP.ligand.clash>
0.0000

> <Gold.PLP.ligand.torsion>
0.4432

> <Gold.PLP.Chemscore.Hbond>
0.8160

> <Gold.PLP.Chemscore.CHOScore>
1.9859

> <Gold.PLP.Chemscore.Metal>
0.0000

> <Gold.Chemscore.Hbonds>
donor molecule, donor type, donor heavy atom, donor atom, acceptor molecule, acceptor atom, score
      P1  H  7989  7998       L1     1  0.78
      L1  C    14    36       P1 10175  1.00
      L1  C    17    38       P1  8028  0.73

> <Gold.PLP.Chemscore.Internal.Correction>
0.0453

> <Gold.Rescore>
     Score         DG    S(hbond)    S(metal)    S(lipo)     H(rot)  DE(clash)    DE(int)     intcor
     13.05     -13.68       0.84        0.00      93.20       2.15       0.01       0.62       ----

> <Gold.Chemscore.Fitness>
13.0509

> <Gold.Chemscore.DG>
-13.6767

> <Gold.Chemscore.ZeroCoef>
-5.4800

> <Gold.Chemscore.Hbond>
0.8361

> <Gold.Chemscore.Metal>
0.0000

> <Gold.Chemscore.Lipo>
93.1968

> <Gold.Chemscore.Internal_Hbond>
0.0000

> <Gold.Chemscore.DEClash>
0.0071

> <Gold.Chemscore.DEInternal>
0.6187

> <Gold.Chemscore.Rot>
2.1484

> <Gold.Chemscore.Internal.Correction>
   9.000000E+99

> <Gold.Chemscore.Hbonds>
donor molecule, donor type, donor heavy atom, donor atom, acceptor molecule, acceptor atom, score
      P1  H  7989  7998       L1     1  0.52

> <Gold.Chemscore.Hbond.Weighted>
-2.7927

> <Gold.Chemscore.Metal.Weighted>
-0.0000

> <Gold.Chemscore.Lipo.Weighted>
-10.9040

> <Gold.Chemscore.Internal_Hbond.Weighted>
0.0000

> <Gold.Chemscore.DEClash.Weighted>
0.0071

> <Gold.Chemscore.DEInternal.Weighted>
0.6187

> <Gold.Chemscore.Rot.Weighted>
5.5000

> <Gold.Chemscore.Internal.Correction.Weighted>
   9.000000E+99

> <Gold.Protein.RotatedTorsions>
[ 6907 6896 6895 6894 ] final  -10.50 input  -60.11 | X-H torsion
[ 7974 7965 7964 7962 ] final  -35.62 input  175.53 | X-H torsion
[ 8008 7997 7996 7995 ] final   45.03 input   59.86 | X-H torsion
[ 10167 10162 10161 10158 ] final  -19.66 input  -65.29 | X-H torsion
[ 10718 10713 10712 10709 ] final  -19.64 input   66.30 | X-H torsion
[ 10763 10752 10751 10750 ] final  -36.07 input  -60.55 | X-H torsion
[ 11005 11000 10999 10996 ] final   82.92 input  -57.11 | X-H torsion

> <Gold.Protein.ActiveResidues>
 VAL166  LYS551  ARG553  GLY616  TRP617  ASP618  TYR619  PRO620  LYS621  CYS622 
 ASP623  PHE694  ASN695  SER759  ASP760  ASP761  ALA762  ILE779  LEU786  VAL792 
 PHE793  MET794  SER795  GLU796  ALA797  LYS798  CYS799  TRP800  GLU811  SER814 

> <Gold.Protein.RotatedAtoms>
  151.4009  135.0971  159.9555 H   0  0  0  0  0  0  0  0  0  0  0  0  # atno 6907 bound_to 6896
  152.5050  133.8889  159.7394 H   0  0  0  0  0  0  0  0  0  0  0  0  # atno 6908 bound_to 6896
  150.9363  133.6652  159.2828 H   0  0  0  0  0  0  0  0  0  0  0  0  # atno 6909 bound_to 6896
  146.0731  140.6181  142.8943 H   0  0  0  0  0  0  0  0  0  0  0  0  # atno 7974 bound_to 7965
  155.3291  140.3401  155.4240 H   0  0  0  0  0  0  0  0  0  0  0  0  # atno 8008 bound_to 7997
  156.1871  140.1684  156.8201 H   0  0  0  0  0  0  0  0  0  0  0  0  # atno 8009 bound_to 7997
  154.5398  140.0727  156.8474 H   0  0  0  0  0  0  0  0  0  0  0  0  # atno 8010 bound_to 7997
  140.7270  143.4797  151.0135 H   0  0  0  0  0  0  0  0  0  0  0  0  # atno 10167 bound_to 10162
  156.5429  130.4682  149.6490 H   0  0  0  0  0  0  0  0  0  0  0  0  # atno 10718 bound_to 10713
  153.8737  135.6828  153.4772 H   0  0  0  0  0  0  0  0  0  0  0  0  # atno 10763 bound_to 10752
  153.1273  135.4713  154.9290 H   0  0  0  0  0  0  0  0  0  0  0  0  # atno 10764 bound_to 10752
  154.7702  135.3236  154.8156 H   0  0  0  0  0  0  0  0  0  0  0  0  # atno 10765 bound_to 10752
  139.9048  134.8106  156.2239 H   0  0  0  0  0  0  0  0  0  0  0  0  # atno 11005 bound_to 11000
  144.7244  140.4477  143.6984 LP  0  0  0  0  0  0  0  0  0  0  0  0  # atno 17320 bound_to 7965
  145.6356  139.1542  143.2944 LP  0  0  0  0  0  0  0  0  0  0  0  0  # atno 17321 bound_to 7965
  139.8494  143.7458  152.3178 LP  0  0  0  0  0  0  0  0  0  0  0  0  # atno 17342 bound_to 10162
  139.7635  144.7499  151.0329 LP  0  0  0  0  0  0  0  0  0  0  0  0  # atno 17343 bound_to 10162
  156.2955  130.7148  151.2007 LP  0  0  0  0  0  0  0  0  0  0  0  0  # atno 17370 bound_to 10713
  157.7402  131.0520  150.5182 LP  0  0  0  0  0  0  0  0  0  0  0  0  # atno 17371 bound_to 10713
  141.0388  133.6949  156.1561 LP  0  0  0  0  0  0  0  0  0  0  0  0  # atno 17394 bound_to 11000
  140.6986  134.4588  157.5587 LP  0  0  0  0  0  0  0  0  0  0  0  0  # atno 17395 bound_to 11000

$$$$
