AV-unprocessed.smi:2061|AV-procd|sdf|8371|dock3
  -GOLD-   2272011 43D 1   1.00000     0.00000
 Structure written by MMmdl.
 46 47  0  0  0  0  0  0  0  0  2 V2000
  151.8780  140.9121  157.6645 C   0  0  0  0  0  0  0  0  0  0  0  0
  151.3825  139.9925  156.6017 C   0  0  0  0  0  0  0  0  0  0  0  0
  150.8625  138.7294  156.6331 C   0  0  0  0  0  0  0  0  0  0  0  0
  150.5993  138.4585  155.2585 C   0  0  0  0  0  0  0  0  0  0  0  0
  150.0480  137.2639  154.7273 N   0  0  0  0  0  0  0  0  0  0  0  0
  150.1518  136.0121  155.2046 C   0  0  0  0  0  0  0  0  0  0  0  0
  150.7764  135.6818  156.2126 O   0  0  0  0  0  0  0  0  0  0  0  0
  149.4815  135.1424  154.4338 N   0  0  0  0  0  0  0  0  0  0  0  0
  149.3442  133.7102  154.6918 C   0  0  0  0  0  0  0  0  0  0  0  0
  148.6399  132.9358  153.5412 C   0  0  1  0  0  0  0  0  0  0  0  0
  148.2480  131.5099  154.0031 C   0  0  0  0  0  0  0  0  0  0  0  0
  147.4559  133.6849  152.9955 N   0  3  1  0  0  0  0  0  0  0  0  0
  146.6605  132.9181  151.9963 C   0  0  0  0  0  0  0  0  0  0  0  0
  145.4955  133.7516  151.4325 C   0  0  1  0  0  0  0  0  0  0  0  0
  144.6133  132.9326  150.4838 C   0  0  0  0  0  0  0  0  0  0  0  0
  144.6738  134.2120  152.4966 O   0  0  0  0  0  0  0  0  0  0  0  0
  145.3595  135.0016  153.4620 C   0  0  2  0  0  0  0  0  0  0  0  0
  145.7480  136.3902  152.9213 C   0  0  0  0  0  0  0  0  0  0  0  0
  146.5453  134.2129  154.0509 C   0  0  0  0  0  0  0  0  0  0  0  0
  150.9336  139.4626  154.4690 N   0  0  0  0  0  0  0  0  0  0  0  0
  151.4348  140.4522  155.3225 O   0  0  0  0  0  0  0  0  0  0  0  0
  151.9262  140.4044  158.6280 H   0  0  0  0  0  0  0  0  0  0  0  0
  151.2178  141.7734  157.7685 H   0  0  0  0  0  0  0  0  0  0  0  0
  152.8769  141.2774  157.4251 H   0  0  0  0  0  0  0  0  0  0  0  0
  150.7038  138.1151  157.5064 H   0  0  0  0  0  0  0  0  0  0  0  0
  149.4931  137.3819  153.8925 H   0  0  0  0  0  0  0  0  0  0  0  0
  149.0022  135.5039  153.6217 H   0  0  0  0  0  0  0  0  0  0  0  0
  150.3101  133.2556  154.9185 H   0  0  0  0  0  0  0  0  0  0  0  0
  148.7585  133.6630  155.6079 H   0  0  0  0  0  0  0  0  0  0  0  0
  149.3610  132.8306  152.7289 H   0  0  0  0  0  0  0  0  0  0  0  0
  149.0885  130.9750  154.4421 H   0  0  0  0  0  0  0  0  0  0  0  0
  147.9217  130.8773  153.1796 H   0  0  0  0  0  0  0  0  0  0  0  0
  147.4522  131.5391  154.7482 H   0  0  0  0  0  0  0  0  0  0  0  0
  147.2741  132.6296  151.1455 H   0  0  0  0  0  0  0  0  0  0  0  0
  146.2870  132.0013  152.4556 H   0  0  0  0  0  0  0  0  0  0  0  0
  145.8898  134.6003  150.8736 H   0  0  0  0  0  0  0  0  0  0  0  0
  145.1883  132.5563  149.6372 H   0  0  0  0  0  0  0  0  0  0  0  0
  143.7993  133.5402  150.0877 H   0  0  0  0  0  0  0  0  0  0  0  0
  144.1713  132.0767  150.9953 H   0  0  0  0  0  0  0  0  0  0  0  0
  144.6448  135.1711  154.2679 H   0  0  0  0  0  0  0  0  0  0  0  0
  146.1324  137.0222  153.7224 H   0  0  0  0  0  0  0  0  0  0  0  0
  144.8828  136.8958  152.4916 H   0  0  0  0  0  0  0  0  0  0  0  0
  146.5208  136.3372  152.1549 H   0  0  0  0  0  0  0  0  0  0  0  0
  146.1695  133.3766  154.6427 H   0  0  0  0  0  0  0  0  0  0  0  0
  147.0665  134.8777  154.7364 H   0  0  0  0  0  0  0  0  0  0  0  0
  147.8261  134.4884  152.5079 H   0  0  0  0  0  0  0  0  0  0  0  0
  1  2  1  0  0  0  0
  1 22  1  0  0  0  0
  1 23  1  0  0  0  0
  1 24  1  0  0  0  0
  2 21  1  0  0  0  0
  2  3  2  0  0  0  0
  3  4  1  0  0  0  0
  3 25  1  0  0  0  0
  4  5  1  0  0  0  0
  4 20  2  0  0  0  0
  5  6  1  0  0  0  0
  5 26  1  0  0  0  0
  6  7  2  0  0  0  0
  6  8  1  0  0  0  0
  8  9  1  0  0  0  0
  8 27  1  0  0  0  0
  9 10  1  0  0  0  0
  9 28  1  0  0  0  0
  9 29  1  0  0  0  0
 10 11  1  0  0  0  0
 10 12  1  0  0  0  0
 10 30  1  0  0  0  0
 11 31  1  0  0  0  0
 11 32  1  0  0  0  0
 11 33  1  0  0  0  0
 12 19  1  0  0  0  0
 12 13  1  0  0  0  0
 12 46  1  0  0  0  0
 13 14  1  0  0  0  0
 13 34  1  0  0  0  0
 13 35  1  0  0  0  0
 14 15  1  0  0  0  0
 14 16  1  0  0  0  0
 14 36  1  0  0  0  0
 15 37  1  0  0  0  0
 15 38  1  0  0  0  0
 15 39  1  0  0  0  0
 16 17  1  0  0  0  0
 17 18  1  0  0  0  0
 17 19  1  0  0  0  0
 17 40  1  0  0  0  0
 18 41  1  0  0  0  0
 18 42  1  0  0  0  0
 18 43  1  0  0  0  0
 19 44  1  0  0  0  0
 19 45  1  0  0  0  0
 20 21  1  0  0  0  0
M  CHG  1  12   1
M  END
> <s_m_source_file>
AV-unprocessed.smi

> <i_m_source_file_index>
2061

> <i_lp_mmshare_version>
43012

> <i_f3d_flags>
0

> <s_epik_input>
W0NIM11jMVtjSF1jKG5vMSlbTkhdQyg9TylbTkhdW0NIMl1bQ0BIXShbQ0gzXSlOMltDSDJdW0NAQEhdKFtDSDNdKU9bQ0BASF0oW0NIM10pW0NIMl0y

> <s_epik_cmdline>
J2VwaWtfcHl0aG9uJywgJy1waCcsICc3LjAnLCAnLXRuJywgJzgnLCAnLW1hJywgJzIwMCcsICctbWV0YWxfYmluZGluZycsICctaW1hZScsICc8aW5maWxlLm1hZT4nLCAnLW9tYWUnLCAnPG91dGZpbGUubWFlPic=

> <r_epik_Ionization_Penalty>
0.707076

> <r_epik_Ionization_Penalty_Charging>
0.707039

> <r_epik_Ionization_Penalty_Neutral>
3.6548e-05

> <r_epik_State_Penalty>
0.730276

> <r_epik_Charging_Adjusted_Penalty>
1.43732

> <i_epik_Tot_Q>
1

> <i_epik_Tot_abs_Q>
1

> <r_epik_Metal_State_Penalty>
0.743132

> <b_epik_Metal_Only>
0

> <s_lp_Force_Field>
OPLS_2005

> <r_lp_Energy>
23.7206

> <b_lp_Chiralities_Consistent>
1

> <s_lp_Variant>
AV-unprocessed.smi:2061-12

> <Gold.Version>
5.8.1

> <Gold.Id.Protein>
6NUR|6NUR_protein|mol2

> <Gold.PLP.Fitness>
42.3549

> <Gold.PLP.PLP>
-30.6749

> <Gold.PLP.part.hbond>
-6.5692

> <Gold.PLP.part.metal>
0.0000

> <Gold.PLP.part.buried>
-3.1440

> <Gold.PLP.part.nonpolar>
-20.2339

> <Gold.PLP.part.repulsive>
0.3805

> <Gold.PLP.ligand.clash>
0.0000

> <Gold.PLP.ligand.torsion>
0.4730

> <Gold.PLP.Chemscore.Hbond>
4.1945

> <Gold.PLP.Chemscore.CHOScore>
0.0000

> <Gold.PLP.Chemscore.Metal>
0.0000

> <Gold.Chemscore.Hbonds>
donor molecule, donor type, donor heavy atom, donor atom, acceptor molecule, acceptor atom, score
      L1  H     5    26       P1  7948  0.12
      L1  H     8    27       P1  7948  1.00
      L1  H    12    46       P1  7948  1.50

> <Gold.PLP.Chemscore.Internal.Correction>
0.0425

> <Gold.Rescore>
     Score         DG    S(hbond)    S(metal)    S(lipo)     H(rot)  DE(clash)    DE(int)     intcor
     13.67     -15.97       2.30        0.00      58.64       1.58       0.36       1.94       ----

> <Gold.Chemscore.Fitness>
13.6655

> <Gold.Chemscore.DG>
-15.9662

> <Gold.Chemscore.ZeroCoef>
-5.4800

> <Gold.Chemscore.Hbond>
2.2992

> <Gold.Chemscore.Metal>
0.0000

> <Gold.Chemscore.Lipo>
58.6355

> <Gold.Chemscore.Internal_Hbond>
0.0000

> <Gold.Chemscore.DEClash>
0.3566

> <Gold.Chemscore.DEInternal>
1.9441

> <Gold.Chemscore.Rot>
1.5834

> <Gold.Chemscore.Internal.Correction>
   9.000000E+99

> <Gold.Chemscore.Hbonds>
donor molecule, donor type, donor heavy atom, donor atom, acceptor molecule, acceptor atom, score
      L1  H     5    26       P1  7948  0.13
      L1  H     8    27       P1  7948  0.72
      L1  H    12    46       P1  7948  0.45

> <Gold.Chemscore.Hbond.Weighted>
-7.6793

> <Gold.Chemscore.Metal.Weighted>
-0.0000

> <Gold.Chemscore.Lipo.Weighted>
-6.8604

> <Gold.Chemscore.Internal_Hbond.Weighted>
0.0000

> <Gold.Chemscore.DEClash.Weighted>
0.3566

> <Gold.Chemscore.DEInternal.Weighted>
1.9441

> <Gold.Chemscore.Rot.Weighted>
4.0535

> <Gold.Chemscore.Internal.Correction.Weighted>
   9.000000E+99

> <Gold.Protein.RotatedTorsions>
[ 6907 6896 6895 6894 ] final  -29.34 input  -60.11 | X-H torsion
[ 7974 7965 7964 7962 ] final   72.31 input  175.53 | X-H torsion
[ 8008 7997 7996 7995 ] final  163.58 input   59.86 | X-H torsion
[ 10167 10162 10161 10158 ] final  150.76 input  -65.29 | X-H torsion
[ 10718 10713 10712 10709 ] final -140.62 input   66.30 | X-H torsion
[ 10763 10752 10751 10750 ] final  -44.28 input  -60.55 | X-H torsion
[ 11005 11000 10999 10996 ] final   -7.75 input  -57.11 | X-H torsion

> <Gold.Protein.ActiveResidues>
 VAL166  LYS551  ARG553  GLY616  TRP617  ASP618  TYR619  PRO620  LYS621  CYS622 
 ASP623  PHE694  ASN695  SER759  ASP760  ASP761  ALA762  ILE779  LEU786  VAL792 
 PHE793  MET794  SER795  GLU796  ALA797  LYS798  CYS799  TRP800  GLU811  SER814 

> <Gold.Protein.RotatedAtoms>
  151.1205  135.0077  159.8536 H   0  0  0  0  0  0  0  0  0  0  0  0  # atno 6907 bound_to 6896
  152.5447  134.1728  159.8614 H   0  0  0  0  0  0  0  0  0  0  0  0  # atno 6908 bound_to 6896
  151.1786  133.4694  159.2627 H   0  0  0  0  0  0  0  0  0  0  0  0  # atno 6909 bound_to 6896
  145.7549  139.2776  143.1409 H   0  0  0  0  0  0  0  0  0  0  0  0  # atno 7974 bound_to 7965
  156.1946  140.1720  156.8024 H   0  0  0  0  0  0  0  0  0  0  0  0  # atno 8008 bound_to 7997
  154.5514  140.0717  156.8704 H   0  0  0  0  0  0  0  0  0  0  0  0  # atno 8009 bound_to 7997
  155.3022  140.3362  155.4249 H   0  0  0  0  0  0  0  0  0  0  0  0  # atno 8010 bound_to 7997
  139.4847  144.5496  151.7423 H   0  0  0  0  0  0  0  0  0  0  0  0  # atno 10167 bound_to 10162
  156.3244  130.7552  151.1657 H   0  0  0  0  0  0  0  0  0  0  0  0  # atno 10718 bound_to 10713
  154.0094  135.6683  153.4764 H   0  0  0  0  0  0  0  0  0  0  0  0  # atno 10763 bound_to 10752
  153.0627  135.5018  154.8127 H   0  0  0  0  0  0  0  0  0  0  0  0  # atno 10764 bound_to 10752
  154.7005  135.3078  154.9312 H   0  0  0  0  0  0  0  0  0  0  0  0  # atno 10765 bound_to 10752
  140.7161  133.8868  155.8786 H   0  0  0  0  0  0  0  0  0  0  0  0  # atno 11005 bound_to 11000
  146.0320  140.8248  142.9871 LP  0  0  0  0  0  0  0  0  0  0  0  0  # atno 17320 bound_to 7965
  144.6842  140.2783  143.7296 LP  0  0  0  0  0  0  0  0  0  0  0  0  # atno 17321 bound_to 7965
  140.5048  144.1114  150.5980 LP  0  0  0  0  0  0  0  0  0  0  0  0  # atno 17342 bound_to 10162
  140.4020  143.2699  151.9936 LP  0  0  0  0  0  0  0  0  0  0  0  0  # atno 17343 bound_to 10162
  157.7418  131.0498  150.5068 LP  0  0  0  0  0  0  0  0  0  0  0  0  # atno 17370 bound_to 10713
  156.5225  130.4165  149.6243 LP  0  0  0  0  0  0  0  0  0  0  0  0  # atno 17371 bound_to 10713
  141.0043  134.1107  157.4285 LP  0  0  0  0  0  0  0  0  0  0  0  0  # atno 17394 bound_to 11000
  139.8859  135.0077  156.6468 LP  0  0  0  0  0  0  0  0  0  0  0  0  # atno 17395 bound_to 11000

$$$$
