AV-unprocessed.smi:283|AV-procd|sdf|2155|dock5
  -GOLD-   2262021503D 1   1.00000     0.00000
 Structure written by MMmdl.
 48 51  0  0  0  0  0  0  0  0  1 V2000
  153.1782  140.1055  158.5377 C   0  0  0  0  0  0  0  0  0  0  0  0
  151.8523  140.8333  158.2796 C   0  0  2  0  0  0  0  0  0  0  0  0
  151.5461  140.8083  156.8502 N   0  0  0  0  0  0  0  0  0  0  0  0
  151.3427  139.6393  156.2032 C   0  0  0  0  0  0  0  0  0  0  0  0
  151.0991  139.7380  154.8748 N   0  0  0  0  0  0  0  0  0  0  0  0
  150.8516  138.6402  154.1552 C   0  0  0  0  0  0  0  0  0  0  0  0
  150.7948  137.3714  154.5631 N   0  0  0  0  0  0  0  0  0  0  0  0
  151.0487  137.2614  155.8991 C   0  0  0  0  0  0  0  0  0  0  0  0
  151.3506  138.3364  156.7825 C   0  0  0  0  0  0  0  0  0  0  0  0
  151.5970  137.8288  158.0521 N   0  0  0  0  0  0  0  0  0  0  0  0
  151.4269  136.5420  157.9266 C   0  0  0  0  0  0  0  0  0  0  0  0
  151.0479  136.1175  156.6712 N   0  0  0  0  0  0  0  0  0  0  0  0
  150.7743  134.7212  156.1951 C   0  0  1  0  0  0  0  0  0  0  0  0
  150.6366  133.9032  157.3216 O   0  0  0  0  0  0  0  0  0  0  0  0
  149.2646  133.6144  157.5837 C   0  0  1  0  0  0  0  0  0  0  0  0
  148.6541  134.6774  158.5195 C   0  0  0  0  0  0  0  0  0  0  0  0
  147.2876  134.4058  158.7459 O   0  0  0  0  0  0  0  0  0  0  0  0
  148.6437  133.5911  156.1849 C   0  0  2  0  0  0  0  0  0  0  0  0
  148.7867  132.2869  155.6483 O   0  0  0  0  0  0  0  0  0  0  0  0
  149.4412  134.6479  155.4213 C   0  0  2  0  0  0  0  0  0  0  0  0
  149.6053  134.3104  154.0566 O   0  0  0  0  0  0  0  0  0  0  0  0
  151.8810  142.2303  158.9085 C   0  0  0  0  0  0  0  0  0  0  0  0
  152.3199  142.3944  160.2432 C   0  0  0  0  0  0  0  0  0  0  0  0
  152.3678  143.6714  160.8325 C   0  0  0  0  0  0  0  0  0  0  0  0
  151.9676  144.8006  160.0961 C   0  0  0  0  0  0  0  0  0  0  0  0
  151.5122  144.6484  158.7737 C   0  0  0  0  0  0  0  0  0  0  0  0
  151.4614  143.3718  158.1789 C   0  0  0  0  0  0  0  0  0  0  0  0
  150.8786  143.2455  156.5558 Cl  0  0  0  0  0  0  0  0  0  0  0  0
  151.6571  134.4513  155.6143 H   0  0  0  0  0  0  0  0  0  0  0  0
  149.1983  132.6409  158.0727 H   0  0  0  0  0  0  0  0  0  0  0  0
  147.5786  133.8256  156.2010 H   0  0  0  0  0  0  0  0  0  0  0  0
  148.9192  135.6030  155.4940 H   0  0  0  0  0  0  0  0  0  0  0  0
  153.3830  140.0314  159.6061 H   0  0  0  0  0  0  0  0  0  0  0  0
  154.0153  140.6286  158.0745 H   0  0  0  0  0  0  0  0  0  0  0  0
  153.1555  139.0914  158.1375 H   0  0  0  0  0  0  0  0  0  0  0  0
  151.0727  140.2443  158.7593 H   0  0  0  0  0  0  0  0  0  0  0  0
  151.2153  141.6860  156.4765 H   0  0  0  0  0  0  0  0  0  0  0  0
  150.6630  138.8024  153.1043 H   0  0  0  0  0  0  0  0  0  0  0  0
  151.5631  135.8700  158.7610 H   0  0  0  0  0  0  0  0  0  0  0  0
  149.1634  134.6649  159.4833 H   0  0  0  0  0  0  0  0  0  0  0  0
  148.7563  135.6833  158.1119 H   0  0  0  0  0  0  0  0  0  0  0  0
  146.7722  134.9954  158.2166 H   0  0  0  0  0  0  0  0  0  0  0  0
  148.9961  132.3652  154.7300 H   0  0  0  0  0  0  0  0  0  0  0  0
  149.4133  135.0762  153.5370 H   0  0  0  0  0  0  0  0  0  0  0  0
  152.6307  141.5381  160.8237 H   0  0  0  0  0  0  0  0  0  0  0  0
  152.7124  143.7841  161.8499 H   0  0  0  0  0  0  0  0  0  0  0  0
  152.0045  145.7816  160.5464 H   0  0  0  0  0  0  0  0  0  0  0  0
  151.1986  145.5169  158.2134 H   0  0  0  0  0  0  0  0  0  0  0  0
  1  2  1  0  0  0  0
  1 33  1  0  0  0  0
  1 34  1  0  0  0  0
  1 35  1  0  0  0  0
  2  3  1  0  0  0  0
  2 22  1  0  0  0  0
  2 36  1  0  0  0  0
  3  4  1  0  0  0  0
  3 37  1  0  0  0  0
  4  9  1  0  0  0  0
  4  5  2  0  0  0  0
  5  6  1  0  0  0  0
  6  7  2  0  0  0  0
  6 38  1  0  0  0  0
  7  8  1  0  0  0  0
  8 12  1  0  0  0  0
  8  9  2  0  0  0  0
  9 10  1  0  0  0  0
 10 11  2  0  0  0  0
 11 12  1  0  0  0  0
 11 39  1  0  0  0  0
 12 13  1  0  0  0  0
 13 29  1  0  0  0  0
 13 20  1  0  0  0  0
 13 14  1  0  0  0  0
 14 15  1  0  0  0  0
 15 30  1  0  0  0  0
 15 16  1  0  0  0  0
 15 18  1  0  0  0  0
 16 17  1  0  0  0  0
 16 40  1  0  0  0  0
 16 41  1  0  0  0  0
 17 42  1  0  0  0  0
 18 31  1  0  0  0  0
 18 19  1  0  0  0  0
 18 20  1  0  0  0  0
 19 43  1  0  0  0  0
 20 32  1  0  0  0  0
 20 21  1  0  0  0  0
 21 44  1  0  0  0  0
 22 27  1  0  0  0  0
 22 23  2  0  0  0  0
 23 24  1  0  0  0  0
 23 45  1  0  0  0  0
 24 25  2  0  0  0  0
 24 46  1  0  0  0  0
 25 26  1  0  0  0  0
 25 47  1  0  0  0  0
 26 27  2  0  0  0  0
 26 48  1  0  0  0  0
 27 28  1  0  0  0  0
M  END
> <s_m_source_file>
AV-unprocessed.smi

> <i_m_source_file_index>
283

> <i_lp_mmshare_version>
43012

> <i_f3d_flags>
0

> <s_epik_input>
Q2xjMVtjSF1bY0hdW2NIXVtjSF1jMVtDQEhdKFtDSDNdKVtOSF1jKG5bY0hdbjIpYyhjMjMpbltjSF1uM1tDQEBIXTRPW0NASF0oW0NIMl1bT0hdKVtDQEBIXShbT0hdKVtDQEhdNFtPSF0=

> <s_epik_cmdline>
J2VwaWtfcHl0aG9uJywgJy1waCcsICc3LjAnLCAnLXRuJywgJzgnLCAnLW1hJywgJzIwMCcsICctbWV0YWxfYmluZGluZycsICctaW1hZScsICc8aW5maWxlLm1hZT4nLCAnLW9tYWUnLCAnPG91dGZpbGUubWFlPic=

> <r_lp_tautomer_probability>
1

> <r_epik_Ionization_Penalty>
0.000266407

> <r_epik_Ionization_Penalty_Charging>
0

> <r_epik_Ionization_Penalty_Neutral>
0.000266407

> <r_epik_State_Penalty>
-0

> <r_epik_Charging_Adjusted_Penalty>
0

> <i_epik_Tot_Q>
0

> <i_epik_Tot_abs_Q>
0

> <r_epik_Metal_State_Penalty>
-0

> <b_epik_Metal_Only>
0

> <s_epik_Chemistry_Notes>
This compound contains an acetal/aminal-like group ( X-CH(R)-Y where X, Y are N, S, or O) that may be acid/base labile, releasing an aldehyde.

> <s_lp_Force_Field>
OPLS_2005

> <r_lp_Energy>
45.281

> <b_lp_Chiralities_Consistent>
1

> <s_lp_Variant>
AV-unprocessed.smi:283-31

> <Gold.Version>
5.8.1

> <Gold.Id.Protein>
6NUR|6NUR_protein|mol2

> <Gold.PLP.Fitness>
48.5358

> <Gold.PLP.PLP>
-37.6543

> <Gold.PLP.part.hbond>
-3.0000

> <Gold.PLP.part.metal>
0.0000

> <Gold.PLP.part.buried>
-2.0510

> <Gold.PLP.part.nonpolar>
-32.1625

> <Gold.PLP.part.repulsive>
0.3620

> <Gold.PLP.ligand.clash>
0.0000

> <Gold.PLP.ligand.torsion>
0.4563

> <Gold.PLP.Chemscore.Hbond>
2.8960

> <Gold.PLP.Chemscore.CHOScore>
1.0000

> <Gold.PLP.Chemscore.Metal>
0.0000

> <Gold.Chemscore.Hbonds>
donor molecule, donor type, donor heavy atom, donor atom, acceptor molecule, acceptor atom, score
      L1  H    21    44       P1  7948  0.68
      P1  H  6896  6908       L1    14  0.18
      P1  H  7989  7998       L1     5  0.95
      L1  C     6    38       P1  7957  1.00

> <Gold.PLP.Chemscore.Internal.Correction>
0.1060

> <Gold.Rescore>
     Score         DG    S(hbond)    S(metal)    S(lipo)     H(rot)  DE(clash)    DE(int)     intcor
      7.42     -12.51       1.56        0.00     105.19       4.10       0.57       4.52       ----

> <Gold.Chemscore.Fitness>
7.4177

> <Gold.Chemscore.DG>
-12.5080

> <Gold.Chemscore.ZeroCoef>
-5.4800

> <Gold.Chemscore.Hbond>
1.5593

> <Gold.Chemscore.Metal>
0.0000

> <Gold.Chemscore.Lipo>
105.1943

> <Gold.Chemscore.Internal_Hbond>
0.0000

> <Gold.Chemscore.DEClash>
0.5715

> <Gold.Chemscore.DEInternal>
4.5188

> <Gold.Chemscore.Rot>
4.0968

> <Gold.Chemscore.Internal.Correction>
   9.000000E+99

> <Gold.Chemscore.Hbonds>
donor molecule, donor type, donor heavy atom, donor atom, acceptor molecule, acceptor atom, score
      L1  H    21    44       P1  7948  0.07
      P1  H  7989  7998       L1     5  0.22

> <Gold.Chemscore.Hbond.Weighted>
-5.2082

> <Gold.Chemscore.Metal.Weighted>
-0.0000

> <Gold.Chemscore.Lipo.Weighted>
-12.3077

> <Gold.Chemscore.Internal_Hbond.Weighted>
0.0000

> <Gold.Chemscore.DEClash.Weighted>
0.5715

> <Gold.Chemscore.DEInternal.Weighted>
4.5188

> <Gold.Chemscore.Rot.Weighted>
10.4879

> <Gold.Chemscore.Internal.Correction.Weighted>
   9.000000E+99

> <Gold.Protein.RotatedTorsions>
[ 6907 6896 6895 6894 ] final  116.99 input  -60.11 | X-H torsion
[ 7974 7965 7964 7962 ] final  -31.66 input  175.53 | X-H torsion
[ 8008 7997 7996 7995 ] final  -23.49 input   59.86 | X-H torsion
[ 10167 10162 10161 10158 ] final  122.80 input  -65.29 | X-H torsion
[ 10718 10713 10712 10709 ] final  160.59 input   66.30 | X-H torsion
[ 10763 10752 10751 10750 ] final  168.31 input  -60.55 | X-H torsion
[ 11005 11000 10999 10996 ] final   61.59 input  -57.11 | X-H torsion

> <Gold.Protein.ActiveResidues>
 VAL166  LYS551  ARG553  GLY616  TRP617  ASP618  TYR619  PRO620  LYS621  CYS622 
 ASP623  PHE694  ASN695  SER759  ASP760  ASP761  ALA762  ILE779  LEU786  VAL792 
 PHE793  MET794  SER795  GLU796  ALA797  LYS798  CYS799  TRP800  GLU811  SER814 

> <Gold.Protein.RotatedAtoms>
  152.4641  133.7886  159.6889 H   0  0  0  0  0  0  0  0  0  0  0  0  # atno 6907 bound_to 6896
  150.8598  133.7651  159.3002 H   0  0  0  0  0  0  0  0  0  0  0  0  # atno 6908 bound_to 6896
  151.5219  135.1070  159.9932 H   0  0  0  0  0  0  0  0  0  0  0  0  # atno 6909 bound_to 6896
  146.1050  140.5696  142.8804 H   0  0  0  0  0  0  0  0  0  0  0  0  # atno 7974 bound_to 7965
  154.4582  140.1979  156.0318 H   0  0  0  0  0  0  0  0  0  0  0  0  # atno 8008 bound_to 7997
  156.0789  140.3274  155.7640 H   0  0  0  0  0  0  0  0  0  0  0  0  # atno 8009 bound_to 7997
  155.5144  140.0564  157.2908 H   0  0  0  0  0  0  0  0  0  0  0  0  # atno 8010 bound_to 7997
  139.5837  144.6997  151.3463 H   0  0  0  0  0  0  0  0  0  0  0  0  # atno 10167 bound_to 10162
  157.1483  131.0557  151.2293 H   0  0  0  0  0  0  0  0  0  0  0  0  # atno 10718 bound_to 10713
  154.3667  135.2753  155.2290 H   0  0  0  0  0  0  0  0  0  0  0  0  # atno 10763 bound_to 10752
  154.4455  135.5944  153.6160 H   0  0  0  0  0  0  0  0  0  0  0  0  # atno 10764 bound_to 10752
  152.9840  135.6029  154.3893 H   0  0  0  0  0  0  0  0  0  0  0  0  # atno 10765 bound_to 10752
  140.0151  134.6237  155.9722 H   0  0  0  0  0  0  0  0  0  0  0  0  # atno 11005 bound_to 11000
  144.7463  140.5077  143.6833 LP  0  0  0  0  0  0  0  0  0  0  0  0  # atno 17320 bound_to 7965
  145.5779  139.1487  143.3252 LP  0  0  0  0  0  0  0  0  0  0  0  0  # atno 17321 bound_to 7965
  140.7112  143.7386  150.7570 LP  0  0  0  0  0  0  0  0  0  0  0  0  # atno 17342 bound_to 10162
  140.0925  143.4864  152.2471 LP  0  0  0  0  0  0  0  0  0  0  0  0  # atno 17343 bound_to 10162
  157.4244  130.7455  149.6939 LP  0  0  0  0  0  0  0  0  0  0  0  0  # atno 17370 bound_to 10713
  155.9775  130.4062  150.3707 LP  0  0  0  0  0  0  0  0  0  0  0  0  # atno 17371 bound_to 10713
  141.1737  133.6539  156.4748 LP  0  0  0  0  0  0  0  0  0  0  0  0  # atno 17394 bound_to 11000
  140.4486  134.6950  157.5028 LP  0  0  0  0  0  0  0  0  0  0  0  0  # atno 17395 bound_to 11000

$$$$
