AV-unprocessed.smi:1954|AV-procd|sdf|7894|dock6
  -GOLD-   2272010 53D 1   1.00000     0.00000
 Structure written by MMmdl.
 44 46  0  0  0  0  0  0  0  0  1 V2000
  144.6740  136.3940  153.0749 O   0  0  0  0  0  0  0  0  0  0  0  0
  145.8572  136.2832  152.7521 C   0  0  0  0  0  0  0  0  0  0  0  0
  146.8239  137.0878  153.2111 N   0  0  0  0  0  0  0  0  0  0  0  0
  146.6159  138.1855  154.1507 C   0  0  0  0  0  0  0  0  0  0  0  0
  147.9293  138.9923  154.4078 C   0  0  1  0  0  0  0  0  0  0  0  0
  149.1084  138.0726  154.4218 N   0  0  0  0  0  0  0  0  0  0  0  0
  150.4309  138.7150  154.4106 C   0  0  0  0  0  0  0  0  0  0  0  0
  151.5792  137.6933  154.3445 C   0  0  0  0  0  0  0  0  0  0  0  0
  151.4779  136.7832  155.4310 O   0  0  0  0  0  0  0  0  0  0  0  0
  150.2416  136.0830  155.4295 C   0  0  0  0  0  0  0  0  0  0  0  0
  149.0791  137.0860  155.5105 C   0  0  0  0  0  0  0  0  0  0  0  0
  148.0203  140.0983  153.3162 C   0  0  0  0  0  0  0  0  0  0  0  0
  146.9598  141.1703  153.5913 C   0  0  0  0  0  0  0  0  0  0  0  0
  146.7408  141.2670  155.3836 S   0  0  0  0  0  0  0  0  0  0  0  0
  147.7559  139.8012  155.7188 C   0  0  0  0  0  0  0  0  0  0  0  0
  146.3533  135.3565  151.9133 N   0  0  0  0  0  0  0  0  0  0  0  0
  145.6503  134.3399  151.2136 C   0  0  0  0  0  0  0  0  0  0  0  0
  146.4655  133.4096  150.5298 C   0  0  0  0  0  0  0  0  0  0  0  0
  145.8641  132.3638  149.8032 C   0  0  0  0  0  0  0  0  0  0  0  0
  144.4608  132.2755  149.7776 C   0  0  0  0  0  0  0  0  0  0  0  0
  143.7231  133.2427  150.4847 C   0  0  0  0  0  0  0  0  0  0  0  0
  144.2975  134.2453  151.1825 N   0  0  0  0  0  0  0  0  0  0  0  0
  147.7719  136.9296  152.9018 H   0  0  0  0  0  0  0  0  0  0  0  0
  145.8229  138.8270  153.7667 H   0  0  0  0  0  0  0  0  0  0  0  0
  146.2069  137.7822  155.0767 H   0  0  0  0  0  0  0  0  0  0  0  0
  150.5452  139.3623  153.5446 H   0  0  0  0  0  0  0  0  0  0  0  0
  150.5656  139.3346  155.2963 H   0  0  0  0  0  0  0  0  0  0  0  0
  151.5572  137.1473  153.4002 H   0  0  0  0  0  0  0  0  0  0  0  0
  152.5416  138.2023  154.3964 H   0  0  0  0  0  0  0  0  0  0  0  0
  150.1610  135.4698  154.5305 H   0  0  0  0  0  0  0  0  0  0  0  0
  150.2163  135.4054  156.2826 H   0  0  0  0  0  0  0  0  0  0  0  0
  149.1156  137.5939  156.4749 H   0  0  0  0  0  0  0  0  0  0  0  0
  148.1568  136.5098  155.4940 H   0  0  0  0  0  0  0  0  0  0  0  0
  148.9717  140.6231  153.3631 H   0  0  0  0  0  0  0  0  0  0  0  0
  147.9375  139.7016  152.3040 H   0  0  0  0  0  0  0  0  0  0  0  0
  147.2504  142.1399  153.1865 H   0  0  0  0  0  0  0  0  0  0  0  0
  146.0076  140.9017  153.1334 H   0  0  0  0  0  0  0  0  0  0  0  0
  147.3119  139.2101  156.5204 H   0  0  0  0  0  0  0  0  0  0  0  0
  148.7100  140.1707  156.0905 H   0  0  0  0  0  0  0  0  0  0  0  0
  147.3498  135.3819  151.7562 H   0  0  0  0  0  0  0  0  0  0  0  0
  147.5424  133.4923  150.5595 H   0  0  0  0  0  0  0  0  0  0  0  0
  146.4699  131.6422  149.2750 H   0  0  0  0  0  0  0  0  0  0  0  0
  143.9629  131.4885  149.2309 H   0  0  0  0  0  0  0  0  0  0  0  0
  142.6436  133.2113  150.4910 H   0  0  0  0  0  0  0  0  0  0  0  0
  1  2  2  0  0  0  0
  2  3  1  0  0  0  0
  2 16  1  0  0  0  0
  3  4  1  0  0  0  0
  3 23  1  0  0  0  0
  4  5  1  0  0  0  0
  4 24  1  0  0  0  0
  4 25  1  0  0  0  0
  5 15  1  0  0  0  0
  5  6  1  0  0  0  0
  5 12  1  0  0  0  0
  6 11  1  0  0  0  0
  6  7  1  0  0  0  0
  7  8  1  0  0  0  0
  7 26  1  0  0  0  0
  7 27  1  0  0  0  0
  8  9  1  0  0  0  0
  8 28  1  0  0  0  0
  8 29  1  0  0  0  0
  9 10  1  0  0  0  0
 10 11  1  0  0  0  0
 10 30  1  0  0  0  0
 10 31  1  0  0  0  0
 11 32  1  0  0  0  0
 11 33  1  0  0  0  0
 12 13  1  0  0  0  0
 12 34  1  0  0  0  0
 12 35  1  0  0  0  0
 13 14  1  0  0  0  0
 13 36  1  0  0  0  0
 13 37  1  0  0  0  0
 14 15  1  0  0  0  0
 15 38  1  0  0  0  0
 15 39  1  0  0  0  0
 16 17  1  0  0  0  0
 16 40  1  0  0  0  0
 17 22  1  0  0  0  0
 17 18  2  0  0  0  0
 18 19  1  0  0  0  0
 18 41  1  0  0  0  0
 19 20  2  0  0  0  0
 19 42  1  0  0  0  0
 20 21  1  0  0  0  0
 20 43  1  0  0  0  0
 21 22  2  0  0  0  0
 21 44  1  0  0  0  0
M  END
> <s_m_source_file>
AV-unprocessed.smi

> <i_m_source_file_index>
1954

> <i_lp_mmshare_version>
43012

> <i_f3d_flags>
0

> <s_epik_input>
bjFbY0hdW2NIXVtjSF1bY0hdYzFbTkhdQyg9TylbTkhdW0NIMl1bQ0BdMihbQ0gyXVtDSDJdU1tDSDJdMilOM1tDSDJdW0NIMl1PW0NIMl1bQ0gyXTM=

> <s_epik_cmdline>
J2VwaWtfcHl0aG9uJywgJy1waCcsICc3LjAnLCAnLXRuJywgJzgnLCAnLW1hJywgJzIwMCcsICctbWV0YWxfYmluZGluZycsICctaW1hZScsICc8aW5maWxlLm1hZT4nLCAnLW9tYWUnLCAnPG91dGZpbGUubWFlPic=

> <r_epik_Ionization_Penalty>
0.0195535

> <r_epik_Ionization_Penalty_Charging>
0

> <r_epik_Ionization_Penalty_Neutral>
0.0195535

> <r_epik_State_Penalty>
0.0155843

> <r_epik_Charging_Adjusted_Penalty>
0.0155843

> <i_epik_Tot_Q>
0

> <i_epik_Tot_abs_Q>
0

> <r_epik_Metal_State_Penalty>
0.0155842

> <b_epik_Metal_Only>
0

> <s_lp_Force_Field>
OPLS_2005

> <r_lp_Energy>
55.5144

> <b_lp_Chiralities_Consistent>
1

> <s_lp_Variant>
AV-unprocessed.smi:1954-1

> <Gold.Version>
5.8.1

> <Gold.Id.Protein>
6NUR|6NUR_protein|mol2

> <Gold.PLP.Fitness>
43.7296

> <Gold.PLP.PLP>
-32.7330

> <Gold.PLP.part.hbond>
-3.0000

> <Gold.PLP.part.metal>
0.0000

> <Gold.PLP.part.buried>
-3.2244

> <Gold.PLP.part.nonpolar>
-28.0567

> <Gold.PLP.part.repulsive>
0.5778

> <Gold.PLP.ligand.clash>
0.0000

> <Gold.PLP.ligand.torsion>
0.4821

> <Gold.PLP.Chemscore.Hbond>
3.0000

> <Gold.PLP.Chemscore.CHOScore>
0.9645

> <Gold.PLP.Chemscore.Metal>
0.0000

> <Gold.Chemscore.Hbonds>
donor molecule, donor type, donor heavy atom, donor atom, acceptor molecule, acceptor atom, score
      L1  H     3    23       P1  7948  1.00
      L1  H    16    40       P1  7948  1.00
      P1  H 10752 10765       L1     9  0.77
      L1  C    21    44       P1 10186  1.00

> <Gold.PLP.Chemscore.Internal.Correction>
0.0674

> <Gold.Rescore>
     Score         DG    S(hbond)    S(metal)    S(lipo)     H(rot)  DE(clash)    DE(int)     intcor
     16.78     -19.99       2.39        0.00      88.45       1.49       1.48       1.73       ----

> <Gold.Chemscore.Fitness>
16.7792

> <Gold.Chemscore.DG>
-19.9910

> <Gold.Chemscore.ZeroCoef>
-5.4800

> <Gold.Chemscore.Hbond>
2.3913

> <Gold.Chemscore.Metal>
0.0000

> <Gold.Chemscore.Lipo>
88.4503

> <Gold.Chemscore.Internal_Hbond>
0.0000

> <Gold.Chemscore.DEClash>
1.4835

> <Gold.Chemscore.DEInternal>
1.7282

> <Gold.Chemscore.Rot>
1.4940

> <Gold.Chemscore.Internal.Correction>
   9.000000E+99

> <Gold.Chemscore.Hbonds>
donor molecule, donor type, donor heavy atom, donor atom, acceptor molecule, acceptor atom, score
      L1  H     3    23       P1  7948  0.97
      L1  H    16    40       P1  7948  0.95
      P1  H 10752 10765       L1     9  0.10

> <Gold.Chemscore.Hbond.Weighted>
-7.9869

> <Gold.Chemscore.Metal.Weighted>
-0.0000

> <Gold.Chemscore.Lipo.Weighted>
-10.3487

> <Gold.Chemscore.Internal_Hbond.Weighted>
0.0000

> <Gold.Chemscore.DEClash.Weighted>
1.4835

> <Gold.Chemscore.DEInternal.Weighted>
1.7282

> <Gold.Chemscore.Rot.Weighted>
3.8246

> <Gold.Chemscore.Internal.Correction.Weighted>
   9.000000E+99

> <Gold.Protein.RotatedTorsions>
[ 6907 6896 6895 6894 ] final -163.57 input  -60.11 | X-H torsion
[ 7974 7965 7964 7962 ] final -160.49 input  175.53 | X-H torsion
[ 8008 7997 7996 7995 ] final  102.52 input   59.86 | X-H torsion
[ 10167 10162 10161 10158 ] final -152.37 input  -65.29 | X-H torsion
[ 10718 10713 10712 10709 ] final -178.40 input   66.30 | X-H torsion
[ 10763 10752 10751 10750 ] final -162.13 input  -60.55 | X-H torsion
[ 11005 11000 10999 10996 ] final  -81.87 input  -57.11 | X-H torsion

> <Gold.Protein.ActiveResidues>
 VAL166  LYS551  ARG553  GLY616  TRP617  ASP618  TYR619  PRO620  LYS621  CYS622 
 ASP623  PHE694  ASN695  SER759  ASP760  ASP761  ALA762  ILE779  LEU786  VAL792 
 PHE793  MET794  SER795  GLU796  ALA797  LYS798  CYS799  TRP800  GLU811  SER814 

> <Gold.Protein.RotatedAtoms>
  151.3981  133.3766  159.2728 H   0  0  0  0  0  0  0  0  0  0  0  0  # atno 6907 bound_to 6896
  150.9454  134.8861  159.7649 H   0  0  0  0  0  0  0  0  0  0  0  0  # atno 6908 bound_to 6896
  152.5089  134.3934  159.9444 H   0  0  0  0  0  0  0  0  0  0  0  0  # atno 6909 bound_to 6896
  144.7425  140.3534  143.6111 H   0  0  0  0  0  0  0  0  0  0  0  0  # atno 7974 bound_to 7965
  156.1401  140.3180  155.8482 H   0  0  0  0  0  0  0  0  0  0  0  0  # atno 8008 bound_to 7997
  155.4171  140.0510  157.3045 H   0  0  0  0  0  0  0  0  0  0  0  0  # atno 8009 bound_to 7997
  154.4969  140.2114  155.9441 H   0  0  0  0  0  0  0  0  0  0  0  0  # atno 8010 bound_to 7997
  139.7187  143.8992  152.2495 H   0  0  0  0  0  0  0  0  0  0  0  0  # atno 10167 bound_to 10162
  156.8437  130.9695  151.3098 H   0  0  0  0  0  0  0  0  0  0  0  0  # atno 10718 bound_to 10713
  154.7242  135.3032  154.8998 H   0  0  0  0  0  0  0  0  0  0  0  0  # atno 10763 bound_to 10752
  153.9861  135.6724  153.4756 H   0  0  0  0  0  0  0  0  0  0  0  0  # atno 10764 bound_to 10752
  153.0860  135.4984  154.8516 H   0  0  0  0  0  0  0  0  0  0  0  0  # atno 10765 bound_to 10752
  141.1665  133.7217  156.8487 H   0  0  0  0  0  0  0  0  0  0  0  0  # atno 11005 bound_to 11000
  145.7253  139.1721  143.2461 LP  0  0  0  0  0  0  0  0  0  0  0  0  # atno 17320 bound_to 7965
  146.1247  140.7264  142.9441 LP  0  0  0  0  0  0  0  0  0  0  0  0  # atno 17321 bound_to 7965
  139.8882  144.6980  150.8801 LP  0  0  0  0  0  0  0  0  0  0  0  0  # atno 17342 bound_to 10162
  140.7749  143.3607  151.1833 LP  0  0  0  0  0  0  0  0  0  0  0  0  # atno 17343 bound_to 10162
  157.6341  130.8753  149.9327 LP  0  0  0  0  0  0  0  0  0  0  0  0  # atno 17370 bound_to 10713
  156.0866  130.3667  150.0475 LP  0  0  0  0  0  0  0  0  0  0  0  0  # atno 17371 bound_to 10713
  140.1931  134.8951  157.3084 LP  0  0  0  0  0  0  0  0  0  0  0  0  # atno 17394 bound_to 11000
  140.2268  134.3957  155.7540 LP  0  0  0  0  0  0  0  0  0  0  0  0  # atno 17395 bound_to 11000

$$$$
