AV-unprocessed.smi:2638|AV-procd|sdf|10263|dock1
  -GOLD-   2272014273D 1   1.00000     0.00000
 Structure written by MMmdl.
 43 44  0  0  0  0  0  0  0  0  1 V2000
  151.1229  142.2847  157.4059 O   0  0  0  0  0  0  0  0  0  0  0  0
  151.5873  141.1488  157.4995 C   0  0  0  0  0  0  0  0  0  0  0  0
  152.2922  140.6827  158.5453 N   0  0  0  0  0  0  0  0  0  0  0  0
  152.6662  141.3635  159.7345 C   0  0  0  0  0  0  0  0  0  0  0  0
  152.1397  142.6473  160.0327 C   0  0  0  0  0  0  0  0  0  0  0  0
  152.5111  143.2849  161.2322 C   0  0  0  0  0  0  0  0  0  0  0  0
  153.3863  142.6223  162.1106 C   0  0  0  0  0  0  0  0  0  0  0  0
  153.8448  141.3431  161.7479 C   0  0  0  0  0  0  0  0  0  0  0  0
  153.4913  140.7288  160.5989 N   0  0  0  0  0  0  0  0  0  0  0  0
  151.4636  140.2099  156.5464 N   0  0  0  0  0  0  0  0  0  0  0  0
  150.7638  140.3315  155.2610 C   0  0  1  0  0  0  0  0  0  0  0  0
  150.4726  138.9373  154.6459 C   0  0  0  0  0  0  0  0  0  0  0  0
  151.7074  138.0242  154.5453 C   0  0  0  0  0  0  0  0  0  0  0  0
  151.3183  136.7397  154.1096 O   0  0  0  0  0  0  0  0  0  0  0  0
  149.5196  141.2683  155.3524 C   0  0  0  0  0  0  0  0  0  0  0  0
  148.5864  140.9011  156.5328 C   0  0  0  0  0  0  0  0  0  0  0  0
  147.3492  141.8109  156.6084 C   0  0  0  0  0  0  0  0  0  0  0  0
  146.5623  141.7977  155.2922 C   0  0  0  0  0  0  0  0  0  0  0  0
  147.4676  142.1913  154.1190 C   0  0  0  0  0  0  0  0  0  0  0  0
  148.6997  141.2771  154.0364 C   0  0  0  0  0  0  0  0  0  0  0  0
  152.6934  139.7635  158.4332 H   0  0  0  0  0  0  0  0  0  0  0  0
  151.4497  143.1475  159.3702 H   0  0  0  0  0  0  0  0  0  0  0  0
  152.1249  144.2635  161.4766 H   0  0  0  0  0  0  0  0  0  0  0  0
  153.6926  143.0790  163.0401 H   0  0  0  0  0  0  0  0  0  0  0  0
  154.5112  140.7963  162.3984 H   0  0  0  0  0  0  0  0  0  0  0  0
  151.8944  139.3149  156.7263 H   0  0  0  0  0  0  0  0  0  0  0  0
  151.4809  140.8208  154.6007 H   0  0  0  0  0  0  0  0  0  0  0  0
  149.6904  138.4328  155.2143 H   0  0  0  0  0  0  0  0  0  0  0  0
  150.0788  139.0598  153.6378 H   0  0  0  0  0  0  0  0  0  0  0  0
  152.4305  138.4332  153.8391 H   0  0  0  0  0  0  0  0  0  0  0  0
  152.2088  137.9250  155.5083 H   0  0  0  0  0  0  0  0  0  0  0  0
  151.1798  136.7679  153.1752 H   0  0  0  0  0  0  0  0  0  0  0  0
  149.8719  142.2857  155.5273 H   0  0  0  0  0  0  0  0  0  0  0  0
  148.2685  139.8617  156.4411 H   0  0  0  0  0  0  0  0  0  0  0  0
  149.1141  140.9813  157.4820 H   0  0  0  0  0  0  0  0  0  0  0  0
  146.7048  141.4930  157.4285 H   0  0  0  0  0  0  0  0  0  0  0  0
  147.6600  142.8309  156.8387 H   0  0  0  0  0  0  0  0  0  0  0  0
  146.1488  140.8031  155.1206 H   0  0  0  0  0  0  0  0  0  0  0  0
  145.7146  142.4806  155.3562 H   0  0  0  0  0  0  0  0  0  0  0  0
  146.9066  142.1428  153.1853 H   0  0  0  0  0  0  0  0  0  0  0  0
  147.7884  143.2275  154.2335 H   0  0  0  0  0  0  0  0  0  0  0  0
  149.3123  141.6099  153.1988 H   0  0  0  0  0  0  0  0  0  0  0  0
  148.3806  140.2618  153.7975 H   0  0  0  0  0  0  0  0  0  0  0  0
  1  2  2  0  0  0  0
  2  3  1  0  0  0  0
  2 10  1  0  0  0  0
  3  4  1  0  0  0  0
  3 21  1  0  0  0  0
  4  9  1  0  0  0  0
  4  5  2  0  0  0  0
  5  6  1  0  0  0  0
  5 22  1  0  0  0  0
  6  7  2  0  0  0  0
  6 23  1  0  0  0  0
  7  8  1  0  0  0  0
  7 24  1  0  0  0  0
  8  9  2  0  0  0  0
  8 25  1  0  0  0  0
 10 11  1  0  0  0  0
 10 26  1  0  0  0  0
 11 12  1  0  0  0  0
 11 15  1  0  0  0  0
 11 27  1  0  0  0  0
 12 13  1  0  0  0  0
 12 28  1  0  0  0  0
 12 29  1  0  0  0  0
 13 14  1  0  0  0  0
 13 30  1  0  0  0  0
 13 31  1  0  0  0  0
 14 32  1  0  0  0  0
 15 20  1  0  0  0  0
 15 16  1  0  0  0  0
 15 33  1  0  0  0  0
 16 17  1  0  0  0  0
 16 34  1  0  0  0  0
 16 35  1  0  0  0  0
 17 18  1  0  0  0  0
 17 36  1  0  0  0  0
 17 37  1  0  0  0  0
 18 19  1  0  0  0  0
 18 38  1  0  0  0  0
 18 39  1  0  0  0  0
 19 20  1  0  0  0  0
 19 40  1  0  0  0  0
 19 41  1  0  0  0  0
 20 42  1  0  0  0  0
 20 43  1  0  0  0  0
M  END
> <s_m_source_file>
AV-unprocessed.smi

> <i_m_source_file_index>
2638

> <i_lp_mmshare_version>
43012

> <i_f3d_flags>
0

> <s_epik_input>
bjFbY0hdW2NIXVtjSF1bY0hdYzFbTkhdQyg9TylbTkhdW0NASF0oW0NIMl1bQ0gyXVtPSF0pW0NIXTJbQ0gyXVtDSDJdW0NIMl1bQ0gyXVtDSDJdMg==

> <s_epik_cmdline>
J2VwaWtfcHl0aG9uJywgJy1waCcsICc3LjAnLCAnLXRuJywgJzgnLCAnLW1hJywgJzIwMCcsICctbWV0YWxfYmluZGluZycsICctaW1hZScsICc8aW5maWxlLm1hZT4nLCAnLW9tYWUnLCAnPG91dGZpbGUubWFlPic=

> <r_lp_tautomer_probability>
1

> <r_epik_Ionization_Penalty>
5.22449e-05

> <r_epik_Ionization_Penalty_Charging>
0

> <r_epik_Ionization_Penalty_Neutral>
5.22449e-05

> <r_epik_State_Penalty>
-0

> <r_epik_Charging_Adjusted_Penalty>
0

> <i_epik_Tot_Q>
0

> <i_epik_Tot_abs_Q>
0

> <r_epik_Metal_State_Penalty>
-0

> <b_epik_Metal_Only>
0

> <s_lp_Force_Field>
OPLS_2005

> <r_lp_Energy>
21.512

> <b_lp_Chiralities_Consistent>
1

> <s_lp_Variant>
AV-unprocessed.smi:2638-2

> <Gold.Version>
5.8.1

> <Gold.Id.Protein>
6NUR|6NUR_protein|mol2

> <Gold.PLP.Fitness>
49.0621

> <Gold.PLP.PLP>
-43.9104

> <Gold.PLP.part.hbond>
-2.2467

> <Gold.PLP.part.metal>
0.0000

> <Gold.PLP.part.buried>
-5.6559

> <Gold.PLP.part.nonpolar>
-36.0951

> <Gold.PLP.part.repulsive>
0.2947

> <Gold.PLP.ligand.clash>
0.0000

> <Gold.PLP.ligand.torsion>
0.4918

> <Gold.PLP.Chemscore.Hbond>
2.0000

> <Gold.PLP.Chemscore.CHOScore>
0.0000

> <Gold.PLP.Chemscore.Metal>
0.0000

> <Gold.Chemscore.Hbonds>
donor molecule, donor type, donor heavy atom, donor atom, acceptor molecule, acceptor atom, score
      L1  H    14    32       P1  7949  1.00
      P1  H 10752 10764       L1    14  1.00

> <Gold.PLP.Chemscore.Internal.Correction>
0.1352

> <Gold.Rescore>
     Score         DG    S(hbond)    S(metal)    S(lipo)     H(rot)  DE(clash)    DE(int)     intcor
     13.74     -16.97       1.74        0.00      98.75       2.30       0.19       3.04       ----

> <Gold.Chemscore.Fitness>
13.7370

> <Gold.Chemscore.DG>
-16.9721

> <Gold.Chemscore.ZeroCoef>
-5.4800

> <Gold.Chemscore.Hbond>
1.7422

> <Gold.Chemscore.Metal>
0.0000

> <Gold.Chemscore.Lipo>
98.7517

> <Gold.Chemscore.Internal_Hbond>
0.0000

> <Gold.Chemscore.DEClash>
0.1907

> <Gold.Chemscore.DEInternal>
3.0444

> <Gold.Chemscore.Rot>
2.2972

> <Gold.Chemscore.Internal.Correction>
   9.000000E+99

> <Gold.Chemscore.Hbonds>
donor molecule, donor type, donor heavy atom, donor atom, acceptor molecule, acceptor atom, score
      L1  H    14    32       P1  7949  0.48
      P1  H 10752 10764       L1    14  0.28

> <Gold.Chemscore.Hbond.Weighted>
-5.8189

> <Gold.Chemscore.Metal.Weighted>
-0.0000

> <Gold.Chemscore.Lipo.Weighted>
-11.5539

> <Gold.Chemscore.Internal_Hbond.Weighted>
0.0000

> <Gold.Chemscore.DEClash.Weighted>
0.1907

> <Gold.Chemscore.DEInternal.Weighted>
3.0444

> <Gold.Chemscore.Rot.Weighted>
5.8807

> <Gold.Chemscore.Internal.Correction.Weighted>
   9.000000E+99

> <Gold.Protein.RotatedTorsions>
[ 6907 6896 6895 6894 ] final   22.74 input  -60.11 | X-H torsion
[ 7974 7965 7964 7962 ] final   50.44 input  175.53 | X-H torsion
[ 8008 7997 7996 7995 ] final   83.68 input   59.86 | X-H torsion
[ 10167 10162 10161 10158 ] final   33.72 input  -65.29 | X-H torsion
[ 10718 10713 10712 10709 ] final -151.56 input   66.30 | X-H torsion
[ 10763 10752 10751 10750 ] final  -65.34 input  -60.55 | X-H torsion
[ 11005 11000 10999 10996 ] final  102.10 input  -57.11 | X-H torsion

> <Gold.Protein.ActiveResidues>
 VAL166  LYS551  ARG553  GLY616  TRP617  ASP618  TYR619  PRO620  LYS621  CYS622 
 ASP623  PHE694  ASN695  SER759  ASP760  ASP761  ALA762  ILE779  LEU786  VAL792 
 PHE793  MET794  SER795  GLU796  ALA797  LYS798  CYS799  TRP800  GLU811  SER814 

> <Gold.Protein.RotatedAtoms>
  151.9317  135.0253  160.0529 H   0  0  0  0  0  0  0  0  0  0  0  0  # atno 6907 bound_to 6896
  152.2113  133.4908  159.5120 H   0  0  0  0  0  0  0  0  0  0  0  0  # atno 6908 bound_to 6896
  150.6977  134.1381  159.4137 H   0  0  0  0  0  0  0  0  0  0  0  0  # atno 6909 bound_to 6896
  146.0011  139.4440  143.0014 H   0  0  0  0  0  0  0  0  0  0  0  0  # atno 7974 bound_to 7965
  155.9271  140.3417  155.6219 H   0  0  0  0  0  0  0  0  0  0  0  0  # atno 8008 bound_to 7997
  155.7203  140.0782  157.2352 H   0  0  0  0  0  0  0  0  0  0  0  0  # atno 8009 bound_to 7997
  154.4079  140.1606  156.2382 H   0  0  0  0  0  0  0  0  0  0  0  0  # atno 8010 bound_to 7997
  140.4381  144.1227  150.6169 H   0  0  0  0  0  0  0  0  0  0  0  0  # atno 10167 bound_to 10162
  156.4608  130.8212  151.2443 H   0  0  0  0  0  0  0  0  0  0  0  0  # atno 10718 bound_to 10713
  154.3436  135.6151  153.5608 H   0  0  0  0  0  0  0  0  0  0  0  0  # atno 10763 bound_to 10752
  152.9802  135.5775  154.4825 H   0  0  0  0  0  0  0  0  0  0  0  0  # atno 10764 bound_to 10752
  154.4533  135.2853  155.1742 H   0  0  0  0  0  0  0  0  0  0  0  0  # atno 10765 bound_to 10752
  139.8776  134.9210  156.5007 H   0  0  0  0  0  0  0  0  0  0  0  0  # atno 11005 bound_to 11000
  145.7486  140.9981  143.1263 LP  0  0  0  0  0  0  0  0  0  0  0  0  # atno 17320 bound_to 7965
  144.6920  139.9186  143.7467 LP  0  0  0  0  0  0  0  0  0  0  0  0  # atno 17321 bound_to 7965
  140.4350  143.2551  151.9547 LP  0  0  0  0  0  0  0  0  0  0  0  0  # atno 17342 bound_to 10162
  139.4788  144.5709  151.8090 LP  0  0  0  0  0  0  0  0  0  0  0  0  # atno 17343 bound_to 10162
  157.7498  131.0107  150.3319 LP  0  0  0  0  0  0  0  0  0  0  0  0  # atno 17370 bound_to 10713
  156.3718  130.3865  149.7169 LP  0  0  0  0  0  0  0  0  0  0  0  0  # atno 17371 bound_to 10713
  140.8592  133.8073  155.9247 LP  0  0  0  0  0  0  0  0  0  0  0  0  # atno 17394 bound_to 11000
  140.9067  134.2312  157.5010 LP  0  0  0  0  0  0  0  0  0  0  0  0  # atno 17395 bound_to 11000

$$$$
