AV-unprocessed.smi:2309|AV-procd|sdf|9253|dock7
  -GOLD-   2272012473D 1   1.00000     0.00000
 Structure written by MMmdl.
 34 35  0  0  0  0  0  0  0  0  1 V2000
  147.1261  140.0651  153.1553 C   0  0  0  0  0  0  0  0  0  0  0  0
  148.2978  140.3499  154.0783 C   0  0  0  0  0  0  0  0  0  0  0  0
  148.6107  141.7004  154.2573 N   0  0  0  0  0  0  0  0  0  0  0  0
  149.5941  142.0374  155.0255 C   0  0  0  0  0  0  0  0  0  0  0  0
  150.3696  141.0775  155.6978 N   0  0  0  0  0  0  0  0  0  0  0  0
  151.4644  141.5937  156.5377 C   0  0  0  0  0  0  0  0  0  0  0  0
  150.9824  142.6708  157.5358 C   0  0  2  0  0  0  0  0  0  0  0  0
  151.0540  143.9376  156.9095 O   0  0  0  0  0  0  0  0  0  0  0  0
  151.8073  142.6236  158.8210 C   0  0  0  0  0  0  0  0  0  0  0  0
  152.7306  141.5721  159.0286 C   0  0  0  0  0  0  0  0  0  0  0  0
  153.4925  141.5073  160.2105 C   0  0  0  0  0  0  0  0  0  0  0  0
  154.6154  140.2185  160.4436 Cl  0  0  0  0  0  0  0  0  0  0  0  0
  153.3356  142.4921  161.2026 C   0  0  0  0  0  0  0  0  0  0  0  0
  152.4111  143.5355  161.0131 C   0  0  0  0  0  0  0  0  0  0  0  0
  151.6442  143.6043  159.8326 C   0  0  0  0  0  0  0  0  0  0  0  0
  150.5045  144.8946  159.6685 Cl  0  0  0  0  0  0  0  0  0  0  0  0
  150.1324  139.7393  155.5782 C   0  0  0  0  0  0  0  0  0  0  0  0
  150.8174  138.9034  156.1705 O   0  0  0  0  0  0  0  0  0  0  0  0
  149.0100  139.3707  154.6999 C   0  0  0  0  0  0  0  0  0  0  0  0
  148.7158  137.8841  154.5411 C   0  0  0  0  0  0  0  0  0  0  0  0
  147.4409  139.4412  152.3182 H   0  0  0  0  0  0  0  0  0  0  0  0
  146.7095  140.9864  152.7459 H   0  0  0  0  0  0  0  0  0  0  0  0
  146.3311  139.5506  153.6959 H   0  0  0  0  0  0  0  0  0  0  0  0
  149.8829  143.0763  155.1949 H   0  0  0  0  0  0  0  0  0  0  0  0
  151.8896  140.7559  157.0947 H   0  0  0  0  0  0  0  0  0  0  0  0
  152.3008  141.9667  155.9437 H   0  0  0  0  0  0  0  0  0  0  0  0
  149.9324  142.5162  157.7819 H   0  0  0  0  0  0  0  0  0  0  0  0
  150.2306  144.1067  156.4778 H   0  0  0  0  0  0  0  0  0  0  0  0
  152.8578  140.8022  158.2815 H   0  0  0  0  0  0  0  0  0  0  0  0
  153.9180  142.4454  162.1110 H   0  0  0  0  0  0  0  0  0  0  0  0
  152.2869  144.2848  161.7813 H   0  0  0  0  0  0  0  0  0  0  0  0
  148.4962  137.4381  155.5118 H   0  0  0  0  0  0  0  0  0  0  0  0
  149.5829  137.3724  154.1220 H   0  0  0  0  0  0  0  0  0  0  0  0
  147.8681  137.6808  153.8888 H   0  0  0  0  0  0  0  0  0  0  0  0
  1  2  1  0  0  0  0
  1 21  1  0  0  0  0
  1 22  1  0  0  0  0
  1 23  1  0  0  0  0
  2 19  2  0  0  0  0
  2  3  1  0  0  0  0
  3  4  2  0  0  0  0
  4  5  1  0  0  0  0
  4 24  1  0  0  0  0
  5  6  1  0  0  0  0
  5 17  1  0  0  0  0
  6  7  1  0  0  0  0
  6 25  1  0  0  0  0
  6 26  1  0  0  0  0
  7  8  1  0  0  0  0
  7  9  1  0  0  0  0
  7 27  1  0  0  0  0
  8 28  1  0  0  0  0
  9 15  1  0  0  0  0
  9 10  2  0  0  0  0
 10 11  1  0  0  0  0
 10 29  1  0  0  0  0
 11 12  1  0  0  0  0
 11 13  2  0  0  0  0
 13 14  1  0  0  0  0
 13 30  1  0  0  0  0
 14 15  2  0  0  0  0
 14 31  1  0  0  0  0
 15 16  1  0  0  0  0
 17 18  2  0  0  0  0
 17 19  1  0  0  0  0
 19 20  1  0  0  0  0
 20 32  1  0  0  0  0
 20 33  1  0  0  0  0
 20 34  1  0  0  0  0
M  END
> <s_m_source_file>
AV-unprocessed.smi

> <i_m_source_file_index>
2309

> <i_lp_mmshare_version>
43012

> <i_f3d_flags>
0

> <s_epik_input>
W0NIM11jMW5bY0hdbihjKD1PKWMxW0NIM10pW0NIMl1bQ0BIXShbT0hdKWMyW2NIXWMoQ2wpW2NIXVtjSF1jMkNs

> <s_epik_cmdline>
J2VwaWtfcHl0aG9uJywgJy1waCcsICc3LjAnLCAnLXRuJywgJzgnLCAnLW1hJywgJzIwMCcsICctbWV0YWxfYmluZGluZycsICctaW1hZScsICc8aW5maWxlLm1hZT4nLCAnLW9tYWUnLCAnPG91dGZpbGUubWFlPic=

> <r_lp_tautomer_probability>
1

> <r_epik_Ionization_Penalty>
5.09224e-05

> <r_epik_Ionization_Penalty_Charging>
7.56727e-08

> <r_epik_Ionization_Penalty_Neutral>
5.08468e-05

> <r_epik_State_Penalty>
-0

> <r_epik_Charging_Adjusted_Penalty>
7.56727e-08

> <i_epik_Tot_Q>
0

> <i_epik_Tot_abs_Q>
0

> <r_epik_Metal_State_Penalty>
-0

> <b_epik_Metal_Only>
0

> <s_lp_Force_Field>
OPLS_2005

> <r_lp_Energy>
19.5674

> <b_lp_Chiralities_Consistent>
1

> <s_lp_Variant>
AV-unprocessed.smi:2309-1

> <Gold.Version>
5.8.1

> <Gold.Id.Protein>
6NUR|6NUR_protein|mol2

> <Gold.PLP.Fitness>
46.7876

> <Gold.PLP.PLP>
-41.6768

> <Gold.PLP.part.hbond>
-1.9818

> <Gold.PLP.part.metal>
0.0000

> <Gold.PLP.part.buried>
-2.6418

> <Gold.PLP.part.nonpolar>
-36.1843

> <Gold.PLP.part.repulsive>
0.1688

> <Gold.PLP.ligand.clash>
0.0000

> <Gold.PLP.ligand.torsion>
0.5673

> <Gold.PLP.Chemscore.Hbond>
1.0902

> <Gold.PLP.Chemscore.CHOScore>
0.9890

> <Gold.PLP.Chemscore.Metal>
0.0000

> <Gold.Chemscore.Hbonds>
donor molecule, donor type, donor heavy atom, donor atom, acceptor molecule, acceptor atom, score
      L1  H     8    28       P1  8028  1.00
      P1  H  8011  8017       L1     3  0.05
      L1  C     4    24       P1  8028  0.85

> <Gold.PLP.Chemscore.Internal.Correction>
0.0079

> <Gold.Rescore>
     Score         DG    S(hbond)    S(metal)    S(lipo)     H(rot)  DE(clash)    DE(int)     intcor
     16.70     -17.35       1.00        0.00     115.11       1.93       0.23       0.42       ----

> <Gold.Chemscore.Fitness>
16.7029

> <Gold.Chemscore.DG>
-17.3516

> <Gold.Chemscore.ZeroCoef>
-5.4800

> <Gold.Chemscore.Hbond>
0.9986

> <Gold.Chemscore.Metal>
0.0000

> <Gold.Chemscore.Lipo>
115.1121

> <Gold.Chemscore.Internal_Hbond>
0.0000

> <Gold.Chemscore.DEClash>
0.2332

> <Gold.Chemscore.DEInternal>
0.4155

> <Gold.Chemscore.Rot>
1.9265

> <Gold.Chemscore.Internal.Correction>
   9.000000E+99

> <Gold.Chemscore.Hbonds>
donor molecule, donor type, donor heavy atom, donor atom, acceptor molecule, acceptor atom, score
      L1  H     8    28       P1  8028  1.00

> <Gold.Chemscore.Hbond.Weighted>
-3.3352

> <Gold.Chemscore.Metal.Weighted>
-0.0000

> <Gold.Chemscore.Lipo.Weighted>
-13.4681

> <Gold.Chemscore.Internal_Hbond.Weighted>
0.0000

> <Gold.Chemscore.DEClash.Weighted>
0.2332

> <Gold.Chemscore.DEInternal.Weighted>
0.4155

> <Gold.Chemscore.Rot.Weighted>
4.9317

> <Gold.Chemscore.Internal.Correction.Weighted>
   9.000000E+99

> <Gold.Protein.RotatedTorsions>
[ 6907 6896 6895 6894 ] final -145.97 input  -60.11 | X-H torsion
[ 7974 7965 7964 7962 ] final  -43.60 input  175.53 | X-H torsion
[ 8008 7997 7996 7995 ] final   67.70 input   59.86 | X-H torsion
[ 10167 10162 10161 10158 ] final  -70.24 input  -65.29 | X-H torsion
[ 10718 10713 10712 10709 ] final  -95.60 input   66.30 | X-H torsion
[ 10763 10752 10751 10750 ] final  157.69 input  -60.55 | X-H torsion
[ 11005 11000 10999 10996 ] final   17.37 input  -57.11 | X-H torsion

> <Gold.Protein.ActiveResidues>
 VAL166  LYS551  ARG553  GLY616  TRP617  ASP618  TYR619  PRO620  LYS621  CYS622 
 ASP623  PHE694  ASN695  SER759  ASP760  ASP761  ALA762  ILE779  LEU786  VAL792 
 PHE793  MET794  SER795  GLU796  ALA797  LYS798  CYS799  TRP800  GLU811  SER814 

> <Gold.Protein.RotatedAtoms>
  151.1352  133.5009  159.2597 H   0  0  0  0  0  0  0  0  0  0  0  0  # atno 6907 bound_to 6896
  151.1714  135.0319  159.8763 H   0  0  0  0  0  0  0  0  0  0  0  0  # atno 6908 bound_to 6896
  152.5461  134.1214  159.8454 H   0  0  0  0  0  0  0  0  0  0  0  0  # atno 6909 bound_to 6896
  146.0003  140.7081  142.9273 H   0  0  0  0  0  0  0  0  0  0  0  0  # atno 7974 bound_to 7965
  155.6969  140.3495  155.4917 H   0  0  0  0  0  0  0  0  0  0  0  0  # atno 8008 bound_to 7997
  155.9474  140.1113  157.1027 H   0  0  0  0  0  0  0  0  0  0  0  0  # atno 8009 bound_to 7997
  154.4115  140.1201  156.4994 H   0  0  0  0  0  0  0  0  0  0  0  0  # atno 8010 bound_to 7997
  140.5368  143.2317  151.7162 H   0  0  0  0  0  0  0  0  0  0  0  0  # atno 10167 bound_to 10162
  156.0046  130.5116  150.6100 H   0  0  0  0  0  0  0  0  0  0  0  0  # atno 10718 bound_to 10713
  154.2042  135.2789  155.2980 H   0  0  0  0  0  0  0  0  0  0  0  0  # atno 10763 bound_to 10752
  154.5830  135.5583  153.7207 H   0  0  0  0  0  0  0  0  0  0  0  0  # atno 10764 bound_to 10752
  153.0080  135.6349  154.2180 H   0  0  0  0  0  0  0  0  0  0  0  0  # atno 10765 bound_to 10752
  140.4366  134.1364  155.7686 H   0  0  0  0  0  0  0  0  0  0  0  0  # atno 11005 bound_to 11000
  144.6917  140.3222  143.7230 LP  0  0  0  0  0  0  0  0  0  0  0  0  # atno 17320 bound_to 7965
  145.7497  139.1790  143.2328 LP  0  0  0  0  0  0  0  0  0  0  0  0  # atno 17321 bound_to 7965
  139.4974  144.4030  152.0161 LP  0  0  0  0  0  0  0  0  0  0  0  0  # atno 17342 bound_to 10162
  140.3136  144.3509  150.6027 LP  0  0  0  0  0  0  0  0  0  0  0  0  # atno 17343 bound_to 10162
  157.3934  131.0799  151.1373 LP  0  0  0  0  0  0  0  0  0  0  0  0  # atno 17370 bound_to 10713
  157.2057  130.6415  149.5755 LP  0  0  0  0  0  0  0  0  0  0  0  0  # atno 17371 bound_to 10713
  141.1723  133.8584  157.1532 LP  0  0  0  0  0  0  0  0  0  0  0  0  # atno 17394 bound_to 11000
  140.0098  134.9993  157.0370 LP  0  0  0  0  0  0  0  0  0  0  0  0  # atno 17395 bound_to 11000

$$$$
