AV-unprocessed.smi:2133|AV-procd|sdf|8693|dock3
  -GOLD-   2272011453D 1   1.00000     0.00000
 Structure written by MMmdl.
 45 47  0  0  0  0  0  0  0  0  1 V2000
  147.8317  142.1852  154.3509 C   0  0  0  0  0  0  0  0  0  0  0  0
  148.0766  140.7356  154.4662 N   0  0  0  0  0  0  0  0  0  0  0  0
  149.3634  140.2829  154.3367 C   0  0  0  0  0  0  0  0  0  0  0  0
  150.3474  140.9985  154.1472 O   0  0  0  0  0  0  0  0  0  0  0  0
  149.4934  138.8269  154.4427 C   0  0  0  0  0  0  0  0  0  0  0  0
  148.4429  138.0064  154.6892 C   0  0  0  0  0  0  0  0  0  0  0  0
  148.8444  136.6763  154.7470 N   0  0  0  0  0  0  0  0  0  0  0  0
  150.1558  136.7717  154.5263 C   0  0  0  0  0  0  0  0  0  0  0  0
  150.6227  138.0202  154.3198 N   0  0  0  0  0  0  0  0  0  0  0  0
  152.0024  138.3883  154.0378 C   0  0  0  0  0  0  0  0  0  0  0  0
  152.7792  138.8535  155.2897 C   0  0  1  0  0  0  0  0  0  0  0  0
  154.1560  138.9579  154.9935 O   0  0  0  0  0  0  0  0  0  0  0  0
  152.2870  140.1659  155.9282 C   0  0  0  0  0  0  0  0  0  0  0  0
  151.3856  139.8915  156.9887 O   0  0  0  0  0  0  0  0  0  0  0  0
  150.5444  140.9911  157.2914 C   0  0  0  0  0  0  0  0  0  0  0  0
  151.2463  141.9905  158.1871 C   0  0  0  0  0  0  0  0  0  0  0  0
  151.8591  141.5645  159.3841 C   0  0  0  0  0  0  0  0  0  0  0  0
  152.5118  142.4963  160.2145 C   0  0  0  0  0  0  0  0  0  0  0  0
  152.5572  143.8558  159.8489 C   0  0  0  0  0  0  0  0  0  0  0  0
  151.9479  144.2838  158.6534 C   0  0  0  0  0  0  0  0  0  0  0  0
  151.2926  143.3529  157.8242 C   0  0  0  0  0  0  0  0  0  0  0  0
  147.1559  138.5837  154.8408 N   0  0  0  0  0  0  0  0  0  0  0  0
  146.0135  137.7049  155.1077 C   0  0  0  0  0  0  0  0  0  0  0  0
  146.9714  139.9379  154.7094 C   0  0  0  0  0  0  0  0  0  0  0  0
  145.8416  140.4257  154.8071 O   0  0  0  0  0  0  0  0  0  0  0  0
  148.7058  142.7770  154.0770 H   0  0  0  0  0  0  0  0  0  0  0  0
  147.4670  142.5817  155.2996 H   0  0  0  0  0  0  0  0  0  0  0  0
  147.0770  142.3896  153.5895 H   0  0  0  0  0  0  0  0  0  0  0  0
  150.7974  135.9030  154.5012 H   0  0  0  0  0  0  0  0  0  0  0  0
  152.5043  137.5453  153.5621 H   0  0  0  0  0  0  0  0  0  0  0  0
  151.9880  139.1892  153.2968 H   0  0  0  0  0  0  0  0  0  0  0  0
  152.7016  138.0792  156.0526 H   0  0  0  0  0  0  0  0  0  0  0  0
  154.5773  138.1462  155.2316 H   0  0  0  0  0  0  0  0  0  0  0  0
  153.1466  140.7097  156.3238 H   0  0  0  0  0  0  0  0  0  0  0  0
  151.8208  140.8118  155.1822 H   0  0  0  0  0  0  0  0  0  0  0  0
  150.2444  141.4967  156.3718 H   0  0  0  0  0  0  0  0  0  0  0  0
  149.6323  140.6410  157.7775 H   0  0  0  0  0  0  0  0  0  0  0  0
  151.8305  140.5228  159.6683 H   0  0  0  0  0  0  0  0  0  0  0  0
  152.9783  142.1679  161.1315 H   0  0  0  0  0  0  0  0  0  0  0  0
  153.0591  144.5697  160.4853 H   0  0  0  0  0  0  0  0  0  0  0  0
  151.9829  145.3263  158.3729 H   0  0  0  0  0  0  0  0  0  0  0  0
  150.8257  143.6870  156.9093 H   0  0  0  0  0  0  0  0  0  0  0  0
  145.3765  138.1081  155.8967 H   0  0  0  0  0  0  0  0  0  0  0  0
  146.3216  136.7110  155.4320 H   0  0  0  0  0  0  0  0  0  0  0  0
  145.4096  137.5883  154.2072 H   0  0  0  0  0  0  0  0  0  0  0  0
  1  2  1  0  0  0  0
  1 26  1  0  0  0  0
  1 27  1  0  0  0  0
  1 28  1  0  0  0  0
  2 24  1  0  0  0  0
  2  3  1  0  0  0  0
  3  4  2  0  0  0  0
  3  5  1  0  0  0  0
  5  9  1  0  0  0  0
  5  6  2  0  0  0  0
  6  7  1  0  0  0  0
  6 22  1  0  0  0  0
  7  8  2  0  0  0  0
  8  9  1  0  0  0  0
  8 29  1  0  0  0  0
  9 10  1  0  0  0  0
 10 11  1  0  0  0  0
 10 30  1  0  0  0  0
 10 31  1  0  0  0  0
 11 12  1  0  0  0  0
 11 13  1  0  0  0  0
 11 32  1  0  0  0  0
 12 33  1  0  0  0  0
 13 14  1  0  0  0  0
 13 34  1  0  0  0  0
 13 35  1  0  0  0  0
 14 15  1  0  0  0  0
 15 16  1  0  0  0  0
 15 36  1  0  0  0  0
 15 37  1  0  0  0  0
 16 21  1  0  0  0  0
 16 17  2  0  0  0  0
 17 18  1  0  0  0  0
 17 38  1  0  0  0  0
 18 19  2  0  0  0  0
 18 39  1  0  0  0  0
 19 20  1  0  0  0  0
 19 40  1  0  0  0  0
 20 21  2  0  0  0  0
 20 41  1  0  0  0  0
 21 42  1  0  0  0  0
 22 23  1  0  0  0  0
 22 24  1  0  0  0  0
 23 43  1  0  0  0  0
 23 44  1  0  0  0  0
 23 45  1  0  0  0  0
 24 25  2  0  0  0  0
M  END
> <s_m_source_file>
AV-unprocessed.smi

> <i_m_source_file_index>
2133

> <i_lp_mmshare_version>
43012

> <i_f3d_flags>
0

> <s_epik_input>
Tz1jMW4oW0NIM10pYyg9TyluKFtDSDNdKWMoYzEyKW5bY0hdbjJbQ0gyXVtDQEhdKFtPSF0pW0NIMl1PW0NIMl1jM1tjSF1bY0hdW2NIXVtjSF1bY0hdMw==

> <s_epik_cmdline>
J2VwaWtfcHl0aG9uJywgJy1waCcsICc3LjAnLCAnLXRuJywgJzgnLCAnLW1hJywgJzIwMCcsICctbWV0YWxfYmluZGluZycsICctaW1hZScsICc8aW5maWxlLm1hZT4nLCAnLW9tYWUnLCAnPG91dGZpbGUubWFlPic=

> <r_lp_tautomer_probability>
1

> <r_epik_Ionization_Penalty>
1.52174e-06

> <r_epik_Ionization_Penalty_Charging>
3.83535e-09

> <r_epik_Ionization_Penalty_Neutral>
1.5179e-06

> <r_epik_State_Penalty>
-0

> <r_epik_Charging_Adjusted_Penalty>
3.83535e-09

> <i_epik_Tot_Q>
0

> <i_epik_Tot_abs_Q>
0

> <r_epik_Metal_State_Penalty>
-0

> <b_epik_Metal_Only>
0

> <s_lp_Force_Field>
OPLS_2005

> <r_lp_Energy>
39.5783

> <b_lp_Chiralities_Consistent>
1

> <s_lp_Variant>
AV-unprocessed.smi:2133-2

> <Gold.Version>
5.8.1

> <Gold.Id.Protein>
6NUR|6NUR_protein|mol2

> <Gold.PLP.Fitness>
47.9343

> <Gold.PLP.PLP>
-45.5878

> <Gold.PLP.part.hbond>
-1.8142

> <Gold.PLP.part.metal>
0.0000

> <Gold.PLP.part.buried>
-5.9821

> <Gold.PLP.part.nonpolar>
-39.5541

> <Gold.PLP.part.repulsive>
1.0251

> <Gold.PLP.ligand.clash>
0.0000

> <Gold.PLP.ligand.torsion>
1.1558

> <Gold.PLP.Chemscore.Hbond>
1.4880

> <Gold.PLP.Chemscore.CHOScore>
0.0000

> <Gold.PLP.Chemscore.Metal>
0.0000

> <Gold.Chemscore.Hbonds>
donor molecule, donor type, donor heavy atom, donor atom, acceptor molecule, acceptor atom, score
      P1  H  7989  7998       L1     4  0.41
      P1  H  7997  8010       L1    12  0.71
      P1  H  8011  8017       L1     4  0.12

> <Gold.PLP.Chemscore.Internal.Correction>
0.1941

> <Gold.Rescore>
     Score         DG    S(hbond)    S(metal)    S(lipo)     H(rot)  DE(clash)    DE(int)     intcor
     11.94     -14.91       1.34        0.00     106.02       2.91       0.12       2.85       ----

> <Gold.Chemscore.Fitness>
11.9394

> <Gold.Chemscore.DG>
-14.9072

> <Gold.Chemscore.ZeroCoef>
-5.4800

> <Gold.Chemscore.Hbond>
1.3414

> <Gold.Chemscore.Metal>
0.0000

> <Gold.Chemscore.Lipo>
106.0226

> <Gold.Chemscore.Internal_Hbond>
0.0000

> <Gold.Chemscore.DEClash>
0.1214

> <Gold.Chemscore.DEInternal>
2.8464

> <Gold.Chemscore.Rot>
2.9132

> <Gold.Chemscore.Internal.Correction>
   9.000000E+99

> <Gold.Chemscore.Hbonds>
donor molecule, donor type, donor heavy atom, donor atom, acceptor molecule, acceptor atom, score
      P1  H  7989  7998       L1     4  0.41
      P1  H  7997  8010       L1    12  0.19
      P1  H  8011  8017       L1     4  0.08

> <Gold.Chemscore.Hbond.Weighted>
-4.4803

> <Gold.Chemscore.Metal.Weighted>
-0.0000

> <Gold.Chemscore.Lipo.Weighted>
-12.4046

> <Gold.Chemscore.Internal_Hbond.Weighted>
0.0000

> <Gold.Chemscore.DEClash.Weighted>
0.1214

> <Gold.Chemscore.DEInternal.Weighted>
2.8464

> <Gold.Chemscore.Rot.Weighted>
7.4578

> <Gold.Chemscore.Internal.Correction.Weighted>
   9.000000E+99

> <Gold.Protein.RotatedTorsions>
[ 6907 6896 6895 6894 ] final  175.13 input  -60.11 | X-H torsion
[ 7974 7965 7964 7962 ] final  131.67 input  175.53 | X-H torsion
[ 8008 7997 7996 7995 ] final  108.81 input   59.86 | X-H torsion
[ 10167 10162 10161 10158 ] final  -70.84 input  -65.29 | X-H torsion
[ 10718 10713 10712 10709 ] final  -67.24 input   66.30 | X-H torsion
[ 10763 10752 10751 10750 ] final   42.16 input  -60.55 | X-H torsion
[ 11005 11000 10999 10996 ] final  151.19 input  -57.11 | X-H torsion

> <Gold.Protein.ActiveResidues>
 VAL166  LYS551  ARG553  GLY616  TRP617  ASP618  TYR619  PRO620  LYS621  CYS622 
 ASP623  PHE694  ASN695  SER759  ASP760  ASP761  ALA762  ILE779  LEU786  VAL792 
 PHE793  MET794  SER795  GLU796  ALA797  LYS798  CYS799  TRP800  GLU811  SER814 

> <Gold.Protein.RotatedAtoms>
  151.7411  133.3322  159.3365 H   0  0  0  0  0  0  0  0  0  0  0  0  # atno 6907 bound_to 6896
  150.7573  134.6277  159.6179 H   0  0  0  0  0  0  0  0  0  0  0  0  # atno 6908 bound_to 6896
  152.3530  134.6982  160.0282 H   0  0  0  0  0  0  0  0  0  0  0  0  # atno 6909 bound_to 6896
  145.0049  139.4276  143.5274 H   0  0  0  0  0  0  0  0  0  0  0  0  # atno 7974 bound_to 7965
  156.1932  140.3069  155.9373 H   0  0  0  0  0  0  0  0  0  0  0  0  # atno 8008 bound_to 7997
  155.3127  140.0452  157.3052 H   0  0  0  0  0  0  0  0  0  0  0  0  # atno 8009 bound_to 7997
  154.5477  140.2281  155.8545 H   0  0  0  0  0  0  0  0  0  0  0  0  # atno 8010 bound_to 7997
  140.5321  143.2321  151.7243 H   0  0  0  0  0  0  0  0  0  0  0  0  # atno 10167 bound_to 10162
  156.0568  130.4275  150.1826 H   0  0  0  0  0  0  0  0  0  0  0  0  # atno 10718 bound_to 10713
  152.9890  135.6140  154.2904 H   0  0  0  0  0  0  0  0  0  0  0  0  # atno 10763 bound_to 10752
  154.2629  135.2782  155.2772 H   0  0  0  0  0  0  0  0  0  0  0  0  # atno 10764 bound_to 10752
  154.5189  135.5820  153.6722 H   0  0  0  0  0  0  0  0  0  0  0  0  # atno 10765 bound_to 10752
  140.1197  134.8871  157.2055 H   0  0  0  0  0  0  0  0  0  0  0  0  # atno 11005 bound_to 11000
  146.3459  139.9459  142.8735 LP  0  0  0  0  0  0  0  0  0  0  0  0  # atno 17320 bound_to 7965
  145.2102  140.9892  143.4105 LP  0  0  0  0  0  0  0  0  0  0  0  0  # atno 17321 bound_to 7965
  139.4958  144.4098  152.0092 LP  0  0  0  0  0  0  0  0  0  0  0  0  # atno 17342 bound_to 10162
  140.3201  144.3437  150.6011 LP  0  0  0  0  0  0  0  0  0  0  0  0  # atno 17343 bound_to 10162
  156.9901  130.9890  151.3417 LP  0  0  0  0  0  0  0  0  0  0  0  0  # atno 17370 bound_to 10713
  157.5545  130.8204  149.8186 LP  0  0  0  0  0  0  0  0  0  0  0  0  # atno 17371 bound_to 10713
  140.2981  134.3163  155.7297 LP  0  0  0  0  0  0  0  0  0  0  0  0  # atno 17394 bound_to 11000
  141.2149  133.7575  156.9601 LP  0  0  0  0  0  0  0  0  0  0  0  0  # atno 17395 bound_to 11000

$$$$
