AV-unprocessed.smi:1695|AV-procd|sdf|6795|dock1
  -GOLD-   22720 7563D 1   1.00000     0.00000
 Structure written by MMmdl.
 52 54  0  0  0  0  0  0  0  0  3 V2000
  152.4148  143.9996  160.2294 C   0  0  0  0  0  0  0  0  0  0  0  0
  152.0248  142.9686  159.1840 C   0  0  0  0  0  0  0  0  0  0  0  0
  151.1536  143.3603  158.1429 C   0  0  0  0  0  0  0  0  0  0  0  0
  150.8120  142.3944  157.2041 C   0  0  0  0  0  0  0  0  0  0  0  0
  149.9859  142.4660  156.0808 N   0  3  0  0  0  0  0  0  0  0  0  0
  149.9525  141.2535  155.4628 C   0  0  0  0  0  0  0  0  0  0  0  0
  150.7511  140.4086  156.1709 N   0  0  0  0  0  0  0  0  0  0  0  0
  151.0464  138.9884  155.9343 C   0  0  0  0  0  0  0  0  0  0  0  0
  150.2074  138.3823  154.7923 C   0  0  2  0  0  0  0  0  0  0  0  0
  150.6111  139.0045  153.5896 O   0  0  0  0  0  0  0  0  0  0  0  0
  148.6844  138.5725  154.9641 C   0  0  0  0  0  0  0  0  0  0  0  0
  147.9036  137.8029  153.9615 N   0  3  1  0  0  0  0  0  0  0  0  0
  146.9958  136.7937  154.5687 C   0  0  0  0  0  0  0  0  0  0  0  0
  146.3352  135.9252  153.4859 C   0  0  0  0  0  0  0  0  0  0  0  0
  145.5656  136.7903  152.4691 C   0  0  2  0  0  0  0  0  0  0  0  0
  144.9638  135.9233  151.3548 C   0  0  0  0  0  0  0  0  0  0  0  0
  145.5073  136.0257  150.1398 N   0  0  0  0  0  0  0  0  0  0  0  0
  144.0203  135.1700  151.5865 O   0  0  0  0  0  0  0  0  0  0  0  0
  146.5175  137.8555  151.8910 C   0  0  0  0  0  0  0  0  0  0  0  0
  147.1773  138.6806  153.0086 C   0  0  0  0  0  0  0  0  0  0  0  0
  151.3057  141.0764  157.2708 C   0  0  0  0  0  0  0  0  0  0  0  0
  152.1681  140.6754  158.2895 C   0  0  0  0  0  0  0  0  0  0  0  0
  152.5252  141.6428  159.2562 C   0  0  0  0  0  0  0  0  0  0  0  0
  153.4592  141.2316  160.3817 C   0  0  0  0  0  0  0  0  0  0  0  0
  151.9621  144.9696  160.0220 H   0  0  0  0  0  0  0  0  0  0  0  0
  153.4964  144.1351  160.2507 H   0  0  0  0  0  0  0  0  0  0  0  0
  152.0852  143.6837  161.2195 H   0  0  0  0  0  0  0  0  0  0  0  0
  150.7675  144.3675  158.0822 H   0  0  0  0  0  0  0  0  0  0  0  0
  149.3900  141.0064  154.5735 H   0  0  0  0  0  0  0  0  0  0  0  0
  152.1135  138.8610  155.7535 H   0  0  0  0  0  0  0  0  0  0  0  0
  150.8339  138.4637  156.8671 H   0  0  0  0  0  0  0  0  0  0  0  0
  150.4504  137.3230  154.7155 H   0  0  0  0  0  0  0  0  0  0  0  0
  151.0376  138.3630  153.0416 H   0  0  0  0  0  0  0  0  0  0  0  0
  148.3600  138.2779  155.9629 H   0  0  0  0  0  0  0  0  0  0  0  0
  148.4593  139.6364  154.8744 H   0  0  0  0  0  0  0  0  0  0  0  0
  147.5458  136.1473  155.2514 H   0  0  0  0  0  0  0  0  0  0  0  0
  146.2314  137.2986  155.1616 H   0  0  0  0  0  0  0  0  0  0  0  0
  147.1037  135.3384  152.9799 H   0  0  0  0  0  0  0  0  0  0  0  0
  145.6599  135.2087  153.9556 H   0  0  0  0  0  0  0  0  0  0  0  0
  144.7542  137.3001  152.9922 H   0  0  0  0  0  0  0  0  0  0  0  0
  145.1475  135.4748  149.3740 H   0  0  0  0  0  0  0  0  0  0  0  0
  146.2820  136.6567  149.9912 H   0  0  0  0  0  0  0  0  0  0  0  0
  147.2960  137.3820  151.2899 H   0  0  0  0  0  0  0  0  0  0  0  0
  145.9724  138.5208  151.2199 H   0  0  0  0  0  0  0  0  0  0  0  0
  146.4257  139.2619  153.5451 H   0  0  0  0  0  0  0  0  0  0  0  0
  147.8708  139.3933  152.5605 H   0  0  0  0  0  0  0  0  0  0  0  0
  152.5525  139.6684  158.3506 H   0  0  0  0  0  0  0  0  0  0  0  0
  153.7279  140.1770  160.3128 H   0  0  0  0  0  0  0  0  0  0  0  0
  152.9858  141.3903  161.3508 H   0  0  0  0  0  0  0  0  0  0  0  0
  154.3805  141.8135  160.3466 H   0  0  0  0  0  0  0  0  0  0  0  0
  148.5817  137.2951  153.4105 H   0  0  0  0  0  0  0  0  0  0  0  0
  149.4757  143.2798  155.7613 H   0  0  0  0  0  0  0  0  0  0  0  0
  1  2  1  0  0  0  0
  1 25  1  0  0  0  0
  1 26  1  0  0  0  0
  1 27  1  0  0  0  0
  2 23  1  0  0  0  0
  2  3  2  0  0  0  0
  3  4  1  0  0  0  0
  3 28  1  0  0  0  0
  4 21  2  0  0  0  0
  4  5  1  0  0  0  0
  5  6  2  0  0  0  0
  5 52  1  0  0  0  0
  6  7  1  0  0  0  0
  6 29  1  0  0  0  0
  7  8  1  0  0  0  0
  7 21  1  0  0  0  0
  8  9  1  0  0  0  0
  8 30  1  0  0  0  0
  8 31  1  0  0  0  0
  9 10  1  0  0  0  0
  9 11  1  0  0  0  0
  9 32  1  0  0  0  0
 10 33  1  0  0  0  0
 11 12  1  0  0  0  0
 11 34  1  0  0  0  0
 11 35  1  0  0  0  0
 12 20  1  0  0  0  0
 12 13  1  0  0  0  0
 12 51  1  0  0  0  0
 13 14  1  0  0  0  0
 13 36  1  0  0  0  0
 13 37  1  0  0  0  0
 14 15  1  0  0  0  0
 14 38  1  0  0  0  0
 14 39  1  0  0  0  0
 15 16  1  0  0  0  0
 15 19  1  0  0  0  0
 15 40  1  0  0  0  0
 16 17  1  0  0  0  0
 16 18  2  0  0  0  0
 17 41  1  0  0  0  0
 17 42  1  0  0  0  0
 19 20  1  0  0  0  0
 19 43  1  0  0  0  0
 19 44  1  0  0  0  0
 20 45  1  0  0  0  0
 20 46  1  0  0  0  0
 21 22  1  0  0  0  0
 22 23  2  0  0  0  0
 22 47  1  0  0  0  0
 23 24  1  0  0  0  0
 24 48  1  0  0  0  0
 24 49  1  0  0  0  0
 24 50  1  0  0  0  0
M  CHG  1   5   1
M  CHG  1  12   1
M  END
> <s_m_source_file>
AV-unprocessed.smi

> <i_m_source_file_index>
1695

> <i_lp_mmshare_version>
43012

> <i_f3d_flags>
0

> <s_epik_input>
W0NIM11jKFtjSF0xKWMoW0NIM10pW2NIXWMoYzEyKW4oW2NIXW4yKVtDSDJdW0NASF0oW09IXSlbQ0gyXU4zW0NIMl1bQ0gyXVtDSF0oQyg9TylbTkgyXSlbQ0gyXVtDSDJdMw==

> <s_epik_cmdline>
J2VwaWtfcHl0aG9uJywgJy1waCcsICc3LjAnLCAnLXRuJywgJzgnLCAnLW1hJywgJzIwMCcsICctbWV0YWxfYmluZGluZycsICctaW1hZScsICc8aW5maWxlLm1hZT4nLCAnLW9tYWUnLCAnPG91dGZpbGUubWFlPic=

> <r_epik_Ionization_Penalty>
1.20173

> <r_epik_Ionization_Penalty_Charging>
1.20172

> <r_epik_Ionization_Penalty_Neutral>
1.7852e-06

> <r_epik_State_Penalty>
1.28089

> <r_epik_Charging_Adjusted_Penalty>
2.48261

> <i_epik_Tot_Q>
2

> <i_epik_Tot_abs_Q>
2

> <r_epik_Metal_State_Penalty>
1.35652

> <b_epik_Metal_Only>
0

> <s_lp_Force_Field>
OPLS_2005

> <r_lp_Energy>
30.6346

> <b_lp_Chiralities_Consistent>
1

> <s_lp_Variant>
AV-unprocessed.smi:1695-7

> <Gold.Version>
5.8.1

> <Gold.Id.Protein>
6NUR|6NUR_protein|mol2

> <Gold.PLP.Fitness>
56.3000

> <Gold.PLP.PLP>
-43.5130

> <Gold.PLP.part.hbond>
-5.9301

> <Gold.PLP.part.metal>
0.0000

> <Gold.PLP.part.buried>
1.6029

> <Gold.PLP.part.nonpolar>
-40.0046

> <Gold.PLP.part.repulsive>
0.4352

> <Gold.PLP.ligand.clash>
0.8398

> <Gold.PLP.ligand.torsion>
1.0756

> <Gold.PLP.Chemscore.Hbond>
5.2309

> <Gold.PLP.Chemscore.CHOScore>
0.0000

> <Gold.PLP.Chemscore.Metal>
0.0000

> <Gold.Chemscore.Hbonds>
donor molecule, donor type, donor heavy atom, donor atom, acceptor molecule, acceptor atom, score
      L1  H     5    52       P1  8028  2.00
      L1  H    12    51       P1  7948  1.95
      L1  H    17    41       P1  7921  0.48
      P1  H  7989  7998       L1    10  0.73

> <Gold.PLP.Chemscore.Internal.Correction>
0.0853

> <Gold.Rescore>
     Score         DG    S(hbond)    S(metal)    S(lipo)     H(rot)  DE(clash)    DE(int)     intcor
     16.13     -21.78       3.02        0.00     116.81       2.91       2.81       2.84       ----

> <Gold.Chemscore.Fitness>
16.1344

> <Gold.Chemscore.DG>
-21.7837

> <Gold.Chemscore.ZeroCoef>
-5.4800

> <Gold.Chemscore.Hbond>
3.0219

> <Gold.Chemscore.Metal>
0.0000

> <Gold.Chemscore.Lipo>
116.8116

> <Gold.Chemscore.Internal_Hbond>
0.0000

> <Gold.Chemscore.DEClash>
2.8099

> <Gold.Chemscore.DEInternal>
2.8394

> <Gold.Chemscore.Rot>
2.9127

> <Gold.Chemscore.Internal.Correction>
   9.000000E+99

> <Gold.Chemscore.Hbonds>
donor molecule, donor type, donor heavy atom, donor atom, acceptor molecule, acceptor atom, score
      L1  H     5    52       P1  8028  0.96
      L1  H    12    51       P1  7948  0.93
      L1  H    17    41       P1  7921  0.48
      P1  H  7989  7998       L1    10  0.52

> <Gold.Chemscore.Hbond.Weighted>
-10.0932

> <Gold.Chemscore.Metal.Weighted>
-0.0000

> <Gold.Chemscore.Lipo.Weighted>
-13.6670

> <Gold.Chemscore.Internal_Hbond.Weighted>
0.0000

> <Gold.Chemscore.DEClash.Weighted>
2.8099

> <Gold.Chemscore.DEInternal.Weighted>
2.8394

> <Gold.Chemscore.Rot.Weighted>
7.4565

> <Gold.Chemscore.Internal.Correction.Weighted>
   9.000000E+99

> <Gold.Protein.RotatedTorsions>
[ 6907 6896 6895 6894 ] final  -11.50 input  -60.11 | X-H torsion
[ 7974 7965 7964 7962 ] final  -83.87 input  175.53 | X-H torsion
[ 8008 7997 7996 7995 ] final  -96.27 input   59.86 | X-H torsion
[ 10167 10162 10161 10158 ] final   15.90 input  -65.29 | X-H torsion
[ 10718 10713 10712 10709 ] final  -13.60 input   66.30 | X-H torsion
[ 10763 10752 10751 10750 ] final  -50.27 input  -60.55 | X-H torsion
[ 11005 11000 10999 10996 ] final  168.30 input  -57.11 | X-H torsion

> <Gold.Protein.ActiveResidues>
 VAL166  LYS551  ARG553  GLY616  TRP617  ASP618  TYR619  PRO620  LYS621  CYS622 
 ASP623  PHE694  ASN695  SER759  ASP760  ASP761  ALA762  ILE779  LEU786  VAL792 
 PHE793  MET794  SER795  GLU796  ALA797  LYS798  CYS799  TRP800  GLU811  SER814 

> <Gold.Protein.RotatedAtoms>
  151.3852  135.0946  159.9508 H   0  0  0  0  0  0  0  0  0  0  0  0  # atno 6907 bound_to 6896
  152.5096  133.9033  159.7462 H   0  0  0  0  0  0  0  0  0  0  0  0  # atno 6908 bound_to 6896
  150.9475  133.6531  159.2807 H   0  0  0  0  0  0  0  0  0  0  0  0  # atno 6909 bound_to 6896
  145.5142  140.9537  143.1691 H   0  0  0  0  0  0  0  0  0  0  0  0  # atno 7974 bound_to 7965
  154.7723  140.0473  157.1061 H   0  0  0  0  0  0  0  0  0  0  0  0  # atno 8008 bound_to 7997
  154.9805  140.3101  155.4929 H   0  0  0  0  0  0  0  0  0  0  0  0  # atno 8009 bound_to 7997
  156.2923  140.2237  156.4904 H   0  0  0  0  0  0  0  0  0  0  0  0  # atno 8010 bound_to 7997
  140.5835  143.8935  150.6810 H   0  0  0  0  0  0  0  0  0  0  0  0  # atno 10167 bound_to 10162
  156.6280  130.4893  149.6140 H   0  0  0  0  0  0  0  0  0  0  0  0  # atno 10718 bound_to 10713
  154.1076  135.6554  153.4879 H   0  0  0  0  0  0  0  0  0  0  0  0  # atno 10763 bound_to 10752
  153.0267  135.5240  154.7224 H   0  0  0  0  0  0  0  0  0  0  0  0  # atno 10764 bound_to 10752
  154.6394  135.2986  155.0091 H   0  0  0  0  0  0  0  0  0  0  0  0  # atno 10765 bound_to 10752
  140.2858  134.7713  157.3797 H   0  0  0  0  0  0  0  0  0  0  0  0  # atno 11005 bound_to 11000
  144.7711  139.6733  143.7194 LP  0  0  0  0  0  0  0  0  0  0  0  0  # atno 17320 bound_to 7965
  146.2147  139.5528  142.9658 LP  0  0  0  0  0  0  0  0  0  0  0  0  # atno 17321 bound_to 7965
  140.2440  143.3642  152.1462 LP  0  0  0  0  0  0  0  0  0  0  0  0  # atno 17342 bound_to 10162
  139.5184  144.7005  151.5508 LP  0  0  0  0  0  0  0  0  0  0  0  0  # atno 17343 bound_to 10162
  156.2258  130.6764  151.1414 LP  0  0  0  0  0  0  0  0  0  0  0  0  # atno 17370 bound_to 10713
  157.7208  131.0682  150.6142 LP  0  0  0  0  0  0  0  0  0  0  0  0  # atno 17371 bound_to 10713
  140.1241  134.5181  155.8159 LP  0  0  0  0  0  0  0  0  0  0  0  0  # atno 17394 bound_to 11000
  141.2155  133.6766  156.6920 LP  0  0  0  0  0  0  0  0  0  0  0  0  # atno 17395 bound_to 11000

$$$$
