AV-unprocessed.smi:35|AV-procd|sdf|263|dock1
  -GOLD-   2262016 33D 1   1.00000     0.00000
 Structure written by MMmdl.
 28 29  0  0  0  0  0  0  0  0  2 V2000
  150.4692  134.2113  156.3918 O   0  0  0  0  0  0  0  0  0  0  0  0
  150.3846  135.3310  155.8907 C   0  0  0  0  0  0  0  0  0  0  0  0
  151.4602  135.9990  155.3835 N   0  5  0  0  0  0  0  0  0  0  0  0
  151.3593  137.2380  154.8186 C   0  0  0  0  0  0  0  0  0  0  0  0
  152.3287  137.8537  154.3746 O   0  0  0  0  0  0  0  0  0  0  0  0
  150.0809  137.8572  154.7323 N   0  0  0  0  0  0  0  0  0  0  0  0
  149.9820  139.2385  154.1067 C   0  0  2  0  0  0  0  0  0  0  0  0
  150.8243  140.1227  154.7888 O   0  0  0  0  0  0  0  0  0  0  0  0
  150.0729  140.8528  155.7539 C   0  0  1  0  0  0  0  0  0  0  0  0
  150.8365  142.0993  156.2333 C   0  0  0  0  0  0  0  0  0  0  0  0
  150.0296  142.8517  157.1145 O   0  0  0  0  0  0  0  0  0  0  0  0
  148.7684  141.1200  154.9970 C   0  0  1  0  0  0  0  0  0  0  0  0
  148.9167  142.2299  154.1256 O   0  0  0  0  0  0  0  0  0  0  0  0
  148.5517  139.8060  154.2467 C   0  0  1  0  0  0  0  0  0  0  0  0
  147.8951  139.9887  153.0062 O   0  0  0  0  0  0  0  0  0  0  0  0
  148.9752  137.2123  155.2663 C   0  0  0  0  0  0  0  0  0  0  0  0
  149.0843  135.9919  155.8290 C   0  0  0  0  0  0  0  0  0  0  0  0
  147.4195  135.1898  156.5445 Br  0  0  0  0  0  0  0  0  0  0  0  0
  150.3282  139.1160  153.0789 H   0  0  0  0  0  0  0  0  0  0  0  0
  149.8437  140.2073  156.6039 H   0  0  0  0  0  0  0  0  0  0  0  0
  151.7759  141.8303  156.7174 H   0  0  0  0  0  0  0  0  0  0  0  0
  151.0781  142.7402  155.3851 H   0  0  0  0  0  0  0  0  0  0  0  0
  149.4524  143.3963  156.6014 H   0  0  0  0  0  0  0  0  0  0  0  0
  147.9427  141.3318  155.6768 H   0  0  0  0  0  0  0  0  0  0  0  0
  148.6997  143.0131  154.6083 H   0  0  0  0  0  0  0  0  0  0  0  0
  147.9559  139.1358  154.8685 H   0  0  0  0  0  0  0  0  0  0  0  0
  148.5454  139.9375  152.3210 H   0  0  0  0  0  0  0  0  0  0  0  0
  148.0014  137.6767  155.2451 H   0  0  0  0  0  0  0  0  0  0  0  0
  1  2  2  0  0  0  0
  2 17  1  0  0  0  0
  2  3  1  0  0  0  0
  3  4  1  0  0  0  0
  4  5  2  0  0  0  0
  4  6  1  0  0  0  0
  6  7  1  0  0  0  0
  6 16  1  0  0  0  0
  7 14  1  0  0  0  0
  7  8  1  0  0  0  0
  7 19  1  0  0  0  0
  8  9  1  0  0  0  0
  9 10  1  0  0  0  0
  9 12  1  0  0  0  0
  9 20  1  0  0  0  0
 10 11  1  0  0  0  0
 10 21  1  0  0  0  0
 10 22  1  0  0  0  0
 11 23  1  0  0  0  0
 12 13  1  0  0  0  0
 12 14  1  0  0  0  0
 12 24  1  0  0  0  0
 13 25  1  0  0  0  0
 14 15  1  0  0  0  0
 14 26  1  0  0  0  0
 15 27  1  0  0  0  0
 16 17  2  0  0  0  0
 16 28  1  0  0  0  0
 17 18  1  0  0  0  0
M  CHG  1   3  -1
M  END
> <s_m_source_file>
AV-unprocessed.smi

> <i_m_source_file_index>
35

> <i_lp_mmshare_version>
43012

> <i_f3d_flags>
0

> <s_epik_input>
Tz1jMVtuSF1jKD1PKW4oW2NIXWMxQnIpW0NAQEhdMk9bQ0BASF0oW0NIMl1bT0hdKVtDQEBIXShbT0hdKVtDQEhdMltPSF0=

> <s_epik_cmdline>
J2VwaWtfcHl0aG9uJywgJy1waCcsICc3LjAnLCAnLXRuJywgJzgnLCAnLW1hJywgJzIwMCcsICctbWV0YWxfYmluZGluZycsICctaW1hZScsICc8aW5maWxlLm1hZT4nLCAnLW9tYWUnLCAnPG91dGZpbGUubWFlPic=

> <r_epik_Ionization_Penalty>
1.06112

> <r_epik_Ionization_Penalty_Charging>
2.1796e-09

> <r_epik_Ionization_Penalty_Neutral>
1.06112

> <r_epik_State_Penalty>
1.11484

> <r_epik_Charging_Adjusted_Penalty>
1.11484

> <i_epik_Tot_Q>
-1

> <i_epik_Tot_abs_Q>
1

> <r_epik_Metal_State_Penalty>
0.0032876

> <b_epik_Metal_Only>
0

> <s_epik_Chemistry_Notes>
This compound contains an acetal/aminal-like group ( X-CH(R)-Y where X, Y are N, S, or O) that may be acid/base labile, releasing an aldehyde.

> <s_lp_Force_Field>
OPLS_2005

> <r_lp_Energy>
42.0638

> <b_lp_Chiralities_Consistent>
1

> <s_lp_Variant>
AV-unprocessed.smi:35-17

> <Gold.Version>
5.8.1

> <Gold.Id.Protein>
6NUR|6NUR_protein|mol2

> <Gold.PLP.Fitness>
46.6797

> <Gold.PLP.PLP>
-27.9273

> <Gold.PLP.part.hbond>
-6.8083

> <Gold.PLP.part.metal>
0.0000

> <Gold.PLP.part.buried>
-4.8711

> <Gold.PLP.part.nonpolar>
-17.4012

> <Gold.PLP.part.repulsive>
0.2804

> <Gold.PLP.ligand.clash>
0.0000

> <Gold.PLP.ligand.torsion>
0.0392

> <Gold.PLP.Chemscore.Hbond>
6.2696

> <Gold.PLP.Chemscore.CHOScore>
0.0000

> <Gold.PLP.Chemscore.Metal>
0.0000

> <Gold.Chemscore.Hbonds>
donor molecule, donor type, donor heavy atom, donor atom, acceptor molecule, acceptor atom, score
      L1  H    11    23       P1  8028  1.00
      L1  H    13    25       P1  8028  1.00
      L1  H    15    27       P1  7957  1.00
      P1  H  7989  7998       L1     8  1.00
      P1  H  8011  8017       L1    13  0.27
      P1  H 10752 10764       L1     3  1.90

> <Gold.PLP.Chemscore.Internal.Correction>
0.0220

> <Gold.Rescore>
     Score         DG    S(hbond)    S(metal)    S(lipo)     H(rot)  DE(clash)    DE(int)     intcor
     12.29     -13.78       4.19        0.00      30.58       3.63       0.07       1.43       ----

> <Gold.Chemscore.Fitness>
12.2861

> <Gold.Chemscore.DG>
-13.7829

> <Gold.Chemscore.ZeroCoef>
-5.4800

> <Gold.Chemscore.Hbond>
4.1939

> <Gold.Chemscore.Metal>
0.0000

> <Gold.Chemscore.Lipo>
30.5812

> <Gold.Chemscore.Internal_Hbond>
0.0000

> <Gold.Chemscore.DEClash>
0.0663

> <Gold.Chemscore.DEInternal>
1.4304

> <Gold.Chemscore.Rot>
3.6261

> <Gold.Chemscore.Internal.Correction>
   9.000000E+99

> <Gold.Chemscore.Hbonds>
donor molecule, donor type, donor heavy atom, donor atom, acceptor molecule, acceptor atom, score
      L1  H    11    23       P1  8028  0.99
      L1  H    13    25       P1  8028  0.97
      L1  H    15    27       P1  7957  0.97
      P1  H  7989  7998       L1     8  0.30
      P1  H  8011  8017       L1    13  0.26
      P1  H 10752 10764       L1     3  0.22

> <Gold.Chemscore.Hbond.Weighted>
-14.0076

> <Gold.Chemscore.Metal.Weighted>
-0.0000

> <Gold.Chemscore.Lipo.Weighted>
-3.5780

> <Gold.Chemscore.Internal_Hbond.Weighted>
0.0000

> <Gold.Chemscore.DEClash.Weighted>
0.0663

> <Gold.Chemscore.DEInternal.Weighted>
1.4304

> <Gold.Chemscore.Rot.Weighted>
9.2828

> <Gold.Chemscore.Internal.Correction.Weighted>
   9.000000E+99

> <Gold.Protein.RotatedTorsions>
[ 6907 6896 6895 6894 ] final -163.18 input  -60.11 | X-H torsion
[ 7974 7965 7964 7962 ] final    4.72 input  175.53 | X-H torsion
[ 8008 7997 7996 7995 ] final  -99.52 input   59.86 | X-H torsion
[ 10167 10162 10161 10158 ] final  136.82 input  -65.29 | X-H torsion
[ 10718 10713 10712 10709 ] final -131.32 input   66.30 | X-H torsion
[ 10763 10752 10751 10750 ] final  -49.24 input  -60.55 | X-H torsion
[ 11005 11000 10999 10996 ] final  -91.07 input  -57.11 | X-H torsion

> <Gold.Protein.ActiveResidues>
 VAL166  LYS551  ARG553  GLY616  TRP617  ASP618  TYR619  PRO620  LYS621  CYS622 
 ASP623  PHE694  ASN695  SER759  ASP760  ASP761  ALA762  ILE779  LEU786  VAL792 
 PHE793  MET794  SER795  GLU796  ALA797  LYS798  CYS799  TRP800  GLU811  SER814 

> <Gold.Protein.RotatedAtoms>
  151.3919  133.3786  159.2721 H   0  0  0  0  0  0  0  0  0  0  0  0  # atno 6907 bound_to 6896
  150.9498  134.8900  159.7675 H   0  0  0  0  0  0  0  0  0  0  0  0  # atno 6908 bound_to 6896
  152.5107  134.3874  159.9424 H   0  0  0  0  0  0  0  0  0  0  0  0  # atno 6909 bound_to 6896
  146.2443  140.0491  142.8376 H   0  0  0  0  0  0  0  0  0  0  0  0  # atno 7974 bound_to 7965
  154.8160  140.0447  157.1376 H   0  0  0  0  0  0  0  0  0  0  0  0  # atno 8008 bound_to 7997
  154.9314  140.3040  155.5146 H   0  0  0  0  0  0  0  0  0  0  0  0  # atno 8009 bound_to 7997
  156.2976  140.2322  156.4374 H   0  0  0  0  0  0  0  0  0  0  0  0  # atno 8010 bound_to 7997
  139.5166  144.6443  151.5482 H   0  0  0  0  0  0  0  0  0  0  0  0  # atno 10167 bound_to 10162
  156.2233  130.6992  151.0779 H   0  0  0  0  0  0  0  0  0  0  0  0  # atno 10718 bound_to 10713
  154.0908  135.6577  153.4852 H   0  0  0  0  0  0  0  0  0  0  0  0  # atno 10763 bound_to 10752
  153.0322  135.5202  154.7382 H   0  0  0  0  0  0  0  0  0  0  0  0  # atno 10764 bound_to 10752
  154.6505  135.3000  154.9961 H   0  0  0  0  0  0  0  0  0  0  0  0  # atno 10765 bound_to 10752
  141.1552  133.7732  156.9827 H   0  0  0  0  0  0  0  0  0  0  0  0  # atno 11005 bound_to 11000
  145.1000  140.9339  143.4718 LP  0  0  0  0  0  0  0  0  0  0  0  0  # atno 17320 bound_to 7965
  145.0682  139.3052  143.5845 LP  0  0  0  0  0  0  0  0  0  0  0  0  # atno 17321 bound_to 7965
  140.6222  143.9236  150.6536 LP  0  0  0  0  0  0  0  0  0  0  0  0  # atno 17342 bound_to 10162
  140.2513  143.3591  152.1403 LP  0  0  0  0  0  0  0  0  0  0  0  0  # atno 17343 bound_to 10162
  157.7098  131.0739  150.6541 LP  0  0  0  0  0  0  0  0  0  0  0  0  # atno 17370 bound_to 10713
  156.6605  130.4511  149.5689 LP  0  0  0  0  0  0  0  0  0  0  0  0  # atno 17371 bound_to 10713
  140.1055  134.9509  157.1988 LP  0  0  0  0  0  0  0  0  0  0  0  0  # atno 17394 bound_to 11000
  140.3262  134.2861  155.7236 LP  0  0  0  0  0  0  0  0  0  0  0  0  # atno 17395 bound_to 11000

$$$$
