AV-unprocessed.smi:1898|AV-procd|sdf|7701|dock8
  -GOLD-   22720 9443D 1   1.00000     0.00000
 Structure written by MMmdl.
 47 48  0  0  0  0  0  0  0  0  2 V2000
  146.5616  133.8756  151.7489 C   0  0  0  0  0  0  0  0  0  0  0  0
  146.5804  135.3239  151.8889 N   0  0  0  0  0  0  0  0  0  0  0  0
  145.5767  136.0432  152.4098 C   0  0  0  0  0  0  0  0  0  0  0  0
  144.5282  135.5416  152.8170 O   0  0  0  0  0  0  0  0  0  0  0  0
  145.7862  137.5604  152.4609 C   0  0  0  0  0  0  0  0  0  0  0  0
  146.9390  137.9584  153.3090 N   0  3  2  0  0  0  0  0  0  0  0  0
  146.8457  137.4176  154.6889 C   0  0  0  0  0  0  0  0  0  0  0  0
  148.1281  137.7121  155.4848 C   0  0  0  0  0  0  0  0  0  0  0  0
  148.4284  139.2191  155.5170 C   0  0  1  0  0  0  0  0  0  0  0  0
  149.6973  139.4586  156.1978 N   0  0  0  0  0  0  0  0  0  0  0  0
  149.8922  140.3561  157.1744 C   0  0  0  0  0  0  0  0  0  0  0  0
  149.0003  141.0811  157.6132 O   0  0  0  0  0  0  0  0  0  0  0  0
  151.1682  140.3396  157.5961 N   0  0  0  0  0  0  0  0  0  0  0  0
  151.7909  141.1055  158.6219 C   0  0  0  0  0  0  0  0  0  0  0  0
  151.2402  142.2849  159.1815 C   0  0  0  0  0  0  0  0  0  0  0  0
  151.9554  142.9633  160.1857 C   0  0  0  0  0  0  0  0  0  0  0  0
  153.1985  142.4447  160.5907 C   0  0  0  0  0  0  0  0  0  0  0  0
  153.7415  141.3304  160.0597 N   0  0  0  0  0  0  0  0  0  0  0  0
  153.0538  140.6741  159.0918 C   0  0  0  0  0  0  0  0  0  0  0  0
  153.6147  139.5351  158.5454 O   0  0  0  0  0  0  0  0  0  0  0  0
  154.4699  138.7402  159.3596 C   0  0  0  0  0  0  0  0  0  0  0  0
  148.4708  139.7696  154.0800 C   0  0  0  0  0  0  0  0  0  0  0  0
  147.1828  139.4257  153.3144 C   0  0  0  0  0  0  0  0  0  0  0  0
  147.4907  133.5341  151.2926 H   0  0  0  0  0  0  0  0  0  0  0  0
  145.7332  133.5563  151.1150 H   0  0  0  0  0  0  0  0  0  0  0  0
  146.4621  133.3927  152.7219 H   0  0  0  0  0  0  0  0  0  0  0  0
  147.4076  135.8070  151.5684 H   0  0  0  0  0  0  0  0  0  0  0  0
  145.9028  137.9653  151.4542 H   0  0  0  0  0  0  0  0  0  0  0  0
  144.8675  137.9869  152.8658 H   0  0  0  0  0  0  0  0  0  0  0  0
  145.9797  137.8492  155.1933 H   0  0  0  0  0  0  0  0  0  0  0  0
  146.6887  136.3388  154.6542 H   0  0  0  0  0  0  0  0  0  0  0  0
  148.0270  137.3287  156.5008 H   0  0  0  0  0  0  0  0  0  0  0  0
  148.9639  137.1752  155.0331 H   0  0  0  0  0  0  0  0  0  0  0  0
  147.6237  139.7142  156.0642 H   0  0  0  0  0  0  0  0  0  0  0  0
  150.4862  138.9016  155.9027 H   0  0  0  0  0  0  0  0  0  0  0  0
  151.7651  139.6498  157.1630 H   0  0  0  0  0  0  0  0  0  0  0  0
  150.2955  142.6929  158.8603 H   0  0  0  0  0  0  0  0  0  0  0  0
  151.5605  143.8637  160.6325 H   0  0  0  0  0  0  0  0  0  0  0  0
  153.7744  142.9403  161.3580 H   0  0  0  0  0  0  0  0  0  0  0  0
  154.8292  137.8898  158.7805 H   0  0  0  0  0  0  0  0  0  0  0  0
  153.9415  138.3484  160.2299 H   0  0  0  0  0  0  0  0  0  0  0  0
  155.3418  139.3046  159.6934 H   0  0  0  0  0  0  0  0  0  0  0  0
  148.6101  140.8513  154.0952 H   0  0  0  0  0  0  0  0  0  0  0  0
  149.3289  139.3550  153.5482 H   0  0  0  0  0  0  0  0  0  0  0  0
  147.2644  139.7978  152.2928 H   0  0  0  0  0  0  0  0  0  0  0  0
  146.3313  139.9360  153.7675 H   0  0  0  0  0  0  0  0  0  0  0  0
  147.7514  137.5272  152.8907 H   0  0  0  0  0  0  0  0  0  0  0  0
  1  2  1  0  0  0  0
  1 24  1  0  0  0  0
  1 25  1  0  0  0  0
  1 26  1  0  0  0  0
  2  3  1  0  0  0  0
  2 27  1  0  0  0  0
  3  4  2  0  0  0  0
  3  5  1  0  0  0  0
  5  6  1  0  0  0  0
  5 28  1  0  0  0  0
  5 29  1  0  0  0  0
  6 23  1  0  0  0  0
  6  7  1  0  0  0  0
  6 47  1  0  0  0  0
  7  8  1  0  0  0  0
  7 30  1  0  0  0  0
  7 31  1  0  0  0  0
  8  9  1  0  0  0  0
  8 32  1  0  0  0  0
  8 33  1  0  0  0  0
  9 10  1  0  0  0  0
  9 22  1  0  0  0  0
  9 34  1  0  0  0  0
 10 11  1  0  0  0  0
 10 35  1  0  0  0  0
 11 12  2  0  0  0  0
 11 13  1  0  0  0  0
 13 14  1  0  0  0  0
 13 36  1  0  0  0  0
 14 19  1  0  0  0  0
 14 15  2  0  0  0  0
 15 16  1  0  0  0  0
 15 37  1  0  0  0  0
 16 17  2  0  0  0  0
 16 38  1  0  0  0  0
 17 18  1  0  0  0  0
 17 39  1  0  0  0  0
 18 19  2  0  0  0  0
 19 20  1  0  0  0  0
 20 21  1  0  0  0  0
 21 40  1  0  0  0  0
 21 41  1  0  0  0  0
 21 42  1  0  0  0  0
 22 23  1  0  0  0  0
 22 43  1  0  0  0  0
 22 44  1  0  0  0  0
 23 45  1  0  0  0  0
 23 46  1  0  0  0  0
M  CHG  1   6   1
M  END
> <s_m_source_file>
AV-unprocessed.smi

> <i_m_source_file_index>
1898

> <i_lp_mmshare_version>
43012

> <i_f3d_flags>
0

> <s_epik_input>
W0NIM11bTkhdQyg9TylbQ0gyXU4xW0NIMl1bQ0gyXVtDSF0oW0NIMl1bQ0gyXTEpW05IXUMoPU8pW05IXWMyW2NIXVtjSF1bY0hdbmMyT1tDSDNd

> <s_epik_cmdline>
J2VwaWtfcHl0aG9uJywgJy1waCcsICc3LjAnLCAnLXRuJywgJzgnLCAnLW1hJywgJzIwMCcsICctbWV0YWxfYmluZGluZycsICctaW1hZScsICc8aW5maWxlLm1hZT4nLCAnLW9tYWUnLCAnPG91dGZpbGUubWFlPic=

> <r_lp_tautomer_probability>
1

> <r_epik_Ionization_Penalty>
0.838943

> <r_epik_Ionization_Penalty_Charging>
0.838844

> <r_epik_Ionization_Penalty_Neutral>
9.87395e-05

> <r_epik_State_Penalty>
0.8734

> <r_epik_Charging_Adjusted_Penalty>
1.71224

> <i_epik_Tot_Q>
1

> <i_epik_Tot_abs_Q>
1

> <r_epik_Metal_State_Penalty>
0.877926

> <b_epik_Metal_Only>
0

> <s_lp_Force_Field>
OPLS_2005

> <r_lp_Energy>
17.1521

> <b_lp_Chiralities_Consistent>
1

> <s_lp_Variant>
AV-unprocessed.smi:1898-2

> <Gold.Version>
5.8.1

> <Gold.Id.Protein>
6NUR|6NUR_protein|mol2

> <Gold.PLP.Fitness>
39.8798

> <Gold.PLP.PLP>
-28.9812

> <Gold.PLP.part.hbond>
-2.8050

> <Gold.PLP.part.metal>
0.0000

> <Gold.PLP.part.buried>
-2.2326

> <Gold.PLP.part.nonpolar>
-24.1856

> <Gold.PLP.part.repulsive>
0.3317

> <Gold.PLP.ligand.clash>
0.0000

> <Gold.PLP.ligand.torsion>
0.5658

> <Gold.PLP.Chemscore.Hbond>
4.0000

> <Gold.PLP.Chemscore.CHOScore>
0.0000

> <Gold.PLP.Chemscore.Metal>
0.0000

> <Gold.Chemscore.Hbonds>
donor molecule, donor type, donor heavy atom, donor atom, acceptor molecule, acceptor atom, score
      L1  H     2    27       P1  7948  0.98
      L1  H     6    47       P1  7948  1.98
      P1  H  7997  8010       L1    20  0.95

> <Gold.PLP.Chemscore.Internal.Correction>
0.0303

> <Gold.Rescore>
     Score         DG    S(hbond)    S(metal)    S(lipo)     H(rot)  DE(clash)    DE(int)     intcor
     14.66     -16.83       2.37        0.00      72.94       2.00       0.47       1.70       ----

> <Gold.Chemscore.Fitness>
14.6580

> <Gold.Chemscore.DG>
-16.8260

> <Gold.Chemscore.ZeroCoef>
-5.4800

> <Gold.Chemscore.Hbond>
2.3721

> <Gold.Chemscore.Metal>
0.0000

> <Gold.Chemscore.Lipo>
72.9374

> <Gold.Chemscore.Internal_Hbond>
0.0000

> <Gold.Chemscore.DEClash>
0.4673

> <Gold.Chemscore.DEInternal>
1.7007

> <Gold.Chemscore.Rot>
1.9963

> <Gold.Chemscore.Internal.Correction>
   9.000000E+99

> <Gold.Chemscore.Hbonds>
donor molecule, donor type, donor heavy atom, donor atom, acceptor molecule, acceptor atom, score
      L1  H     2    27       P1  7948  0.91
      L1  H     6    47       P1  7948  0.92
      P1  H  7997  8010       L1    20  0.15

> <Gold.Chemscore.Hbond.Weighted>
-7.9229

> <Gold.Chemscore.Metal.Weighted>
-0.0000

> <Gold.Chemscore.Lipo.Weighted>
-8.5337

> <Gold.Chemscore.Internal_Hbond.Weighted>
0.0000

> <Gold.Chemscore.DEClash.Weighted>
0.4673

> <Gold.Chemscore.DEInternal.Weighted>
1.7007

> <Gold.Chemscore.Rot.Weighted>
5.1105

> <Gold.Chemscore.Internal.Correction.Weighted>
   9.000000E+99

> <Gold.Protein.RotatedTorsions>
[ 6907 6896 6895 6894 ] final   39.75 input  -60.11 | X-H torsion
[ 7974 7965 7964 7962 ] final    8.81 input  175.53 | X-H torsion
[ 8008 7997 7996 7995 ] final   16.29 input   59.86 | X-H torsion
[ 10167 10162 10161 10158 ] final   -2.89 input  -65.29 | X-H torsion
[ 10718 10713 10712 10709 ] final -123.45 input   66.30 | X-H torsion
[ 10763 10752 10751 10750 ] final  -43.73 input  -60.55 | X-H torsion
[ 11005 11000 10999 10996 ] final   42.14 input  -57.11 | X-H torsion

> <Gold.Protein.ActiveResidues>
 VAL166  LYS551  ARG553  GLY616  TRP617  ASP618  TYR619  PRO620  LYS621  CYS622 
 ASP623  PHE694  ASN695  SER759  ASP760  ASP761  ALA762  ILE779  LEU786  VAL792 
 PHE793  MET794  SER795  GLU796  ALA797  LYS798  CYS799  TRP800  GLU811  SER814 

> <Gold.Protein.RotatedAtoms>
  152.1736  134.8814  160.0532 H   0  0  0  0  0  0  0  0  0  0  0  0  # atno 6907 bound_to 6896
  151.9765  133.3738  159.4099 H   0  0  0  0  0  0  0  0  0  0  0  0  # atno 6908 bound_to 6896
  150.6905  134.4008  159.5162 H   0  0  0  0  0  0  0  0  0  0  0  0  # atno 6909 bound_to 6896
  146.2411  139.9877  142.8429 H   0  0  0  0  0  0  0  0  0  0  0  0  # atno 7974 bound_to 7965
  154.8748  140.2964  155.5459 H   0  0  0  0  0  0  0  0  0  0  0  0  # atno 8008 bound_to 7997
  156.3022  140.2453  156.3676 H   0  0  0  0  0  0  0  0  0  0  0  0  # atno 8009 bound_to 7997
  154.8778  140.0399  157.1753 H   0  0  0  0  0  0  0  0  0  0  0  0  # atno 8010 bound_to 7997
  140.6869  143.6604  150.8271 H   0  0  0  0  0  0  0  0  0  0  0  0  # atno 10167 bound_to 10162
  156.1503  130.6530  150.9903 H   0  0  0  0  0  0  0  0  0  0  0  0  # atno 10718 bound_to 10713
  154.0004  135.6694  153.4759 H   0  0  0  0  0  0  0  0  0  0  0  0  # atno 10763 bound_to 10752
  153.0665  135.4998  154.8207 H   0  0  0  0  0  0  0  0  0  0  0  0  # atno 10764 bound_to 10752
  154.7056  135.3087  154.9238 H   0  0  0  0  0  0  0  0  0  0  0  0  # atno 10765 bound_to 10752
  140.1767  134.4154  155.8224 H   0  0  0  0  0  0  0  0  0  0  0  0  # atno 11005 bound_to 11000
  145.1532  140.9634  143.4420 LP  0  0  0  0  0  0  0  0  0  0  0  0  # atno 17320 bound_to 7965
  145.0185  139.3445  143.6084 LP  0  0  0  0  0  0  0  0  0  0  0  0  # atno 17321 bound_to 7965
  140.0312  143.5441  152.2759 LP  0  0  0  0  0  0  0  0  0  0  0  0  # atno 17342 bound_to 10162
  139.6235  144.7633  151.2689 LP  0  0  0  0  0  0  0  0  0  0  0  0  # atno 17343 bound_to 10162
  157.6651  131.0873  150.7747 LP  0  0  0  0  0  0  0  0  0  0  0  0  # atno 17370 bound_to 10713
  156.7816  130.4861  149.5400 LP  0  0  0  0  0  0  0  0  0  0  0  0  # atno 17371 bound_to 10713
  141.2221  133.6981  156.7859 LP  0  0  0  0  0  0  0  0  0  0  0  0  # atno 17394 bound_to 11000
  140.2314  134.8682  157.3481 LP  0  0  0  0  0  0  0  0  0  0  0  0  # atno 17395 bound_to 11000

$$$$
