AV-unprocessed.smi:1987|AV-procd|sdf|8056|dock4
  -GOLD-   2272010263D 1   1.00000     0.00000
 Structure written by MMmdl.
 37 39  0  0  0  0  0  0  0  0  2 V2000
  149.8632  141.0017  153.8943 O   0  0  0  0  0  0  0  0  0  0  0  0
  148.8750  140.5056  154.4348 C   0  0  0  0  0  0  0  0  0  0  0  0
  147.5250  140.5133  153.7195 C   0  0  0  0  0  0  0  0  0  0  0  0
  146.6322  141.4726  154.3416 N   0  0  0  0  0  0  0  0  0  0  0  0
  146.7112  142.8001  154.4525 C   0  0  0  0  0  0  0  0  0  0  0  0
  145.6539  143.3023  155.0719 N   0  0  0  0  0  0  0  0  0  0  0  0
  144.8896  142.1814  155.3504 N   0  0  0  0  0  0  0  0  0  0  0  0
  145.4645  141.0926  154.9191 N   0  0  0  0  0  0  0  0  0  0  0  0
  148.9083  139.9074  155.6353 N   0  0  0  0  0  0  0  0  0  0  0  0
  150.1123  139.6697  156.4219 C   0  0  0  0  0  0  0  0  0  0  0  0
  150.4734  140.8900  157.2920 C   0  0  2  0  0  0  0  0  0  0  0  0
  149.3017  141.5058  158.0555 C   0  0  0  0  0  0  0  0  0  0  0  0
  149.8241  142.8995  158.3901 C   0  0  0  0  0  0  0  0  0  0  0  0
  150.6371  143.3058  157.2235 N   0  3  1  0  0  0  0  0  0  0  0  0
  151.7579  144.2095  157.5596 C   0  0  0  0  0  0  0  0  0  0  0  0
  152.4202  143.8865  158.8775 C   0  0  0  0  0  0  0  0  0  0  0  0
  151.4917  145.0767  158.7666 C   0  0  0  0  0  0  0  0  0  0  0  0
  151.0441  142.0762  156.5026 C   0  0  0  0  0  0  0  0  0  0  0  0
  147.6520  140.7643  152.6652 H   0  0  0  0  0  0  0  0  0  0  0  0
  147.0693  139.5234  153.7662 H   0  0  0  0  0  0  0  0  0  0  0  0
  147.5310  143.3933  154.0743 H   0  0  0  0  0  0  0  0  0  0  0  0
  148.0433  139.5367  156.0026 H   0  0  0  0  0  0  0  0  0  0  0  0
  149.9838  138.7822  157.0439 H   0  0  0  0  0  0  0  0  0  0  0  0
  150.9253  139.4482  155.7298 H   0  0  0  0  0  0  0  0  0  0  0  0
  151.2248  140.5922  158.0257 H   0  0  0  0  0  0  0  0  0  0  0  0
  148.4236  141.5791  157.4125 H   0  0  0  0  0  0  0  0  0  0  0  0
  149.0251  140.9359  158.9437 H   0  0  0  0  0  0  0  0  0  0  0  0
  149.0234  143.6124  158.5886 H   0  0  0  0  0  0  0  0  0  0  0  0
  150.4538  142.8454  159.2800 H   0  0  0  0  0  0  0  0  0  0  0  0
  152.3437  144.5892  156.7238 H   0  0  0  0  0  0  0  0  0  0  0  0
  152.0650  143.0215  159.4347 H   0  0  0  0  0  0  0  0  0  0  0  0
  153.4848  144.0926  158.9685 H   0  0  0  0  0  0  0  0  0  0  0  0
  151.9456  146.0656  158.7845 H   0  0  0  0  0  0  0  0  0  0  0  0
  150.5191  145.0028  159.2501 H   0  0  0  0  0  0  0  0  0  0  0  0
  152.1267  141.9937  156.3931 H   0  0  0  0  0  0  0  0  0  0  0  0
  150.6171  142.1213  155.5000 H   0  0  0  0  0  0  0  0  0  0  0  0
  150.0214  143.8081  156.5999 H   0  0  0  0  0  0  0  0  0  0  0  0
  1  2  2  0  0  0  0
  2  3  1  0  0  0  0
  2  9  1  0  0  0  0
  3  4  1  0  0  0  0
  3 19  1  0  0  0  0
  3 20  1  0  0  0  0
  4  8  1  0  0  0  0
  4  5  1  0  0  0  0
  5  6  2  0  0  0  0
  5 21  1  0  0  0  0
  6  7  1  0  0  0  0
  7  8  2  0  0  0  0
  9 10  1  0  0  0  0
  9 22  1  0  0  0  0
 10 11  1  0  0  0  0
 10 23  1  0  0  0  0
 10 24  1  0  0  0  0
 11 18  1  0  0  0  0
 11 12  1  0  0  0  0
 11 25  1  0  0  0  0
 12 13  1  0  0  0  0
 12 26  1  0  0  0  0
 12 27  1  0  0  0  0
 13 14  1  0  0  0  0
 13 28  1  0  0  0  0
 13 29  1  0  0  0  0
 14 15  1  0  0  0  0
 14 18  1  0  0  0  0
 14 37  1  0  0  0  0
 15 17  1  0  0  0  0
 15 16  1  0  0  0  0
 15 30  1  0  0  0  0
 16 17  1  0  0  0  0
 16 31  1  0  0  0  0
 16 32  1  0  0  0  0
 17 33  1  0  0  0  0
 17 34  1  0  0  0  0
 18 35  1  0  0  0  0
 18 36  1  0  0  0  0
M  CHG  1  14   1
M  END
> <s_m_source_file>
AV-unprocessed.smi

> <i_m_source_file_index>
1987

> <i_lp_mmshare_version>
43012

> <i_f3d_flags>
0

> <s_epik_input>
bjFubltjSF1uMVtDSDJdQyg9TylbTkhdW0NIMl1bQ0BASF0yW0NIMl1bQ0gyXU4oW0NIMl0yKVtDSF0zW0NIMl1bQ0gyXTM=

> <s_epik_cmdline>
J2VwaWtfcHl0aG9uJywgJy1waCcsICc3LjAnLCAnLXRuJywgJzgnLCAnLW1hJywgJzIwMCcsICctbWV0YWxfYmluZGluZycsICctaW1hZScsICc8aW5maWxlLm1hZT4nLCAnLW9tYWUnLCAnPG91dGZpbGUubWFlPic=

> <r_lp_tautomer_probability>
1

> <r_epik_Ionization_Penalty>
0.000242849

> <r_epik_Ionization_Penalty_Charging>
0.000241326

> <r_epik_Ionization_Penalty_Neutral>
1.52322e-06

> <r_epik_State_Penalty>
-0

> <r_epik_Charging_Adjusted_Penalty>
0.000241326

> <i_epik_Tot_Q>
1

> <i_epik_Tot_abs_Q>
1

> <r_epik_Metal_State_Penalty>
-0

> <b_epik_Metal_Only>
0

> <s_lp_Force_Field>
OPLS_2005

> <r_lp_Energy>
38.2804

> <b_lp_Chiralities_Consistent>
1

> <s_lp_Variant>
AV-unprocessed.smi:1987-3

> <Gold.Version>
5.8.1

> <Gold.Id.Protein>
6NUR|6NUR_protein|mol2

> <Gold.PLP.Fitness>
42.8604

> <Gold.PLP.PLP>
-31.2288

> <Gold.PLP.part.hbond>
-2.9242

> <Gold.PLP.part.metal>
0.0000

> <Gold.PLP.part.buried>
-4.9029

> <Gold.PLP.part.nonpolar>
-26.4832

> <Gold.PLP.part.repulsive>
2.1386

> <Gold.PLP.ligand.clash>
0.0000

> <Gold.PLP.ligand.torsion>
1.0621

> <Gold.PLP.Chemscore.Hbond>
3.2160

> <Gold.PLP.Chemscore.CHOScore>
0.9431

> <Gold.PLP.Chemscore.Metal>
0.0000

> <Gold.Chemscore.Hbonds>
donor molecule, donor type, donor heavy atom, donor atom, acceptor molecule, acceptor atom, score
      L1  H    14    37       P1  8028  2.00
      P1  H  7989  7998       L1     1  0.42
      P1  H  8011  8017       L1     1  0.70
      L1  C     5    21       P1  8028  0.79

> <Gold.PLP.Chemscore.Internal.Correction>
1.2785

> <Gold.Rescore>
     Score         DG    S(hbond)    S(metal)    S(lipo)     H(rot)  DE(clash)    DE(int)     intcor
     12.46     -14.13       2.11        0.00      71.16       2.62       0.45       1.22       ----

> <Gold.Chemscore.Fitness>
12.4580

> <Gold.Chemscore.DG>
-14.1317

> <Gold.Chemscore.ZeroCoef>
-5.4800

> <Gold.Chemscore.Hbond>
2.1091

> <Gold.Chemscore.Metal>
0.0000

> <Gold.Chemscore.Lipo>
71.1616

> <Gold.Chemscore.Internal_Hbond>
0.0000

> <Gold.Chemscore.DEClash>
0.4494

> <Gold.Chemscore.DEInternal>
1.2243

> <Gold.Chemscore.Rot>
2.6244

> <Gold.Chemscore.Internal.Correction>
   9.000000E+99

> <Gold.Chemscore.Hbonds>
donor molecule, donor type, donor heavy atom, donor atom, acceptor molecule, acceptor atom, score
      L1  H    14    37       P1  8028  1.00
      P1  H  7989  7998       L1     1  0.42
      P1  H  8011  8017       L1     1  0.68

> <Gold.Chemscore.Hbond.Weighted>
-7.0443

> <Gold.Chemscore.Metal.Weighted>
-0.0000

> <Gold.Chemscore.Lipo.Weighted>
-8.3259

> <Gold.Chemscore.Internal_Hbond.Weighted>
0.0000

> <Gold.Chemscore.DEClash.Weighted>
0.4494

> <Gold.Chemscore.DEInternal.Weighted>
1.2243

> <Gold.Chemscore.Rot.Weighted>
6.7186

> <Gold.Chemscore.Internal.Correction.Weighted>
   9.000000E+99

> <Gold.Protein.RotatedTorsions>
[ 6907 6896 6895 6894 ] final -137.02 input  -60.11 | X-H torsion
[ 7974 7965 7964 7962 ] final  -99.15 input  175.53 | X-H torsion
[ 8008 7997 7996 7995 ] final  -64.60 input   59.86 | X-H torsion
[ 10167 10162 10161 10158 ] final   48.20 input  -65.29 | X-H torsion
[ 10718 10713 10712 10709 ] final -154.17 input   66.30 | X-H torsion
[ 10763 10752 10751 10750 ] final   53.54 input  -60.55 | X-H torsion
[ 11005 11000 10999 10996 ] final  -96.91 input  -57.11 | X-H torsion

> <Gold.Protein.ActiveResidues>
 VAL166  LYS551  ARG553  GLY616  TRP617  ASP618  TYR619  PRO620  LYS621  CYS622 
 ASP623  PHE694  ASN695  SER759  ASP760  ASP761  ALA762  ILE779  LEU786  VAL792 
 PHE793  MET794  SER795  GLU796  ALA797  LYS798  CYS799  TRP800  GLU811  SER814 

> <Gold.Protein.RotatedAtoms>
  151.0173  133.5909  159.2675 H   0  0  0  0  0  0  0  0  0  0  0  0  # atno 6907 bound_to 6896
  151.3039  135.0775  159.9258 H   0  0  0  0  0  0  0  0  0  0  0  0  # atno 6908 bound_to 6896
  152.5314  133.9850  159.7878 H   0  0  0  0  0  0  0  0  0  0  0  0  # atno 6909 bound_to 6896
  145.3113  140.9401  143.2768 H   0  0  0  0  0  0  0  0  0  0  0  0  # atno 7974 bound_to 7965
  154.4621  140.0950  156.6921 H   0  0  0  0  0  0  0  0  0  0  0  0  # atno 8008 bound_to 7997
  155.4964  140.3472  155.4345 H   0  0  0  0  0  0  0  0  0  0  0  0  # atno 8009 bound_to 7997
  156.0889  140.1392  156.9606 H   0  0  0  0  0  0  0  0  0  0  0  0  # atno 8010 bound_to 7997
  140.2958  144.2993  150.6230 H   0  0  0  0  0  0  0  0  0  0  0  0  # atno 10167 bound_to 10162
  156.4957  130.8368  151.2588 H   0  0  0  0  0  0  0  0  0  0  0  0  # atno 10718 bound_to 10713
  152.9796  135.5775  154.4758 H   0  0  0  0  0  0  0  0  0  0  0  0  # atno 10763 bound_to 10752
  154.4314  135.2773  155.1912 H   0  0  0  0  0  0  0  0  0  0  0  0  # atno 10764 bound_to 10752
  154.3618  135.6187  153.5748 H   0  0  0  0  0  0  0  0  0  0  0  0  # atno 10765 bound_to 10752
  141.1396  133.8132  157.0635 H   0  0  0  0  0  0  0  0  0  0  0  0  # atno 11005 bound_to 11000
  144.9013  139.4646  143.6631 LP  0  0  0  0  0  0  0  0  0  0  0  0  # atno 17320 bound_to 7965
  146.3117  139.7769  142.9015 LP  0  0  0  0  0  0  0  0  0  0  0  0  # atno 17321 bound_to 7965
  140.5694  143.2182  151.7626 LP  0  0  0  0  0  0  0  0  0  0  0  0  # atno 17342 bound_to 10162
  139.4927  144.4238  151.9948 LP  0  0  0  0  0  0  0  0  0  0  0  0  # atno 17343 bound_to 10162
  157.7469  130.9998  150.2905 LP  0  0  0  0  0  0  0  0  0  0  0  0  # atno 17370 bound_to 10713
  156.3383  130.3811  149.7431 LP  0  0  0  0  0  0  0  0  0  0  0  0  # atno 17371 bound_to 10713
  140.0556  134.9782  157.1215 LP  0  0  0  0  0  0  0  0  0  0  0  0  # atno 17394 bound_to 11000
  140.3924  134.2170  155.7166 LP  0  0  0  0  0  0  0  0  0  0  0  0  # atno 17395 bound_to 11000

$$$$
