AV-unprocessed.smi:1006|AV-procd|sdf|4391|dock4
  -GOLD-   22720 2323D 1   1.00000     0.00000
 Structure written by MMmdl.
 45 47  0  0  0  0  0  0  0  0  1 V2000
  143.6260  146.7792  157.9479 C   0  0  0  0  0  0  0  0  0  0  0  0
  143.5570  145.9438  156.6869 C   0  0  0  0  0  0  0  0  0  0  0  0
  143.0305  146.4647  155.4856 C   0  0  0  0  0  0  0  0  0  0  0  0
  143.0218  145.5904  154.3783 C   0  0  0  0  0  0  0  0  0  0  0  0
  142.5234  146.0059  153.1462 N   0  0  0  0  0  0  0  0  0  0  0  0
  143.4910  144.3268  154.4641 N   0  0  0  0  0  0  0  0  0  0  0  0
  143.9660  143.9455  155.6523 C   0  0  0  0  0  0  0  0  0  0  0  0
  144.5710  142.2656  155.7286 S   0  0  0  0  0  0  0  0  0  0  0  0
  146.0595  142.3403  154.6851 C   0  0  0  0  0  0  0  0  0  0  0  0
  146.8360  141.0109  154.6549 C   0  0  1  0  0  0  0  0  0  0  0  0
  146.0051  139.9948  154.1313 O   0  0  0  0  0  0  0  0  0  0  0  0
  148.1145  141.0653  153.7937 C   0  0  0  0  0  0  0  0  0  0  0  0
  149.2813  140.5455  154.4844 N   0  0  0  0  0  0  0  0  0  0  0  0
  149.9483  139.4097  154.2048 C   0  0  0  0  0  0  0  0  0  0  0  0
  150.9908  139.1106  154.9747 N   0  0  0  0  0  0  0  0  0  0  0  0
  151.0011  140.1767  155.8578 C   0  0  0  0  0  0  0  0  0  0  0  0
  151.8598  140.4616  156.9421 C   0  0  0  0  0  0  0  0  0  0  0  0
  151.6776  141.6233  157.7258 C   0  0  0  0  0  0  0  0  0  0  0  0
  152.6234  141.8890  158.8837 C   0  0  0  0  0  0  0  0  0  0  0  0
  150.6221  142.5224  157.4287 C   0  0  0  0  0  0  0  0  0  0  0  0
  150.4029  143.7744  158.2592 C   0  0  0  0  0  0  0  0  0  0  0  0
  149.7580  142.2554  156.3466 C   0  0  0  0  0  0  0  0  0  0  0  0
  149.9479  141.0947  155.5754 C   0  0  0  0  0  0  0  0  0  0  0  0
  144.0278  144.6805  156.7672 N   0  0  0  0  0  0  0  0  0  0  0  0
  144.5399  147.3732  157.9560 H   0  0  0  0  0  0  0  0  0  0  0  0
  143.6182  146.1479  158.8373 H   0  0  0  0  0  0  0  0  0  0  0  0
  142.7746  147.4574  158.0077 H   0  0  0  0  0  0  0  0  0  0  0  0
  142.6561  147.4759  155.4196 H   0  0  0  0  0  0  0  0  0  0  0  0
  142.1567  146.9366  153.0096 H   0  0  0  0  0  0  0  0  0  0  0  0
  142.5125  145.3860  152.3492 H   0  0  0  0  0  0  0  0  0  0  0  0
  145.7750  142.6319  153.6733 H   0  0  0  0  0  0  0  0  0  0  0  0
  146.6952  143.1297  155.0854 H   0  0  0  0  0  0  0  0  0  0  0  0
  147.1048  140.7325  155.6746 H   0  0  0  0  0  0  0  0  0  0  0  0
  145.4177  140.3851  153.5019 H   0  0  0  0  0  0  0  0  0  0  0  0
  147.9761  140.4938  152.8749 H   0  0  0  0  0  0  0  0  0  0  0  0
  148.3250  142.0919  153.4911 H   0  0  0  0  0  0  0  0  0  0  0  0
  149.6482  138.7637  153.3926 H   0  0  0  0  0  0  0  0  0  0  0  0
  152.6618  139.7749  157.1698 H   0  0  0  0  0  0  0  0  0  0  0  0
  153.1131  142.8559  158.7643 H   0  0  0  0  0  0  0  0  0  0  0  0
  153.4012  141.1271  158.9458 H   0  0  0  0  0  0  0  0  0  0  0  0
  152.0785  141.8901  159.8279 H   0  0  0  0  0  0  0  0  0  0  0  0
  149.5111  144.3131  157.9379 H   0  0  0  0  0  0  0  0  0  0  0  0
  151.2552  144.4475  158.1648 H   0  0  0  0  0  0  0  0  0  0  0  0
  150.2766  143.5200  159.3117 H   0  0  0  0  0  0  0  0  0  0  0  0
  148.9484  142.9302  156.1112 H   0  0  0  0  0  0  0  0  0  0  0  0
  1  2  1  0  0  0  0
  1 25  1  0  0  0  0
  1 26  1  0  0  0  0
  1 27  1  0  0  0  0
  2 24  1  0  0  0  0
  2  3  2  0  0  0  0
  3  4  1  0  0  0  0
  3 28  1  0  0  0  0
  4  5  1  0  0  0  0
  4  6  2  0  0  0  0
  5 29  1  0  0  0  0
  5 30  1  0  0  0  0
  6  7  1  0  0  0  0
  7  8  1  0  0  0  0
  7 24  2  0  0  0  0
  8  9  1  0  0  0  0
  9 10  1  0  0  0  0
  9 31  1  0  0  0  0
  9 32  1  0  0  0  0
 10 11  1  0  0  0  0
 10 12  1  0  0  0  0
 10 33  1  0  0  0  0
 11 34  1  0  0  0  0
 12 13  1  0  0  0  0
 12 35  1  0  0  0  0
 12 36  1  0  0  0  0
 13 23  1  0  0  0  0
 13 14  1  0  0  0  0
 14 15  2  0  0  0  0
 14 37  1  0  0  0  0
 15 16  1  0  0  0  0
 16 23  2  0  0  0  0
 16 17  1  0  0  0  0
 17 18  2  0  0  0  0
 17 38  1  0  0  0  0
 18 19  1  0  0  0  0
 18 20  1  0  0  0  0
 19 39  1  0  0  0  0
 19 40  1  0  0  0  0
 19 41  1  0  0  0  0
 20 21  1  0  0  0  0
 20 22  2  0  0  0  0
 21 42  1  0  0  0  0
 21 43  1  0  0  0  0
 21 44  1  0  0  0  0
 22 23  1  0  0  0  0
 22 45  1  0  0  0  0
M  END
> <s_m_source_file>
AV-unprocessed.smi

> <i_m_source_file_index>
1006

> <i_lp_mmshare_version>
43012

> <i_f3d_flags>
0

> <s_epik_input>
W0NIM11jMVtjSF1jKFtOSDJdKW5jKG4xKVNbQ0gyXVtDQEhdKFtPSF0pW0NIMl1uKFtjSF1uMiljKGMyMylbY0hdYyhbQ0gzXSljKFtjSF0zKVtDSDNd

> <s_epik_cmdline>
J2VwaWtfcHl0aG9uJywgJy1waCcsICc3LjAnLCAnLXRuJywgJzgnLCAnLW1hJywgJzIwMCcsICctbWV0YWxfYmluZGluZycsICctaW1hZScsICc8aW5maWxlLm1hZT4nLCAnLW9tYWUnLCAnPG91dGZpbGUubWFlPic=

> <r_lp_tautomer_probability>
1

> <r_epik_Ionization_Penalty>
0.490208

> <r_epik_Ionization_Penalty_Charging>
0

> <r_epik_Ionization_Penalty_Neutral>
0.490208

> <r_epik_State_Penalty>
0.473203

> <r_epik_Charging_Adjusted_Penalty>
0.473203

> <i_epik_Tot_Q>
0

> <i_epik_Tot_abs_Q>
0

> <r_epik_Metal_State_Penalty>
0.354099

> <b_epik_Metal_Only>
0

> <s_lp_Force_Field>
OPLS_2005

> <r_lp_Energy>
2.6746

> <b_lp_Chiralities_Consistent>
1

> <s_lp_Variant>
AV-unprocessed.smi:1006-2

> <Gold.Version>
5.8.1

> <Gold.Id.Protein>
6NUR|6NUR_protein|mol2

> <Gold.PLP.Fitness>
45.9526

> <Gold.PLP.PLP>
-41.5060

> <Gold.PLP.part.hbond>
-2.0000

> <Gold.PLP.part.metal>
0.0000

> <Gold.PLP.part.buried>
-4.7274

> <Gold.PLP.part.nonpolar>
-36.3077

> <Gold.PLP.part.repulsive>
0.4604

> <Gold.PLP.ligand.clash>
0.0000

> <Gold.PLP.ligand.torsion>
0.8350

> <Gold.PLP.Chemscore.Hbond>
0.7360

> <Gold.PLP.Chemscore.CHOScore>
1.2878

> <Gold.PLP.Chemscore.Metal>
0.0000

> <Gold.Chemscore.Hbonds>
donor molecule, donor type, donor heavy atom, donor atom, acceptor molecule, acceptor atom, score
      L1  H    11    34       P1 10175  1.00
      L1  C    14    37       P1  7957  0.58

> <Gold.PLP.Chemscore.Internal.Correction>
0.0453

> <Gold.Rescore>
     Score         DG    S(hbond)    S(metal)    S(lipo)     H(rot)  DE(clash)    DE(int)     intcor
     10.50     -11.42       0.85        0.00      88.08       2.82       0.13       0.79       ----

> <Gold.Chemscore.Fitness>
10.4982

> <Gold.Chemscore.DG>
-11.4171

> <Gold.Chemscore.ZeroCoef>
-5.4800

> <Gold.Chemscore.Hbond>
0.8541

> <Gold.Chemscore.Metal>
0.0000

> <Gold.Chemscore.Lipo>
88.0838

> <Gold.Chemscore.Internal_Hbond>
0.0000

> <Gold.Chemscore.DEClash>
0.1328

> <Gold.Chemscore.DEInternal>
0.7860

> <Gold.Chemscore.Rot>
2.8209

> <Gold.Chemscore.Internal.Correction>
   9.000000E+99

> <Gold.Chemscore.Hbonds>
donor molecule, donor type, donor heavy atom, donor atom, acceptor molecule, acceptor atom, score
      L1  H    11    34       P1 10175  0.91

> <Gold.Chemscore.Hbond.Weighted>
-2.8528

> <Gold.Chemscore.Metal.Weighted>
-0.0000

> <Gold.Chemscore.Lipo.Weighted>
-10.3058

> <Gold.Chemscore.Internal_Hbond.Weighted>
0.0000

> <Gold.Chemscore.DEClash.Weighted>
0.1328

> <Gold.Chemscore.DEInternal.Weighted>
0.7860

> <Gold.Chemscore.Rot.Weighted>
7.2215

> <Gold.Chemscore.Internal.Correction.Weighted>
   9.000000E+99

> <Gold.Protein.RotatedTorsions>
[ 6907 6896 6895 6894 ] final  110.45 input  -60.11 | X-H torsion
[ 7974 7965 7964 7962 ] final  -94.06 input  175.53 | X-H torsion
[ 8008 7997 7996 7995 ] final   87.83 input   59.86 | X-H torsion
[ 10167 10162 10161 10158 ] final   60.61 input  -65.29 | X-H torsion
[ 10718 10713 10712 10709 ] final  -95.19 input   66.30 | X-H torsion
[ 10763 10752 10751 10750 ] final   73.55 input  -60.55 | X-H torsion
[ 11005 11000 10999 10996 ] final  105.47 input  -57.11 | X-H torsion

> <Gold.Protein.ActiveResidues>
 VAL166  LYS551  ARG553  GLY616  TRP617  ASP618  TYR619  PRO620  LYS621  CYS622 
 ASP623  PHE694  ASN695  SER759  ASP760  ASP761  ALA762  ILE779  LEU786  VAL792 
 PHE793  MET794  SER795  GLU796  ALA797  LYS798  CYS799  TRP800  GLU811  SER814 

> <Gold.Protein.RotatedAtoms>
  152.5019  133.8798  159.7340 H   0  0  0  0  0  0  0  0  0  0  0  0  # atno 6907 bound_to 6896
  150.9263  133.6811  159.2827 H   0  0  0  0  0  0  0  0  0  0  0  0  # atno 6908 bound_to 6896
  151.4170  135.0997  159.9655 H   0  0  0  0  0  0  0  0  0  0  0  0  # atno 6909 bound_to 6896
  145.3783  140.9514  143.2408 H   0  0  0  0  0  0  0  0  0  0  0  0  # atno 7974 bound_to 7965
  155.9802  140.3378  155.6656 H   0  0  0  0  0  0  0  0  0  0  0  0  # atno 8008 bound_to 7997
  155.6558  140.0710  157.2589 H   0  0  0  0  0  0  0  0  0  0  0  0  # atno 8009 bound_to 7997
  154.4190  140.1717  156.1711 H   0  0  0  0  0  0  0  0  0  0  0  0  # atno 8010 bound_to 7997
  140.1638  144.4344  150.6696 H   0  0  0  0  0  0  0  0  0  0  0  0  # atno 10167 bound_to 10162
  156.0039  130.5099  150.6040 H   0  0  0  0  0  0  0  0  0  0  0  0  # atno 10718 bound_to 10713
  153.0529  135.5058  154.7910 H   0  0  0  0  0  0  0  0  0  0  0  0  # atno 10763 bound_to 10752
  154.6759  135.2960  154.9682 H   0  0  0  0  0  0  0  0  0  0  0  0  # atno 10764 bound_to 10752
  154.0484  135.6707  153.4850 H   0  0  0  0  0  0  0  0  0  0  0  0  # atno 10765 bound_to 10752
  139.8802  134.9337  156.5519 H   0  0  0  0  0  0  0  0  0  0  0  0  # atno 11005 bound_to 11000
  144.8526  139.5298  143.6849 LP  0  0  0  0  0  0  0  0  0  0  0  0  # atno 17320 bound_to 7965
  146.2854  139.6989  142.9199 LP  0  0  0  0  0  0  0  0  0  0  0  0  # atno 17321 bound_to 7965
  140.6626  143.2257  151.5819 LP  0  0  0  0  0  0  0  0  0  0  0  0  # atno 17342 bound_to 10162
  139.5369  144.2756  152.1270 LP  0  0  0  0  0  0  0  0  0  0  0  0  # atno 17343 bound_to 10162
  157.3884  131.0792  151.1415 LP  0  0  0  0  0  0  0  0  0  0  0  0  # atno 17370 bound_to 10713
  157.2115  130.6440  149.5776 LP  0  0  0  0  0  0  0  0  0  0  0  0  # atno 17371 bound_to 10713
  140.8233  133.8336  155.8916 LP  0  0  0  0  0  0  0  0  0  0  0  0  # atno 17394 bound_to 11000
  140.9397  134.1916  157.4806 LP  0  0  0  0  0  0  0  0  0  0  0  0  # atno 17395 bound_to 11000

$$$$
