AV-unprocessed.smi:2801|AV-procd|sdf|10797|dock2
  -GOLD-   2272015233D 1   1.00000     0.00000
 Structure written by MMmdl.
 32 32  0  0  0  0  0  0  0  0  3 V2000
  153.7932  141.7210  160.3490 C   0  0  0  0  0  0  0  0  0  0  0  0
  152.5822  142.6217  160.6010 C   0  0  0  0  0  0  0  0  0  0  0  0
  151.5359  142.2298  159.7207 O   0  0  0  0  0  0  0  0  0  0  0  0
  151.6981  142.6279  158.3611 C   0  0  2  0  0  0  0  0  0  0  0  0
  151.4085  144.1382  158.2730 C   0  0  0  0  0  0  0  0  0  0  0  0
  150.3513  144.6008  159.2833 C   0  0  0  0  0  0  0  0  0  0  0  0
  150.7454  141.8259  157.4594 C   0  0  0  0  0  0  0  0  0  0  0  0
  149.5297  141.9138  157.6306 O   0  0  0  0  0  0  0  0  0  0  0  0
  151.3388  141.0412  156.5414 N   0  0  0  0  0  0  0  0  0  0  0  0
  150.7577  140.1791  155.5686 C   0  0  0  0  0  0  0  0  0  0  0  0
  149.4509  140.3520  155.0437 C   0  0  0  0  0  0  0  0  0  0  0  0
  148.9699  139.4537  154.0700 C   0  0  0  0  0  0  0  0  0  0  0  0
  149.7537  138.4442  153.6369 N   0  3  0  0  0  0  0  0  0  0  0  0
  151.0067  138.2461  154.0957 C   0  0  0  0  0  0  0  0  0  0  0  0
  151.5447  139.1095  155.0715 C   0  0  0  0  0  0  0  0  0  0  0  0
  152.8182  138.8935  155.5192 O   0  5  0  0  0  0  0  0  0  0  0  0
  154.6209  141.9875  161.0062 H   0  0  0  0  0  0  0  0  0  0  0  0
  154.1401  141.8121  159.3194 H   0  0  0  0  0  0  0  0  0  0  0  0
  153.5461  140.6743  160.5285 H   0  0  0  0  0  0  0  0  0  0  0  0
  152.2570  142.5224  161.6376 H   0  0  0  0  0  0  0  0  0  0  0  0
  152.8636  143.6631  160.4414 H   0  0  0  0  0  0  0  0  0  0  0  0
  152.7303  142.4535  158.0494 H   0  0  0  0  0  0  0  0  0  0  0  0
  152.3267  144.7001  158.4506 H   0  0  0  0  0  0  0  0  0  0  0  0
  151.0805  144.3980  157.2654 H   0  0  0  0  0  0  0  0  0  0  0  0
  150.1827  145.6748  159.2041 H   0  0  0  0  0  0  0  0  0  0  0  0
  150.6645  144.3881  160.3058 H   0  0  0  0  0  0  0  0  0  0  0  0
  149.3970  144.1016  159.1139 H   0  0  0  0  0  0  0  0  0  0  0  0
  152.3482  141.0133  156.5743 H   0  0  0  0  0  0  0  0  0  0  0  0
  148.8094  141.1606  155.3554 H   0  0  0  0  0  0  0  0  0  0  0  0
  147.9890  139.5169  153.6228 H   0  0  0  0  0  0  0  0  0  0  0  0
  151.5398  137.4087  153.6693 H   0  0  0  0  0  0  0  0  0  0  0  0
  149.3865  137.8070  152.9303 H   0  0  0  0  0  0  0  0  0  0  0  0
  1  2  1  0  0  0  0
  1 17  1  0  0  0  0
  1 18  1  0  0  0  0
  1 19  1  0  0  0  0
  2  3  1  0  0  0  0
  2 20  1  0  0  0  0
  2 21  1  0  0  0  0
  3  4  1  0  0  0  0
  4  5  1  0  0  0  0
  4  7  1  0  0  0  0
  4 22  1  0  0  0  0
  5  6  1  0  0  0  0
  5 23  1  0  0  0  0
  5 24  1  0  0  0  0
  6 25  1  0  0  0  0
  6 26  1  0  0  0  0
  6 27  1  0  0  0  0
  7  8  2  0  0  0  0
  7  9  1  0  0  0  0
  9 28  1  0  0  0  0
  9 10  1  0  0  0  0
 10 11  2  0  0  0  0
 10 15  1  0  0  0  0
 11 12  1  0  0  0  0
 11 29  1  0  0  0  0
 12 13  2  0  0  0  0
 12 30  1  0  0  0  0
 13 14  1  0  0  0  0
 13 32  1  0  0  0  0
 14 15  2  0  0  0  0
 14 31  1  0  0  0  0
 15 16  1  0  0  0  0
M  CHG  1  13   1
M  CHG  1  16  -1
M  END
> <s_m_source_file>
AV-unprocessed.smi

> <i_m_source_file_index>
2801

> <i_lp_mmshare_version>
43012

> <i_f3d_flags>
0

> <s_epik_input>
W0NIM11bQ0gyXU9bQ0BIXShbQ0gyXVtDSDNdKUMoPU8pW05IXWMxW2NIXVtjSF1uW2NIXWMxW09IXQ==

> <s_epik_cmdline>
J2VwaWtfcHl0aG9uJywgJy1waCcsICc3LjAnLCAnLXRuJywgJzgnLCAnLW1hJywgJzIwMCcsICctbWV0YWxfYmluZGluZycsICctaW1hZScsICc8aW5maWxlLm1hZT4nLCAnLW9tYWUnLCAnPG91dGZpbGUubWFlPic=

> <r_lp_tautomer_probability>
0.56342

> <r_epik_Ionization_Penalty>
0.0170685

> <r_epik_Ionization_Penalty_Charging>
0.0170685

> <r_epik_Ionization_Penalty_Neutral>
1.5328e-09

> <r_epik_State_Penalty>
0.331557

> <r_epik_Charging_Adjusted_Penalty>
0.348625

> <i_epik_Tot_Q>
0

> <i_epik_Tot_abs_Q>
2

> <r_epik_Metal_State_Penalty>
0.590147

> <b_epik_Metal_Only>
0

> <s_lp_Force_Field>
OPLS_2005

> <r_lp_Energy>
9.87866

> <b_lp_Chiralities_Consistent>
1

> <s_lp_Variant>
AV-unprocessed.smi:2801-1

> <Gold.Version>
5.8.1

> <Gold.Id.Protein>
6NUR|6NUR_protein|mol2

> <Gold.PLP.Fitness>
46.8222

> <Gold.PLP.PLP>
-36.0279

> <Gold.PLP.part.hbond>
-3.2987

> <Gold.PLP.part.metal>
0.0000

> <Gold.PLP.part.buried>
-3.9531

> <Gold.PLP.part.nonpolar>
-29.1703

> <Gold.PLP.part.repulsive>
0.3135

> <Gold.PLP.ligand.clash>
0.0000

> <Gold.PLP.ligand.torsion>
0.6413

> <Gold.PLP.Chemscore.Hbond>
4.0000

> <Gold.PLP.Chemscore.CHOScore>
0.0000

> <Gold.PLP.Chemscore.Metal>
0.0000

> <Gold.Chemscore.Hbonds>
donor molecule, donor type, donor heavy atom, donor atom, acceptor molecule, acceptor atom, score
      L1  H    13    32       P1  7948  2.00
      P1  H  7997  8008       L1    16  1.72

> <Gold.PLP.Chemscore.Internal.Correction>
0.0770

> <Gold.Rescore>
     Score         DG    S(hbond)    S(metal)    S(lipo)     H(rot)  DE(clash)    DE(int)     intcor
     16.59     -18.07       1.94        0.00      87.13       1.59       0.02       1.46       ----

> <Gold.Chemscore.Fitness>
16.5885

> <Gold.Chemscore.DG>
-18.0707

> <Gold.Chemscore.ZeroCoef>
-5.4800

> <Gold.Chemscore.Hbond>
1.9386

> <Gold.Chemscore.Metal>
0.0000

> <Gold.Chemscore.Lipo>
87.1333

> <Gold.Chemscore.Internal_Hbond>
0.0000

> <Gold.Chemscore.DEClash>
0.0209

> <Gold.Chemscore.DEInternal>
1.4614

> <Gold.Chemscore.Rot>
1.5933

> <Gold.Chemscore.Internal.Correction>
   9.000000E+99

> <Gold.Chemscore.Hbonds>
donor molecule, donor type, donor heavy atom, donor atom, acceptor molecule, acceptor atom, score
      L1  H    13    32       P1  7948  0.92
      P1  H  7997  8008       L1    16  0.84

> <Gold.Chemscore.Hbond.Weighted>
-6.4750

> <Gold.Chemscore.Metal.Weighted>
-0.0000

> <Gold.Chemscore.Lipo.Weighted>
-10.1946

> <Gold.Chemscore.Internal_Hbond.Weighted>
0.0000

> <Gold.Chemscore.DEClash.Weighted>
0.0209

> <Gold.Chemscore.DEInternal.Weighted>
1.4614

> <Gold.Chemscore.Rot.Weighted>
4.0789

> <Gold.Chemscore.Internal.Correction.Weighted>
   9.000000E+99

> <Gold.Protein.RotatedTorsions>
[ 6907 6896 6895 6894 ] final  -49.20 input  -60.11 | X-H torsion
[ 7974 7965 7964 7962 ] final  -70.61 input  175.53 | X-H torsion
[ 8008 7997 7996 7995 ] final  -25.67 input   59.86 | X-H torsion
[ 10167 10162 10161 10158 ] final    1.20 input  -65.29 | X-H torsion
[ 10718 10713 10712 10709 ] final -128.03 input   66.30 | X-H torsion
[ 10763 10752 10751 10750 ] final -128.21 input  -60.55 | X-H torsion
[ 11005 11000 10999 10996 ] final   57.51 input  -57.11 | X-H torsion

> <Gold.Protein.ActiveResidues>
 VAL166  LYS551  ARG553  GLY616  TRP617  ASP618  TYR619  PRO620  LYS621  CYS622 
 ASP623  PHE694  ASN695  SER759  ASP760  ASP761  ALA762  ILE779  LEU786  VAL792 
 PHE793  MET794  SER795  GLU796  ALA797  LYS798  CYS799  TRP800  GLU811  SER814 

> <Gold.Protein.RotatedAtoms>
  150.8829  134.8223  159.7237 H   0  0  0  0  0  0  0  0  0  0  0  0  # atno 6907 bound_to 6896
  152.4789  134.4768  159.9663 H   0  0  0  0  0  0  0  0  0  0  0  0  # atno 6908 bound_to 6896
  151.4840  133.3501  159.2878 H   0  0  0  0  0  0  0  0  0  0  0  0  # atno 6909 bound_to 6896
  145.6887  140.9161  143.0793 H   0  0  0  0  0  0  0  0  0  0  0  0  # atno 7974 bound_to 7965
  154.4464  140.1920  156.0655 H   0  0  0  0  0  0  0  0  0  0  0  0  # atno 8008 bound_to 7997
  156.0551  140.3304  155.7368 H   0  0  0  0  0  0  0  0  0  0  0  0  # atno 8009 bound_to 7997
  155.5498  140.0594  157.2843 H   0  0  0  0  0  0  0  0  0  0  0  0  # atno 8010 bound_to 7997
  140.6694  143.7091  150.7891 H   0  0  0  0  0  0  0  0  0  0  0  0  # atno 10167 bound_to 10162
  156.1912  130.6796  151.0427 H   0  0  0  0  0  0  0  0  0  0  0  0  # atno 10718 bound_to 10713
  154.8755  135.3936  154.3719 H   0  0  0  0  0  0  0  0  0  0  0  0  # atno 10763 bound_to 10752
  153.4477  135.7028  153.6133 H   0  0  0  0  0  0  0  0  0  0  0  0  # atno 10764 bound_to 10752
  153.4687  135.3795  155.2347 H   0  0  0  0  0  0  0  0  0  0  0  0  # atno 10765 bound_to 10752
  140.0447  134.5823  155.9337 H   0  0  0  0  0  0  0  0  0  0  0  0  # atno 11005 bound_to 11000
  144.7003  139.8793  143.7446 LP  0  0  0  0  0  0  0  0  0  0  0  0  # atno 17320 bound_to 7965
  146.0900  139.3890  143.0411 LP  0  0  0  0  0  0  0  0  0  0  0  0  # atno 17321 bound_to 7965
  140.0774  143.5002  152.2548 LP  0  0  0  0  0  0  0  0  0  0  0  0  # atno 17342 bound_to 10162
  139.5955  144.7565  151.3296 LP  0  0  0  0  0  0  0  0  0  0  0  0  # atno 17343 bound_to 10162
  157.6930  131.0803  150.7051 LP  0  0  0  0  0  0  0  0  0  0  0  0  # atno 17370 bound_to 10713
  156.7108  130.4651  149.5548 LP  0  0  0  0  0  0  0  0  0  0  0  0  # atno 17371 bound_to 10713
  141.1901  133.6567  156.5396 LP  0  0  0  0  0  0  0  0  0  0  0  0  # atno 17394 bound_to 11000
  140.4013  134.7354  157.4781 LP  0  0  0  0  0  0  0  0  0  0  0  0  # atno 17395 bound_to 11000

$$$$
