AV-unprocessed.smi:1462|AV-procd|sdf|5933|dock2
  -GOLD-   22720 6 13D 1   1.00000     0.00000
 Structure written by MMmdl.
 41 42  0  0  0  0  0  0  0  0  1 V2000
  146.4110  138.8782  150.9753 C   0  0  0  0  0  0  0  0  0  0  0  0
  146.7119  138.4541  152.3341 N   0  0  0  0  0  0  0  0  0  0  0  0
  145.6654  137.7151  153.0235 C   0  0  0  0  0  0  0  0  0  0  0  0
  147.2614  139.4765  153.1188 C   0  0  0  0  0  0  0  0  0  0  0  0
  146.8663  140.8233  152.9526 C   0  0  0  0  0  0  0  0  0  0  0  0
  147.4506  141.8077  153.7721 C   0  0  0  0  0  0  0  0  0  0  0  0
  148.4066  141.4137  154.7383 C   0  0  0  0  0  0  0  0  0  0  0  0
  149.0804  142.3111  155.6097 N   0  0  0  0  0  0  0  0  0  0  0  0
  150.1321  142.0687  156.4106 C   0  0  0  0  0  0  0  0  0  0  0  0
  150.7248  140.9935  156.4987 O   0  0  0  0  0  0  0  0  0  0  0  0
  150.4757  143.1674  157.0981 N   0  0  0  0  0  0  0  0  0  0  0  0
  151.5814  143.2741  158.0467 C   0  0  0  0  0  0  0  0  0  0  0  0
  151.6569  141.9963  158.9038 C   0  0  0  0  0  0  0  0  0  0  0  0
  152.7555  142.1012  159.9740 C   0  0  0  0  0  0  0  0  0  0  0  0
  152.5596  143.3451  160.8549 C   0  0  0  0  0  0  0  0  0  0  0  0
  152.4900  144.6225  160.0029 C   0  0  0  0  0  0  0  0  0  0  0  0
  151.3916  144.5208  158.9320 C   0  0  0  0  0  0  0  0  0  0  0  0
  148.7401  140.0453  154.8111 C   0  0  0  0  0  0  0  0  0  0  0  0
  148.1832  139.0963  154.0295 N   0  0  0  0  0  0  0  0  0  0  0  0
  147.2512  139.4234  150.5434 H   0  0  0  0  0  0  0  0  0  0  0  0
  145.5314  139.5223  150.9516 H   0  0  0  0  0  0  0  0  0  0  0  0
  146.2145  138.0101  150.3456 H   0  0  0  0  0  0  0  0  0  0  0  0
  145.9938  137.4150  154.0194 H   0  0  0  0  0  0  0  0  0  0  0  0
  145.4129  136.8123  152.4667 H   0  0  0  0  0  0  0  0  0  0  0  0
  144.7618  138.3174  153.1247 H   0  0  0  0  0  0  0  0  0  0  0  0
  146.1326  141.1015  152.2102 H   0  0  0  0  0  0  0  0  0  0  0  0
  147.1650  142.8387  153.6331 H   0  0  0  0  0  0  0  0  0  0  0  0
  148.7559  143.2665  155.5805 H   0  0  0  0  0  0  0  0  0  0  0  0
  149.9291  144.0032  156.9508 H   0  0  0  0  0  0  0  0  0  0  0  0
  152.5288  143.3772  157.5146 H   0  0  0  0  0  0  0  0  0  0  0  0
  150.6965  141.8189  159.3901 H   0  0  0  0  0  0  0  0  0  0  0  0
  151.8461  141.1307  158.2676 H   0  0  0  0  0  0  0  0  0  0  0  0
  152.7580  141.2037  160.5932 H   0  0  0  0  0  0  0  0  0  0  0  0
  153.7326  142.1460  159.4911 H   0  0  0  0  0  0  0  0  0  0  0  0
  151.6417  143.2416  161.4351 H   0  0  0  0  0  0  0  0  0  0  0  0
  153.3740  143.4227  161.5758 H   0  0  0  0  0  0  0  0  0  0  0  0
  152.3070  145.4864  160.6423 H   0  0  0  0  0  0  0  0  0  0  0  0
  153.4538  144.7930  159.5215 H   0  0  0  0  0  0  0  0  0  0  0  0
  151.3955  145.4207  158.3158 H   0  0  0  0  0  0  0  0  0  0  0  0
  150.4161  144.4841  159.4193 H   0  0  0  0  0  0  0  0  0  0  0  0
  149.4740  139.6976  155.5236 H   0  0  0  0  0  0  0  0  0  0  0  0
  1  2  1  0  0  0  0
  1 20  1  0  0  0  0
  1 21  1  0  0  0  0
  1 22  1  0  0  0  0
  2  3  1  0  0  0  0
  2  4  1  0  0  0  0
  3 23  1  0  0  0  0
  3 24  1  0  0  0  0
  3 25  1  0  0  0  0
  4 19  1  0  0  0  0
  4  5  2  0  0  0  0
  5  6  1  0  0  0  0
  5 26  1  0  0  0  0
  6  7  2  0  0  0  0
  6 27  1  0  0  0  0
  7  8  1  0  0  0  0
  7 18  1  0  0  0  0
  8  9  1  0  0  0  0
  8 28  1  0  0  0  0
  9 10  2  0  0  0  0
  9 11  1  0  0  0  0
 11 12  1  0  0  0  0
 11 29  1  0  0  0  0
 12 17  1  0  0  0  0
 12 13  1  0  0  0  0
 12 30  1  0  0  0  0
 13 14  1  0  0  0  0
 13 31  1  0  0  0  0
 13 32  1  0  0  0  0
 14 15  1  0  0  0  0
 14 33  1  0  0  0  0
 14 34  1  0  0  0  0
 15 16  1  0  0  0  0
 15 35  1  0  0  0  0
 15 36  1  0  0  0  0
 16 17  1  0  0  0  0
 16 37  1  0  0  0  0
 16 38  1  0  0  0  0
 17 39  1  0  0  0  0
 17 40  1  0  0  0  0
 18 19  2  0  0  0  0
 18 41  1  0  0  0  0
M  END
> <s_m_source_file>
AV-unprocessed.smi

> <i_m_source_file_index>
1462

> <i_lp_mmshare_version>
43012

> <i_f3d_flags>
0

> <s_epik_input>
W0NIM11OKFtDSDNdKWMxW2NIXVtjSF1jKFtjSF1uMSlbTkhdQyg9TylbTkhdW0NIXTJbQ0gyXVtDSDJdW0NIMl1bQ0gyXVtDSDJdMg==

> <s_epik_cmdline>
J2VwaWtfcHl0aG9uJywgJy1waCcsICc3LjAnLCAnLXRuJywgJzgnLCAnLW1hJywgJzIwMCcsICctbWV0YWxfYmluZGluZycsICctaW1hZScsICc8aW5maWxlLm1hZT4nLCAnLW9tYWUnLCAnPG91dGZpbGUubWFlPic=

> <r_lp_tautomer_probability>
1

> <r_epik_Ionization_Penalty>
0.630533

> <r_epik_Ionization_Penalty_Charging>
0

> <r_epik_Ionization_Penalty_Neutral>
0.630533

> <r_epik_State_Penalty>
0.646182

> <r_epik_Charging_Adjusted_Penalty>
0.646182

> <i_epik_Tot_Q>
0

> <i_epik_Tot_abs_Q>
0

> <r_epik_Metal_State_Penalty>
0.308859

> <b_epik_Metal_Only>
0

> <s_lp_Force_Field>
OPLS_2005

> <r_lp_Energy>
16.9169

> <b_lp_Chiralities_Consistent>
1

> <s_lp_Variant>
AV-unprocessed.smi:1462-2

> <Gold.Version>
5.8.1

> <Gold.Id.Protein>
6NUR|6NUR_protein|mol2

> <Gold.PLP.Fitness>
41.3847

> <Gold.PLP.PLP>
-37.5061

> <Gold.PLP.part.hbond>
-1.8936

> <Gold.PLP.part.metal>
0.0000

> <Gold.PLP.part.buried>
-0.7887

> <Gold.PLP.part.nonpolar>
-35.2106

> <Gold.PLP.part.repulsive>
1.2751

> <Gold.PLP.ligand.clash>
0.0000

> <Gold.PLP.ligand.torsion>
0.9119

> <Gold.PLP.Chemscore.Hbond>
1.8320

> <Gold.PLP.Chemscore.CHOScore>
0.0000

> <Gold.PLP.Chemscore.Metal>
0.0000

> <Gold.Chemscore.Hbonds>
donor molecule, donor type, donor heavy atom, donor atom, acceptor molecule, acceptor atom, score
      L1  H     8    28       P1  8028  0.81
      L1  H    11    29       P1  8028  0.78

> <Gold.PLP.Chemscore.Internal.Correction>
0.2063

> <Gold.Rescore>
     Score         DG    S(hbond)    S(metal)    S(lipo)     H(rot)  DE(clash)    DE(int)     intcor
     16.40     -21.31       1.71        0.00     112.29       1.18       1.46       3.45       ----

> <Gold.Chemscore.Fitness>
16.3963

> <Gold.Chemscore.DG>
-21.3062

> <Gold.Chemscore.ZeroCoef>
-5.4800

> <Gold.Chemscore.Hbond>
1.7123

> <Gold.Chemscore.Metal>
0.0000

> <Gold.Chemscore.Lipo>
112.2921

> <Gold.Chemscore.Internal_Hbond>
0.0000

> <Gold.Chemscore.DEClash>
1.4566

> <Gold.Chemscore.DEInternal>
3.4533

> <Gold.Chemscore.Rot>
1.1840

> <Gold.Chemscore.Internal.Correction>
   9.000000E+99

> <Gold.Chemscore.Hbonds>
donor molecule, donor type, donor heavy atom, donor atom, acceptor molecule, acceptor atom, score
      L1  H     8    28       P1  8028  0.78
      L1  H    11    29       P1  8028  0.74

> <Gold.Chemscore.Hbond.Weighted>
-5.7192

> <Gold.Chemscore.Metal.Weighted>
-0.0000

> <Gold.Chemscore.Lipo.Weighted>
-13.1382

> <Gold.Chemscore.Internal_Hbond.Weighted>
0.0000

> <Gold.Chemscore.DEClash.Weighted>
1.4566

> <Gold.Chemscore.DEInternal.Weighted>
3.4533

> <Gold.Chemscore.Rot.Weighted>
3.0311

> <Gold.Chemscore.Internal.Correction.Weighted>
   9.000000E+99

> <Gold.Protein.RotatedTorsions>
[ 6907 6896 6895 6894 ] final  166.23 input  -60.11 | X-H torsion
[ 7974 7965 7964 7962 ] final  152.05 input  175.53 | X-H torsion
[ 8008 7997 7996 7995 ] final  122.92 input   59.86 | X-H torsion
[ 10167 10162 10161 10158 ] final   79.79 input  -65.29 | X-H torsion
[ 10718 10713 10712 10709 ] final  -36.33 input   66.30 | X-H torsion
[ 10763 10752 10751 10750 ] final  149.59 input  -60.55 | X-H torsion
[ 11005 11000 10999 10996 ] final   23.79 input  -57.11 | X-H torsion

> <Gold.Protein.ActiveResidues>
 VAL166  LYS551  ARG553  GLY616  TRP617  ASP618  TYR619  PRO620  LYS621  CYS622 
 ASP623  PHE694  ASN695  SER759  ASP760  ASP761  ALA762  ILE779  LEU786  VAL792 
 PHE793  MET794  SER795  GLU796  ALA797  LYS798  CYS799  TRP800  GLU811  SER814 

> <Gold.Protein.RotatedAtoms>
  151.8822  133.3497  159.3769 H   0  0  0  0  0  0  0  0  0  0  0  0  # atno 6907 bound_to 6896
  150.7124  134.5007  159.5569 H   0  0  0  0  0  0  0  0  0  0  0  0  # atno 6908 bound_to 6896
  152.2561  134.8083  160.0489 H   0  0  0  0  0  0  0  0  0  0  0  0  # atno 6909 bound_to 6896
  144.8249  139.6618  143.6084 H   0  0  0  0  0  0  0  0  0  0  0  0  # atno 7974 bound_to 7965
  156.2746  140.2775  156.1544 H   0  0  0  0  0  0  0  0  0  0  0  0  # atno 8008 bound_to 7997
  155.0819  140.0388  157.2659 H   0  0  0  0  0  0  0  0  0  0  0  0  # atno 8009 bound_to 7997
  154.6957  140.2638  155.6774 H   0  0  0  0  0  0  0  0  0  0  0  0  # atno 8010 bound_to 7997
  139.9566  144.5990  150.8111 H   0  0  0  0  0  0  0  0  0  0  0  0  # atno 10167 bound_to 10162
  156.3281  130.4275  149.7898 H   0  0  0  0  0  0  0  0  0  0  0  0  # atno 10718 bound_to 10713
  154.0736  135.2865  155.3303 H   0  0  0  0  0  0  0  0  0  0  0  0  # atno 10763 bound_to 10752
  154.6730  135.5292  153.8166 H   0  0  0  0  0  0  0  0  0  0  0  0  # atno 10764 bound_to 10752
  153.0475  135.6562  154.0916 H   0  0  0  0  0  0  0  0  0  0  0  0  # atno 10765 bound_to 10752
  140.3658  134.2076  155.7669 H   0  0  0  0  0  0  0  0  0  0  0  0  # atno 11005 bound_to 11000
  146.2555  139.6292  142.9398 LP  0  0  0  0  0  0  0  0  0  0  0  0  # atno 17320 bound_to 7965
  145.5022  141.0437  143.2534 LP  0  0  0  0  0  0  0  0  0  0  0  0  # atno 17321 bound_to 7965
  140.7566  143.3070  151.2938 LP  0  0  0  0  0  0  0  0  0  0  0  0  # atno 17342 bound_to 10162
  139.6587  144.0229  152.2677 LP  0  0  0  0  0  0  0  0  0  0  0  0  # atno 17343 bound_to 10162
  156.5181  130.8202  151.3193 LP  0  0  0  0  0  0  0  0  0  0  0  0  # atno 17370 bound_to 10713
  157.7425  130.9892  150.2522 LP  0  0  0  0  0  0  0  0  0  0  0  0  # atno 17371 bound_to 10713
  141.1970  133.8069  157.0647 LP  0  0  0  0  0  0  0  0  0  0  0  0  # atno 17394 bound_to 11000
  140.0590  134.9765  157.1272 LP  0  0  0  0  0  0  0  0  0  0  0  0  # atno 17395 bound_to 11000

$$$$
