AV-unprocessed.smi:283|AV-procd|sdf|2133|dock1
  -GOLD-   2262021453D 1   1.00000     0.00000
 Structure written by MMmdl.
 48 51  0  0  0  0  0  0  0  0  1 V2000
  151.2941  142.1643  157.2118 C   0  0  0  0  0  0  0  0  0  0  0  0
  152.2083  141.8277  158.3975 C   0  0  2  0  0  0  0  0  0  0  0  0
  151.9221  140.4768  158.8780 N   0  0  0  0  0  0  0  0  0  0  0  0
  151.8098  139.4397  158.0178 C   0  0  0  0  0  0  0  0  0  0  0  0
  152.3474  139.4975  156.7715 N   0  0  0  0  0  0  0  0  0  0  0  0
  152.2177  138.4597  155.9401 C   0  0  0  0  0  0  0  0  0  0  0  0
  151.5993  137.2964  156.1500 N   0  0  0  0  0  0  0  0  0  0  0  0
  151.0527  137.2328  157.3986 C   0  0  0  0  0  0  0  0  0  0  0  0
  151.1163  138.2573  158.3842 C   0  0  0  0  0  0  0  0  0  0  0  0
  150.4554  137.8473  159.5344 N   0  0  0  0  0  0  0  0  0  0  0  0
  150.0257  136.6498  159.2405 C   0  0  0  0  0  0  0  0  0  0  0  0
  150.3368  136.2018  157.9758 N   0  0  0  0  0  0  0  0  0  0  0  0
  149.9634  134.8888  157.3648 C   0  0  2  0  0  0  0  0  0  0  0  0
  150.4050  133.8641  158.2027 O   0  0  0  0  0  0  0  0  0  0  0  0
  150.9576  132.8314  157.4028 C   0  0  2  0  0  0  0  0  0  0  0  0
  151.7811  131.8058  158.2107 C   0  0  0  0  0  0  0  0  0  0  0  0
  153.1590  132.1079  158.2762 O   0  0  0  0  0  0  0  0  0  0  0  0
  151.5725  133.5327  156.1818 C   0  0  2  0  0  0  0  0  0  0  0  0
  152.8889  133.9968  156.4054 O   0  0  0  0  0  0  0  0  0  0  0  0
  150.6347  134.7209  155.9846 C   0  0  1  0  0  0  0  0  0  0  0  0
  149.6777  134.4125  154.9903 O   0  0  0  0  0  0  0  0  0  0  0  0
  152.1136  142.9144  159.4712 C   0  0  0  0  0  0  0  0  0  0  0  0
  151.2502  144.0184  159.2809 C   0  0  0  0  0  0  0  0  0  0  0  0
  151.1533  145.0305  160.2542 C   0  0  0  0  0  0  0  0  0  0  0  0
  151.9256  144.9537  161.4270 C   0  0  0  0  0  0  0  0  0  0  0  0
  152.7959  143.8656  161.6222 C   0  0  0  0  0  0  0  0  0  0  0  0
  152.8958  142.8485  160.6517 C   0  0  0  0  0  0  0  0  0  0  0  0
  153.9912  141.5420  160.9395 Cl  0  0  0  0  0  0  0  0  0  0  0  0
  148.8732  134.9051  157.3233 H   0  0  0  0  0  0  0  0  0  0  0  0
  150.0891  132.2838  157.0315 H   0  0  0  0  0  0  0  0  0  0  0  0
  151.6014  132.8687  155.3167 H   0  0  0  0  0  0  0  0  0  0  0  0
  151.1632  135.6290  155.6879 H   0  0  0  0  0  0  0  0  0  0  0  0
  151.5479  143.1351  156.7848 H   0  0  0  0  0  0  0  0  0  0  0  0
  150.2468  142.1975  157.5142 H   0  0  0  0  0  0  0  0  0  0  0  0
  151.3892  141.4225  156.4183 H   0  0  0  0  0  0  0  0  0  0  0  0
  153.2290  141.7996  158.0172 H   0  0  0  0  0  0  0  0  0  0  0  0
  151.9586  140.3521  159.8794 H   0  0  0  0  0  0  0  0  0  0  0  0
  152.6731  138.5778  154.9681 H   0  0  0  0  0  0  0  0  0  0  0  0
  149.4589  136.0566  159.9433 H   0  0  0  0  0  0  0  0  0  0  0  0
  151.3895  131.7299  159.2255 H   0  0  0  0  0  0  0  0  0  0  0  0
  151.6781  130.8189  157.7589 H   0  0  0  0  0  0  0  0  0  0  0  0
  153.5529  131.8984  157.4431 H   0  0  0  0  0  0  0  0  0  0  0  0
  153.4918  133.3003  156.1934 H   0  0  0  0  0  0  0  0  0  0  0  0
  149.6044  135.1514  154.4058 H   0  0  0  0  0  0  0  0  0  0  0  0
  150.6541  144.0964  158.3837 H   0  0  0  0  0  0  0  0  0  0  0  0
  150.4872  145.8664  160.0996 H   0  0  0  0  0  0  0  0  0  0  0  0
  151.8533  145.7300  162.1743 H   0  0  0  0  0  0  0  0  0  0  0  0
  153.3916  143.8124  162.5217 H   0  0  0  0  0  0  0  0  0  0  0  0
  1  2  1  0  0  0  0
  1 33  1  0  0  0  0
  1 34  1  0  0  0  0
  1 35  1  0  0  0  0
  2  3  1  0  0  0  0
  2 22  1  0  0  0  0
  2 36  1  0  0  0  0
  3  4  1  0  0  0  0
  3 37  1  0  0  0  0
  4  9  1  0  0  0  0
  4  5  2  0  0  0  0
  5  6  1  0  0  0  0
  6  7  2  0  0  0  0
  6 38  1  0  0  0  0
  7  8  1  0  0  0  0
  8 12  1  0  0  0  0
  8  9  2  0  0  0  0
  9 10  1  0  0  0  0
 10 11  2  0  0  0  0
 11 12  1  0  0  0  0
 11 39  1  0  0  0  0
 12 13  1  0  0  0  0
 13 29  1  0  0  0  0
 13 20  1  0  0  0  0
 13 14  1  0  0  0  0
 14 15  1  0  0  0  0
 15 30  1  0  0  0  0
 15 16  1  0  0  0  0
 15 18  1  0  0  0  0
 16 17  1  0  0  0  0
 16 40  1  0  0  0  0
 16 41  1  0  0  0  0
 17 42  1  0  0  0  0
 18 31  1  0  0  0  0
 18 19  1  0  0  0  0
 18 20  1  0  0  0  0
 19 43  1  0  0  0  0
 20 32  1  0  0  0  0
 20 21  1  0  0  0  0
 21 44  1  0  0  0  0
 22 27  1  0  0  0  0
 22 23  2  0  0  0  0
 23 24  1  0  0  0  0
 23 45  1  0  0  0  0
 24 25  2  0  0  0  0
 24 46  1  0  0  0  0
 25 26  1  0  0  0  0
 25 47  1  0  0  0  0
 26 27  2  0  0  0  0
 26 48  1  0  0  0  0
 27 28  1  0  0  0  0
M  END
> <s_m_source_file>
AV-unprocessed.smi

> <i_m_source_file_index>
283

> <i_lp_mmshare_version>
43012

> <i_f3d_flags>
0

> <s_epik_input>
Q2xjMVtjSF1bY0hdW2NIXVtjSF1jMVtDQEhdKFtDSDNdKVtOSF1jKG5bY0hdbjIpYyhjMjMpbltjSF1uM1tDQEBIXTRPW0NASF0oW0NIMl1bT0hdKVtDQEBIXShbT0hdKVtDQEhdNFtPSF0=

> <s_epik_cmdline>
J2VwaWtfcHl0aG9uJywgJy1waCcsICc3LjAnLCAnLXRuJywgJzgnLCAnLW1hJywgJzIwMCcsICctbWV0YWxfYmluZGluZycsICctaW1hZScsICc8aW5maWxlLm1hZT4nLCAnLW9tYWUnLCAnPG91dGZpbGUubWFlPic=

> <r_lp_tautomer_probability>
1

> <r_epik_Ionization_Penalty>
0.000266407

> <r_epik_Ionization_Penalty_Charging>
0

> <r_epik_Ionization_Penalty_Neutral>
0.000266407

> <r_epik_State_Penalty>
-0

> <r_epik_Charging_Adjusted_Penalty>
0

> <i_epik_Tot_Q>
0

> <i_epik_Tot_abs_Q>
0

> <r_epik_Metal_State_Penalty>
-0

> <b_epik_Metal_Only>
0

> <s_epik_Chemistry_Notes>
This compound contains an acetal/aminal-like group ( X-CH(R)-Y where X, Y are N, S, or O) that may be acid/base labile, releasing an aldehyde.

> <s_lp_Force_Field>
OPLS_2005

> <r_lp_Energy>
46.8878

> <b_lp_Chiralities_Consistent>
1

> <s_lp_Variant>
AV-unprocessed.smi:283-9

> <Gold.Version>
5.8.1

> <Gold.Id.Protein>
6NUR|6NUR_protein|mol2

> <Gold.PLP.Fitness>
49.6065

> <Gold.PLP.PLP>
-39.2798

> <Gold.PLP.part.hbond>
-5.6512

> <Gold.PLP.part.metal>
0.0000

> <Gold.PLP.part.buried>
0.5347

> <Gold.PLP.part.nonpolar>
-33.3807

> <Gold.PLP.part.repulsive>
0.1576

> <Gold.PLP.ligand.clash>
0.0000

> <Gold.PLP.ligand.torsion>
0.6454

> <Gold.PLP.Chemscore.Hbond>
3.8495

> <Gold.PLP.Chemscore.CHOScore>
0.0000

> <Gold.PLP.Chemscore.Metal>
0.0000

> <Gold.Chemscore.Hbonds>
donor molecule, donor type, donor heavy atom, donor atom, acceptor molecule, acceptor atom, score
      P1  H  6896  6909       L1    14  0.21
      P1  H  7997  8008       L1     5  0.81
      P1  H 10752 10763       L1    19  0.38

> <Gold.PLP.Chemscore.Internal.Correction>
0.0691

> <Gold.Rescore>
     Score         DG    S(hbond)    S(metal)    S(lipo)     H(rot)  DE(clash)    DE(int)     intcor
     10.09     -15.93       2.21        0.00     115.71       4.10       2.79       3.04       ----

> <Gold.Chemscore.Fitness>
10.0939

> <Gold.Chemscore.DG>
-15.9259

> <Gold.Chemscore.ZeroCoef>
-5.4800

> <Gold.Chemscore.Hbond>
2.2142

> <Gold.Chemscore.Metal>
0.0000

> <Gold.Chemscore.Lipo>
115.7130

> <Gold.Chemscore.Internal_Hbond>
0.0000

> <Gold.Chemscore.DEClash>
2.7909

> <Gold.Chemscore.DEInternal>
3.0410

> <Gold.Chemscore.Rot>
4.0968

> <Gold.Chemscore.Internal.Correction>
   9.000000E+99

> <Gold.Chemscore.Hbonds>
donor molecule, donor type, donor heavy atom, donor atom, acceptor molecule, acceptor atom, score
      P1  H  6896  6909       L1    14  0.17
      P1  H  7997  8008       L1     5  0.31
      P1  H 10752 10763       L1    19  0.12

> <Gold.Chemscore.Hbond.Weighted>
-7.3954

> <Gold.Chemscore.Metal.Weighted>
-0.0000

> <Gold.Chemscore.Lipo.Weighted>
-13.5384

> <Gold.Chemscore.Internal_Hbond.Weighted>
0.0000

> <Gold.Chemscore.DEClash.Weighted>
2.7909

> <Gold.Chemscore.DEInternal.Weighted>
3.0410

> <Gold.Chemscore.Rot.Weighted>
10.4879

> <Gold.Chemscore.Internal.Correction.Weighted>
   9.000000E+99

> <Gold.Protein.RotatedTorsions>
[ 6907 6896 6895 6894 ] final   32.00 input  -60.11 | X-H torsion
[ 7974 7965 7964 7962 ] final -126.66 input  175.53 | X-H torsion
[ 8008 7997 7996 7995 ] final  -50.74 input   59.86 | X-H torsion
[ 10167 10162 10161 10158 ] final -120.68 input  -65.29 | X-H torsion
[ 10718 10713 10712 10709 ] final  175.79 input   66.30 | X-H torsion
[ 10763 10752 10751 10750 ] final  104.67 input  -60.55 | X-H torsion
[ 11005 11000 10999 10996 ] final   13.57 input  -57.11 | X-H torsion

> <Gold.Protein.ActiveResidues>
 VAL166  LYS551  ARG553  GLY616  TRP617  ASP618  TYR619  PRO620  LYS621  CYS622 
 ASP623  PHE694  ASN695  SER759  ASP760  ASP761  ALA762  ILE779  LEU786  VAL792 
 PHE793  MET794  SER795  GLU796  ALA797  LYS798  CYS799  TRP800  GLU811  SER814 

> <Gold.Protein.RotatedAtoms>
  152.0683  134.9550  160.0574 H   0  0  0  0  0  0  0  0  0  0  0  0  # atno 6907 bound_to 6896
  152.0886  133.4184  159.4542 H   0  0  0  0  0  0  0  0  0  0  0  0  # atno 6908 bound_to 6896
  150.6836  134.2818  159.4674 H   0  0  0  0  0  0  0  0  0  0  0  0  # atno 6909 bound_to 6896
  144.9850  140.7677  143.4589 H   0  0  0  0  0  0  0  0  0  0  0  0  # atno 7974 bound_to 7965
  154.4068  140.1265  156.4715 H   0  0  0  0  0  0  0  0  0  0  0  0  # atno 8008 bound_to 7997
  155.7174  140.3493  155.4981 H   0  0  0  0  0  0  0  0  0  0  0  0  # atno 8009 bound_to 7997
  155.9245  140.1058  157.1171 H   0  0  0  0  0  0  0  0  0  0  0  0  # atno 8010 bound_to 7997
  140.0332  143.5227  152.2166 H   0  0  0  0  0  0  0  0  0  0  0  0  # atno 10167 bound_to 10162
  156.9297  130.9967  151.2989 H   0  0  0  0  0  0  0  0  0  0  0  0  # atno 10718 bound_to 10713
  153.3690  135.3935  155.1774 H   0  0  0  0  0  0  0  0  0  0  0  0  # atno 10763 bound_to 10752
  154.8691  135.3698  154.5002 H   0  0  0  0  0  0  0  0  0  0  0  0  # atno 10764 bound_to 10752
  153.5468  135.7083  153.5671 H   0  0  0  0  0  0  0  0  0  0  0  0  # atno 10765 bound_to 10752
  140.4792  134.0952  155.7747 H   0  0  0  0  0  0  0  0  0  0  0  0  # atno 11005 bound_to 11000
  145.2367  139.2091  143.5014 LP  0  0  0  0  0  0  0  0  0  0  0  0  # atno 17320 bound_to 7965
  146.3417  140.2254  142.8592 LP  0  0  0  0  0  0  0  0  0  0  0  0  # atno 17321 bound_to 7965
  139.6062  144.7597  151.3056 LP  0  0  0  0  0  0  0  0  0  0  0  0  # atno 17342 bound_to 10162
  140.7293  143.6912  150.7920 LP  0  0  0  0  0  0  0  0  0  0  0  0  # atno 17343 bound_to 10162
  157.5855  130.8406  149.8583 LP  0  0  0  0  0  0  0  0  0  0  0  0  # atno 17370 bound_to 10713
  156.0453  130.3729  150.1334 LP  0  0  0  0  0  0  0  0  0  0  0  0  # atno 17371 bound_to 10713
  141.1539  133.8918  157.2027 LP  0  0  0  0  0  0  0  0  0  0  0  0  # atno 17394 bound_to 11000
  139.9837  135.0089  156.9810 LP  0  0  0  0  0  0  0  0  0  0  0  0  # atno 17395 bound_to 11000

$$$$
