AV-unprocessed.smi:570|AV-procd|sdf|2961|dock5
  -GOLD-   2262023463D 1   1.00000     0.00000
 Structure written by MMmdl.
 40 41  0  0  0  0  0  0  0  0  1 V2000
  143.7013  132.2206  150.0421 C   0  0  0  0  0  0  0  0  0  0  0  0
  144.9259  132.6348  150.6218 O   0  0  0  0  0  0  0  0  0  0  0  0
  145.3555  131.7701  151.6594 C   0  0  0  0  0  0  0  0  0  0  0  0
  146.6728  132.3029  152.2336 C   0  0  0  0  0  0  0  0  0  0  0  0
  146.5175  133.6904  152.8768 C   0  0  0  0  0  0  0  0  0  0  0  0
  147.7401  134.1009  153.5558 N   0  0  0  0  0  0  0  0  0  0  0  0
  148.3681  133.3940  154.5089 C   0  0  0  0  0  0  0  0  0  0  0  0
  147.9668  132.3075  154.9276 O   0  0  0  0  0  0  0  0  0  0  0  0
  149.5694  134.0546  155.1212 C   0  0  0  0  0  0  0  0  0  0  0  0
  149.7041  135.3811  154.8926 N   0  0  0  0  0  0  0  0  0  0  0  0
  150.7583  136.0193  155.4150 C   0  0  0  0  0  0  0  0  0  0  0  0
  150.8802  137.3904  155.1547 N   0  0  0  0  0  0  0  0  0  0  0  0
  149.8720  138.1255  154.3865 C   0  0  0  0  0  0  0  0  0  0  0  0
  149.7935  139.5917  154.8450 C   0  0  0  0  0  0  0  0  0  0  0  0
  151.0806  140.1912  154.7687 O   0  0  0  0  0  0  0  0  0  0  0  0
  152.0103  139.5401  155.6254 C   0  0  0  0  0  0  0  0  0  0  0  0
  152.1764  138.0731  155.1943 C   0  0  0  0  0  0  0  0  0  0  0  0
  151.7045  135.4416  156.1653 N   0  0  0  0  0  0  0  0  0  0  0  0
  151.5854  134.1224  156.4210 C   0  0  0  0  0  0  0  0  0  0  0  0
  150.5145  133.3581  155.9187 C   0  0  0  0  0  0  0  0  0  0  0  0
  150.3961  131.6777  156.3165 Cl  0  0  0  0  0  0  0  0  0  0  0  0
  143.4153  132.9163  149.2533 H   0  0  0  0  0  0  0  0  0  0  0  0
  142.9006  132.2037  150.7826 H   0  0  0  0  0  0  0  0  0  0  0  0
  143.7900  131.2280  149.5989 H   0  0  0  0  0  0  0  0  0  0  0  0
  144.5979  131.7216  152.4434 H   0  0  0  0  0  0  0  0  0  0  0  0
  145.4955  130.7602  151.2707 H   0  0  0  0  0  0  0  0  0  0  0  0
  147.0543  131.5983  152.9738 H   0  0  0  0  0  0  0  0  0  0  0  0
  147.4165  132.3458  151.4365 H   0  0  0  0  0  0  0  0  0  0  0  0
  146.2358  134.4322  152.1272 H   0  0  0  0  0  0  0  0  0  0  0  0
  145.7125  133.6714  153.6120 H   0  0  0  0  0  0  0  0  0  0  0  0
  148.1337  134.9929  153.2925 H   0  0  0  0  0  0  0  0  0  0  0  0
  150.1353  138.0769  153.3292 H   0  0  0  0  0  0  0  0  0  0  0  0
  148.8801  137.6857  154.4859 H   0  0  0  0  0  0  0  0  0  0  0  0
  149.1062  140.1469  154.2066 H   0  0  0  0  0  0  0  0  0  0  0  0
  149.4068  139.6604  155.8633 H   0  0  0  0  0  0  0  0  0  0  0  0
  152.9678  140.0581  155.5675 H   0  0  0  0  0  0  0  0  0  0  0  0
  151.6757  139.6053  156.6621 H   0  0  0  0  0  0  0  0  0  0  0  0
  152.8738  137.5942  155.8810 H   0  0  0  0  0  0  0  0  0  0  0  0
  152.6262  138.0234  154.2022 H   0  0  0  0  0  0  0  0  0  0  0  0
  152.3491  133.6747  157.0397 H   0  0  0  0  0  0  0  0  0  0  0  0
  1  2  1  0  0  0  0
  1 22  1  0  0  0  0
  1 23  1  0  0  0  0
  1 24  1  0  0  0  0
  2  3  1  0  0  0  0
  3  4  1  0  0  0  0
  3 25  1  0  0  0  0
  3 26  1  0  0  0  0
  4  5  1  0  0  0  0
  4 27  1  0  0  0  0
  4 28  1  0  0  0  0
  5  6  1  0  0  0  0
  5 29  1  0  0  0  0
  5 30  1  0  0  0  0
  6  7  1  0  0  0  0
  6 31  1  0  0  0  0
  7  8  2  0  0  0  0
  7  9  1  0  0  0  0
  9 20  1  0  0  0  0
  9 10  2  0  0  0  0
 10 11  1  0  0  0  0
 11 12  1  0  0  0  0
 11 18  2  0  0  0  0
 12 17  1  0  0  0  0
 12 13  1  0  0  0  0
 13 14  1  0  0  0  0
 13 32  1  0  0  0  0
 13 33  1  0  0  0  0
 14 15  1  0  0  0  0
 14 34  1  0  0  0  0
 14 35  1  0  0  0  0
 15 16  1  0  0  0  0
 16 17  1  0  0  0  0
 16 36  1  0  0  0  0
 16 37  1  0  0  0  0
 17 38  1  0  0  0  0
 17 39  1  0  0  0  0
 18 19  1  0  0  0  0
 19 20  2  0  0  0  0
 19 40  1  0  0  0  0
 20 21  1  0  0  0  0
M  END
> <s_m_source_file>
AV-unprocessed.smi

> <i_m_source_file_index>
570

> <i_lp_mmshare_version>
43012

> <i_f3d_flags>
0

> <s_epik_input>
W0NIM11PW0NIMl1bQ0gyXVtDSDJdW05IXUMoPU8pYzFuYyhuW2NIXWMxQ2wpTjJbQ0gyXVtDSDJdT1tDSDJdW0NIMl0y

> <s_epik_cmdline>
J2VwaWtfcHl0aG9uJywgJy1waCcsICc3LjAnLCAnLXRuJywgJzgnLCAnLW1hJywgJzIwMCcsICctbWV0YWxfYmluZGluZycsICctaW1hZScsICc8aW5maWxlLm1hZT4nLCAnLW9tYWUnLCAnPG91dGZpbGUubWFlPic=

> <r_lp_tautomer_probability>
1

> <r_epik_Ionization_Penalty>
2.32145e-05

> <r_epik_Ionization_Penalty_Charging>
0

> <r_epik_Ionization_Penalty_Neutral>
2.32145e-05

> <r_epik_State_Penalty>
-0

> <r_epik_Charging_Adjusted_Penalty>
0

> <i_epik_Tot_Q>
0

> <i_epik_Tot_abs_Q>
0

> <r_epik_Metal_State_Penalty>
0.0219249

> <b_epik_Metal_Only>
0

> <s_lp_Force_Field>
OPLS_2005

> <r_lp_Energy>
13.2289

> <b_lp_Chiralities_Consistent>
1

> <s_lp_Variant>
AV-unprocessed.smi:570-1

> <Gold.Version>
5.8.1

> <Gold.Id.Protein>
6NUR|6NUR_protein|mol2

> <Gold.PLP.Fitness>
43.4915

> <Gold.PLP.PLP>
-34.9218

> <Gold.PLP.part.hbond>
-2.9180

> <Gold.PLP.part.metal>
0.0000

> <Gold.PLP.part.buried>
-5.0931

> <Gold.PLP.part.nonpolar>
-28.4872

> <Gold.PLP.part.repulsive>
0.3963

> <Gold.PLP.ligand.clash>
0.0000

> <Gold.PLP.ligand.torsion>
0.2794

> <Gold.PLP.Chemscore.Hbond>
2.9760

> <Gold.PLP.Chemscore.CHOScore>
0.0000

> <Gold.PLP.Chemscore.Metal>
0.0000

> <Gold.Chemscore.Hbonds>
donor molecule, donor type, donor heavy atom, donor atom, acceptor molecule, acceptor atom, score
      L1  H     6    31       P1  7948  0.95
      P1  H  7989  7998       L1    15  1.00
      P1  H 10752 10764       L1    18  0.95

> <Gold.PLP.Chemscore.Internal.Correction>
0.2006

> <Gold.Rescore>
     Score         DG    S(hbond)    S(metal)    S(lipo)     H(rot)  DE(clash)    DE(int)     intcor
     15.14     -16.97       1.96        0.00      77.98       1.63       0.19       1.64       ----

> <Gold.Chemscore.Fitness>
15.1394

> <Gold.Chemscore.DG>
-16.9673

> <Gold.Chemscore.ZeroCoef>
-5.4800

> <Gold.Chemscore.Hbond>
1.9576

> <Gold.Chemscore.Metal>
0.0000

> <Gold.Chemscore.Lipo>
77.9830

> <Gold.Chemscore.Internal_Hbond>
0.0000

> <Gold.Chemscore.DEClash>
0.1925

> <Gold.Chemscore.DEInternal>
1.6354

> <Gold.Chemscore.Rot>
1.6308

> <Gold.Chemscore.Internal.Correction>
   9.000000E+99

> <Gold.Chemscore.Hbonds>
donor molecule, donor type, donor heavy atom, donor atom, acceptor molecule, acceptor atom, score
      L1  H     6    31       P1  7948  0.83
      P1  H  7989  7998       L1    15  0.89
      P1  H 10752 10764       L1    18  0.14

> <Gold.Chemscore.Hbond.Weighted>
-6.5382

> <Gold.Chemscore.Metal.Weighted>
-0.0000

> <Gold.Chemscore.Lipo.Weighted>
-9.1240

> <Gold.Chemscore.Internal_Hbond.Weighted>
0.0000

> <Gold.Chemscore.DEClash.Weighted>
0.1925

> <Gold.Chemscore.DEInternal.Weighted>
1.6354

> <Gold.Chemscore.Rot.Weighted>
4.1749

> <Gold.Chemscore.Internal.Correction.Weighted>
   9.000000E+99

> <Gold.Protein.RotatedTorsions>
[ 6907 6896 6895 6894 ] final -125.66 input  -60.11 | X-H torsion
[ 7974 7965 7964 7962 ] final -127.03 input  175.53 | X-H torsion
[ 8008 7997 7996 7995 ] final  -13.15 input   59.86 | X-H torsion
[ 10167 10162 10161 10158 ] final  -82.29 input  -65.29 | X-H torsion
[ 10718 10713 10712 10709 ] final  -41.47 input   66.30 | X-H torsion
[ 10763 10752 10751 10750 ] final  -18.58 input  -60.55 | X-H torsion
[ 11005 11000 10999 10996 ] final -120.10 input  -57.11 | X-H torsion

> <Gold.Protein.ActiveResidues>
 VAL166  LYS551  ARG553  GLY616  TRP617  ASP618  TYR619  PRO620  LYS621  CYS622 
 ASP623  PHE694  ASN695  SER759  ASP760  ASP761  ALA762  ILE779  LEU786  VAL792 
 PHE793  MET794  SER795  GLU796  ALA797  LYS798  CYS799  TRP800  GLU811  SER814 

> <Gold.Protein.RotatedAtoms>
  150.8890  133.7269  159.2909 H   0  0  0  0  0  0  0  0  0  0  0  0  # atno 6907 bound_to 6896
  151.4825  135.1051  159.9791 H   0  0  0  0  0  0  0  0  0  0  0  0  # atno 6908 bound_to 6896
  152.4808  133.8203  159.7105 H   0  0  0  0  0  0  0  0  0  0  0  0  # atno 6909 bound_to 6896
  144.9812  140.7642  143.4611 H   0  0  0  0  0  0  0  0  0  0  0  0  # atno 7974 bound_to 7965
  154.5317  140.2257  155.8793 H   0  0  0  0  0  0  0  0  0  0  0  0  # atno 8008 bound_to 7997
  156.1770  140.3109  155.9041 H   0  0  0  0  0  0  0  0  0  0  0  0  # atno 8009 bound_to 7997
  155.3438  140.0452  157.3036 H   0  0  0  0  0  0  0  0  0  0  0  0  # atno 8010 bound_to 7997
  140.4333  143.2540  151.8729 H   0  0  0  0  0  0  0  0  0  0  0  0  # atno 10167 bound_to 10162
  156.2700  130.4206  149.8448 H   0  0  0  0  0  0  0  0  0  0  0  0  # atno 10718 bound_to 10713
  153.5916  135.7002  153.5421 H   0  0  0  0  0  0  0  0  0  0  0  0  # atno 10763 bound_to 10752
  153.3174  135.4084  155.1387 H   0  0  0  0  0  0  0  0  0  0  0  0  # atno 10764 bound_to 10752
  154.8599  135.3687  154.5447 H   0  0  0  0  0  0  0  0  0  0  0  0  # atno 10765 bound_to 10752
  141.0168  134.0184  157.3339 H   0  0  0  0  0  0  0  0  0  0  0  0  # atno 11005 bound_to 11000
  145.2418  139.2069  143.4988 LP  0  0  0  0  0  0  0  0  0  0  0  0  # atno 17320 bound_to 7965
  146.3408  140.2315  142.8593 LP  0  0  0  0  0  0  0  0  0  0  0  0  # atno 17321 bound_to 7965
  139.4786  144.5310  151.8666 LP  0  0  0  0  0  0  0  0  0  0  0  0  # atno 17342 bound_to 10162
  140.4402  144.1996  150.5891 LP  0  0  0  0  0  0  0  0  0  0  0  0  # atno 17343 bound_to 10162
  156.5933  130.8515  151.3413 LP  0  0  0  0  0  0  0  0  0  0  0  0  # atno 17370 bound_to 10713
  157.7281  130.9651  150.1726 LP  0  0  0  0  0  0  0  0  0  0  0  0  # atno 17371 bound_to 10713
  139.9122  135.0192  156.7736 LP  0  0  0  0  0  0  0  0  0  0  0  0  # atno 17394 bound_to 11000
  140.6641  133.9618  155.7821 LP  0  0  0  0  0  0  0  0  0  0  0  0  # atno 17395 bound_to 11000

$$$$
