AV-unprocessed.smi:3279|AV-procd|sdf|12549|dock6
  -GOLD-   2272018463D 1   1.00000     0.00000
 Structure written by MMmdl.
 35 35  0  0  0  0  0  0  0  0  2 V2000
  149.8355  138.1746  154.6405 C   0  0  0  0  0  0  0  0  0  0  0  0
  151.2971  137.8266  154.9636 C   0  0  1  0  0  0  0  0  0  0  0  0
  152.2086  139.0726  154.9996 C   0  0  0  0  0  0  0  0  0  0  0  0
  151.5987  140.1686  155.7500 N   0  0  0  0  0  0  0  0  0  0  0  0
  151.9460  140.5631  156.9851 C   0  0  0  0  0  0  0  0  0  0  0  0
  152.7838  139.9832  157.6765 O   0  0  0  0  0  0  0  0  0  0  0  0
  151.2399  141.8099  157.5160 C   0  0  0  0  0  0  0  0  0  0  0  0
  151.8408  142.1819  158.7531 O   0  0  0  0  0  0  0  0  0  0  0  0
  151.8802  143.5685  159.0985 C   0  0  0  0  0  0  0  0  0  0  0  0
  152.4911  143.7812  160.4980 C   0  0  0  0  0  0  0  0  0  0  0  0
  150.4039  143.9965  159.1132 C   0  0  0  0  0  0  0  0  0  0  0  0
  152.6409  144.3762  158.0285 C   0  0  0  0  0  0  0  0  0  0  0  0
  151.4046  136.9916  156.2103 C   0  0  0  0  0  0  0  0  0  0  0  0
  150.3704  136.7866  157.0405 N   0  0  0  0  0  0  0  0  0  0  0  0
  150.8774  135.9764  157.9792 N   0  0  0  0  0  0  0  0  0  0  0  0
  152.1619  135.7174  157.7075 N   0  0  0  0  0  0  0  0  0  0  0  0
  152.5244  136.3522  156.5850 N   0  5  0  0  0  0  0  0  0  0  0  0
  149.2317  137.2723  154.5391 H   0  0  0  0  0  0  0  0  0  0  0  0
  149.7616  138.7288  153.7047 H   0  0  0  0  0  0  0  0  0  0  0  0
  149.3898  138.7876  155.4245 H   0  0  0  0  0  0  0  0  0  0  0  0
  151.6447  137.2375  154.1130 H   0  0  0  0  0  0  0  0  0  0  0  0
  153.1585  138.8234  155.4730 H   0  0  0  0  0  0  0  0  0  0  0  0
  152.4494  139.3812  153.9810 H   0  0  0  0  0  0  0  0  0  0  0  0
  150.9013  140.7135  155.2642 H   0  0  0  0  0  0  0  0  0  0  0  0
  151.3298  142.6113  156.7822 H   0  0  0  0  0  0  0  0  0  0  0  0
  150.1828  141.5765  157.6378 H   0  0  0  0  0  0  0  0  0  0  0  0
  152.3827  144.8178  160.8184 H   0  0  0  0  0  0  0  0  0  0  0  0
  153.5567  143.5534  160.5190 H   0  0  0  0  0  0  0  0  0  0  0  0
  152.0002  143.1526  161.2417 H   0  0  0  0  0  0  0  0  0  0  0  0
  149.8354  143.4248  159.8479 H   0  0  0  0  0  0  0  0  0  0  0  0
  149.9364  143.8357  158.1412 H   0  0  0  0  0  0  0  0  0  0  0  0
  150.2968  145.0529  159.3612 H   0  0  0  0  0  0  0  0  0  0  0  0
  152.5445  145.4477  158.2063 H   0  0  0  0  0  0  0  0  0  0  0  0
  152.2528  144.1714  157.0303 H   0  0  0  0  0  0  0  0  0  0  0  0
  153.7071  144.1503  158.0249 H   0  0  0  0  0  0  0  0  0  0  0  0
  1  2  1  0  0  0  0
  1 18  1  0  0  0  0
  1 19  1  0  0  0  0
  1 20  1  0  0  0  0
  2  3  1  0  0  0  0
  2 13  1  0  0  0  0
  2 21  1  0  0  0  0
  3  4  1  0  0  0  0
  3 22  1  0  0  0  0
  3 23  1  0  0  0  0
  4  5  1  0  0  0  0
  4 24  1  0  0  0  0
  5  6  2  0  0  0  0
  5  7  1  0  0  0  0
  7  8  1  0  0  0  0
  7 25  1  0  0  0  0
  7 26  1  0  0  0  0
  8  9  1  0  0  0  0
  9 10  1  0  0  0  0
  9 11  1  0  0  0  0
  9 12  1  0  0  0  0
 10 27  1  0  0  0  0
 10 28  1  0  0  0  0
 10 29  1  0  0  0  0
 11 30  1  0  0  0  0
 11 31  1  0  0  0  0
 11 32  1  0  0  0  0
 12 33  1  0  0  0  0
 12 34  1  0  0  0  0
 12 35  1  0  0  0  0
 13 17  1  0  0  0  0
 13 14  2  0  0  0  0
 14 15  1  0  0  0  0
 15 16  2  0  0  0  0
 16 17  1  0  0  0  0
M  CHG  1  17  -1
M  END
> <s_m_source_file>
AV-unprocessed.smi

> <i_m_source_file_index>
3279

> <i_lp_mmshare_version>
43012

> <i_f3d_flags>
0

> <s_epik_input>
W25IXTFubm5jMVtDQEhdKFtDSDNdKVtDSDJdW05IXUMoPU8pW0NIMl1PQyhbQ0gzXSkoW0NIM10pW0NIM10=

> <s_epik_cmdline>
J2VwaWtfcHl0aG9uJywgJy1waCcsICc3LjAnLCAnLXRuJywgJzgnLCAnLW1hJywgJzIwMCcsICctbWV0YWxfYmluZGluZycsICctaW1hZScsICc8aW5maWxlLm1hZT4nLCAnLW9tYWUnLCAnPG91dGZpbGUubWFlPic=

> <r_epik_Ionization_Penalty>
0.054353

> <r_epik_Ionization_Penalty_Charging>
0.054353

> <r_epik_Ionization_Penalty_Neutral>
3.0997e-08

> <r_epik_State_Penalty>
0.0139445

> <r_epik_Charging_Adjusted_Penalty>
0.0682975

> <i_epik_Tot_Q>
-1

> <i_epik_Tot_abs_Q>
1

> <r_epik_Metal_State_Penalty>
0.0109703

> <b_epik_Metal_Only>
0

> <s_lp_Force_Field>
OPLS_2005

> <r_lp_Energy>
1.27922

> <b_lp_Chiralities_Consistent>
1

> <s_lp_Variant>
AV-unprocessed.smi:3279-2

> <Gold.Version>
5.8.1

> <Gold.Id.Protein>
6NUR|6NUR_protein|mol2

> <Gold.PLP.Fitness>
40.9154

> <Gold.PLP.PLP>
-31.7088

> <Gold.PLP.part.hbond>
-4.0000

> <Gold.PLP.part.metal>
0.0000

> <Gold.PLP.part.buried>
-4.5249

> <Gold.PLP.part.nonpolar>
-23.3601

> <Gold.PLP.part.repulsive>
0.1579

> <Gold.PLP.ligand.clash>
0.0000

> <Gold.PLP.ligand.torsion>
0.6455

> <Gold.PLP.Chemscore.Hbond>
3.4640

> <Gold.PLP.Chemscore.CHOScore>
0.0000

> <Gold.PLP.Chemscore.Metal>
0.0000

> <Gold.Chemscore.Hbonds>
donor molecule, donor type, donor heavy atom, donor atom, acceptor molecule, acceptor atom, score
      P1  H  6896  6909       L1    15  0.34
      P1  H  7997  8008       L1     6  1.00
      P1  H 10752 10765       L1    17  2.00

> <Gold.PLP.Chemscore.Internal.Correction>
0.1056

> <Gold.Rescore>
     Score         DG    S(hbond)    S(metal)    S(lipo)     H(rot)  DE(clash)    DE(int)     intcor
     13.71     -14.34       1.92        0.00      78.69       2.64       0.07       0.56       ----

> <Gold.Chemscore.Fitness>
13.7113

> <Gold.Chemscore.DG>
-14.3426

> <Gold.Chemscore.ZeroCoef>
-5.4800

> <Gold.Chemscore.Hbond>
1.9211

> <Gold.Chemscore.Metal>
0.0000

> <Gold.Chemscore.Lipo>
78.6914

> <Gold.Chemscore.Internal_Hbond>
0.0000

> <Gold.Chemscore.DEClash>
0.0743

> <Gold.Chemscore.DEInternal>
0.5571

> <Gold.Chemscore.Rot>
2.6409

> <Gold.Chemscore.Internal.Correction>
   9.000000E+99

> <Gold.Chemscore.Hbonds>
donor molecule, donor type, donor heavy atom, donor atom, acceptor molecule, acceptor atom, score
      P1  H  6896  6909       L1    15  0.03
      P1  H  7997  8008       L1     6  0.80
      P1  H 10752 10765       L1    17  0.73

> <Gold.Chemscore.Hbond.Weighted>
-6.4165

> <Gold.Chemscore.Metal.Weighted>
-0.0000

> <Gold.Chemscore.Lipo.Weighted>
-9.2069

> <Gold.Chemscore.Internal_Hbond.Weighted>
0.0000

> <Gold.Chemscore.DEClash.Weighted>
0.0743

> <Gold.Chemscore.DEInternal.Weighted>
0.5571

> <Gold.Chemscore.Rot.Weighted>
6.7607

> <Gold.Chemscore.Internal.Correction.Weighted>
   9.000000E+99

> <Gold.Protein.RotatedTorsions>
[ 6907 6896 6895 6894 ] final   70.83 input  -60.11 | X-H torsion
[ 7974 7965 7964 7962 ] final -117.04 input  175.53 | X-H torsion
[ 8008 7997 7996 7995 ] final  -78.49 input   59.86 | X-H torsion
[ 10167 10162 10161 10158 ] final   77.69 input  -65.29 | X-H torsion
[ 10718 10713 10712 10709 ] final -165.13 input   66.30 | X-H torsion
[ 10763 10752 10751 10750 ] final -142.85 input  -60.55 | X-H torsion
[ 11005 11000 10999 10996 ] final  -48.55 input  -57.11 | X-H torsion

> <Gold.Protein.ActiveResidues>
 VAL166  LYS551  ARG553  GLY616  TRP617  ASP618  TYR619  PRO620  LYS621  CYS622 
 ASP623  PHE694  ASN695  SER759  ASP760  ASP761  ALA762  ILE779  LEU786  VAL792 
 PHE793  MET794  SER795  GLU796  ALA797  LYS798  CYS799  TRP800  GLU811  SER814 

> <Gold.Protein.RotatedAtoms>
  152.4773  134.4810  159.9665 H   0  0  0  0  0  0  0  0  0  0  0  0  # atno 6907 bound_to 6896
  151.4824  133.3537  159.2848 H   0  0  0  0  0  0  0  0  0  0  0  0  # atno 6908 bound_to 6896
  150.8821  134.8239  159.7293 H   0  0  0  0  0  0  0  0  0  0  0  0  # atno 6909 bound_to 6896
  145.0898  140.8482  143.3989 H   0  0  0  0  0  0  0  0  0  0  0  0  # atno 7974 bound_to 7965
  154.5695  140.0693  156.8942 H   0  0  0  0  0  0  0  0  0  0  0  0  # atno 8008 bound_to 7997
  155.2661  140.3362  155.4251 H   0  0  0  0  0  0  0  0  0  0  0  0  # atno 8009 bound_to 7997
  156.2107  140.1758  156.7687 H   0  0  0  0  0  0  0  0  0  0  0  0  # atno 8010 bound_to 7997
  139.9788  144.5841  150.7919 H   0  0  0  0  0  0  0  0  0  0  0  0  # atno 10167 bound_to 10162
  156.6490  130.8999  151.3010 H   0  0  0  0  0  0  0  0  0  0  0  0  # atno 10718 bound_to 10713
  154.8493  135.3484  154.6093 H   0  0  0  0  0  0  0  0  0  0  0  0  # atno 10763 bound_to 10752
  153.6701  135.6985  153.5154 H   0  0  0  0  0  0  0  0  0  0  0  0  # atno 10764 bound_to 10752
  153.2749  135.4281  155.0980 H   0  0  0  0  0  0  0  0  0  0  0  0  # atno 10765 bound_to 10752
  141.0707  133.6680  156.3457 H   0  0  0  0  0  0  0  0  0  0  0  0  # atno 11005 bound_to 11000
  145.1079  139.2777  143.5652 LP  0  0  0  0  0  0  0  0  0  0  0  0  # atno 17320 bound_to 7965
  146.3531  140.0666  142.8626 LP  0  0  0  0  0  0  0  0  0  0  0  0  # atno 17321 bound_to 7965
  140.7496  143.2942  151.3250 LP  0  0  0  0  0  0  0  0  0  0  0  0  # atno 17342 bound_to 10162
  139.6425  144.0512  152.2565 LP  0  0  0  0  0  0  0  0  0  0  0  0  # atno 17343 bound_to 10162
  157.7147  130.9482  150.1212 LP  0  0  0  0  0  0  0  0  0  0  0  0  # atno 17370 bound_to 10713
  156.2099  130.3666  149.8683 LP  0  0  0  0  0  0  0  0  0  0  0  0  # atno 17371 bound_to 10713
  140.5679  134.5870  157.5450 LP  0  0  0  0  0  0  0  0  0  0  0  0  # atno 17394 bound_to 11000
  139.9521  134.7599  156.0425 LP  0  0  0  0  0  0  0  0  0  0  0  0  # atno 17395 bound_to 11000

$$$$
