AV-unprocessed.smi:2144|AV-procd|sdf|8733|dock1
  -GOLD-   2272011503D 1   1.00000     0.00000
 Structure written by MMmdl.
 41 43  0  0  0  0  0  0  0  0  2 V2000
  150.3826  140.2415  153.8658 O   0  0  0  0  0  0  0  0  0  0  0  0
  149.5973  141.0577  154.7099 C   0  0  0  0  0  0  0  0  0  0  0  0
  150.2871  141.4219  155.9865 C   0  0  0  0  0  0  0  0  0  0  0  0
  150.5027  142.6842  156.4567 N   0  3  0  0  0  0  0  0  0  0  0  0
  151.1811  142.6279  157.6746 C   0  0  0  0  0  0  0  0  0  0  0  0
  151.6158  143.6403  158.5241 C   0  0  0  0  0  0  0  0  0  0  0  0
  152.2863  143.2368  159.6976 C   0  0  0  0  0  0  0  0  0  0  0  0
  152.5017  141.8739  159.9887 C   0  0  0  0  0  0  0  0  0  0  0  0
  152.0546  140.8563  159.1201 C   0  0  0  0  0  0  0  0  0  0  0  0
  151.3923  141.2642  157.9626 C   0  0  0  0  0  0  0  0  0  0  0  0
  150.8220  140.5582  156.8976 N   0  0  0  0  0  0  0  0  0  0  0  0
  150.8778  139.0876  156.9012 C   0  0  0  0  0  0  0  0  0  0  0  0
  149.4843  138.4315  156.9792 C   0  0  1  0  0  0  0  0  0  0  0  0
  149.3565  137.5028  155.9207 O   0  0  0  0  0  0  0  0  0  0  0  0
  149.2712  137.6932  158.3104 C   0  0  0  0  0  0  0  0  0  0  0  0
  147.8746  137.5606  158.5401 O   0  0  0  0  0  0  0  0  0  0  0  0
  147.4524  136.7329  159.5589 C   0  0  0  0  0  0  0  0  0  0  0  0
  148.3239  135.9700  160.3775 C   0  0  0  0  0  0  0  0  0  0  0  0
  147.8070  135.1488  161.3989 C   0  0  0  0  0  0  0  0  0  0  0  0
  146.4186  135.0789  161.6156 C   0  0  0  0  0  0  0  0  0  0  0  0
  145.5462  135.8319  160.8085 C   0  0  0  0  0  0  0  0  0  0  0  0
  146.0616  136.6535  159.7872 C   0  0  0  0  0  0  0  0  0  0  0  0
  145.2106  137.3739  159.0182 F   0  0  0  0  0  0  0  0  0  0  0  0
  149.9605  140.1887  153.0214 H   0  0  0  0  0  0  0  0  0  0  0  0
  149.3328  141.9672  154.1702 H   0  0  0  0  0  0  0  0  0  0  0  0
  148.6685  140.5366  154.9438 H   0  0  0  0  0  0  0  0  0  0  0  0
  151.4522  144.6849  158.3027 H   0  0  0  0  0  0  0  0  0  0  0  0
  152.6431  143.9876  160.3878 H   0  0  0  0  0  0  0  0  0  0  0  0
  153.0200  141.6032  160.8972 H   0  0  0  0  0  0  0  0  0  0  0  0
  152.2233  139.8150  159.3523 H   0  0  0  0  0  0  0  0  0  0  0  0
  151.3953  138.7715  155.9946 H   0  0  0  0  0  0  0  0  0  0  0  0
  151.5048  138.7714  157.7359 H   0  0  0  0  0  0  0  0  0  0  0  0
  148.7189  139.2000  156.8649 H   0  0  0  0  0  0  0  0  0  0  0  0
  149.6903  137.9006  155.1313 H   0  0  0  0  0  0  0  0  0  0  0  0
  149.7750  136.7249  158.3022 H   0  0  0  0  0  0  0  0  0  0  0  0
  149.6970  138.2847  159.1227 H   0  0  0  0  0  0  0  0  0  0  0  0
  149.3943  135.9967  160.2429 H   0  0  0  0  0  0  0  0  0  0  0  0
  148.4781  134.5712  162.0173 H   0  0  0  0  0  0  0  0  0  0  0  0
  146.0233  134.4489  162.3989 H   0  0  0  0  0  0  0  0  0  0  0  0
  144.4799  135.7795  160.9717 H   0  0  0  0  0  0  0  0  0  0  0  0
  150.2032  143.5207  155.9722 H   0  0  0  0  0  0  0  0  0  0  0  0
  1  2  1  0  0  0  0
  1 24  1  0  0  0  0
  2  3  1  0  0  0  0
  2 25  1  0  0  0  0
  2 26  1  0  0  0  0
  3 11  1  0  0  0  0
  3  4  2  0  0  0  0
  4  5  1  0  0  0  0
  4 41  1  0  0  0  0
  5 10  2  0  0  0  0
  5  6  1  0  0  0  0
  6  7  2  0  0  0  0
  6 27  1  0  0  0  0
  7  8  1  0  0  0  0
  7 28  1  0  0  0  0
  8  9  2  0  0  0  0
  8 29  1  0  0  0  0
  9 10  1  0  0  0  0
  9 30  1  0  0  0  0
 10 11  1  0  0  0  0
 11 12  1  0  0  0  0
 12 13  1  0  0  0  0
 12 31  1  0  0  0  0
 12 32  1  0  0  0  0
 13 14  1  0  0  0  0
 13 15  1  0  0  0  0
 13 33  1  0  0  0  0
 14 34  1  0  0  0  0
 15 16  1  0  0  0  0
 15 35  1  0  0  0  0
 15 36  1  0  0  0  0
 16 17  1  0  0  0  0
 17 22  1  0  0  0  0
 17 18  2  0  0  0  0
 18 19  1  0  0  0  0
 18 37  1  0  0  0  0
 19 20  2  0  0  0  0
 19 38  1  0  0  0  0
 20 21  1  0  0  0  0
 20 39  1  0  0  0  0
 21 22  2  0  0  0  0
 21 40  1  0  0  0  0
 22 23  1  0  0  0  0
M  CHG  1   4   1
M  END
> <s_m_source_file>
AV-unprocessed.smi

> <i_m_source_file_index>
2144

> <i_lp_mmshare_version>
43012

> <i_f3d_flags>
0

> <s_epik_input>
W2NIXTFbY0hdW2NIXVtjSF1jKGMxMiluKGMobjIpW0NIMl1bT0hdKVtDSDJdW0NASF0oW09IXSlbQ0gyXU9jM1tjSF1bY0hdW2NIXVtjSF1jM0Y=

> <s_epik_cmdline>
J2VwaWtfcHl0aG9uJywgJy1waCcsICc3LjAnLCAnLXRuJywgJzgnLCAnLW1hJywgJzIwMCcsICctbWV0YWxfYmluZGluZycsICctaW1hZScsICc8aW5maWxlLm1hZT4nLCAnLW9tYWUnLCAnPG91dGZpbGUubWFlPic=

> <r_lp_tautomer_probability>
1

> <r_epik_Ionization_Penalty>
1.44003

> <r_epik_Ionization_Penalty_Charging>
1.43917

> <r_epik_Ionization_Penalty_Neutral>
0.000858184

> <r_epik_State_Penalty>
1.52442

> <r_epik_Charging_Adjusted_Penalty>
2.96359

> <i_epik_Tot_Q>
1

> <i_epik_Tot_abs_Q>
1

> <r_epik_Metal_State_Penalty>
5.57019

> <b_epik_Metal_Only>
0

> <s_lp_Force_Field>
OPLS_2005

> <r_lp_Energy>
20.1924

> <b_lp_Chiralities_Consistent>
1

> <s_lp_Variant>
AV-unprocessed.smi:2144-4

> <Gold.Version>
5.8.1

> <Gold.Id.Protein>
6NUR|6NUR_protein|mol2

> <Gold.PLP.Fitness>
51.8990

> <Gold.PLP.PLP>
-42.4710

> <Gold.PLP.part.hbond>
-4.0000

> <Gold.PLP.part.metal>
0.0000

> <Gold.PLP.part.buried>
-5.5178

> <Gold.PLP.part.nonpolar>
-33.9887

> <Gold.PLP.part.repulsive>
0.0748

> <Gold.PLP.ligand.clash>
0.0000

> <Gold.PLP.ligand.torsion>
1.0123

> <Gold.PLP.Chemscore.Hbond>
3.7833

> <Gold.PLP.Chemscore.CHOScore>
0.0000

> <Gold.PLP.Chemscore.Metal>
0.0000

> <Gold.Chemscore.Hbonds>
donor molecule, donor type, donor heavy atom, donor atom, acceptor molecule, acceptor atom, score
      L1  H     1    24       P1  7957  1.00
      L1  H     4    41       P1  8028  1.95
      P1  H  7989  7998       L1     1  0.64

> <Gold.PLP.Chemscore.Internal.Correction>
0.1027

> <Gold.Rescore>
     Score         DG    S(hbond)    S(metal)    S(lipo)     H(rot)  DE(clash)    DE(int)     intcor
     16.71     -17.96       2.39        0.00     110.81       3.31       0.23       1.03       ----

> <Gold.Chemscore.Fitness>
16.7054

> <Gold.Chemscore.DG>
-17.9598

> <Gold.Chemscore.ZeroCoef>
-5.4800

> <Gold.Chemscore.Hbond>
2.3946

> <Gold.Chemscore.Metal>
0.0000

> <Gold.Chemscore.Lipo>
110.8052

> <Gold.Chemscore.Internal_Hbond>
0.0000

> <Gold.Chemscore.DEClash>
0.2292

> <Gold.Chemscore.DEInternal>
1.0252

> <Gold.Chemscore.Rot>
3.3134

> <Gold.Chemscore.Internal.Correction>
   9.000000E+99

> <Gold.Chemscore.Hbonds>
donor molecule, donor type, donor heavy atom, donor atom, acceptor molecule, acceptor atom, score
      L1  H     1    24       P1  7957  1.00
      L1  H     4    41       P1  8028  0.93
      P1  H  7989  7998       L1     1  0.12

> <Gold.Chemscore.Hbond.Weighted>
-7.9979

> <Gold.Chemscore.Metal.Weighted>
-0.0000

> <Gold.Chemscore.Lipo.Weighted>
-12.9642

> <Gold.Chemscore.Internal_Hbond.Weighted>
0.0000

> <Gold.Chemscore.DEClash.Weighted>
0.2292

> <Gold.Chemscore.DEInternal.Weighted>
1.0252

> <Gold.Chemscore.Rot.Weighted>
8.4823

> <Gold.Chemscore.Internal.Correction.Weighted>
   9.000000E+99

> <Gold.Protein.RotatedTorsions>
[ 6907 6896 6895 6894 ] final  -59.29 input  -60.11 | X-H torsion
[ 7974 7965 7964 7962 ] final -147.58 input  175.53 | X-H torsion
[ 8008 7997 7996 7995 ] final  164.28 input   59.86 | X-H torsion
[ 10167 10162 10161 10158 ] final -160.25 input  -65.29 | X-H torsion
[ 10718 10713 10712 10709 ] final  -96.55 input   66.30 | X-H torsion
[ 10763 10752 10751 10750 ] final   49.01 input  -60.55 | X-H torsion
[ 11005 11000 10999 10996 ] final   35.71 input  -57.11 | X-H torsion

> <Gold.Protein.ActiveResidues>
 VAL166  LYS551  ARG553  GLY616  TRP617  ASP618  TYR619  PRO620  LYS621  CYS622 
 ASP623  PHE694  ASN695  SER759  ASP760  ASP761  ALA762  ILE779  LEU786  VAL792 
 PHE793  MET794  SER795  GLU796  ALA797  LYS798  CYS799  TRP800  GLU811  SER814 

> <Gold.Protein.RotatedAtoms>
  150.7942  134.6988  159.6537 H   0  0  0  0  0  0  0  0  0  0  0  0  # atno 6907 bound_to 6896
  152.4052  134.6216  160.0062 H   0  0  0  0  0  0  0  0  0  0  0  0  # atno 6908 bound_to 6896
  151.6476  133.3285  159.3180 H   0  0  0  0  0  0  0  0  0  0  0  0  # atno 6909 bound_to 6896
  144.8084  140.5308  143.5659 H   0  0  0  0  0  0  0  0  0  0  0  0  # atno 7974 bound_to 7965
  156.1892  140.1701  156.8125 H   0  0  0  0  0  0  0  0  0  0  0  0  # atno 8008 bound_to 7997
  154.5451  140.0729  156.8607 H   0  0  0  0  0  0  0  0  0  0  0  0  # atno 8009 bound_to 7997
  155.3138  140.3369  155.4245 H   0  0  0  0  0  0  0  0  0  0  0  0  # atno 8010 bound_to 7997
  139.6554  144.0009  152.2190 H   0  0  0  0  0  0  0  0  0  0  0  0  # atno 10167 bound_to 10162
  156.0064  130.5156  150.6242 H   0  0  0  0  0  0  0  0  0  0  0  0  # atno 10718 bound_to 10713
  152.9789  135.5925  154.4019 H   0  0  0  0  0  0  0  0  0  0  0  0  # atno 10763 bound_to 10752
  154.3663  135.2767  155.2293 H   0  0  0  0  0  0  0  0  0  0  0  0  # atno 10764 bound_to 10752
  154.4268  135.6046  153.6098 H   0  0  0  0  0  0  0  0  0  0  0  0  # atno 10765 bound_to 10752
  140.2399  134.3427  155.7930 H   0  0  0  0  0  0  0  0  0  0  0  0  # atno 11005 bound_to 11000
  145.5383  139.1475  143.3461 LP  0  0  0  0  0  0  0  0  0  0  0  0  # atno 17320 bound_to 7965
  146.2379  140.5523  142.8947 LP  0  0  0  0  0  0  0  0  0  0  0  0  # atno 17321 bound_to 7965
  139.9734  144.6478  150.7968 LP  0  0  0  0  0  0  0  0  0  0  0  0  # atno 17342 bound_to 10162
  140.7556  143.3050  151.2984 LP  0  0  0  0  0  0  0  0  0  0  0  0  # atno 17343 bound_to 10162
  157.4052  131.0815  151.1272 LP  0  0  0  0  0  0  0  0  0  0  0  0  # atno 17370 bound_to 10713
  157.1921  130.6356  149.5708 LP  0  0  0  0  0  0  0  0  0  0  0  0  # atno 17371 bound_to 10713
  141.2211  133.7293  156.8868 LP  0  0  0  0  0  0  0  0  0  0  0  0  # atno 17394 bound_to 11000
  140.1664  134.9130  157.2779 LP  0  0  0  0  0  0  0  0  0  0  0  0  # atno 17395 bound_to 11000

$$$$
