AV-unprocessed.smi:532|AV-procd|sdf|2849|dock2
  -GOLD-   2262023343D 1   1.00000     0.00000
 Structure written by MMmdl.
 49 51  0  0  0  0  0  0  0  0  1 V2000
  149.6706  133.0934  154.7006 C   0  0  0  0  0  0  0  0  0  0  0  0
  148.4121  133.3789  155.2845 O   0  0  0  0  0  0  0  0  0  0  0  0
  148.3978  134.6255  155.9579 C   0  0  0  0  0  0  0  0  0  0  0  0
  149.0081  134.4404  157.3515 C   0  0  0  0  0  0  0  0  0  0  0  0
  149.4515  135.7110  157.9115 N   0  0  0  0  0  0  0  0  0  0  0  0
  149.0424  136.3341  159.0517 C   0  0  0  0  0  0  0  0  0  0  0  0
  148.0963  135.7828  159.9216 N   0  0  0  0  0  0  0  0  0  0  0  0
  148.0524  134.3454  160.1939 C   0  0  0  0  0  0  0  0  0  0  0  0
  147.7104  134.0293  161.6612 C   0  0  2  0  0  0  0  0  0  0  0  0
  147.7244  132.5175  161.9245 C   0  0  0  0  0  0  0  0  0  0  0  0
  146.3505  134.6484  162.0197 C   0  0  0  0  0  0  0  0  0  0  0  0
  146.3199  136.1472  161.6789 C   0  0  1  0  0  0  0  0  0  0  0  0
  147.0775  136.9979  162.7116 C   0  0  0  0  0  0  0  0  0  0  0  0
  146.7893  136.3774  160.2230 C   0  0  0  0  0  0  0  0  0  0  0  0
  149.5964  137.5343  159.2519 N   0  0  0  0  0  0  0  0  0  0  0  0
  150.4396  137.6830  158.1627 C   0  0  0  0  0  0  0  0  0  0  0  0
  150.3594  136.6060  157.3418 C   0  0  0  0  0  0  0  0  0  0  0  0
  151.1165  136.5170  156.0852 C   0  0  0  0  0  0  0  0  0  0  0  0
  151.0460  135.5617  155.3154 O   0  0  0  0  0  0  0  0  0  0  0  0
  151.8950  137.6022  155.8554 N   0  0  0  0  0  0  0  0  0  0  0  0
  152.0259  138.7136  156.6422 C   0  0  0  0  0  0  0  0  0  0  0  0
  152.7732  139.6282  156.2955 O   0  0  0  0  0  0  0  0  0  0  0  0
  151.3004  138.7597  157.8051 N   0  0  0  0  0  0  0  0  0  0  0  0
  151.3993  139.9257  158.6849 C   0  0  0  0  0  0  0  0  0  0  0  0
  152.4366  137.5918  155.0035 H   0  0  0  0  0  0  0  0  0  0  0  0
  149.6316  132.1253  154.2016 H   0  0  0  0  0  0  0  0  0  0  0  0
  150.4562  133.0516  155.4564 H   0  0  0  0  0  0  0  0  0  0  0  0
  149.9391  133.8446  153.9566 H   0  0  0  0  0  0  0  0  0  0  0  0
  148.9652  135.3655  155.3913 H   0  0  0  0  0  0  0  0  0  0  0  0
  147.3733  134.9921  156.0436 H   0  0  0  0  0  0  0  0  0  0  0  0
  148.2882  133.9759  158.0148 H   0  0  0  0  0  0  0  0  0  0  0  0
  149.8450  133.7448  157.3168 H   0  0  0  0  0  0  0  0  0  0  0  0
  147.3278  133.8782  159.5253 H   0  0  0  0  0  0  0  0  0  0  0  0
  149.0217  133.9078  159.9516 H   0  0  0  0  0  0  0  0  0  0  0  0
  148.4778  134.4768  162.2939 H   0  0  0  0  0  0  0  0  0  0  0  0
  146.9823  132.0018  161.3143 H   0  0  0  0  0  0  0  0  0  0  0  0
  147.5063  132.2995  162.9701 H   0  0  0  0  0  0  0  0  0  0  0  0
  148.7002  132.0886  161.6952 H   0  0  0  0  0  0  0  0  0  0  0  0
  145.5659  134.1405  161.4568 H   0  0  0  0  0  0  0  0  0  0  0  0
  146.1209  134.4905  163.0741 H   0  0  0  0  0  0  0  0  0  0  0  0
  145.2788  136.4671  161.7339 H   0  0  0  0  0  0  0  0  0  0  0  0
  148.1430  136.7737  162.7198 H   0  0  0  0  0  0  0  0  0  0  0  0
  146.6975  136.8202  163.7179 H   0  0  0  0  0  0  0  0  0  0  0  0
  146.9598  138.0618  162.5067 H   0  0  0  0  0  0  0  0  0  0  0  0
  146.7803  137.4388  159.9794 H   0  0  0  0  0  0  0  0  0  0  0  0
  146.0627  135.9274  159.5450 H   0  0  0  0  0  0  0  0  0  0  0  0
  152.4400  140.1345  158.9367 H   0  0  0  0  0  0  0  0  0  0  0  0
  150.8636  139.7879  159.6239 H   0  0  0  0  0  0  0  0  0  0  0  0
  150.9834  140.8067  158.1947 H   0  0  0  0  0  0  0  0  0  0  0  0
  1  2  1  0  0  0  0
  1 26  1  0  0  0  0
  1 27  1  0  0  0  0
  1 28  1  0  0  0  0
  2  3  1  0  0  0  0
  3  4  1  0  0  0  0
  3 29  1  0  0  0  0
  3 30  1  0  0  0  0
  4  5  1  0  0  0  0
  4 31  1  0  0  0  0
  4 32  1  0  0  0  0
  5 17  1  0  0  0  0
  5  6  1  0  0  0  0
  6  7  1  0  0  0  0
  6 15  2  0  0  0  0
  7 14  1  0  0  0  0
  7  8  1  0  0  0  0
  8  9  1  0  0  0  0
  8 33  1  0  0  0  0
  8 34  1  0  0  0  0
  9 10  1  0  0  0  0
  9 11  1  0  0  0  0
  9 35  1  0  0  0  0
 10 36  1  0  0  0  0
 10 37  1  0  0  0  0
 10 38  1  0  0  0  0
 11 12  1  0  0  0  0
 11 39  1  0  0  0  0
 11 40  1  0  0  0  0
 12 13  1  0  0  0  0
 12 14  1  0  0  0  0
 12 41  1  0  0  0  0
 13 42  1  0  0  0  0
 13 43  1  0  0  0  0
 13 44  1  0  0  0  0
 14 45  1  0  0  0  0
 14 46  1  0  0  0  0
 15 16  1  0  0  0  0
 16 23  1  0  0  0  0
 16 17  2  0  0  0  0
 17 18  1  0  0  0  0
 18 19  2  0  0  0  0
 18 20  1  0  0  0  0
 20 25  1  0  0  0  0
 20 21  1  0  0  0  0
 21 22  2  0  0  0  0
 21 23  1  0  0  0  0
 23 24  1  0  0  0  0
 24 47  1  0  0  0  0
 24 48  1  0  0  0  0
 24 49  1  0  0  0  0
M  END
> <s_m_source_file>
AV-unprocessed.smi

> <i_m_source_file_index>
532

> <i_lp_mmshare_version>
43012

> <i_f3d_flags>
0

> <s_epik_input>
W0NIM11uMWMoPU8pW25IXWMoPU8pYyhjMTIpbihbQ0gyXVtDSDJdT1tDSDNdKWMobjIpTjNbQ0gyXVtDQEBIXShbQ0gzXSlbQ0gyXVtDQEBIXShbQ0gzXSlbQ0gyXTM=

> <s_epik_cmdline>
J2VwaWtfcHl0aG9uJywgJy1waCcsICc3LjAnLCAnLXRuJywgJzgnLCAnLW1hJywgJzIwMCcsICctbWV0YWxfYmluZGluZycsICctaW1hZScsICc8aW5maWxlLm1hZT4nLCAnLW9tYWUnLCAnPG91dGZpbGUubWFlPic=

> <r_lp_tautomer_probability>
1

> <r_epik_Ionization_Penalty>
0.000642525

> <r_epik_Ionization_Penalty_Charging>
0.000121571

> <r_epik_Ionization_Penalty_Neutral>
0.000520954

> <r_epik_State_Penalty>
-0

> <r_epik_Charging_Adjusted_Penalty>
0.000121571

> <i_epik_Tot_Q>
0

> <i_epik_Tot_abs_Q>
0

> <r_epik_Metal_State_Penalty>
0.0931709

> <b_epik_Metal_Only>
0

> <s_lp_Force_Field>
OPLS_2005

> <r_lp_Energy>
41.4845

> <b_lp_Chiralities_Consistent>
1

> <s_lp_Variant>
AV-unprocessed.smi:532-2

> <Gold.Version>
5.8.1

> <Gold.Id.Protein>
6NUR|6NUR_protein|mol2

> <Gold.PLP.Fitness>
36.5430

> <Gold.PLP.PLP>
-32.2723

> <Gold.PLP.part.hbond>
-2.7116

> <Gold.PLP.part.metal>
0.0000

> <Gold.PLP.part.buried>
-4.6920

> <Gold.PLP.part.nonpolar>
-26.1116

> <Gold.PLP.part.repulsive>
0.2571

> <Gold.PLP.ligand.clash>
0.0000

> <Gold.PLP.ligand.torsion>
1.0542

> <Gold.PLP.Chemscore.Hbond>
1.9913

> <Gold.PLP.Chemscore.CHOScore>
0.0000

> <Gold.PLP.Chemscore.Metal>
0.0000

> <Gold.Chemscore.Hbonds>
donor molecule, donor type, donor heavy atom, donor atom, acceptor molecule, acceptor atom, score
      P1  H  7997  8008       L1    22  1.00
      P1  H 10752 10765       L1    19  0.95

> <Gold.PLP.Chemscore.Internal.Correction>
0.4055

> <Gold.Rescore>
     Score         DG    S(hbond)    S(metal)    S(lipo)     H(rot)  DE(clash)    DE(int)     intcor
     14.13     -16.05       1.96        0.00      65.69       1.43       0.06       1.85       ----

> <Gold.Chemscore.Fitness>
14.1341

> <Gold.Chemscore.DG>
-16.0471

> <Gold.Chemscore.ZeroCoef>
-5.4800

> <Gold.Chemscore.Hbond>
1.9606

> <Gold.Chemscore.Metal>
0.0000

> <Gold.Chemscore.Lipo>
65.6898

> <Gold.Chemscore.Internal_Hbond>
0.0000

> <Gold.Chemscore.DEClash>
0.0640

> <Gold.Chemscore.DEInternal>
1.8490

> <Gold.Chemscore.Rot>
1.4324

> <Gold.Chemscore.Internal.Correction>
   9.000000E+99

> <Gold.Chemscore.Hbonds>
donor molecule, donor type, donor heavy atom, donor atom, acceptor molecule, acceptor atom, score
      P1  H  7997  8008       L1    22  1.00
      P1  H 10752 10765       L1    19  0.20

> <Gold.Chemscore.Hbond.Weighted>
-6.5483

> <Gold.Chemscore.Metal.Weighted>
-0.0000

> <Gold.Chemscore.Lipo.Weighted>
-7.6857

> <Gold.Chemscore.Internal_Hbond.Weighted>
0.0000

> <Gold.Chemscore.DEClash.Weighted>
0.0640

> <Gold.Chemscore.DEInternal.Weighted>
1.8490

> <Gold.Chemscore.Rot.Weighted>
3.6669

> <Gold.Chemscore.Internal.Correction.Weighted>
   9.000000E+99

> <Gold.Protein.RotatedTorsions>
[ 6907 6896 6895 6894 ] final -164.36 input  -60.11 | X-H torsion
[ 7974 7965 7964 7962 ] final  -85.25 input  175.53 | X-H torsion
[ 8008 7997 7996 7995 ] final  -41.78 input   59.86 | X-H torsion
[ 10167 10162 10161 10158 ] final  -88.38 input  -65.29 | X-H torsion
[ 10718 10713 10712 10709 ] final -122.46 input   66.30 | X-H torsion
[ 10763 10752 10751 10750 ] final -177.72 input  -60.55 | X-H torsion
[ 11005 11000 10999 10996 ] final -114.40 input  -57.11 | X-H torsion

> <Gold.Protein.ActiveResidues>
 VAL166  LYS551  ARG553  GLY616  TRP617  ASP618  TYR619  PRO620  LYS621  CYS622 
 ASP623  PHE694  ASN695  SER759  ASP760  ASP761  ALA762  ILE779  LEU786  VAL792 
 PHE793  MET794  SER795  GLU796  ALA797  LYS798  CYS799  TRP800  GLU811  SER814 

> <Gold.Protein.RotatedAtoms>
  151.4106  133.3728  159.2743 H   0  0  0  0  0  0  0  0  0  0  0  0  # atno 6907 bound_to 6896
  150.9366  134.8779  159.7596 H   0  0  0  0  0  0  0  0  0  0  0  0  # atno 6908 bound_to 6896
  152.5052  134.4054  159.9483 H   0  0  0  0  0  0  0  0  0  0  0  0  # atno 6909 bound_to 6896
  145.4957  140.9550  143.1787 H   0  0  0  0  0  0  0  0  0  0  0  0  # atno 7974 bound_to 7965
  154.4002  140.1490  156.3247 H   0  0  0  0  0  0  0  0  0  0  0  0  # atno 8008 bound_to 7997
  155.8497  140.3458  155.5664 H   0  0  0  0  0  0  0  0  0  0  0  0  # atno 8009 bound_to 7997
  155.7997  140.0868  157.1954 H   0  0  0  0  0  0  0  0  0  0  0  0  # atno 8010 bound_to 7997
  140.3752  143.2775  151.9451 H   0  0  0  0  0  0  0  0  0  0  0  0  # atno 10167 bound_to 10162
  156.1421  130.6473  150.9786 H   0  0  0  0  0  0  0  0  0  0  0  0  # atno 10718 bound_to 10713
  154.5566  135.2817  155.0959 H   0  0  0  0  0  0  0  0  0  0  0  0  # atno 10763 bound_to 10752
  154.2384  135.6361  153.5202 H   0  0  0  0  0  0  0  0  0  0  0  0  # atno 10764 bound_to 10752
  153.0017  135.5554  154.6148 H   0  0  0  0  0  0  0  0  0  0  0  0  # atno 10765 bound_to 10752
  141.0554  133.9620  157.2763 H   0  0  0  0  0  0  0  0  0  0  0  0  # atno 11005 bound_to 11000
  144.7808  139.6530  143.7155 LP  0  0  0  0  0  0  0  0  0  0  0  0  # atno 17320 bound_to 7965
  146.2257  139.5717  142.9589 LP  0  0  0  0  0  0  0  0  0  0  0  0  # atno 17321 bound_to 7965
  139.4800  144.5870  151.7837 LP  0  0  0  0  0  0  0  0  0  0  0  0  # atno 17342 bound_to 10162
  140.4993  144.1193  150.5967 LP  0  0  0  0  0  0  0  0  0  0  0  0  # atno 17343 bound_to 10162
  157.6584  131.0885  150.7894 LP  0  0  0  0  0  0  0  0  0  0  0  0  # atno 17370 bound_to 10713
  156.7968  130.4908  149.5376 LP  0  0  0  0  0  0  0  0  0  0  0  0  # atno 17371 bound_to 10713
  139.9386  135.0194  156.8635 LP  0  0  0  0  0  0  0  0  0  0  0  0  # atno 17394 bound_to 11000
  140.5974  134.0204  155.7523 LP  0  0  0  0  0  0  0  0  0  0  0  0  # atno 17395 bound_to 11000

$$$$
