AV-unprocessed.smi:1157|AV-procd|sdf|4907|dock5
  -GOLD-   22720 3483D 1   1.00000     0.00000
 Structure written by MMmdl.
 55 57  0  0  0  0  0  0  0  0  2 V2000
  144.0434  135.9124  152.6430 C   0  0  0  0  0  0  0  0  0  0  0  0
  145.4263  136.1326  151.9795 C   0  0  0  0  0  0  0  0  0  0  0  0
  145.2768  135.6624  150.5109 C   0  0  0  0  0  0  0  0  0  0  0  0
  145.8132  137.6423  152.0090 C   0  0  0  0  0  0  0  0  0  0  0  0
  147.1888  137.8838  152.4437 N   0  0  0  0  0  0  0  0  0  0  0  0
  147.5580  138.6888  153.4504 C   0  0  0  0  0  0  0  0  0  0  0  0
  146.7606  139.3399  154.1249 O   0  0  0  0  0  0  0  0  0  0  0  0
  148.8940  138.7025  153.5955 N   0  0  0  0  0  0  0  0  0  0  0  0
  149.6748  139.4241  154.5385 C   0  0  0  0  0  0  0  0  0  0  0  0
  150.9317  138.9985  155.0280 C   0  0  0  0  0  0  0  0  0  0  0  0
  151.6171  139.8145  155.9482 C   0  0  0  0  0  0  0  0  0  0  0  0
  151.0367  141.0409  156.3499 C   0  0  0  0  0  0  0  0  0  0  0  0
  151.6882  141.8825  157.2730 N   0  0  0  0  0  0  0  0  0  0  0  0
  152.2970  141.3637  158.4882 C   0  0  0  0  0  0  0  0  0  0  0  0
  152.7522  142.6059  159.2524 C   0  0  0  0  0  0  0  0  0  0  0  0
  151.7062  143.6525  158.8680 C   0  0  0  0  0  0  0  0  0  0  0  0
  151.3141  143.2811  157.4333 C   0  0  0  0  0  0  0  0  0  0  0  0
  149.8361  141.4492  155.8746 N   0  0  0  0  0  0  0  0  0  0  0  0
  149.1838  140.6646  154.9918 C   0  0  0  0  0  0  0  0  0  0  0  0
  146.4587  135.2882  152.6830 N   0  3  0  0  0  0  0  0  0  0  0  0
  146.5564  135.4748  154.1586 C   0  0  0  0  0  0  0  0  0  0  0  0
  147.7608  134.7030  154.7237 C   0  0  0  0  0  0  0  0  0  0  0  0
  147.6452  133.3258  154.3969 O   0  0  0  0  0  0  0  0  0  0  0  0
  147.6421  133.1189  152.9917 C   0  0  0  0  0  0  0  0  0  0  0  0
  146.4314  133.8316  152.3665 C   0  0  0  0  0  0  0  0  0  0  0  0
  143.2342  136.3276  152.0413 H   0  0  0  0  0  0  0  0  0  0  0  0
  143.9701  136.3922  153.6188 H   0  0  0  0  0  0  0  0  0  0  0  0
  143.8285  134.8511  152.7729 H   0  0  0  0  0  0  0  0  0  0  0  0
  144.4059  136.1099  150.0304 H   0  0  0  0  0  0  0  0  0  0  0  0
  145.1532  134.5805  150.4501 H   0  0  0  0  0  0  0  0  0  0  0  0
  146.1339  135.9387  149.8971 H   0  0  0  0  0  0  0  0  0  0  0  0
  145.6502  138.1086  151.0371 H   0  0  0  0  0  0  0  0  0  0  0  0
  145.1755  138.1836  152.7070 H   0  0  0  0  0  0  0  0  0  0  0  0
  147.9146  137.3939  151.9411 H   0  0  0  0  0  0  0  0  0  0  0  0
  149.4207  138.1761  152.9139 H   0  0  0  0  0  0  0  0  0  0  0  0
  151.3897  138.0747  154.7109 H   0  0  0  0  0  0  0  0  0  0  0  0
  152.5720  139.4880  156.3323 H   0  0  0  0  0  0  0  0  0  0  0  0
  151.5519  140.8102  159.0615 H   0  0  0  0  0  0  0  0  0  0  0  0
  153.1314  140.6967  158.2685 H   0  0  0  0  0  0  0  0  0  0  0  0
  152.8185  142.4421  160.3282 H   0  0  0  0  0  0  0  0  0  0  0  0
  153.7345  142.9199  158.8962 H   0  0  0  0  0  0  0  0  0  0  0  0
  150.8375  143.5537  159.5203 H   0  0  0  0  0  0  0  0  0  0  0  0
  152.0742  144.6753  158.9545 H   0  0  0  0  0  0  0  0  0  0  0  0
  151.8718  143.8796  156.7123 H   0  0  0  0  0  0  0  0  0  0  0  0
  150.2491  143.4455  157.2667 H   0  0  0  0  0  0  0  0  0  0  0  0
  148.2340  141.0405  154.6398 H   0  0  0  0  0  0  0  0  0  0  0  0
  146.6824  136.5226  154.4236 H   0  0  0  0  0  0  0  0  0  0  0  0
  145.6453  135.1260  154.6453 H   0  0  0  0  0  0  0  0  0  0  0  0
  148.6985  135.1053  154.3367 H   0  0  0  0  0  0  0  0  0  0  0  0
  147.7957  134.8053  155.8084 H   0  0  0  0  0  0  0  0  0  0  0  0
  148.5753  133.4776  152.5545 H   0  0  0  0  0  0  0  0  0  0  0  0
  147.5897  132.0480  152.7942 H   0  0  0  0  0  0  0  0  0  0  0  0
  145.5151  133.3784  152.7451 H   0  0  0  0  0  0  0  0  0  0  0  0
  146.4592  133.6527  151.2936 H   0  0  0  0  0  0  0  0  0  0  0  0
  147.3420  135.6169  152.3193 H   0  0  0  0  0  0  0  0  0  0  0  0
  1  2  1  0  0  0  0
  1 26  1  0  0  0  0
  1 27  1  0  0  0  0
  1 28  1  0  0  0  0
  2  3  1  0  0  0  0
  2  4  1  0  0  0  0
  2 20  1  0  0  0  0
  3 29  1  0  0  0  0
  3 30  1  0  0  0  0
  3 31  1  0  0  0  0
  4  5  1  0  0  0  0
  4 32  1  0  0  0  0
  4 33  1  0  0  0  0
  5  6  1  0  0  0  0
  5 34  1  0  0  0  0
  6  7  2  0  0  0  0
  6  8  1  0  0  0  0
  8  9  1  0  0  0  0
  8 35  1  0  0  0  0
  9 19  1  0  0  0  0
  9 10  2  0  0  0  0
 10 11  1  0  0  0  0
 10 36  1  0  0  0  0
 11 12  2  0  0  0  0
 11 37  1  0  0  0  0
 12 13  1  0  0  0  0
 12 18  1  0  0  0  0
 13 17  1  0  0  0  0
 13 14  1  0  0  0  0
 14 15  1  0  0  0  0
 14 38  1  0  0  0  0
 14 39  1  0  0  0  0
 15 16  1  0  0  0  0
 15 40  1  0  0  0  0
 15 41  1  0  0  0  0
 16 17  1  0  0  0  0
 16 42  1  0  0  0  0
 16 43  1  0  0  0  0
 17 44  1  0  0  0  0
 17 45  1  0  0  0  0
 18 19  2  0  0  0  0
 19 46  1  0  0  0  0
 20 25  1  0  0  0  0
 20 21  1  0  0  0  0
 20 55  1  0  0  0  0
 21 22  1  0  0  0  0
 21 47  1  0  0  0  0
 21 48  1  0  0  0  0
 22 23  1  0  0  0  0
 22 49  1  0  0  0  0
 22 50  1  0  0  0  0
 23 24  1  0  0  0  0
 24 25  1  0  0  0  0
 24 51  1  0  0  0  0
 24 52  1  0  0  0  0
 25 53  1  0  0  0  0
 25 54  1  0  0  0  0
M  CHG  1  20   1
M  END
> <s_m_source_file>
AV-unprocessed.smi

> <i_m_source_file_index>
1157

> <i_lp_mmshare_version>
43012

> <i_f3d_flags>
0

> <s_epik_input>
W0NIMl0xW0NIMl1PW0NIMl1bQ0gyXU4xQyhbQ0gzXSkoW0NIM10pW0NIMl1bTkhdQyg9TylbTkhdYzJbY0hdW2NIXWMobltjSF0yKU4zW0NIMl1bQ0gyXVtDSDJdW0NIMl0z

> <s_epik_cmdline>
J2VwaWtfcHl0aG9uJywgJy1waCcsICc3LjAnLCAnLXRuJywgJzgnLCAnLW1hJywgJzIwMCcsICctbWV0YWxfYmluZGluZycsICctaW1hZScsICc8aW5maWxlLm1hZT4nLCAnLW9tYWUnLCAnPG91dGZpbGUubWFlPic=

> <r_lp_tautomer_probability>
1

> <r_epik_Ionization_Penalty>
0.687101

> <r_epik_Ionization_Penalty_Charging>
0.602531

> <r_epik_Ionization_Penalty_Neutral>
0.0845707

> <r_epik_State_Penalty>
0.681137

> <r_epik_Charging_Adjusted_Penalty>
1.28367

> <i_epik_Tot_Q>
1

> <i_epik_Tot_abs_Q>
1

> <r_epik_Metal_State_Penalty>
0.680046

> <b_epik_Metal_Only>
0

> <s_lp_Force_Field>
OPLS_2005

> <r_lp_Energy>
50.3969

> <b_lp_Chiralities_Consistent>
1

> <s_lp_Variant>
AV-unprocessed.smi:1157-2

> <Gold.Version>
5.8.1

> <Gold.Id.Protein>
6NUR|6NUR_protein|mol2

> <Gold.PLP.Fitness>
50.6392

> <Gold.PLP.PLP>
-44.4594

> <Gold.PLP.part.hbond>
-3.8075

> <Gold.PLP.part.metal>
0.0000

> <Gold.PLP.part.buried>
-3.2527

> <Gold.PLP.part.nonpolar>
-38.6650

> <Gold.PLP.part.repulsive>
0.4304

> <Gold.PLP.ligand.clash>
0.0000

> <Gold.PLP.ligand.torsion>
1.9295

> <Gold.PLP.Chemscore.Hbond>
3.2503

> <Gold.PLP.Chemscore.CHOScore>
0.0000

> <Gold.PLP.Chemscore.Metal>
0.0000

> <Gold.Chemscore.Hbonds>
donor molecule, donor type, donor heavy atom, donor atom, acceptor molecule, acceptor atom, score
      L1  H     5    34       P1  7948  1.00
      L1  H     8    35       P1  7948  0.34
      L1  H    20    55       P1  7948  2.00

> <Gold.PLP.Chemscore.Internal.Correction>
0.2879

> <Gold.Rescore>
     Score         DG    S(hbond)    S(metal)    S(lipo)     H(rot)  DE(clash)    DE(int)     intcor
     17.45     -20.95       1.99        0.00     106.65       1.42       0.32       3.18       ----

> <Gold.Chemscore.Fitness>
17.4460

> <Gold.Chemscore.DG>
-20.9471

> <Gold.Chemscore.ZeroCoef>
-5.4800

> <Gold.Chemscore.Hbond>
1.9866

> <Gold.Chemscore.Metal>
0.0000

> <Gold.Chemscore.Lipo>
106.6496

> <Gold.Chemscore.Internal_Hbond>
0.0000

> <Gold.Chemscore.DEClash>
0.3203

> <Gold.Chemscore.DEInternal>
3.1807

> <Gold.Chemscore.Rot>
1.4243

> <Gold.Chemscore.Internal.Correction>
   9.000000E+99

> <Gold.Chemscore.Hbonds>
donor molecule, donor type, donor heavy atom, donor atom, acceptor molecule, acceptor atom, score
      L1  H     5    34       P1  7948  0.90
      L1  H     8    35       P1  7948  0.30
      L1  H    20    55       P1  7948  1.00

> <Gold.Chemscore.Hbond.Weighted>
-6.6352

> <Gold.Chemscore.Metal.Weighted>
-0.0000

> <Gold.Chemscore.Lipo.Weighted>
-12.4780

> <Gold.Chemscore.Internal_Hbond.Weighted>
0.0000

> <Gold.Chemscore.DEClash.Weighted>
0.3203

> <Gold.Chemscore.DEInternal.Weighted>
3.1807

> <Gold.Chemscore.Rot.Weighted>
3.6462

> <Gold.Chemscore.Internal.Correction.Weighted>
   9.000000E+99

> <Gold.Protein.RotatedTorsions>
[ 6907 6896 6895 6894 ] final  -52.58 input  -60.11 | X-H torsion
[ 7974 7965 7964 7962 ] final  -82.82 input  175.53 | X-H torsion
[ 8008 7997 7996 7995 ] final   94.34 input   59.86 | X-H torsion
[ 10167 10162 10161 10158 ] final  -11.78 input  -65.29 | X-H torsion
[ 10718 10713 10712 10709 ] final  -67.16 input   66.30 | X-H torsion
[ 10763 10752 10751 10750 ] final   -8.28 input  -60.55 | X-H torsion
[ 11005 11000 10999 10996 ] final  -13.68 input  -57.11 | X-H torsion

> <Gold.Protein.ActiveResidues>
 VAL166  LYS551  ARG553  GLY616  TRP617  ASP618  TYR619  PRO620  LYS621  CYS622 
 ASP623  PHE694  ASN695  SER759  ASP760  ASP761  ALA762  ILE779  LEU786  VAL792 
 PHE793  MET794  SER795  GLU796  ALA797  LYS798  CYS799  TRP800  GLU811  SER814 

> <Gold.Protein.RotatedAtoms>
  150.8504  134.7827  159.7004 H   0  0  0  0  0  0  0  0  0  0  0  0  # atno 6907 bound_to 6896
  152.4570  134.5265  159.9808 H   0  0  0  0  0  0  0  0  0  0  0  0  # atno 6908 bound_to 6896
  151.5387  133.3398  159.2967 H   0  0  0  0  0  0  0  0  0  0  0  0  # atno 6909 bound_to 6896
  145.5282  140.9524  143.1617 H   0  0  0  0  0  0  0  0  0  0  0  0  # atno 7974 bound_to 7965
  156.0569  140.3301  155.7415 H   0  0  0  0  0  0  0  0  0  0  0  0  # atno 8008 bound_to 7997
  155.5516  140.0611  157.2866 H   0  0  0  0  0  0  0  0  0  0  0  0  # atno 8009 bound_to 7997
  154.4462  140.1893  156.0680 H   0  0  0  0  0  0  0  0  0  0  0  0  # atno 8010 bound_to 7997
  140.7146  143.5602  150.9204 H   0  0  0  0  0  0  0  0  0  0  0  0  # atno 10167 bound_to 10162
  156.0573  130.4273  150.1814 H   0  0  0  0  0  0  0  0  0  0  0  0  # atno 10718 bound_to 10713
  153.4383  135.7013  153.6185 H   0  0  0  0  0  0  0  0  0  0  0  0  # atno 10763 bound_to 10752
  153.4571  135.3744  155.2317 H   0  0  0  0  0  0  0  0  0  0  0  0  # atno 10764 bound_to 10752
  154.8727  135.4011  154.3777 H   0  0  0  0  0  0  0  0  0  0  0  0  # atno 10765 bound_to 10752
  140.7786  133.8381  155.9271 H   0  0  0  0  0  0  0  0  0  0  0  0  # atno 11005 bound_to 11000
  144.7640  139.6890  143.7222 LP  0  0  0  0  0  0  0  0  0  0  0  0  # atno 17320 bound_to 7965
  146.2061  139.5387  142.9711 LP  0  0  0  0  0  0  0  0  0  0  0  0  # atno 17321 bound_to 7965
  139.9328  143.6473  152.3072 LP  0  0  0  0  0  0  0  0  0  0  0  0  # atno 17342 bound_to 10162
  139.6930  144.7644  151.1405 LP  0  0  0  0  0  0  0  0  0  0  0  0  # atno 17343 bound_to 10162
  156.9888  130.9887  151.3420 LP  0  0  0  0  0  0  0  0  0  0  0  0  # atno 17370 bound_to 10713
  157.5553  130.8209  149.8196 LP  0  0  0  0  0  0  0  0  0  0  0  0  # atno 17371 bound_to 10713
  140.9505  134.1785  157.4731 LP  0  0  0  0  0  0  0  0  0  0  0  0  # atno 17394 bound_to 11000
  139.8745  134.9907  156.5515 LP  0  0  0  0  0  0  0  0  0  0  0  0  # atno 17395 bound_to 11000

$$$$
