AV-unprocessed.smi:34|AV-procd|sdf|238|dock9
  -GOLD-   2262015583D 1   1.00000     0.00000
 Structure written by MMmdl.
 54 58  0  0  0  0  0  0  0  0  2 V2000
  153.6599  140.5607  159.8845 O   0  0  0  0  0  0  0  0  0  0  0  0
  152.7270  141.1211  159.3049 C   0  0  0  0  0  0  0  0  0  0  0  0
  151.8487  140.5801  158.4232 N   0  5  0  0  0  0  0  0  0  0  0  0
  152.0754  139.3603  157.9128 C   0  0  0  0  0  0  0  0  0  0  0  0
  153.3236  139.0044  157.5163 N   0  0  0  0  0  0  0  0  0  0  0  0
  153.5470  137.7923  156.9963 C   0  0  0  0  0  0  0  0  0  0  0  0
  152.6801  136.7989  156.7800 N   0  0  0  0  0  0  0  0  0  0  0  0
  151.4180  137.1443  157.1678 C   0  0  0  0  0  0  0  0  0  0  0  0
  151.0438  138.3977  157.7358 C   0  0  0  0  0  0  0  0  0  0  0  0
  149.6863  138.4263  158.0172 N   0  0  0  0  0  0  0  0  0  0  0  0
  149.3048  137.2154  157.6195 C   0  0  0  0  0  0  0  0  0  0  0  0
  150.2493  136.3981  157.1121 N   0  0  0  0  0  0  0  0  0  0  0  0
  150.0429  135.0025  156.6036 C   0  0  1  0  0  0  0  0  0  0  0  0
  148.6752  134.7140  156.5704 O   0  0  0  0  0  0  0  0  0  0  0  0
  148.2627  134.4568  155.2314 C   0  0  2  0  0  0  0  0  0  0  0  0
  147.0636  133.5011  155.2068 C   0  0  0  0  0  0  0  0  0  0  0  0
  146.3312  133.6925  154.0069 O   0  0  0  0  0  0  0  0  0  0  0  0
  146.0521  132.6408  153.2123 C   0  0  0  0  0  0  0  0  0  0  0  0
  146.3477  131.4770  153.4916 O   0  0  0  0  0  0  0  0  0  0  0  0
  145.3536  133.0330  151.9544 C   0  0  0  0  0  0  0  0  0  0  0  0
  144.9737  132.0304  151.0316 C   0  0  0  0  0  0  0  0  0  0  0  0
  144.3149  132.3699  149.8338 C   0  0  0  0  0  0  0  0  0  0  0  0
  144.0261  133.7164  149.5450 C   0  0  0  0  0  0  0  0  0  0  0  0
  144.3973  134.7231  150.4553 C   0  0  0  0  0  0  0  0  0  0  0  0
  145.0577  134.3855  151.6530 C   0  0  0  0  0  0  0  0  0  0  0  0
  149.5252  133.9370  154.5421 C   0  0  2  0  0  0  0  0  0  0  0  0
  149.7270  132.6496  154.8311 F   0  0  0  0  0  0  0  0  0  0  0  0
  150.6148  134.7730  155.1884 C   0  0  1  0  0  0  0  0  0  0  0  0
  150.8540  135.9557  154.4465 O   0  0  0  0  0  0  0  0  0  0  0  0
  152.5253  142.5985  159.5134 C   0  0  0  0  0  0  0  0  0  0  0  0
  152.5553  143.1322  160.8222 C   0  0  0  0  0  0  0  0  0  0  0  0
  152.3434  144.5076  161.0400 C   0  0  0  0  0  0  0  0  0  0  0  0
  152.0900  145.3634  159.9517 C   0  0  0  0  0  0  0  0  0  0  0  0
  152.0437  144.8417  158.6456 C   0  0  0  0  0  0  0  0  0  0  0  0
  152.2556  143.4663  158.4268 C   0  0  0  0  0  0  0  0  0  0  0  0
  154.5688  137.5895  156.7115 H   0  0  0  0  0  0  0  0  0  0  0  0
  148.2743  136.9029  157.7031 H   0  0  0  0  0  0  0  0  0  0  0  0
  150.5125  134.3651  157.3538 H   0  0  0  0  0  0  0  0  0  0  0  0
  147.9754  135.4040  154.7752 H   0  0  0  0  0  0  0  0  0  0  0  0
  147.4008  132.4673  155.2929 H   0  0  0  0  0  0  0  0  0  0  0  0
  146.4105  133.7023  156.0568 H   0  0  0  0  0  0  0  0  0  0  0  0
  145.1863  130.9898  151.2311 H   0  0  0  0  0  0  0  0  0  0  0  0
  144.0315  131.5953  149.1363 H   0  0  0  0  0  0  0  0  0  0  0  0
  143.5203  133.9766  148.6267 H   0  0  0  0  0  0  0  0  0  0  0  0
  144.1753  135.7570  150.2353 H   0  0  0  0  0  0  0  0  0  0  0  0
  145.3275  135.1826  152.3305 H   0  0  0  0  0  0  0  0  0  0  0  0
  149.4900  134.0221  153.4552 H   0  0  0  0  0  0  0  0  0  0  0  0
  151.5559  134.2265  155.2610 H   0  0  0  0  0  0  0  0  0  0  0  0
  151.0907  135.7147  153.5637 H   0  0  0  0  0  0  0  0  0  0  0  0
  152.7471  142.4885  161.6688 H   0  0  0  0  0  0  0  0  0  0  0  0
  152.3740  144.9055  162.0436 H   0  0  0  0  0  0  0  0  0  0  0  0
  151.9271  146.4177  160.1189 H   0  0  0  0  0  0  0  0  0  0  0  0
  151.8429  145.4955  157.8099 H   0  0  0  0  0  0  0  0  0  0  0  0
  152.2049  143.0847  157.4172 H   0  0  0  0  0  0  0  0  0  0  0  0
  1  2  2  0  0  0  0
  2  3  1  0  0  0  0
  2 30  1  0  0  0  0
  3  4  1  0  0  0  0
  4  9  1  0  0  0  0
  4  5  2  0  0  0  0
  5  6  1  0  0  0  0
  6  7  2  0  0  0  0
  6 36  1  0  0  0  0
  7  8  1  0  0  0  0
  8 12  1  0  0  0  0
  8  9  2  0  0  0  0
  9 10  1  0  0  0  0
 10 11  2  0  0  0  0
 11 12  1  0  0  0  0
 11 37  1  0  0  0  0
 12 13  1  0  0  0  0
 13 28  1  0  0  0  0
 13 14  1  0  0  0  0
 13 38  1  0  0  0  0
 14 15  1  0  0  0  0
 15 16  1  0  0  0  0
 15 26  1  0  0  0  0
 15 39  1  0  0  0  0
 16 17  1  0  0  0  0
 16 40  1  0  0  0  0
 16 41  1  0  0  0  0
 17 18  1  0  0  0  0
 18 19  2  0  0  0  0
 18 20  1  0  0  0  0
 20 25  1  0  0  0  0
 20 21  2  0  0  0  0
 21 22  1  0  0  0  0
 21 42  1  0  0  0  0
 22 23  2  0  0  0  0
 22 43  1  0  0  0  0
 23 24  1  0  0  0  0
 23 44  1  0  0  0  0
 24 25  2  0  0  0  0
 24 45  1  0  0  0  0
 25 46  1  0  0  0  0
 26 27  1  0  0  0  0
 26 28  1  0  0  0  0
 26 47  1  0  0  0  0
 28 29  1  0  0  0  0
 28 48  1  0  0  0  0
 29 49  1  0  0  0  0
 30 35  1  0  0  0  0
 30 31  2  0  0  0  0
 31 32  1  0  0  0  0
 31 50  1  0  0  0  0
 32 33  2  0  0  0  0
 32 51  1  0  0  0  0
 33 34  1  0  0  0  0
 33 52  1  0  0  0  0
 34 35  2  0  0  0  0
 34 53  1  0  0  0  0
 35 54  1  0  0  0  0
M  CHG  1   3  -1
M  END
> <s_m_source_file>
AV-unprocessed.smi

> <i_m_source_file_index>
34

> <i_lp_mmshare_version>
43012

> <i_f3d_flags>
0

> <s_epik_input>
W2NIXTFbY0hdW2NIXVtjSF1bY0hdYzFDKD1PKVtOSF1jKG5bY0hdbjIpYyhjMjMpbltjSF1uM1tDQEBIXTRPW0NASF0oW0NAQEhdKEYpW0NASF00W09IXSlbQ0gyXU9DKD1PKWM1W2NIXVtjSF1bY0hdW2NIXVtjSF01

> <s_epik_cmdline>
J2VwaWtfcHl0aG9uJywgJy1waCcsICc3LjAnLCAnLXRuJywgJzgnLCAnLW1hJywgJzIwMCcsICctbWV0YWxfYmluZGluZycsICctaW1hZScsICc8aW5maWxlLm1hZT4nLCAnLW9tYWUnLCAnPG91dGZpbGUubWFlPic=

> <r_lp_tautomer_probability>
1

> <r_epik_Ionization_Penalty>
4.33227

> <r_epik_Ionization_Penalty_Charging>
3.41027

> <r_epik_Ionization_Penalty_Neutral>
0.922001

> <r_epik_State_Penalty>
3.41358

> <r_epik_Charging_Adjusted_Penalty>
6.82385

> <i_epik_Tot_Q>
-1

> <i_epik_Tot_abs_Q>
1

> <r_epik_Metal_State_Penalty>
0.496292

> <b_epik_Metal_Only>
1

> <s_epik_Chemistry_Notes>
This compound has an ester and may undergo hydrolysis at high or low pH. This compound contains an acetal/aminal-like group ( X-CH(R)-Y where X, Y are N, S, or O) that may be acid/base labile, releasing an aldehyde.

> <s_lp_Force_Field>
OPLS_2005

> <r_lp_Energy>
49.908

> <b_lp_Chiralities_Consistent>
1

> <s_lp_Variant>
AV-unprocessed.smi:34-24

> <Gold.Version>
5.8.1

> <Gold.Id.Protein>
6NUR|6NUR_protein|mol2

> <Gold.PLP.Fitness>
64.0750

> <Gold.PLP.PLP>
-58.5250

> <Gold.PLP.part.hbond>
-4.5866

> <Gold.PLP.part.metal>
0.0000

> <Gold.PLP.part.buried>
-7.4376

> <Gold.PLP.part.nonpolar>
-46.0515

> <Gold.PLP.part.repulsive>
0.2345

> <Gold.PLP.ligand.clash>
0.0000

> <Gold.PLP.ligand.torsion>
1.9032

> <Gold.PLP.Chemscore.Hbond>
2.9588

> <Gold.PLP.Chemscore.CHOScore>
0.0000

> <Gold.PLP.Chemscore.Metal>
0.0000

> <Gold.Chemscore.Hbonds>
donor molecule, donor type, donor heavy atom, donor atom, acceptor molecule, acceptor atom, score
      L1  H    29    49       P1  7949  0.83
      P1  H  7997  8010       L1     5  1.00
      P1  H 10752 10764       L1     7  0.65

> <Gold.PLP.Chemscore.Internal.Correction>
0.4803

> <Gold.Rescore>
     Score         DG    S(hbond)    S(metal)    S(lipo)     H(rot)  DE(clash)    DE(int)     intcor
     17.76     -22.24       2.05        0.00     143.62       2.69       0.14       4.35       ----

> <Gold.Chemscore.Fitness>
17.7602

> <Gold.Chemscore.DG>
-22.2433

> <Gold.Chemscore.ZeroCoef>
-5.4800

> <Gold.Chemscore.Hbond>
2.0531

> <Gold.Chemscore.Metal>
0.0000

> <Gold.Chemscore.Lipo>
143.6195

> <Gold.Chemscore.Internal_Hbond>
0.0000

> <Gold.Chemscore.DEClash>
0.1364

> <Gold.Chemscore.DEInternal>
4.3467

> <Gold.Chemscore.Rot>
2.6944

> <Gold.Chemscore.Internal.Correction>
   9.000000E+99

> <Gold.Chemscore.Hbonds>
donor molecule, donor type, donor heavy atom, donor atom, acceptor molecule, acceptor atom, score
      L1  H    29    49       P1  7949  0.18
      P1  H  7997  8010       L1     5  0.60
      P1  H 10752 10764       L1     7  0.53

> <Gold.Chemscore.Hbond.Weighted>
-6.8574

> <Gold.Chemscore.Metal.Weighted>
-0.0000

> <Gold.Chemscore.Lipo.Weighted>
-16.8035

> <Gold.Chemscore.Internal_Hbond.Weighted>
0.0000

> <Gold.Chemscore.DEClash.Weighted>
0.1364

> <Gold.Chemscore.DEInternal.Weighted>
4.3467

> <Gold.Chemscore.Rot.Weighted>
6.8975

> <Gold.Chemscore.Internal.Correction.Weighted>
   9.000000E+99

> <Gold.Protein.RotatedTorsions>
[ 6907 6896 6895 6894 ] final  140.37 input  -60.11 | X-H torsion
[ 7974 7965 7964 7962 ] final -153.98 input  175.53 | X-H torsion
[ 8008 7997 7996 7995 ] final   33.39 input   59.86 | X-H torsion
[ 10167 10162 10161 10158 ] final  155.75 input  -65.29 | X-H torsion
[ 10718 10713 10712 10709 ] final -118.89 input   66.30 | X-H torsion
[ 10763 10752 10751 10750 ] final  -15.30 input  -60.55 | X-H torsion
[ 11005 11000 10999 10996 ] final  -69.74 input  -57.11 | X-H torsion

> <Gold.Protein.ActiveResidues>
 VAL166  LYS551  ARG553  GLY616  TRP617  ASP618  TYR619  PRO620  LYS621  CYS622 
 ASP623  PHE694  ASN695  SER759  ASP760  ASP761  ALA762  ILE779  LEU786  VAL792 
 PHE793  MET794  SER795  GLU796  ALA797  LYS798  CYS799  TRP800  GLU811  SER814 

> <Gold.Protein.RotatedAtoms>
  152.2439  133.5158  159.5285 H   0  0  0  0  0  0  0  0  0  0  0  0  # atno 6907 bound_to 6896
  150.7072  134.1052  159.3989 H   0  0  0  0  0  0  0  0  0  0  0  0  # atno 6908 bound_to 6896
  151.8973  135.0392  160.0554 H   0  0  0  0  0  0  0  0  0  0  0  0  # atno 6909 bound_to 6896
  144.7713  140.4451  143.5905 H   0  0  0  0  0  0  0  0  0  0  0  0  # atno 7974 bound_to 7965
  155.1379  140.3263  155.4459 H   0  0  0  0  0  0  0  0  0  0  0  0  # atno 8008 bound_to 7997
  156.2614  140.1999  156.6445 H   0  0  0  0  0  0  0  0  0  0  0  0  # atno 8009 bound_to 7997
  154.6564  140.0552  157.0000 H   0  0  0  0  0  0  0  0  0  0  0  0  # atno 8010 bound_to 7997
  139.4821  144.5070  151.8082 H   0  0  0  0  0  0  0  0  0  0  0  0  # atno 10167 bound_to 10162
  156.1140  130.6271  150.9347 H   0  0  0  0  0  0  0  0  0  0  0  0  # atno 10718 bound_to 10713
  153.5412  135.7013  153.5635 H   0  0  0  0  0  0  0  0  0  0  0  0  # atno 10763 bound_to 10752
  153.3600  135.3972  155.1711 H   0  0  0  0  0  0  0  0  0  0  0  0  # atno 10764 bound_to 10752
  154.8673  135.3786  154.4917 H   0  0  0  0  0  0  0  0  0  0  0  0  # atno 10765 bound_to 10752
  141.1560  133.6772  156.6646 H   0  0  0  0  0  0  0  0  0  0  0  0  # atno 11005 bound_to 11000
  145.6317  139.1537  143.2965 LP  0  0  0  0  0  0  0  0  0  0  0  0  # atno 17320 bound_to 7965
  146.1861  140.6420  142.9167 LP  0  0  0  0  0  0  0  0  0  0  0  0  # atno 17321 bound_to 7965
  140.4569  144.1776  150.5902 LP  0  0  0  0  0  0  0  0  0  0  0  0  # atno 17342 bound_to 10162
  140.4525  143.2481  151.9328 LP  0  0  0  0  0  0  0  0  0  0  0  0  # atno 17343 bound_to 10162
  157.6322  131.0920  150.8419 LP  0  0  0  0  0  0  0  0  0  0  0  0  # atno 17370 bound_to 10713
  156.8525  130.5085  149.5310 LP  0  0  0  0  0  0  0  0  0  0  0  0  # atno 17371 bound_to 10713
  140.3221  134.7999  157.4261 LP  0  0  0  0  0  0  0  0  0  0  0  0  # atno 17394 bound_to 11000
  140.1088  134.5374  155.8285 LP  0  0  0  0  0  0  0  0  0  0  0  0  # atno 17395 bound_to 11000

$$$$
