AV-unprocessed.smi:340|AV-procd|sdf|2380|dock3
  -GOLD-   2262022303D 1   1.00000     0.00000
 Structure written by MMmdl.
 35 36  0  0  0  0  0  0  0  0  1 V2000
  156.6946  135.2240  158.2399 C   0  0  0  0  0  0  0  0  0  0  0  0
  154.9947  135.7615  158.6949 S   0  0  0  0  0  0  0  0  0  0  0  0
  154.2495  136.0021  157.4502 O   0  0  0  0  0  0  0  0  0  0  0  0
  154.4634  134.8466  159.7168 O   0  0  0  0  0  0  0  0  0  0  0  0
  155.2568  137.2996  159.4359 N   0  0  0  0  0  0  0  0  0  0  0  0
  154.4451  137.8053  160.5443 C   0  0  0  0  0  0  0  0  0  0  0  0
  153.9187  139.2078  160.3118 C   0  0  0  0  0  0  0  0  0  0  0  0
  154.4784  140.3111  160.9843 C   0  0  0  0  0  0  0  0  0  0  0  0
  153.9438  141.5927  160.7526 C   0  0  0  0  0  0  0  0  0  0  0  0
  152.8629  141.7379  159.8500 C   0  0  0  0  0  0  0  0  0  0  0  0
  152.3088  143.0132  159.6054 N   0  0  0  0  0  0  0  0  0  0  0  0
  152.4279  143.9774  160.6968 C   0  0  0  0  0  0  0  0  0  0  0  0
  151.5264  145.1964  160.4356 C   0  0  0  0  0  0  0  0  0  0  0  0
  151.8309  145.7590  159.1636 O   0  0  0  0  0  0  0  0  0  0  0  0
  151.5990  144.8341  158.1063 C   0  0  0  0  0  0  0  0  0  0  0  0
  152.5080  143.6066  158.2843 C   0  0  0  0  0  0  0  0  0  0  0  0
  152.3268  140.6699  159.2080 N   0  0  0  0  0  0  0  0  0  0  0  0
  152.8438  139.4435  159.4316 C   0  0  0  0  0  0  0  0  0  0  0  0
  156.6393  134.2876  157.6855 H   0  0  0  0  0  0  0  0  0  0  0  0
  157.2904  135.0693  159.1384 H   0  0  0  0  0  0  0  0  0  0  0  0
  157.1646  135.9850  157.6175 H   0  0  0  0  0  0  0  0  0  0  0  0
  155.8732  137.9523  158.9518 H   0  0  0  0  0  0  0  0  0  0  0  0
  153.5978  137.1349  160.6893 H   0  0  0  0  0  0  0  0  0  0  0  0
  155.0317  137.7680  161.4630 H   0  0  0  0  0  0  0  0  0  0  0  0
  155.2978  140.1777  161.6752 H   0  0  0  0  0  0  0  0  0  0  0  0
  154.3547  142.4405  161.2801 H   0  0  0  0  0  0  0  0  0  0  0  0
  152.1598  143.5382  161.6565 H   0  0  0  0  0  0  0  0  0  0  0  0
  153.4689  144.2941  160.7733 H   0  0  0  0  0  0  0  0  0  0  0  0
  150.4724  144.9168  160.4789 H   0  0  0  0  0  0  0  0  0  0  0  0
  151.6862  145.9521  161.2046 H   0  0  0  0  0  0  0  0  0  0  0  0
  150.5480  144.5408  158.0887 H   0  0  0  0  0  0  0  0  0  0  0  0
  151.8094  145.3219  157.1545 H   0  0  0  0  0  0  0  0  0  0  0  0
  153.5536  143.8971  158.1726 H   0  0  0  0  0  0  0  0  0  0  0  0
  152.2858  142.8770  157.5045 H   0  0  0  0  0  0  0  0  0  0  0  0
  152.3772  138.6270  158.9002 H   0  0  0  0  0  0  0  0  0  0  0  0
  1  2  1  0  0  0  0
  1 19  1  0  0  0  0
  1 20  1  0  0  0  0
  1 21  1  0  0  0  0
  2  3  2  0  0  0  0
  2  4  2  0  0  0  0
  2  5  1  0  0  0  0
  5  6  1  0  0  0  0
  5 22  1  0  0  0  0
  6  7  1  0  0  0  0
  6 23  1  0  0  0  0
  6 24  1  0  0  0  0
  7 18  1  0  0  0  0
  7  8  2  0  0  0  0
  8  9  1  0  0  0  0
  8 25  1  0  0  0  0
  9 10  2  0  0  0  0
  9 26  1  0  0  0  0
 10 11  1  0  0  0  0
 10 17  1  0  0  0  0
 11 16  1  0  0  0  0
 11 12  1  0  0  0  0
 12 13  1  0  0  0  0
 12 27  1  0  0  0  0
 12 28  1  0  0  0  0
 13 14  1  0  0  0  0
 13 29  1  0  0  0  0
 13 30  1  0  0  0  0
 14 15  1  0  0  0  0
 15 16  1  0  0  0  0
 15 31  1  0  0  0  0
 15 32  1  0  0  0  0
 16 33  1  0  0  0  0
 16 34  1  0  0  0  0
 17 18  2  0  0  0  0
 18 35  1  0  0  0  0
M  END
> <s_m_source_file>
AV-unprocessed.smi

> <i_m_source_file_index>
340

> <i_lp_mmshare_version>
43012

> <i_f3d_flags>
0

> <s_epik_input>
W0NIM11TKD1PKSg9TylbTkhdW0NIMl1jMVtjSF1bY0hdYyhuW2NIXTEpTjJbQ0gyXVtDSDJdT1tDSDJdW0NIMl0y

> <s_epik_cmdline>
J2VwaWtfcHl0aG9uJywgJy1waCcsICc3LjAnLCAnLXRuJywgJzgnLCAnLW1hJywgJzIwMCcsICctbWV0YWxfYmluZGluZycsICctaW1hZScsICc8aW5maWxlLm1hZT4nLCAnLW9tYWUnLCAnPG91dGZpbGUubWFlPic=

> <r_lp_tautomer_probability>
1

> <r_epik_Ionization_Penalty>
0.00676355

> <r_epik_Ionization_Penalty_Charging>
0

> <r_epik_Ionization_Penalty_Neutral>
0.00676355

> <r_epik_State_Penalty>
0.00499739

> <r_epik_Charging_Adjusted_Penalty>
0.00499739

> <i_epik_Tot_Q>
0

> <i_epik_Tot_abs_Q>
0

> <r_epik_Metal_State_Penalty>
0.025736

> <b_epik_Metal_Only>
0

> <s_lp_Force_Field>
OPLS_2005

> <r_lp_Energy>
12.1718

> <b_lp_Chiralities_Consistent>
1

> <s_lp_Variant>
AV-unprocessed.smi:340-1

> <Gold.Version>
5.8.1

> <Gold.Id.Protein>
6NUR|6NUR_protein|mol2

> <Gold.PLP.Fitness>
38.6711

> <Gold.PLP.PLP>
-33.8326

> <Gold.PLP.part.hbond>
-2.9401

> <Gold.PLP.part.metal>
0.0000

> <Gold.PLP.part.buried>
-6.1736

> <Gold.PLP.part.nonpolar>
-25.2681

> <Gold.PLP.part.repulsive>
0.1563

> <Gold.PLP.ligand.clash>
0.0000

> <Gold.PLP.ligand.torsion>
1.2570

> <Gold.PLP.Chemscore.Hbond>
2.0000

> <Gold.PLP.Chemscore.CHOScore>
0.0000

> <Gold.PLP.Chemscore.Metal>
0.0000

> <Gold.Chemscore.Hbonds>
donor molecule, donor type, donor heavy atom, donor atom, acceptor molecule, acceptor atom, score
      P1  H  6896  6907       L1     4  1.00
      P1  H 10752 10765       L1     3  0.65

> <Gold.PLP.Chemscore.Internal.Correction>
1.3524

> <Gold.Rescore>
     Score         DG    S(hbond)    S(metal)    S(lipo)     H(rot)  DE(clash)    DE(int)     intcor
     17.01     -18.28       1.99        0.00      87.43       1.59       0.04       1.23       ----

> <Gold.Chemscore.Fitness>
17.0136

> <Gold.Chemscore.DG>
-18.2829

> <Gold.Chemscore.ZeroCoef>
-5.4800

> <Gold.Chemscore.Hbond>
1.9906

> <Gold.Chemscore.Metal>
0.0000

> <Gold.Chemscore.Lipo>
87.4347

> <Gold.Chemscore.Internal_Hbond>
0.0000

> <Gold.Chemscore.DEClash>
0.0409

> <Gold.Chemscore.DEInternal>
1.2284

> <Gold.Chemscore.Rot>
1.5921

> <Gold.Chemscore.Internal.Correction>
   9.000000E+99

> <Gold.Chemscore.Hbonds>
donor molecule, donor type, donor heavy atom, donor atom, acceptor molecule, acceptor atom, score
      P1  H  6896  6907       L1     4  0.99
      P1  H 10752 10765       L1     3  0.65

> <Gold.Chemscore.Hbond.Weighted>
-6.6487

> <Gold.Chemscore.Metal.Weighted>
-0.0000

> <Gold.Chemscore.Lipo.Weighted>
-10.2299

> <Gold.Chemscore.Internal_Hbond.Weighted>
0.0000

> <Gold.Chemscore.DEClash.Weighted>
0.0409

> <Gold.Chemscore.DEInternal.Weighted>
1.2284

> <Gold.Chemscore.Rot.Weighted>
4.0757

> <Gold.Chemscore.Internal.Correction.Weighted>
   9.000000E+99

> <Gold.Protein.RotatedTorsions>
[ 6907 6896 6895 6894 ] final   81.88 input  -60.11 | X-H torsion
[ 7974 7965 7964 7962 ] final  141.62 input  175.53 | X-H torsion
[ 8008 7997 7996 7995 ] final  119.44 input   59.86 | X-H torsion
[ 10167 10162 10161 10158 ] final  136.03 input  -65.29 | X-H torsion
[ 10718 10713 10712 10709 ] final  179.76 input   66.30 | X-H torsion
[ 10763 10752 10751 10750 ] final  -94.78 input  -60.55 | X-H torsion
[ 11005 11000 10999 10996 ] final  -49.41 input  -57.11 | X-H torsion

> <Gold.Protein.ActiveResidues>
 VAL166  LYS551  ARG553  GLY616  TRP617  ASP618  TYR619  PRO620  LYS621  CYS622 
 ASP623  PHE694  ASN695  SER759  ASP760  ASP761  ALA762  ILE779  LEU786  VAL792 
 PHE793  MET794  SER795  GLU796  ALA797  LYS798  CYS799  TRP800  GLU811  SER814 

> <Gold.Protein.RotatedAtoms>
  152.5282  134.3136  159.9122 H   0  0  0  0  0  0  0  0  0  0  0  0  # atno 6907 bound_to 6896
  151.3086  133.4084  159.2653 H   0  0  0  0  0  0  0  0  0  0  0  0  # atno 6908 bound_to 6896
  151.0058  134.9374  159.8037 H   0  0  0  0  0  0  0  0  0  0  0  0  # atno 6909 bound_to 6896
  144.9080  139.5332  143.5722 H   0  0  0  0  0  0  0  0  0  0  0  0  # atno 7974 bound_to 7965
  156.2596  140.2853  156.0992 H   0  0  0  0  0  0  0  0  0  0  0  0  # atno 8008 bound_to 7997
  155.1378  140.0395  157.2808 H   0  0  0  0  0  0  0  0  0  0  0  0  # atno 8009 bound_to 7997
  154.6552  140.2554  155.7176 H   0  0  0  0  0  0  0  0  0  0  0  0  # atno 8010 bound_to 7997
  139.5195  144.6486  151.5368 H   0  0  0  0  0  0  0  0  0  0  0  0  # atno 10167 bound_to 10162
  156.8709  130.9783  151.3073 H   0  0  0  0  0  0  0  0  0  0  0  0  # atno 10718 bound_to 10713
  154.7087  135.5145  153.8633 H   0  0  0  0  0  0  0  0  0  0  0  0  # atno 10763 bound_to 10752
  153.0762  135.6617  154.0149 H   0  0  0  0  0  0  0  0  0  0  0  0  # atno 10764 bound_to 10752
  153.9995  135.3012  155.3383 H   0  0  0  0  0  0  0  0  0  0  0  0  # atno 10765 bound_to 10752
  141.0757  133.6666  156.3581 H   0  0  0  0  0  0  0  0  0  0  0  0  # atno 11005 bound_to 11000
  146.3144  139.7863  142.8995 LP  0  0  0  0  0  0  0  0  0  0  0  0  # atno 17320 bound_to 7965
  145.3503  141.0306  143.3342 LP  0  0  0  0  0  0  0  0  0  0  0  0  # atno 17321 bound_to 7965
  140.6281  143.9129  150.6582 LP  0  0  0  0  0  0  0  0  0  0  0  0  # atno 17342 bound_to 10162
  140.2424  143.3654  152.1475 LP  0  0  0  0  0  0  0  0  0  0  0  0  # atno 17343 bound_to 10162
  157.6196  130.8645  149.9086 LP  0  0  0  0  0  0  0  0  0  0  0  0  # atno 17370 bound_to 10713
  156.0727  130.3683  150.0743 LP  0  0  0  0  0  0  0  0  0  0  0  0  # atno 17371 bound_to 10713
  140.5577  134.5965  157.5425 LP  0  0  0  0  0  0  0  0  0  0  0  0  # atno 17394 bound_to 11000
  139.9570  134.7518  156.0320 LP  0  0  0  0  0  0  0  0  0  0  0  0  # atno 17395 bound_to 11000

$$$$
