AV-unprocessed.smi:1664|AV-procd|sdf|6667|dock8
  -GOLD-   22720 7373D 1   1.00000     0.00000
 Structure written by MMmdl.
 35 36  0  0  0  0  0  0  0  0  3 V2000
  151.6389  138.8706  158.6717 C   0  0  0  0  0  0  0  0  0  0  0  0
  150.6206  138.5985  157.5468 C   0  0  1  0  0  0  0  0  0  0  0  0
  151.1544  137.5485  156.6535 C   0  0  0  0  0  0  0  0  0  0  0  0
  151.5729  136.7261  155.9543 N   0  0  0  0  0  0  0  0  0  0  0  0
  149.3495  138.1737  158.1358 N   0  0  0  0  0  0  0  0  0  0  0  0
  149.1487  137.1877  159.0268 C   0  0  0  0  0  0  0  0  0  0  0  0
  150.0527  136.5115  159.5150 O   0  0  0  0  0  0  0  0  0  0  0  0
  147.6928  136.9175  159.4186 C   0  0  0  0  0  0  0  0  0  0  0  0
  147.5907  135.8187  160.3921 N   0  0  0  0  0  0  0  0  0  0  0  0
  147.6641  134.5072  159.8816 C   0  0  0  0  0  0  0  0  0  0  0  0
  147.6016  133.4230  160.6789 C   0  0  0  0  0  0  0  0  0  0  0  0
  147.6922  132.0851  160.1364 N   0  3  0  0  0  0  0  0  0  0  0  0
  147.5605  131.1314  160.8968 O   0  0  0  0  0  0  0  0  0  0  0  0
  147.8990  131.9430  158.9348 O   0  5  0  0  0  0  0  0  0  0  0  0
  147.4487  133.6425  162.1040 C   0  0  0  0  0  0  0  0  0  0  0  0
  147.3811  134.8940  162.5993 C   0  0  0  0  0  0  0  0  0  0  0  0
  147.4571  136.0728  161.7301 C   0  0  0  0  0  0  0  0  0  0  0  0
  147.4040  137.2178  162.1783 O   0  0  0  0  0  0  0  0  0  0  0  0
  150.4165  139.8873  156.7529 C   0  0  0  0  0  0  0  0  0  0  0  0
  151.5682  140.6895  156.1886 C   0  0  0  0  0  0  0  0  0  0  0  0
  150.7345  141.2536  157.3185 C   0  0  0  0  0  0  0  0  0  0  0  0
  152.5827  139.2346  158.2643 H   0  0  0  0  0  0  0  0  0  0  0  0
  151.8645  137.9703  159.2438 H   0  0  0  0  0  0  0  0  0  0  0  0
  151.2701  139.6229  159.3697 H   0  0  0  0  0  0  0  0  0  0  0  0
  148.5308  138.6646  157.8070 H   0  0  0  0  0  0  0  0  0  0  0  0
  147.2492  137.8317  159.8175 H   0  0  0  0  0  0  0  0  0  0  0  0
  147.1167  136.6936  158.5193 H   0  0  0  0  0  0  0  0  0  0  0  0
  147.7834  134.4504  158.8092 H   0  0  0  0  0  0  0  0  0  0  0  0
  147.3884  132.8056  162.7843 H   0  0  0  0  0  0  0  0  0  0  0  0
  147.2687  135.0347  163.6643 H   0  0  0  0  0  0  0  0  0  0  0  0
  149.5306  139.8519  156.1205 H   0  0  0  0  0  0  0  0  0  0  0  0
  152.5828  140.3732  156.4212 H   0  0  0  0  0  0  0  0  0  0  0  0
  151.4363  141.1258  155.2006 H   0  0  0  0  0  0  0  0  0  0  0  0
  150.0495  142.0647  157.0804 H   0  0  0  0  0  0  0  0  0  0  0  0
  151.1946  141.3109  158.3027 H   0  0  0  0  0  0  0  0  0  0  0  0
  1  2  1  0  0  0  0
  1 22  1  0  0  0  0
  1 23  1  0  0  0  0
  1 24  1  0  0  0  0
  2  3  1  0  0  0  0
  2  5  1  0  0  0  0
  2 19  1  0  0  0  0
  3  4  3  0  0  0  0
  5  6  1  0  0  0  0
  5 25  1  0  0  0  0
  6  7  2  0  0  0  0
  6  8  1  0  0  0  0
  8  9  1  0  0  0  0
  8 26  1  0  0  0  0
  8 27  1  0  0  0  0
  9 17  1  0  0  0  0
  9 10  1  0  0  0  0
 10 11  2  0  0  0  0
 10 28  1  0  0  0  0
 11 12  1  0  0  0  0
 11 15  1  0  0  0  0
 12 13  2  0  0  0  0
 12 14  1  0  0  0  0
 15 16  2  0  0  0  0
 15 29  1  0  0  0  0
 16 17  1  0  0  0  0
 16 30  1  0  0  0  0
 17 18  2  0  0  0  0
 19 21  1  0  0  0  0
 19 20  1  0  0  0  0
 19 31  1  0  0  0  0
 20 21  1  0  0  0  0
 20 32  1  0  0  0  0
 20 33  1  0  0  0  0
 21 34  1  0  0  0  0
 21 35  1  0  0  0  0
M  CHG  1  12   1
M  CHG  1  14  -1
M  END
> <s_m_source_file>
AV-unprocessed.smi

> <i_m_source_file_index>
1664

> <i_lp_mmshare_version>
43012

> <i_f3d_flags>
0

> <s_epik_input>
W0NIMl0xW0NIMl1bQ0hdMVtDQF0oW0NIM10pKEMjTilbTkhdQyg9TylbQ0gyXW4yW2NIXWMoW04rXSg9TylbTy1dKVtjSF1bY0hdYzI9Tw==

> <s_epik_cmdline>
J2VwaWtfcHl0aG9uJywgJy1waCcsICc3LjAnLCAnLXRuJywgJzgnLCAnLW1hJywgJzIwMCcsICctbWV0YWxfYmluZGluZycsICctaW1hZScsICc8aW5maWxlLm1hZT4nLCAnLW9tYWUnLCAnPG91dGZpbGUubWFlPic=

> <r_lp_tautomer_probability>
1

> <r_epik_Ionization_Penalty>
4.65324e-07

> <r_epik_Ionization_Penalty_Charging>
6.17383e-11

> <r_epik_Ionization_Penalty_Neutral>
4.65262e-07

> <r_epik_State_Penalty>
-0

> <r_epik_Charging_Adjusted_Penalty>
6.17383e-11

> <i_epik_Tot_Q>
0

> <i_epik_Tot_abs_Q>
2

> <r_epik_Metal_State_Penalty>
-0

> <b_epik_Metal_Only>
0

> <s_lp_Force_Field>
OPLS_2005

> <r_lp_Energy>
25.9803

> <b_lp_Chiralities_Consistent>
1

> <s_lp_Variant>
AV-unprocessed.smi:1664-1

> <Gold.Version>
5.8.1

> <Gold.Id.Protein>
6NUR|6NUR_protein|mol2

> <Gold.PLP.Fitness>
43.1742

> <Gold.PLP.PLP>
-33.9716

> <Gold.PLP.part.hbond>
-4.0000

> <Gold.PLP.part.metal>
0.0000

> <Gold.PLP.part.buried>
-4.4751

> <Gold.PLP.part.nonpolar>
-25.5884

> <Gold.PLP.part.repulsive>
0.1072

> <Gold.PLP.ligand.clash>
0.0000

> <Gold.PLP.ligand.torsion>
1.2614

> <Gold.PLP.Chemscore.Hbond>
3.3920

> <Gold.PLP.Chemscore.CHOScore>
0.0000

> <Gold.PLP.Chemscore.Metal>
0.0000

> <Gold.Chemscore.Hbonds>
donor molecule, donor type, donor heavy atom, donor atom, acceptor molecule, acceptor atom, score
      P1  H  6896  6907       L1     7  1.00
      P1  H  6931  6943       L1    18  0.86
      P1  H  6934  6947       L1    18  0.38
      P1  H 10752 10764       L1     4  0.63

> <Gold.PLP.Chemscore.Internal.Correction>
1.5494

> <Gold.Rescore>
     Score         DG    S(hbond)    S(metal)    S(lipo)     H(rot)  DE(clash)    DE(int)     intcor
     16.80     -19.14       3.62        0.00      55.83       1.94       0.00       2.34       ----

> <Gold.Chemscore.Fitness>
16.7985

> <Gold.Chemscore.DG>
-19.1434

> <Gold.Chemscore.ZeroCoef>
-5.4800

> <Gold.Chemscore.Hbond>
3.6209

> <Gold.Chemscore.Metal>
0.0000

> <Gold.Chemscore.Lipo>
55.8316

> <Gold.Chemscore.Internal_Hbond>
0.0000

> <Gold.Chemscore.DEClash>
0.0000

> <Gold.Chemscore.DEInternal>
2.3449

> <Gold.Chemscore.Rot>
1.9386

> <Gold.Chemscore.Internal.Correction>
   9.000000E+99

> <Gold.Chemscore.Hbonds>
donor molecule, donor type, donor heavy atom, donor atom, acceptor molecule, acceptor atom, score
      P1  H  6896  6907       L1     7  1.00
      P1  H  6931  6943       L1    18  0.76
      P1  H  6934  6947       L1    18  0.39
      P1  H 10752 10764       L1     4  0.65

> <Gold.Chemscore.Hbond.Weighted>
-12.0938

> <Gold.Chemscore.Metal.Weighted>
-0.0000

> <Gold.Chemscore.Lipo.Weighted>
-6.5323

> <Gold.Chemscore.Internal_Hbond.Weighted>
0.0000

> <Gold.Chemscore.DEClash.Weighted>
0.0000

> <Gold.Chemscore.DEInternal.Weighted>
2.3449

> <Gold.Chemscore.Rot.Weighted>
4.9627

> <Gold.Chemscore.Internal.Correction.Weighted>
   9.000000E+99

> <Gold.Protein.RotatedTorsions>
[ 6907 6896 6895 6894 ] final  -35.81 input  -60.11 | X-H torsion
[ 7974 7965 7964 7962 ] final  122.63 input  175.53 | X-H torsion
[ 8008 7997 7996 7995 ] final  -66.46 input   59.86 | X-H torsion
[ 10167 10162 10161 10158 ] final  -55.01 input  -65.29 | X-H torsion
[ 10718 10713 10712 10709 ] final   17.69 input   66.30 | X-H torsion
[ 10763 10752 10751 10750 ] final  -36.66 input  -60.55 | X-H torsion
[ 11005 11000 10999 10996 ] final -144.87 input  -57.11 | X-H torsion

> <Gold.Protein.ActiveResidues>
 VAL166  LYS551  ARG553  GLY616  TRP617  ASP618  TYR619  PRO620  LYS621  CYS622 
 ASP623  PHE694  ASN695  SER759  ASP760  ASP761  ALA762  ILE779  LEU786  VAL792 
 PHE793  MET794  SER795  GLU796  ALA797  LYS798  CYS799  TRP800  GLU811  SER814 

> <Gold.Protein.RotatedAtoms>
  151.0351  134.9567  159.8131 H   0  0  0  0  0  0  0  0  0  0  0  0  # atno 6907 bound_to 6896
  152.5353  134.2730  159.8988 H   0  0  0  0  0  0  0  0  0  0  0  0  # atno 6908 bound_to 6896
  151.2740  133.4199  159.2657 H   0  0  0  0  0  0  0  0  0  0  0  0  # atno 6909 bound_to 6896
  145.1053  139.3490  143.4791 H   0  0  0  0  0  0  0  0  0  0  0  0  # atno 7974 bound_to 7965
  154.4736  140.0912  156.7206 H   0  0  0  0  0  0  0  0  0  0  0  0  # atno 8008 bound_to 7997
  155.4657  140.3462  155.4300 H   0  0  0  0  0  0  0  0  0  0  0  0  # atno 8009 bound_to 7997
  156.1080  140.1440  156.9366 H   0  0  0  0  0  0  0  0  0  0  0  0  # atno 8010 bound_to 7997
  140.6399  143.2502  151.5018 H   0  0  0  0  0  0  0  0  0  0  0  0  # atno 10167 bound_to 10162
  157.0857  130.6406  149.5837 H   0  0  0  0  0  0  0  0  0  0  0  0  # atno 10718 bound_to 10713
  153.8834  135.6819  153.4765 H   0  0  0  0  0  0  0  0  0  0  0  0  # atno 10763 bound_to 10752
  153.1221  135.4735  154.9210 H   0  0  0  0  0  0  0  0  0  0  0  0  # atno 10764 bound_to 10752
  154.7658  135.3224  154.8242 H   0  0  0  0  0  0  0  0  0  0  0  0  # atno 10765 bound_to 10752
  140.7980  134.2890  157.4989 H   0  0  0  0  0  0  0  0  0  0  0  0  # atno 11005 bound_to 11000
  146.3528  140.0948  142.8611 LP  0  0  0  0  0  0  0  0  0  0  0  0  # atno 17320 bound_to 7965
  145.0908  140.9283  143.4770 LP  0  0  0  0  0  0  0  0  0  0  0  0  # atno 17321 bound_to 7965
  139.5608  144.2161  152.1688 LP  0  0  0  0  0  0  0  0  0  0  0  0  # atno 17342 bound_to 10162
  140.1429  144.5186  150.6733 LP  0  0  0  0  0  0  0  0  0  0  0  0  # atno 17343 bound_to 10162
  155.9911  130.4965  150.7287 LP  0  0  0  0  0  0  0  0  0  0  0  0  # atno 17370 bound_to 10713
  157.4763  131.0898  151.0586 LP  0  0  0  0  0  0  0  0  0  0  0  0  # atno 17371 bound_to 10713
  139.8724  134.9413  156.3793 LP  0  0  0  0  0  0  0  0  0  0  0  0  # atno 17394 bound_to 11000
  140.9323  133.7571  156.0040 LP  0  0  0  0  0  0  0  0  0  0  0  0  # atno 17395 bound_to 11000

$$$$
