AV-unprocessed.smi:3119|AV-procd|sdf|11890|dock8
  -GOLD-   2272017283D 1   1.00000     0.00000
 Structure written by MMmdl.
 31 32  0  0  0  0  0  0  0  0  1 V2000
  151.1699  140.7822  155.5392 O   0  0  0  0  0  0  0  0  0  0  0  0
  150.3264  141.6773  155.6063 C   0  0  0  0  0  0  0  0  0  0  0  0
  150.3933  142.6838  156.4906 N   0  0  0  0  0  0  0  0  0  0  0  0
  151.4527  142.8605  157.4776 C   0  0  0  0  0  0  0  0  0  0  0  0
  151.6299  141.6077  158.3517 C   0  0  0  0  0  0  0  0  0  0  0  0
  152.2306  141.9329  159.7063 C   0  0  0  0  0  0  0  0  0  0  0  0
  153.3419  141.2130  160.1949 C   0  0  0  0  0  0  0  0  0  0  0  0
  153.8563  141.5520  161.4614 C   0  0  0  0  0  0  0  0  0  0  0  0
  153.2429  142.5914  162.1870 C   0  0  0  0  0  0  0  0  0  0  0  0
  152.1368  143.2481  161.6117 C   0  0  0  0  0  0  0  0  0  0  0  0
  151.6352  142.9301  160.3989 N   0  0  0  0  0  0  0  0  0  0  0  0
  149.1207  141.6928  154.6573 C   0  0  0  0  0  0  0  0  0  0  0  0
  147.7541  141.6697  155.3639 C   0  0  0  0  0  0  0  0  0  0  0  0
  147.2891  140.6265  154.3434 C   0  0  0  0  0  0  0  0  0  0  0  0
  148.7617  140.3244  154.0508 C   0  0  0  0  0  0  0  0  0  0  0  0
  149.6592  143.3772  156.4776 H   0  0  0  0  0  0  0  0  0  0  0  0
  152.3887  143.1157  156.9775 H   0  0  0  0  0  0  0  0  0  0  0  0
  151.1936  143.7148  158.1036 H   0  0  0  0  0  0  0  0  0  0  0  0
  150.6677  141.1140  158.4942 H   0  0  0  0  0  0  0  0  0  0  0  0
  152.2734  140.8835  157.8499 H   0  0  0  0  0  0  0  0  0  0  0  0
  153.7902  140.4189  159.6158 H   0  0  0  0  0  0  0  0  0  0  0  0
  154.7056  141.0238  161.8692 H   0  0  0  0  0  0  0  0  0  0  0  0
  153.6107  142.8789  163.1610 H   0  0  0  0  0  0  0  0  0  0  0  0
  151.6414  144.0496  162.1397 H   0  0  0  0  0  0  0  0  0  0  0  0
  149.1742  142.4739  153.8964 H   0  0  0  0  0  0  0  0  0  0  0  0
  147.7812  141.2789  156.3828 H   0  0  0  0  0  0  0  0  0  0  0  0
  147.2069  142.6115  155.3152 H   0  0  0  0  0  0  0  0  0  0  0  0
  146.7297  139.7924  154.7678 H   0  0  0  0  0  0  0  0  0  0  0  0
  146.7724  141.0704  153.4913 H   0  0  0  0  0  0  0  0  0  0  0  0
  148.9910  140.2292  152.9893 H   0  0  0  0  0  0  0  0  0  0  0  0
  149.1348  139.4682  154.6155 H   0  0  0  0  0  0  0  0  0  0  0  0
  1  2  2  0  0  0  0
  2  3  1  0  0  0  0
  2 12  1  0  0  0  0
  3  4  1  0  0  0  0
  3 16  1  0  0  0  0
  4  5  1  0  0  0  0
  4 17  1  0  0  0  0
  4 18  1  0  0  0  0
  5  6  1  0  0  0  0
  5 19  1  0  0  0  0
  5 20  1  0  0  0  0
  6 11  1  0  0  0  0
  6  7  2  0  0  0  0
  7  8  1  0  0  0  0
  7 21  1  0  0  0  0
  8  9  2  0  0  0  0
  8 22  1  0  0  0  0
  9 10  1  0  0  0  0
  9 23  1  0  0  0  0
 10 11  2  0  0  0  0
 10 24  1  0  0  0  0
 12 15  1  0  0  0  0
 12 13  1  0  0  0  0
 12 25  1  0  0  0  0
 13 14  1  0  0  0  0
 13 26  1  0  0  0  0
 13 27  1  0  0  0  0
 14 15  1  0  0  0  0
 14 28  1  0  0  0  0
 14 29  1  0  0  0  0
 15 30  1  0  0  0  0
 15 31  1  0  0  0  0
M  END
> <s_m_source_file>
AV-unprocessed.smi

> <i_m_source_file_index>
3119

> <i_lp_mmshare_version>
43012

> <i_f3d_flags>
0

> <s_epik_input>
W0NIMl0xW0NIMl1bQ0gyXVtDSF0xQyg9TylbTkhdW0NIMl1bQ0gyXWMyW2NIXVtjSF1bY0hdW2NIXW4y

> <s_epik_cmdline>
J2VwaWtfcHl0aG9uJywgJy1waCcsICc3LjAnLCAnLXRuJywgJzgnLCAnLW1hJywgJzIwMCcsICctbWV0YWxfYmluZGluZycsICctaW1hZScsICc8aW5maWxlLm1hZT4nLCAnLW9tYWUnLCAnPG91dGZpbGUubWFlPic=

> <r_epik_Ionization_Penalty>
0.0277532

> <r_epik_Ionization_Penalty_Charging>
0

> <r_epik_Ionization_Penalty_Neutral>
0.0277532

> <r_epik_State_Penalty>
0.022734

> <r_epik_Charging_Adjusted_Penalty>
0.022734

> <i_epik_Tot_Q>
0

> <i_epik_Tot_abs_Q>
0

> <r_epik_Metal_State_Penalty>
0.0217133

> <b_epik_Metal_Only>
0

> <s_lp_Force_Field>
OPLS_2005

> <r_lp_Energy>
9.15138

> <b_lp_Chiralities_Consistent>
1

> <s_lp_Variant>
AV-unprocessed.smi:3119-1

> <Gold.Version>
5.8.1

> <Gold.Id.Protein>
6NUR|6NUR_protein|mol2

> <Gold.PLP.Fitness>
41.0165

> <Gold.PLP.PLP>
-36.7394

> <Gold.PLP.part.hbond>
-2.4859

> <Gold.PLP.part.metal>
0.0000

> <Gold.PLP.part.buried>
-1.2168

> <Gold.PLP.part.nonpolar>
-29.5559

> <Gold.PLP.part.repulsive>
0.1526

> <Gold.PLP.ligand.clash>
0.0000

> <Gold.PLP.ligand.torsion>
0.5641

> <Gold.PLP.Chemscore.Hbond>
1.6659

> <Gold.PLP.Chemscore.CHOScore>
0.0000

> <Gold.PLP.Chemscore.Metal>
0.0000

> <Gold.Chemscore.Hbonds>
donor molecule, donor type, donor heavy atom, donor atom, acceptor molecule, acceptor atom, score
      L1  H     3    16       P1  8028  0.98
      P1  H  7989  7998       L1     1  0.66

> <Gold.PLP.Chemscore.Internal.Correction>
0.4075

> <Gold.Rescore>
     Score         DG    S(hbond)    S(metal)    S(lipo)     H(rot)  DE(clash)    DE(int)     intcor
     16.35     -16.91       1.12        0.00      97.12       1.44       0.03       0.52       ----

> <Gold.Chemscore.Fitness>
16.3537

> <Gold.Chemscore.DG>
-16.9064

> <Gold.Chemscore.ZeroCoef>
-5.4800

> <Gold.Chemscore.Hbond>
1.1214

> <Gold.Chemscore.Metal>
0.0000

> <Gold.Chemscore.Lipo>
97.1187

> <Gold.Chemscore.Internal_Hbond>
0.0000

> <Gold.Chemscore.DEClash>
0.0331

> <Gold.Chemscore.DEInternal>
0.5197

> <Gold.Chemscore.Rot>
1.4383

> <Gold.Chemscore.Internal.Correction>
   9.000000E+99

> <Gold.Chemscore.Hbonds>
donor molecule, donor type, donor heavy atom, donor atom, acceptor molecule, acceptor atom, score
      L1  H     3    16       P1  8028  0.93
      P1  H  7989  7998       L1     1  0.16

> <Gold.Chemscore.Hbond.Weighted>
-3.7456

> <Gold.Chemscore.Metal.Weighted>
-0.0000

> <Gold.Chemscore.Lipo.Weighted>
-11.3629

> <Gold.Chemscore.Internal_Hbond.Weighted>
0.0000

> <Gold.Chemscore.DEClash.Weighted>
0.0331

> <Gold.Chemscore.DEInternal.Weighted>
0.5197

> <Gold.Chemscore.Rot.Weighted>
3.6820

> <Gold.Chemscore.Internal.Correction.Weighted>
   9.000000E+99

> <Gold.Protein.RotatedTorsions>
[ 6907 6896 6895 6894 ] final -140.84 input  -60.11 | X-H torsion
[ 7974 7965 7964 7962 ] final  137.60 input  175.53 | X-H torsion
[ 8008 7997 7996 7995 ] final  136.47 input   59.86 | X-H torsion
[ 10167 10162 10161 10158 ] final  100.03 input  -65.29 | X-H torsion
[ 10718 10713 10712 10709 ] final -115.48 input   66.30 | X-H torsion
[ 10763 10752 10751 10750 ] final  -63.03 input  -60.55 | X-H torsion
[ 11005 11000 10999 10996 ] final   -0.82 input  -57.11 | X-H torsion

> <Gold.Protein.ActiveResidues>
 VAL166  LYS551  ARG553  GLY616  TRP617  ASP618  TYR619  PRO620  LYS621  CYS622 
 ASP623  PHE694  ASN695  SER759  ASP760  ASP761  ALA762  ILE779  LEU786  VAL792 
 PHE793  MET794  SER795  GLU796  ALA797  LYS798  CYS799  TRP800  GLU811  SER814 

> <Gold.Protein.RotatedAtoms>
  151.0659  133.5505  159.2630 H   0  0  0  0  0  0  0  0  0  0  0  0  # atno 6907 bound_to 6896
  151.2463  135.0606  159.9054 H   0  0  0  0  0  0  0  0  0  0  0  0  # atno 6908 bound_to 6896
  152.5404  134.0427  159.8128 H   0  0  0  0  0  0  0  0  0  0  0  0  # atno 6909 bound_to 6896
  144.9452  139.4883  143.5552 H   0  0  0  0  0  0  0  0  0  0  0  0  # atno 7974 bound_to 7965
  156.3004  140.2444  156.3751 H   0  0  0  0  0  0  0  0  0  0  0  0  # atno 8008 bound_to 7997
  154.8753  140.0414  157.1769 H   0  0  0  0  0  0  0  0  0  0  0  0  # atno 8009 bound_to 7997
  154.8752  140.2941  155.5461 H   0  0  0  0  0  0  0  0  0  0  0  0  # atno 8010 bound_to 7997
  139.7564  144.6968  151.0356 H   0  0  0  0  0  0  0  0  0  0  0  0  # atno 10167 bound_to 10162
  156.0898  130.6083  150.8911 H   0  0  0  0  0  0  0  0  0  0  0  0  # atno 10718 bound_to 10713
  154.3088  135.6220  153.5456 H   0  0  0  0  0  0  0  0  0  0  0  0  # atno 10763 bound_to 10752
  152.9832  135.5696  154.5200 H   0  0  0  0  0  0  0  0  0  0  0  0  # atno 10764 bound_to 10752
  154.4846  135.2864  155.1520 H   0  0  0  0  0  0  0  0  0  0  0  0  # atno 10765 bound_to 10752
  140.6405  133.9494  155.8323 H   0  0  0  0  0  0  0  0  0  0  0  0  # atno 11005 bound_to 11000
  146.3301  139.8499  142.8875 LP  0  0  0  0  0  0  0  0  0  0  0  0  # atno 17320 bound_to 7965
  145.2929  141.0172  143.3653 LP  0  0  0  0  0  0  0  0  0  0  0  0  # atno 17321 bound_to 7965
  140.7803  143.4748  151.0097 LP  0  0  0  0  0  0  0  0  0  0  0  0  # atno 17342 bound_to 10162
  139.8435  143.7532  152.3180 LP  0  0  0  0  0  0  0  0  0  0  0  0  # atno 17343 bound_to 10162
  157.6044  131.0939  150.8905 LP  0  0  0  0  0  0  0  0  0  0  0  0  # atno 17370 bound_to 10713
  156.9056  130.5262  149.5281 LP  0  0  0  0  0  0  0  0  0  0  0  0  # atno 17371 bound_to 10713
  141.0610  134.0346  157.3658 LP  0  0  0  0  0  0  0  0  0  0  0  0  # atno 17394 bound_to 11000
  139.9082  135.0184  156.7578 LP  0  0  0  0  0  0  0  0  0  0  0  0  # atno 17395 bound_to 11000

$$$$
