AV-unprocessed.smi:3212|AV-procd|sdf|12278|dock10
  -GOLD-   2272018113D 1   1.00000     0.00000
 Structure written by MMmdl.
 40 40  0  0  0  0  0  0  0  0  2 V2000
  148.8965  141.6305  154.4544 C   0  0  0  0  0  0  0  0  0  0  0  0
  149.6552  141.3272  155.7552 C   0  0  2  0  0  0  0  0  0  0  0  0
  150.2724  142.5697  156.2726 N   0  3  0  0  0  0  0  0  0  0  0  0
  150.4833  142.6107  157.7368 C   0  0  0  0  0  0  0  0  0  0  0  0
  151.6241  143.5684  158.1167 C   0  0  0  0  0  0  0  0  0  0  0  0
  152.1763  143.2754  159.4275 N   0  0  0  0  0  0  0  0  0  0  0  0
  153.3356  142.5949  159.7356 C   0  0  0  0  0  0  0  0  0  0  0  0
  153.4387  142.5636  161.0968 C   0  0  0  0  0  0  0  0  0  0  0  0
  152.2808  143.2613  161.5402 C   0  0  0  0  0  0  0  0  0  0  0  0
  151.5266  143.6853  160.5386 N   0  0  0  0  0  0  0  0  0  0  0  0
  150.6957  140.2251  155.5118 C   0  0  0  0  0  0  0  0  0  0  0  0
  151.8578  140.5236  155.2349 O   0  0  0  0  0  0  0  0  0  0  0  0
  150.2492  138.9601  155.6102 N   0  0  0  0  0  0  0  0  0  0  0  0
  150.9988  137.7107  155.4326 C   0  0  0  0  0  0  0  0  0  0  0  0
  151.7358  137.8204  154.0862 C   0  0  0  0  0  0  0  0  0  0  0  0
  150.0413  136.5016  155.3829 C   0  0  0  0  0  0  0  0  0  0  0  0
  152.0378  137.5346  156.5599 C   0  0  0  0  0  0  0  0  0  0  0  0
  148.4057  140.7389  154.0617 H   0  0  0  0  0  0  0  0  0  0  0  0
  149.5645  142.0104  153.6800 H   0  0  0  0  0  0  0  0  0  0  0  0
  148.1225  142.3805  154.6202 H   0  0  0  0  0  0  0  0  0  0  0  0
  148.9319  140.9749  156.4929 H   0  0  0  0  0  0  0  0  0  0  0  0
  151.1577  142.7086  155.8062 H   0  0  0  0  0  0  0  0  0  0  0  0
  149.5622  142.9143  158.2362 H   0  0  0  0  0  0  0  0  0  0  0  0
  150.7219  141.6079  158.0923 H   0  0  0  0  0  0  0  0  0  0  0  0
  152.4293  143.4878  157.3854 H   0  0  0  0  0  0  0  0  0  0  0  0
  151.2863  144.6055  158.0937 H   0  0  0  0  0  0  0  0  0  0  0  0
  153.9835  142.1934  158.9701 H   0  0  0  0  0  0  0  0  0  0  0  0
  154.2225  142.1117  161.6865 H   0  0  0  0  0  0  0  0  0  0  0  0
  151.9676  143.4696  162.5526 H   0  0  0  0  0  0  0  0  0  0  0  0
  149.2708  138.8446  155.8322 H   0  0  0  0  0  0  0  0  0  0  0  0
  152.3203  136.9233  153.8786 H   0  0  0  0  0  0  0  0  0  0  0  0
  152.4230  138.6675  154.0758 H   0  0  0  0  0  0  0  0  0  0  0  0
  151.0373  137.9536  153.2591 H   0  0  0  0  0  0  0  0  0  0  0  0
  149.2749  136.6319  154.6179 H   0  0  0  0  0  0  0  0  0  0  0  0
  149.5342  136.3390  156.3337 H   0  0  0  0  0  0  0  0  0  0  0  0
  150.5821  135.5835  155.1503 H   0  0  0  0  0  0  0  0  0  0  0  0
  152.6622  136.6582  156.3834 H   0  0  0  0  0  0  0  0  0  0  0  0
  151.5681  137.3992  157.5343 H   0  0  0  0  0  0  0  0  0  0  0  0
  152.6993  138.3989  156.6296 H   0  0  0  0  0  0  0  0  0  0  0  0
  149.6630  143.3402  156.0365 H   0  0  0  0  0  0  0  0  0  0  0  0
  1  2  1  0  0  0  0
  1 18  1  0  0  0  0
  1 19  1  0  0  0  0
  1 20  1  0  0  0  0
  2  3  1  0  0  0  0
  2 11  1  0  0  0  0
  2 21  1  0  0  0  0
  3  4  1  0  0  0  0
  3 22  1  0  0  0  0
  3 40  1  0  0  0  0
  4  5  1  0  0  0  0
  4 23  1  0  0  0  0
  4 24  1  0  0  0  0
  5  6  1  0  0  0  0
  5 25  1  0  0  0  0
  5 26  1  0  0  0  0
  6 10  1  0  0  0  0
  6  7  1  0  0  0  0
  7  8  2  0  0  0  0
  7 27  1  0  0  0  0
  8  9  1  0  0  0  0
  8 28  1  0  0  0  0
  9 10  2  0  0  0  0
  9 29  1  0  0  0  0
 11 12  2  0  0  0  0
 11 13  1  0  0  0  0
 13 14  1  0  0  0  0
 13 30  1  0  0  0  0
 14 15  1  0  0  0  0
 14 16  1  0  0  0  0
 14 17  1  0  0  0  0
 15 31  1  0  0  0  0
 15 32  1  0  0  0  0
 15 33  1  0  0  0  0
 16 34  1  0  0  0  0
 16 35  1  0  0  0  0
 16 36  1  0  0  0  0
 17 37  1  0  0  0  0
 17 38  1  0  0  0  0
 17 39  1  0  0  0  0
M  CHG  1   3   1
M  END
> <s_m_source_file>
AV-unprocessed.smi

> <i_m_source_file_index>
3212

> <i_lp_mmshare_version>
43012

> <i_f3d_flags>
0

> <s_epik_input>
W0NIM11DKFtDSDNdKShbQ0gzXSlbTkhdQyg9TylbQ0BIXShbQ0gzXSlbTkhdW0NIMl1bQ0gyXW4xW2NIXVtjSF1bY0hdbjE=

> <s_epik_cmdline>
J2VwaWtfcHl0aG9uJywgJy1waCcsICc3LjAnLCAnLXRuJywgJzgnLCAnLW1hJywgJzIwMCcsICctbWV0YWxfYmluZGluZycsICctaW1hZScsICc8aW5maWxlLm1hZT4nLCAnLW9tYWUnLCAnPG91dGZpbGUubWFlPic=

> <r_lp_tautomer_probability>
1

> <r_epik_Ionization_Penalty>
0.198377

> <r_epik_Ionization_Penalty_Charging>
0.198374

> <r_epik_Ionization_Penalty_Neutral>
3.0924e-06

> <r_epik_State_Penalty>
0.188176

> <r_epik_Charging_Adjusted_Penalty>
0.38655

> <i_epik_Tot_Q>
1

> <i_epik_Tot_abs_Q>
1

> <r_epik_Metal_State_Penalty>
0.188456

> <b_epik_Metal_Only>
0

> <s_lp_Force_Field>
OPLS_2005

> <r_lp_Energy>
6.00749

> <b_lp_Chiralities_Consistent>
1

> <s_lp_Variant>
AV-unprocessed.smi:3212-1

> <Gold.Version>
5.8.1

> <Gold.Id.Protein>
6NUR|6NUR_protein|mol2

> <Gold.PLP.Fitness>
41.8659

> <Gold.PLP.PLP>
-36.7572

> <Gold.PLP.part.hbond>
-2.0000

> <Gold.PLP.part.metal>
0.0000

> <Gold.PLP.part.buried>
-2.7170

> <Gold.PLP.part.nonpolar>
-32.0154

> <Gold.PLP.part.repulsive>
0.2479

> <Gold.PLP.ligand.clash>
0.0000

> <Gold.PLP.ligand.torsion>
1.6400

> <Gold.PLP.Chemscore.Hbond>
2.7840

> <Gold.PLP.Chemscore.CHOScore>
0.0000

> <Gold.PLP.Chemscore.Metal>
0.0000

> <Gold.Chemscore.Hbonds>
donor molecule, donor type, donor heavy atom, donor atom, acceptor molecule, acceptor atom, score
      L1  H     3    40       P1  8028  2.00
      P1  H  7989  7998       L1    12  0.70

> <Gold.PLP.Chemscore.Internal.Correction>
0.0368

> <Gold.Rescore>
     Score         DG    S(hbond)    S(metal)    S(lipo)     H(rot)  DE(clash)    DE(int)     intcor
     14.50     -16.91       1.91        0.00      88.36       2.07       0.07       2.33       ----

> <Gold.Chemscore.Fitness>
14.5040

> <Gold.Chemscore.DG>
-16.9064

> <Gold.Chemscore.ZeroCoef>
-5.4800

> <Gold.Chemscore.Hbond>
1.9092

> <Gold.Chemscore.Metal>
0.0000

> <Gold.Chemscore.Lipo>
88.3606

> <Gold.Chemscore.Internal_Hbond>
0.0000

> <Gold.Chemscore.DEClash>
0.0692

> <Gold.Chemscore.DEInternal>
2.3332

> <Gold.Chemscore.Rot>
2.0659

> <Gold.Chemscore.Internal.Correction>
   9.000000E+99

> <Gold.Chemscore.Hbonds>
donor molecule, donor type, donor heavy atom, donor atom, acceptor molecule, acceptor atom, score
      L1  H     3    40       P1  8028  0.99
      P1  H  7989  7998       L1    12  0.18

> <Gold.Chemscore.Hbond.Weighted>
-6.3769

> <Gold.Chemscore.Metal.Weighted>
-0.0000

> <Gold.Chemscore.Lipo.Weighted>
-10.3382

> <Gold.Chemscore.Internal_Hbond.Weighted>
0.0000

> <Gold.Chemscore.DEClash.Weighted>
0.0692

> <Gold.Chemscore.DEInternal.Weighted>
2.3332

> <Gold.Chemscore.Rot.Weighted>
5.2886

> <Gold.Chemscore.Internal.Correction.Weighted>
   9.000000E+99

> <Gold.Protein.RotatedTorsions>
[ 6907 6896 6895 6894 ] final   79.21 input  -60.11 | X-H torsion
[ 7974 7965 7964 7962 ] final  -76.34 input  175.53 | X-H torsion
[ 8008 7997 7996 7995 ] final -157.70 input   59.86 | X-H torsion
[ 10167 10162 10161 10158 ] final  143.23 input  -65.29 | X-H torsion
[ 10718 10713 10712 10709 ] final   33.41 input   66.30 | X-H torsion
[ 10763 10752 10751 10750 ] final  148.59 input  -60.55 | X-H torsion
[ 11005 11000 10999 10996 ] final   53.62 input  -57.11 | X-H torsion

> <Gold.Protein.ActiveResidues>
 VAL166  LYS551  ARG553  GLY616  TRP617  ASP618  TYR619  PRO620  LYS621  CYS622 
 ASP623  PHE694  ASN695  SER759  ASP760  ASP761  ALA762  ILE779  LEU786  VAL792 
 PHE793  MET794  SER795  GLU796  ALA797  LYS798  CYS799  TRP800  GLU811  SER814 

> <Gold.Protein.RotatedAtoms>
  152.5190  134.3546  159.9262 H   0  0  0  0  0  0  0  0  0  0  0  0  # atno 6907 bound_to 6896
  151.3497  133.3924  159.2687 H   0  0  0  0  0  0  0  0  0  0  0  0  # atno 6908 bound_to 6896
  150.9737  134.9123  159.7861 H   0  0  0  0  0  0  0  0  0  0  0  0  # atno 6909 bound_to 6896
  145.6142  140.9379  143.1173 H   0  0  0  0  0  0  0  0  0  0  0  0  # atno 7974 bound_to 7965
  155.7365  140.0808  157.2265 H   0  0  0  0  0  0  0  0  0  0  0  0  # atno 8008 bound_to 7997
  154.4027  140.1586  156.2622 H   0  0  0  0  0  0  0  0  0  0  0  0  # atno 8009 bound_to 7997
  155.9060  140.3407  155.6065 H   0  0  0  0  0  0  0  0  0  0  0  0  # atno 8010 bound_to 7997
  139.4974  144.6054  151.6390 H   0  0  0  0  0  0  0  0  0  0  0  0  # atno 10167 bound_to 10162
  157.2975  130.7334  149.6647 H   0  0  0  0  0  0  0  0  0  0  0  0  # atno 10718 bound_to 10713
  154.0572  135.2877  155.3331 H   0  0  0  0  0  0  0  0  0  0  0  0  # atno 10763 bound_to 10752
  154.6831  135.5255  153.8293 H   0  0  0  0  0  0  0  0  0  0  0  0  # atno 10764 bound_to 10752
  153.0537  135.6586  154.0764 H   0  0  0  0  0  0  0  0  0  0  0  0  # atno 10765 bound_to 10752
  140.0752  134.5414  155.9004 H   0  0  0  0  0  0  0  0  0  0  0  0  # atno 11005 bound_to 11000
  144.7257  139.7883  143.7365 LP  0  0  0  0  0  0  0  0  0  0  0  0  # atno 17320 bound_to 7965
  146.1481  139.4556  143.0066 LP  0  0  0  0  0  0  0  0  0  0  0  0  # atno 17321 bound_to 7965
  140.5714  144.0102  150.6219 LP  0  0  0  0  0  0  0  0  0  0  0  0  # atno 17342 bound_to 10162
  140.3221  143.3131  152.0774 LP  0  0  0  0  0  0  0  0  0  0  0  0  # atno 17343 bound_to 10162
  155.9670  130.4290  150.4813 LP  0  0  0  0  0  0  0  0  0  0  0  0  # atno 17370 bound_to 10713
  157.2787  131.0602  151.2212 LP  0  0  0  0  0  0  0  0  0  0  0  0  # atno 17371 bound_to 10713
  141.2027  133.6626  156.6020 LP  0  0  0  0  0  0  0  0  0  0  0  0  # atno 17394 bound_to 11000
  140.3568  134.7722  157.4506 LP  0  0  0  0  0  0  0  0  0  0  0  0  # atno 17395 bound_to 11000

$$$$
