AV-unprocessed.smi:2708|AV-procd|sdf|10458|dock3
  -GOLD-   2272014493D 1   1.00000     0.00000
 Structure written by MMmdl.
 35 35  0  0  0  0  0  0  0  0  2 V2000
  151.3213  138.5516  157.9260 C   0  0  0  0  0  0  0  0  0  0  0  0
  152.0815  137.6500  158.9132 C   0  0  2  0  0  0  0  0  0  0  0  0
  152.6171  138.4317  160.0237 N   0  0  0  0  0  0  0  0  0  0  0  0
  153.4590  139.4723  159.9225 C   0  0  0  0  0  0  0  0  0  0  0  0
  153.8883  139.8998  158.8509 O   0  0  0  0  0  0  0  0  0  0  0  0
  153.8827  140.1333  161.2351 C   0  0  0  0  0  0  0  0  0  0  0  0
  153.3300  141.5268  161.3168 C   0  0  0  0  0  0  0  0  0  0  0  0
  153.3454  142.3562  162.4100 C   0  0  0  0  0  0  0  0  0  0  0  0
  152.6053  143.8939  162.0678 S   0  0  0  0  0  0  0  0  0  0  0  0
  152.2833  143.3498  160.4172 C   0  0  0  0  0  0  0  0  0  0  0  0
  151.6001  144.1730  159.3515 C   0  0  0  0  0  0  0  0  0  0  0  0
  152.5242  144.3137  158.1263 C   0  0  0  0  0  0  0  0  0  0  0  0
  151.2336  145.5588  159.9172 C   0  0  0  0  0  0  0  0  0  0  0  0
  150.2930  143.5024  158.8760 C   0  0  0  0  0  0  0  0  0  0  0  0
  152.7182  142.1033  160.1994 N   0  0  0  0  0  0  0  0  0  0  0  0
  153.1970  136.8277  158.2612 C   0  0  0  0  0  0  0  0  0  0  0  0
  152.8811  136.0993  157.2941 O   0  0  0  0  0  0  0  0  0  0  0  0
  154.3477  136.9403  158.7378 O   0  5  0  0  0  0  0  0  0  0  0  0
  151.3651  136.9338  159.3209 H   0  0  0  0  0  0  0  0  0  0  0  0
  150.9252  137.9722  157.0913 H   0  0  0  0  0  0  0  0  0  0  0  0
  151.9690  139.3267  157.5153 H   0  0  0  0  0  0  0  0  0  0  0  0
  150.4784  139.0452  158.4104 H   0  0  0  0  0  0  0  0  0  0  0  0
  152.3117  138.1553  160.9458 H   0  0  0  0  0  0  0  0  0  0  0  0
  153.5350  139.5281  162.0736 H   0  0  0  0  0  0  0  0  0  0  0  0
  154.9716  140.1459  161.2959 H   0  0  0  0  0  0  0  0  0  0  0  0
  153.7541  142.1587  163.3900 H   0  0  0  0  0  0  0  0  0  0  0  0
  152.0489  144.8921  157.3332 H   0  0  0  0  0  0  0  0  0  0  0  0
  152.7855  143.3388  157.7129 H   0  0  0  0  0  0  0  0  0  0  0  0
  153.4546  144.8211  158.3836 H   0  0  0  0  0  0  0  0  0  0  0  0
  152.1204  146.1075  160.2364 H   0  0  0  0  0  0  0  0  0  0  0  0
  150.5726  145.4725  160.7806 H   0  0  0  0  0  0  0  0  0  0  0  0
  150.7247  146.1714  159.1720 H   0  0  0  0  0  0  0  0  0  0  0  0
  149.8008  144.0976  158.1060 H   0  0  0  0  0  0  0  0  0  0  0  0
  149.5809  143.3834  159.6936 H   0  0  0  0  0  0  0  0  0  0  0  0
  150.4785  142.5160  158.4489 H   0  0  0  0  0  0  0  0  0  0  0  0
  1  2  1  0  0  0  0
  1 20  1  0  0  0  0
  1 21  1  0  0  0  0
  1 22  1  0  0  0  0
  2 19  1  0  0  0  0
  2  3  1  0  0  0  0
  2 16  1  0  0  0  0
  3  4  1  0  0  0  0
  3 23  1  0  0  0  0
  4  5  2  0  0  0  0
  4  6  1  0  0  0  0
  6  7  1  0  0  0  0
  6 24  1  0  0  0  0
  6 25  1  0  0  0  0
  7 15  1  0  0  0  0
  7  8  2  0  0  0  0
  8  9  1  0  0  0  0
  8 26  1  0  0  0  0
  9 10  1  0  0  0  0
 10 11  1  0  0  0  0
 10 15  2  0  0  0  0
 11 12  1  0  0  0  0
 11 13  1  0  0  0  0
 11 14  1  0  0  0  0
 12 27  1  0  0  0  0
 12 28  1  0  0  0  0
 12 29  1  0  0  0  0
 13 30  1  0  0  0  0
 13 31  1  0  0  0  0
 13 32  1  0  0  0  0
 14 33  1  0  0  0  0
 14 34  1  0  0  0  0
 14 35  1  0  0  0  0
 16 17  2  0  0  0  0
 16 18  1  0  0  0  0
M  CHG  1  18  -1
M  END
> <s_m_source_file>
AV-unprocessed.smi

> <i_m_source_file_index>
2708

> <i_lp_mmshare_version>
43012

> <i_f3d_flags>
0

> <s_epik_input>
Tz1DKFtPSF0pW0NASF0oW0NIM10pW05IXUMoPU8pW0NIMl1jMVtjSF1zYyhuMSlDKFtDSDNdKShbQ0gzXSlbQ0gzXQ==

> <s_epik_cmdline>
J2VwaWtfcHl0aG9uJywgJy1waCcsICc3LjAnLCAnLXRuJywgJzgnLCAnLW1hJywgJzIwMCcsICctbWV0YWxfYmluZGluZycsICctaW1hZScsICc8aW5maWxlLm1hZT4nLCAnLW9tYWUnLCAnPG91dGZpbGUubWFlPic=

> <r_lp_tautomer_probability>
1

> <r_epik_Ionization_Penalty>
0.000214174

> <r_epik_Ionization_Penalty_Charging>
0.000167453

> <r_epik_Ionization_Penalty_Neutral>
4.67216e-05

> <r_epik_State_Penalty>
-0

> <r_epik_Charging_Adjusted_Penalty>
0.000167453

> <i_epik_Tot_Q>
-1

> <i_epik_Tot_abs_Q>
1

> <r_epik_Metal_State_Penalty>
-0

> <b_epik_Metal_Only>
0

> <s_lp_Force_Field>
OPLS_2005

> <r_lp_Energy>
-5.26793

> <b_lp_Chiralities_Consistent>
1

> <s_lp_Variant>
AV-unprocessed.smi:2708-1

> <Gold.Version>
5.8.1

> <Gold.Id.Protein>
6NUR|6NUR_protein|mol2

> <Gold.PLP.Fitness>
48.0416

> <Gold.PLP.PLP>
-39.3538

> <Gold.PLP.part.hbond>
-2.0000

> <Gold.PLP.part.metal>
0.0000

> <Gold.PLP.part.buried>
-4.8061

> <Gold.PLP.part.nonpolar>
-32.5297

> <Gold.PLP.part.repulsive>
0.0857

> <Gold.PLP.ligand.clash>
0.0000

> <Gold.PLP.ligand.torsion>
0.1978

> <Gold.PLP.Chemscore.Hbond>
3.0000

> <Gold.PLP.Chemscore.CHOScore>
0.0000

> <Gold.PLP.Chemscore.Metal>
0.0000

> <Gold.Chemscore.Hbonds>
donor molecule, donor type, donor heavy atom, donor atom, acceptor molecule, acceptor atom, score
      P1  H  7997  8010       L1     5  0.98
      P1  H 10752 10763       L1    17  1.20

> <Gold.PLP.Chemscore.Internal.Correction>
0.0835

> <Gold.Rescore>
     Score         DG    S(hbond)    S(metal)    S(lipo)     H(rot)  DE(clash)    DE(int)     intcor
     16.21     -19.19       1.94        0.00     110.95       2.25       0.02       2.96       ----

> <Gold.Chemscore.Fitness>
16.2105

> <Gold.Chemscore.DG>
-19.1917

> <Gold.Chemscore.ZeroCoef>
-5.4800

> <Gold.Chemscore.Hbond>
1.9414

> <Gold.Chemscore.Metal>
0.0000

> <Gold.Chemscore.Lipo>
110.9549

> <Gold.Chemscore.Internal_Hbond>
0.0000

> <Gold.Chemscore.DEClash>
0.0248

> <Gold.Chemscore.DEInternal>
2.9564

> <Gold.Chemscore.Rot>
2.2478

> <Gold.Chemscore.Internal.Correction>
   9.000000E+99

> <Gold.Chemscore.Hbonds>
donor molecule, donor type, donor heavy atom, donor atom, acceptor molecule, acceptor atom, score
      P1  H  7997  8010       L1     5  0.93
      P1  H 10752 10763       L1    17  0.60

> <Gold.Chemscore.Hbond.Weighted>
-6.4844

> <Gold.Chemscore.Metal.Weighted>
-0.0000

> <Gold.Chemscore.Lipo.Weighted>
-12.9817

> <Gold.Chemscore.Internal_Hbond.Weighted>
0.0000

> <Gold.Chemscore.DEClash.Weighted>
0.0248

> <Gold.Chemscore.DEInternal.Weighted>
2.9564

> <Gold.Chemscore.Rot.Weighted>
5.7544

> <Gold.Chemscore.Internal.Correction.Weighted>
   9.000000E+99

> <Gold.Protein.RotatedTorsions>
[ 6907 6896 6895 6894 ] final  -43.49 input  -60.11 | X-H torsion
[ 7974 7965 7964 7962 ] final   51.76 input  175.53 | X-H torsion
[ 8008 7997 7996 7995 ] final    3.80 input   59.86 | X-H torsion
[ 10167 10162 10161 10158 ] final -163.63 input  -65.29 | X-H torsion
[ 10718 10713 10712 10709 ] final   80.70 input   66.30 | X-H torsion
[ 10763 10752 10751 10750 ] final  121.47 input  -60.55 | X-H torsion
[ 11005 11000 10999 10996 ] final -110.29 input  -57.11 | X-H torsion

> <Gold.Protein.ActiveResidues>
 VAL166  LYS551  ARG553  GLY616  TRP617  ASP618  TYR619  PRO620  LYS621  CYS622 
 ASP623  PHE694  ASN695  SER759  ASP760  ASP761  ALA762  ILE779  LEU786  VAL792 
 PHE793  MET794  SER795  GLU796  ALA797  LYS798  CYS799  TRP800  GLU811  SER814 

> <Gold.Protein.RotatedAtoms>
  150.9433  134.8840  159.7625 H   0  0  0  0  0  0  0  0  0  0  0  0  # atno 6907 bound_to 6896
  152.5089  134.3911  159.9394 H   0  0  0  0  0  0  0  0  0  0  0  0  # atno 6908 bound_to 6896
  151.3930  133.3742  159.2758 H   0  0  0  0  0  0  0  0  0  0  0  0  # atno 6909 bound_to 6896
  145.9881  139.4311  143.0090 H   0  0  0  0  0  0  0  0  0  0  0  0  # atno 7974 bound_to 7965
  154.7081  140.2687  155.6655 H   0  0  0  0  0  0  0  0  0  0  0  0  # atno 8008 bound_to 7997
  156.2786  140.2759  156.1637 H   0  0  0  0  0  0  0  0  0  0  0  0  # atno 8009 bound_to 7997
  155.0673  140.0372  157.2587 H   0  0  0  0  0  0  0  0  0  0  0  0  # atno 8010 bound_to 7997
  139.6307  144.0445  152.2013 H   0  0  0  0  0  0  0  0  0  0  0  0  # atno 10167 bound_to 10162
  157.6813  130.9971  150.2118 H   0  0  0  0  0  0  0  0  0  0  0  0  # atno 10718 bound_to 10713
  153.6146  135.3424  155.2990 H   0  0  0  0  0  0  0  0  0  0  0  0  # atno 10763 bound_to 10752
  154.8612  135.4258  154.2273 H   0  0  0  0  0  0  0  0  0  0  0  0  # atno 10764 bound_to 10752
  153.3131  135.7033  153.7170 H   0  0  0  0  0  0  0  0  0  0  0  0  # atno 10765 bound_to 10752
  141.0800  133.9236  157.2309 H   0  0  0  0  0  0  0  0  0  0  0  0  # atno 11005 bound_to 11000
  145.7670  140.9912  143.1169 LP  0  0  0  0  0  0  0  0  0  0  0  0  # atno 17320 bound_to 7965
  144.6881  139.9400  143.7475 LP  0  0  0  0  0  0  0  0  0  0  0  0  # atno 17321 bound_to 7965
  140.0110  144.6224  150.7647 LP  0  0  0  0  0  0  0  0  0  0  0  0  # atno 17342 bound_to 10162
  140.7437  143.2850  151.3488 LP  0  0  0  0  0  0  0  0  0  0  0  0  # atno 17343 bound_to 10162
  156.2787  130.3731  149.7957 LP  0  0  0  0  0  0  0  0  0  0  0  0  # atno 17370 bound_to 10713
  156.5652  130.8400  151.3340 LP  0  0  0  0  0  0  0  0  0  0  0  0  # atno 17371 bound_to 10713
  139.9613  135.0153  156.9269 LP  0  0  0  0  0  0  0  0  0  0  0  0  # atno 17394 bound_to 11000
  140.5489  134.0646  155.7363 LP  0  0  0  0  0  0  0  0  0  0  0  0  # atno 17395 bound_to 11000

$$$$
