AV-unprocessed.smi:3211|AV-procd|sdf|12275|dock2
  -GOLD-   2272018113D 1   1.00000     0.00000
 Structure written by MMmdl.
 34 35  0  0  0  0  0  0  0  0  1 V2000
  153.7895  141.1300  160.7719 C   0  0  0  0  0  0  0  0  0  0  0  0
  153.3260  142.5871  160.8707 C   0  0  0  0  0  0  0  0  0  0  0  0
  152.5723  143.0326  159.6629 C   0  0  0  0  0  0  0  0  0  0  0  0
  152.0383  142.1907  158.7741 N   0  0  0  0  0  0  0  0  0  0  0  0
  151.3739  142.8535  157.7378 C   0  0  0  0  0  0  0  0  0  0  0  0
  150.7665  142.0671  156.6125 C   0  0  0  0  0  0  0  0  0  0  0  0
  149.7123  141.0415  157.0743 C   0  0  0  0  0  0  0  0  0  0  0  0
  148.7894  140.6690  156.0033 N   0  0  0  0  0  0  0  0  0  0  0  0
  149.1362  140.3796  154.7385 C   0  0  0  0  0  0  0  0  0  0  0  0
  150.3049  140.3747  154.3499 O   0  0  0  0  0  0  0  0  0  0  0  0
  147.9692  140.0907  153.8464 C   0  0  1  0  0  0  0  0  0  0  0  0
  146.6006  139.9786  154.4885 C   0  0  0  0  0  0  0  0  0  0  0  0
  146.9101  141.1558  153.5948 C   0  0  1  0  0  0  0  0  0  0  0  0
  146.9636  142.5652  154.1572 C   0  0  0  0  0  0  0  0  0  0  0  0
  151.3781  144.2191  157.8779 C   0  0  0  0  0  0  0  0  0  0  0  0
  152.2445  144.7231  159.3016 S   0  0  0  0  0  0  0  0  0  0  0  0
  154.3328  140.8332  161.6692 H   0  0  0  0  0  0  0  0  0  0  0  0
  154.4517  140.9850  159.9179 H   0  0  0  0  0  0  0  0  0  0  0  0
  152.9407  140.4550  160.6576 H   0  0  0  0  0  0  0  0  0  0  0  0
  152.6886  142.7163  161.7458 H   0  0  0  0  0  0  0  0  0  0  0  0
  154.1860  143.2429  161.0117 H   0  0  0  0  0  0  0  0  0  0  0  0
  150.3094  142.7455  155.8917 H   0  0  0  0  0  0  0  0  0  0  0  0
  151.5518  141.5447  156.0648 H   0  0  0  0  0  0  0  0  0  0  0  0
  150.2060  140.1569  157.4804 H   0  0  0  0  0  0  0  0  0  0  0  0
  149.1296  141.4629  157.8936 H   0  0  0  0  0  0  0  0  0  0  0  0
  147.8075  140.6499  156.2377 H   0  0  0  0  0  0  0  0  0  0  0  0
  148.1706  139.4229  153.0098 H   0  0  0  0  0  0  0  0  0  0  0  0
  145.9364  139.2080  154.1031 H   0  0  0  0  0  0  0  0  0  0  0  0
  146.5103  140.1643  155.5575 H   0  0  0  0  0  0  0  0  0  0  0  0
  146.4875  141.1283  152.5923 H   0  0  0  0  0  0  0  0  0  0  0  0
  147.1505  142.5630  155.2304 H   0  0  0  0  0  0  0  0  0  0  0  0
  146.0116  143.0675  153.9852 H   0  0  0  0  0  0  0  0  0  0  0  0
  147.7498  143.1364  153.6635 H   0  0  0  0  0  0  0  0  0  0  0  0
  150.9397  144.9569  157.2226 H   0  0  0  0  0  0  0  0  0  0  0  0
  1  2  1  0  0  0  0
  1 17  1  0  0  0  0
  1 18  1  0  0  0  0
  1 19  1  0  0  0  0
  2  3  1  0  0  0  0
  2 20  1  0  0  0  0
  2 21  1  0  0  0  0
  3 16  1  0  0  0  0
  3  4  2  0  0  0  0
  4  5  1  0  0  0  0
  5  6  1  0  0  0  0
  5 15  2  0  0  0  0
  6  7  1  0  0  0  0
  6 22  1  0  0  0  0
  6 23  1  0  0  0  0
  7  8  1  0  0  0  0
  7 24  1  0  0  0  0
  7 25  1  0  0  0  0
  8  9  1  0  0  0  0
  8 26  1  0  0  0  0
  9 10  2  0  0  0  0
  9 11  1  0  0  0  0
 11 13  1  0  0  0  0
 11 12  1  0  0  0  0
 11 27  1  0  0  0  0
 12 13  1  0  0  0  0
 12 28  1  0  0  0  0
 12 29  1  0  0  0  0
 13 14  1  0  0  0  0
 13 30  1  0  0  0  0
 14 31  1  0  0  0  0
 14 32  1  0  0  0  0
 14 33  1  0  0  0  0
 15 16  1  0  0  0  0
 15 34  1  0  0  0  0
M  END
> <s_m_source_file>
AV-unprocessed.smi

> <i_m_source_file_index>
3211

> <i_lp_mmshare_version>
43012

> <i_f3d_flags>
0

> <s_epik_input>
W0NIM11bQ0gyXWMxbmMoW2NIXXMxKVtDSDJdW0NIMl1bTkhdQyg9TylbQ0BASF0yW0NIMl1bQ0BIXTJbQ0gzXQ==

> <s_epik_cmdline>
J2VwaWtfcHl0aG9uJywgJy1waCcsICc3LjAnLCAnLXRuJywgJzgnLCAnLW1hJywgJzIwMCcsICctbWV0YWxfYmluZGluZycsICctaW1hZScsICc8aW5maWxlLm1hZT4nLCAnLW9tYWUnLCAnPG91dGZpbGUubWFlPic=

> <r_epik_Ionization_Penalty>
0.00109667

> <r_epik_Ionization_Penalty_Charging>
0

> <r_epik_Ionization_Penalty_Neutral>
0.00109667

> <r_epik_State_Penalty>
0.000719322

> <r_epik_Charging_Adjusted_Penalty>
0.000719322

> <i_epik_Tot_Q>
0

> <i_epik_Tot_abs_Q>
0

> <r_epik_Metal_State_Penalty>
-0

> <b_epik_Metal_Only>
0

> <s_lp_Force_Field>
OPLS_2005

> <r_lp_Energy>
1.4675

> <b_lp_Chiralities_Consistent>
1

> <s_lp_Variant>
AV-unprocessed.smi:3211-2

> <Gold.Version>
5.8.1

> <Gold.Id.Protein>
6NUR|6NUR_protein|mol2

> <Gold.PLP.Fitness>
43.8949

> <Gold.PLP.PLP>
-38.7454

> <Gold.PLP.part.hbond>
-1.0000

> <Gold.PLP.part.metal>
0.0000

> <Gold.PLP.part.buried>
-4.0371

> <Gold.PLP.part.nonpolar>
-34.9864

> <Gold.PLP.part.repulsive>
0.1375

> <Gold.PLP.ligand.clash>
0.0045

> <Gold.PLP.ligand.torsion>
0.4831

> <Gold.PLP.Chemscore.Hbond>
1.0000

> <Gold.PLP.Chemscore.CHOScore>
0.9987

> <Gold.PLP.Chemscore.Metal>
0.0000

> <Gold.Chemscore.Hbonds>
donor molecule, donor type, donor heavy atom, donor atom, acceptor molecule, acceptor atom, score
      P1  H  7989  7998       L1    10  0.99
      L1  C    15    34       P1  8028  0.96

> <Gold.PLP.Chemscore.Internal.Correction>
0.1239

> <Gold.Rescore>
     Score         DG    S(hbond)    S(metal)    S(lipo)     H(rot)  DE(clash)    DE(int)     intcor
     15.55     -17.32       1.00        0.00     105.83       1.51       0.01       1.75       ----

> <Gold.Chemscore.Fitness>
15.5530

> <Gold.Chemscore.DG>
-17.3219

> <Gold.Chemscore.ZeroCoef>
-5.4800

> <Gold.Chemscore.Hbond>
0.9955

> <Gold.Chemscore.Metal>
0.0000

> <Gold.Chemscore.Lipo>
105.8251

> <Gold.Chemscore.Internal_Hbond>
0.0000

> <Gold.Chemscore.DEClash>
0.0149

> <Gold.Chemscore.DEInternal>
1.7541

> <Gold.Chemscore.Rot>
1.5096

> <Gold.Chemscore.Internal.Correction>
   9.000000E+99

> <Gold.Chemscore.Hbonds>
donor molecule, donor type, donor heavy atom, donor atom, acceptor molecule, acceptor atom, score
      P1  H  7989  7998       L1    10  0.93

> <Gold.Chemscore.Hbond.Weighted>
-3.3249

> <Gold.Chemscore.Metal.Weighted>
-0.0000

> <Gold.Chemscore.Lipo.Weighted>
-12.3815

> <Gold.Chemscore.Internal_Hbond.Weighted>
0.0000

> <Gold.Chemscore.DEClash.Weighted>
0.0149

> <Gold.Chemscore.DEInternal.Weighted>
1.7541

> <Gold.Chemscore.Rot.Weighted>
3.8646

> <Gold.Chemscore.Internal.Correction.Weighted>
   9.000000E+99

> <Gold.Protein.RotatedTorsions>
[ 6907 6896 6895 6894 ] final  159.97 input  -60.11 | X-H torsion
[ 7974 7965 7964 7962 ] final  -76.98 input  175.53 | X-H torsion
[ 8008 7997 7996 7995 ] final  115.97 input   59.86 | X-H torsion
[ 10167 10162 10161 10158 ] final -160.08 input  -65.29 | X-H torsion
[ 10718 10713 10712 10709 ] final  -67.18 input   66.30 | X-H torsion
[ 10763 10752 10751 10750 ] final -154.28 input  -60.55 | X-H torsion
[ 11005 11000 10999 10996 ] final   35.18 input  -57.11 | X-H torsion

> <Gold.Protein.ActiveResidues>
 VAL166  LYS551  ARG553  GLY616  TRP617  ASP618  TYR619  PRO620  LYS621  CYS622 
 ASP623  PHE694  ASN695  SER759  ASP760  ASP761  ALA762  ILE779  LEU786  VAL792 
 PHE793  MET794  SER795  GLU796  ALA797  LYS798  CYS799  TRP800  GLU811  SER814 

> <Gold.Protein.RotatedAtoms>
  151.9776  133.3747  159.4094 H   0  0  0  0  0  0  0  0  0  0  0  0  # atno 6907 bound_to 6896
  150.6939  134.4073  159.5155 H   0  0  0  0  0  0  0  0  0  0  0  0  # atno 6908 bound_to 6896
  152.1787  134.8773  160.0579 H   0  0  0  0  0  0  0  0  0  0  0  0  # atno 6909 bound_to 6896
  145.6057  140.9398  143.1217 H   0  0  0  0  0  0  0  0  0  0  0  0  # atno 7974 bound_to 7965
  156.2412  140.2927  156.0451 H   0  0  0  0  0  0  0  0  0  0  0  0  # atno 8008 bound_to 7997
  155.1944  140.0408  157.2923 H   0  0  0  0  0  0  0  0  0  0  0  0  # atno 8009 bound_to 7997
  154.6172  140.2467  155.7601 H   0  0  0  0  0  0  0  0  0  0  0  0  # atno 8010 bound_to 7997
  139.6566  143.9987  152.2198 H   0  0  0  0  0  0  0  0  0  0  0  0  # atno 10167 bound_to 10162
  156.0571  130.4274  150.1817 H   0  0  0  0  0  0  0  0  0  0  0  0  # atno 10718 bound_to 10713
  154.7870  135.3193  154.7864 H   0  0  0  0  0  0  0  0  0  0  0  0  # atno 10763 bound_to 10752
  153.8562  135.6857  153.4791 H   0  0  0  0  0  0  0  0  0  0  0  0  # atno 10764 bound_to 10752
  153.1525  135.4693  154.9596 H   0  0  0  0  0  0  0  0  0  0  0  0  # atno 10765 bound_to 10752
  140.2453  134.3367  155.7910 H   0  0  0  0  0  0  0  0  0  0  0  0  # atno 11005 bound_to 11000
  144.7291  139.7782  143.7354 LP  0  0  0  0  0  0  0  0  0  0  0  0  # atno 17320 bound_to 7965
  146.1543  139.4636  143.0029 LP  0  0  0  0  0  0  0  0  0  0  0  0  # atno 17321 bound_to 7965
  139.9715  144.6490  150.7984 LP  0  0  0  0  0  0  0  0  0  0  0  0  # atno 17342 bound_to 10162
  140.7562  143.3061  151.2959 LP  0  0  0  0  0  0  0  0  0  0  0  0  # atno 17343 bound_to 10162
  156.9892  130.9888  151.3419 LP  0  0  0  0  0  0  0  0  0  0  0  0  # atno 17370 bound_to 10713
  157.5550  130.8208  149.8193 LP  0  0  0  0  0  0  0  0  0  0  0  0  # atno 17371 bound_to 10713
  141.2207  133.7322  156.8950 LP  0  0  0  0  0  0  0  0  0  0  0  0  # atno 17394 bound_to 11000
  140.1612  134.9164  157.2717 LP  0  0  0  0  0  0  0  0  0  0  0  0  # atno 17395 bound_to 11000

$$$$
