AV-unprocessed.smi:2853|AV-procd|sdf|10974|dock10
  -GOLD-   2272015433D 1   1.00000     0.00000
 Structure written by MMmdl.
 43 44  0  0  0  0  0  0  0  0  1 V2000
  149.7831  137.9589  162.4543 C   0  0  0  0  0  0  0  0  0  0  0  0
  150.3053  138.8999  161.4239 C   0  0  0  0  0  0  0  0  0  0  0  0
  149.8941  140.1603  161.2956 N   0  0  0  0  0  0  0  0  0  0  0  0
  150.5381  140.8371  160.2556 C   0  0  0  0  0  0  0  0  0  0  0  0
  150.1697  142.2704  159.9871 C   0  0  0  0  0  0  0  0  0  0  0  0
  151.3918  143.1943  159.8036 C   0  0  0  0  0  0  0  0  0  0  0  0
  151.2532  144.5164  160.5782 C   0  0  0  0  0  0  0  0  0  0  0  0
  151.6539  143.4634  158.3146 C   0  0  0  0  0  0  0  0  0  0  0  0
  151.4568  140.0736  159.5682 C   0  0  0  0  0  0  0  0  0  0  0  0
  152.1988  140.5197  158.5199 N   0  0  0  0  0  0  0  0  0  0  0  0
  153.3600  140.0447  158.0380 C   0  0  0  0  0  0  0  0  0  0  0  0
  153.9757  139.0767  158.4834 O   0  0  0  0  0  0  0  0  0  0  0  0
  153.7632  140.7659  156.9783 N   0  0  0  0  0  0  0  0  0  0  0  0
  154.9569  140.5780  156.1425 C   0  0  2  0  0  0  0  0  0  0  0  0
  156.1644  140.4444  157.0887 C   0  0  0  0  0  0  0  0  0  0  0  0
  155.1798  141.7298  155.1467 C   0  0  0  0  0  0  0  0  0  0  0  0
  155.0691  141.0689  153.7740 C   0  0  0  0  0  0  0  0  0  0  0  0
  155.4679  139.7315  154.0188 O   0  0  0  0  0  0  0  0  0  0  0  0
  154.8479  139.3357  155.2319 C   0  0  0  0  0  0  0  0  0  0  0  0
  151.5319  138.4567  160.2512 S   0  0  0  0  0  0  0  0  0  0  0  0
  148.9464  138.4043  162.9936 H   0  0  0  0  0  0  0  0  0  0  0  0
  150.5702  137.7148  163.1678 H   0  0  0  0  0  0  0  0  0  0  0  0
  149.4421  137.0389  161.9795 H   0  0  0  0  0  0  0  0  0  0  0  0
  149.5526  142.3157  159.0887 H   0  0  0  0  0  0  0  0  0  0  0  0
  149.5379  142.6577  160.7871 H   0  0  0  0  0  0  0  0  0  0  0  0
  152.2676  142.6732  160.1928 H   0  0  0  0  0  0  0  0  0  0  0  0
  150.3679  145.0696  160.2629 H   0  0  0  0  0  0  0  0  0  0  0  0
  152.1200  145.1576  160.4175 H   0  0  0  0  0  0  0  0  0  0  0  0
  151.1747  144.3457  161.6521 H   0  0  0  0  0  0  0  0  0  0  0  0
  150.8134  143.9817  157.8523 H   0  0  0  0  0  0  0  0  0  0  0  0
  151.8136  142.5335  157.7679 H   0  0  0  0  0  0  0  0  0  0  0  0
  152.5423  144.0802  158.1761 H   0  0  0  0  0  0  0  0  0  0  0  0
  151.8011  141.2991  158.0171 H   0  0  0  0  0  0  0  0  0  0  0  0
  153.1694  141.5362  156.7087 H   0  0  0  0  0  0  0  0  0  0  0  0
  157.0880  140.2770  156.5330 H   0  0  0  0  0  0  0  0  0  0  0  0
  156.0399  139.6057  157.7746 H   0  0  0  0  0  0  0  0  0  0  0  0
  156.2991  141.3444  157.6899 H   0  0  0  0  0  0  0  0  0  0  0  0
  154.4778  142.5574  155.2551 H   0  0  0  0  0  0  0  0  0  0  0  0
  156.1792  142.1517  155.2605 H   0  0  0  0  0  0  0  0  0  0  0  0
  154.0397  141.0837  153.4129 H   0  0  0  0  0  0  0  0  0  0  0  0
  155.7010  141.5467  153.0251 H   0  0  0  0  0  0  0  0  0  0  0  0
  155.3351  138.4542  155.6498 H   0  0  0  0  0  0  0  0  0  0  0  0
  153.8156  139.0601  155.0146 H   0  0  0  0  0  0  0  0  0  0  0  0
  1  2  1  0  0  0  0
  1 21  1  0  0  0  0
  1 22  1  0  0  0  0
  1 23  1  0  0  0  0
  2 20  1  0  0  0  0
  2  3  2  0  0  0  0
  3  4  1  0  0  0  0
  4  5  1  0  0  0  0
  4  9  2  0  0  0  0
  5  6  1  0  0  0  0
  5 24  1  0  0  0  0
  5 25  1  0  0  0  0
  6  7  1  0  0  0  0
  6  8  1  0  0  0  0
  6 26  1  0  0  0  0
  7 27  1  0  0  0  0
  7 28  1  0  0  0  0
  7 29  1  0  0  0  0
  8 30  1  0  0  0  0
  8 31  1  0  0  0  0
  8 32  1  0  0  0  0
  9 10  1  0  0  0  0
  9 20  1  0  0  0  0
 10 11  1  0  0  0  0
 10 33  1  0  0  0  0
 11 12  2  0  0  0  0
 11 13  1  0  0  0  0
 13 14  1  0  0  0  0
 13 34  1  0  0  0  0
 14 19  1  0  0  0  0
 14 15  1  0  0  0  0
 14 16  1  0  0  0  0
 15 35  1  0  0  0  0
 15 36  1  0  0  0  0
 15 37  1  0  0  0  0
 16 17  1  0  0  0  0
 16 38  1  0  0  0  0
 16 39  1  0  0  0  0
 17 18  1  0  0  0  0
 17 40  1  0  0  0  0
 17 41  1  0  0  0  0
 18 19  1  0  0  0  0
 19 42  1  0  0  0  0
 19 43  1  0  0  0  0
M  END
> <s_m_source_file>
AV-unprocessed.smi

> <i_m_source_file_index>
2853

> <i_lp_mmshare_version>
43012

> <i_f3d_flags>
0

> <s_epik_input>
W0NIM11jMW5jKFtDSDJdW0NIXShbQ0gzXSlbQ0gzXSljKHMxKVtOSF1DKD1PKVtOSF1bQ0BAXTIoW0NIM10pW0NIMl1bQ0gyXU9bQ0gyXTI=

> <s_epik_cmdline>
J2VwaWtfcHl0aG9uJywgJy1waCcsICc3LjAnLCAnLXRuJywgJzgnLCAnLW1hJywgJzIwMCcsICctbWV0YWxfYmluZGluZycsICctaW1hZScsICc8aW5maWxlLm1hZT4nLCAnLW9tYWUnLCAnPG91dGZpbGUubWFlPic=

> <r_epik_Ionization_Penalty>
0.000723394

> <r_epik_Ionization_Penalty_Charging>
0

> <r_epik_Ionization_Penalty_Neutral>
0.000723394

> <r_epik_State_Penalty>
0.000446791

> <r_epik_Charging_Adjusted_Penalty>
0.000446791

> <i_epik_Tot_Q>
0

> <i_epik_Tot_abs_Q>
0

> <r_epik_Metal_State_Penalty>
-0

> <b_epik_Metal_Only>
0

> <s_lp_Force_Field>
OPLS_2005

> <r_lp_Energy>
15.0202

> <b_lp_Chiralities_Consistent>
1

> <s_lp_Variant>
AV-unprocessed.smi:2853-2

> <Gold.Version>
5.8.1

> <Gold.Id.Protein>
6NUR|6NUR_protein|mol2

> <Gold.PLP.Fitness>
41.8903

> <Gold.PLP.PLP>
-41.1870

> <Gold.PLP.part.hbond>
-1.0000

> <Gold.PLP.part.metal>
0.0000

> <Gold.PLP.part.buried>
-2.8555

> <Gold.PLP.part.nonpolar>
-36.8195

> <Gold.PLP.part.repulsive>
0.4208

> <Gold.PLP.ligand.clash>
0.0000

> <Gold.PLP.ligand.torsion>
0.9966

> <Gold.PLP.Chemscore.Hbond>
0.8928

> <Gold.PLP.Chemscore.CHOScore>
0.0000

> <Gold.PLP.Chemscore.Metal>
0.0000

> <Gold.PLP.Chemscore.Internal.Correction>
0.0180

> <Gold.Rescore>
     Score         DG    S(hbond)    S(metal)    S(lipo)     H(rot)  DE(clash)    DE(int)     intcor
     14.39     -17.86       0.39        0.00     122.62       1.28       0.51       2.96       ----

> <Gold.Chemscore.Fitness>
14.3918

> <Gold.Chemscore.DG>
-17.8593

> <Gold.Chemscore.ZeroCoef>
-5.4800

> <Gold.Chemscore.Hbond>
0.3883

> <Gold.Chemscore.Metal>
0.0000

> <Gold.Chemscore.Lipo>
122.6239

> <Gold.Chemscore.Internal_Hbond>
0.0000

> <Gold.Chemscore.DEClash>
0.5056

> <Gold.Chemscore.DEInternal>
2.9619

> <Gold.Chemscore.Rot>
1.2753

> <Gold.Chemscore.Internal.Correction>
   9.000000E+99

> <Gold.Chemscore.Hbond.Weighted>
-1.2969

> <Gold.Chemscore.Metal.Weighted>
-0.0000

> <Gold.Chemscore.Lipo.Weighted>
-14.3470

> <Gold.Chemscore.Internal_Hbond.Weighted>
0.0000

> <Gold.Chemscore.DEClash.Weighted>
0.5056

> <Gold.Chemscore.DEInternal.Weighted>
2.9619

> <Gold.Chemscore.Rot.Weighted>
3.2646

> <Gold.Chemscore.Internal.Correction.Weighted>
   9.000000E+99

> <Gold.Protein.RotatedTorsions>
[ 6907 6896 6895 6894 ] final   20.80 input  -60.11 | X-H torsion
[ 7974 7965 7964 7962 ] final   74.24 input  175.53 | X-H torsion
[ 8008 7997 7996 7995 ] final -100.59 input   59.86 | X-H torsion
[ 10167 10162 10161 10158 ] final -106.62 input  -65.29 | X-H torsion
[ 10718 10713 10712 10709 ] final  -77.05 input   66.30 | X-H torsion
[ 10763 10752 10751 10750 ] final   42.08 input  -60.55 | X-H torsion
[ 11005 11000 10999 10996 ] final  174.95 input  -57.11 | X-H torsion

> <Gold.Protein.ActiveResidues>
 VAL166  LYS551  ARG553  GLY616  TRP617  ASP618  TYR619  PRO620  LYS621  CYS622 
 ASP623  PHE694  ASN695  SER759  ASP760  ASP761  ALA762  ILE779  LEU786  VAL792 
 PHE793  MET794  SER795  GLU796  ALA797  LYS798  CYS799  TRP800  GLU811  SER814 

> <Gold.Protein.RotatedAtoms>
  151.9020  135.0374  160.0506 H   0  0  0  0  0  0  0  0  0  0  0  0  # atno 6907 bound_to 6896
  152.2351  133.5085  159.5246 H   0  0  0  0  0  0  0  0  0  0  0  0  # atno 6908 bound_to 6896
  150.7036  134.1081  159.4033 H   0  0  0  0  0  0  0  0  0  0  0  0  # atno 6909 bound_to 6896
  145.7308  139.2683  143.1542 H   0  0  0  0  0  0  0  0  0  0  0  0  # atno 7974 bound_to 7965
  154.8307  140.0440  157.1475 H   0  0  0  0  0  0  0  0  0  0  0  0  # atno 8008 bound_to 7997
  154.9156  140.3019  155.5223 H   0  0  0  0  0  0  0  0  0  0  0  0  # atno 8009 bound_to 7997
  156.2987  140.2350  156.4200 H   0  0  0  0  0  0  0  0  0  0  0  0  # atno 8010 bound_to 7997
  140.1858  143.3931  152.1246 H   0  0  0  0  0  0  0  0  0  0  0  0  # atno 10167 bound_to 10162
  156.0156  130.4481  150.3286 H   0  0  0  0  0  0  0  0  0  0  0  0  # atno 10718 bound_to 10713
  152.9892  135.6142  154.2891 H   0  0  0  0  0  0  0  0  0  0  0  0  # atno 10763 bound_to 10752
  154.2617  135.2782  155.2777 H   0  0  0  0  0  0  0  0  0  0  0  0  # atno 10764 bound_to 10752
  154.5200  135.5817  153.6730 H   0  0  0  0  0  0  0  0  0  0  0  0  # atno 10765 bound_to 10752
  140.3569  134.7146  157.4305 H   0  0  0  0  0  0  0  0  0  0  0  0  # atno 11005 bound_to 11000
  146.0539  140.8040  142.9768 LP  0  0  0  0  0  0  0  0  0  0  0  0  # atno 17320 bound_to 7965
  144.6893  140.3095  143.7250 LP  0  0  0  0  0  0  0  0  0  0  0  0  # atno 17321 bound_to 7965
  139.5277  144.7122  151.5170 LP  0  0  0  0  0  0  0  0  0  0  0  0  # atno 17342 bound_to 10162
  140.6489  143.8737  150.6765 LP  0  0  0  0  0  0  0  0  0  0  0  0  # atno 17343 bound_to 10162
  157.1385  131.0290  151.2938 LP  0  0  0  0  0  0  0  0  0  0  0  0  # atno 17370 bound_to 10713
  157.4492  130.7588  149.7136 LP  0  0  0  0  0  0  0  0  0  0  0  0  # atno 17371 bound_to 10713
  140.0658  134.5932  155.8697 LP  0  0  0  0  0  0  0  0  0  0  0  0  # atno 17394 bound_to 11000
  141.1996  133.6607  156.5850 LP  0  0  0  0  0  0  0  0  0  0  0  0  # atno 17395 bound_to 11000

$$$$
