AV-unprocessed.smi:2260|AV-procd|sdf|9133|dock2
  -GOLD-   2272012343D 1   1.00000     0.00000
 Structure written by MMmdl.
 43 44  0  0  0  0  0  0  0  0  2 V2000
  151.4999  145.5446  160.1525 C   0  0  0  0  0  0  0  0  0  0  0  0
  152.0605  144.2037  160.5948 C   0  0  0  0  0  0  0  0  0  0  0  0
  152.3431  143.8558  161.8550 C   0  0  0  0  0  0  0  0  0  0  0  0
  152.9377  142.2177  161.9876 S   0  0  0  0  0  0  0  0  0  0  0  0
  152.7785  142.0056  160.2071 C   0  0  0  0  0  0  0  0  0  0  0  0
  153.0601  140.9568  159.6295 O   0  0  0  0  0  0  0  0  0  0  0  0
  152.3019  143.1933  159.6554 N   0  0  0  0  0  0  0  0  0  0  0  0
  152.0848  143.3401  158.2134 C   0  0  0  0  0  0  0  0  0  0  0  0
  151.0819  142.2991  157.6930 C   0  0  0  0  0  0  0  0  0  0  0  0
  150.7744  142.5331  156.2670 N   0  3  0  0  0  0  0  0  0  0  0  0
  150.6792  141.3171  155.4236 C   0  0  1  0  0  0  0  0  0  0  0  0
  151.6664  140.2267  155.9036 C   0  0  0  0  0  0  0  0  0  0  0  0
  151.5831  138.9634  155.0362 C   0  0  0  0  0  0  0  0  0  0  0  0
  150.1507  138.4208  154.9808 C   0  0  0  0  0  0  0  0  0  0  0  0
  149.1706  139.5028  154.4976 C   0  0  0  0  0  0  0  0  0  0  0  0
  149.2085  140.7988  155.3489 C   0  0  0  0  0  0  0  0  0  0  0  0
  148.6126  140.5253  156.7512 C   0  0  0  0  0  0  0  0  0  0  0  0
  148.3206  141.8469  154.6435 C   0  0  0  0  0  0  0  0  0  0  0  0
  151.0058  146.0395  160.9891 H   0  0  0  0  0  0  0  0  0  0  0  0
  150.7629  145.4410  159.3570 H   0  0  0  0  0  0  0  0  0  0  0  0
  152.3038  146.1931  159.8040 H   0  0  0  0  0  0  0  0  0  0  0  0
  152.2250  144.4750  162.7322 H   0  0  0  0  0  0  0  0  0  0  0  0
  151.7504  144.3500  157.9757 H   0  0  0  0  0  0  0  0  0  0  0  0
  153.0355  143.2256  157.6895 H   0  0  0  0  0  0  0  0  0  0  0  0
  151.4940  141.2960  157.8101 H   0  0  0  0  0  0  0  0  0  0  0  0
  150.1664  142.3413  158.2822 H   0  0  0  0  0  0  0  0  0  0  0  0
  149.9111  143.0516  156.1897 H   0  0  0  0  0  0  0  0  0  0  0  0
  150.9727  141.6022  154.4113 H   0  0  0  0  0  0  0  0  0  0  0  0
  152.6907  140.5965  155.8701 H   0  0  0  0  0  0  0  0  0  0  0  0
  151.4733  139.9703  156.9456 H   0  0  0  0  0  0  0  0  0  0  0  0
  151.9247  139.1919  154.0257 H   0  0  0  0  0  0  0  0  0  0  0  0
  152.2570  138.1991  155.4246 H   0  0  0  0  0  0  0  0  0  0  0  0
  150.1094  137.5616  154.3105 H   0  0  0  0  0  0  0  0  0  0  0  0
  149.8548  138.0506  155.9626 H   0  0  0  0  0  0  0  0  0  0  0  0
  149.4124  139.7430  153.4609 H   0  0  0  0  0  0  0  0  0  0  0  0
  148.1599  139.0931  154.4786 H   0  0  0  0  0  0  0  0  0  0  0  0
  147.6010  140.1252  156.6751 H   0  0  0  0  0  0  0  0  0  0  0  0
  148.5477  141.4352  157.3483 H   0  0  0  0  0  0  0  0  0  0  0  0
  149.1983  139.8064  157.3226 H   0  0  0  0  0  0  0  0  0  0  0  0
  147.2995  141.4827  154.5238 H   0  0  0  0  0  0  0  0  0  0  0  0
  148.6978  142.0872  153.6488 H   0  0  0  0  0  0  0  0  0  0  0  0
  148.2646  142.7794  155.2058 H   0  0  0  0  0  0  0  0  0  0  0  0
  151.5209  143.1004  155.8910 H   0  0  0  0  0  0  0  0  0  0  0  0
  1  2  1  0  0  0  0
  1 19  1  0  0  0  0
  1 20  1  0  0  0  0
  1 21  1  0  0  0  0
  2  7  1  0  0  0  0
  2  3  2  0  0  0  0
  3  4  1  0  0  0  0
  3 22  1  0  0  0  0
  4  5  1  0  0  0  0
  5  6  2  0  0  0  0
  5  7  1  0  0  0  0
  7  8  1  0  0  0  0
  8  9  1  0  0  0  0
  8 23  1  0  0  0  0
  8 24  1  0  0  0  0
  9 10  1  0  0  0  0
  9 25  1  0  0  0  0
  9 26  1  0  0  0  0
 10 11  1  0  0  0  0
 10 27  1  0  0  0  0
 10 43  1  0  0  0  0
 11 16  1  0  0  0  0
 11 12  1  0  0  0  0
 11 28  1  0  0  0  0
 12 13  1  0  0  0  0
 12 29  1  0  0  0  0
 12 30  1  0  0  0  0
 13 14  1  0  0  0  0
 13 31  1  0  0  0  0
 13 32  1  0  0  0  0
 14 15  1  0  0  0  0
 14 33  1  0  0  0  0
 14 34  1  0  0  0  0
 15 16  1  0  0  0  0
 15 35  1  0  0  0  0
 15 36  1  0  0  0  0
 16 17  1  0  0  0  0
 16 18  1  0  0  0  0
 17 37  1  0  0  0  0
 17 38  1  0  0  0  0
 17 39  1  0  0  0  0
 18 40  1  0  0  0  0
 18 41  1  0  0  0  0
 18 42  1  0  0  0  0
M  CHG  1  10   1
M  END
> <s_m_source_file>
AV-unprocessed.smi

> <i_m_source_file_index>
2260

> <i_lp_mmshare_version>
43012

> <i_f3d_flags>
0

> <s_epik_input>
W0NIM11jMVtjSF1zYyg9TyluMVtDSDJdW0NIMl1bTkhdW0NAQEhdKEMyKFtDSDNdKVtDSDNdKVtDSDJdW0NIMl1bQ0gyXVtDSDJdMg==

> <s_epik_cmdline>
J2VwaWtfcHl0aG9uJywgJy1waCcsICc3LjAnLCAnLXRuJywgJzgnLCAnLW1hJywgJzIwMCcsICctbWV0YWxfYmluZGluZycsICctaW1hZScsICc8aW5maWxlLm1hZT4nLCAnLW9tYWUnLCAnPG91dGZpbGUubWFlPic=

> <r_epik_Ionization_Penalty>
0.0114277

> <r_epik_Ionization_Penalty_Charging>
0.0114277

> <r_epik_Ionization_Penalty_Neutral>
2.57259e-08

> <r_epik_State_Penalty>
0.0087935

> <r_epik_Charging_Adjusted_Penalty>
0.0202212

> <i_epik_Tot_Q>
1

> <i_epik_Tot_abs_Q>
1

> <r_epik_Metal_State_Penalty>
0.0087935

> <b_epik_Metal_Only>
0

> <s_lp_Force_Field>
OPLS_2005

> <r_lp_Energy>
26.3159

> <b_lp_Chiralities_Consistent>
1

> <s_lp_Variant>
AV-unprocessed.smi:2260-2

> <Gold.Version>
5.8.1

> <Gold.Id.Protein>
6NUR|6NUR_protein|mol2

> <Gold.PLP.Fitness>
50.9844

> <Gold.PLP.PLP>
-46.5312

> <Gold.PLP.part.hbond>
-1.0000

> <Gold.PLP.part.metal>
0.0000

> <Gold.PLP.part.buried>
-3.1918

> <Gold.PLP.part.nonpolar>
-40.9950

> <Gold.PLP.part.repulsive>
0.1011

> <Gold.PLP.ligand.clash>
0.0000

> <Gold.PLP.ligand.torsion>
0.6605

> <Gold.PLP.Chemscore.Hbond>
1.9200

> <Gold.PLP.Chemscore.CHOScore>
0.0000

> <Gold.PLP.Chemscore.Metal>
0.0000

> <Gold.Chemscore.Hbonds>
donor molecule, donor type, donor heavy atom, donor atom, acceptor molecule, acceptor atom, score
      L1  H    10    27       P1  8028  2.00

> <Gold.PLP.Chemscore.Internal.Correction>
0.0143

> <Gold.Rescore>
     Score         DG    S(hbond)    S(metal)    S(lipo)     H(rot)  DE(clash)    DE(int)     intcor
     16.29     -18.71       1.00        0.00     117.00       1.48       1.70       0.72       ----

> <Gold.Chemscore.Fitness>
16.2891

> <Gold.Chemscore.DG>
-18.7094

> <Gold.Chemscore.ZeroCoef>
-5.4800

> <Gold.Chemscore.Hbond>
0.9955

> <Gold.Chemscore.Metal>
0.0000

> <Gold.Chemscore.Lipo>
117.0041

> <Gold.Chemscore.Internal_Hbond>
0.0000

> <Gold.Chemscore.DEClash>
1.6964

> <Gold.Chemscore.DEInternal>
0.7239

> <Gold.Chemscore.Rot>
1.4785

> <Gold.Chemscore.Internal.Correction>
   9.000000E+99

> <Gold.Chemscore.Hbonds>
donor molecule, donor type, donor heavy atom, donor atom, acceptor molecule, acceptor atom, score
      L1  H    10    27       P1  8028  0.89

> <Gold.Chemscore.Hbond.Weighted>
-3.3249

> <Gold.Chemscore.Metal.Weighted>
-0.0000

> <Gold.Chemscore.Lipo.Weighted>
-13.6895

> <Gold.Chemscore.Internal_Hbond.Weighted>
0.0000

> <Gold.Chemscore.DEClash.Weighted>
1.6964

> <Gold.Chemscore.DEInternal.Weighted>
0.7239

> <Gold.Chemscore.Rot.Weighted>
3.7850

> <Gold.Chemscore.Internal.Correction.Weighted>
   9.000000E+99

> <Gold.Protein.RotatedTorsions>
[ 6907 6896 6895 6894 ] final   18.48 input  -60.11 | X-H torsion
[ 7974 7965 7964 7962 ] final -114.75 input  175.53 | X-H torsion
[ 8008 7997 7996 7995 ] final   58.63 input   59.86 | X-H torsion
[ 10167 10162 10161 10158 ] final  125.05 input  -65.29 | X-H torsion
[ 10718 10713 10712 10709 ] final  107.84 input   66.30 | X-H torsion
[ 10763 10752 10751 10750 ] final -141.14 input  -60.55 | X-H torsion
[ 11005 11000 10999 10996 ] final -130.76 input  -57.11 | X-H torsion

> <Gold.Protein.ActiveResidues>
 VAL166  LYS551  ARG553  GLY616  TRP617  ASP618  TYR619  PRO620  LYS621  CYS622 
 ASP623  PHE694  ASN695  SER759  ASP760  ASP761  ALA762  ILE779  LEU786  VAL792 
 PHE793  MET794  SER795  GLU796  ALA797  LYS798  CYS799  TRP800  GLU811  SER814 

> <Gold.Protein.RotatedAtoms>
  151.8660  135.0507  160.0474 H   0  0  0  0  0  0  0  0  0  0  0  0  # atno 6907 bound_to 6896
  152.2626  133.5306  159.5399 H   0  0  0  0  0  0  0  0  0  0  0  0  # atno 6908 bound_to 6896
  150.7122  134.0725  159.3912 H   0  0  0  0  0  0  0  0  0  0  0  0  # atno 6909 bound_to 6896
  145.1165  140.8643  143.3839 H   0  0  0  0  0  0  0  0  0  0  0  0  # atno 7974 bound_to 7965
  155.5531  140.3487  155.4473 H   0  0  0  0  0  0  0  0  0  0  0  0  # atno 8008 bound_to 7997
  156.0569  140.1331  157.0012 H   0  0  0  0  0  0  0  0  0  0  0  0  # atno 8009 bound_to 7997
  154.4460  140.0993  156.6443 H   0  0  0  0  0  0  0  0  0  0  0  0  # atno 8010 bound_to 7997
  139.5707  144.6937  151.3786 H   0  0  0  0  0  0  0  0  0  0  0  0  # atno 10167 bound_to 10162
  157.6611  131.0881  150.6217 H   0  0  0  0  0  0  0  0  0  0  0  0  # atno 10718 bound_to 10713
  154.8555  135.3533  154.5820 H   0  0  0  0  0  0  0  0  0  0  0  0  # atno 10763 bound_to 10752
  153.6431  135.6997  153.5239 H   0  0  0  0  0  0  0  0  0  0  0  0  # atno 10764 bound_to 10752
  153.2955  135.4222  155.1164 H   0  0  0  0  0  0  0  0  0  0  0  0  # atno 10765 bound_to 10752
  140.9317  134.1310  157.4228 H   0  0  0  0  0  0  0  0  0  0  0  0  # atno 11005 bound_to 11000
  145.0788  139.2975  143.5794 LP  0  0  0  0  0  0  0  0  0  0  0  0  # atno 17320 bound_to 7965
  146.3523  140.0288  142.8652 LP  0  0  0  0  0  0  0  0  0  0  0  0  # atno 17321 bound_to 7965
  140.6991  143.7675  150.7374 LP  0  0  0  0  0  0  0  0  0  0  0  0  # atno 17342 bound_to 10162
  140.1180  143.4638  152.2330 LP  0  0  0  0  0  0  0  0  0  0  0  0  # atno 17343 bound_to 10162
  156.6520  130.4488  149.5716 LP  0  0  0  0  0  0  0  0  0  0  0  0  # atno 17370 bound_to 10713
  156.2131  130.6691  151.1290 LP  0  0  0  0  0  0  0  0  0  0  0  0  # atno 17371 bound_to 10713
  139.8798  135.0007  156.6027 LP  0  0  0  0  0  0  0  0  0  0  0  0  # atno 17394 bound_to 11000
  140.7853  133.8626  155.8601 LP  0  0  0  0  0  0  0  0  0  0  0  0  # atno 17395 bound_to 11000

$$$$
