AV-unprocessed.smi:2554|AV-procd|sdf|10019|dock8
  -GOLD-   2272014 63D 1   1.00000     0.00000
 Structure written by MMmdl.
 21 21  0  0  0  0  0  0  0  0  2 V2000
  146.7927  132.7105  151.8550 C   0  0  0  0  0  0  0  0  0  0  0  0
  145.9931  133.8353  151.2863 C   0  0  0  0  0  0  0  0  0  0  0  0
  146.3732  135.1614  151.4086 N   0  0  0  0  0  0  0  0  0  0  0  0
  145.4472  135.9001  150.7924 C   0  0  0  0  0  0  0  0  0  0  0  0
  144.4700  135.1763  150.2606 N   0  0  0  0  0  0  0  0  0  0  0  0
  144.8100  133.8578  150.5752 C   0  0  0  0  0  0  0  0  0  0  0  0
  143.9426  132.7151  150.1397 C   0  0  0  0  0  0  0  0  0  0  0  0
  143.7182  132.7092  148.6217 C   0  0  0  0  0  0  0  0  0  0  0  0
  142.3113  132.4329  148.2873 N   0  3  0  0  0  0  0  0  0  0  0  0
  147.1981  135.5084  151.8770 H   0  0  0  0  0  0  0  0  0  0  0  0
  146.3722  131.7437  151.5788 H   0  0  0  0  0  0  0  0  0  0  0  0
  146.8179  132.7670  152.9436 H   0  0  0  0  0  0  0  0  0  0  0  0
  147.8200  132.7434  151.4914 H   0  0  0  0  0  0  0  0  0  0  0  0
  145.4897  136.9777  150.7318 H   0  0  0  0  0  0  0  0  0  0  0  0
  144.3858  131.7680  150.4488 H   0  0  0  0  0  0  0  0  0  0  0  0
  142.9797  132.7719  150.6488 H   0  0  0  0  0  0  0  0  0  0  0  0
  143.9951  133.6730  148.1930 H   0  0  0  0  0  0  0  0  0  0  0  0
  144.3457  131.9530  148.1488 H   0  0  0  0  0  0  0  0  0  0  0  0
  142.2096  132.3713  147.2843 H   0  0  0  0  0  0  0  0  0  0  0  0
  141.7294  133.1802  148.6384 H   0  0  0  0  0  0  0  0  0  0  0  0
  142.0285  131.5595  148.7082 H   0  0  0  0  0  0  0  0  0  0  0  0
  1  2  1  0  0  0  0
  1 11  1  0  0  0  0
  1 12  1  0  0  0  0
  1 13  1  0  0  0  0
  2  6  2  0  0  0  0
  2  3  1  0  0  0  0
  3 10  1  0  0  0  0
  3  4  1  0  0  0  0
  4  5  2  0  0  0  0
  4 14  1  0  0  0  0
  5  6  1  0  0  0  0
  6  7  1  0  0  0  0
  7  8  1  0  0  0  0
  7 15  1  0  0  0  0
  7 16  1  0  0  0  0
  8  9  1  0  0  0  0
  8 17  1  0  0  0  0
  8 18  1  0  0  0  0
  9 19  1  0  0  0  0
  9 20  1  0  0  0  0
  9 21  1  0  0  0  0
M  CHG  1   9   1
M  END
> <s_m_source_file>
AV-unprocessed.smi

> <i_m_source_file_index>
2554

> <i_lp_mmshare_version>
43012

> <i_f3d_flags>
0

> <s_epik_input>
W0NIM11jMVtuSF1bY0hdbmMxW0NIMl1bQ0gyXVtOSDJd

> <s_epik_cmdline>
J2VwaWtfcHl0aG9uJywgJy1waCcsICc3LjAnLCAnLXRuJywgJzgnLCAnLW1hJywgJzIwMCcsICctbWV0YWxfYmluZGluZycsICctaW1hZScsICc8aW5maWxlLm1hZT4nLCAnLW9tYWUnLCAnPG91dGZpbGUubWFlPic=

> <r_lp_tautomer_probability>
0.5

> <r_epik_Ionization_Penalty>
0.151655

> <r_epik_Ionization_Penalty_Charging>
0.151655

> <r_epik_Ionization_Penalty_Neutral>
1.31637e-07

> <r_epik_State_Penalty>
0.545826

> <r_epik_Charging_Adjusted_Penalty>
0.697481

> <i_epik_Tot_Q>
1

> <i_epik_Tot_abs_Q>
1

> <r_epik_Metal_State_Penalty>
0.436539

> <b_epik_Metal_Only>
0

> <s_lp_Force_Field>
OPLS_2005

> <r_lp_Energy>
1.06437

> <b_lp_Chiralities_Consistent>
1

> <s_lp_Variant>
AV-unprocessed.smi:2554-1

> <Gold.Version>
5.8.1

> <Gold.Id.Protein>
6NUR|6NUR_protein|mol2

> <Gold.PLP.Fitness>
41.0205

> <Gold.PLP.PLP>
-23.6950

> <Gold.PLP.part.hbond>
-4.0000

> <Gold.PLP.part.metal>
0.0000

> <Gold.PLP.part.buried>
-4.1725

> <Gold.PLP.part.nonpolar>
-16.1540

> <Gold.PLP.part.repulsive>
0.5886

> <Gold.PLP.ligand.clash>
0.0000

> <Gold.PLP.ligand.torsion>
0.3254

> <Gold.PLP.Chemscore.Hbond>
4.9920

> <Gold.PLP.Chemscore.CHOScore>
1.0000

> <Gold.PLP.Chemscore.Metal>
0.0000

> <Gold.Chemscore.Hbonds>
donor molecule, donor type, donor heavy atom, donor atom, acceptor molecule, acceptor atom, score
      L1  H     3    10       P1  7948  1.00
      L1  H     9    19       P1 10195  1.00
      L1  H     9    20       P1 10186  2.00
      L1  H     9    21       P1 10952  1.00
      L1  C     4    14       P1 10171  1.00

> <Gold.PLP.Chemscore.Internal.Correction>
0.0002

> <Gold.Rescore>
     Score         DG    S(hbond)    S(metal)    S(lipo)     H(rot)  DE(clash)    DE(int)     intcor
     19.47     -19.88       3.92        0.00      42.89       1.45       0.11       0.30       ----

> <Gold.Chemscore.Fitness>
19.4717

> <Gold.Chemscore.DG>
-19.8843

> <Gold.Chemscore.ZeroCoef>
-5.4800

> <Gold.Chemscore.Hbond>
3.9185

> <Gold.Chemscore.Metal>
0.0000

> <Gold.Chemscore.Lipo>
42.8874

> <Gold.Chemscore.Internal_Hbond>
0.0000

> <Gold.Chemscore.DEClash>
0.1119

> <Gold.Chemscore.DEInternal>
0.3007

> <Gold.Chemscore.Rot>
1.4458

> <Gold.Chemscore.Internal.Correction>
   9.000000E+99

> <Gold.Chemscore.Hbonds>
donor molecule, donor type, donor heavy atom, donor atom, acceptor molecule, acceptor atom, score
      L1  H     3    10       P1  7948  0.94
      L1  H     9    19       P1 10195  0.94
      L1  H     9    20       P1 10186  1.00
      L1  H     9    21       P1 10952  0.98

> <Gold.Chemscore.Hbond.Weighted>
-13.0877

> <Gold.Chemscore.Metal.Weighted>
-0.0000

> <Gold.Chemscore.Lipo.Weighted>
-5.0178

> <Gold.Chemscore.Internal_Hbond.Weighted>
0.0000

> <Gold.Chemscore.DEClash.Weighted>
0.1119

> <Gold.Chemscore.DEInternal.Weighted>
0.3007

> <Gold.Chemscore.Rot.Weighted>
3.7012

> <Gold.Chemscore.Internal.Correction.Weighted>
   9.000000E+99

> <Gold.Protein.RotatedTorsions>
[ 6907 6896 6895 6894 ] final  108.52 input  -60.11 | X-H torsion
[ 7974 7965 7964 7962 ] final  -49.71 input  175.53 | X-H torsion
[ 8008 7997 7996 7995 ] final  103.18 input   59.86 | X-H torsion
[ 10167 10162 10161 10158 ] final -152.01 input  -65.29 | X-H torsion
[ 10718 10713 10712 10709 ] final -129.52 input   66.30 | X-H torsion
[ 10763 10752 10751 10750 ] final  -61.55 input  -60.55 | X-H torsion
[ 11005 11000 10999 10996 ] final  -51.13 input  -57.11 | X-H torsion

> <Gold.Protein.ActiveResidues>
 VAL166  LYS551  ARG553  GLY616  TRP617  ASP618  TYR619  PRO620  LYS621  CYS622 
 ASP623  PHE694  ASN695  SER759  ASP760  ASP761  ALA762  ILE779  LEU786  VAL792 
 PHE793  MET794  SER795  GLU796  ALA797  LYS798  CYS799  TRP800  GLU811  SER814 

> <Gold.Protein.RotatedAtoms>
  152.5108  133.9076  159.7471 H   0  0  0  0  0  0  0  0  0  0  0  0  # atno 6907 bound_to 6896
  150.9477  133.6576  159.2785 H   0  0  0  0  0  0  0  0  0  0  0  0  # atno 6908 bound_to 6896
  151.3865  135.0954  159.9565 H   0  0  0  0  0  0  0  0  0  0  0  0  # atno 6909 bound_to 6896
  145.9376  140.7692  142.9568 H   0  0  0  0  0  0  0  0  0  0  0  0  # atno 7974 bound_to 7965
  156.1461  140.3169  155.8572 H   0  0  0  0  0  0  0  0  0  0  0  0  # atno 8008 bound_to 7997
  155.4062  140.0503  157.3051 H   0  0  0  0  0  0  0  0  0  0  0  0  # atno 8009 bound_to 7997
  154.5017  140.2132  155.9344 H   0  0  0  0  0  0  0  0  0  0  0  0  # atno 8010 bound_to 7997
  139.7218  143.8945  152.2506 H   0  0  0  0  0  0  0  0  0  0  0  0  # atno 10167 bound_to 10162
  156.2055  130.6885  151.0589 H   0  0  0  0  0  0  0  0  0  0  0  0  # atno 10718 bound_to 10713
  154.2862  135.6262  153.5367 H   0  0  0  0  0  0  0  0  0  0  0  0  # atno 10763 bound_to 10752
  152.9859  135.5645  154.5440 H   0  0  0  0  0  0  0  0  0  0  0  0  # atno 10764 bound_to 10752
  154.5041  135.2873  155.1372 H   0  0  0  0  0  0  0  0  0  0  0  0  # atno 10765 bound_to 10752
  141.0854  133.6643  156.3833 H   0  0  0  0  0  0  0  0  0  0  0  0  # atno 11005 bound_to 11000
  144.6774  140.2228  143.7364 LP  0  0  0  0  0  0  0  0  0  0  0  0  # atno 17320 bound_to 7965
  145.8343  139.2100  143.1864 LP  0  0  0  0  0  0  0  0  0  0  0  0  # atno 17321 bound_to 7965
  139.8843  144.7000  150.8842 LP  0  0  0  0  0  0  0  0  0  0  0  0  # atno 17342 bound_to 10162
  140.7755  143.3636  151.1781 LP  0  0  0  0  0  0  0  0  0  0  0  0  # atno 17343 bound_to 10162
  157.7010  131.0776  150.6821 LP  0  0  0  0  0  0  0  0  0  0  0  0  # atno 17370 bound_to 10713
  156.6879  130.4586  149.5608 LP  0  0  0  0  0  0  0  0  0  0  0  0  # atno 17371 bound_to 10713
  140.5374  134.6154  157.5369 LP  0  0  0  0  0  0  0  0  0  0  0  0  # atno 17394 bound_to 11000
  139.9672  134.7353  156.0114 LP  0  0  0  0  0  0  0  0  0  0  0  0  # atno 17395 bound_to 11000

$$$$
