AV-unprocessed.smi:71|AV-procd|sdf|662|dock5
  -GOLD-   2262016563D 1   1.00000     0.00000
 Structure written by MMmdl.
 31 32  0  0  0  0  0  0  0  0  1 V2000
  152.0416  143.7692  159.6071 N   0  0  0  0  0  0  0  0  0  0  0  0
  152.2775  142.4530  159.2193 C   0  0  0  0  0  0  0  0  0  0  0  0
  152.9063  141.5559  160.1059 C   0  0  0  0  0  0  0  0  0  0  0  0
  153.1324  140.2356  159.6732 C   0  0  0  0  0  0  0  0  0  0  0  0
  152.7188  139.8651  158.3794 C   0  0  0  0  0  0  0  0  0  0  0  0
  152.0836  140.8324  157.5676 C   0  0  0  0  0  0  0  0  0  0  0  0
  151.6450  140.4901  156.1741 C   0  0  0  0  0  0  0  0  0  0  0  0
  152.4610  140.0047  155.3901 O   0  0  0  0  0  0  0  0  0  0  0  0
  150.3578  140.7414  155.8374 N   0  0  0  0  0  0  0  0  0  0  0  0
  149.4005  141.5048  156.6438 C   0  0  0  0  0  0  0  0  0  0  0  0
  148.1090  141.5644  155.8299 C   0  0  0  0  0  0  0  0  0  0  0  0
  148.5618  141.3491  154.3944 C   0  0  0  0  0  0  0  0  0  0  0  0
  149.7998  140.4503  154.5109 C   0  0  2  0  0  0  0  0  0  0  0  0
  149.4699  138.9487  154.3745 C   0  0  0  0  0  0  0  0  0  0  0  0
  148.8356  138.6954  153.1389 O   0  0  0  0  0  0  0  0  0  0  0  0
  151.8779  142.1050  157.9779 N   0  0  0  0  0  0  0  0  0  0  0  0
  151.5935  144.4308  158.9897 H   0  0  0  0  0  0  0  0  0  0  0  0
  152.2819  144.0944  160.5324 H   0  0  0  0  0  0  0  0  0  0  0  0
  153.2136  141.8699  161.0928 H   0  0  0  0  0  0  0  0  0  0  0  0
  153.6175  139.5207  160.3211 H   0  0  0  0  0  0  0  0  0  0  0  0
  152.8893  138.8608  158.0192 H   0  0  0  0  0  0  0  0  0  0  0  0
  149.2130  141.0487  157.6155 H   0  0  0  0  0  0  0  0  0  0  0  0
  149.7923  142.5098  156.8093 H   0  0  0  0  0  0  0  0  0  0  0  0
  147.4491  140.7491  156.1299 H   0  0  0  0  0  0  0  0  0  0  0  0
  147.5656  142.4998  155.9666 H   0  0  0  0  0  0  0  0  0  0  0  0
  147.7763  140.9315  153.7639 H   0  0  0  0  0  0  0  0  0  0  0  0
  148.8511  142.3080  153.9620 H   0  0  0  0  0  0  0  0  0  0  0  0
  150.5185  140.7309  153.7379 H   0  0  0  0  0  0  0  0  0  0  0  0
  150.3785  138.3472  154.4081 H   0  0  0  0  0  0  0  0  0  0  0  0
  148.8310  138.6101  155.1908 H   0  0  0  0  0  0  0  0  0  0  0  0
  149.0725  139.3808  152.5329 H   0  0  0  0  0  0  0  0  0  0  0  0
  1  2  1  0  0  0  0
  1 17  1  0  0  0  0
  1 18  1  0  0  0  0
  2 16  1  0  0  0  0
  2  3  2  0  0  0  0
  3  4  1  0  0  0  0
  3 19  1  0  0  0  0
  4  5  2  0  0  0  0
  4 20  1  0  0  0  0
  5  6  1  0  0  0  0
  5 21  1  0  0  0  0
  6  7  1  0  0  0  0
  6 16  2  0  0  0  0
  7  8  2  0  0  0  0
  7  9  1  0  0  0  0
  9 13  1  0  0  0  0
  9 10  1  0  0  0  0
 10 11  1  0  0  0  0
 10 22  1  0  0  0  0
 10 23  1  0  0  0  0
 11 12  1  0  0  0  0
 11 24  1  0  0  0  0
 11 25  1  0  0  0  0
 12 13  1  0  0  0  0
 12 26  1  0  0  0  0
 12 27  1  0  0  0  0
 13 14  1  0  0  0  0
 13 28  1  0  0  0  0
 14 15  1  0  0  0  0
 14 29  1  0  0  0  0
 14 30  1  0  0  0  0
 15 31  1  0  0  0  0
M  END
> <s_m_source_file>
AV-unprocessed.smi

> <i_m_source_file_index>
71

> <i_lp_mmshare_version>
43012

> <i_f3d_flags>
0

> <s_epik_input>
W05IMl1jMVtjSF1bY0hdW2NIXWMobjEpQyg9TylOMltDSDJdW0NIMl1bQ0gyXVtDQEhdMltDSDJdW09IXQ==

> <s_epik_cmdline>
J2VwaWtfcHl0aG9uJywgJy1waCcsICc3LjAnLCAnLXRuJywgJzgnLCAnLW1hJywgJzIwMCcsICctbWV0YWxfYmluZGluZycsICctaW1hZScsICc8aW5maWxlLm1hZT4nLCAnLW9tYWUnLCAnPG91dGZpbGUubWFlPic=

> <r_lp_tautomer_probability>
1

> <r_epik_Ionization_Penalty>
2.21614e-05

> <r_epik_Ionization_Penalty_Charging>
0

> <r_epik_Ionization_Penalty_Neutral>
2.21614e-05

> <r_epik_State_Penalty>
-0

> <r_epik_Charging_Adjusted_Penalty>
0

> <i_epik_Tot_Q>
0

> <i_epik_Tot_abs_Q>
0

> <r_epik_Metal_State_Penalty>
-0

> <b_epik_Metal_Only>
0

> <s_lp_Force_Field>
OPLS_2005

> <r_lp_Energy>
36.7339

> <b_lp_Chiralities_Consistent>
1

> <s_lp_Variant>
AV-unprocessed.smi:71-2

> <Gold.Version>
5.8.1

> <Gold.Id.Protein>
6NUR|6NUR_protein|mol2

> <Gold.PLP.Fitness>
37.4461

> <Gold.PLP.PLP>
-31.5157

> <Gold.PLP.part.hbond>
-4.0000

> <Gold.PLP.part.metal>
0.0000

> <Gold.PLP.part.buried>
-1.7807

> <Gold.PLP.part.nonpolar>
-25.2846

> <Gold.PLP.part.repulsive>
0.0576

> <Gold.PLP.ligand.clash>
0.0000

> <Gold.PLP.ligand.torsion>
1.0108

> <Gold.PLP.Chemscore.Hbond>
2.2569

> <Gold.PLP.Chemscore.CHOScore>
0.0000

> <Gold.PLP.Chemscore.Metal>
0.0000

> <Gold.Chemscore.Hbonds>
donor molecule, donor type, donor heavy atom, donor atom, acceptor molecule, acceptor atom, score
      L1  H    15    31       P1  7957  1.00
      P1  H  7989  7998       L1     8  0.32
      P1  H  7997  8009       L1     8  0.99

> <Gold.PLP.Chemscore.Internal.Correction>
1.1814

> <Gold.Rescore>
     Score         DG    S(hbond)    S(metal)    S(lipo)     H(rot)  DE(clash)    DE(int)     intcor
     13.12     -15.46       1.97        0.00      61.71       1.50       0.11       2.24       ----

> <Gold.Chemscore.Fitness>
13.1166

> <Gold.Chemscore.DG>
-15.4617

> <Gold.Chemscore.ZeroCoef>
-5.4800

> <Gold.Chemscore.Hbond>
1.9734

> <Gold.Chemscore.Metal>
0.0000

> <Gold.Chemscore.Lipo>
61.7079

> <Gold.Chemscore.Internal_Hbond>
0.0000

> <Gold.Chemscore.DEClash>
0.1091

> <Gold.Chemscore.DEInternal>
2.2360

> <Gold.Chemscore.Rot>
1.4959

> <Gold.Chemscore.Internal.Correction>
   9.000000E+99

> <Gold.Chemscore.Hbonds>
donor molecule, donor type, donor heavy atom, donor atom, acceptor molecule, acceptor atom, score
      L1  H    15    31       P1  7957  0.98
      P1  H  7989  7998       L1     8  0.07
      P1  H  7997  8009       L1     8  0.76

> <Gold.Chemscore.Hbond.Weighted>
-6.5913

> <Gold.Chemscore.Metal.Weighted>
-0.0000

> <Gold.Chemscore.Lipo.Weighted>
-7.2198

> <Gold.Chemscore.Internal_Hbond.Weighted>
0.0000

> <Gold.Chemscore.DEClash.Weighted>
0.1091

> <Gold.Chemscore.DEInternal.Weighted>
2.2360

> <Gold.Chemscore.Rot.Weighted>
3.8295

> <Gold.Chemscore.Internal.Correction.Weighted>
   9.000000E+99

> <Gold.Protein.RotatedTorsions>
[ 6907 6896 6895 6894 ] final -118.17 input  -60.11 | X-H torsion
[ 7974 7965 7964 7962 ] final   37.86 input  175.53 | X-H torsion
[ 8008 7997 7996 7995 ] final -148.11 input   59.86 | X-H torsion
[ 10167 10162 10161 10158 ] final  148.76 input  -65.29 | X-H torsion
[ 10718 10713 10712 10709 ] final  149.46 input   66.30 | X-H torsion
[ 10763 10752 10751 10750 ] final -114.86 input  -60.55 | X-H torsion
[ 11005 11000 10999 10996 ] final  -43.40 input  -57.11 | X-H torsion

> <Gold.Protein.ActiveResidues>
 VAL166  LYS551  ARG553  GLY616  TRP617  ASP618  TYR619  PRO620  LYS621  CYS622 
 ASP623  PHE694  ASN695  SER759  ASP760  ASP761  ALA762  ILE779  LEU786  VAL792 
 PHE793  MET794  SER795  GLU796  ALA797  LYS798  CYS799  TRP800  GLU811  SER814 

> <Gold.Protein.RotatedAtoms>
  150.8197  133.8274  159.3144 H   0  0  0  0  0  0  0  0  0  0  0  0  # atno 6907 bound_to 6896
  151.6036  135.1044  160.0075 H   0  0  0  0  0  0  0  0  0  0  0  0  # atno 6908 bound_to 6896
  152.4287  133.7199  159.6584 H   0  0  0  0  0  0  0  0  0  0  0  0  # atno 6909 bound_to 6896
  146.1106  139.5843  142.9355 H   0  0  0  0  0  0  0  0  0  0  0  0  # atno 7974 bound_to 7965
  155.5863  140.0648  157.2770 H   0  0  0  0  0  0  0  0  0  0  0  0  # atno 8008 bound_to 7997
  154.4318  140.1843  156.1075 H   0  0  0  0  0  0  0  0  0  0  0  0  # atno 8009 bound_to 7997
  156.0267  140.3311  155.7099 H   0  0  0  0  0  0  0  0  0  0  0  0  # atno 8010 bound_to 7997
  139.4870  144.5655  151.7153 H   0  0  0  0  0  0  0  0  0  0  0  0  # atno 10167 bound_to 10162
  157.2958  131.0861  151.1428 H   0  0  0  0  0  0  0  0  0  0  0  0  # atno 10718 bound_to 10713
  154.8458  135.4402  154.1573 H   0  0  0  0  0  0  0  0  0  0  0  0  # atno 10763 bound_to 10752
  153.2718  135.6946  153.7479 H   0  0  0  0  0  0  0  0  0  0  0  0  # atno 10764 bound_to 10752
  153.6716  135.3418  155.3130 H   0  0  0  0  0  0  0  0  0  0  0  0  # atno 10765 bound_to 10752
  141.0381  133.6791  156.2728 H   0  0  0  0  0  0  0  0  0  0  0  0  # atno 11005 bound_to 11000
  145.5672  141.0398  143.2194 LP  0  0  0  0  0  0  0  0  0  0  0  0  # atno 17320 bound_to 7965
  144.7508  139.7199  143.7274 LP  0  0  0  0  0  0  0  0  0  0  0  0  # atno 17321 bound_to 7965
  140.5232  144.0846  150.6029 LP  0  0  0  0  0  0  0  0  0  0  0  0  # atno 17342 bound_to 10162
  140.3811  143.2802  152.0169 LP  0  0  0  0  0  0  0  0  0  0  0  0  # atno 17343 bound_to 10162
  157.2806  130.6748  149.6064 LP  0  0  0  0  0  0  0  0  0  0  0  0  # atno 17370 bound_to 10713
  155.9669  130.4451  150.5487 LP  0  0  0  0  0  0  0  0  0  0  0  0  # atno 17371 bound_to 10713
  140.6284  134.5289  157.5556 LP  0  0  0  0  0  0  0  0  0  0  0  0  # atno 17394 bound_to 11000
  139.9255  134.8063  156.1080 LP  0  0  0  0  0  0  0  0  0  0  0  0  # atno 17395 bound_to 11000

$$$$
