AV-unprocessed.smi:3255|AV-procd|sdf|12464|dock5
  -GOLD-   2272018363D 1   1.00000     0.00000
 Structure written by MMmdl.
 38 39  0  0  0  0  0  0  0  0  1 V2000
  147.0870  140.5360  153.3294 C   0  0  0  0  0  0  0  0  0  0  0  0
  147.7098  139.3555  154.0950 C   0  0  1  0  0  0  0  0  0  0  0  0
  147.4233  138.1063  153.3943 N   0  0  0  0  0  0  0  0  0  0  0  0
  146.2096  137.5531  153.2630 C   0  0  0  0  0  0  0  0  0  0  0  0
  145.1713  138.0532  153.6963 O   0  0  0  0  0  0  0  0  0  0  0  0
  146.2636  136.3860  152.6068 N   0  0  0  0  0  0  0  0  0  0  0  0
  145.1121  135.5406  152.3154 C   0  0  0  0  0  0  0  0  0  0  0  0
  144.9613  135.2933  150.8056 C   0  0  0  0  0  0  0  0  0  0  0  0
  145.0755  133.8855  150.4850 N   0  0  0  0  0  0  0  0  0  0  0  0
  146.2131  133.0954  150.5813 C   0  0  0  0  0  0  0  0  0  0  0  0
  145.8477  131.8308  150.1782 C   0  0  0  0  0  0  0  0  0  0  0  0
  144.4982  131.8201  149.8329 N   0  0  0  0  0  0  0  0  0  0  0  0
  144.1085  133.0714  150.0404 C   0  0  0  0  0  0  0  0  0  0  0  0
  149.2348  139.5032  154.2551 C   0  0  1  0  0  0  0  0  0  0  0  0
  149.6837  140.7661  154.9930 C   0  0  0  0  0  0  0  0  0  0  0  0
  151.0250  140.3774  155.5961 C   0  0  0  0  0  0  0  0  0  0  0  0
  151.0706  138.8536  155.4583 C   0  0  0  0  0  0  0  0  0  0  0  0
  149.7515  138.4778  155.0901 O   0  0  0  0  0  0  0  0  0  0  0  0
  147.2528  141.4789  153.8504 H   0  0  0  0  0  0  0  0  0  0  0  0
  146.0087  140.4135  153.2220 H   0  0  0  0  0  0  0  0  0  0  0  0
  147.5122  140.6286  152.3297 H   0  0  0  0  0  0  0  0  0  0  0  0
  147.2651  139.3126  155.0911 H   0  0  0  0  0  0  0  0  0  0  0  0
  148.2147  137.6142  153.0064 H   0  0  0  0  0  0  0  0  0  0  0  0
  147.1644  136.0566  152.2915 H   0  0  0  0  0  0  0  0  0  0  0  0
  145.1988  134.5942  152.8523 H   0  0  0  0  0  0  0  0  0  0  0  0
  144.2218  136.0366  152.7028 H   0  0  0  0  0  0  0  0  0  0  0  0
  143.9939  135.6536  150.4528 H   0  0  0  0  0  0  0  0  0  0  0  0
  145.7252  135.8352  150.2462 H   0  0  0  0  0  0  0  0  0  0  0  0
  147.1609  133.4877  150.9199 H   0  0  0  0  0  0  0  0  0  0  0  0
  146.4473  130.9350  150.1119 H   0  0  0  0  0  0  0  0  0  0  0  0
  143.0953  133.4032  149.8668 H   0  0  0  0  0  0  0  0  0  0  0  0
  149.7291  139.4467  153.2829 H   0  0  0  0  0  0  0  0  0  0  0  0
  149.7523  141.6343  154.3371 H   0  0  0  0  0  0  0  0  0  0  0  0
  148.9824  141.0049  155.7937 H   0  0  0  0  0  0  0  0  0  0  0  0
  151.8554  140.8381  155.0602 H   0  0  0  0  0  0  0  0  0  0  0  0
  151.0838  140.6885  156.6396 H   0  0  0  0  0  0  0  0  0  0  0  0
  151.7609  138.5608  154.6659 H   0  0  0  0  0  0  0  0  0  0  0  0
  151.3785  138.3576  156.3791 H   0  0  0  0  0  0  0  0  0  0  0  0
  1  2  1  0  0  0  0
  1 19  1  0  0  0  0
  1 20  1  0  0  0  0
  1 21  1  0  0  0  0
  2  3  1  0  0  0  0
  2 14  1  0  0  0  0
  2 22  1  0  0  0  0
  3  4  1  0  0  0  0
  3 23  1  0  0  0  0
  4  5  2  0  0  0  0
  4  6  1  0  0  0  0
  6  7  1  0  0  0  0
  6 24  1  0  0  0  0
  7  8  1  0  0  0  0
  7 25  1  0  0  0  0
  7 26  1  0  0  0  0
  8  9  1  0  0  0  0
  8 27  1  0  0  0  0
  8 28  1  0  0  0  0
  9 13  1  0  0  0  0
  9 10  1  0  0  0  0
 10 11  2  0  0  0  0
 10 29  1  0  0  0  0
 11 12  1  0  0  0  0
 11 30  1  0  0  0  0
 12 13  2  0  0  0  0
 13 31  1  0  0  0  0
 14 18  1  0  0  0  0
 14 15  1  0  0  0  0
 14 32  1  0  0  0  0
 15 16  1  0  0  0  0
 15 33  1  0  0  0  0
 15 34  1  0  0  0  0
 16 17  1  0  0  0  0
 16 35  1  0  0  0  0
 16 36  1  0  0  0  0
 17 18  1  0  0  0  0
 17 37  1  0  0  0  0
 17 38  1  0  0  0  0
M  END
> <s_m_source_file>
AV-unprocessed.smi

> <i_m_source_file_index>
3255

> <i_lp_mmshare_version>
43012

> <i_f3d_flags>
0

> <s_epik_input>
TzFbQ0gyXVtDSDJdW0NIMl1bQ0BIXTFbQ0BIXShbQ0gzXSlbTkhdQyg9TylbTkhdW0NIMl1bQ0gyXW4yW2NIXVtjSF1uW2NIXTI=

> <s_epik_cmdline>
J2VwaWtfcHl0aG9uJywgJy1waCcsICc3LjAnLCAnLXRuJywgJzgnLCAnLW1hJywgJzIwMCcsICctbWV0YWxfYmluZGluZycsICctaW1hZScsICc8aW5maWxlLm1hZT4nLCAnLW9tYWUnLCAnPG91dGZpbGUubWFlPic=

> <r_lp_tautomer_probability>
1

> <r_epik_Ionization_Penalty>
0.620274

> <r_epik_Ionization_Penalty_Charging>
0.620225

> <r_epik_Ionization_Penalty_Neutral>
4.91362e-05

> <r_epik_State_Penalty>
0.636186

> <r_epik_Charging_Adjusted_Penalty>
1.25641

> <i_epik_Tot_Q>
0

> <i_epik_Tot_abs_Q>
0

> <r_epik_Metal_State_Penalty>
0.306491

> <b_epik_Metal_Only>
0

> <s_lp_Force_Field>
OPLS_2005

> <r_lp_Energy>
17.3194

> <b_lp_Chiralities_Consistent>
1

> <s_lp_Variant>
AV-unprocessed.smi:3255-8

> <Gold.Version>
5.8.1

> <Gold.Id.Protein>
6NUR|6NUR_protein|mol2

> <Gold.PLP.Fitness>
43.8127

> <Gold.PLP.PLP>
-32.8417

> <Gold.PLP.part.hbond>
-2.8373

> <Gold.PLP.part.metal>
0.0000

> <Gold.PLP.part.buried>
-3.3603

> <Gold.PLP.part.nonpolar>
-27.7567

> <Gold.PLP.part.repulsive>
0.5975

> <Gold.PLP.ligand.clash>
0.0000

> <Gold.PLP.ligand.torsion>
0.5400

> <Gold.PLP.Chemscore.Hbond>
2.0972

> <Gold.PLP.Chemscore.CHOScore>
1.9021

> <Gold.PLP.Chemscore.Metal>
0.0000

> <Gold.Chemscore.Hbonds>
donor molecule, donor type, donor heavy atom, donor atom, acceptor molecule, acceptor atom, score
      L1  H     3    23       P1  7948  1.00
      L1  H     6    24       P1  7948  1.00
      P1  H 10785 10796       L1    12  0.07
      L1  C    11    30       P1 10747  0.92
      L1  C    13    31       P1 10186  1.00

> <Gold.PLP.Chemscore.Internal.Correction>
0.0529

> <Gold.Rescore>
     Score         DG    S(hbond)    S(metal)    S(lipo)     H(rot)  DE(clash)    DE(int)     intcor
     15.70     -16.34       2.48        0.00      69.75       2.18       0.06       0.59       ----

> <Gold.Chemscore.Fitness>
15.6971

> <Gold.Chemscore.DG>
-16.3422

> <Gold.Chemscore.ZeroCoef>
-5.4800

> <Gold.Chemscore.Hbond>
2.4819

> <Gold.Chemscore.Metal>
0.0000

> <Gold.Chemscore.Lipo>
69.7490

> <Gold.Chemscore.Internal_Hbond>
0.0000

> <Gold.Chemscore.DEClash>
0.0585

> <Gold.Chemscore.DEInternal>
0.5867

> <Gold.Chemscore.Rot>
2.1828

> <Gold.Chemscore.Internal.Correction>
   9.000000E+99

> <Gold.Chemscore.Hbonds>
donor molecule, donor type, donor heavy atom, donor atom, acceptor molecule, acceptor atom, score
      L1  H     3    23       P1  7948  0.95
      L1  H     6    24       P1  7948  0.99
      P1  H 10785 10796       L1    12  0.09

> <Gold.Chemscore.Hbond.Weighted>
-8.2897

> <Gold.Chemscore.Metal.Weighted>
-0.0000

> <Gold.Chemscore.Lipo.Weighted>
-8.1606

> <Gold.Chemscore.Internal_Hbond.Weighted>
0.0000

> <Gold.Chemscore.DEClash.Weighted>
0.0585

> <Gold.Chemscore.DEInternal.Weighted>
0.5867

> <Gold.Chemscore.Rot.Weighted>
5.5881

> <Gold.Chemscore.Internal.Correction.Weighted>
   9.000000E+99

> <Gold.Protein.RotatedTorsions>
[ 6907 6896 6895 6894 ] final  135.29 input  -60.11 | X-H torsion
[ 7974 7965 7964 7962 ] final  138.54 input  175.53 | X-H torsion
[ 8008 7997 7996 7995 ] final   44.98 input   59.86 | X-H torsion
[ 10167 10162 10161 10158 ] final  119.38 input  -65.29 | X-H torsion
[ 10718 10713 10712 10709 ] final  111.16 input   66.30 | X-H torsion
[ 10763 10752 10751 10750 ] final  -56.37 input  -60.55 | X-H torsion
[ 11005 11000 10999 10996 ] final  -46.97 input  -57.11 | X-H torsion

> <Gold.Protein.ActiveResidues>
 VAL166  LYS551  ARG553  GLY616  TRP617  ASP618  TYR619  PRO620  LYS621  CYS622 
 ASP623  PHE694  ASN695  SER759  ASP760  ASP761  ALA762  ILE779  LEU786  VAL792 
 PHE793  MET794  SER795  GLU796  ALA797  LYS798  CYS799  TRP800  GLU811  SER814 

> <Gold.Protein.RotatedAtoms>
  152.3020  133.5665  159.5624 H   0  0  0  0  0  0  0  0  0  0  0  0  # atno 6907 bound_to 6896
  150.7282  134.0277  159.3731 H   0  0  0  0  0  0  0  0  0  0  0  0  # atno 6908 bound_to 6896
  151.8176  135.0662  160.0472 H   0  0  0  0  0  0  0  0  0  0  0  0  # atno 6909 bound_to 6896
  144.9362  139.4986  143.5594 H   0  0  0  0  0  0  0  0  0  0  0  0  # atno 7974 bound_to 7965
  155.3283  140.3401  155.4240 H   0  0  0  0  0  0  0  0  0  0  0  0  # atno 8008 bound_to 7997
  156.1874  140.1685  156.8195 H   0  0  0  0  0  0  0  0  0  0  0  0  # atno 8009 bound_to 7997
  154.5402  140.0726  156.8480 H   0  0  0  0  0  0  0  0  0  0  0  0  # atno 8010 bound_to 7997
  139.6050  144.7067  151.2975 H   0  0  0  0  0  0  0  0  0  0  0  0  # atno 10167 bound_to 10162
  157.6459  131.0945  150.6707 H   0  0  0  0  0  0  0  0  0  0  0  0  # atno 10718 bound_to 10713
  154.2056  135.6403  153.5100 H   0  0  0  0  0  0  0  0  0  0  0  0  # atno 10763 bound_to 10752
  153.0002  135.5461  154.6270 H   0  0  0  0  0  0  0  0  0  0  0  0  # atno 10764 bound_to 10752
  154.5694  135.2915  155.0816 H   0  0  0  0  0  0  0  0  0  0  0  0  # atno 10765 bound_to 10752
  141.0612  133.6708  156.3230 H   0  0  0  0  0  0  0  0  0  0  0  0  # atno 11005 bound_to 11000
  146.3267  139.8349  142.8901 LP  0  0  0  0  0  0  0  0  0  0  0  0  # atno 17320 bound_to 7965
  145.3063  141.0208  143.3580 LP  0  0  0  0  0  0  0  0  0  0  0  0  # atno 17321 bound_to 7965
  140.7278  143.6953  150.7888 LP  0  0  0  0  0  0  0  0  0  0  0  0  # atno 17342 bound_to 10162
  140.0537  143.5224  152.2661 LP  0  0  0  0  0  0  0  0  0  0  0  0  # atno 17343 bound_to 10162
  156.7024  130.4627  149.5569 LP  0  0  0  0  0  0  0  0  0  0  0  0  # atno 17370 bound_to 10713
  156.1786  130.6484  151.0924 LP  0  0  0  0  0  0  0  0  0  0  0  0  # atno 17371 bound_to 10713
  140.5865  134.5693  157.5491 LP  0  0  0  0  0  0  0  0  0  0  0  0  # atno 17394 bound_to 11000
  139.9434  134.7745  156.0621 LP  0  0  0  0  0  0  0  0  0  0  0  0  # atno 17395 bound_to 11000

$$$$
