AV-unprocessed.smi:2070|AV-procd|sdf|8439|dock9
  -GOLD-   2272011143D 1   1.00000     0.00000
 Structure written by MMmdl.
 40 41  0  0  0  0  0  0  0  0  1 V2000
  152.9391  143.4942  162.8493 C   0  0  0  0  0  0  0  0  0  0  0  0
  152.8230  142.9378  161.4650 C   0  0  0  0  0  0  0  0  0  0  0  0
  153.7257  142.1234  160.8281 C   0  0  0  0  0  0  0  0  0  0  0  0
  153.2004  141.7016  159.2215 S   0  0  0  0  0  0  0  0  0  0  0  0
  151.7538  142.6709  159.4732 C   0  0  0  0  0  0  0  0  0  0  0  0
  150.6668  142.7973  158.4540 C   0  0  0  0  0  0  0  0  0  0  0  0
  151.0394  142.2240  157.0728 C   0  0  0  0  0  0  0  0  0  0  0  0
  149.8797  142.0513  156.2041 N   0  0  0  0  0  0  0  0  0  0  0  0
  149.8088  141.2076  155.1613 C   0  0  0  0  0  0  0  0  0  0  0  0
  150.7233  140.4289  154.8874 O   0  0  0  0  0  0  0  0  0  0  0  0
  148.6546  141.2805  154.4510 N   0  0  0  0  0  0  0  0  0  0  0  0
  148.0017  140.1705  153.7358 C   0  0  0  0  0  0  0  0  0  0  0  0
  146.7931  139.6968  154.5625 C   0  0  0  0  0  0  0  0  0  0  0  0
  145.8069  140.8596  154.8228 C   0  0  0  0  0  0  0  0  0  0  0  0
  144.6716  140.4209  155.7574 C   0  0  0  0  0  0  0  0  0  0  0  0
  143.4370  140.4028  155.2487 N   0  0  0  0  0  0  0  0  0  0  0  0
  144.9017  140.1029  156.9226 O   0  0  0  0  0  0  0  0  0  0  0  0
  146.5484  142.0945  155.3880 C   0  0  0  0  0  0  0  0  0  0  0  0
  147.7721  142.4512  154.5237 C   0  0  0  0  0  0  0  0  0  0  0  0
  151.7021  143.2337  160.6842 N   0  0  0  0  0  0  0  0  0  0  0  0
  152.6177  142.7655  163.5938 H   0  0  0  0  0  0  0  0  0  0  0  0
  152.3268  144.3878  162.9747 H   0  0  0  0  0  0  0  0  0  0  0  0
  153.9688  143.7691  163.0791 H   0  0  0  0  0  0  0  0  0  0  0  0
  154.6644  141.7461  161.2061 H   0  0  0  0  0  0  0  0  0  0  0  0
  149.7763  142.2952  158.8344 H   0  0  0  0  0  0  0  0  0  0  0  0
  150.4030  143.8508  158.3565 H   0  0  0  0  0  0  0  0  0  0  0  0
  151.7878  142.8528  156.5879 H   0  0  0  0  0  0  0  0  0  0  0  0
  151.4977  141.2430  157.2008 H   0  0  0  0  0  0  0  0  0  0  0  0
  149.0884  142.6545  156.3756 H   0  0  0  0  0  0  0  0  0  0  0  0
  147.6687  140.5211  152.7578 H   0  0  0  0  0  0  0  0  0  0  0  0
  148.6611  139.3280  153.5276 H   0  0  0  0  0  0  0  0  0  0  0  0
  146.2857  138.8843  154.0409 H   0  0  0  0  0  0  0  0  0  0  0  0
  147.1497  139.2830  155.5065 H   0  0  0  0  0  0  0  0  0  0  0  0
  145.3726  141.1455  153.8631 H   0  0  0  0  0  0  0  0  0  0  0  0
  142.6577  140.1194  155.8244 H   0  0  0  0  0  0  0  0  0  0  0  0
  143.2885  140.6716  154.2868 H   0  0  0  0  0  0  0  0  0  0  0  0
  145.8714  142.9485  155.4357 H   0  0  0  0  0  0  0  0  0  0  0  0
  146.8784  141.9049  156.4110 H   0  0  0  0  0  0  0  0  0  0  0  0
  148.2726  143.3311  154.9302 H   0  0  0  0  0  0  0  0  0  0  0  0
  147.4546  142.7315  153.5184 H   0  0  0  0  0  0  0  0  0  0  0  0
  1  2  1  0  0  0  0
  1 21  1  0  0  0  0
  1 22  1  0  0  0  0
  1 23  1  0  0  0  0
  2 20  1  0  0  0  0
  2  3  2  0  0  0  0
  3  4  1  0  0  0  0
  3 24  1  0  0  0  0
  4  5  1  0  0  0  0
  5  6  1  0  0  0  0
  5 20  2  0  0  0  0
  6  7  1  0  0  0  0
  6 25  1  0  0  0  0
  6 26  1  0  0  0  0
  7  8  1  0  0  0  0
  7 27  1  0  0  0  0
  7 28  1  0  0  0  0
  8  9  1  0  0  0  0
  8 29  1  0  0  0  0
  9 10  2  0  0  0  0
  9 11  1  0  0  0  0
 11 19  1  0  0  0  0
 11 12  1  0  0  0  0
 12 13  1  0  0  0  0
 12 30  1  0  0  0  0
 12 31  1  0  0  0  0
 13 14  1  0  0  0  0
 13 32  1  0  0  0  0
 13 33  1  0  0  0  0
 14 15  1  0  0  0  0
 14 18  1  0  0  0  0
 14 34  1  0  0  0  0
 15 16  1  0  0  0  0
 15 17  2  0  0  0  0
 16 35  1  0  0  0  0
 16 36  1  0  0  0  0
 18 19  1  0  0  0  0
 18 37  1  0  0  0  0
 18 38  1  0  0  0  0
 19 39  1  0  0  0  0
 19 40  1  0  0  0  0
M  END
> <s_m_source_file>
AV-unprocessed.smi

> <i_m_source_file_index>
2070

> <i_lp_mmshare_version>
43012

> <i_f3d_flags>
0

> <s_epik_input>
W0NIM11jMVtjSF1zYyhuMSlbQ0gyXVtDSDJdW05IXUMoPU8pTjJbQ0gyXVtDSDJdW0NIXShDKD1PKVtOSDJdKVtDSDJdW0NIMl0y

> <s_epik_cmdline>
J2VwaWtfcHl0aG9uJywgJy1waCcsICc3LjAnLCAnLXRuJywgJzgnLCAnLW1hJywgJzIwMCcsICctbWV0YWxfYmluZGluZycsICctaW1hZScsICc8aW5maWxlLm1hZT4nLCAnLW9tYWUnLCAnPG91dGZpbGUubWFlPic=

> <r_epik_Ionization_Penalty>
0.00203811

> <r_epik_Ionization_Penalty_Charging>
0

> <r_epik_Ionization_Penalty_Neutral>
0.00203811

> <r_epik_State_Penalty>
0.00135523

> <r_epik_Charging_Adjusted_Penalty>
0.00135523

> <i_epik_Tot_Q>
0

> <i_epik_Tot_abs_Q>
0

> <r_epik_Metal_State_Penalty>
-0

> <b_epik_Metal_Only>
0

> <s_lp_Force_Field>
OPLS_2005

> <r_lp_Energy>
19.595

> <b_lp_Chiralities_Consistent>
1

> <s_lp_Variant>
AV-unprocessed.smi:2070-1

> <Gold.Version>
5.8.1

> <Gold.Id.Protein>
6NUR|6NUR_protein|mol2

> <Gold.PLP.Fitness>
42.0089

> <Gold.PLP.PLP>
-37.0468

> <Gold.PLP.part.hbond>
-3.4782

> <Gold.PLP.part.metal>
0.0000

> <Gold.PLP.part.buried>
0.9129

> <Gold.PLP.part.nonpolar>
-33.7006

> <Gold.PLP.part.repulsive>
0.2635

> <Gold.PLP.ligand.clash>
0.9075

> <Gold.PLP.ligand.torsion>
0.5997

> <Gold.PLP.Chemscore.Hbond>
2.3368

> <Gold.PLP.Chemscore.CHOScore>
0.0000

> <Gold.PLP.Chemscore.Metal>
0.0000

> <Gold.Chemscore.Hbonds>
donor molecule, donor type, donor heavy atom, donor atom, acceptor molecule, acceptor atom, score
      L1  H     8    29       P1  8028  0.30
      L1  H    16    36       P1 10175  1.00
      P1  H  7989  7998       L1    10  1.00

> <Gold.PLP.Chemscore.Internal.Correction>
0.0588

> <Gold.Rescore>
     Score         DG    S(hbond)    S(metal)    S(lipo)     H(rot)  DE(clash)    DE(int)     intcor
     16.52     -17.44       1.87        0.00      91.52       1.95       0.34       0.58       ----

> <Gold.Chemscore.Fitness>
16.5195

> <Gold.Chemscore.DG>
-17.4374

> <Gold.Chemscore.ZeroCoef>
-5.4800

> <Gold.Chemscore.Hbond>
1.8682

> <Gold.Chemscore.Metal>
0.0000

> <Gold.Chemscore.Lipo>
91.5171

> <Gold.Chemscore.Internal_Hbond>
0.0000

> <Gold.Chemscore.DEClash>
0.3369

> <Gold.Chemscore.DEInternal>
0.5811

> <Gold.Chemscore.Rot>
1.9492

> <Gold.Chemscore.Internal.Correction>
   9.000000E+99

> <Gold.Chemscore.Hbonds>
donor molecule, donor type, donor heavy atom, donor atom, acceptor molecule, acceptor atom, score
      L1  H     8    29       P1  8028  0.30
      L1  H    16    36       P1 10175  0.91
      P1  H  7989  7998       L1    10  0.86

> <Gold.Chemscore.Hbond.Weighted>
-6.2399

> <Gold.Chemscore.Metal.Weighted>
-0.0000

> <Gold.Chemscore.Lipo.Weighted>
-10.7075

> <Gold.Chemscore.Internal_Hbond.Weighted>
0.0000

> <Gold.Chemscore.DEClash.Weighted>
0.3369

> <Gold.Chemscore.DEInternal.Weighted>
0.5811

> <Gold.Chemscore.Rot.Weighted>
4.9900

> <Gold.Chemscore.Internal.Correction.Weighted>
   9.000000E+99

> <Gold.Protein.RotatedTorsions>
[ 6907 6896 6895 6894 ] final   86.32 input  -60.11 | X-H torsion
[ 7974 7965 7964 7962 ] final  -96.31 input  175.53 | X-H torsion
[ 8008 7997 7996 7995 ] final -146.59 input   59.86 | X-H torsion
[ 10167 10162 10161 10158 ] final -112.86 input  -65.29 | X-H torsion
[ 10718 10713 10712 10709 ] final    5.73 input   66.30 | X-H torsion
[ 10763 10752 10751 10750 ] final   53.50 input  -60.55 | X-H torsion
[ 11005 11000 10999 10996 ] final  -29.51 input  -57.11 | X-H torsion

> <Gold.Protein.ActiveResidues>
 VAL166  LYS551  ARG553  GLY616  TRP617  ASP618  TYR619  PRO620  LYS621  CYS622 
 ASP623  PHE694  ASN695  SER759  ASP760  ASP761  ALA762  ILE779  LEU786  VAL792 
 PHE793  MET794  SER795  GLU796  ALA797  LYS798  CYS799  TRP800  GLU811  SER814 

> <Gold.Protein.RotatedAtoms>
  152.5392  134.2450  159.8876 H   0  0  0  0  0  0  0  0  0  0  0  0  # atno 6907 bound_to 6896
  151.2415  133.4390  159.2615 H   0  0  0  0  0  0  0  0  0  0  0  0  # atno 6908 bound_to 6896
  151.0622  134.9758  159.8322 H   0  0  0  0  0  0  0  0  0  0  0  0  # atno 6909 bound_to 6896
  145.3486  140.9472  143.2567 H   0  0  0  0  0  0  0  0  0  0  0  0  # atno 7974 bound_to 7965
  155.5618  140.0626  157.2827 H   0  0  0  0  0  0  0  0  0  0  0  0  # atno 8008 bound_to 7997
  154.4388  140.1884  156.0836 H   0  0  0  0  0  0  0  0  0  0  0  0  # atno 8009 bound_to 7997
  156.0441  140.3292  155.7280 H   0  0  0  0  0  0  0  0  0  0  0  0  # atno 8010 bound_to 7997
  140.1181  143.4467  152.1709 H   0  0  0  0  0  0  0  0  0  0  0  0  # atno 10167 bound_to 10162
  156.9117  130.5758  149.5647 H   0  0  0  0  0  0  0  0  0  0  0  0  # atno 10718 bound_to 10713
  152.9796  135.5776  154.4752 H   0  0  0  0  0  0  0  0  0  0  0  0  # atno 10763 bound_to 10752
  154.4309  135.2773  155.1915 H   0  0  0  0  0  0  0  0  0  0  0  0  # atno 10764 bound_to 10752
  154.3624  135.6186  153.5751 H   0  0  0  0  0  0  0  0  0  0  0  0  # atno 10765 bound_to 10752
  140.9302  133.7343  156.0925 H   0  0  0  0  0  0  0  0  0  0  0  0  # atno 11005 bound_to 11000
  144.8735  139.5004  143.6756 LP  0  0  0  0  0  0  0  0  0  0  0  0  # atno 17320 bound_to 7965
  146.2977  139.7330  142.9114 LP  0  0  0  0  0  0  0  0  0  0  0  0  # atno 17321 bound_to 7965
  139.5583  144.7388  151.4229 LP  0  0  0  0  0  0  0  0  0  0  0  0  # atno 17342 bound_to 10162
  140.6887  143.7912  150.7224 LP  0  0  0  0  0  0  0  0  0  0  0  0  # atno 17343 bound_to 10162
  156.0533  130.5598  150.9036 LP  0  0  0  0  0  0  0  0  0  0  0  0  # atno 17370 bound_to 10713
  157.5963  131.0943  150.9035 LP  0  0  0  0  0  0  0  0  0  0  0  0  # atno 17371 bound_to 10713
  140.7872  134.3658  157.5473 LP  0  0  0  0  0  0  0  0  0  0  0  0  # atno 17394 bound_to 11000
  139.8794  134.9118  156.3046 LP  0  0  0  0  0  0  0  0  0  0  0  0  # atno 17395 bound_to 11000

$$$$
