AV-unprocessed.smi:1277|AV-procd|sdf|5345|dock9
  -GOLD-   22720 4483D 1   1.00000     0.00000
 Structure written by MMmdl.
 43 44  0  0  0  0  0  0  0  0  1 V2000
  154.5429  138.5790  164.8120 C   0  0  0  0  0  0  0  0  0  0  0  0
  153.9376  137.4168  165.3505 O   0  0  0  0  0  0  0  0  0  0  0  0
  153.2869  136.6351  164.3621 C   0  0  0  0  0  0  0  0  0  0  0  0
  154.3335  136.0754  163.3940 C   0  0  0  0  0  0  0  0  0  0  0  0
  153.7278  135.9069  162.1160 O   0  0  0  0  0  0  0  0  0  0  0  0
  153.4400  137.0300  161.3682 C   0  0  0  0  0  0  0  0  0  0  0  0
  153.7532  138.2936  161.9062 C   0  0  0  0  0  0  0  0  0  0  0  0
  153.4650  139.4436  161.1479 C   0  0  0  0  0  0  0  0  0  0  0  0
  152.8802  139.2995  159.8737 C   0  0  0  0  0  0  0  0  0  0  0  0
  152.5882  140.4817  159.1409 N   0  0  0  0  0  0  0  0  0  0  0  0
  152.4298  141.7385  159.5952 C   0  0  0  0  0  0  0  0  0  0  0  0
  152.5252  142.0709  160.7772 O   0  0  0  0  0  0  0  0  0  0  0  0
  152.1066  142.7914  158.5166 C   0  0  2  0  0  0  0  0  0  0  0  0
  152.8234  144.1169  158.8138 C   0  0  0  0  0  0  0  0  0  0  0  0
  151.8260  144.9130  159.6422 C   0  0  0  0  0  0  0  0  0  0  0  0
  150.4615  144.4633  159.1161 C   0  0  0  0  0  0  0  0  0  0  0  0
  150.6817  143.1521  158.5000 N   0  0  0  0  0  0  0  0  0  0  0  0
  149.7144  142.3897  157.9438 C   0  0  0  0  0  0  0  0  0  0  0  0
  150.1125  141.0595  157.3015 C   0  0  0  0  0  0  0  0  0  0  0  0
  148.5296  142.7239  157.9344 O   0  0  0  0  0  0  0  0  0  0  0  0
  152.5897  137.9870  159.4273 C   0  0  0  0  0  0  0  0  0  0  0  0
  152.8634  136.8798  160.1502 N   0  0  0  0  0  0  0  0  0  0  0  0
  152.4158  142.4169  157.5384 H   0  0  0  0  0  0  0  0  0  0  0  0
  155.0304  139.1406  165.6089 H   0  0  0  0  0  0  0  0  0  0  0  0
  153.8025  139.2298  164.3453 H   0  0  0  0  0  0  0  0  0  0  0  0
  155.3003  138.3216  164.0706 H   0  0  0  0  0  0  0  0  0  0  0  0
  152.7611  135.8107  164.8460 H   0  0  0  0  0  0  0  0  0  0  0  0
  152.5452  137.2251  163.8213 H   0  0  0  0  0  0  0  0  0  0  0  0
  155.1942  136.7445  163.3409 H   0  0  0  0  0  0  0  0  0  0  0  0
  154.6808  135.1090  163.7625 H   0  0  0  0  0  0  0  0  0  0  0  0
  154.2076  138.3786  162.8823 H   0  0  0  0  0  0  0  0  0  0  0  0
  153.6956  140.4229  161.5408 H   0  0  0  0  0  0  0  0  0  0  0  0
  152.4123  140.3463  158.1560 H   0  0  0  0  0  0  0  0  0  0  0  0
  153.7835  143.9959  159.3178 H   0  0  0  0  0  0  0  0  0  0  0  0
  153.0146  144.6413  157.8765 H   0  0  0  0  0  0  0  0  0  0  0  0
  151.9227  144.6364  160.6929 H   0  0  0  0  0  0  0  0  0  0  0  0
  151.9747  145.9905  159.5673 H   0  0  0  0  0  0  0  0  0  0  0  0
  149.7261  144.4188  159.9204 H   0  0  0  0  0  0  0  0  0  0  0  0
  150.1008  145.1617  158.3594 H   0  0  0  0  0  0  0  0  0  0  0  0
  150.5740  140.3984  158.0353 H   0  0  0  0  0  0  0  0  0  0  0  0
  150.8146  141.2215  156.4833 H   0  0  0  0  0  0  0  0  0  0  0  0
  149.2372  140.5512  156.8955 H   0  0  0  0  0  0  0  0  0  0  0  0
  152.1077  137.7967  158.4812 H   0  0  0  0  0  0  0  0  0  0  0  0
  1  2  1  0  0  0  0
  1 24  1  0  0  0  0
  1 25  1  0  0  0  0
  1 26  1  0  0  0  0
  2  3  1  0  0  0  0
  3  4  1  0  0  0  0
  3 27  1  0  0  0  0
  3 28  1  0  0  0  0
  4  5  1  0  0  0  0
  4 29  1  0  0  0  0
  4 30  1  0  0  0  0
  5  6  1  0  0  0  0
  6 22  1  0  0  0  0
  6  7  2  0  0  0  0
  7  8  1  0  0  0  0
  7 31  1  0  0  0  0
  8  9  2  0  0  0  0
  8 32  1  0  0  0  0
  9 10  1  0  0  0  0
  9 21  1  0  0  0  0
 10 11  1  0  0  0  0
 10 33  1  0  0  0  0
 11 12  2  0  0  0  0
 11 13  1  0  0  0  0
 13 23  1  0  0  0  0
 13 17  1  0  0  0  0
 13 14  1  0  0  0  0
 14 15  1  0  0  0  0
 14 34  1  0  0  0  0
 14 35  1  0  0  0  0
 15 16  1  0  0  0  0
 15 36  1  0  0  0  0
 15 37  1  0  0  0  0
 16 17  1  0  0  0  0
 16 38  1  0  0  0  0
 16 39  1  0  0  0  0
 17 18  1  0  0  0  0
 18 19  1  0  0  0  0
 18 20  2  0  0  0  0
 19 40  1  0  0  0  0
 19 41  1  0  0  0  0
 19 42  1  0  0  0  0
 21 22  2  0  0  0  0
 21 43  1  0  0  0  0
M  END
> <s_m_source_file>
AV-unprocessed.smi

> <i_m_source_file_index>
1277

> <i_lp_mmshare_version>
43012

> <i_f3d_flags>
0

> <s_epik_input>
W0NIM11PW0NIMl1bQ0gyXU9jMVtjSF1bY0hdYyhbY0hdbjEpW05IXUMoPU8pW0NAQEhdMltDSDJdW0NIMl1bQ0gyXU4yQyg9TylbQ0gzXQ==

> <s_epik_cmdline>
J2VwaWtfcHl0aG9uJywgJy1waCcsICc3LjAnLCAnLXRuJywgJzgnLCAnLW1hJywgJzIwMCcsICctbWV0YWxfYmluZGluZycsICctaW1hZScsICc8aW5maWxlLm1hZT4nLCAnLW9tYWUnLCAnPG91dGZpbGUubWFlPic=

> <r_lp_tautomer_probability>
1

> <r_epik_Ionization_Penalty>
1.62854e-05

> <r_epik_Ionization_Penalty_Charging>
0

> <r_epik_Ionization_Penalty_Neutral>
1.62854e-05

> <r_epik_State_Penalty>
-0

> <r_epik_Charging_Adjusted_Penalty>
0

> <i_epik_Tot_Q>
0

> <i_epik_Tot_abs_Q>
0

> <r_epik_Metal_State_Penalty>
-0

> <b_epik_Metal_Only>
0

> <s_lp_Force_Field>
OPLS_2005

> <r_lp_Energy>
18.7182

> <b_lp_Chiralities_Consistent>
1

> <s_lp_Variant>
AV-unprocessed.smi:1277-1

> <Gold.Version>
5.8.1

> <Gold.Id.Protein>
6NUR|6NUR_protein|mol2

> <Gold.PLP.Fitness>
40.3974

> <Gold.PLP.PLP>
-40.5012

> <Gold.PLP.part.hbond>
-0.6056

> <Gold.PLP.part.metal>
0.0000

> <Gold.PLP.part.buried>
-7.9221

> <Gold.PLP.part.nonpolar>
-32.7465

> <Gold.PLP.part.repulsive>
0.3741

> <Gold.PLP.ligand.clash>
0.6114

> <Gold.PLP.ligand.torsion>
0.8841

> <Gold.PLP.Chemscore.Hbond>
0.7313

> <Gold.PLP.Chemscore.CHOScore>
0.0000

> <Gold.PLP.Chemscore.Metal>
0.0000

> <Gold.Chemscore.Hbonds>
donor molecule, donor type, donor heavy atom, donor atom, acceptor molecule, acceptor atom, score
      P1  H  6896  6909       L1    22  1.00

> <Gold.PLP.Chemscore.Internal.Correction>
0.0820

> <Gold.Rescore>
     Score         DG    S(hbond)    S(metal)    S(lipo)     H(rot)  DE(clash)    DE(int)     intcor
     12.68     -14.90       0.94        0.00      95.07       1.89       0.12       2.10       ----

> <Gold.Chemscore.Fitness>
12.6815

> <Gold.Chemscore.DG>
-14.9019

> <Gold.Chemscore.ZeroCoef>
-5.4800

> <Gold.Chemscore.Hbond>
0.9381

> <Gold.Chemscore.Metal>
0.0000

> <Gold.Chemscore.Lipo>
95.0662

> <Gold.Chemscore.Internal_Hbond>
0.0000

> <Gold.Chemscore.DEClash>
0.1169

> <Gold.Chemscore.DEInternal>
2.1035

> <Gold.Chemscore.Rot>
1.8884

> <Gold.Chemscore.Internal.Correction>
   9.000000E+99

> <Gold.Chemscore.Hbonds>
donor molecule, donor type, donor heavy atom, donor atom, acceptor molecule, acceptor atom, score
      P1  H  6896  6909       L1    22  0.62

> <Gold.Chemscore.Hbond.Weighted>
-3.1334

> <Gold.Chemscore.Metal.Weighted>
-0.0000

> <Gold.Chemscore.Lipo.Weighted>
-11.1227

> <Gold.Chemscore.Internal_Hbond.Weighted>
0.0000

> <Gold.Chemscore.DEClash.Weighted>
0.1169

> <Gold.Chemscore.DEInternal.Weighted>
2.1035

> <Gold.Chemscore.Rot.Weighted>
4.8342

> <Gold.Chemscore.Internal.Correction.Weighted>
   9.000000E+99

> <Gold.Protein.RotatedTorsions>
[ 6907 6896 6895 6894 ] final  147.35 input  -60.11 | X-H torsion
[ 7974 7965 7964 7962 ] final   84.81 input  175.53 | X-H torsion
[ 8008 7997 7996 7995 ] final  147.24 input   59.86 | X-H torsion
[ 10167 10162 10161 10158 ] final   37.45 input  -65.29 | X-H torsion
[ 10718 10713 10712 10709 ] final   30.16 input   66.30 | X-H torsion
[ 10763 10752 10751 10750 ] final -133.54 input  -60.55 | X-H torsion
[ 11005 11000 10999 10996 ] final  -31.65 input  -57.11 | X-H torsion

> <Gold.Protein.ActiveResidues>
 VAL166  LYS551  ARG553  GLY616  TRP617  ASP618  TYR619  PRO620  LYS621  CYS622 
 ASP623  PHE694  ASN695  SER759  ASP760  ASP761  ALA762  ILE779  LEU786  VAL792 
 PHE793  MET794  SER795  GLU796  ALA797  LYS798  CYS799  TRP800  GLU811  SER814 

> <Gold.Protein.RotatedAtoms>
  152.1559  133.4551  159.4836 H   0  0  0  0  0  0  0  0  0  0  0  0  # atno 6907 bound_to 6896
  150.6901  134.2131  159.4376 H   0  0  0  0  0  0  0  0  0  0  0  0  # atno 6908 bound_to 6896
  152.0031  134.9917  160.0616 H   0  0  0  0  0  0  0  0  0  0  0  0  # atno 6909 bound_to 6896
  145.5938  139.2342  143.2284 H   0  0  0  0  0  0  0  0  0  0  0  0  # atno 7974 bound_to 7965
  156.2831  140.2161  156.5507 H   0  0  0  0  0  0  0  0  0  0  0  0  # atno 8008 bound_to 7997
  154.7294  140.0497  157.0735 H   0  0  0  0  0  0  0  0  0  0  0  0  # atno 8009 bound_to 7997
  155.0374  140.3142  155.4740 H   0  0  0  0  0  0  0  0  0  0  0  0  # atno 8010 bound_to 7997
  140.4031  144.1696  150.6135 H   0  0  0  0  0  0  0  0  0  0  0  0  # atno 10167 bound_to 10162
  157.2560  130.7138  149.6429 H   0  0  0  0  0  0  0  0  0  0  0  0  # atno 10718 bound_to 10713
  154.8731  135.3763  154.4590 H   0  0  0  0  0  0  0  0  0  0  0  0  # atno 10763 bound_to 10752
  153.5259  135.7028  153.5712 H   0  0  0  0  0  0  0  0  0  0  0  0  # atno 10764 bound_to 10752
  153.3938  135.3965  155.1907 H   0  0  0  0  0  0  0  0  0  0  0  0  # atno 10765 bound_to 10752
  140.9486  133.7235  156.1184 H   0  0  0  0  0  0  0  0  0  0  0  0  # atno 11005 bound_to 11000
  146.1627  140.6764  142.9270 LP  0  0  0  0  0  0  0  0  0  0  0  0  # atno 17320 bound_to 7965
  144.7339  140.4753  143.6917 LP  0  0  0  0  0  0  0  0  0  0  0  0  # atno 17321 bound_to 7965
  140.4718  143.2410  151.9078 LP  0  0  0  0  0  0  0  0  0  0  0  0  # atno 17342 bound_to 10162
  139.4784  144.5361  151.8596 LP  0  0  0  0  0  0  0  0  0  0  0  0  # atno 17343 bound_to 10162
  155.9665  130.4412  150.5332 LP  0  0  0  0  0  0  0  0  0  0  0  0  # atno 17370 bound_to 10713
  157.3227  131.0685  151.1920 LP  0  0  0  0  0  0  0  0  0  0  0  0  # atno 17371 bound_to 10713
  140.7635  134.3913  157.5521 LP  0  0  0  0  0  0  0  0  0  0  0  0  # atno 17394 bound_to 11000
  139.8840  134.8976  156.2727 LP  0  0  0  0  0  0  0  0  0  0  0  0  # atno 17395 bound_to 11000

$$$$
