AV-unprocessed.smi:1570|AV-procd|sdf|6325|dock10
  -GOLD-   22720 6533D 1   1.00000     0.00000
 Structure written by MMmdl.
 52 54  0  0  0  0  0  0  0  0  2 V2000
  147.0368  128.1092  151.6857 C   0  0  0  0  0  0  0  0  0  0  0  0
  146.3605  129.0453  152.6949 C   0  0  0  0  0  0  0  0  0  0  0  0
  146.8550  130.4131  152.5622 N   0  0  0  0  0  0  0  0  0  0  0  0
  148.0941  130.8572  152.8782 C   0  0  0  0  0  0  0  0  0  0  0  0
  149.0169  130.1761  153.3256 O   0  0  0  0  0  0  0  0  0  0  0  0
  148.1512  132.1803  152.5962 N   0  0  0  0  0  0  0  0  0  0  0  0
  149.3097  133.0537  152.7716 C   0  0  0  0  0  0  0  0  0  0  0  0
  149.5577  133.3748  154.2600 C   0  0  1  0  0  0  0  0  0  0  0  0
  149.8597  132.1643  154.9263 O   0  0  0  0  0  0  0  0  0  0  0  0
  150.7588  134.3243  154.4460 C   0  0  0  0  0  0  0  0  0  0  0  0
  150.4111  135.7469  154.1800 N   0  3  1  0  0  0  0  0  0  0  0  0
  149.6416  136.3845  155.2757 C   0  0  0  0  0  0  0  0  0  0  0  0
  150.5599  136.7759  156.4515 C   0  0  2  0  0  0  0  0  0  0  0  0
  149.7968  137.5151  157.5560 C   0  0  0  0  0  0  0  0  0  0  0  0
  151.5841  137.6388  155.9689 O   0  0  0  0  0  0  0  0  0  0  0  0
  152.4144  137.0198  154.9920 C   0  0  2  0  0  0  0  0  0  0  0  0
  153.5143  138.0138  154.6038 C   0  0  0  0  0  0  0  0  0  0  0  0
  151.5523  136.6099  153.7787 C   0  0  0  0  0  0  0  0  0  0  0  0
  146.9233  132.5884  152.0563 C   0  0  0  0  0  0  0  0  0  0  0  0
  146.4888  133.8394  151.5843 C   0  0  0  0  0  0  0  0  0  0  0  0
  145.1695  133.9174  151.0796 C   0  0  0  0  0  0  0  0  0  0  0  0
  144.3315  132.7726  151.0556 C   0  0  0  0  0  0  0  0  0  0  0  0
  144.7944  131.5252  151.5360 C   0  0  0  0  0  0  0  0  0  0  0  0
  146.1082  131.4759  152.0337 C   0  0  0  0  0  0  0  0  0  0  0  0
  146.6611  127.0913  151.7898 H   0  0  0  0  0  0  0  0  0  0  0  0
  148.1167  128.0818  151.8346 H   0  0  0  0  0  0  0  0  0  0  0  0
  146.8467  128.4303  150.6610 H   0  0  0  0  0  0  0  0  0  0  0  0
  145.2795  129.0316  152.5523 H   0  0  0  0  0  0  0  0  0  0  0  0
  146.5349  128.6848  153.7101 H   0  0  0  0  0  0  0  0  0  0  0  0
  150.1964  132.6297  152.2983 H   0  0  0  0  0  0  0  0  0  0  0  0
  149.1062  133.9757  152.2247 H   0  0  0  0  0  0  0  0  0  0  0  0
  148.6612  133.8107  154.6994 H   0  0  0  0  0  0  0  0  0  0  0  0
  149.0563  131.6861  155.0656 H   0  0  0  0  0  0  0  0  0  0  0  0
  151.1248  134.2202  155.4687 H   0  0  0  0  0  0  0  0  0  0  0  0
  151.5835  134.0200  153.8016 H   0  0  0  0  0  0  0  0  0  0  0  0
  149.1592  137.2781  154.8771 H   0  0  0  0  0  0  0  0  0  0  0  0
  148.8374  135.7280  155.6098 H   0  0  0  0  0  0  0  0  0  0  0  0
  151.0149  135.8842  156.8862 H   0  0  0  0  0  0  0  0  0  0  0  0
  149.0022  136.8928  157.9682 H   0  0  0  0  0  0  0  0  0  0  0  0
  149.3428  138.4313  157.1775 H   0  0  0  0  0  0  0  0  0  0  0  0
  150.4632  137.7872  158.3747 H   0  0  0  0  0  0  0  0  0  0  0  0
  152.8914  136.1432  155.4317 H   0  0  0  0  0  0  0  0  0  0  0  0
  154.1893  137.5831  153.8638 H   0  0  0  0  0  0  0  0  0  0  0  0
  154.1103  138.2946  155.4726 H   0  0  0  0  0  0  0  0  0  0  0  0
  153.0927  138.9264  154.1810 H   0  0  0  0  0  0  0  0  0  0  0  0
  152.1651  136.1285  153.0180 H   0  0  0  0  0  0  0  0  0  0  0  0
  151.1419  137.5058  153.3106 H   0  0  0  0  0  0  0  0  0  0  0  0
  147.1318  134.7068  151.5996 H   0  0  0  0  0  0  0  0  0  0  0  0
  144.7966  134.8596  150.7053 H   0  0  0  0  0  0  0  0  0  0  0  0
  143.3284  132.8538  150.6633 H   0  0  0  0  0  0  0  0  0  0  0  0
  144.1626  130.6495  151.5153 H   0  0  0  0  0  0  0  0  0  0  0  0
  149.7848  135.7126  153.3877 H   0  0  0  0  0  0  0  0  0  0  0  0
  1  2  1  0  0  0  0
  1 25  1  0  0  0  0
  1 26  1  0  0  0  0
  1 27  1  0  0  0  0
  2  3  1  0  0  0  0
  2 28  1  0  0  0  0
  2 29  1  0  0  0  0
  3 24  1  0  0  0  0
  3  4  1  0  0  0  0
  4  5  2  0  0  0  0
  4  6  1  0  0  0  0
  6  7  1  0  0  0  0
  6 19  1  0  0  0  0
  7  8  1  0  0  0  0
  7 30  1  0  0  0  0
  7 31  1  0  0  0  0
  8  9  1  0  0  0  0
  8 10  1  0  0  0  0
  8 32  1  0  0  0  0
  9 33  1  0  0  0  0
 10 11  1  0  0  0  0
 10 34  1  0  0  0  0
 10 35  1  0  0  0  0
 11 18  1  0  0  0  0
 11 12  1  0  0  0  0
 11 52  1  0  0  0  0
 12 13  1  0  0  0  0
 12 36  1  0  0  0  0
 12 37  1  0  0  0  0
 13 14  1  0  0  0  0
 13 15  1  0  0  0  0
 13 38  1  0  0  0  0
 14 39  1  0  0  0  0
 14 40  1  0  0  0  0
 14 41  1  0  0  0  0
 15 16  1  0  0  0  0
 16 17  1  0  0  0  0
 16 18  1  0  0  0  0
 16 42  1  0  0  0  0
 17 43  1  0  0  0  0
 17 44  1  0  0  0  0
 17 45  1  0  0  0  0
 18 46  1  0  0  0  0
 18 47  1  0  0  0  0
 19 24  2  0  0  0  0
 19 20  1  0  0  0  0
 20 21  2  0  0  0  0
 20 48  1  0  0  0  0
 21 22  1  0  0  0  0
 21 49  1  0  0  0  0
 22 23  2  0  0  0  0
 22 50  1  0  0  0  0
 23 24  1  0  0  0  0
 23 51  1  0  0  0  0
M  CHG  1  11   1
M  END
> <s_m_source_file>
AV-unprocessed.smi

> <i_m_source_file_index>
1570

> <i_lp_mmshare_version>
43012

> <i_f3d_flags>
0

> <s_epik_input>
W2NIXTFbY0hdW2NIXVtjSF1jKGMxMiluKFtDSDJdW0NIM10pYyg9TyluMltDSDJdW0NASF0oW09IXSlbQ0gyXU4zW0NIMl1bQ0BASF0oW0NIM10pT1tDQEBIXShbQ0gzXSlbQ0gyXTM=

> <s_epik_cmdline>
J2VwaWtfcHl0aG9uJywgJy1waCcsICc3LjAnLCAnLXRuJywgJzgnLCAnLW1hJywgJzIwMCcsICctbWV0YWxfYmluZGluZycsICctaW1hZScsICc8aW5maWxlLm1hZT4nLCAnLW9tYWUnLCAnPG91dGZpbGUubWFlPic=

> <r_epik_Ionization_Penalty>
0.706332

> <r_epik_Ionization_Penalty_Charging>
0.706318

> <r_epik_Ionization_Penalty_Neutral>
1.42224e-05

> <r_epik_State_Penalty>
0.729493

> <r_epik_Charging_Adjusted_Penalty>
1.43581

> <i_epik_Tot_Q>
1

> <i_epik_Tot_abs_Q>
1

> <r_epik_Metal_State_Penalty>
0.729493

> <b_epik_Metal_Only>
0

> <s_lp_Force_Field>
OPLS_2005

> <r_lp_Energy>
54.0737

> <b_lp_Chiralities_Consistent>
1

> <s_lp_Variant>
AV-unprocessed.smi:1570-14

> <Gold.Version>
5.8.1

> <Gold.Id.Protein>
6NUR|6NUR_protein|mol2

> <Gold.PLP.Fitness>
45.2059

> <Gold.PLP.PLP>
-40.3487

> <Gold.PLP.part.hbond>
-1.0000

> <Gold.PLP.part.metal>
0.0000

> <Gold.PLP.part.buried>
-3.0149

> <Gold.PLP.part.nonpolar>
-35.9401

> <Gold.PLP.part.repulsive>
0.1176

> <Gold.PLP.ligand.clash>
0.0000

> <Gold.PLP.ligand.torsion>
0.6097

> <Gold.PLP.Chemscore.Hbond>
2.0000

> <Gold.PLP.Chemscore.CHOScore>
0.0000

> <Gold.PLP.Chemscore.Metal>
0.0000

> <Gold.Chemscore.Hbonds>
donor molecule, donor type, donor heavy atom, donor atom, acceptor molecule, acceptor atom, score
      L1  H    11    52       P1  7948  1.10

> <Gold.PLP.Chemscore.Internal.Correction>
0.0766

> <Gold.Rescore>
     Score         DG    S(hbond)    S(metal)    S(lipo)     H(rot)  DE(clash)    DE(int)     intcor
     13.62     -14.33       0.93        0.00      95.63       2.13       0.14       0.57       ----

> <Gold.Chemscore.Fitness>
13.6212

> <Gold.Chemscore.DG>
-14.3300

> <Gold.Chemscore.ZeroCoef>
-5.4800

> <Gold.Chemscore.Hbond>
0.9327

> <Gold.Chemscore.Metal>
0.0000

> <Gold.Chemscore.Lipo>
95.6265

> <Gold.Chemscore.Internal_Hbond>
0.0000

> <Gold.Chemscore.DEClash>
0.1388

> <Gold.Chemscore.DEInternal>
0.5700

> <Gold.Chemscore.Rot>
2.1303

> <Gold.Chemscore.Internal.Correction>
   9.000000E+99

> <Gold.Chemscore.Hbonds>
donor molecule, donor type, donor heavy atom, donor atom, acceptor molecule, acceptor atom, score
      L1  H    11    52       P1  7948  0.03

> <Gold.Chemscore.Hbond.Weighted>
-3.1152

> <Gold.Chemscore.Metal.Weighted>
-0.0000

> <Gold.Chemscore.Lipo.Weighted>
-11.1883

> <Gold.Chemscore.Internal_Hbond.Weighted>
0.0000

> <Gold.Chemscore.DEClash.Weighted>
0.1388

> <Gold.Chemscore.DEInternal.Weighted>
0.5700

> <Gold.Chemscore.Rot.Weighted>
5.4535

> <Gold.Chemscore.Internal.Correction.Weighted>
   9.000000E+99

> <Gold.Protein.RotatedTorsions>
[ 6907 6896 6895 6894 ] final  -43.86 input  -60.11 | X-H torsion
[ 7974 7965 7964 7962 ] final  -46.40 input  175.53 | X-H torsion
[ 8008 7997 7996 7995 ] final   26.51 input   59.86 | X-H torsion
[ 10167 10162 10161 10158 ] final -173.72 input  -65.29 | X-H torsion
[ 10718 10713 10712 10709 ] final  -92.72 input   66.30 | X-H torsion
[ 10763 10752 10751 10750 ] final -136.48 input  -60.55 | X-H torsion
[ 11005 11000 10999 10996 ] final -103.41 input  -57.11 | X-H torsion

> <Gold.Protein.ActiveResidues>
 VAL166  LYS551  ARG553  GLY616  TRP617  ASP618  TYR619  PRO620  LYS621  CYS622 
 ASP623  PHE694  ASN695  SER759  ASP760  ASP761  ALA762  ILE779  LEU786  VAL792 
 PHE793  MET794  SER795  GLU796  ALA797  LYS798  CYS799  TRP800  GLU811  SER814 

> <Gold.Protein.RotatedAtoms>
  150.9392  134.8802  159.7601 H   0  0  0  0  0  0  0  0  0  0  0  0  # atno 6907 bound_to 6896
  152.5073  134.3966  159.9412 H   0  0  0  0  0  0  0  0  0  0  0  0  # atno 6908 bound_to 6896
  151.3988  133.3724  159.2764 H   0  0  0  0  0  0  0  0  0  0  0  0  # atno 6909 bound_to 6896
  145.9723  140.7370  142.9404 H   0  0  0  0  0  0  0  0  0  0  0  0  # atno 7974 bound_to 7965
  155.0284  140.3156  155.4767 H   0  0  0  0  0  0  0  0  0  0  0  0  # atno 8008 bound_to 7997
  156.2878  140.2184  156.5347 H   0  0  0  0  0  0  0  0  0  0  0  0  # atno 8009 bound_to 7997
  154.7391  140.0475  157.0783 H   0  0  0  0  0  0  0  0  0  0  0  0  # atno 8010 bound_to 7997
  139.5672  144.1726  152.1331 H   0  0  0  0  0  0  0  0  0  0  0  0  # atno 10167 bound_to 10162
  156.0005  130.4998  150.5667 H   0  0  0  0  0  0  0  0  0  0  0  0  # atno 10718 bound_to 10713
  154.8683  135.3671  154.5068 H   0  0  0  0  0  0  0  0  0  0  0  0  # atno 10763 bound_to 10752
  153.5705  135.7021  153.5511 H   0  0  0  0  0  0  0  0  0  0  0  0  # atno 10764 bound_to 10752
  153.3546  135.4063  155.1635 H   0  0  0  0  0  0  0  0  0  0  0  0  # atno 10765 bound_to 10752
  141.1147  133.8638  157.1482 H   0  0  0  0  0  0  0  0  0  0  0  0  # atno 11005 bound_to 11000
  144.6840  140.2770  143.7298 LP  0  0  0  0  0  0  0  0  0  0  0  0  # atno 17320 bound_to 7965
  145.7888  139.1919  143.2115 LP  0  0  0  0  0  0  0  0  0  0  0  0  # atno 17321 bound_to 7965
  140.1252  144.5338  150.6837 LP  0  0  0  0  0  0  0  0  0  0  0  0  # atno 17342 bound_to 10162
  140.6956  143.2402  151.5009 LP  0  0  0  0  0  0  0  0  0  0  0  0  # atno 17343 bound_to 10162
  157.3568  131.0743  151.1668 LP  0  0  0  0  0  0  0  0  0  0  0  0  # atno 17370 bound_to 10713
  157.2466  130.6594  149.5913 LP  0  0  0  0  0  0  0  0  0  0  0  0  # atno 17371 bound_to 10713
  140.0061  135.0007  157.0296 LP  0  0  0  0  0  0  0  0  0  0  0  0  # atno 17394 bound_to 11000
  140.4679  134.1417  155.7199 LP  0  0  0  0  0  0  0  0  0  0  0  0  # atno 17395 bound_to 11000

$$$$
