AV-unprocessed.smi:2054|AV-procd|sdf|8332|dock4
  -GOLD-   2272010593D 1   1.00000     0.00000
 Structure written by MMmdl.
 42 43  0  0  0  0  0  0  0  0  1 V2000
  154.2291  133.2065  165.1512 C   0  0  0  0  0  0  0  0  0  0  0  0
  155.4036  133.2948  163.7367 S   0  0  0  0  0  0  0  0  0  0  0  0
  156.7109  133.7076  164.2699 O   0  0  0  0  0  0  0  0  0  0  0  0
  155.2912  132.0644  162.9387 O   0  0  0  0  0  0  0  0  0  0  0  0
  154.7778  134.6026  162.7837 N   0  0  0  0  0  0  0  0  0  0  0  0
  155.2304  134.6990  161.3813 C   0  0  0  0  0  0  0  0  0  0  0  0
  154.3141  135.6146  160.5536 C   0  0  0  0  0  0  0  0  0  0  0  0
  154.1942  137.0068  161.1939 C   0  0  0  0  0  0  0  0  0  0  0  0
  153.2745  137.9213  160.3741 C   0  0  0  0  0  0  0  0  0  0  0  0
  152.1391  137.5527  160.0722 O   0  0  0  0  0  0  0  0  0  0  0  0
  153.7785  139.1134  160.0195 N   0  0  0  0  0  0  0  0  0  0  0  0
  153.0705  140.1275  159.2467 C   0  0  0  0  0  0  0  0  0  0  0  0
  152.8901  141.4284  160.0465 C   0  0  0  0  0  0  0  0  0  0  0  0
  152.3718  142.5634  159.1835 C   0  0  0  0  0  0  0  0  0  0  0  0
  153.1538  143.7180  158.9661 C   0  0  0  0  0  0  0  0  0  0  0  0
  152.6222  144.7474  158.1652 C   0  0  0  0  0  0  0  0  0  0  0  0
  151.3357  144.5841  157.6163 C   0  0  0  0  0  0  0  0  0  0  0  0
  150.6350  143.3935  157.8941 C   0  0  0  0  0  0  0  0  0  0  0  0
  151.1353  142.4007  158.6611 N   0  0  0  0  0  0  0  0  0  0  0  0
  153.6723  136.8320  162.6289 C   0  0  0  0  0  0  0  0  0  0  0  0
  154.5861  135.9068  163.4500 C   0  0  0  0  0  0  0  0  0  0  0  0
  154.5776  132.4556  165.8599 H   0  0  0  0  0  0  0  0  0  0  0  0
  153.2365  132.9289  164.7998 H   0  0  0  0  0  0  0  0  0  0  0  0
  154.1832  134.1757  165.6470 H   0  0  0  0  0  0  0  0  0  0  0  0
  156.2543  135.0749  161.3656 H   0  0  0  0  0  0  0  0  0  0  0  0
  155.2540  133.7082  160.9305 H   0  0  0  0  0  0  0  0  0  0  0  0
  154.7063  135.6991  159.5393 H   0  0  0  0  0  0  0  0  0  0  0  0
  153.3300  135.1510  160.4655 H   0  0  0  0  0  0  0  0  0  0  0  0
  155.1876  137.4574  161.2367 H   0  0  0  0  0  0  0  0  0  0  0  0
  154.7201  139.3356  160.3092 H   0  0  0  0  0  0  0  0  0  0  0  0
  153.5968  140.3218  158.3105 H   0  0  0  0  0  0  0  0  0  0  0  0
  152.0952  139.7225  158.9755 H   0  0  0  0  0  0  0  0  0  0  0  0
  152.1991  141.2639  160.8745 H   0  0  0  0  0  0  0  0  0  0  0  0
  153.8375  141.7321  160.4945 H   0  0  0  0  0  0  0  0  0  0  0  0
  154.1364  143.8158  159.4037 H   0  0  0  0  0  0  0  0  0  0  0  0
  153.1905  145.6461  157.9766 H   0  0  0  0  0  0  0  0  0  0  0  0
  150.8963  145.3528  156.9980 H   0  0  0  0  0  0  0  0  0  0  0  0
  149.6459  143.2351  157.4904 H   0  0  0  0  0  0  0  0  0  0  0  0
  153.5993  137.8015  163.1235 H   0  0  0  0  0  0  0  0  0  0  0  0
  152.6630  136.4169  162.6159 H   0  0  0  0  0  0  0  0  0  0  0  0
  154.1461  135.7591  164.4359 H   0  0  0  0  0  0  0  0  0  0  0  0
  155.5606  136.3719  163.6044 H   0  0  0  0  0  0  0  0  0  0  0  0
  1  2  1  0  0  0  0
  1 22  1  0  0  0  0
  1 23  1  0  0  0  0
  1 24  1  0  0  0  0
  2  3  2  0  0  0  0
  2  4  2  0  0  0  0
  2  5  1  0  0  0  0
  5 21  1  0  0  0  0
  5  6  1  0  0  0  0
  6  7  1  0  0  0  0
  6 25  1  0  0  0  0
  6 26  1  0  0  0  0
  7  8  1  0  0  0  0
  7 27  1  0  0  0  0
  7 28  1  0  0  0  0
  8  9  1  0  0  0  0
  8 20  1  0  0  0  0
  8 29  1  0  0  0  0
  9 10  2  0  0  0  0
  9 11  1  0  0  0  0
 11 12  1  0  0  0  0
 11 30  1  0  0  0  0
 12 13  1  0  0  0  0
 12 31  1  0  0  0  0
 12 32  1  0  0  0  0
 13 14  1  0  0  0  0
 13 33  1  0  0  0  0
 13 34  1  0  0  0  0
 14 19  1  0  0  0  0
 14 15  2  0  0  0  0
 15 16  1  0  0  0  0
 15 35  1  0  0  0  0
 16 17  2  0  0  0  0
 16 36  1  0  0  0  0
 17 18  1  0  0  0  0
 17 37  1  0  0  0  0
 18 19  2  0  0  0  0
 18 38  1  0  0  0  0
 20 21  1  0  0  0  0
 20 39  1  0  0  0  0
 20 40  1  0  0  0  0
 21 41  1  0  0  0  0
 21 42  1  0  0  0  0
M  END
> <s_m_source_file>
AV-unprocessed.smi

> <i_m_source_file_index>
2054

> <i_lp_mmshare_version>
43012

> <i_f3d_flags>
0

> <s_epik_input>
W0NIM11TKD1PKSg9TylOMVtDSDJdW0NIMl1bQ0hdKFtDSDJdW0NIMl0xKUMoPU8pW05IXVtDSDJdW0NIMl1jMltjSF1bY0hdW2NIXVtjSF1uMg==

> <s_epik_cmdline>
J2VwaWtfcHl0aG9uJywgJy1waCcsICc3LjAnLCAnLXRuJywgJzgnLCAnLW1hJywgJzIwMCcsICctbWV0YWxfYmluZGluZycsICctaW1hZScsICc8aW5maWxlLm1hZT4nLCAnLW9tYWUnLCAnPG91dGZpbGUubWFlPic=

> <r_epik_Ionization_Penalty>
0.0277532

> <r_epik_Ionization_Penalty_Charging>
0

> <r_epik_Ionization_Penalty_Neutral>
0.0277532

> <r_epik_State_Penalty>
0.022734

> <r_epik_Charging_Adjusted_Penalty>
0.022734

> <i_epik_Tot_Q>
0

> <i_epik_Tot_abs_Q>
0

> <r_epik_Metal_State_Penalty>
0.021713

> <b_epik_Metal_Only>
0

> <s_lp_Force_Field>
OPLS_2005

> <r_lp_Energy>
2.16831

> <b_lp_Chiralities_Consistent>
1

> <s_lp_Variant>
AV-unprocessed.smi:2054-1

> <Gold.Version>
5.8.1

> <Gold.Id.Protein>
6NUR|6NUR_protein|mol2

> <Gold.PLP.Fitness>
44.4796

> <Gold.PLP.PLP>
-42.6344

> <Gold.PLP.part.hbond>
0.0000

> <Gold.PLP.part.metal>
0.0000

> <Gold.PLP.part.buried>
-4.2143

> <Gold.PLP.part.nonpolar>
-38.5004

> <Gold.PLP.part.repulsive>
0.1822

> <Gold.PLP.ligand.clash>
0.0000

> <Gold.PLP.ligand.torsion>
0.5748

> <Gold.PLP.Chemscore.Hbond>
0.0000

> <Gold.PLP.Chemscore.CHOScore>
0.7406

> <Gold.PLP.Chemscore.Metal>
0.0000

> <Gold.Chemscore.Hbonds>
donor molecule, donor type, donor heavy atom, donor atom, acceptor molecule, acceptor atom, score
      L1  C    18    38       P1  8028  0.76

> <Gold.PLP.Chemscore.Internal.Correction>
0.7732

> <Gold.Rescore>
     Score         DG    S(hbond)    S(metal)    S(lipo)     H(rot)  DE(clash)    DE(int)     intcor
     15.23     -15.76       0.03        0.00     127.22       1.84       0.10       0.43       ----

> <Gold.Chemscore.Fitness>
15.2293

> <Gold.Chemscore.DG>
-15.7557

> <Gold.Chemscore.ZeroCoef>
-5.4800

> <Gold.Chemscore.Hbond>
0.0317

> <Gold.Chemscore.Metal>
0.0000

> <Gold.Chemscore.Lipo>
127.2231

> <Gold.Chemscore.Internal_Hbond>
0.0000

> <Gold.Chemscore.DEClash>
0.0978

> <Gold.Chemscore.DEInternal>
0.4286

> <Gold.Chemscore.Rot>
1.8419

> <Gold.Chemscore.Internal.Correction>
   9.000000E+99

> <Gold.Chemscore.Hbonds>
donor molecule, donor type, donor heavy atom, donor atom, acceptor molecule, acceptor atom, score
      P1  H  6896  6909       L1    10  0.07

> <Gold.Chemscore.Hbond.Weighted>
-0.1059

> <Gold.Chemscore.Metal.Weighted>
-0.0000

> <Gold.Chemscore.Lipo.Weighted>
-14.8851

> <Gold.Chemscore.Internal_Hbond.Weighted>
0.0000

> <Gold.Chemscore.DEClash.Weighted>
0.0978

> <Gold.Chemscore.DEInternal.Weighted>
0.4286

> <Gold.Chemscore.Rot.Weighted>
4.7153

> <Gold.Chemscore.Internal.Correction.Weighted>
   9.000000E+99

> <Gold.Protein.RotatedTorsions>
[ 6907 6896 6895 6894 ] final  129.82 input  -60.11 | X-H torsion
[ 7974 7965 7964 7962 ] final   76.83 input  175.53 | X-H torsion
[ 8008 7997 7996 7995 ] final  -62.04 input   59.86 | X-H torsion
[ 10167 10162 10161 10158 ] final -109.65 input  -65.29 | X-H torsion
[ 10718 10713 10712 10709 ] final   21.45 input   66.30 | X-H torsion
[ 10763 10752 10751 10750 ] final  105.56 input  -60.55 | X-H torsion
[ 11005 11000 10999 10996 ] final   64.62 input  -57.11 | X-H torsion

> <Gold.Protein.ActiveResidues>
 VAL166  LYS551  ARG553  GLY616  TRP617  ASP618  TYR619  PRO620  LYS621  CYS622 
 ASP623  PHE694  ASN695  SER759  ASP760  ASP761  ALA762  ILE779  LEU786  VAL792 
 PHE793  MET794  SER795  GLU796  ALA797  LYS798  CYS799  TRP800  GLU811  SER814 

> <Gold.Protein.RotatedAtoms>
  152.3587  133.6269  159.5998 H   0  0  0  0  0  0  0  0  0  0  0  0  # atno 6907 bound_to 6896
  150.7586  133.9459  159.3479 H   0  0  0  0  0  0  0  0  0  0  0  0  # atno 6908 bound_to 6896
  151.7300  135.0878  160.0349 H   0  0  0  0  0  0  0  0  0  0  0  0  # atno 6909 bound_to 6896
  145.6978  139.2573  143.1723 H   0  0  0  0  0  0  0  0  0  0  0  0  # atno 7974 bound_to 7965
  154.4479  140.1004  156.6525 H   0  0  0  0  0  0  0  0  0  0  0  0  # atno 8008 bound_to 7997
  155.5382  140.3483  155.4422 H   0  0  0  0  0  0  0  0  0  0  0  0  # atno 8009 bound_to 7997
  156.0616  140.1328  156.9923 H   0  0  0  0  0  0  0  0  0  0  0  0  # atno 8010 bound_to 7997
  140.1531  143.4183  152.1481 H   0  0  0  0  0  0  0  0  0  0  0  0  # atno 10167 bound_to 10162
  157.1386  130.6623  149.5974 H   0  0  0  0  0  0  0  0  0  0  0  0  # atno 10718 bound_to 10713
  153.3811  135.3906  155.1857 H   0  0  0  0  0  0  0  0  0  0  0  0  # atno 10763 bound_to 10752
  154.8707  135.3725  154.4856 H   0  0  0  0  0  0  0  0  0  0  0  0  # atno 10764 bound_to 10752
  153.5333  135.7085  153.5733 H   0  0  0  0  0  0  0  0  0  0  0  0  # atno 10765 bound_to 10752
  139.9947  134.6536  156.0030 H   0  0  0  0  0  0  0  0  0  0  0  0  # atno 11005 bound_to 11000
  146.0825  140.7748  142.9634 LP  0  0  0  0  0  0  0  0  0  0  0  0  # atno 17320 bound_to 7965
  144.6977  140.3511  143.7181 LP  0  0  0  0  0  0  0  0  0  0  0  0  # atno 17321 bound_to 7965
  139.5416  144.7262  151.4714 LP  0  0  0  0  0  0  0  0  0  0  0  0  # atno 17342 bound_to 10162
  140.6690  143.8335  150.6976 LP  0  0  0  0  0  0  0  0  0  0  0  0  # atno 17343 bound_to 10162
  155.9793  130.4785  150.6707 LP  0  0  0  0  0  0  0  0  0  0  0  0  # atno 17370 bound_to 10713
  157.4327  131.0851  151.1022 LP  0  0  0  0  0  0  0  0  0  0  0  0  # atno 17371 bound_to 10713
  141.1595  133.6540  156.4270 LP  0  0  0  0  0  0  0  0  0  0  0  0  # atno 17394 bound_to 11000
  140.4841  134.6637  157.5183 LP  0  0  0  0  0  0  0  0  0  0  0  0  # atno 17395 bound_to 11000

$$$$
