AV-unprocessed.smi:2220|AV-procd|sdf|8978|dock2
  -GOLD-   2272012193D 1   1.00000     0.00000
 Structure written by MMmdl.
 39 40  0  0  0  0  0  0  0  0  2 V2000
  148.1367  138.1930  156.5177 C   0  0  0  0  0  0  0  0  0  0  0  0
  149.1127  138.2409  155.4259 N   0  0  0  0  0  0  0  0  0  0  0  0
  148.8450  138.8496  154.2635 C   0  0  0  0  0  0  0  0  0  0  0  0
  149.9283  138.7130  153.4955 N   0  3  0  0  0  0  0  0  0  0  0  0
  150.8936  138.0145  154.1669 C   0  0  0  0  0  0  0  0  0  0  0  0
  150.3829  137.7083  155.4043 C   0  0  0  0  0  0  0  0  0  0  0  0
  150.9980  136.9692  156.5496 C   0  0  0  0  0  0  0  0  0  0  0  0
  152.2117  137.7203  157.1223 C   0  0  0  0  0  0  0  0  0  0  0  0
  151.8263  139.0083  157.6862 N   0  0  0  0  0  0  0  0  0  0  0  0
  152.6341  139.8090  158.3990 C   0  0  0  0  0  0  0  0  0  0  0  0
  153.8052  139.5272  158.6554 O   0  0  0  0  0  0  0  0  0  0  0  0
  152.0261  141.1259  158.8995 C   0  0  0  0  0  0  0  0  0  0  0  0
  151.4315  141.9382  157.7301 C   0  0  0  0  0  0  0  0  0  0  0  0
  150.8169  143.2571  158.2258 C   0  0  0  0  0  0  0  0  0  0  0  0
  151.8408  144.0924  159.0133 C   0  0  0  0  0  0  0  0  0  0  0  0
  152.8035  144.5059  158.1877 F   0  0  0  0  0  0  0  0  0  0  0  0
  151.2334  145.1675  159.5150 F   0  0  0  0  0  0  0  0  0  0  0  0
  152.4671  143.2857  160.1639 C   0  0  0  0  0  0  0  0  0  0  0  0
  153.0736  141.9660  159.6599 C   0  0  0  0  0  0  0  0  0  0  0  0
  147.1931  138.6379  156.1991 H   0  0  0  0  0  0  0  0  0  0  0  0
  148.5261  138.7477  157.3714 H   0  0  0  0  0  0  0  0  0  0  0  0
  147.9645  137.1547  156.8014 H   0  0  0  0  0  0  0  0  0  0  0  0
  147.9335  139.3537  153.9952 H   0  0  0  0  0  0  0  0  0  0  0  0
  151.8553  137.7926  153.7271 H   0  0  0  0  0  0  0  0  0  0  0  0
  150.2483  136.8090  157.3251 H   0  0  0  0  0  0  0  0  0  0  0  0
  151.2964  135.9801  156.2002 H   0  0  0  0  0  0  0  0  0  0  0  0
  152.7127  137.1162  157.8810 H   0  0  0  0  0  0  0  0  0  0  0  0
  152.9466  137.9039  156.3387 H   0  0  0  0  0  0  0  0  0  0  0  0
  150.8793  139.3169  157.5191 H   0  0  0  0  0  0  0  0  0  0  0  0
  151.2172  140.8869  159.5927 H   0  0  0  0  0  0  0  0  0  0  0  0
  152.2043  142.1575  156.9918 H   0  0  0  0  0  0  0  0  0  0  0  0
  150.6694  141.3532  157.2137 H   0  0  0  0  0  0  0  0  0  0  0  0
  150.4342  143.8311  157.3812 H   0  0  0  0  0  0  0  0  0  0  0  0
  149.9593  143.0369  158.8629 H   0  0  0  0  0  0  0  0  0  0  0  0
  153.2312  143.8797  160.6663 H   0  0  0  0  0  0  0  0  0  0  0  0
  151.7044  143.0676  160.9126 H   0  0  0  0  0  0  0  0  0  0  0  0
  153.4688  141.4010  160.5052 H   0  0  0  0  0  0  0  0  0  0  0  0
  153.9236  142.1862  159.0123 H   0  0  0  0  0  0  0  0  0  0  0  0
  150.0193  139.0750  152.5545 H   0  0  0  0  0  0  0  0  0  0  0  0
  1  2  1  0  0  0  0
  1 20  1  0  0  0  0
  1 21  1  0  0  0  0
  1 22  1  0  0  0  0
  2  6  1  0  0  0  0
  2  3  1  0  0  0  0
  3  4  2  0  0  0  0
  3 23  1  0  0  0  0
  4  5  1  0  0  0  0
  4 39  1  0  0  0  0
  5  6  2  0  0  0  0
  5 24  1  0  0  0  0
  6  7  1  0  0  0  0
  7  8  1  0  0  0  0
  7 25  1  0  0  0  0
  7 26  1  0  0  0  0
  8  9  1  0  0  0  0
  8 27  1  0  0  0  0
  8 28  1  0  0  0  0
  9 10  1  0  0  0  0
  9 29  1  0  0  0  0
 10 11  2  0  0  0  0
 10 12  1  0  0  0  0
 12 19  1  0  0  0  0
 12 13  1  0  0  0  0
 12 30  1  0  0  0  0
 13 14  1  0  0  0  0
 13 31  1  0  0  0  0
 13 32  1  0  0  0  0
 14 15  1  0  0  0  0
 14 33  1  0  0  0  0
 14 34  1  0  0  0  0
 15 16  1  0  0  0  0
 15 17  1  0  0  0  0
 15 18  1  0  0  0  0
 18 19  1  0  0  0  0
 18 35  1  0  0  0  0
 18 36  1  0  0  0  0
 19 37  1  0  0  0  0
 19 38  1  0  0  0  0
M  CHG  1   4   1
M  END
> <s_m_source_file>
AV-unprocessed.smi

> <i_m_source_file_index>
2220

> <i_lp_mmshare_version>
43012

> <i_f3d_flags>
0

> <s_epik_input>
W0NIM11uMVtjSF1uW2NIXWMxW0NIMl1bQ0gyXVtOSF1DKD1PKVtDSF0oW0NIMl1bQ0gyXTIpW0NIMl1bQ0gyXUMyKEYpRg==

> <s_epik_cmdline>
J2VwaWtfcHl0aG9uJywgJy1waCcsICc3LjAnLCAnLXRuJywgJzgnLCAnLW1hJywgJzIwMCcsICctbWV0YWxfYmluZGluZycsICctaW1hZScsICc8aW5maWxlLm1hZT4nLCAnLW9tYWUnLCAnPG91dGZpbGUubWFlPic=

> <r_lp_tautomer_probability>
1

> <r_epik_Ionization_Penalty>
0.15432

> <r_epik_Ionization_Penalty_Charging>
0

> <r_epik_Ionization_Penalty_Neutral>
0.15432

> <r_epik_State_Penalty>
0.143614

> <r_epik_Charging_Adjusted_Penalty>
0.143614

> <i_epik_Tot_Q>
1

> <i_epik_Tot_abs_Q>
1

> <r_epik_Metal_State_Penalty>
0.465047

> <b_epik_Metal_Only>
0

> <s_lp_Force_Field>
OPLS_2005

> <r_lp_Energy>
11.3937

> <b_lp_Chiralities_Consistent>
1

> <s_lp_Variant>
AV-unprocessed.smi:2220-1

> <Gold.Version>
5.8.1

> <Gold.Id.Protein>
6NUR|6NUR_protein|mol2

> <Gold.PLP.Fitness>
45.4303

> <Gold.PLP.PLP>
-39.5988

> <Gold.PLP.part.hbond>
-2.6749

> <Gold.PLP.part.metal>
0.0000

> <Gold.PLP.part.buried>
-4.7406

> <Gold.PLP.part.nonpolar>
-31.9946

> <Gold.PLP.part.repulsive>
0.1630

> <Gold.PLP.ligand.clash>
0.0000

> <Gold.PLP.ligand.torsion>
0.0909

> <Gold.PLP.Chemscore.Hbond>
2.0000

> <Gold.PLP.Chemscore.CHOScore>
0.0000

> <Gold.PLP.Chemscore.Metal>
0.0000

> <Gold.Chemscore.Hbonds>
donor molecule, donor type, donor heavy atom, donor atom, acceptor molecule, acceptor atom, score
      L1  H     4    39       P1  7957  1.00
      P1  H  7997  8010       L1    11  0.98

> <Gold.PLP.Chemscore.Internal.Correction>
0.0132

> <Gold.Rescore>
     Score         DG    S(hbond)    S(metal)    S(lipo)     H(rot)  DE(clash)    DE(int)     intcor
     16.50     -16.60       1.89        0.00      81.97       1.87       0.00       0.10       ----

> <Gold.Chemscore.Fitness>
16.4976

> <Gold.Chemscore.DG>
-16.5979

> <Gold.Chemscore.ZeroCoef>
-5.4800

> <Gold.Chemscore.Hbond>
1.8886

> <Gold.Chemscore.Metal>
0.0000

> <Gold.Chemscore.Lipo>
81.9653

> <Gold.Chemscore.Internal_Hbond>
0.0000

> <Gold.Chemscore.DEClash>
0.0019

> <Gold.Chemscore.DEInternal>
0.0984

> <Gold.Chemscore.Rot>
1.8672

> <Gold.Chemscore.Internal.Correction>
   9.000000E+99

> <Gold.Chemscore.Hbonds>
donor molecule, donor type, donor heavy atom, donor atom, acceptor molecule, acceptor atom, score
      L1  H     4    39       P1  7957  0.65
      P1  H  7997  8010       L1    11  0.86

> <Gold.Chemscore.Hbond.Weighted>
-6.3079

> <Gold.Chemscore.Metal.Weighted>
-0.0000

> <Gold.Chemscore.Lipo.Weighted>
-9.5899

> <Gold.Chemscore.Internal_Hbond.Weighted>
0.0000

> <Gold.Chemscore.DEClash.Weighted>
0.0019

> <Gold.Chemscore.DEInternal.Weighted>
0.0984

> <Gold.Chemscore.Rot.Weighted>
4.7800

> <Gold.Chemscore.Internal.Correction.Weighted>
   9.000000E+99

> <Gold.Protein.RotatedTorsions>
[ 6907 6896 6895 6894 ] final -133.70 input  -60.11 | X-H torsion
[ 7974 7965 7964 7962 ] final -115.32 input  175.53 | X-H torsion
[ 8008 7997 7996 7995 ] final    0.07 input   59.86 | X-H torsion
[ 10167 10162 10161 10158 ] final  -92.98 input  -65.29 | X-H torsion
[ 10718 10713 10712 10709 ] final   -8.30 input   66.30 | X-H torsion
[ 10763 10752 10751 10750 ] final -153.52 input  -60.55 | X-H torsion
[ 11005 11000 10999 10996 ] final   36.48 input  -57.11 | X-H torsion

> <Gold.Protein.ActiveResidues>
 VAL166  LYS551  ARG553  GLY616  TRP617  ASP618  TYR619  PRO620  LYS621  CYS622 
 ASP623  PHE694  ASN695  SER759  ASP760  ASP761  ALA762  ILE779  LEU786  VAL792 
 PHE793  MET794  SER795  GLU796  ALA797  LYS798  CYS799  TRP800  GLU811  SER814 

> <Gold.Protein.RotatedAtoms>
  150.9771  133.6284  159.2728 H   0  0  0  0  0  0  0  0  0  0  0  0  # atno 6907 bound_to 6896
  151.3552  135.0891  159.9426 H   0  0  0  0  0  0  0  0  0  0  0  0  # atno 6908 bound_to 6896
  152.5203  133.9355  159.7656 H   0  0  0  0  0  0  0  0  0  0  0  0  # atno 6909 bound_to 6896
  145.1098  140.8604  143.3877 H   0  0  0  0  0  0  0  0  0  0  0  0  # atno 7974 bound_to 7965
  154.6638  140.2596  155.7080 H   0  0  0  0  0  0  0  0  0  0  0  0  # atno 8008 bound_to 7997
  156.2630  140.2843  156.1043 H   0  0  0  0  0  0  0  0  0  0  0  0  # atno 8009 bound_to 7997
  155.1268  140.0378  157.2755 H   0  0  0  0  0  0  0  0  0  0  0  0  # atno 8010 bound_to 7997
  140.3293  143.3004  151.9959 H   0  0  0  0  0  0  0  0  0  0  0  0  # atno 10167 bound_to 10162
  156.7047  130.5104  149.5908 H   0  0  0  0  0  0  0  0  0  0  0  0  # atno 10718 bound_to 10713
  154.7922  135.3211  154.7751 H   0  0  0  0  0  0  0  0  0  0  0  0  # atno 10763 bound_to 10752
  153.8438  135.6868  153.4804 H   0  0  0  0  0  0  0  0  0  0  0  0  # atno 10764 bound_to 10752
  153.1597  135.4666  154.9695 H   0  0  0  0  0  0  0  0  0  0  0  0  # atno 10765 bound_to 10752
  140.2321  134.3515  155.7959 H   0  0  0  0  0  0  0  0  0  0  0  0  # atno 11005 bound_to 11000
  145.0860  139.2924  143.5759 LP  0  0  0  0  0  0  0  0  0  0  0  0  # atno 17320 bound_to 7965
  146.3527  140.0382  142.8645 LP  0  0  0  0  0  0  0  0  0  0  0  0  # atno 17321 bound_to 7965
  139.4859  144.6248  151.7186 LP  0  0  0  0  0  0  0  0  0  0  0  0  # atno 17342 bound_to 10162
  140.5411  144.0577  150.6089 LP  0  0  0  0  0  0  0  0  0  0  0  0  # atno 17343 bound_to 10162
  156.1704  130.6433  151.0830 LP  0  0  0  0  0  0  0  0  0  0  0  0  # atno 17370 bound_to 10713
  157.6959  131.0794  150.6969 LP  0  0  0  0  0  0  0  0  0  0  0  0  # atno 17371 bound_to 10713
  141.2217  133.7251  156.8749 LP  0  0  0  0  0  0  0  0  0  0  0  0  # atno 17394 bound_to 11000
  140.1739  134.9080  157.2867 LP  0  0  0  0  0  0  0  0  0  0  0  0  # atno 17395 bound_to 11000

$$$$
