AV-unprocessed.smi:1365|AV-procd|sdf|5568|dock5
  -GOLD-   22720 5163D 1   1.00000     0.00000
 Structure written by MMmdl.
 42 43  0  0  0  0  0  0  0  0  2 V2000
  150.9821  141.9850  156.6771 C   0  0  0  0  0  0  0  0  0  0  0  0
  150.6529  140.8591  155.7573 C   0  0  0  0  0  0  0  0  0  0  0  0
  149.4859  140.4358  155.1858 C   0  0  0  0  0  0  0  0  0  0  0  0
  149.8911  139.3017  154.4330 C   0  0  0  0  0  0  0  0  0  0  0  0
  148.9507  138.5531  153.6797 N   0  0  0  0  0  0  0  0  0  0  0  0
  147.6137  138.6899  153.6726 C   0  0  0  0  0  0  0  0  0  0  0  0
  146.9785  139.4968  154.3523 O   0  0  0  0  0  0  0  0  0  0  0  0
  147.0384  137.8322  152.8168 N   0  0  0  0  0  0  0  0  0  0  0  0
  145.6084  137.7681  152.5368 C   0  0  0  0  0  0  0  0  0  0  0  0
  145.1545  136.3414  152.1858 C   0  0  0  0  0  0  0  0  0  0  0  0
  145.5459  135.9458  150.7519 C   0  0  0  0  0  0  0  0  0  0  0  0
  145.3224  134.5030  150.4822 N   0  3  0  0  0  0  0  0  0  0  0  0
  146.2702  133.6362  151.2314 C   0  0  0  0  0  0  0  0  0  0  0  0
  146.1088  132.1588  150.8344 C   0  0  0  0  0  0  0  0  0  0  0  0
  144.6635  131.6890  151.0421 C   0  0  0  0  0  0  0  0  0  0  0  0
  143.7008  132.6139  150.2865 C   0  0  0  0  0  0  0  0  0  0  0  0
  143.9114  134.0816  150.6951 C   0  0  0  0  0  0  0  0  0  0  0  0
  151.1891  139.0580  154.5309 N   0  0  0  0  0  0  0  0  0  0  0  0
  151.6838  140.0544  155.3808 O   0  0  0  0  0  0  0  0  0  0  0  0
  150.2106  142.7544  156.6417 H   0  0  0  0  0  0  0  0  0  0  0  0
  151.9309  142.4465  156.4030 H   0  0  0  0  0  0  0  0  0  0  0  0
  151.0614  141.6316  157.7054 H   0  0  0  0  0  0  0  0  0  0  0  0
  148.5018  140.8672  155.2960 H   0  0  0  0  0  0  0  0  0  0  0  0
  149.3400  137.8540  153.0646 H   0  0  0  0  0  0  0  0  0  0  0  0
  147.6341  137.2002  152.3018 H   0  0  0  0  0  0  0  0  0  0  0  0
  145.0480  138.1496  153.3922 H   0  0  0  0  0  0  0  0  0  0  0  0
  145.3969  138.4398  151.7044 H   0  0  0  0  0  0  0  0  0  0  0  0
  145.5861  135.6469  152.9064 H   0  0  0  0  0  0  0  0  0  0  0  0
  144.0716  136.2637  152.2919 H   0  0  0  0  0  0  0  0  0  0  0  0
  144.9367  136.5366  150.0661 H   0  0  0  0  0  0  0  0  0  0  0  0
  146.5840  136.2087  150.5431 H   0  0  0  0  0  0  0  0  0  0  0  0
  147.2955  133.9483  151.0281 H   0  0  0  0  0  0  0  0  0  0  0  0
  146.1076  133.7582  152.3037 H   0  0  0  0  0  0  0  0  0  0  0  0
  146.3910  132.0272  149.7889 H   0  0  0  0  0  0  0  0  0  0  0  0
  146.7895  131.5384  151.4184 H   0  0  0  0  0  0  0  0  0  0  0  0
  144.5472  130.6604  150.6992 H   0  0  0  0  0  0  0  0  0  0  0  0
  144.4225  131.6938  152.1059 H   0  0  0  0  0  0  0  0  0  0  0  0
  143.8561  132.5069  149.2121 H   0  0  0  0  0  0  0  0  0  0  0  0
  142.6697  132.3172  150.4814 H   0  0  0  0  0  0  0  0  0  0  0  0
  143.6443  134.2183  151.7444 H   0  0  0  0  0  0  0  0  0  0  0  0
  143.2362  134.7093  150.1147 H   0  0  0  0  0  0  0  0  0  0  0  0
  145.5294  134.3610  149.5036 H   0  0  0  0  0  0  0  0  0  0  0  0
  1  2  1  0  0  0  0
  1 20  1  0  0  0  0
  1 21  1  0  0  0  0
  1 22  1  0  0  0  0
  2 19  1  0  0  0  0
  2  3  2  0  0  0  0
  3  4  1  0  0  0  0
  3 23  1  0  0  0  0
  4  5  1  0  0  0  0
  4 18  2  0  0  0  0
  5  6  1  0  0  0  0
  5 24  1  0  0  0  0
  6  7  2  0  0  0  0
  6  8  1  0  0  0  0
  8  9  1  0  0  0  0
  8 25  1  0  0  0  0
  9 10  1  0  0  0  0
  9 26  1  0  0  0  0
  9 27  1  0  0  0  0
 10 11  1  0  0  0  0
 10 28  1  0  0  0  0
 10 29  1  0  0  0  0
 11 12  1  0  0  0  0
 11 30  1  0  0  0  0
 11 31  1  0  0  0  0
 12 17  1  0  0  0  0
 12 13  1  0  0  0  0
 12 42  1  0  0  0  0
 13 14  1  0  0  0  0
 13 32  1  0  0  0  0
 13 33  1  0  0  0  0
 14 15  1  0  0  0  0
 14 34  1  0  0  0  0
 14 35  1  0  0  0  0
 15 16  1  0  0  0  0
 15 36  1  0  0  0  0
 15 37  1  0  0  0  0
 16 17  1  0  0  0  0
 16 38  1  0  0  0  0
 16 39  1  0  0  0  0
 17 40  1  0  0  0  0
 17 41  1  0  0  0  0
 18 19  1  0  0  0  0
M  CHG  1  12   1
M  END
> <s_m_source_file>
AV-unprocessed.smi

> <i_m_source_file_index>
1365

> <i_lp_mmshare_version>
43012

> <i_f3d_flags>
0

> <s_epik_input>
W0NIM11jMVtjSF1jKG5vMSlbTkhdQyg9TylbTkhdW0NIMl1bQ0gyXVtDSDJdTjJbQ0gyXVtDSDJdW0NIMl1bQ0gyXVtDSDJdMg==

> <s_epik_cmdline>
J2VwaWtfcHl0aG9uJywgJy1waCcsICc3LjAnLCAnLXRuJywgJzgnLCAnLW1hJywgJzIwMCcsICctbWV0YWxfYmluZGluZycsICctaW1hZScsICc8aW5maWxlLm1hZT4nLCAnLW9tYWUnLCAnPG91dGZpbGUubWFlPic=

> <r_epik_Ionization_Penalty>
0.000389345

> <r_epik_Ionization_Penalty_Charging>
0.000358942

> <r_epik_Ionization_Penalty_Neutral>
3.04028e-05

> <r_epik_State_Penalty>
0.000218395

> <r_epik_Charging_Adjusted_Penalty>
0.000577337

> <i_epik_Tot_Q>
1

> <i_epik_Tot_abs_Q>
1

> <r_epik_Metal_State_Penalty>
0.0112716

> <b_epik_Metal_Only>
0

> <s_lp_Force_Field>
OPLS_2005

> <r_lp_Energy>
13.5089

> <b_lp_Chiralities_Consistent>
1

> <s_lp_Variant>
AV-unprocessed.smi:1365-1

> <Gold.Version>
5.8.1

> <Gold.Id.Protein>
6NUR|6NUR_protein|mol2

> <Gold.PLP.Fitness>
45.6294

> <Gold.PLP.PLP>
-37.4437

> <Gold.PLP.part.hbond>
-6.0000

> <Gold.PLP.part.metal>
0.0000

> <Gold.PLP.part.buried>
-3.4887

> <Gold.PLP.part.nonpolar>
-28.5441

> <Gold.PLP.part.repulsive>
0.4518

> <Gold.PLP.ligand.clash>
0.0000

> <Gold.PLP.ligand.torsion>
0.3136

> <Gold.PLP.Chemscore.Hbond>
2.9280

> <Gold.PLP.Chemscore.CHOScore>
0.0000

> <Gold.PLP.Chemscore.Metal>
0.0000

> <Gold.Chemscore.Hbonds>
donor molecule, donor type, donor heavy atom, donor atom, acceptor molecule, acceptor atom, score
      L1  H     5    24       P1  7948  0.96
      L1  H     8    25       P1  7948  1.00
      L1  H    12    42       P1  7921  1.00

> <Gold.PLP.Chemscore.Internal.Correction>
0.0288

> <Gold.Rescore>
     Score         DG    S(hbond)    S(metal)    S(lipo)     H(rot)  DE(clash)    DE(int)     intcor
     18.15     -20.03       2.79        0.00      84.61       1.82       0.14       1.75       ----

> <Gold.Chemscore.Fitness>
18.1461

> <Gold.Chemscore.DG>
-20.0344

> <Gold.Chemscore.ZeroCoef>
-5.4800

> <Gold.Chemscore.Hbond>
2.7886

> <Gold.Chemscore.Metal>
0.0000

> <Gold.Chemscore.Lipo>
84.6146

> <Gold.Chemscore.Internal_Hbond>
0.0000

> <Gold.Chemscore.DEClash>
0.1418

> <Gold.Chemscore.DEInternal>
1.7465

> <Gold.Chemscore.Rot>
1.8201

> <Gold.Chemscore.Internal.Correction>
   9.000000E+99

> <Gold.Chemscore.Hbonds>
donor molecule, donor type, donor heavy atom, donor atom, acceptor molecule, acceptor atom, score
      L1  H     5    24       P1  7948  0.83
      L1  H     8    25       P1  7948  1.00
      L1  H    12    42       P1  7921  0.85

> <Gold.Chemscore.Hbond.Weighted>
-9.3138

> <Gold.Chemscore.Metal.Weighted>
-0.0000

> <Gold.Chemscore.Lipo.Weighted>
-9.8999

> <Gold.Chemscore.Internal_Hbond.Weighted>
0.0000

> <Gold.Chemscore.DEClash.Weighted>
0.1418

> <Gold.Chemscore.DEInternal.Weighted>
1.7465

> <Gold.Chemscore.Rot.Weighted>
4.6593

> <Gold.Chemscore.Internal.Correction.Weighted>
   9.000000E+99

> <Gold.Protein.RotatedTorsions>
[ 6907 6896 6895 6894 ] final  164.43 input  -60.11 | X-H torsion
[ 7974 7965 7964 7962 ] final   -8.37 input  175.53 | X-H torsion
[ 8008 7997 7996 7995 ] final  -27.59 input   59.86 | X-H torsion
[ 10167 10162 10161 10158 ] final  -49.11 input  -65.29 | X-H torsion
[ 10718 10713 10712 10709 ] final  -55.51 input   66.30 | X-H torsion
[ 10763 10752 10751 10750 ] final  -11.39 input  -60.55 | X-H torsion
[ 11005 11000 10999 10996 ] final  148.83 input  -57.11 | X-H torsion

> <Gold.Protein.ActiveResidues>
 VAL166  LYS551  ARG553  GLY616  TRP617  ASP618  TYR619  PRO620  LYS621  CYS622 
 ASP623  PHE694  ASN695  SER759  ASP760  ASP761  ALA762  ILE779  LEU786  VAL792 
 PHE793  MET794  SER795  GLU796  ALA797  LYS798  CYS799  TRP800  GLU811  SER814 

> <Gold.Protein.RotatedAtoms>
  151.9099  133.3558  159.3859 H   0  0  0  0  0  0  0  0  0  0  0  0  # atno 6907 bound_to 6896
  150.7060  134.4742  159.5449 H   0  0  0  0  0  0  0  0  0  0  0  0  # atno 6908 bound_to 6896
  152.2346  134.8288  160.0519 H   0  0  0  0  0  0  0  0  0  0  0  0  # atno 6909 bound_to 6896
  146.2282  140.2458  142.8345 H   0  0  0  0  0  0  0  0  0  0  0  0  # atno 7974 bound_to 7965
  154.4370  140.1868  156.0956 H   0  0  0  0  0  0  0  0  0  0  0  0  # atno 8008 bound_to 7997
  156.0332  140.3328  155.7136 H   0  0  0  0  0  0  0  0  0  0  0  0  # atno 8009 bound_to 7997
  155.5809  140.0621  157.2774 H   0  0  0  0  0  0  0  0  0  0  0  0  # atno 8010 bound_to 7997
  140.6700  143.2711  151.4167 H   0  0  0  0  0  0  0  0  0  0  0  0  # atno 10167 bound_to 10162
  156.1362  130.4156  150.0181 H   0  0  0  0  0  0  0  0  0  0  0  0  # atno 10718 bound_to 10713
  153.4831  135.7017  153.5927 H   0  0  0  0  0  0  0  0  0  0  0  0  # atno 10763 bound_to 10752
  153.4131  135.3843  155.2063 H   0  0  0  0  0  0  0  0  0  0  0  0  # atno 10764 bound_to 10752
  154.8720  135.3909  154.4283 H   0  0  0  0  0  0  0  0  0  0  0  0  # atno 10765 bound_to 10752
  140.0993  134.8993  157.1771 H   0  0  0  0  0  0  0  0  0  0  0  0  # atno 11005 bound_to 11000
  144.9449  140.8118  143.5607 LP  0  0  0  0  0  0  0  0  0  0  0  0  # atno 17320 bound_to 7965
  145.2413  139.2071  143.4991 LP  0  0  0  0  0  0  0  0  0  0  0  0  # atno 17321 bound_to 7965
  139.5965  144.1387  152.2149 LP  0  0  0  0  0  0  0  0  0  0  0  0  # atno 17342 bound_to 10162
  140.0758  144.5742  150.7158 LP  0  0  0  0  0  0  0  0  0  0  0  0  # atno 17343 bound_to 10162
  156.8079  130.9314  151.3645 LP  0  0  0  0  0  0  0  0  0  0  0  0  # atno 17370 bound_to 10713
  157.6534  130.8904  149.9680 LP  0  0  0  0  0  0  0  0  0  0  0  0  # atno 17371 bound_to 10713
  140.3243  134.2881  155.7240 LP  0  0  0  0  0  0  0  0  0  0  0  0  # atno 17394 bound_to 11000
  141.2101  133.7730  156.9954 LP  0  0  0  0  0  0  0  0  0  0  0  0  # atno 17395 bound_to 11000

$$$$
