AV-unprocessed.smi:2233|AV-procd|sdf|9041|dock5
  -GOLD-   2272012253D 1   1.00000     0.00000
 Structure written by MMmdl.
 42 43  0  0  0  0  0  0  0  0  1 V2000
  144.3360  134.1054  163.0128 C   0  0  0  0  0  0  0  0  0  0  0  0
  145.4269  134.4812  162.6130 C   0  0  0  0  0  0  0  0  0  0  0  0
  146.7353  134.9485  162.1222 C   0  0  0  0  0  0  0  0  0  0  0  0
  146.6636  136.0452  161.0437 C   0  0  0  0  0  0  0  0  0  0  0  0
  148.0356  136.5265  160.5375 C   0  0  0  0  0  0  0  0  0  0  0  0
  147.9564  137.1397  159.1277 C   0  0  0  0  0  0  0  0  0  0  0  0
  149.2577  137.0039  158.3296 C   0  0  0  0  0  0  0  0  0  0  0  0
  150.1122  136.1864  158.6714 O   0  0  0  0  0  0  0  0  0  0  0  0
  149.3640  137.8135  157.2611 N   0  0  0  0  0  0  0  0  0  0  0  0
  150.4403  137.9296  156.3359 C   0  0  0  0  0  0  0  0  0  0  0  0
  151.6699  137.2418  156.4890 C   0  0  0  0  0  0  0  0  0  0  0  0
  152.7060  137.3647  155.6332 N   0  0  0  0  0  0  0  0  0  0  0  0
  152.5608  138.1925  154.5791 C   0  0  0  0  0  0  0  0  0  0  0  0
  151.3912  138.9371  154.3373 C   0  0  0  0  0  0  0  0  0  0  0  0
  150.3075  138.8117  155.2354 C   0  0  0  0  0  0  0  0  0  0  0  0
  149.1169  139.5308  155.0397 N   0  0  0  0  0  0  0  0  0  0  0  0
  149.2833  140.9778  154.9972 C   0  0  0  0  0  0  0  0  0  0  0  0
  147.9047  141.6576  154.9389 C   0  0  0  0  0  0  0  0  0  0  0  0
  147.1774  141.1627  153.8176 O   0  0  0  0  0  0  0  0  0  0  0  0
  146.9585  139.7563  153.8976 C   0  0  0  0  0  0  0  0  0  0  0  0
  148.3107  139.0230  153.9380 C   0  0  0  0  0  0  0  0  0  0  0  0
  143.3809  133.7814  163.3607 H   0  0  0  0  0  0  0  0  0  0  0  0
  147.3067  135.3005  162.9815 H   0  0  0  0  0  0  0  0  0  0  0  0
  147.2619  134.0784  161.7290 H   0  0  0  0  0  0  0  0  0  0  0  0
  146.0913  135.6606  160.1986 H   0  0  0  0  0  0  0  0  0  0  0  0
  146.0974  136.8956  161.4263 H   0  0  0  0  0  0  0  0  0  0  0  0
  148.4435  137.2639  161.2301 H   0  0  0  0  0  0  0  0  0  0  0  0
  148.7319  135.6866  160.5331 H   0  0  0  0  0  0  0  0  0  0  0  0
  147.1459  136.6665  158.5713 H   0  0  0  0  0  0  0  0  0  0  0  0
  147.7098  138.1997  159.1983 H   0  0  0  0  0  0  0  0  0  0  0  0
  148.5461  138.3631  157.0395 H   0  0  0  0  0  0  0  0  0  0  0  0
  151.8560  136.5891  157.3277 H   0  0  0  0  0  0  0  0  0  0  0  0
  153.4047  138.2683  153.9095 H   0  0  0  0  0  0  0  0  0  0  0  0
  151.3329  139.5867  153.4764 H   0  0  0  0  0  0  0  0  0  0  0  0
  149.8318  141.3135  155.8780 H   0  0  0  0  0  0  0  0  0  0  0  0
  149.8694  141.2609  154.1221 H   0  0  0  0  0  0  0  0  0  0  0  0
  147.3436  141.4786  155.8576 H   0  0  0  0  0  0  0  0  0  0  0  0
  148.0204  142.7369  154.8406 H   0  0  0  0  0  0  0  0  0  0  0  0
  146.3627  139.5207  154.7809 H   0  0  0  0  0  0  0  0  0  0  0  0
  146.3825  139.4361  153.0294 H   0  0  0  0  0  0  0  0  0  0  0  0
  148.8414  139.1697  152.9963 H   0  0  0  0  0  0  0  0  0  0  0  0
  148.1518  137.9503  154.0565 H   0  0  0  0  0  0  0  0  0  0  0  0
  1  2  3  0  0  0  0
  1 22  1  0  0  0  0
  2  3  1  0  0  0  0
  3  4  1  0  0  0  0
  3 23  1  0  0  0  0
  3 24  1  0  0  0  0
  4  5  1  0  0  0  0
  4 25  1  0  0  0  0
  4 26  1  0  0  0  0
  5  6  1  0  0  0  0
  5 27  1  0  0  0  0
  5 28  1  0  0  0  0
  6  7  1  0  0  0  0
  6 29  1  0  0  0  0
  6 30  1  0  0  0  0
  7  8  2  0  0  0  0
  7  9  1  0  0  0  0
  9 10  1  0  0  0  0
  9 31  1  0  0  0  0
 10 15  1  0  0  0  0
 10 11  2  0  0  0  0
 11 12  1  0  0  0  0
 11 32  1  0  0  0  0
 12 13  2  0  0  0  0
 13 14  1  0  0  0  0
 13 33  1  0  0  0  0
 14 15  2  0  0  0  0
 14 34  1  0  0  0  0
 15 16  1  0  0  0  0
 16 21  1  0  0  0  0
 16 17  1  0  0  0  0
 17 18  1  0  0  0  0
 17 35  1  0  0  0  0
 17 36  1  0  0  0  0
 18 19  1  0  0  0  0
 18 37  1  0  0  0  0
 18 38  1  0  0  0  0
 19 20  1  0  0  0  0
 20 21  1  0  0  0  0
 20 39  1  0  0  0  0
 20 40  1  0  0  0  0
 21 41  1  0  0  0  0
 21 42  1  0  0  0  0
M  END
> <s_m_source_file>
AV-unprocessed.smi

> <i_m_source_file_index>
2233

> <i_lp_mmshare_version>
43012

> <i_f3d_flags>
0

> <s_epik_input>
W0NIXSNDW0NIMl1bQ0gyXVtDSDJdW0NIMl1DKD1PKVtOSF1jMVtjSF1uW2NIXVtjSF1jMU4yW0NIMl1bQ0gyXU9bQ0gyXVtDSDJdMg==

> <s_epik_cmdline>
J2VwaWtfcHl0aG9uJywgJy1waCcsICc3LjAnLCAnLXRuJywgJzgnLCAnLW1hJywgJzIwMCcsICctbWV0YWxfYmluZGluZycsICctaW1hZScsICc8aW5maWxlLm1hZT4nLCAnLW9tYWUnLCAnPG91dGZpbGUubWFlPic=

> <r_lp_tautomer_probability>
1

> <r_epik_Ionization_Penalty>
0.8765

> <r_epik_Ionization_Penalty_Charging>
0

> <r_epik_Ionization_Penalty_Neutral>
0.8765

> <r_epik_State_Penalty>
0.914306

> <r_epik_Charging_Adjusted_Penalty>
0.914306

> <i_epik_Tot_Q>
0

> <i_epik_Tot_abs_Q>
0

> <r_epik_Metal_State_Penalty>
0.361009

> <b_epik_Metal_Only>
0

> <s_lp_Force_Field>
OPLS_2005

> <r_lp_Energy>
23.7364

> <b_lp_Chiralities_Consistent>
1

> <s_lp_Variant>
AV-unprocessed.smi:2233-2

> <Gold.Version>
5.8.1

> <Gold.Id.Protein>
6NUR|6NUR_protein|mol2

> <Gold.PLP.Fitness>
36.7830

> <Gold.PLP.PLP>
-33.1957

> <Gold.PLP.part.hbond>
-2.0000

> <Gold.PLP.part.metal>
0.0000

> <Gold.PLP.part.buried>
-3.6161

> <Gold.PLP.part.nonpolar>
-27.8917

> <Gold.PLP.part.repulsive>
0.2679

> <Gold.PLP.ligand.clash>
0.0000

> <Gold.PLP.ligand.torsion>
0.6935

> <Gold.PLP.Chemscore.Hbond>
1.6080

> <Gold.PLP.Chemscore.CHOScore>
0.0000

> <Gold.PLP.Chemscore.Metal>
0.0000

> <Gold.Chemscore.Hbonds>
donor molecule, donor type, donor heavy atom, donor atom, acceptor molecule, acceptor atom, score
      P1  H  6896  6907       L1     8  1.00
      P1  H 10752 10765       L1    12  0.59

> <Gold.PLP.Chemscore.Internal.Correction>
0.1502

> <Gold.Rescore>
     Score         DG    S(hbond)    S(metal)    S(lipo)     H(rot)  DE(clash)    DE(int)     intcor
     14.85     -16.84       1.27        0.00      93.52       1.49       0.00       1.99       ----

> <Gold.Chemscore.Fitness>
14.8473

> <Gold.Chemscore.DG>
-16.8412

> <Gold.Chemscore.ZeroCoef>
-5.4800

> <Gold.Chemscore.Hbond>
1.2664

> <Gold.Chemscore.Metal>
0.0000

> <Gold.Chemscore.Lipo>
93.5161

> <Gold.Chemscore.Internal_Hbond>
0.0000

> <Gold.Chemscore.DEClash>
0.0004

> <Gold.Chemscore.DEInternal>
1.9934

> <Gold.Chemscore.Rot>
1.4882

> <Gold.Chemscore.Internal.Correction>
   9.000000E+99

> <Gold.Chemscore.Hbonds>
donor molecule, donor type, donor heavy atom, donor atom, acceptor molecule, acceptor atom, score
      P1  H  6896  6907       L1     8  0.98
      P1  H 10752 10765       L1    12  0.19

> <Gold.Chemscore.Hbond.Weighted>
-4.2297

> <Gold.Chemscore.Metal.Weighted>
-0.0000

> <Gold.Chemscore.Lipo.Weighted>
-10.9414

> <Gold.Chemscore.Internal_Hbond.Weighted>
0.0000

> <Gold.Chemscore.DEClash.Weighted>
0.0004

> <Gold.Chemscore.DEInternal.Weighted>
1.9934

> <Gold.Chemscore.Rot.Weighted>
3.8099

> <Gold.Chemscore.Internal.Correction.Weighted>
   9.000000E+99

> <Gold.Protein.RotatedTorsions>
[ 6907 6896 6895 6894 ] final  -55.07 input  -60.11 | X-H torsion
[ 7974 7965 7964 7962 ] final -136.44 input  175.53 | X-H torsion
[ 8008 7997 7996 7995 ] final  175.27 input   59.86 | X-H torsion
[ 10167 10162 10161 10158 ] final -138.50 input  -65.29 | X-H torsion
[ 10718 10713 10712 10709 ] final  125.56 input   66.30 | X-H torsion
[ 10763 10752 10751 10750 ] final -162.16 input  -60.55 | X-H torsion
[ 11005 11000 10999 10996 ] final -127.15 input  -57.11 | X-H torsion

> <Gold.Protein.ActiveResidues>
 VAL166  LYS551  ARG553  GLY616  TRP617  ASP618  TYR619  PRO620  LYS621  CYS622 
 ASP623  PHE694  ASN695  SER759  ASP760  ASP761  ALA762  ILE779  LEU786  VAL792 
 PHE793  MET794  SER795  GLU796  ALA797  LYS798  CYS799  TRP800  GLU811  SER814 

> <Gold.Protein.RotatedAtoms>
  150.8283  134.7524  159.6831 H   0  0  0  0  0  0  0  0  0  0  0  0  # atno 6907 bound_to 6896
  152.4391  134.5624  159.9908 H   0  0  0  0  0  0  0  0  0  0  0  0  # atno 6908 bound_to 6896
  151.5791  133.3342  159.3041 H   0  0  0  0  0  0  0  0  0  0  0  0  # atno 6909 bound_to 6896
  144.8927  140.6664  143.5135 H   0  0  0  0  0  0  0  0  0  0  0  0  # atno 7974 bound_to 7965
  156.0888  140.1413  156.9619 H   0  0  0  0  0  0  0  0  0  0  0  0  # atno 8008 bound_to 7997
  154.4629  140.0936  156.6990 H   0  0  0  0  0  0  0  0  0  0  0  0  # atno 8009 bound_to 7997
  155.4954  140.3449  155.4364 H   0  0  0  0  0  0  0  0  0  0  0  0  # atno 8010 bound_to 7997
  139.8472  143.7245  152.2660 H   0  0  0  0  0  0  0  0  0  0  0  0  # atno 10167 bound_to 10162
  157.5493  131.1094  150.8729 H   0  0  0  0  0  0  0  0  0  0  0  0  # atno 10718 bound_to 10713
  154.7239  135.3031  154.9002 H   0  0  0  0  0  0  0  0  0  0  0  0  # atno 10763 bound_to 10752
  153.9866  135.6724  153.4756 H   0  0  0  0  0  0  0  0  0  0  0  0  # atno 10764 bound_to 10752
  153.0858  135.4985  154.8512 H   0  0  0  0  0  0  0  0  0  0  0  0  # atno 10765 bound_to 10752
  140.9623  134.0919  157.3955 H   0  0  0  0  0  0  0  0  0  0  0  0  # atno 11005 bound_to 11000
  145.3754  139.1649  143.4309 LP  0  0  0  0  0  0  0  0  0  0  0  0  # atno 17320 bound_to 7965
  146.3063  140.3830  142.8686 LP  0  0  0  0  0  0  0  0  0  0  0  0  # atno 17321 bound_to 7965
  139.7501  144.7536  151.0520 LP  0  0  0  0  0  0  0  0  0  0  0  0  # atno 17342 bound_to 10162
  140.7791  143.4870  150.9942 LP  0  0  0  0  0  0  0  0  0  0  0  0  # atno 17343 bound_to 10162
  156.9259  130.5332  149.5279 LP  0  0  0  0  0  0  0  0  0  0  0  0  # atno 17370 bound_to 10713
  156.0563  130.5623  150.9097 LP  0  0  0  0  0  0  0  0  0  0  0  0  # atno 17371 bound_to 10713
  139.8882  135.0096  156.6608 LP  0  0  0  0  0  0  0  0  0  0  0  0  # atno 17394 bound_to 11000
  140.7449  133.8946  155.8305 LP  0  0  0  0  0  0  0  0  0  0  0  0  # atno 17395 bound_to 11000

$$$$
