AV-unprocessed.smi:21|AV-procd|sdf|153|dock3
  -GOLD-   2262015373D 1   1.00000     0.00000
 Structure written by MMmdl.
 61 64  0  0  0  0  0  0  0  0  1 V2000
  152.5575  144.8488  159.2426 C   0  0  0  0  0  0  0  0  0  0  0  0
  152.2884  144.0076  158.1322 O   0  0  0  0  0  0  0  0  0  0  0  0
  151.5302  142.8536  158.4686 C   0  0  1  0  0  0  0  0  0  0  0  0
  150.8137  142.2592  157.2439 C   0  0  0  0  0  0  0  0  0  0  0  0
  151.1727  140.7699  157.2882 C   0  0  1  0  0  0  0  0  0  0  0  0
  151.0381  140.0688  155.9195 C   0  0  0  0  0  0  0  0  0  0  0  0
  151.6745  138.7517  155.8881 N   0  0  0  0  0  0  0  0  0  0  0  0
  152.3678  138.3635  154.6618 C   0  0  0  0  0  0  0  0  0  0  0  0
  151.0380  137.7702  156.5807 C   0  0  0  0  0  0  0  0  0  0  0  0
  150.6412  138.0008  157.8615 N   0  0  0  0  0  0  0  0  0  0  0  0
  150.0205  137.0471  158.5610 C   0  0  0  0  0  0  0  0  0  0  0  0
  149.6949  135.8117  158.1789 N   0  0  0  0  0  0  0  0  0  0  0  0
  150.0759  135.5732  156.8921 C   0  0  0  0  0  0  0  0  0  0  0  0
  150.7517  136.4866  156.0323 C   0  0  0  0  0  0  0  0  0  0  0  0
  150.9750  135.8897  154.7981 N   0  0  0  0  0  0  0  0  0  0  0  0
  150.4735  134.6927  154.9238 C   0  0  0  0  0  0  0  0  0  0  0  0
  149.8941  134.4223  156.1431 N   0  0  0  0  0  0  0  0  0  0  0  0
  149.2570  133.1738  156.5398 C   0  0  0  0  0  0  0  0  0  0  0  0
  149.3429  132.0409  155.4791 C   0  0  2  0  0  0  0  0  0  0  0  0
  148.3266  130.9041  155.7435 C   0  0  0  0  0  0  0  0  0  0  0  0
  147.0066  131.4050  155.7936 O   0  0  0  0  0  0  0  0  0  0  0  0
  150.7829  131.4844  155.3286 C   0  0  2  0  0  0  0  0  0  0  0  0
  150.8877  130.2129  154.5018 C   0  0  0  0  0  0  0  0  0  0  0  0
  152.2596  129.6811  154.8996 C   0  0  0  0  0  0  0  0  0  0  0  0
  152.4409  130.0701  156.2560 O   0  0  0  0  0  0  0  0  0  0  0  0
  151.4324  131.0028  156.6313 C   0  0  0  0  0  0  0  0  0  0  0  0
  152.5135  140.7508  157.8488 N   0  0  0  0  0  0  0  0  0  0  0  0
  152.9420  139.4383  158.3140 C   0  0  0  0  0  0  0  0  0  0  0  0
  152.4669  141.7263  158.9245 C   0  0  0  0  0  0  0  0  0  0  0  0
  150.8259  143.0794  159.2714 H   0  0  0  0  0  0  0  0  0  0  0  0
  150.5028  140.2887  158.0021 H   0  0  0  0  0  0  0  0  0  0  0  0
  153.1484  145.7049  158.9170 H   0  0  0  0  0  0  0  0  0  0  0  0
  153.1278  144.3202  160.0075 H   0  0  0  0  0  0  0  0  0  0  0  0
  151.6397  145.2292  159.6919 H   0  0  0  0  0  0  0  0  0  0  0  0
  149.7372  142.4321  157.2609 H   0  0  0  0  0  0  0  0  0  0  0  0
  151.2111  142.7075  156.3337 H   0  0  0  0  0  0  0  0  0  0  0  0
  149.9858  140.0143  155.6404 H   0  0  0  0  0  0  0  0  0  0  0  0
  151.5150  140.6737  155.1482 H   0  0  0  0  0  0  0  0  0  0  0  0
  152.9252  137.4364  154.8025 H   0  0  0  0  0  0  0  0  0  0  0  0
  153.0835  139.1266  154.3580 H   0  0  0  0  0  0  0  0  0  0  0  0
  151.6572  138.2206  153.8470 H   0  0  0  0  0  0  0  0  0  0  0  0
  149.7445  137.3122  159.5709 H   0  0  0  0  0  0  0  0  0  0  0  0
  150.5037  133.9722  154.1194 H   0  0  0  0  0  0  0  0  0  0  0  0
  149.7268  132.8433  157.4668 H   0  0  0  0  0  0  0  0  0  0  0  0
  148.2203  133.3821  156.8038 H   0  0  0  0  0  0  0  0  0  0  0  0
  149.0751  132.4875  154.5203 H   0  0  0  0  0  0  0  0  0  0  0  0
  148.3541  130.1639  154.9445 H   0  0  0  0  0  0  0  0  0  0  0  0
  148.5527  130.3729  156.6680 H   0  0  0  0  0  0  0  0  0  0  0  0
  146.6384  131.1977  156.6390 H   0  0  0  0  0  0  0  0  0  0  0  0
  151.4292  132.2461  154.8906 H   0  0  0  0  0  0  0  0  0  0  0  0
  150.1140  129.5023  154.7963 H   0  0  0  0  0  0  0  0  0  0  0  0
  150.8037  130.3750  153.4282 H   0  0  0  0  0  0  0  0  0  0  0  0
  152.3396  128.6007  154.7794 H   0  0  0  0  0  0  0  0  0  0  0  0
  153.0385  130.1496  154.2965 H   0  0  0  0  0  0  0  0  0  0  0  0
  151.8586  131.8198  157.2138 H   0  0  0  0  0  0  0  0  0  0  0  0
  150.7051  130.4845  157.2580 H   0  0  0  0  0  0  0  0  0  0  0  0
  153.9304  139.4976  158.7706 H   0  0  0  0  0  0  0  0  0  0  0  0
  153.0051  138.7310  157.4875 H   0  0  0  0  0  0  0  0  0  0  0  0
  152.2505  139.0350  159.0552 H   0  0  0  0  0  0  0  0  0  0  0  0
  153.4649  142.0852  159.1785 H   0  0  0  0  0  0  0  0  0  0  0  0
  152.0481  141.2683  159.8222 H   0  0  0  0  0  0  0  0  0  0  0  0
  1  2  1  0  0  0  0
  1 32  1  0  0  0  0
  1 33  1  0  0  0  0
  1 34  1  0  0  0  0
  2  3  1  0  0  0  0
  3 30  1  0  0  0  0
  3 29  1  0  0  0  0
  3  4  1  0  0  0  0
  4  5  1  0  0  0  0
  4 35  1  0  0  0  0
  4 36  1  0  0  0  0
  5 31  1  0  0  0  0
  5  6  1  0  0  0  0
  5 27  1  0  0  0  0
  6  7  1  0  0  0  0
  6 37  1  0  0  0  0
  6 38  1  0  0  0  0
  7  8  1  0  0  0  0
  7  9  1  0  0  0  0
  8 39  1  0  0  0  0
  8 40  1  0  0  0  0
  8 41  1  0  0  0  0
  9 14  1  0  0  0  0
  9 10  2  0  0  0  0
 10 11  1  0  0  0  0
 11 12  2  0  0  0  0
 11 42  1  0  0  0  0
 12 13  1  0  0  0  0
 13 17  1  0  0  0  0
 13 14  2  0  0  0  0
 14 15  1  0  0  0  0
 15 16  2  0  0  0  0
 16 17  1  0  0  0  0
 16 43  1  0  0  0  0
 17 18  1  0  0  0  0
 18 19  1  0  0  0  0
 18 44  1  0  0  0  0
 18 45  1  0  0  0  0
 19 20  1  0  0  0  0
 19 22  1  0  0  0  0
 19 46  1  0  0  0  0
 20 21  1  0  0  0  0
 20 47  1  0  0  0  0
 20 48  1  0  0  0  0
 21 49  1  0  0  0  0
 22 26  1  0  0  0  0
 22 23  1  0  0  0  0
 22 50  1  0  0  0  0
 23 24  1  0  0  0  0
 23 51  1  0  0  0  0
 23 52  1  0  0  0  0
 24 25  1  0  0  0  0
 24 53  1  0  0  0  0
 24 54  1  0  0  0  0
 25 26  1  0  0  0  0
 26 55  1  0  0  0  0
 26 56  1  0  0  0  0
 27 28  1  0  0  0  0
 27 29  1  0  0  0  0
 28 57  1  0  0  0  0
 28 58  1  0  0  0  0
 28 59  1  0  0  0  0
 29 60  1  0  0  0  0
 29 61  1  0  0  0  0
M  END
> <s_m_source_file>
AV-unprocessed.smi

> <i_m_source_file_index>
21

> <i_lp_mmshare_version>
43012

> <i_f3d_flags>
0

> <s_epik_input>
W0NIM11PW0NASF0xW0NIMl1bQ0BIXShOKFtDSDNdKVtDSDJdMSlbQ0gyXU4oW0NIM10pYyhuW2NIXW4yKWMoYzIzKW5bY0hdbjNbQ0gyXVtDQEhdKFtDSDJdW09IXSlbQ0BASF00W0NIMl1bQ0gyXU9bQ0gyXTQ=

> <s_epik_cmdline>
J2VwaWtfcHl0aG9uJywgJy1waCcsICc3LjAnLCAnLXRuJywgJzgnLCAnLW1hJywgJzIwMCcsICctbWV0YWxfYmluZGluZycsICctaW1hZScsICc8aW5maWxlLm1hZT4nLCAnLW9tYWUnLCAnPG91dGZpbGUubWFlPic=

> <r_lp_tautomer_probability>
1

> <r_epik_Ionization_Penalty>
2.17574

> <r_epik_Ionization_Penalty_Charging>
0

> <r_epik_Ionization_Penalty_Neutral>
2.17574

> <r_epik_State_Penalty>
2.31336

> <r_epik_Charging_Adjusted_Penalty>
2.31336

> <i_epik_Tot_Q>
0

> <i_epik_Tot_abs_Q>
0

> <r_epik_Metal_State_Penalty>
2.31025

> <b_epik_Metal_Only>
0

> <s_lp_Force_Field>
OPLS_2005

> <r_lp_Energy>
70.2261

> <b_lp_Chiralities_Consistent>
1

> <s_lp_Variant>
AV-unprocessed.smi:21-33

> <Gold.Version>
5.8.1

> <Gold.Id.Protein>
6NUR|6NUR_protein|mol2

> <Gold.PLP.Fitness>
46.0838

> <Gold.PLP.PLP>
-41.9198

> <Gold.PLP.part.hbond>
-2.2345

> <Gold.PLP.part.metal>
0.0000

> <Gold.PLP.part.buried>
-6.1467

> <Gold.PLP.part.nonpolar>
-33.9332

> <Gold.PLP.part.repulsive>
0.2407

> <Gold.PLP.ligand.clash>
0.0000

> <Gold.PLP.ligand.torsion>
1.3197

> <Gold.PLP.Chemscore.Hbond>
2.0000

> <Gold.PLP.Chemscore.CHOScore>
0.0000

> <Gold.PLP.Chemscore.Metal>
0.0000

> <Gold.Chemscore.Hbonds>
donor molecule, donor type, donor heavy atom, donor atom, acceptor molecule, acceptor atom, score
      P1  H  6896  6907       L1    12  0.88
      P1  H 10752 10765       L1    15  1.00

> <Gold.PLP.Chemscore.Internal.Correction>
0.8034

> <Gold.Rescore>
     Score         DG    S(hbond)    S(metal)    S(lipo)     H(rot)  DE(clash)    DE(int)     intcor
      5.73     -12.25       0.88        0.00      98.56       3.00       0.03       6.49       ----

> <Gold.Chemscore.Fitness>
5.7331

> <Gold.Chemscore.DG>
-12.2478

> <Gold.Chemscore.ZeroCoef>
-5.4800

> <Gold.Chemscore.Hbond>
0.8754

> <Gold.Chemscore.Metal>
0.0000

> <Gold.Chemscore.Lipo>
98.5639

> <Gold.Chemscore.Internal_Hbond>
0.0000

> <Gold.Chemscore.DEClash>
0.0291

> <Gold.Chemscore.DEInternal>
6.4856

> <Gold.Chemscore.Rot>
3.0031

> <Gold.Chemscore.Internal.Correction>
   9.000000E+99

> <Gold.Chemscore.Hbonds>
donor molecule, donor type, donor heavy atom, donor atom, acceptor molecule, acceptor atom, score
      P1  H  6896  6907       L1    12  0.31
      P1  H 10752 10765       L1    15  0.40

> <Gold.Chemscore.Hbond.Weighted>
-2.9238

> <Gold.Chemscore.Metal.Weighted>
-0.0000

> <Gold.Chemscore.Lipo.Weighted>
-11.5320

> <Gold.Chemscore.Internal_Hbond.Weighted>
0.0000

> <Gold.Chemscore.DEClash.Weighted>
0.0291

> <Gold.Chemscore.DEInternal.Weighted>
6.4856

> <Gold.Chemscore.Rot.Weighted>
7.6880

> <Gold.Chemscore.Internal.Correction.Weighted>
   9.000000E+99

> <Gold.Protein.RotatedTorsions>
[ 6907 6896 6895 6894 ] final  -69.71 input  -60.11 | X-H torsion
[ 7974 7965 7964 7962 ] final  -52.65 input  175.53 | X-H torsion
[ 8008 7997 7996 7995 ] final   86.06 input   59.86 | X-H torsion
[ 10167 10162 10161 10158 ] final  -23.21 input  -65.29 | X-H torsion
[ 10718 10713 10712 10709 ] final  163.31 input   66.30 | X-H torsion
[ 10763 10752 10751 10750 ] final  170.17 input  -60.55 | X-H torsion
[ 11005 11000 10999 10996 ] final  165.78 input  -57.11 | X-H torsion

> <Gold.Protein.ActiveResidues>
 VAL166  LYS551  ARG553  GLY616  TRP617  ASP618  TYR619  PRO620  LYS621  CYS622 
 ASP623  PHE694  ASN695  SER759  ASP760  ASP761  ALA762  ILE779  LEU786  VAL792 
 PHE793  MET794  SER795  GLU796  ALA797  LYS798  CYS799  TRP800  GLU811  SER814 

> <Gold.Protein.RotatedAtoms>
  150.7292  134.5557  159.5816 H   0  0  0  0  0  0  0  0  0  0  0  0  # atno 6907 bound_to 6896
  152.3033  134.7582  160.0362 H   0  0  0  0  0  0  0  0  0  0  0  0  # atno 6908 bound_to 6896
  151.8155  133.3352  159.3605 H   0  0  0  0  0  0  0  0  0  0  0  0  # atno 6909 bound_to 6896
  145.9056  140.7958  142.9721 H   0  0  0  0  0  0  0  0  0  0  0  0  # atno 7974 bound_to 7965
  155.9579  140.3396  155.6465 H   0  0  0  0  0  0  0  0  0  0  0  0  # atno 8008 bound_to 7997
  155.6835  140.0740  157.2494 H   0  0  0  0  0  0  0  0  0  0  0  0  # atno 8009 bound_to 7997
  154.4136  140.1670  156.1996 H   0  0  0  0  0  0  0  0  0  0  0  0  # atno 8010 bound_to 7997
  140.7287  143.4464  151.0581 H   0  0  0  0  0  0  0  0  0  0  0  0  # atno 10167 bound_to 10162
  157.1104  131.0466  151.2460 H   0  0  0  0  0  0  0  0  0  0  0  0  # atno 10718 bound_to 10713
  154.3938  135.2754  155.2139 H   0  0  0  0  0  0  0  0  0  0  0  0  # atno 10763 bound_to 10752
  154.4194  135.6003  153.6004 H   0  0  0  0  0  0  0  0  0  0  0  0  # atno 10764 bound_to 10752
  152.9831  135.5969  154.4196 H   0  0  0  0  0  0  0  0  0  0  0  0  # atno 10765 bound_to 10752
  140.2596  134.7912  157.3578 H   0  0  0  0  0  0  0  0  0  0  0  0  # atno 11005 bound_to 11000
  144.6739  140.1745  143.7411 LP  0  0  0  0  0  0  0  0  0  0  0  0  # atno 17320 bound_to 7965
  145.8737  139.2285  143.1646 LP  0  0  0  0  0  0  0  0  0  0  0  0  # atno 17321 bound_to 7965
  139.8136  143.7917  152.3173 LP  0  0  0  0  0  0  0  0  0  0  0  0  # atno 17342 bound_to 10162
  139.7975  144.7387  150.9870 LP  0  0  0  0  0  0  0  0  0  0  0  0  # atno 17343 bound_to 10162
  157.4564  130.7628  149.7197 LP  0  0  0  0  0  0  0  0  0  0  0  0  # atno 17370 bound_to 10713
  155.9852  130.3985  150.3274 LP  0  0  0  0  0  0  0  0  0  0  0  0  # atno 17371 bound_to 10713
  140.1477  134.4889  155.7984 LP  0  0  0  0  0  0  0  0  0  0  0  0  # atno 17394 bound_to 11000
  141.2192  133.6850  156.7324 LP  0  0  0  0  0  0  0  0  0  0  0  0  # atno 17395 bound_to 11000

$$$$
