AV-unprocessed.smi:1990|AV-procd|sdf|8064|dock4
  -GOLD-   2272010273D 1   1.00000     0.00000
 Structure written by MMmdl.
 46 47  0  0  0  0  0  0  0  0  1 V2000
  146.4929  128.7033  152.4412 C   0  0  0  0  0  0  0  0  0  0  0  0
  146.1326  130.1920  152.4002 C   0  0  1  0  0  0  0  0  0  0  0  0
  147.2510  131.0748  152.9857 C   0  0  0  0  0  0  0  0  0  0  0  0
  146.9319  132.4900  152.8186 N   0  0  0  0  0  0  0  0  0  0  0  0
  147.6737  133.4472  153.5488 C   0  0  0  0  0  0  0  0  0  0  0  0
  149.0858  133.3841  153.6639 C   0  0  0  0  0  0  0  0  0  0  0  0
  149.7634  134.3660  154.4125 C   0  0  0  0  0  0  0  0  0  0  0  0
  149.0171  135.3968  155.0287 C   0  0  0  0  0  0  0  0  0  0  0  0
  149.5715  136.4376  155.8221 N   0  0  0  0  0  0  0  0  0  0  0  0
  150.8461  136.8646  155.8947 C   0  0  0  0  0  0  0  0  0  0  0  0
  151.7800  136.3913  155.2480 O   0  0  0  0  0  0  0  0  0  0  0  0
  151.0979  138.0361  156.8541 C   0  0  1  0  0  0  0  0  0  0  0  0
  152.0575  137.6472  157.9905 C   0  0  0  0  0  0  0  0  0  0  0  0
  151.7784  139.4881  155.9225 S   0  0  0  0  0  0  0  0  0  0  0  0
  151.8664  140.8062  157.2070 C   0  0  0  0  0  0  0  0  0  0  0  0
  153.1509  139.1588  155.5086 O   0  0  0  0  0  0  0  0  0  0  0  0
  150.8008  139.9064  154.9061 O   0  0  0  0  0  0  0  0  0  0  0  0
  147.6181  135.3687  154.8703 C   0  0  0  0  0  0  0  0  0  0  0  0
  146.9656  134.4312  154.1537 N   0  0  0  0  0  0  0  0  0  0  0  0
  146.5538  132.8536  151.4529 C   0  0  0  0  0  0  0  0  0  0  0  0
  145.4622  131.9080  150.9179 C   0  0  1  0  0  0  0  0  0  0  0  0
  145.1445  132.1758  149.4430 C   0  0  0  0  0  0  0  0  0  0  0  0
  145.9049  130.5601  151.0434 O   0  0  0  0  0  0  0  0  0  0  0  0
  146.6698  128.3703  153.4641 H   0  0  0  0  0  0  0  0  0  0  0  0
  147.3934  128.4991  151.8614 H   0  0  0  0  0  0  0  0  0  0  0  0
  145.6862  128.0965  152.0291 H   0  0  0  0  0  0  0  0  0  0  0  0
  145.2136  130.3398  152.9702 H   0  0  0  0  0  0  0  0  0  0  0  0
  147.3646  130.8350  154.0432 H   0  0  0  0  0  0  0  0  0  0  0  0
  148.2009  130.8617  152.4934 H   0  0  0  0  0  0  0  0  0  0  0  0
  149.6681  132.6083  153.1908 H   0  0  0  0  0  0  0  0  0  0  0  0
  150.8357  134.2967  154.5036 H   0  0  0  0  0  0  0  0  0  0  0  0
  148.9019  136.9612  156.3674 H   0  0  0  0  0  0  0  0  0  0  0  0
  150.1516  138.3535  157.2937 H   0  0  0  0  0  0  0  0  0  0  0  0
  151.6928  136.7767  158.5369 H   0  0  0  0  0  0  0  0  0  0  0  0
  152.1617  138.4628  158.7062 H   0  0  0  0  0  0  0  0  0  0  0  0
  153.0537  137.4137  157.6124 H   0  0  0  0  0  0  0  0  0  0  0  0
  152.3419  141.6899  156.7817 H   0  0  0  0  0  0  0  0  0  0  0  0
  152.4536  140.4544  158.0548 H   0  0  0  0  0  0  0  0  0  0  0  0
  150.8627  141.0698  157.5395 H   0  0  0  0  0  0  0  0  0  0  0  0
  146.9989  136.1251  155.3303 H   0  0  0  0  0  0  0  0  0  0  0  0
  146.1828  133.8770  151.3968 H   0  0  0  0  0  0  0  0  0  0  0  0
  147.4413  132.8014  150.8211 H   0  0  0  0  0  0  0  0  0  0  0  0
  144.5468  132.0402  151.4974 H   0  0  0  0  0  0  0  0  0  0  0  0
  144.7875  133.1958  149.2980 H   0  0  0  0  0  0  0  0  0  0  0  0
  144.3703  131.4986  149.0816 H   0  0  0  0  0  0  0  0  0  0  0  0
  146.0268  132.0373  148.8174 H   0  0  0  0  0  0  0  0  0  0  0  0
  1  2  1  0  0  0  0
  1 24  1  0  0  0  0
  1 25  1  0  0  0  0
  1 26  1  0  0  0  0
  2 23  1  0  0  0  0
  2  3  1  0  0  0  0
  2 27  1  0  0  0  0
  3  4  1  0  0  0  0
  3 28  1  0  0  0  0
  3 29  1  0  0  0  0
  4  5  1  0  0  0  0
  4 20  1  0  0  0  0
  5 19  1  0  0  0  0
  5  6  2  0  0  0  0
  6  7  1  0  0  0  0
  6 30  1  0  0  0  0
  7  8  2  0  0  0  0
  7 31  1  0  0  0  0
  8  9  1  0  0  0  0
  8 18  1  0  0  0  0
  9 10  1  0  0  0  0
  9 32  1  0  0  0  0
 10 11  2  0  0  0  0
 10 12  1  0  0  0  0
 12 13  1  0  0  0  0
 12 14  1  0  0  0  0
 12 33  1  0  0  0  0
 13 34  1  0  0  0  0
 13 35  1  0  0  0  0
 13 36  1  0  0  0  0
 14 15  1  0  0  0  0
 14 16  2  0  0  0  0
 14 17  2  0  0  0  0
 15 37  1  0  0  0  0
 15 38  1  0  0  0  0
 15 39  1  0  0  0  0
 18 19  2  0  0  0  0
 18 40  1  0  0  0  0
 20 21  1  0  0  0  0
 20 41  1  0  0  0  0
 20 42  1  0  0  0  0
 21 22  1  0  0  0  0
 21 23  1  0  0  0  0
 21 43  1  0  0  0  0
 22 44  1  0  0  0  0
 22 45  1  0  0  0  0
 22 46  1  0  0  0  0
M  END
> <s_m_source_file>
AV-unprocessed.smi

> <i_m_source_file_index>
1990

> <i_lp_mmshare_version>
43012

> <i_f3d_flags>
0

> <s_epik_input>
W0NIM11bQ0BASF0xW0NIMl1OKFtDSDJdW0NASF0oTzEpW0NIM10pYzJbY0hdW2NIXWMoW2NIXW4yKVtOSF1DKD1PKVtDQEhdKFtDSDNdKVMoPU8pKD1PKVtDSDNd

> <s_epik_cmdline>
J2VwaWtfcHl0aG9uJywgJy1waCcsICc3LjAnLCAnLXRuJywgJzgnLCAnLW1hJywgJzIwMCcsICctbWV0YWxfYmluZGluZycsICctaW1hZScsICc8aW5maWxlLm1hZT4nLCAnLW9tYWUnLCAnPG91dGZpbGUubWFlPic=

> <r_lp_tautomer_probability>
1

> <r_epik_Ionization_Penalty>
0.000334888

> <r_epik_Ionization_Penalty_Charging>
0

> <r_epik_Ionization_Penalty_Neutral>
0.000334888

> <r_epik_State_Penalty>
0.000200905

> <r_epik_Charging_Adjusted_Penalty>
0.000200905

> <i_epik_Tot_Q>
0

> <i_epik_Tot_abs_Q>
0

> <r_epik_Metal_State_Penalty>
-0

> <b_epik_Metal_Only>
0

> <s_lp_Force_Field>
OPLS_2005

> <r_lp_Energy>
18.0691

> <b_lp_Chiralities_Consistent>
1

> <s_lp_Variant>
AV-unprocessed.smi:1990-4

> <Gold.Version>
5.8.1

> <Gold.Id.Protein>
6NUR|6NUR_protein|mol2

> <Gold.PLP.Fitness>
42.9595

> <Gold.PLP.PLP>
-34.6939

> <Gold.PLP.part.hbond>
-3.0000

> <Gold.PLP.part.metal>
0.0000

> <Gold.PLP.part.buried>
-6.1645

> <Gold.PLP.part.nonpolar>
-26.4123

> <Gold.PLP.part.repulsive>
0.4614

> <Gold.PLP.ligand.clash>
0.0000

> <Gold.PLP.ligand.torsion>
0.6734

> <Gold.PLP.Chemscore.Hbond>
3.0000

> <Gold.PLP.Chemscore.CHOScore>
0.0000

> <Gold.PLP.Chemscore.Metal>
0.0000

> <Gold.Chemscore.Hbonds>
donor molecule, donor type, donor heavy atom, donor atom, acceptor molecule, acceptor atom, score
      P1  H  7989  7998       L1    17  1.00
      P1  H  7997  8009       L1    16  1.00
      P1  H 10752 10763       L1    11  1.00

> <Gold.PLP.Chemscore.Internal.Correction>
0.6123

> <Gold.Rescore>
     Score         DG    S(hbond)    S(metal)    S(lipo)     H(rot)  DE(clash)    DE(int)     intcor
     19.20     -21.09       2.94        0.00      82.68       1.52       0.08       1.82       ----

> <Gold.Chemscore.Fitness>
19.1989

> <Gold.Chemscore.DG>
-21.0936

> <Gold.Chemscore.ZeroCoef>
-5.4800

> <Gold.Chemscore.Hbond>
2.9418

> <Gold.Chemscore.Metal>
0.0000

> <Gold.Chemscore.Lipo>
82.6788

> <Gold.Chemscore.Internal_Hbond>
0.0000

> <Gold.Chemscore.DEClash>
0.0763

> <Gold.Chemscore.DEInternal>
1.8184

> <Gold.Chemscore.Rot>
1.5177

> <Gold.Chemscore.Internal.Correction>
   9.000000E+99

> <Gold.Chemscore.Hbonds>
donor molecule, donor type, donor heavy atom, donor atom, acceptor molecule, acceptor atom, score
      P1  H  7989  7998       L1    17  0.78
      P1  H  7997  8009       L1    16  0.94
      P1  H 10752 10763       L1    11  0.93

> <Gold.Chemscore.Hbond.Weighted>
-9.8255

> <Gold.Chemscore.Metal.Weighted>
-0.0000

> <Gold.Chemscore.Lipo.Weighted>
-9.6734

> <Gold.Chemscore.Internal_Hbond.Weighted>
0.0000

> <Gold.Chemscore.DEClash.Weighted>
0.0763

> <Gold.Chemscore.DEInternal.Weighted>
1.8184

> <Gold.Chemscore.Rot.Weighted>
3.8853

> <Gold.Chemscore.Internal.Correction.Weighted>
   9.000000E+99

> <Gold.Protein.RotatedTorsions>
[ 6907 6896 6895 6894 ] final  106.49 input  -60.11 | X-H torsion
[ 7974 7965 7964 7962 ] final  156.15 input  175.53 | X-H torsion
[ 8008 7997 7996 7995 ] final -147.22 input   59.86 | X-H torsion
[ 10167 10162 10161 10158 ] final -108.24 input  -65.29 | X-H torsion
[ 10718 10713 10712 10709 ] final  137.65 input   66.30 | X-H torsion
[ 10763 10752 10751 10750 ] final   68.17 input  -60.55 | X-H torsion
[ 11005 11000 10999 10996 ] final -161.66 input  -57.11 | X-H torsion

> <Gold.Protein.ActiveResidues>
 VAL166  LYS551  ARG553  GLY616  TRP617  ASP618  TYR619  PRO620  LYS621  CYS622 
 ASP623  PHE694  ASN695  SER759  ASP760  ASP761  ALA762  ILE779  LEU786  VAL792 
 PHE793  MET794  SER795  GLU796  ALA797  LYS798  CYS799  TRP800  GLU811  SER814 

> <Gold.Protein.RotatedAtoms>
  152.5191  133.9373  159.7609 H   0  0  0  0  0  0  0  0  0  0  0  0  # atno 6907 bound_to 6896
  150.9710  133.6335  159.2745 H   0  0  0  0  0  0  0  0  0  0  0  0  # atno 6908 bound_to 6896
  151.3547  135.0897  159.9467 H   0  0  0  0  0  0  0  0  0  0  0  0  # atno 6909 bound_to 6896
  144.7981  139.7164  143.6193 H   0  0  0  0  0  0  0  0  0  0  0  0  # atno 7974 bound_to 7965
  155.5721  140.0635  157.2804 H   0  0  0  0  0  0  0  0  0  0  0  0  # atno 8008 bound_to 7997
  154.4358  140.1867  156.0936 H   0  0  0  0  0  0  0  0  0  0  0  0  # atno 8009 bound_to 7997
  156.0368  140.3300  155.7204 H   0  0  0  0  0  0  0  0  0  0  0  0  # atno 8010 bound_to 7997
  140.1683  143.4063  152.1374 H   0  0  0  0  0  0  0  0  0  0  0  0  # atno 10167 bound_to 10162
  157.4338  131.1051  151.0220 H   0  0  0  0  0  0  0  0  0  0  0  0  # atno 10718 bound_to 10713
  153.0222  135.5257  154.7094 H   0  0  0  0  0  0  0  0  0  0  0  0  # atno 10763 bound_to 10752
  154.6180  135.2886  155.0360 H   0  0  0  0  0  0  0  0  0  0  0  0  # atno 10764 bound_to 10752
  154.1357  135.6586  153.4984 H   0  0  0  0  0  0  0  0  0  0  0  0  # atno 10765 bound_to 10752
  140.6180  134.4780  157.5221 H   0  0  0  0  0  0  0  0  0  0  0  0  # atno 11005 bound_to 11000
  146.2254  139.5714  142.9590 LP  0  0  0  0  0  0  0  0  0  0  0  0  # atno 17320 bound_to 7965
  145.5623  141.0403  143.2219 LP  0  0  0  0  0  0  0  0  0  0  0  0  # atno 17321 bound_to 7965
  139.5349  144.7199  151.4926 LP  0  0  0  0  0  0  0  0  0  0  0  0  # atno 17342 bound_to 10162
  140.6598  143.8521  150.6876 LP  0  0  0  0  0  0  0  0  0  0  0  0  # atno 17343 bound_to 10162
  157.1107  130.6020  149.5481 LP  0  0  0  0  0  0  0  0  0  0  0  0  # atno 17370 bound_to 10713
  155.9923  130.4980  150.7334 LP  0  0  0  0  0  0  0  0  0  0  0  0  # atno 17371 bound_to 10713
  139.9165  134.8236  156.1350 LP  0  0  0  0  0  0  0  0  0  0  0  0  # atno 17394 bound_to 11000
  141.0762  133.6774  156.2242 LP  0  0  0  0  0  0  0  0  0  0  0  0  # atno 17395 bound_to 11000

$$$$
