AV-unprocessed.smi:224|AV-procd|sdf|1718|dock10
  -GOLD-   2262020193D 1   1.00000     0.00000
 Structure written by MMmdl.
 56 59  0  0  0  0  0  0  0  0  2 V2000
  145.3901  132.0884  149.3056 C   0  0  0  0  0  0  0  0  0  0  0  0
  145.1398  133.1142  150.4212 C   0  0  1  0  0  0  0  0  0  0  0  0
  144.4533  134.2141  149.8623 O   0  0  0  0  0  0  0  0  0  0  0  0
  144.2911  132.5503  151.5801 C   0  0  0  0  0  0  0  0  0  0  0  0
  144.4202  133.3452  152.8356 N   0  3  1  0  0  0  0  0  0  0  0  0
  145.8517  133.5348  153.2087 C   0  0  0  0  0  0  0  0  0  0  0  0
  146.0156  134.3261  154.5162 C   0  0  0  0  0  0  0  0  0  0  0  0
  145.2794  135.5833  154.4636 N   0  0  0  0  0  0  0  0  0  0  0  0
  145.8850  136.6978  153.9724 C   0  0  0  0  0  0  0  0  0  0  0  0
  145.4486  137.2468  152.8073 N   0  0  0  0  0  0  0  0  0  0  0  0
  146.0297  138.3441  152.3143 C   0  0  0  0  0  0  0  0  0  0  0  0
  147.0517  139.0408  152.8125 N   0  0  0  0  0  0  0  0  0  0  0  0
  147.5067  138.4898  153.9736 C   0  0  0  0  0  0  0  0  0  0  0  0
  146.9840  137.3331  154.6193 C   0  0  0  0  0  0  0  0  0  0  0  0
  147.7109  137.0715  155.7750 N   0  0  0  0  0  0  0  0  0  0  0  0
  148.6056  138.0208  155.8132 C   0  0  0  0  0  0  0  0  0  0  0  0
  148.5609  138.9113  154.7649 N   0  0  0  0  0  0  0  0  0  0  0  0
  149.4443  140.0477  154.5521 C   0  0  0  0  0  0  0  0  0  0  0  0
  148.9175  141.3577  155.1834 C   0  0  1  0  0  0  0  0  0  0  0  0
  149.0477  142.4065  154.2386 O   0  0  0  0  0  0  0  0  0  0  0  0
  147.4624  141.2934  155.6374 C   0  0  0  0  0  0  0  0  0  0  0  0
  147.4356  142.2527  156.8188 C   0  0  0  0  0  0  0  0  0  0  0  0
  148.6698  141.9862  157.4631 O   0  0  0  0  0  0  0  0  0  0  0  0
  149.6657  141.7641  156.4689 C   0  0  0  0  0  0  0  0  0  0  0  0
  143.8666  135.4121  154.1515 C   0  0  0  0  0  0  0  0  0  0  0  0
  143.6570  134.6362  152.8307 C   0  0  2  0  0  0  0  0  0  0  0  0
  142.1399  134.4396  152.6296 C   0  0  0  0  0  0  0  0  0  0  0  0
  145.9571  131.2335  149.6747 H   0  0  0  0  0  0  0  0  0  0  0  0
  145.9622  132.5294  148.4885 H   0  0  0  0  0  0  0  0  0  0  0  0
  144.4539  131.7125  148.8914 H   0  0  0  0  0  0  0  0  0  0  0  0
  146.0935  133.4951  150.7834 H   0  0  0  0  0  0  0  0  0  0  0  0
  144.7625  134.3515  148.9797 H   0  0  0  0  0  0  0  0  0  0  0  0
  143.2385  132.5026  151.2954 H   0  0  0  0  0  0  0  0  0  0  0  0
  144.6006  131.5185  151.7255 H   0  0  0  0  0  0  0  0  0  0  0  0
  146.3488  132.5738  153.3290 H   0  0  0  0  0  0  0  0  0  0  0  0
  146.3669  134.0489  152.3963 H   0  0  0  0  0  0  0  0  0  0  0  0
  145.6261  133.7401  155.3494 H   0  0  0  0  0  0  0  0  0  0  0  0
  147.0702  134.4985  154.7361 H   0  0  0  0  0  0  0  0  0  0  0  0
  145.6177  138.7170  151.3882 H   0  0  0  0  0  0  0  0  0  0  0  0
  149.3355  138.0925  156.6068 H   0  0  0  0  0  0  0  0  0  0  0  0
  150.4245  139.8005  154.9617 H   0  0  0  0  0  0  0  0  0  0  0  0
  149.5864  140.1763  153.4783 H   0  0  0  0  0  0  0  0  0  0  0  0
  148.9761  143.2307  154.6953 H   0  0  0  0  0  0  0  0  0  0  0  0
  146.7434  141.5460  154.8570 H   0  0  0  0  0  0  0  0  0  0  0  0
  147.2232  140.2926  155.9982 H   0  0  0  0  0  0  0  0  0  0  0  0
  147.4103  143.2904  156.4830 H   0  0  0  0  0  0  0  0  0  0  0  0
  146.5885  142.0821  157.4835 H   0  0  0  0  0  0  0  0  0  0  0  0
  150.3420  140.9832  156.8182 H   0  0  0  0  0  0  0  0  0  0  0  0
  150.2586  142.6702  156.3319 H   0  0  0  0  0  0  0  0  0  0  0  0
  143.4048  134.8689  154.9771 H   0  0  0  0  0  0  0  0  0  0  0  0
  143.3500  136.3693  154.0981 H   0  0  0  0  0  0  0  0  0  0  0  0
  144.0384  135.2489  152.0118 H   0  0  0  0  0  0  0  0  0  0  0  0
  141.6022  135.3714  152.8090 H   0  0  0  0  0  0  0  0  0  0  0  0
  141.7406  133.6952  153.3195 H   0  0  0  0  0  0  0  0  0  0  0  0
  141.8813  134.1388  151.6157 H   0  0  0  0  0  0  0  0  0  0  0  0
  144.0037  132.7889  153.5683 H   0  0  0  0  0  0  0  0  0  0  0  0
  1  2  1  0  0  0  0
  1 28  1  0  0  0  0
  1 29  1  0  0  0  0
  1 30  1  0  0  0  0
  2  3  1  0  0  0  0
  2  4  1  0  0  0  0
  2 31  1  0  0  0  0
  3 32  1  0  0  0  0
  4  5  1  0  0  0  0
  4 33  1  0  0  0  0
  4 34  1  0  0  0  0
  5 26  1  0  0  0  0
  5  6  1  0  0  0  0
  5 56  1  0  0  0  0
  6  7  1  0  0  0  0
  6 35  1  0  0  0  0
  6 36  1  0  0  0  0
  7  8  1  0  0  0  0
  7 37  1  0  0  0  0
  7 38  1  0  0  0  0
  8  9  1  0  0  0  0
  8 25  1  0  0  0  0
  9 14  1  0  0  0  0
  9 10  2  0  0  0  0
 10 11  1  0  0  0  0
 11 12  2  0  0  0  0
 11 39  1  0  0  0  0
 12 13  1  0  0  0  0
 13 17  1  0  0  0  0
 13 14  2  0  0  0  0
 14 15  1  0  0  0  0
 15 16  2  0  0  0  0
 16 17  1  0  0  0  0
 16 40  1  0  0  0  0
 17 18  1  0  0  0  0
 18 19  1  0  0  0  0
 18 41  1  0  0  0  0
 18 42  1  0  0  0  0
 19 24  1  0  0  0  0
 19 20  1  0  0  0  0
 19 21  1  0  0  0  0
 20 43  1  0  0  0  0
 21 22  1  0  0  0  0
 21 44  1  0  0  0  0
 21 45  1  0  0  0  0
 22 23  1  0  0  0  0
 22 46  1  0  0  0  0
 22 47  1  0  0  0  0
 23 24  1  0  0  0  0
 24 48  1  0  0  0  0
 24 49  1  0  0  0  0
 25 26  1  0  0  0  0
 25 50  1  0  0  0  0
 25 51  1  0  0  0  0
 26 27  1  0  0  0  0
 26 52  1  0  0  0  0
 27 53  1  0  0  0  0
 27 54  1  0  0  0  0
 27 55  1  0  0  0  0
M  CHG  1   5   1
M  END
> <s_m_source_file>
AV-unprocessed.smi

> <i_m_source_file_index>
224

> <i_lp_mmshare_version>
43012

> <i_f3d_flags>
0

> <s_epik_input>
W0NIM11bQ0BIXShbT0hdKVtDSDJdTjFbQ0gyXVtDSDJdTihbQ0gyXVtDQEhdMVtDSDNdKWMobltjSF1uMiljKGMyMyluW2NIXW4zW0NIMl1bQ0BAXTQoW09IXSlbQ0gyXVtDSDJdT1tDSDJdNA==

> <s_epik_cmdline>
J2VwaWtfcHl0aG9uJywgJy1waCcsICc3LjAnLCAnLXRuJywgJzgnLCAnLW1hJywgJzIwMCcsICctbWV0YWxfYmluZGluZycsICctaW1hZScsICc8aW5maWxlLm1hZT4nLCAnLW9tYWUnLCAnPG91dGZpbGUubWFlPic=

> <r_lp_tautomer_probability>
1

> <r_epik_Ionization_Penalty>
0.00516958

> <r_epik_Ionization_Penalty_Charging>
0.00509693

> <r_epik_Ionization_Penalty_Neutral>
7.26542e-05

> <r_epik_State_Penalty>
-0

> <r_epik_Charging_Adjusted_Penalty>
0.00509693

> <i_epik_Tot_Q>
1

> <i_epik_Tot_abs_Q>
1

> <r_epik_Metal_State_Penalty>
-0

> <b_epik_Metal_Only>
0

> <s_lp_Force_Field>
OPLS_2005

> <r_lp_Energy>
49.0033

> <b_lp_Chiralities_Consistent>
1

> <s_lp_Variant>
AV-unprocessed.smi:224-12

> <Gold.Version>
5.8.1

> <Gold.Id.Protein>
6NUR|6NUR_protein|mol2

> <Gold.PLP.Fitness>
43.2345

> <Gold.PLP.PLP>
-31.0301

> <Gold.PLP.part.hbond>
-4.0099

> <Gold.PLP.part.metal>
0.0000

> <Gold.PLP.part.buried>
-5.4523

> <Gold.PLP.part.nonpolar>
-22.3100

> <Gold.PLP.part.repulsive>
0.6605

> <Gold.PLP.ligand.clash>
0.0000

> <Gold.PLP.ligand.torsion>
2.0320

> <Gold.PLP.Chemscore.Hbond>
4.1529

> <Gold.PLP.Chemscore.CHOScore>
1.1009

> <Gold.PLP.Chemscore.Metal>
0.0000

> <Gold.Chemscore.Hbonds>
donor molecule, donor type, donor heavy atom, donor atom, acceptor molecule, acceptor atom, score
      L1  H     3    32       P1  7921  1.00
      L1  H     5    56       P1 10957  1.82
      L1  H    20    43       P1  8028  1.00
      P1  H  8011  8017       L1    20  0.17
      L1  C    11    39       P1 10171  1.00
      L1  C    11    39       P1 10175  0.12

> <Gold.PLP.Chemscore.Internal.Correction>
0.5071

> <Gold.Rescore>
     Score         DG    S(hbond)    S(metal)    S(lipo)     H(rot)  DE(clash)    DE(int)     intcor
     12.29     -14.49       2.84        0.00      69.60       3.36       0.14       2.06       ----

> <Gold.Chemscore.Fitness>
12.2918

> <Gold.Chemscore.DG>
-14.4923

> <Gold.Chemscore.ZeroCoef>
-5.4800

> <Gold.Chemscore.Hbond>
2.8362

> <Gold.Chemscore.Metal>
0.0000

> <Gold.Chemscore.Lipo>
69.6048

> <Gold.Chemscore.Internal_Hbond>
0.0000

> <Gold.Chemscore.DEClash>
0.1367

> <Gold.Chemscore.DEInternal>
2.0638

> <Gold.Chemscore.Rot>
3.3611

> <Gold.Chemscore.Internal.Correction>
   9.000000E+99

> <Gold.Chemscore.Hbonds>
donor molecule, donor type, donor heavy atom, donor atom, acceptor molecule, acceptor atom, score
      L1  H     3    32       P1  7921  0.95
      L1  H     5    56       P1 10957  0.57
      L1  H    20    43       P1  8028  1.00
      P1  H  8011  8017       L1    20  0.16

> <Gold.Chemscore.Hbond.Weighted>
-9.4730

> <Gold.Chemscore.Metal.Weighted>
-0.0000

> <Gold.Chemscore.Lipo.Weighted>
-8.1438

> <Gold.Chemscore.Internal_Hbond.Weighted>
0.0000

> <Gold.Chemscore.DEClash.Weighted>
0.1367

> <Gold.Chemscore.DEInternal.Weighted>
2.0638

> <Gold.Chemscore.Rot.Weighted>
8.6045

> <Gold.Chemscore.Internal.Correction.Weighted>
   9.000000E+99

> <Gold.Protein.RotatedTorsions>
[ 6907 6896 6895 6894 ] final  146.93 input  -60.11 | X-H torsion
[ 7974 7965 7964 7962 ] final  -72.09 input  175.53 | X-H torsion
[ 8008 7997 7996 7995 ] final  130.68 input   59.86 | X-H torsion
[ 10167 10162 10161 10158 ] final -160.58 input  -65.29 | X-H torsion
[ 10718 10713 10712 10709 ] final  -21.09 input   66.30 | X-H torsion
[ 10763 10752 10751 10750 ] final  -99.04 input  -60.55 | X-H torsion
[ 11005 11000 10999 10996 ] final   93.66 input  -57.11 | X-H torsion

> <Gold.Protein.ActiveResidues>
 VAL166  LYS551  ARG553  GLY616  TRP617  ASP618  TYR619  PRO620  LYS621  CYS622 
 ASP623  PHE694  ASN695  SER759  ASP760  ASP761  ALA762  ILE779  LEU786  VAL792 
 PHE793  MET794  SER795  GLU796  ALA797  LYS798  CYS799  TRP800  GLU811  SER814 

> <Gold.Protein.RotatedAtoms>
  152.1614  133.4584  159.4862 H   0  0  0  0  0  0  0  0  0  0  0  0  # atno 6907 bound_to 6896
  150.6907  134.2066  159.4352 H   0  0  0  0  0  0  0  0  0  0  0  0  # atno 6908 bound_to 6896
  151.9969  134.9949  160.0614 H   0  0  0  0  0  0  0  0  0  0  0  0  # atno 6909 bound_to 6896
  145.6696  140.9225  143.0890 H   0  0  0  0  0  0  0  0  0  0  0  0  # atno 7974 bound_to 7965
  156.2958  140.2590  156.2802 H   0  0  0  0  0  0  0  0  0  0  0  0  # atno 8008 bound_to 7997
  154.9609  140.0392  157.2208 H   0  0  0  0  0  0  0  0  0  0  0  0  # atno 8009 bound_to 7997
  154.7947  140.2818  155.5970 H   0  0  0  0  0  0  0  0  0  0  0  0  # atno 8010 bound_to 7997
  139.6529  144.0052  152.2174 H   0  0  0  0  0  0  0  0  0  0  0  0  # atno 10167 bound_to 10162
  156.5230  130.4637  149.6587 H   0  0  0  0  0  0  0  0  0  0  0  0  # atno 10718 bound_to 10713
  154.7465  135.4987  153.9213 H   0  0  0  0  0  0  0  0  0  0  0  0  # atno 10763 bound_to 10752
  153.1097  135.6706  153.9530 H   0  0  0  0  0  0  0  0  0  0  0  0  # atno 10764 bound_to 10752
  153.9292  135.3080  155.3425 H   0  0  0  0  0  0  0  0  0  0  0  0  # atno 10765 bound_to 10752
  139.8807  134.8802  156.3750 H   0  0  0  0  0  0  0  0  0  0  0  0  # atno 11005 bound_to 11000
  144.7061  139.8555  143.7429 LP  0  0  0  0  0  0  0  0  0  0  0  0  # atno 17320 bound_to 7965
  146.1056  139.4056  143.0319 LP  0  0  0  0  0  0  0  0  0  0  0  0  # atno 17321 bound_to 7965
  139.9771  144.6454  150.7935 LP  0  0  0  0  0  0  0  0  0  0  0  0  # atno 17342 bound_to 10162
  140.7546  143.3029  151.3034 LP  0  0  0  0  0  0  0  0  0  0  0  0  # atno 17343 bound_to 10162
  156.3132  130.7240  151.2137 LP  0  0  0  0  0  0  0  0  0  0  0  0  # atno 17370 bound_to 10713
  157.7434  131.0475  150.4950 LP  0  0  0  0  0  0  0  0  0  0  0  0  # atno 17371 bound_to 10713
  140.9438  133.7497  156.0181 LP  0  0  0  0  0  0  0  0  0  0  0  0  # atno 17394 bound_to 11000
  140.8188  134.3314  157.5388 LP  0  0  0  0  0  0  0  0  0  0  0  0  # atno 17395 bound_to 11000

$$$$
