AV-unprocessed.smi:1|AV-procd|sdf|16|dock5
  -GOLD-   2262015113D 1   1.00000     0.00000
 Structure written by MMmdl.
 57 62  0  0  0  0  0  0  0  0  1 V2000
  150.8658  141.8368  155.3584 O   0  0  0  0  0  0  0  0  0  0  0  0
  150.9573  141.4147  156.5145 C   0  0  0  0  0  0  0  0  0  0  0  0
  150.6990  140.1386  156.9979 N   0  0  0  0  0  0  0  0  0  0  0  0
  150.8793  139.1034  156.2348 C   0  0  0  0  0  0  0  0  0  0  0  0
  151.3283  138.9667  154.9146 N   0  0  0  0  0  0  0  0  0  0  0  0
  151.4921  137.7570  154.2216 C   0  0  0  0  0  0  0  0  0  0  0  0
  151.2410  136.5734  154.7145 N   0  0  0  0  0  0  0  0  0  0  0  0
  150.7804  136.6550  156.0210 C   0  0  0  0  0  0  0  0  0  0  0  0
  150.5796  137.7715  156.8029 C   0  0  0  0  0  0  0  0  0  0  0  0
  150.0988  137.4152  158.0581 N   0  0  0  0  0  0  0  0  0  0  0  0
  150.0278  136.0890  157.9770 C   0  0  0  0  0  0  0  0  0  0  0  0
  150.4106  135.5610  156.7971 N   0  0  0  0  0  0  0  0  0  0  0  0
  150.4478  134.1171  156.3918 C   0  0  1  0  0  0  0  0  0  0  0  0
  149.9290  133.3455  157.4350 O   0  0  0  0  0  0  0  0  0  0  0  0
  148.5900  132.9779  157.1332 C   0  0  2  0  0  0  0  0  0  0  0  0
  148.1387  131.7771  157.9753 C   0  0  0  0  0  0  0  0  0  0  0  0
  147.3598  132.2119  159.0788 O   0  0  0  0  0  0  0  0  0  0  0  0
  147.8017  133.2098  159.8674 C   0  0  0  0  0  0  0  0  0  0  0  0
  148.9244  133.7096  159.7712 O   0  0  0  0  0  0  0  0  0  0  0  0
  146.7867  133.6499  160.8675 C   0  0  0  0  0  0  0  0  0  0  0  0
  145.5520  132.9648  160.9495 C   0  0  0  0  0  0  0  0  0  0  0  0
  144.5756  133.3551  161.8865 C   0  0  0  0  0  0  0  0  0  0  0  0
  144.8216  134.4366  162.7524 C   0  0  0  0  0  0  0  0  0  0  0  0
  146.0453  135.1274  162.6799 C   0  0  0  0  0  0  0  0  0  0  0  0
  147.0234  134.7379  161.7440 C   0  0  0  0  0  0  0  0  0  0  0  0
  148.6071  132.7574  155.6193 C   0  0  1  0  0  0  0  0  0  0  0  0
  147.3345  132.9710  155.0348 O   0  0  0  0  0  0  0  0  0  0  0  0
  147.2380  134.5539  154.5101 S   0  0  0  0  0  0  0  0  0  0  0  0
  146.9882  134.5445  153.0607 O   0  0  0  0  0  0  0  0  0  0  0  0
  146.3958  135.3031  155.4549 O   0  0  0  0  0  0  0  0  0  0  0  0
  148.8259  134.9991  154.7655 O   0  0  0  0  0  0  0  0  0  0  0  0
  149.5737  133.8527  155.1449 C   0  0  1  0  0  0  0  0  0  0  0  0
  151.4556  142.3535  157.5648 C   0  0  0  0  0  0  0  0  0  0  0  0
  152.0080  141.8471  158.7606 C   0  0  0  0  0  0  0  0  0  0  0  0
  152.4717  142.7313  159.7545 C   0  0  0  0  0  0  0  0  0  0  0  0
  152.3829  144.1229  159.5571 C   0  0  0  0  0  0  0  0  0  0  0  0
  151.8286  144.6313  158.3662 C   0  0  0  0  0  0  0  0  0  0  0  0
  151.3650  143.7485  157.3711 C   0  0  0  0  0  0  0  0  0  0  0  0
  151.8598  137.8771  153.2014 H   0  0  0  0  0  0  0  0  0  0  0  0
  149.6853  135.4876  158.8059 H   0  0  0  0  0  0  0  0  0  0  0  0
  151.5064  133.9004  156.2449 H   0  0  0  0  0  0  0  0  0  0  0  0
  147.9530  133.8314  157.3688 H   0  0  0  0  0  0  0  0  0  0  0  0
  147.5578  131.0867  157.3626 H   0  0  0  0  0  0  0  0  0  0  0  0
  149.0141  131.2359  158.3373 H   0  0  0  0  0  0  0  0  0  0  0  0
  145.3405  132.1312  160.2953 H   0  0  0  0  0  0  0  0  0  0  0  0
  143.6370  132.8236  161.9408 H   0  0  0  0  0  0  0  0  0  0  0  0
  144.0730  134.7361  163.4709 H   0  0  0  0  0  0  0  0  0  0  0  0
  146.2353  135.9579  163.3437 H   0  0  0  0  0  0  0  0  0  0  0  0
  147.9514  135.2899  161.7151 H   0  0  0  0  0  0  0  0  0  0  0  0
  148.9975  131.7736  155.3575 H   0  0  0  0  0  0  0  0  0  0  0  0
  150.1927  133.5226  154.3102 H   0  0  0  0  0  0  0  0  0  0  0  0
  152.0773  140.7809  158.9204 H   0  0  0  0  0  0  0  0  0  0  0  0
  152.8942  142.3417  160.6691 H   0  0  0  0  0  0  0  0  0  0  0  0
  152.7380  144.8000  160.3200 H   0  0  0  0  0  0  0  0  0  0  0  0
  151.7581  145.6984  158.2159 H   0  0  0  0  0  0  0  0  0  0  0  0
  150.9392  144.1462  156.4610 H   0  0  0  0  0  0  0  0  0  0  0  0
  151.5604  139.8160  154.4199 H   0  0  0  0  0  0  0  0  0  0  0  0
  1  2  2  0  0  0  0
  2  3  1  0  0  0  0
  2 33  1  0  0  0  0
  3  4  2  0  0  0  0
  4  9  1  0  0  0  0
  4  5  1  0  0  0  0
  5  6  1  0  0  0  0
  5 57  1  0  0  0  0
  6  7  2  0  0  0  0
  6 39  1  0  0  0  0
  7  8  1  0  0  0  0
  8 12  1  0  0  0  0
  8  9  2  0  0  0  0
  9 10  1  0  0  0  0
 10 11  2  0  0  0  0
 11 12  1  0  0  0  0
 11 40  1  0  0  0  0
 12 13  1  0  0  0  0
 13 32  1  0  0  0  0
 13 14  1  0  0  0  0
 13 41  1  0  0  0  0
 14 15  1  0  0  0  0
 15 16  1  0  0  0  0
 15 26  1  0  0  0  0
 15 42  1  0  0  0  0
 16 17  1  0  0  0  0
 16 43  1  0  0  0  0
 16 44  1  0  0  0  0
 17 18  1  0  0  0  0
 18 19  2  0  0  0  0
 18 20  1  0  0  0  0
 20 25  1  0  0  0  0
 20 21  2  0  0  0  0
 21 22  1  0  0  0  0
 21 45  1  0  0  0  0
 22 23  2  0  0  0  0
 22 46  1  0  0  0  0
 23 24  1  0  0  0  0
 23 47  1  0  0  0  0
 24 25  2  0  0  0  0
 24 48  1  0  0  0  0
 25 49  1  0  0  0  0
 26 32  1  0  0  0  0
 26 27  1  0  0  0  0
 26 50  1  0  0  0  0
 27 28  1  0  0  0  0
 28 29  2  0  0  0  0
 28 30  2  0  0  0  0
 28 31  1  0  0  0  0
 31 32  1  0  0  0  0
 32 51  1  0  0  0  0
 33 38  1  0  0  0  0
 33 34  2  0  0  0  0
 34 35  1  0  0  0  0
 34 52  1  0  0  0  0
 35 36  2  0  0  0  0
 35 53  1  0  0  0  0
 36 37  1  0  0  0  0
 36 54  1  0  0  0  0
 37 38  2  0  0  0  0
 37 55  1  0  0  0  0
 38 56  1  0  0  0  0
M  END
> <s_m_source_file>
AV-unprocessed.smi

> <i_m_source_file_index>
1

> <i_lp_mmshare_version>
43012

> <i_f3d_flags>
0

> <s_epik_input>
W2NIXTFbY0hdW2NIXVtjSF1bY0hdYzFDKD1PKVtOSF1jKG5bY0hdbjIpYyhjMjMpbltjSF1uM1tDQEBIXShbQ0BIXShbQ0BIXTQ1KU9TKE81KSg9Tyk9TylPW0NASF00W0NIMl1PQyg9TyljNltjSF1bY0hdW2NIXVtjSF1bY0hdNg==

> <s_epik_cmdline>
J2VwaWtfcHl0aG9uJywgJy1waCcsICc3LjAnLCAnLXRuJywgJzgnLCAnLW1hJywgJzIwMCcsICctbWV0YWxfYmluZGluZycsICctaW1hZScsICc8aW5maWxlLm1hZT4nLCAnLW9tYWUnLCAnPG91dGZpbGUubWFlPic=

> <r_epik_Ionization_Penalty>
0.122545

> <r_epik_Ionization_Penalty_Charging>
0.122545

> <r_epik_Ionization_Penalty_Neutral>
7.8935e-16

> <r_epik_State_Penalty>
2.69178

> <r_epik_Charging_Adjusted_Penalty>
2.81433

> <i_epik_Tot_Q>
0

> <i_epik_Tot_abs_Q>
0

> <r_epik_Metal_State_Penalty>
3.02665

> <b_epik_Metal_Only>
0

> <s_epik_Chemistry_Notes>
This compound has an ester and may undergo hydrolysis at high or low pH. This compound contains an acetal/aminal-like group ( X-CH(R)-Y where X, Y are N, S, or O) that may be acid/base labile, releasing an aldehyde.

> <s_lp_Force_Field>
OPLS_2005

> <r_lp_Energy>
59.1261

> <b_lp_Chiralities_Consistent>
1

> <s_lp_Variant>
AV-unprocessed.smi:1-16

> <Gold.Version>
5.8.1

> <Gold.Id.Protein>
6NUR|6NUR_protein|mol2

> <Gold.PLP.Fitness>
51.2694

> <Gold.PLP.PLP>
-44.6008

> <Gold.PLP.part.hbond>
-3.8906

> <Gold.PLP.part.metal>
0.0000

> <Gold.PLP.part.buried>
1.7776

> <Gold.PLP.part.nonpolar>
-44.9412

> <Gold.PLP.part.repulsive>
2.1605

> <Gold.PLP.ligand.clash>
0.0000

> <Gold.PLP.ligand.torsion>
1.0309

> <Gold.PLP.Chemscore.Hbond>
2.1482

> <Gold.PLP.Chemscore.CHOScore>
0.6287

> <Gold.PLP.Chemscore.Metal>
0.0000

> <Gold.Chemscore.Hbonds>
donor molecule, donor type, donor heavy atom, donor atom, acceptor molecule, acceptor atom, score
      P1  H  6896  6909       L1    14  0.93
      P1  H  7989  7998       L1     1  0.15
      P1  H 10752 10764       L1     7  1.00
      L1  C     6    39       P1  7949  0.54

> <Gold.PLP.Chemscore.Internal.Correction>
0.3996

> <Gold.Rescore>
     Score         DG    S(hbond)    S(metal)    S(lipo)     H(rot)  DE(clash)    DE(int)     intcor
     10.65     -19.33       1.58        0.00     119.99       2.13       3.56       5.12       ----

> <Gold.Chemscore.Fitness>
10.6473

> <Gold.Chemscore.DG>
-19.3272

> <Gold.Chemscore.ZeroCoef>
-5.4800

> <Gold.Chemscore.Hbond>
1.5778

> <Gold.Chemscore.Metal>
0.0000

> <Gold.Chemscore.Lipo>
119.9905

> <Gold.Chemscore.Internal_Hbond>
0.0000

> <Gold.Chemscore.DEClash>
3.5590

> <Gold.Chemscore.DEInternal>
5.1210

> <Gold.Chemscore.Rot>
2.1333

> <Gold.Chemscore.Internal.Correction>
   9.000000E+99

> <Gold.Chemscore.Hbonds>
donor molecule, donor type, donor heavy atom, donor atom, acceptor molecule, acceptor atom, score
      P1  H  6896  6909       L1    14  0.75
      P1  H  7989  7998       L1     1  0.16
      P1  H 10752 10764       L1     7  0.25

> <Gold.Chemscore.Hbond.Weighted>
-5.2697

> <Gold.Chemscore.Metal.Weighted>
-0.0000

> <Gold.Chemscore.Lipo.Weighted>
-14.0389

> <Gold.Chemscore.Internal_Hbond.Weighted>
0.0000

> <Gold.Chemscore.DEClash.Weighted>
3.5590

> <Gold.Chemscore.DEInternal.Weighted>
5.1210

> <Gold.Chemscore.Rot.Weighted>
5.4614

> <Gold.Chemscore.Internal.Correction.Weighted>
   9.000000E+99

> <Gold.Protein.RotatedTorsions>
[ 6907 6896 6895 6894 ] final  -11.05 input  -60.11 | X-H torsion
[ 7974 7965 7964 7962 ] final  -50.70 input  175.53 | X-H torsion
[ 8008 7997 7996 7995 ] final  -35.47 input   59.86 | X-H torsion
[ 10167 10162 10161 10158 ] final  166.73 input  -65.29 | X-H torsion
[ 10718 10713 10712 10709 ] final  -65.01 input   66.30 | X-H torsion
[ 10763 10752 10751 10750 ] final  -80.34 input  -60.55 | X-H torsion
[ 11005 11000 10999 10996 ] final -137.14 input  -57.11 | X-H torsion

> <Gold.Protein.ActiveResidues>
 VAL166  LYS551  ARG553  GLY616  TRP617  ASP618  TYR619  PRO620  LYS621  CYS622 
 ASP623  PHE694  ASN695  SER759  ASP760  ASP761  ALA762  ILE779  LEU786  VAL792 
 PHE793  MET794  SER795  GLU796  ALA797  LYS798  CYS799  TRP800  GLU811  SER814 

> <Gold.Protein.RotatedAtoms>
  151.3924  135.0958  159.9529 H   0  0  0  0  0  0  0  0  0  0  0  0  # atno 6907 bound_to 6896
  152.5076  133.8967  159.7431 H   0  0  0  0  0  0  0  0  0  0  0  0  # atno 6908 bound_to 6896
  150.9423  133.6586  159.2817 H   0  0  0  0  0  0  0  0  0  0  0  0  # atno 6909 bound_to 6896
  145.9270  140.7783  142.9618 H   0  0  0  0  0  0  0  0  0  0  0  0  # atno 7974 bound_to 7965
  154.4095  140.1656  156.2216 H   0  0  0  0  0  0  0  0  0  0  0  0  # atno 8008 bound_to 7997
  155.9359  140.3411  155.6264 H   0  0  0  0  0  0  0  0  0  0  0  0  # atno 8009 bound_to 7997
  155.7050  140.0749  157.2385 H   0  0  0  0  0  0  0  0  0  0  0  0  # atno 8010 bound_to 7997
  139.4930  144.3996  151.9424 H   0  0  0  0  0  0  0  0  0  0  0  0  # atno 10167 bound_to 10162
  156.0694  130.4241  150.1503 H   0  0  0  0  0  0  0  0  0  0  0  0  # atno 10718 bound_to 10713
  154.5500  135.5664  153.6913 H   0  0  0  0  0  0  0  0  0  0  0  0  # atno 10763 bound_to 10752
  152.9987  135.6248  154.2387 H   0  0  0  0  0  0  0  0  0  0  0  0  # atno 10764 bound_to 10752
  154.2322  135.2865  155.2865 H   0  0  0  0  0  0  0  0  0  0  0  0  # atno 10765 bound_to 10752
  140.8739  134.2016  157.4634 H   0  0  0  0  0  0  0  0  0  0  0  0  # atno 11005 bound_to 11000
  144.6760  140.2067  143.7381 LP  0  0  0  0  0  0  0  0  0  0  0  0  # atno 17320 bound_to 7965
  145.8476  139.2159  143.1791 LP  0  0  0  0  0  0  0  0  0  0  0  0  # atno 17321 bound_to 7965
  140.3435  144.3174  150.5962 LP  0  0  0  0  0  0  0  0  0  0  0  0  # atno 17342 bound_to 10162
  140.5545  143.2201  151.7870 LP  0  0  0  0  0  0  0  0  0  0  0  0  # atno 17343 bound_to 10162
  156.9557  130.9789  151.3489 LP  0  0  0  0  0  0  0  0  0  0  0  0  # atno 17370 bound_to 10713
  157.5756  130.8341  149.8452 LP  0  0  0  0  0  0  0  0  0  0  0  0  # atno 17371 bound_to 10713
  139.8714  134.9787  156.5007 LP  0  0  0  0  0  0  0  0  0  0  0  0  # atno 17394 bound_to 11000
  140.8540  133.8110  155.9198 LP  0  0  0  0  0  0  0  0  0  0  0  0  # atno 17395 bound_to 11000

$$$$
