AV-unprocessed.smi:2155|AV-procd|sdf|8778|dock7
  -GOLD-   2272011563D 1   1.00000     0.00000
 Structure written by MMmdl.
 42 43  0  0  0  0  0  0  0  0  1 V2000
  152.1926  140.9592  157.8513 C   0  0  0  0  0  0  0  0  0  0  0  0
  151.5846  140.5121  156.6153 N   0  0  0  0  0  0  0  0  0  0  0  0
  152.1169  139.3764  155.9575 C   0  0  0  0  0  0  0  0  0  0  0  0
  153.0813  138.7468  156.3935 O   0  0  0  0  0  0  0  0  0  0  0  0
  151.4235  139.0123  154.7277 C   0  0  0  0  0  0  0  0  0  0  0  0
  150.3602  139.7234  154.2933 C   0  0  0  0  0  0  0  0  0  0  0  0
  149.8540  140.8237  154.9611 N   0  0  0  0  0  0  0  0  0  0  0  0
  148.6976  141.5410  154.4084 C   0  0  0  0  0  0  0  0  0  0  0  0
  147.5615  140.6096  153.9627 C   0  0  0  0  0  0  0  0  0  0  0  0
  146.5310  140.5015  154.6291 O   0  0  0  0  0  0  0  0  0  0  0  0
  147.7610  139.9523  152.8122 N   0  0  0  0  0  0  0  0  0  0  0  0
  146.8056  139.0275  152.2147 C   0  0  0  0  0  0  0  0  0  0  0  0
  146.4724  137.8674  153.1685 C   0  0  0  0  0  0  0  0  0  0  0  0
  145.4431  136.8943  152.6125 C   0  0  0  0  0  0  0  0  0  0  0  0
  145.6198  136.2638  151.4349 C   0  0  0  0  0  0  0  0  0  0  0  0
  144.6359  135.2701  150.8431 C   0  0  0  0  0  0  0  0  0  0  0  0
  143.5930  134.7961  151.8691 C   0  0  0  0  0  0  0  0  0  0  0  0
  143.0645  135.9693  152.7036 C   0  0  0  0  0  0  0  0  0  0  0  0
  144.2016  136.6702  153.4682 C   0  0  0  0  0  0  0  0  0  0  0  0
  150.4671  141.2459  156.1600 C   0  0  0  0  0  0  0  0  0  0  0  0
  150.0330  142.2203  156.7802 O   0  0  0  0  0  0  0  0  0  0  0  0
  153.1365  140.4468  158.0347 H   0  0  0  0  0  0  0  0  0  0  0  0
  151.4805  140.7489  158.6508 H   0  0  0  0  0  0  0  0  0  0  0  0
  152.3841  142.0300  157.7591 H   0  0  0  0  0  0  0  0  0  0  0  0
  151.7662  138.1613  154.1572 H   0  0  0  0  0  0  0  0  0  0  0  0
  149.8834  139.4145  153.3744 H   0  0  0  0  0  0  0  0  0  0  0  0
  148.2992  142.2304  155.1542 H   0  0  0  0  0  0  0  0  0  0  0  0
  149.0088  142.1651  153.5684 H   0  0  0  0  0  0  0  0  0  0  0  0
  148.6325  140.0942  152.3224 H   0  0  0  0  0  0  0  0  0  0  0  0
  145.8980  139.5708  151.9483 H   0  0  0  0  0  0  0  0  0  0  0  0
  147.2175  138.6289  151.2864 H   0  0  0  0  0  0  0  0  0  0  0  0
  147.3813  137.3135  153.4050 H   0  0  0  0  0  0  0  0  0  0  0  0
  146.1119  138.2744  154.1143 H   0  0  0  0  0  0  0  0  0  0  0  0
  146.5038  136.4617  150.8463 H   0  0  0  0  0  0  0  0  0  0  0  0
  144.1416  135.7500  149.9980 H   0  0  0  0  0  0  0  0  0  0  0  0
  145.1825  134.4137  150.4474 H   0  0  0  0  0  0  0  0  0  0  0  0
  142.7720  134.2907  151.3596 H   0  0  0  0  0  0  0  0  0  0  0  0
  144.0444  134.0593  152.5347 H   0  0  0  0  0  0  0  0  0  0  0  0
  142.5744  136.6859  152.0429 H   0  0  0  0  0  0  0  0  0  0  0  0
  142.3032  135.6247  153.4039 H   0  0  0  0  0  0  0  0  0  0  0  0
  144.4881  136.0694  154.3319 H   0  0  0  0  0  0  0  0  0  0  0  0
  143.8453  137.6266  153.8523 H   0  0  0  0  0  0  0  0  0  0  0  0
  1  2  1  0  0  0  0
  1 22  1  0  0  0  0
  1 23  1  0  0  0  0
  1 24  1  0  0  0  0
  2 20  1  0  0  0  0
  2  3  1  0  0  0  0
  3  4  2  0  0  0  0
  3  5  1  0  0  0  0
  5  6  2  0  0  0  0
  5 25  1  0  0  0  0
  6  7  1  0  0  0  0
  6 26  1  0  0  0  0
  7  8  1  0  0  0  0
  7 20  1  0  0  0  0
  8  9  1  0  0  0  0
  8 27  1  0  0  0  0
  8 28  1  0  0  0  0
  9 10  2  0  0  0  0
  9 11  1  0  0  0  0
 11 12  1  0  0  0  0
 11 29  1  0  0  0  0
 12 13  1  0  0  0  0
 12 30  1  0  0  0  0
 12 31  1  0  0  0  0
 13 14  1  0  0  0  0
 13 32  1  0  0  0  0
 13 33  1  0  0  0  0
 14 19  1  0  0  0  0
 14 15  2  0  0  0  0
 15 16  1  0  0  0  0
 15 34  1  0  0  0  0
 16 17  1  0  0  0  0
 16 35  1  0  0  0  0
 16 36  1  0  0  0  0
 17 18  1  0  0  0  0
 17 37  1  0  0  0  0
 17 38  1  0  0  0  0
 18 19  1  0  0  0  0
 18 39  1  0  0  0  0
 18 40  1  0  0  0  0
 19 41  1  0  0  0  0
 19 42  1  0  0  0  0
 20 21  2  0  0  0  0
M  END
> <s_m_source_file>
AV-unprocessed.smi

> <i_m_source_file_index>
2155

> <i_lp_mmshare_version>
43012

> <i_f3d_flags>
0

> <s_epik_input>
W0NIM11uMWMoPU8pW2NIXVtjSF1uKGMxPU8pW0NIMl1DKD1PKVtOSF1bQ0gyXVtDSDJdQzI9W0NIXVtDSDJdW0NIMl1bQ0gyXVtDSDJdMg==

> <s_epik_cmdline>
J2VwaWtfcHl0aG9uJywgJy1waCcsICc3LjAnLCAnLXRuJywgJzgnLCAnLW1hJywgJzIwMCcsICctbWV0YWxfYmluZGluZycsICctaW1hZScsICc8aW5maWxlLm1hZT4nLCAnLW9tYWUnLCAnPG91dGZpbGUubWFlPic=

> <r_lp_tautomer_probability>
1

> <r_epik_Ionization_Penalty>
3.01725e-08

> <r_epik_Ionization_Penalty_Charging>
1.20689e-08

> <r_epik_Ionization_Penalty_Neutral>
1.81035e-08

> <r_epik_State_Penalty>
-0

> <r_epik_Charging_Adjusted_Penalty>
1.20689e-08

> <i_epik_Tot_Q>
0

> <i_epik_Tot_abs_Q>
0

> <r_epik_Metal_State_Penalty>
-0

> <b_epik_Metal_Only>
0

> <s_lp_Force_Field>
OPLS_2005

> <r_lp_Energy>
16.2907

> <b_lp_Chiralities_Consistent>
1

> <s_lp_Variant>
AV-unprocessed.smi:2155-1

> <Gold.Version>
5.8.1

> <Gold.Id.Protein>
6NUR|6NUR_protein|mol2

> <Gold.PLP.Fitness>
48.5898

> <Gold.PLP.PLP>
-40.2871

> <Gold.PLP.part.hbond>
-1.8384

> <Gold.PLP.part.metal>
0.0000

> <Gold.PLP.part.buried>
-2.4964

> <Gold.PLP.part.nonpolar>
-37.2057

> <Gold.PLP.part.repulsive>
1.3746

> <Gold.PLP.ligand.clash>
0.0000

> <Gold.PLP.ligand.torsion>
0.3649

> <Gold.PLP.Chemscore.Hbond>
2.0000

> <Gold.PLP.Chemscore.CHOScore>
1.0000

> <Gold.PLP.Chemscore.Metal>
0.0000

> <Gold.Chemscore.Hbonds>
donor molecule, donor type, donor heavy atom, donor atom, acceptor molecule, acceptor atom, score
      L1  H    11    29       P1  7957  0.96
      P1  H  7997  8010       L1     4  1.00
      L1  C     6    26       P1  7957  1.00

> <Gold.PLP.Chemscore.Internal.Correction>
0.0325

> <Gold.Rescore>
     Score         DG    S(hbond)    S(metal)    S(lipo)     H(rot)  DE(clash)    DE(int)     intcor
     13.24     -15.08       1.76        0.00      74.27       1.94       0.36       1.48       ----

> <Gold.Chemscore.Fitness>
13.2354

> <Gold.Chemscore.DG>
-15.0768

> <Gold.Chemscore.ZeroCoef>
-5.4800

> <Gold.Chemscore.Hbond>
1.7580

> <Gold.Chemscore.Metal>
0.0000

> <Gold.Chemscore.Lipo>
74.2653

> <Gold.Chemscore.Internal_Hbond>
0.0000

> <Gold.Chemscore.DEClash>
0.3647

> <Gold.Chemscore.DEInternal>
1.4767

> <Gold.Chemscore.Rot>
1.9390

> <Gold.Chemscore.Internal.Correction>
   9.000000E+99

> <Gold.Chemscore.Hbonds>
donor molecule, donor type, donor heavy atom, donor atom, acceptor molecule, acceptor atom, score
      L1  H    11    29       P1  7957  0.89
      P1  H  7997  8010       L1     4  0.43

> <Gold.Chemscore.Hbond.Weighted>
-5.8717

> <Gold.Chemscore.Metal.Weighted>
-0.0000

> <Gold.Chemscore.Lipo.Weighted>
-8.6890

> <Gold.Chemscore.Internal_Hbond.Weighted>
0.0000

> <Gold.Chemscore.DEClash.Weighted>
0.3647

> <Gold.Chemscore.DEInternal.Weighted>
1.4767

> <Gold.Chemscore.Rot.Weighted>
4.9639

> <Gold.Chemscore.Internal.Correction.Weighted>
   9.000000E+99

> <Gold.Protein.RotatedTorsions>
[ 6907 6896 6895 6894 ] final  107.01 input  -60.11 | X-H torsion
[ 7974 7965 7964 7962 ] final  -11.03 input  175.53 | X-H torsion
[ 8008 7997 7996 7995 ] final   57.50 input   59.86 | X-H torsion
[ 10167 10162 10161 10158 ] final  176.62 input  -65.29 | X-H torsion
[ 10718 10713 10712 10709 ] final  -68.33 input   66.30 | X-H torsion
[ 10763 10752 10751 10750 ] final  164.39 input  -60.55 | X-H torsion
[ 11005 11000 10999 10996 ] final  105.19 input  -57.11 | X-H torsion

> <Gold.Protein.ActiveResidues>
 VAL166  LYS551  ARG553  GLY616  TRP617  ASP618  TYR619  PRO620  LYS621  CYS622 
 ASP623  PHE694  ASN695  SER759  ASP760  ASP761  ALA762  ILE779  LEU786  VAL792 
 PHE793  MET794  SER795  GLU796  ALA797  LYS798  CYS799  TRP800  GLU811  SER814 

> <Gold.Protein.RotatedAtoms>
  152.5171  133.9298  159.7574 H   0  0  0  0  0  0  0  0  0  0  0  0  # atno 6907 bound_to 6896
  150.9651  133.6395  159.2754 H   0  0  0  0  0  0  0  0  0  0  0  0  # atno 6908 bound_to 6896
  151.3626  135.0912  159.9492 H   0  0  0  0  0  0  0  0  0  0  0  0  # atno 6909 bound_to 6896
  146.2201  140.2851  142.8365 H   0  0  0  0  0  0  0  0  0  0  0  0  # atno 7974 bound_to 7965
  155.5347  140.3483  155.4434 H   0  0  0  0  0  0  0  0  0  0  0  0  # atno 8008 bound_to 7997
  156.0693  140.1359  156.9874 H   0  0  0  0  0  0  0  0  0  0  0  0  # atno 8009 bound_to 7997
  154.4520  140.0969  156.6620 H   0  0  0  0  0  0  0  0  0  0  0  0  # atno 8010 bound_to 7997
  139.5221  144.2894  152.0477 H   0  0  0  0  0  0  0  0  0  0  0  0  # atno 10167 bound_to 10162
  156.0511  130.4293  150.1984 H   0  0  0  0  0  0  0  0  0  0  0  0  # atno 10718 bound_to 10713
  154.3082  135.2758  155.2579 H   0  0  0  0  0  0  0  0  0  0  0  0  # atno 10763 bound_to 10752
  154.4986  135.5814  153.6517 H   0  0  0  0  0  0  0  0  0  0  0  0  # atno 10764 bound_to 10752
  152.9891  135.6152  154.3257 H   0  0  0  0  0  0  0  0  0  0  0  0  # atno 10765 bound_to 10752
  139.8799  134.9327  156.5476 H   0  0  0  0  0  0  0  0  0  0  0  0  # atno 11005 bound_to 11000
  144.9168  140.7822  143.5773 LP  0  0  0  0  0  0  0  0  0  0  0  0  # atno 17320 bound_to 7965
  145.2785  139.1927  143.4803 LP  0  0  0  0  0  0  0  0  0  0  0  0  # atno 17321 bound_to 7965
  140.2345  144.4333  150.6285 LP  0  0  0  0  0  0  0  0  0  0  0  0  # atno 17342 bound_to 10162
  140.6332  143.2191  151.6450 LP  0  0  0  0  0  0  0  0  0  0  0  0  # atno 17343 bound_to 10162
  157.0068  130.9939  151.3376 LP  0  0  0  0  0  0  0  0  0  0  0  0  # atno 17370 bound_to 10713
  157.5438  130.8137  149.8060 LP  0  0  0  0  0  0  0  0  0  0  0  0  # atno 17371 bound_to 10713
  140.8264  133.8313  155.8943 LP  0  0  0  0  0  0  0  0  0  0  0  0  # atno 17394 bound_to 11000
  140.9370  134.1949  157.4824 LP  0  0  0  0  0  0  0  0  0  0  0  0  # atno 17395 bound_to 11000

$$$$
