AV-unprocessed.smi:1419|AV-procd|sdf|5782|dock10
  -GOLD-   22720 5423D 1   1.00000     0.00000
 Structure written by MMmdl.
 41 42  0  0  0  0  0  0  0  0  1 V2000
  145.5601  134.1028  153.2278 C   0  0  0  0  0  0  0  0  0  0  0  0
  146.7377  133.7504  152.3094 C   0  0  2  0  0  0  0  0  0  0  0  0
  146.5648  132.3545  151.6767 C   0  0  0  0  0  0  0  0  0  0  0  0
  145.6441  132.3618  150.5534 N   0  0  0  0  0  0  0  0  0  0  0  0
  144.3217  132.7857  150.5533 C   0  0  0  0  0  0  0  0  0  0  0  0
  143.8555  132.6177  149.2689 C   0  0  0  0  0  0  0  0  0  0  0  0
  144.8653  132.0883  148.4687 N   0  0  0  0  0  0  0  0  0  0  0  0
  145.8925  131.9623  149.2984 C   0  0  0  0  0  0  0  0  0  0  0  0
  147.9801  133.8052  153.0781 N   0  0  0  0  0  0  0  0  0  0  0  0
  148.3745  132.9176  154.0077 C   0  0  0  0  0  0  0  0  0  0  0  0
  147.7614  131.8715  154.2250 O   0  0  0  0  0  0  0  0  0  0  0  0
  149.5051  133.2636  154.6706 N   0  0  0  0  0  0  0  0  0  0  0  0
  149.9306  134.6247  155.0216 C   0  0  0  0  0  0  0  0  0  0  0  0
  149.6767  134.8308  156.5278 C   0  0  2  0  0  0  0  0  0  0  0  0
  150.1407  136.2100  157.0078 C   0  0  0  0  0  0  0  0  0  0  0  0
  150.3934  133.8403  157.2694 O   0  0  0  0  0  0  0  0  0  0  0  0
  150.1231  132.4801  156.9134 C   0  0  1  0  0  0  0  0  0  0  0  0
  148.7432  132.0299  157.4271 C   0  0  0  0  0  0  0  0  0  0  0  0
  150.3231  132.2871  155.3942 C   0  0  0  0  0  0  0  0  0  0  0  0
  144.6175  134.0836  152.6801 H   0  0  0  0  0  0  0  0  0  0  0  0
  145.6754  135.1024  153.6484 H   0  0  0  0  0  0  0  0  0  0  0  0
  145.4771  133.3991  154.0571 H   0  0  0  0  0  0  0  0  0  0  0  0
  146.7554  134.4906  151.5074 H   0  0  0  0  0  0  0  0  0  0  0  0
  147.5269  131.9660  151.3387 H   0  0  0  0  0  0  0  0  0  0  0  0
  146.1862  131.6496  152.4179 H   0  0  0  0  0  0  0  0  0  0  0  0
  143.8383  133.1677  151.4405 H   0  0  0  0  0  0  0  0  0  0  0  0
  142.8788  132.8354  148.8627 H   0  0  0  0  0  0  0  0  0  0  0  0
  146.8515  131.5781  148.9831 H   0  0  0  0  0  0  0  0  0  0  0  0
  148.5571  134.6224  152.9429 H   0  0  0  0  0  0  0  0  0  0  0  0
  150.9929  134.7378  154.7997 H   0  0  0  0  0  0  0  0  0  0  0  0
  149.4294  135.4053  154.4494 H   0  0  0  0  0  0  0  0  0  0  0  0
  148.6100  134.7410  156.7355 H   0  0  0  0  0  0  0  0  0  0  0  0
  149.6083  137.0062  156.4870 H   0  0  0  0  0  0  0  0  0  0  0  0
  151.2079  136.3501  156.8336 H   0  0  0  0  0  0  0  0  0  0  0  0
  149.9584  136.3320  158.0759 H   0  0  0  0  0  0  0  0  0  0  0  0
  150.8688  131.8743  157.4286 H   0  0  0  0  0  0  0  0  0  0  0  0
  148.5844  130.9696  157.2291 H   0  0  0  0  0  0  0  0  0  0  0  0
  147.9263  132.5725  156.9543 H   0  0  0  0  0  0  0  0  0  0  0  0
  148.6613  132.1809  158.5036 H   0  0  0  0  0  0  0  0  0  0  0  0
  150.1036  131.2568  155.1100 H   0  0  0  0  0  0  0  0  0  0  0  0
  151.3717  132.4444  155.1370 H   0  0  0  0  0  0  0  0  0  0  0  0
  1  2  1  0  0  0  0
  1 20  1  0  0  0  0
  1 21  1  0  0  0  0
  1 22  1  0  0  0  0
  2  3  1  0  0  0  0
  2  9  1  0  0  0  0
  2 23  1  0  0  0  0
  3  4  1  0  0  0  0
  3 24  1  0  0  0  0
  3 25  1  0  0  0  0
  4  8  1  0  0  0  0
  4  5  1  0  0  0  0
  5  6  2  0  0  0  0
  5 26  1  0  0  0  0
  6  7  1  0  0  0  0
  6 27  1  0  0  0  0
  7  8  2  0  0  0  0
  8 28  1  0  0  0  0
  9 10  1  0  0  0  0
  9 29  1  0  0  0  0
 10 11  2  0  0  0  0
 10 12  1  0  0  0  0
 12 19  1  0  0  0  0
 12 13  1  0  0  0  0
 13 14  1  0  0  0  0
 13 30  1  0  0  0  0
 13 31  1  0  0  0  0
 14 15  1  0  0  0  0
 14 16  1  0  0  0  0
 14 32  1  0  0  0  0
 15 33  1  0  0  0  0
 15 34  1  0  0  0  0
 15 35  1  0  0  0  0
 16 17  1  0  0  0  0
 17 18  1  0  0  0  0
 17 19  1  0  0  0  0
 17 36  1  0  0  0  0
 18 37  1  0  0  0  0
 18 38  1  0  0  0  0
 18 39  1  0  0  0  0
 19 40  1  0  0  0  0
 19 41  1  0  0  0  0
M  END
> <s_m_source_file>
AV-unprocessed.smi

> <i_m_source_file_index>
1419

> <i_lp_mmshare_version>
43012

> <i_f3d_flags>
0

> <s_epik_input>
W2NIXTFuW2NIXVtjSF1uMVtDSDJdW0NAQEhdKFtDSDNdKVtOSF1DKD1PKU4yW0NIMl1bQ0BASF0oW0NIM10pT1tDQEBIXShbQ0gzXSlbQ0gyXTI=

> <s_epik_cmdline>
J2VwaWtfcHl0aG9uJywgJy1waCcsICc3LjAnLCAnLXRuJywgJzgnLCAnLW1hJywgJzIwMCcsICctbWV0YWxfYmluZGluZycsICctaW1hZScsICc8aW5maWxlLm1hZT4nLCAnLW9tYWUnLCAnPG91dGZpbGUubWFlPic=

> <r_lp_tautomer_probability>
1

> <r_epik_Ionization_Penalty>
0.625124

> <r_epik_Ionization_Penalty_Charging>
0.625093

> <r_epik_Ionization_Penalty_Neutral>
3.17415e-05

> <r_epik_State_Penalty>
0.641455

> <r_epik_Charging_Adjusted_Penalty>
1.26655

> <i_epik_Tot_Q>
0

> <i_epik_Tot_abs_Q>
0

> <r_epik_Metal_State_Penalty>
0.307717

> <b_epik_Metal_Only>
0

> <s_lp_Force_Field>
OPLS_2005

> <r_lp_Energy>
29.9288

> <b_lp_Chiralities_Consistent>
1

> <s_lp_Variant>
AV-unprocessed.smi:1419-9

> <Gold.Version>
5.8.1

> <Gold.Id.Protein>
6NUR|6NUR_protein|mol2

> <Gold.PLP.Fitness>
44.4582

> <Gold.PLP.PLP>
-34.5695

> <Gold.PLP.part.hbond>
-3.8370

> <Gold.PLP.part.metal>
0.0000

> <Gold.PLP.part.buried>
-4.8881

> <Gold.PLP.part.nonpolar>
-27.0209

> <Gold.PLP.part.repulsive>
0.5837

> <Gold.PLP.ligand.clash>
0.0000

> <Gold.PLP.ligand.torsion>
0.6105

> <Gold.PLP.Chemscore.Hbond>
1.7760

> <Gold.PLP.Chemscore.CHOScore>
1.9093

> <Gold.PLP.Chemscore.Metal>
0.0000

> <Gold.Chemscore.Hbonds>
donor molecule, donor type, donor heavy atom, donor atom, acceptor molecule, acceptor atom, score
      L1  H     9    29       P1  7948  0.96
      P1  H  6896  6908       L1    16  0.82
      L1  C     6    27       P1 10186  0.98
      L1  C     8    28       P1 10747  0.94

> <Gold.PLP.Chemscore.Internal.Correction>
0.0536

> <Gold.Rescore>
     Score         DG    S(hbond)    S(metal)    S(lipo)     H(rot)  DE(clash)    DE(int)     intcor
     10.17     -12.19       1.27        0.00      55.54       1.58       0.07       1.95       ----

> <Gold.Chemscore.Fitness>
10.1742

> <Gold.Chemscore.DG>
-12.1901

> <Gold.Chemscore.ZeroCoef>
-5.4800

> <Gold.Chemscore.Hbond>
1.2722

> <Gold.Chemscore.Metal>
0.0000

> <Gold.Chemscore.Lipo>
55.5371

> <Gold.Chemscore.Internal_Hbond>
0.0000

> <Gold.Chemscore.DEClash>
0.0705

> <Gold.Chemscore.DEInternal>
1.9454

> <Gold.Chemscore.Rot>
1.5769

> <Gold.Chemscore.Internal.Correction>
   9.000000E+99

> <Gold.Chemscore.Hbonds>
donor molecule, donor type, donor heavy atom, donor atom, acceptor molecule, acceptor atom, score
      L1  H     9    29       P1  7948  0.23
      P1  H  6896  6908       L1    16  0.30

> <Gold.Chemscore.Hbond.Weighted>
-4.2491

> <Gold.Chemscore.Metal.Weighted>
-0.0000

> <Gold.Chemscore.Lipo.Weighted>
-6.4978

> <Gold.Chemscore.Internal_Hbond.Weighted>
0.0000

> <Gold.Chemscore.DEClash.Weighted>
0.0705

> <Gold.Chemscore.DEInternal.Weighted>
1.9454

> <Gold.Chemscore.Rot.Weighted>
4.0369

> <Gold.Chemscore.Internal.Correction.Weighted>
   9.000000E+99

> <Gold.Protein.RotatedTorsions>
[ 6907 6896 6895 6894 ] final  111.47 input  -60.11 | X-H torsion
[ 7974 7965 7964 7962 ] final -125.98 input  175.53 | X-H torsion
[ 8008 7997 7996 7995 ] final -152.17 input   59.86 | X-H torsion
[ 10167 10162 10161 10158 ] final  121.64 input  -65.29 | X-H torsion
[ 10718 10713 10712 10709 ] final   15.68 input   66.30 | X-H torsion
[ 10763 10752 10751 10750 ] final -152.97 input  -60.55 | X-H torsion
[ 11005 11000 10999 10996 ] final  -77.94 input  -57.11 | X-H torsion

> <Gold.Protein.ActiveResidues>
 VAL166  LYS551  ARG553  GLY616  TRP617  ASP618  TYR619  PRO620  LYS621  CYS622 
 ASP623  PHE694  ASN695  SER759  ASP760  ASP761  ALA762  ILE779  LEU786  VAL792 
 PHE793  MET794  SER795  GLU796  ALA797  LYS798  CYS799  TRP800  GLU811  SER814 

> <Gold.Protein.RotatedAtoms>
  152.4967  133.8653  159.7270 H   0  0  0  0  0  0  0  0  0  0  0  0  # atno 6907 bound_to 6896
  150.9154  133.6937  159.2851 H   0  0  0  0  0  0  0  0  0  0  0  0  # atno 6908 bound_to 6896
  151.4332  135.1016  159.9701 H   0  0  0  0  0  0  0  0  0  0  0  0  # atno 6909 bound_to 6896
  144.9920  140.7741  143.4548 H   0  0  0  0  0  0  0  0  0  0  0  0  # atno 7974 bound_to 7965
  155.6510  140.0712  157.2587 H   0  0  0  0  0  0  0  0  0  0  0  0  # atno 8008 bound_to 7997
  154.4162  140.1733  156.1724 H   0  0  0  0  0  0  0  0  0  0  0  0  # atno 8009 bound_to 7997
  155.9777  140.3356  155.6637 H   0  0  0  0  0  0  0  0  0  0  0  0  # atno 8010 bound_to 7997
  139.5907  144.7024  151.3298 H   0  0  0  0  0  0  0  0  0  0  0  0  # atno 10167 bound_to 10162
  157.0569  130.6293  149.5778 H   0  0  0  0  0  0  0  0  0  0  0  0  # atno 10718 bound_to 10713
  154.7959  135.3224  154.7667 H   0  0  0  0  0  0  0  0  0  0  0  0  # atno 10763 bound_to 10752
  153.8346  135.6876  153.4814 H   0  0  0  0  0  0  0  0  0  0  0  0  # atno 10764 bound_to 10752
  153.1650  135.4645  154.9767 H   0  0  0  0  0  0  0  0  0  0  0  0  # atno 10765 bound_to 10752
  141.1663  133.7043  156.7897 H   0  0  0  0  0  0  0  0  0  0  0  0  # atno 11005 bound_to 11000
  145.2272  139.2131  143.5062 LP  0  0  0  0  0  0  0  0  0  0  0  0  # atno 17320 bound_to 7965
  146.3433  140.2142  142.8590 LP  0  0  0  0  0  0  0  0  0  0  0  0  # atno 17321 bound_to 7965
  140.7170  143.7238  150.7675 LP  0  0  0  0  0  0  0  0  0  0  0  0  # atno 17342 bound_to 10162
  140.0793  143.4984  152.2538 LP  0  0  0  0  0  0  0  0  0  0  0  0  # atno 17343 bound_to 10162
  155.9990  130.5065  150.7592 LP  0  0  0  0  0  0  0  0  0  0  0  0  # atno 17370 bound_to 10713
  157.4985  131.0917  151.0342 LP  0  0  0  0  0  0  0  0  0  0  0  0  # atno 17371 bound_to 10713
  140.2334  134.8668  157.3500 LP  0  0  0  0  0  0  0  0  0  0  0  0  # atno 17394 bound_to 11000
  140.1868  134.4421  155.7739 LP  0  0  0  0  0  0  0  0  0  0  0  0  # atno 17395 bound_to 11000

$$$$
