AV-unprocessed.smi:2953|AV-procd|sdf|11296|dock8
  -GOLD-   2272016193D 1   1.00000     0.00000
 Structure written by MMmdl.
 46 48  0  0  0  0  0  0  0  0  2 V2000
  146.8537  137.3828  162.9074 C   0  0  0  0  0  0  0  0  0  0  0  0
  147.0709  136.0637  162.1908 C   0  0  0  0  0  0  0  0  0  0  0  0
  146.6304  134.8713  162.8025 C   0  0  0  0  0  0  0  0  0  0  0  0
  146.8191  133.6328  162.1639 C   0  0  0  0  0  0  0  0  0  0  0  0
  147.4524  133.5834  160.9100 C   0  0  0  0  0  0  0  0  0  0  0  0
  147.8957  134.7697  160.2953 C   0  0  0  0  0  0  0  0  0  0  0  0
  147.7103  136.0264  160.9282 C   0  0  0  0  0  0  0  0  0  0  0  0
  148.1238  137.2241  160.3792 O   0  0  0  0  0  0  0  0  0  0  0  0
  148.7117  137.2024  159.0844 C   0  0  0  0  0  0  0  0  0  0  0  0
  147.6117  137.2628  158.0159 C   0  0  0  0  0  0  0  0  0  0  0  0
  148.1374  137.5751  156.6778 N   0  0  0  0  0  0  0  0  0  0  0  0
  148.0438  136.8946  155.4965 C   0  0  0  0  0  0  0  0  0  0  0  0
  147.3614  135.5784  155.2562 C   0  0  1  0  0  0  0  0  0  0  0  0
  145.8583  135.6720  155.5583 C   0  0  0  0  0  0  0  0  0  0  0  0
  147.5468  135.1199  153.8847 N   0  0  0  0  0  0  0  0  0  0  0  0
  147.0817  133.9614  153.4012 C   0  0  0  0  0  0  0  0  0  0  0  0
  146.4417  133.1610  154.0777 O   0  0  0  0  0  0  0  0  0  0  0  0
  148.7351  137.6145  154.5660 N   0  3  0  0  0  0  0  0  0  0  0  0
  149.2568  138.7693  155.1480 C   0  0  0  0  0  0  0  0  0  0  0  0
  150.0163  139.8009  154.6046 C   0  0  0  0  0  0  0  0  0  0  0  0
  150.3934  140.8386  155.4822 C   0  0  0  0  0  0  0  0  0  0  0  0
  150.0151  140.8250  156.8405 C   0  0  0  0  0  0  0  0  0  0  0  0
  149.2441  139.7736  157.3789 C   0  0  0  0  0  0  0  0  0  0  0  0
  148.8766  138.7509  156.5046 C   0  0  0  0  0  0  0  0  0  0  0  0
  146.0501  137.3035  163.6403 H   0  0  0  0  0  0  0  0  0  0  0  0
  146.5860  138.1745  162.2071 H   0  0  0  0  0  0  0  0  0  0  0  0
  147.7635  137.6724  163.4320 H   0  0  0  0  0  0  0  0  0  0  0  0
  146.1451  134.9018  163.7671 H   0  0  0  0  0  0  0  0  0  0  0  0
  146.4792  132.7227  162.6358 H   0  0  0  0  0  0  0  0  0  0  0  0
  147.5999  132.6334  160.4180 H   0  0  0  0  0  0  0  0  0  0  0  0
  148.3805  134.6848  159.3348 H   0  0  0  0  0  0  0  0  0  0  0  0
  149.3921  138.0469  158.9653 H   0  0  0  0  0  0  0  0  0  0  0  0
  149.2869  136.2854  158.9483 H   0  0  0  0  0  0  0  0  0  0  0  0
  147.0687  136.3185  157.9651 H   0  0  0  0  0  0  0  0  0  0  0  0
  146.8761  138.0204  158.2820 H   0  0  0  0  0  0  0  0  0  0  0  0
  147.7860  134.8356  155.9330 H   0  0  0  0  0  0  0  0  0  0  0  0
  145.6847  136.0216  156.5754 H   0  0  0  0  0  0  0  0  0  0  0  0
  145.3765  134.6988  155.4574 H   0  0  0  0  0  0  0  0  0  0  0  0
  145.3525  136.3624  154.8821 H   0  0  0  0  0  0  0  0  0  0  0  0
  148.0615  135.7237  153.2599 H   0  0  0  0  0  0  0  0  0  0  0  0
  147.3401  133.8229  152.3405 H   0  0  0  0  0  0  0  0  0  0  0  0
  150.3075  139.8131  153.5645 H   0  0  0  0  0  0  0  0  0  0  0  0
  150.9850  141.6611  155.1064 H   0  0  0  0  0  0  0  0  0  0  0  0
  150.3234  141.6370  157.4834 H   0  0  0  0  0  0  0  0  0  0  0  0
  148.9589  139.7732  158.4204 H   0  0  0  0  0  0  0  0  0  0  0  0
  148.8394  137.3316  153.6002 H   0  0  0  0  0  0  0  0  0  0  0  0
  1  2  1  0  0  0  0
  1 25  1  0  0  0  0
  1 26  1  0  0  0  0
  1 27  1  0  0  0  0
  2  7  1  0  0  0  0
  2  3  2  0  0  0  0
  3  4  1  0  0  0  0
  3 28  1  0  0  0  0
  4  5  2  0  0  0  0
  4 29  1  0  0  0  0
  5  6  1  0  0  0  0
  5 30  1  0  0  0  0
  6  7  2  0  0  0  0
  6 31  1  0  0  0  0
  7  8  1  0  0  0  0
  8  9  1  0  0  0  0
  9 10  1  0  0  0  0
  9 32  1  0  0  0  0
  9 33  1  0  0  0  0
 10 11  1  0  0  0  0
 10 34  1  0  0  0  0
 10 35  1  0  0  0  0
 11 24  1  0  0  0  0
 11 12  1  0  0  0  0
 12 13  1  0  0  0  0
 12 18  2  0  0  0  0
 13 14  1  0  0  0  0
 13 15  1  0  0  0  0
 13 36  1  0  0  0  0
 14 37  1  0  0  0  0
 14 38  1  0  0  0  0
 14 39  1  0  0  0  0
 15 16  1  0  0  0  0
 15 40  1  0  0  0  0
 16 17  2  0  0  0  0
 16 41  1  0  0  0  0
 18 19  1  0  0  0  0
 18 46  1  0  0  0  0
 19 24  2  0  0  0  0
 19 20  1  0  0  0  0
 20 21  2  0  0  0  0
 20 42  1  0  0  0  0
 21 22  1  0  0  0  0
 21 43  1  0  0  0  0
 22 23  2  0  0  0  0
 22 44  1  0  0  0  0
 23 24  1  0  0  0  0
 23 45  1  0  0  0  0
M  CHG  1  18   1
M  END
> <s_m_source_file>
AV-unprocessed.smi

> <i_m_source_file_index>
2953

> <i_lp_mmshare_version>
43012

> <i_f3d_flags>
0

> <s_epik_input>
W0NIM11jMVtjSF1bY0hdW2NIXVtjSF1jMU9bQ0gyXVtDSDJdbihjKG4yKVtDQEhdKFtDSDNdKVtOSF1bQ0hdPU8pYyhjMjMpW2NIXVtjSF1bY0hdW2NIXTM=

> <s_epik_cmdline>
J2VwaWtfcHl0aG9uJywgJy1waCcsICc3LjAnLCAnLXRuJywgJzgnLCAnLW1hJywgJzIwMCcsICctbWV0YWxfYmluZGluZycsICctaW1hZScsICc8aW5maWxlLm1hZT4nLCAnLW9tYWUnLCAnPG91dGZpbGUubWFlPic=

> <r_lp_tautomer_probability>
1

> <r_epik_Ionization_Penalty>
1.14644

> <r_epik_Ionization_Penalty_Charging>
1.14644

> <r_epik_Ionization_Penalty_Neutral>
5.5802e-08

> <r_epik_State_Penalty>
1.20743

> <r_epik_Charging_Adjusted_Penalty>
2.35387

> <i_epik_Tot_Q>
1

> <i_epik_Tot_abs_Q>
1

> <r_epik_Metal_State_Penalty>
1.28856

> <b_epik_Metal_Only>
0

> <s_lp_Force_Field>
OPLS_2005

> <r_lp_Energy>
17.243

> <b_lp_Chiralities_Consistent>
1

> <s_lp_Variant>
AV-unprocessed.smi:2953-4

> <Gold.Version>
5.8.1

> <Gold.Id.Protein>
6NUR|6NUR_protein|mol2

> <Gold.PLP.Fitness>
48.5785

> <Gold.PLP.PLP>
-36.1020

> <Gold.PLP.part.hbond>
-4.0000

> <Gold.PLP.part.metal>
0.0000

> <Gold.PLP.part.buried>
-2.2996

> <Gold.PLP.part.nonpolar>
-29.8702

> <Gold.PLP.part.repulsive>
0.0622

> <Gold.PLP.ligand.clash>
0.0000

> <Gold.PLP.ligand.torsion>
0.2258

> <Gold.PLP.Chemscore.Hbond>
4.2854

> <Gold.PLP.Chemscore.CHOScore>
0.0000

> <Gold.PLP.Chemscore.Metal>
0.0000

> <Gold.Chemscore.Hbonds>
donor molecule, donor type, donor heavy atom, donor atom, acceptor molecule, acceptor atom, score
      L1  H    15    40       P1  7948  1.00
      L1  H    18    46       P1  7948  1.92
      P1  H  6931  6943       L1     8  0.69
      P1  H  6934  6947       L1     8  0.58

> <Gold.PLP.Chemscore.Internal.Correction>
0.0720

> <Gold.Rescore>
     Score         DG    S(hbond)    S(metal)    S(lipo)     H(rot)  DE(clash)    DE(int)     intcor
     19.06     -19.40       2.94        0.00      85.86       2.32       0.03       0.32       ----

> <Gold.Chemscore.Fitness>
19.0590

> <Gold.Chemscore.DG>
-19.4040

> <Gold.Chemscore.ZeroCoef>
-5.4800

> <Gold.Chemscore.Hbond>
2.9412

> <Gold.Chemscore.Metal>
0.0000

> <Gold.Chemscore.Lipo>
85.8582

> <Gold.Chemscore.Internal_Hbond>
0.0000

> <Gold.Chemscore.DEClash>
0.0254

> <Gold.Chemscore.DEInternal>
0.3196

> <Gold.Chemscore.Rot>
2.3223

> <Gold.Chemscore.Internal.Correction>
   9.000000E+99

> <Gold.Chemscore.Hbonds>
donor molecule, donor type, donor heavy atom, donor atom, acceptor molecule, acceptor atom, score
      L1  H    15    40       P1  7948  0.99
      L1  H    18    46       P1  7948  0.91
      P1  H  6931  6943       L1     8  0.37
      P1  H  6934  6947       L1     8  0.51

> <Gold.Chemscore.Hbond.Weighted>
-9.8236

> <Gold.Chemscore.Metal.Weighted>
-0.0000

> <Gold.Chemscore.Lipo.Weighted>
-10.0454

> <Gold.Chemscore.Internal_Hbond.Weighted>
0.0000

> <Gold.Chemscore.DEClash.Weighted>
0.0254

> <Gold.Chemscore.DEInternal.Weighted>
0.3196

> <Gold.Chemscore.Rot.Weighted>
5.9450

> <Gold.Chemscore.Internal.Correction.Weighted>
   9.000000E+99

> <Gold.Protein.RotatedTorsions>
[ 6907 6896 6895 6894 ] final   75.53 input  -60.11 | X-H torsion
[ 7974 7965 7964 7962 ] final  158.25 input  175.53 | X-H torsion
[ 8008 7997 7996 7995 ] final -172.68 input   59.86 | X-H torsion
[ 10167 10162 10161 10158 ] final -118.58 input  -65.29 | X-H torsion
[ 10718 10713 10712 10709 ] final   27.31 input   66.30 | X-H torsion
[ 10763 10752 10751 10750 ] final   18.65 input  -60.55 | X-H torsion
[ 11005 11000 10999 10996 ] final   10.48 input  -57.11 | X-H torsion

> <Gold.Protein.ActiveResidues>
 VAL166  LYS551  ARG553  GLY616  TRP617  ASP618  TYR619  PRO620  LYS621  CYS622 
 ASP623  PHE694  ASN695  SER759  ASP760  ASP761  ALA762  ILE779  LEU786  VAL792 
 PHE793  MET794  SER795  GLU796  ALA797  LYS798  CYS799  TRP800  GLU811  SER814 

> <Gold.Protein.RotatedAtoms>
  152.5030  134.4107  159.9447 H   0  0  0  0  0  0  0  0  0  0  0  0  # atno 6907 bound_to 6896
  151.4075  133.3732  159.2747 H   0  0  0  0  0  0  0  0  0  0  0  0  # atno 6908 bound_to 6896
  150.9316  134.8752  159.7614 H   0  0  0  0  0  0  0  0  0  0  0  0  # atno 6909 bound_to 6896
  144.7856  139.7453  143.6242 H   0  0  0  0  0  0  0  0  0  0  0  0  # atno 7974 bound_to 7965
  155.9478  140.1120  157.1002 H   0  0  0  0  0  0  0  0  0  0  0  0  # atno 8008 bound_to 7997
  154.4103  140.1206  156.5078 H   0  0  0  0  0  0  0  0  0  0  0  0  # atno 8009 bound_to 7997
  155.6881  140.3473  155.4884 H   0  0  0  0  0  0  0  0  0  0  0  0  # atno 8010 bound_to 7997
  140.0560  143.5014  152.2057 H   0  0  0  0  0  0  0  0  0  0  0  0  # atno 10167 bound_to 10162
  157.2185  130.6968  149.6260 H   0  0  0  0  0  0  0  0  0  0  0  0  # atno 10718 bound_to 10713
  153.1231  135.6723  153.9303 H   0  0  0  0  0  0  0  0  0  0  0  0  # atno 10763 bound_to 10752
  153.8812  135.3058  155.3446 H   0  0  0  0  0  0  0  0  0  0  0  0  # atno 10764 bound_to 10752
  154.7640  135.4974  153.9598 H   0  0  0  0  0  0  0  0  0  0  0  0  # atno 10765 bound_to 10752
  140.5140  134.0624  155.7826 H   0  0  0  0  0  0  0  0  0  0  0  0  # atno 11005 bound_to 11000
  146.2086  139.5427  142.9696 LP  0  0  0  0  0  0  0  0  0  0  0  0  # atno 17320 bound_to 7965
  145.5931  141.0367  143.2059 LP  0  0  0  0  0  0  0  0  0  0  0  0  # atno 17321 bound_to 7965
  139.5923  144.7554  151.3370 LP  0  0  0  0  0  0  0  0  0  0  0  0  # atno 17342 bound_to 10162
  140.7194  143.7176  150.7720 LP  0  0  0  0  0  0  0  0  0  0  0  0  # atno 17343 bound_to 10162
  155.9684  130.4527  150.5786 LP  0  0  0  0  0  0  0  0  0  0  0  0  # atno 17370 bound_to 10713
  157.3600  131.0748  151.1644 LP  0  0  0  0  0  0  0  0  0  0  0  0  # atno 17371 bound_to 10713
  141.1370  133.9204  157.2412 LP  0  0  0  0  0  0  0  0  0  0  0  0  # atno 17394 bound_to 11000
  139.9643  135.0146  156.9344 LP  0  0  0  0  0  0  0  0  0  0  0  0  # atno 17395 bound_to 11000

$$$$
