AV-unprocessed.smi:1831|AV-procd|sdf|7458|dock2
  -GOLD-   22720 9153D 1   1.00000     0.00000
 Structure written by MMmdl.
 41 42  0  0  0  0  0  0  0  0  2 V2000
  151.9403  142.1840  156.5590 C   0  0  0  0  0  0  0  0  0  0  0  0
  151.4655  141.0308  155.7431 C   0  0  0  0  0  0  0  0  0  0  0  0
  152.3035  140.1490  155.1852 N   0  0  0  0  0  0  0  0  0  0  0  0
  151.6335  139.1648  154.4724 N   0  0  0  0  0  0  0  0  0  0  0  0
  150.3049  139.3349  154.5133 C   0  0  0  0  0  0  0  0  0  0  0  0
  149.3789  138.4716  153.8693 N   0  0  0  0  0  0  0  0  0  0  0  0
  148.0744  138.2965  154.1451 C   0  0  0  0  0  0  0  0  0  0  0  0
  147.4482  138.8800  155.0300 O   0  0  0  0  0  0  0  0  0  0  0  0
  147.5196  137.3953  153.3228 N   0  0  0  0  0  0  0  0  0  0  0  0
  146.1136  137.0096  153.3504 C   0  0  0  0  0  0  0  0  0  0  0  0
  145.6761  136.3964  152.0100 C   0  0  2  0  0  0  0  0  0  0  0  0
  144.1912  136.0463  151.9484 C   0  0  0  0  0  0  0  0  0  0  0  0
  144.0934  134.9339  150.8964 C   0  0  0  0  0  0  0  0  0  0  0  0
  145.4733  134.4474  150.6420 N   0  3  2  0  0  0  0  0  0  0  0  0
  145.6066  132.9717  150.4807 C   0  0  0  0  0  0  0  0  0  0  0  0
  144.8843  132.4683  149.2163 C   0  0  0  0  0  0  0  0  0  0  0  0
  145.0599  132.2276  151.7137 C   0  0  0  0  0  0  0  0  0  0  0  0
  146.3374  135.0589  151.6756 C   0  0  0  0  0  0  0  0  0  0  0  0
  149.7603  140.7284  155.4311 S   0  0  0  0  0  0  0  0  0  0  0  0
  152.7662  141.8780  157.2017 H   0  0  0  0  0  0  0  0  0  0  0  0
  151.1332  142.5623  157.1864 H   0  0  0  0  0  0  0  0  0  0  0  0
  152.2821  142.9864  155.9054 H   0  0  0  0  0  0  0  0  0  0  0  0
  149.7533  137.9309  153.1041 H   0  0  0  0  0  0  0  0  0  0  0  0
  148.1020  136.9671  152.6179 H   0  0  0  0  0  0  0  0  0  0  0  0
  145.9337  136.2981  154.1585 H   0  0  0  0  0  0  0  0  0  0  0  0
  145.5151  137.8949  153.5692 H   0  0  0  0  0  0  0  0  0  0  0  0
  145.8933  137.1006  151.2046 H   0  0  0  0  0  0  0  0  0  0  0  0
  143.8567  135.6613  152.9129 H   0  0  0  0  0  0  0  0  0  0  0  0
  143.5693  136.9085  151.7050 H   0  0  0  0  0  0  0  0  0  0  0  0
  143.4397  134.1402  151.2614 H   0  0  0  0  0  0  0  0  0  0  0  0
  143.6719  135.3085  149.9632 H   0  0  0  0  0  0  0  0  0  0  0  0
  146.6671  132.7356  150.3791 H   0  0  0  0  0  0  0  0  0  0  0  0
  144.9494  131.3828  149.1363 H   0  0  0  0  0  0  0  0  0  0  0  0
  145.3208  132.8763  148.3044 H   0  0  0  0  0  0  0  0  0  0  0  0
  143.8266  132.7338  149.2311 H   0  0  0  0  0  0  0  0  0  0  0  0
  145.1366  131.1476  151.5837 H   0  0  0  0  0  0  0  0  0  0  0  0
  144.0091  132.4642  151.8844 H   0  0  0  0  0  0  0  0  0  0  0  0
  145.6082  132.4761  152.6222 H   0  0  0  0  0  0  0  0  0  0  0  0
  147.3611  135.1852  151.3219 H   0  0  0  0  0  0  0  0  0  0  0  0
  146.3592  134.4201  152.5606 H   0  0  0  0  0  0  0  0  0  0  0  0
  145.7566  134.8654  149.7671 H   0  0  0  0  0  0  0  0  0  0  0  0
  1  2  1  0  0  0  0
  1 20  1  0  0  0  0
  1 21  1  0  0  0  0
  1 22  1  0  0  0  0
  2 19  1  0  0  0  0
  2  3  2  0  0  0  0
  3  4  1  0  0  0  0
  4  5  2  0  0  0  0
  5  6  1  0  0  0  0
  5 19  1  0  0  0  0
  6  7  1  0  0  0  0
  6 23  1  0  0  0  0
  7  8  2  0  0  0  0
  7  9  1  0  0  0  0
  9 10  1  0  0  0  0
  9 24  1  0  0  0  0
 10 11  1  0  0  0  0
 10 25  1  0  0  0  0
 10 26  1  0  0  0  0
 11 18  1  0  0  0  0
 11 12  1  0  0  0  0
 11 27  1  0  0  0  0
 12 13  1  0  0  0  0
 12 28  1  0  0  0  0
 12 29  1  0  0  0  0
 13 14  1  0  0  0  0
 13 30  1  0  0  0  0
 13 31  1  0  0  0  0
 14 15  1  0  0  0  0
 14 18  1  0  0  0  0
 14 41  1  0  0  0  0
 15 16  1  0  0  0  0
 15 17  1  0  0  0  0
 15 32  1  0  0  0  0
 16 33  1  0  0  0  0
 16 34  1  0  0  0  0
 16 35  1  0  0  0  0
 17 36  1  0  0  0  0
 17 37  1  0  0  0  0
 17 38  1  0  0  0  0
 18 39  1  0  0  0  0
 18 40  1  0  0  0  0
M  CHG  1  14   1
M  END
> <s_m_source_file>
AV-unprocessed.smi

> <i_m_source_file_index>
1831

> <i_lp_mmshare_version>
43012

> <i_f3d_flags>
0

> <s_epik_input>
W0NIM11jMW5uYyhzMSlbTkhdQyg9TylbTkhdW0NIMl1bQ0BASF0yW0NIMl1bQ0gyXU4oW0NIMl0yKVtDSF0oW0NIM10pW0NIM10=

> <s_epik_cmdline>
J2VwaWtfcHl0aG9uJywgJy1waCcsICc3LjAnLCAnLXRuJywgJzgnLCAnLW1hJywgJzIwMCcsICctbWV0YWxfYmluZGluZycsICctaW1hZScsICc8aW5maWxlLm1hZT4nLCAnLW9tYWUnLCAnPG91dGZpbGUubWFlPic=

> <r_lp_tautomer_probability>
1

> <r_epik_Ionization_Penalty>
0.00080807

> <r_epik_Ionization_Penalty_Charging>
0.000218981

> <r_epik_Ionization_Penalty_Neutral>
0.00058909

> <r_epik_State_Penalty>
-0

> <r_epik_Charging_Adjusted_Penalty>
0.000218981

> <i_epik_Tot_Q>
1

> <i_epik_Tot_abs_Q>
1

> <r_epik_Metal_State_Penalty>
0.236062

> <b_epik_Metal_Only>
0

> <s_lp_Force_Field>
OPLS_2005

> <r_lp_Energy>
30.7631

> <b_lp_Chiralities_Consistent>
1

> <s_lp_Variant>
AV-unprocessed.smi:1831-3

> <Gold.Version>
5.8.1

> <Gold.Id.Protein>
6NUR|6NUR_protein|mol2

> <Gold.PLP.Fitness>
38.9305

> <Gold.PLP.PLP>
-31.1452

> <Gold.PLP.part.hbond>
-5.4826

> <Gold.PLP.part.metal>
0.0000

> <Gold.PLP.part.buried>
-2.8683

> <Gold.PLP.part.nonpolar>
-24.3663

> <Gold.PLP.part.repulsive>
0.3531

> <Gold.PLP.ligand.clash>
0.0000

> <Gold.PLP.ligand.torsion>
0.3251

> <Gold.PLP.Chemscore.Hbond>
2.7993

> <Gold.PLP.Chemscore.CHOScore>
0.0000

> <Gold.PLP.Chemscore.Metal>
0.0000

> <Gold.Chemscore.Hbonds>
donor molecule, donor type, donor heavy atom, donor atom, acceptor molecule, acceptor atom, score
      L1  H     6    23       P1  7948  0.39
      L1  H     9    24       P1  7948  0.55
      L1  H    14    41       P1  7921  0.67
      P1  H  7997  8008       L1     3  0.37

> <Gold.PLP.Chemscore.Internal.Correction>
0.0376

> <Gold.Rescore>
     Score         DG    S(hbond)    S(metal)    S(lipo)     H(rot)  DE(clash)    DE(int)     intcor
     18.16     -19.33       2.67        0.00      76.00       1.54       0.11       1.06       ----

> <Gold.Chemscore.Fitness>
18.1617

> <Gold.Chemscore.DG>
-19.3331

> <Gold.Chemscore.ZeroCoef>
-5.4800

> <Gold.Chemscore.Hbond>
2.6653

> <Gold.Chemscore.Metal>
0.0000

> <Gold.Chemscore.Lipo>
76.0029

> <Gold.Chemscore.Internal_Hbond>
0.0000

> <Gold.Chemscore.DEClash>
0.1136

> <Gold.Chemscore.DEInternal>
1.0579

> <Gold.Chemscore.Rot>
1.5396

> <Gold.Chemscore.Internal.Correction>
   9.000000E+99

> <Gold.Chemscore.Hbonds>
donor molecule, donor type, donor heavy atom, donor atom, acceptor molecule, acceptor atom, score
      L1  H     6    23       P1  7948  0.26
      L1  H     9    24       P1  7948  0.54
      L1  H    14    41       P1  7921  0.59
      P1  H  7997  8008       L1     3  0.35

> <Gold.Chemscore.Hbond.Weighted>
-8.9021

> <Gold.Chemscore.Metal.Weighted>
-0.0000

> <Gold.Chemscore.Lipo.Weighted>
-8.8923

> <Gold.Chemscore.Internal_Hbond.Weighted>
0.0000

> <Gold.Chemscore.DEClash.Weighted>
0.1136

> <Gold.Chemscore.DEInternal.Weighted>
1.0579

> <Gold.Chemscore.Rot.Weighted>
3.9413

> <Gold.Chemscore.Internal.Correction.Weighted>
   9.000000E+99

> <Gold.Protein.RotatedTorsions>
[ 6907 6896 6895 6894 ] final   67.35 input  -60.11 | X-H torsion
[ 7974 7965 7964 7962 ] final   42.60 input  175.53 | X-H torsion
[ 8008 7997 7996 7995 ] final  -10.04 input   59.86 | X-H torsion
[ 10167 10162 10161 10158 ] final  -65.10 input  -65.29 | X-H torsion
[ 10718 10713 10712 10709 ] final  -60.20 input   66.30 | X-H torsion
[ 10763 10752 10751 10750 ] final -114.01 input  -60.55 | X-H torsion
[ 11005 11000 10999 10996 ] final -105.13 input  -57.11 | X-H torsion

> <Gold.Protein.ActiveResidues>
 VAL166  LYS551  ARG553  GLY616  TRP617  ASP618  TYR619  PRO620  LYS621  CYS622 
 ASP623  PHE694  ASN695  SER759  ASP760  ASP761  ALA762  ILE779  LEU786  VAL792 
 PHE793  MET794  SER795  GLU796  ALA797  LYS798  CYS799  TRP800  GLU811  SER814 

> <Gold.Protein.RotatedAtoms>
  152.4545  134.5321  159.9813 H   0  0  0  0  0  0  0  0  0  0  0  0  # atno 6907 bound_to 6896
  151.5385  133.3431  159.2939 H   0  0  0  0  0  0  0  0  0  0  0  0  # atno 6908 bound_to 6896
  150.8485  134.7833  159.7052 H   0  0  0  0  0  0  0  0  0  0  0  0  # atno 6909 bound_to 6896
  146.0726  139.5281  142.9588 H   0  0  0  0  0  0  0  0  0  0  0  0  # atno 7974 bound_to 7965
  154.5591  140.2339  155.8363 H   0  0  0  0  0  0  0  0  0  0  0  0  # atno 8008 bound_to 7997
  156.2014  140.3051  155.9494 H   0  0  0  0  0  0  0  0  0  0  0  0  # atno 8009 bound_to 7997
  155.2923  140.0427  157.3014 H   0  0  0  0  0  0  0  0  0  0  0  0  # atno 8010 bound_to 7997
  140.5753  143.2321  151.6454 H   0  0  0  0  0  0  0  0  0  0  0  0  # atno 10167 bound_to 10162
  156.1007  130.4186  150.0821 H   0  0  0  0  0  0  0  0  0  0  0  0  # atno 10718 bound_to 10713
  154.8421  135.4433  154.1439 H   0  0  0  0  0  0  0  0  0  0  0  0  # atno 10763 bound_to 10752
  153.2617  135.6937  153.7577 H   0  0  0  0  0  0  0  0  0  0  0  0  # atno 10764 bound_to 10752
  153.6851  135.3396  155.3163 H   0  0  0  0  0  0  0  0  0  0  0  0  # atno 10765 bound_to 10752
  141.1068  133.8782  157.1696 H   0  0  0  0  0  0  0  0  0  0  0  0  # atno 11005 bound_to 11000
  145.6363  141.0293  143.1836 LP  0  0  0  0  0  0  0  0  0  0  0  0  # atno 17320 bound_to 7965
  144.7241  139.7932  143.7371 LP  0  0  0  0  0  0  0  0  0  0  0  0  # atno 17321 bound_to 7965
  139.5139  144.3426  152.0726 LP  0  0  0  0  0  0  0  0  0  0  0  0  # atno 17342 bound_to 10162
  140.2569  144.4109  150.6200 LP  0  0  0  0  0  0  0  0  0  0  0  0  # atno 17343 bound_to 10162
  156.8809  130.9556  151.3599 LP  0  0  0  0  0  0  0  0  0  0  0  0  # atno 17370 bound_to 10713
  157.6177  130.8631  149.9055 LP  0  0  0  0  0  0  0  0  0  0  0  0  # atno 17371 bound_to 10713
  139.9942  135.0053  157.0044 LP  0  0  0  0  0  0  0  0  0  0  0  0  # atno 17394 bound_to 11000
  140.4881  134.1221  155.7228 LP  0  0  0  0  0  0  0  0  0  0  0  0  # atno 17395 bound_to 11000

$$$$
