AV-unprocessed.smi:2563|AV-procd|sdf|10059|dock2
  -GOLD-   2272014 93D 1   1.00000     0.00000
 Structure written by MMmdl.
 36 37  0  0  0  0  0  0  0  0  3 V2000
  151.4884  138.7923  156.3067 C   0  0  0  0  0  0  0  0  0  0  0  0
  151.8687  140.2444  155.9786 C   0  0  0  0  0  0  0  0  0  0  0  0
  150.8397  141.2045  156.3765 N   0  0  0  0  0  0  0  0  0  0  0  0
  149.4509  140.7349  156.3907 C   0  0  0  0  0  0  0  0  0  0  0  0
  148.8522  140.5506  154.9805 C   0  0  1  0  0  0  0  0  0  0  0  0
  149.0888  139.1192  154.4552 C   0  0  0  0  0  0  0  0  0  0  0  0
  148.4510  138.9403  153.1354 N   0  3  0  0  0  0  0  0  0  0  0  0
  147.0163  139.2812  153.1746 C   0  0  0  0  0  0  0  0  0  0  0  0
  146.8289  140.6967  153.7432 C   0  0  0  0  0  0  0  0  0  0  0  0
  147.4446  140.7743  155.0244 O   0  0  0  0  0  0  0  0  0  0  0  0
  151.2570  142.1307  157.3570 C   0  0  0  0  0  0  0  0  0  0  0  0
  152.0957  141.7487  158.4288 C   0  0  0  0  0  0  0  0  0  0  0  0
  152.4625  142.7182  159.3772 C   0  0  0  0  0  0  0  0  0  0  0  0
  151.9652  144.0209  159.2009 C   0  0  0  0  0  0  0  0  0  0  0  0
  151.1602  144.3720  158.1744 N   0  0  0  0  0  0  0  0  0  0  0  0
  150.8261  143.4196  157.2870 N   0  3  0  0  0  0  0  0  0  0  0  0
  152.2696  138.1072  155.9772 H   0  0  0  0  0  0  0  0  0  0  0  0
  150.5628  138.4991  155.8104 H   0  0  0  0  0  0  0  0  0  0  0  0
  151.3557  138.6462  157.3793 H   0  0  0  0  0  0  0  0  0  0  0  0
  152.8238  140.4884  156.4429 H   0  0  0  0  0  0  0  0  0  0  0  0
  152.0341  140.3390  154.9051 H   0  0  0  0  0  0  0  0  0  0  0  0
  149.4354  139.7687  156.8965 H   0  0  0  0  0  0  0  0  0  0  0  0
  148.8231  141.3904  156.9954 H   0  0  0  0  0  0  0  0  0  0  0  0
  149.3178  141.2650  154.2989 H   0  0  0  0  0  0  0  0  0  0  0  0
  150.1557  138.9139  154.3628 H   0  0  0  0  0  0  0  0  0  0  0  0
  148.6793  138.3853  155.1511 H   0  0  0  0  0  0  0  0  0  0  0  0
  148.9092  139.5446  152.4682 H   0  0  0  0  0  0  0  0  0  0  0  0
  146.5974  139.2095  152.1706 H   0  0  0  0  0  0  0  0  0  0  0  0
  146.4919  138.5535  153.7954 H   0  0  0  0  0  0  0  0  0  0  0  0
  147.2533  141.4481  153.0754 H   0  0  0  0  0  0  0  0  0  0  0  0
  145.7677  140.9238  153.8460 H   0  0  0  0  0  0  0  0  0  0  0  0
  152.4627  140.7371  158.5224 H   0  0  0  0  0  0  0  0  0  0  0  0
  153.1046  142.4735  160.2104 H   0  0  0  0  0  0  0  0  0  0  0  0
  152.2191  144.8033  159.9011 H   0  0  0  0  0  0  0  0  0  0  0  0
  148.5594  137.9812  152.8363 H   0  0  0  0  0  0  0  0  0  0  0  0
  150.2147  143.6782  156.5125 H   0  0  0  0  0  0  0  0  0  0  0  0
  1  2  1  0  0  0  0
  1 17  1  0  0  0  0
  1 18  1  0  0  0  0
  1 19  1  0  0  0  0
  2  3  1  0  0  0  0
  2 20  1  0  0  0  0
  2 21  1  0  0  0  0
  3  4  1  0  0  0  0
  3 11  1  0  0  0  0
  4  5  1  0  0  0  0
  4 22  1  0  0  0  0
  4 23  1  0  0  0  0
  5 10  1  0  0  0  0
  5  6  1  0  0  0  0
  5 24  1  0  0  0  0
  6  7  1  0  0  0  0
  6 25  1  0  0  0  0
  6 26  1  0  0  0  0
  7  8  1  0  0  0  0
  7 27  1  0  0  0  0
  7 35  1  0  0  0  0
  8  9  1  0  0  0  0
  8 28  1  0  0  0  0
  8 29  1  0  0  0  0
  9 10  1  0  0  0  0
  9 30  1  0  0  0  0
  9 31  1  0  0  0  0
 11 16  1  0  0  0  0
 11 12  2  0  0  0  0
 12 13  1  0  0  0  0
 12 32  1  0  0  0  0
 13 14  2  0  0  0  0
 13 33  1  0  0  0  0
 14 15  1  0  0  0  0
 14 34  1  0  0  0  0
 15 16  2  0  0  0  0
 16 36  1  0  0  0  0
M  CHG  1   7   1
M  CHG  1  16   1
M  END
> <s_m_source_file>
AV-unprocessed.smi

> <i_m_source_file_index>
2563

> <i_lp_mmshare_version>
43012

> <i_f3d_flags>
0

> <s_epik_input>
bjFuW2NIXVtjSF1bY0hdYzFOKFtDSDJdW0NIM10pW0NIMl1bQ0BASF0yW0NIMl1bTkhdW0NIMl1bQ0gyXU8y

> <s_epik_cmdline>
J2VwaWtfcHl0aG9uJywgJy1waCcsICc3LjAnLCAnLXRuJywgJzgnLCAnLW1hJywgJzIwMCcsICctbWV0YWxfYmluZGluZycsICctaW1hZScsICc8aW5maWxlLm1hZT4nLCAnLW9tYWUnLCAnPG91dGZpbGUubWFlPic=

> <r_lp_tautomer_probability>
0.966961

> <r_epik_Ionization_Penalty>
1.93862

> <r_epik_Ionization_Penalty_Charging>
1.93862

> <r_epik_Ionization_Penalty_Neutral>
1.19718e-14

> <r_epik_State_Penalty>
1.51688

> <r_epik_Charging_Adjusted_Penalty>
3.4555

> <i_epik_Tot_Q>
2

> <i_epik_Tot_abs_Q>
2

> <r_epik_Metal_State_Penalty>
1.53359

> <b_epik_Metal_Only>
0

> <s_lp_Force_Field>
OPLS_2005

> <r_lp_Energy>
34.4736

> <b_lp_Chiralities_Consistent>
1

> <s_lp_Variant>
AV-unprocessed.smi:2563-4

> <Gold.Version>
5.8.1

> <Gold.Id.Protein>
6NUR|6NUR_protein|mol2

> <Gold.PLP.Fitness>
43.8616

> <Gold.PLP.PLP>
-31.5217

> <Gold.PLP.part.hbond>
-2.9050

> <Gold.PLP.part.metal>
0.0000

> <Gold.PLP.part.buried>
-6.1019

> <Gold.PLP.part.nonpolar>
-24.3417

> <Gold.PLP.part.repulsive>
0.3274

> <Gold.PLP.ligand.clash>
0.0000

> <Gold.PLP.ligand.torsion>
1.7694

> <Gold.PLP.Chemscore.Hbond>
5.0000

> <Gold.PLP.Chemscore.CHOScore>
0.0000

> <Gold.PLP.Chemscore.Metal>
0.0000

> <Gold.Chemscore.Hbonds>
donor molecule, donor type, donor heavy atom, donor atom, acceptor molecule, acceptor atom, score
      L1  H     7    27       P1  7957  1.00
      L1  H     7    35       P1  7948  2.00
      L1  H    16    36       P1  8028  2.00

> <Gold.PLP.Chemscore.Internal.Correction>
0.8786

> <Gold.Rescore>
     Score         DG    S(hbond)    S(metal)    S(lipo)     H(rot)  DE(clash)    DE(int)     intcor
     18.59     -20.25       2.92        0.00      74.20       1.44       0.04       1.62       ----

> <Gold.Chemscore.Fitness>
18.5903

> <Gold.Chemscore.DG>
-20.2462

> <Gold.Chemscore.ZeroCoef>
-5.4800

> <Gold.Chemscore.Hbond>
2.9242

> <Gold.Chemscore.Metal>
0.0000

> <Gold.Chemscore.Lipo>
74.2014

> <Gold.Chemscore.Internal_Hbond>
0.0000

> <Gold.Chemscore.DEClash>
0.0368

> <Gold.Chemscore.DEInternal>
1.6191

> <Gold.Chemscore.Rot>
1.4384

> <Gold.Chemscore.Internal.Correction>
   9.000000E+99

> <Gold.Chemscore.Hbonds>
donor molecule, donor type, donor heavy atom, donor atom, acceptor molecule, acceptor atom, score
      L1  H     7    27       P1  7957  0.96
      L1  H     7    35       P1  7948  0.94
      L1  H    16    36       P1  8028  0.97

> <Gold.Chemscore.Hbond.Weighted>
-9.7669

> <Gold.Chemscore.Metal.Weighted>
-0.0000

> <Gold.Chemscore.Lipo.Weighted>
-8.6816

> <Gold.Chemscore.Internal_Hbond.Weighted>
0.0000

> <Gold.Chemscore.DEClash.Weighted>
0.0368

> <Gold.Chemscore.DEInternal.Weighted>
1.6191

> <Gold.Chemscore.Rot.Weighted>
3.6822

> <Gold.Chemscore.Internal.Correction.Weighted>
   9.000000E+99

> <Gold.Protein.RotatedTorsions>
[ 6907 6896 6895 6894 ] final  -18.54 input  -60.11 | X-H torsion
[ 7974 7965 7964 7962 ] final   73.16 input  175.53 | X-H torsion
[ 8008 7997 7996 7995 ] final -156.27 input   59.86 | X-H torsion
[ 10167 10162 10161 10158 ] final  -44.02 input  -65.29 | X-H torsion
[ 10718 10713 10712 10709 ] final -179.52 input   66.30 | X-H torsion
[ 10763 10752 10751 10750 ] final  133.25 input  -60.55 | X-H torsion
[ 11005 11000 10999 10996 ] final  143.18 input  -57.11 | X-H torsion

> <Gold.Protein.ActiveResidues>
 VAL166  LYS551  ARG553  GLY616  TRP617  ASP618  TYR619  PRO620  LYS621  CYS622 
 ASP623  PHE694  ASN695  SER759  ASP760  ASP761  ALA762  ILE779  LEU786  VAL792 
 PHE793  MET794  SER795  GLU796  ALA797  LYS798  CYS799  TRP800  GLU811  SER814 

> <Gold.Protein.RotatedAtoms>
  151.2767  135.0701  159.9153 H   0  0  0  0  0  0  0  0  0  0  0  0  # atno 6907 bound_to 6896
  152.5341  134.0074  159.7933 H   0  0  0  0  0  0  0  0  0  0  0  0  # atno 6908 bound_to 6896
  151.0321  133.5731  159.2690 H   0  0  0  0  0  0  0  0  0  0  0  0  # atno 6909 bound_to 6896
  145.7444  139.2734  143.1468 H   0  0  0  0  0  0  0  0  0  0  0  0  # atno 7974 bound_to 7965
  155.7147  140.0782  157.2356 H   0  0  0  0  0  0  0  0  0  0  0  0  # atno 8008 bound_to 7997
  154.4053  140.1623  156.2389 H   0  0  0  0  0  0  0  0  0  0  0  0  # atno 8009 bound_to 7997
  155.9251  140.3395  155.6207 H   0  0  0  0  0  0  0  0  0  0  0  0  # atno 8010 bound_to 7997
  140.6912  143.2952  151.3435 H   0  0  0  0  0  0  0  0  0  0  0  0  # atno 10167 bound_to 10162
  156.8603  130.9749  151.3084 H   0  0  0  0  0  0  0  0  0  0  0  0  # atno 10718 bound_to 10713
  153.8041  135.3138  155.3393 H   0  0  0  0  0  0  0  0  0  0  0  0  # atno 10763 bound_to 10752
  154.8077  135.4687  154.0439 H   0  0  0  0  0  0  0  0  0  0  0  0  # atno 10764 bound_to 10752
  153.1796  135.6891  153.8584 H   0  0  0  0  0  0  0  0  0  0  0  0  # atno 10765 bound_to 10752
  140.0534  134.9243  157.1057 H   0  0  0  0  0  0  0  0  0  0  0  0  # atno 11005 bound_to 11000
  146.0417  140.8158  142.9825 LP  0  0  0  0  0  0  0  0  0  0  0  0  # atno 17320 bound_to 7965
  144.6863  140.2920  143.7276 LP  0  0  0  0  0  0  0  0  0  0  0  0  # atno 17321 bound_to 7965
  139.6318  144.0707  152.2482 LP  0  0  0  0  0  0  0  0  0  0  0  0  # atno 17342 bound_to 10162
  140.0184  144.6172  150.7588 LP  0  0  0  0  0  0  0  0  0  0  0  0  # atno 17343 bound_to 10162
  157.6254  130.8687  149.9180 LP  0  0  0  0  0  0  0  0  0  0  0  0  # atno 17370 bound_to 10713
  156.0780  130.3676  150.0637 LP  0  0  0  0  0  0  0  0  0  0  0  0  # atno 17371 bound_to 10713
  140.3882  134.2213  155.7167 LP  0  0  0  0  0  0  0  0  0  0  0  0  # atno 17394 bound_to 11000
  141.1941  133.8136  157.0772 LP  0  0  0  0  0  0  0  0  0  0  0  0  # atno 17395 bound_to 11000

$$$$
