AV-unprocessed.smi:35|AV-procd|sdf|251|dock8
  -GOLD-   2262016 13D 1   1.00000     0.00000
 Structure written by MMmdl.
 29 30  0  0  0  0  0  0  0  0  1 V2000
  140.5132  135.0800  153.8434 O   0  0  0  0  0  0  0  0  0  0  0  0
  141.6469  135.4232  153.5160 C   0  0  0  0  0  0  0  0  0  0  0  0
  142.6832  134.4870  153.4727 N   0  0  0  0  0  0  0  0  0  0  0  0
  144.0046  134.7568  153.1122 C   0  0  0  0  0  0  0  0  0  0  0  0
  144.8428  133.8560  153.1322 O   0  0  0  0  0  0  0  0  0  0  0  0
  144.3194  136.0825  152.7342 N   0  0  0  0  0  0  0  0  0  0  0  0
  145.7587  136.3999  152.3631 C   0  0  2  0  0  0  0  0  0  0  0  0
  146.5640  136.3625  153.5014 O   0  0  0  0  0  0  0  0  0  0  0  0
  146.6658  137.6690  154.0523 C   0  0  1  0  0  0  0  0  0  0  0  0
  147.8765  137.7469  154.9931 C   0  0  0  0  0  0  0  0  0  0  0  0
  148.9756  137.0732  154.4182 O   0  0  0  0  0  0  0  0  0  0  0  0
  146.8049  138.5282  152.7950 C   0  0  2  0  0  0  0  0  0  0  0  0
  146.3575  139.8454  153.0472 O   0  0  0  0  0  0  0  0  0  0  0  0
  145.8921  137.8304  151.7885 C   0  0  1  0  0  0  0  0  0  0  0  0
  146.4879  137.8281  150.5070 O   0  0  0  0  0  0  0  0  0  0  0  0
  143.3258  137.0549  152.7988 C   0  0  0  0  0  0  0  0  0  0  0  0
  142.0500  136.7779  153.1570 C   0  0  0  0  0  0  0  0  0  0  0  0
  140.7863  138.3036  153.1819 Br  0  0  0  0  0  0  0  0  0  0  0  0
  142.4584  133.5371  153.7308 H   0  0  0  0  0  0  0  0  0  0  0  0
  146.0523  135.6017  151.6781 H   0  0  0  0  0  0  0  0  0  0  0  0
  145.7438  137.9288  154.5765 H   0  0  0  0  0  0  0  0  0  0  0  0
  148.1390  138.7809  155.2188 H   0  0  0  0  0  0  0  0  0  0  0  0
  147.6490  137.2550  155.9392 H   0  0  0  0  0  0  0  0  0  0  0  0
  148.8848  137.0982  153.4779 H   0  0  0  0  0  0  0  0  0  0  0  0
  147.8412  138.5324  152.4524 H   0  0  0  0  0  0  0  0  0  0  0  0
  145.4654  139.9205  152.7442 H   0  0  0  0  0  0  0  0  0  0  0  0
  144.9141  138.3125  151.7429 H   0  0  0  0  0  0  0  0  0  0  0  0
  145.8404  138.1075  149.8773 H   0  0  0  0  0  0  0  0  0  0  0  0
  143.5521  138.0839  152.5650 H   0  0  0  0  0  0  0  0  0  0  0  0
  1  2  2  0  0  0  0
  2 17  1  0  0  0  0
  2  3  1  0  0  0  0
  3 19  1  0  0  0  0
  3  4  1  0  0  0  0
  4  5  2  0  0  0  0
  4  6  1  0  0  0  0
  6  7  1  0  0  0  0
  6 16  1  0  0  0  0
  7 14  1  0  0  0  0
  7  8  1  0  0  0  0
  7 20  1  0  0  0  0
  8  9  1  0  0  0  0
  9 10  1  0  0  0  0
  9 12  1  0  0  0  0
  9 21  1  0  0  0  0
 10 11  1  0  0  0  0
 10 22  1  0  0  0  0
 10 23  1  0  0  0  0
 11 24  1  0  0  0  0
 12 13  1  0  0  0  0
 12 14  1  0  0  0  0
 12 25  1  0  0  0  0
 13 26  1  0  0  0  0
 14 15  1  0  0  0  0
 14 27  1  0  0  0  0
 15 28  1  0  0  0  0
 16 17  2  0  0  0  0
 16 29  1  0  0  0  0
 17 18  1  0  0  0  0
M  END
> <s_m_source_file>
AV-unprocessed.smi

> <i_m_source_file_index>
35

> <i_lp_mmshare_version>
43012

> <i_f3d_flags>
0

> <s_epik_input>
Tz1jMVtuSF1jKD1PKW4oW2NIXWMxQnIpW0NAQEhdMk9bQ0BASF0oW0NIMl1bT0hdKVtDQEBIXShbT0hdKVtDQEhdMltPSF0=

> <s_epik_cmdline>
J2VwaWtfcHl0aG9uJywgJy1waCcsICc3LjAnLCAnLXRuJywgJzgnLCAnLW1hJywgJzIwMCcsICctbWV0YWxfYmluZGluZycsICctaW1hZScsICc8aW5maWxlLm1hZT4nLCAnLW9tYWUnLCAnPG91dGZpbGUubWFlPic=

> <r_lp_tautomer_probability>
0.999537

> <r_epik_Ionization_Penalty>
0.10812

> <r_epik_Ionization_Penalty_Charging>
0.108119

> <r_epik_Ionization_Penalty_Neutral>
4.93006e-07

> <r_epik_State_Penalty>
0.0979238

> <r_epik_Charging_Adjusted_Penalty>
0.206043

> <i_epik_Tot_Q>
0

> <i_epik_Tot_abs_Q>
0

> <r_epik_Metal_State_Penalty>
3.07911

> <b_epik_Metal_Only>
0

> <s_epik_Chemistry_Notes>
This compound contains an acetal/aminal-like group ( X-CH(R)-Y where X, Y are N, S, or O) that may be acid/base labile, releasing an aldehyde.

> <s_lp_Force_Field>
OPLS_2005

> <r_lp_Energy>
25.602

> <b_lp_Chiralities_Consistent>
1

> <s_lp_Variant>
AV-unprocessed.smi:35-5

> <Gold.Version>
5.8.1

> <Gold.Id.Protein>
6NUR|6NUR_protein|mol2

> <Gold.PLP.Fitness>
48.2406

> <Gold.PLP.PLP>
-27.8889

> <Gold.PLP.part.hbond>
-7.6078

> <Gold.PLP.part.metal>
0.0000

> <Gold.PLP.part.buried>
-4.1943

> <Gold.PLP.part.nonpolar>
-17.8874

> <Gold.PLP.part.repulsive>
1.5403

> <Gold.PLP.ligand.clash>
0.0000

> <Gold.PLP.ligand.torsion>
0.3488

> <Gold.PLP.Chemscore.Hbond>
5.7920

> <Gold.PLP.Chemscore.CHOScore>
1.2125

> <Gold.PLP.Chemscore.Metal>
0.0000

> <Gold.Chemscore.Hbonds>
donor molecule, donor type, donor heavy atom, donor atom, acceptor molecule, acceptor atom, score
      L1  H     3    19       P1 10957  0.93
      L1  H    11    24       P1  7948  0.99
      L1  H    13    26       P1 10175  1.00
      L1  H    15    28       P1 10171  0.82
      P1  H  7954  7966       L1    15  0.94
      P1  H 11000 11005       L1     1  0.91
      L1  C    16    29       P1 10171  0.22
      L1  C    16    29       P1 10175  1.00

> <Gold.PLP.Chemscore.Internal.Correction>
0.0359

> <Gold.Rescore>
     Score         DG    S(hbond)    S(metal)    S(lipo)     H(rot)  DE(clash)    DE(int)     intcor
     17.58     -18.45       5.60        0.00      31.33       3.67       0.32       0.55       ----

> <Gold.Chemscore.Fitness>
17.5802

> <Gold.Chemscore.DG>
-18.4496

> <Gold.Chemscore.ZeroCoef>
-5.4800

> <Gold.Chemscore.Hbond>
5.5987

> <Gold.Chemscore.Metal>
0.0000

> <Gold.Chemscore.Lipo>
31.3283

> <Gold.Chemscore.Internal_Hbond>
0.0000

> <Gold.Chemscore.DEClash>
0.3159

> <Gold.Chemscore.DEInternal>
0.5534

> <Gold.Chemscore.Rot>
3.6701

> <Gold.Chemscore.Internal.Correction>
   9.000000E+99

> <Gold.Chemscore.Hbonds>
donor molecule, donor type, donor heavy atom, donor atom, acceptor molecule, acceptor atom, score
      L1  H     3    19       P1 10957  0.88
      L1  H    11    24       P1  7948  0.93
      L1  H    13    26       P1 10175  0.99
      L1  H    15    28       P1 10171  0.78
      P1  H  7954  7966       L1    15  0.78
      P1  H 11000 11005       L1     1  0.84

> <Gold.Chemscore.Hbond.Weighted>
-18.6996

> <Gold.Chemscore.Metal.Weighted>
-0.0000

> <Gold.Chemscore.Lipo.Weighted>
-3.6654

> <Gold.Chemscore.Internal_Hbond.Weighted>
0.0000

> <Gold.Chemscore.DEClash.Weighted>
0.3159

> <Gold.Chemscore.DEInternal.Weighted>
0.5534

> <Gold.Chemscore.Rot.Weighted>
9.3955

> <Gold.Chemscore.Internal.Correction.Weighted>
   9.000000E+99

> <Gold.Protein.RotatedTorsions>
[ 6907 6896 6895 6894 ] final   59.24 input  -60.11 | X-H torsion
[ 7974 7965 7964 7962 ] final  141.69 input  175.53 | X-H torsion
[ 8008 7997 7996 7995 ] final  176.91 input   59.86 | X-H torsion
[ 10167 10162 10161 10158 ] final   37.78 input  -65.29 | X-H torsion
[ 10718 10713 10712 10709 ] final   69.03 input   66.30 | X-H torsion
[ 10763 10752 10751 10750 ] final  134.80 input  -60.55 | X-H torsion
[ 11005 11000 10999 10996 ] final   48.08 input  -57.11 | X-H torsion

> <Gold.Protein.ActiveResidues>
 VAL166  LYS551  ARG553  GLY616  TRP617  ASP618  TYR619  PRO620  LYS621  CYS622 
 ASP623  PHE694  ASN695  SER759  ASP760  ASP761  ALA762  ILE779  LEU786  VAL792 
 PHE793  MET794  SER795  GLU796  ALA797  LYS798  CYS799  TRP800  GLU811  SER814 

> <Gold.Protein.RotatedAtoms>
  152.3897  134.6461  160.0111 H   0  0  0  0  0  0  0  0  0  0  0  0  # atno 6907 bound_to 6896
  151.6699  133.3308  159.3202 H   0  0  0  0  0  0  0  0  0  0  0  0  # atno 6908 bound_to 6896
  150.7815  134.6808  159.6488 H   0  0  0  0  0  0  0  0  0  0  0  0  # atno 6909 bound_to 6896
  144.9074  139.5340  143.5725 H   0  0  0  0  0  0  0  0  0  0  0  0  # atno 7974 bound_to 7965
  156.0714  140.1372  156.9824 H   0  0  0  0  0  0  0  0  0  0  0  0  # atno 8008 bound_to 7997
  154.4534  140.0971  156.6737 H   0  0  0  0  0  0  0  0  0  0  0  0  # atno 8009 bound_to 7997
  155.5222  140.3456  155.4411 H   0  0  0  0  0  0  0  0  0  0  0  0  # atno 8010 bound_to 7997
  140.4000  144.1737  150.6133 H   0  0  0  0  0  0  0  0  0  0  0  0  # atno 10167 bound_to 10162
  157.6323  130.9404  150.0458 H   0  0  0  0  0  0  0  0  0  0  0  0  # atno 10718 bound_to 10713
  153.8296  135.3105  155.3417 H   0  0  0  0  0  0  0  0  0  0  0  0  # atno 10763 bound_to 10752
  154.7979  135.4744  154.0207 H   0  0  0  0  0  0  0  0  0  0  0  0  # atno 10764 bound_to 10752
  153.1643  135.6866  153.8789 H   0  0  0  0  0  0  0  0  0  0  0  0  # atno 10765 bound_to 10752
  140.1222  134.4814  155.8588 H   0  0  0  0  0  0  0  0  0  0  0  0  # atno 11005 bound_to 11000
  146.3140  139.7852  142.8997 LP  0  0  0  0  0  0  0  0  0  0  0  0  # atno 17320 bound_to 7965
  145.3513  141.0308  143.3337 LP  0  0  0  0  0  0  0  0  0  0  0  0  # atno 17321 bound_to 7965
  140.4750  143.2399  151.9036 LP  0  0  0  0  0  0  0  0  0  0  0  0  # atno 17342 bound_to 10162
  139.4785  144.5330  151.8639 LP  0  0  0  0  0  0  0  0  0  0  0  0  # atno 17343 bound_to 10162
  156.1535  130.3643  149.9402 LP  0  0  0  0  0  0  0  0  0  0  0  0  # atno 17370 bound_to 10713
  156.7417  130.9082  151.3632 LP  0  0  0  0  0  0  0  0  0  0  0  0  # atno 17371 bound_to 10713
  141.2154  133.6765  156.6911 LP  0  0  0  0  0  0  0  0  0  0  0  0  # atno 17394 bound_to 11000
  140.2950  134.8210  157.4049 LP  0  0  0  0  0  0  0  0  0  0  0  0  # atno 17395 bound_to 11000

$$$$
