AV-unprocessed.smi:2265|AV-procd|sdf|9146|dock5
  -GOLD-   2272012353D 1   1.00000     0.00000
 Structure written by MMmdl.
 36 37  0  0  0  0  0  0  0  0  1 V2000
  153.3088  142.5719  162.5515 C   0  0  0  0  0  0  0  0  0  0  0  0
  152.5810  142.8371  161.2294 C   0  0  0  0  0  0  0  0  0  0  0  0
  152.0229  144.2641  161.1393 C   0  0  0  0  0  0  0  0  0  0  0  0
  151.3043  144.5199  159.8297 C   0  0  1  0  0  0  0  0  0  0  0  0
  151.7855  145.6028  158.9023 C   0  0  0  0  0  0  0  0  0  0  0  0
  151.9351  144.1486  158.5041 C   0  0  2  0  0  0  0  0  0  0  0  0
  151.0826  143.6894  157.4491 N   0  0  0  0  0  0  0  0  0  0  0  0
  150.9975  142.4501  156.9326 C   0  0  0  0  0  0  0  0  0  0  0  0
  151.7267  141.5479  157.3440 O   0  0  0  0  0  0  0  0  0  0  0  0
  150.0910  142.3292  155.9373 N   0  0  0  0  0  0  0  0  0  0  0  0
  149.7783  141.1934  155.1799 C   0  0  0  0  0  0  0  0  0  0  0  0
  150.5968  140.1908  155.0223 N   0  0  0  0  0  0  0  0  0  0  0  0
  150.2509  139.0732  154.2626 C   0  0  0  0  0  0  0  0  0  0  0  0
  149.0512  138.9937  153.6595 C   0  0  0  0  0  0  0  0  0  0  0  0
  148.1185  140.0332  153.7813 N   0  0  0  0  0  0  0  0  0  0  0  0
  146.8284  139.8941  153.1051 C   0  0  0  0  0  0  0  0  0  0  0  0
  148.3985  141.1430  154.5174 C   0  0  0  0  0  0  0  0  0  0  0  0
  147.6071  142.0768  154.6632 O   0  0  0  0  0  0  0  0  0  0  0  0
  153.7007  141.5549  162.5814 H   0  0  0  0  0  0  0  0  0  0  0  0
  152.6374  142.6952  163.4018 H   0  0  0  0  0  0  0  0  0  0  0  0
  154.1481  143.2556  162.6838 H   0  0  0  0  0  0  0  0  0  0  0  0
  153.2666  142.6595  160.4001 H   0  0  0  0  0  0  0  0  0  0  0  0
  151.7682  142.1184  161.1171 H   0  0  0  0  0  0  0  0  0  0  0  0
  151.3371  144.4488  161.9675 H   0  0  0  0  0  0  0  0  0  0  0  0
  152.8324  144.9884  161.2350 H   0  0  0  0  0  0  0  0  0  0  0  0
  150.2248  144.3927  159.8949 H   0  0  0  0  0  0  0  0  0  0  0  0
  151.0278  146.1980  158.3960 H   0  0  0  0  0  0  0  0  0  0  0  0
  152.6905  146.1412  159.1772 H   0  0  0  0  0  0  0  0  0  0  0  0
  152.9564  143.7716  158.5308 H   0  0  0  0  0  0  0  0  0  0  0  0
  150.5236  144.4003  156.9995 H   0  0  0  0  0  0  0  0  0  0  0  0
  149.5904  143.1744  155.7038 H   0  0  0  0  0  0  0  0  0  0  0  0
  150.9894  138.2887  154.1881 H   0  0  0  0  0  0  0  0  0  0  0  0
  148.7377  138.1489  153.0632 H   0  0  0  0  0  0  0  0  0  0  0  0
  146.6212  140.7654  152.4819 H   0  0  0  0  0  0  0  0  0  0  0  0
  146.0252  139.8001  153.8372 H   0  0  0  0  0  0  0  0  0  0  0  0
  146.7904  139.0177  152.4571 H   0  0  0  0  0  0  0  0  0  0  0  0
  1  2  1  0  0  0  0
  1 19  1  0  0  0  0
  1 20  1  0  0  0  0
  1 21  1  0  0  0  0
  2  3  1  0  0  0  0
  2 22  1  0  0  0  0
  2 23  1  0  0  0  0
  3  4  1  0  0  0  0
  3 24  1  0  0  0  0
  3 25  1  0  0  0  0
  4  6  1  0  0  0  0
  4  5  1  0  0  0  0
  4 26  1  0  0  0  0
  5  6  1  0  0  0  0
  5 27  1  0  0  0  0
  5 28  1  0  0  0  0
  6  7  1  0  0  0  0
  6 29  1  0  0  0  0
  7  8  1  0  0  0  0
  7 30  1  0  0  0  0
  8  9  2  0  0  0  0
  8 10  1  0  0  0  0
 10 11  1  0  0  0  0
 10 31  1  0  0  0  0
 11 17  1  0  0  0  0
 11 12  2  0  0  0  0
 12 13  1  0  0  0  0
 13 14  2  0  0  0  0
 13 32  1  0  0  0  0
 14 15  1  0  0  0  0
 14 33  1  0  0  0  0
 15 16  1  0  0  0  0
 15 17  1  0  0  0  0
 16 34  1  0  0  0  0
 16 35  1  0  0  0  0
 16 36  1  0  0  0  0
 17 18  2  0  0  0  0
M  END
> <s_m_source_file>
AV-unprocessed.smi

> <i_m_source_file_index>
2265

> <i_lp_mmshare_version>
43012

> <i_f3d_flags>
0

> <s_epik_input>
W0NIM11bQ0gyXVtDSDJdW0NAQEhdMVtDSDJdW0NASF0xW05IXUMoPU8pW05IXWMybltjSF1bY0hdbihbQ0gzXSljMj1P

> <s_epik_cmdline>
J2VwaWtfcHl0aG9uJywgJy1waCcsICc3LjAnLCAnLXRuJywgJzgnLCAnLW1hJywgJzIwMCcsICctbWV0YWxfYmluZGluZycsICctaW1hZScsICc8aW5maWxlLm1hZT4nLCAnLW9tYWUnLCAnPG91dGZpbGUubWFlPic=

> <r_lp_tautomer_probability>
1

> <r_epik_Ionization_Penalty>
0.000728552

> <r_epik_Ionization_Penalty_Charging>
1.67739e-07

> <r_epik_Ionization_Penalty_Neutral>
0.000728385

> <r_epik_State_Penalty>
-0

> <r_epik_Charging_Adjusted_Penalty>
1.67739e-07

> <i_epik_Tot_Q>
0

> <i_epik_Tot_abs_Q>
0

> <r_epik_Metal_State_Penalty>
-0

> <b_epik_Metal_Only>
0

> <s_lp_Force_Field>
OPLS_2005

> <r_lp_Energy>
43.0315

> <b_lp_Chiralities_Consistent>
1

> <s_lp_Variant>
AV-unprocessed.smi:2265-4

> <Gold.Version>
5.8.1

> <Gold.Id.Protein>
6NUR|6NUR_protein|mol2

> <Gold.PLP.Fitness>
50.5967

> <Gold.PLP.PLP>
-41.4656

> <Gold.PLP.part.hbond>
-3.0000

> <Gold.PLP.part.metal>
0.0000

> <Gold.PLP.part.buried>
-0.5464

> <Gold.PLP.part.nonpolar>
-38.8658

> <Gold.PLP.part.repulsive>
0.5977

> <Gold.PLP.ligand.clash>
0.0000

> <Gold.PLP.ligand.torsion>
0.5681

> <Gold.PLP.Chemscore.Hbond>
2.2308

> <Gold.PLP.Chemscore.CHOScore>
1.0000

> <Gold.PLP.Chemscore.Metal>
0.0000

> <Gold.Chemscore.Hbonds>
donor molecule, donor type, donor heavy atom, donor atom, acceptor molecule, acceptor atom, score
      L1  H     7    30       P1  8028  0.73
      L1  H    10    31       P1  8028  1.00
      P1  H  7989  7998       L1    12  0.43
      L1  C    14    33       P1  7948  1.00

> <Gold.PLP.Chemscore.Internal.Correction>
0.5750

> <Gold.Rescore>
     Score         DG    S(hbond)    S(metal)    S(lipo)     H(rot)  DE(clash)    DE(int)     intcor
     16.74     -18.61       1.92        0.00      89.34       1.46       0.13       1.74       ----

> <Gold.Chemscore.Fitness>
16.7408

> <Gold.Chemscore.DG>
-18.6102

> <Gold.Chemscore.ZeroCoef>
-5.4800

> <Gold.Chemscore.Hbond>
1.9211

> <Gold.Chemscore.Metal>
0.0000

> <Gold.Chemscore.Lipo>
89.3363

> <Gold.Chemscore.Internal_Hbond>
0.0000

> <Gold.Chemscore.DEClash>
0.1321

> <Gold.Chemscore.DEInternal>
1.7372

> <Gold.Chemscore.Rot>
1.4604

> <Gold.Chemscore.Internal.Correction>
   9.000000E+99

> <Gold.Chemscore.Hbonds>
donor molecule, donor type, donor heavy atom, donor atom, acceptor molecule, acceptor atom, score
      L1  H     7    30       P1  8028  0.63
      L1  H    10    31       P1  8028  1.00

> <Gold.Chemscore.Hbond.Weighted>
-6.4166

> <Gold.Chemscore.Metal.Weighted>
-0.0000

> <Gold.Chemscore.Lipo.Weighted>
-10.4523

> <Gold.Chemscore.Internal_Hbond.Weighted>
0.0000

> <Gold.Chemscore.DEClash.Weighted>
0.1321

> <Gold.Chemscore.DEInternal.Weighted>
1.7372

> <Gold.Chemscore.Rot.Weighted>
3.7387

> <Gold.Chemscore.Internal.Correction.Weighted>
   9.000000E+99

> <Gold.Protein.RotatedTorsions>
[ 6907 6896 6895 6894 ] final  -56.93 input  -60.11 | X-H torsion
[ 7974 7965 7964 7962 ] final -146.60 input  175.53 | X-H torsion
[ 8008 7997 7996 7995 ] final   76.67 input   59.86 | X-H torsion
[ 10167 10162 10161 10158 ] final   28.05 input  -65.29 | X-H torsion
[ 10718 10713 10712 10709 ] final  -77.36 input   66.30 | X-H torsion
[ 10763 10752 10751 10750 ] final -174.83 input  -60.55 | X-H torsion
[ 11005 11000 10999 10996 ] final   37.99 input  -57.11 | X-H torsion

> <Gold.Protein.ActiveResidues>
 VAL166  LYS551  ARG553  GLY616  TRP617  ASP618  TYR619  PRO620  LYS621  CYS622 
 ASP623  PHE694  ASN695  SER759  ASP760  ASP761  ALA762  ILE779  LEU786  VAL792 
 PHE793  MET794  SER795  GLU796  ALA797  LYS798  CYS799  TRP800  GLU811  SER814 

> <Gold.Protein.RotatedAtoms>
  150.8127  134.7292  159.6702 H   0  0  0  0  0  0  0  0  0  0  0  0  # atno 6907 bound_to 6896
  152.4247  134.5887  159.9978 H   0  0  0  0  0  0  0  0  0  0  0  0  # atno 6908 bound_to 6896
  151.6092  133.3311  159.3100 H   0  0  0  0  0  0  0  0  0  0  0  0  # atno 6909 bound_to 6896
  144.8148  140.5435  143.5618 H   0  0  0  0  0  0  0  0  0  0  0  0  # atno 7974 bound_to 7965
  155.8306  140.3466  155.5570 H   0  0  0  0  0  0  0  0  0  0  0  0  # atno 8008 bound_to 7997
  155.8246  140.0918  157.1849 H   0  0  0  0  0  0  0  0  0  0  0  0  # atno 8009 bound_to 7997
  154.4004  140.1423  156.3528 H   0  0  0  0  0  0  0  0  0  0  0  0  # atno 8010 bound_to 7997
  140.4885  144.0504  150.6289 H   0  0  0  0  0  0  0  0  0  0  0  0  # atno 10167 bound_to 10162
  156.0147  130.4489  150.3333 H   0  0  0  0  0  0  0  0  0  0  0  0  # atno 10718 bound_to 10713
  154.5916  135.2845  155.0630 H   0  0  0  0  0  0  0  0  0  0  0  0  # atno 10763 bound_to 10752
  154.1928  135.6438  153.5068 H   0  0  0  0  0  0  0  0  0  0  0  0  # atno 10764 bound_to 10752
  153.0123  135.5450  154.6603 H   0  0  0  0  0  0  0  0  0  0  0  0  # atno 10765 bound_to 10752
  140.2170  134.3686  155.8022 H   0  0  0  0  0  0  0  0  0  0  0  0  # atno 11005 bound_to 11000
  145.5239  139.1476  143.3537 LP  0  0  0  0  0  0  0  0  0  0  0  0  # atno 17320 bound_to 7965
  146.2451  140.5380  142.8917 LP  0  0  0  0  0  0  0  0  0  0  0  0  # atno 17321 bound_to 7965
  140.3766  143.2825  152.0218 LP  0  0  0  0  0  0  0  0  0  0  0  0  # atno 17342 bound_to 10162
  139.4846  144.6188  151.7295 LP  0  0  0  0  0  0  0  0  0  0  0  0  # atno 17343 bound_to 10162
  157.1431  131.0301  151.2919 LP  0  0  0  0  0  0  0  0  0  0  0  0  # atno 17370 bound_to 10713
  157.4455  130.7568  149.7106 LP  0  0  0  0  0  0  0  0  0  0  0  0  # atno 17371 bound_to 10713
  141.2224  133.7173  156.8513 LP  0  0  0  0  0  0  0  0  0  0  0  0  # atno 17394 bound_to 11000
  140.1889  134.8979  157.3037 LP  0  0  0  0  0  0  0  0  0  0  0  0  # atno 17395 bound_to 11000

$$$$
