AV-unprocessed.smi:2932|AV-procd|sdf|11251|dock2
  -GOLD-   2272016143D 1   1.00000     0.00000
 Structure written by MMmdl.
 30 30  0  0  0  0  0  0  0  0  2 V2000
  152.2122  145.2640  158.8399 C   0  0  0  0  0  0  0  0  0  0  0  0
  151.8378  143.8211  158.6638 C   0  0  0  0  0  0  0  0  0  0  0  0
  150.9590  143.4739  157.7361 N   0  0  0  0  0  0  0  0  0  0  0  0
  150.8341  142.1262  157.8424 N   0  0  0  0  0  0  0  0  0  0  0  0
  149.9122  141.4323  156.9545 C   0  0  0  0  0  0  0  0  0  0  0  0
  150.6330  140.3953  156.0895 C   0  0  0  0  0  0  0  0  0  0  0  0
  151.3828  140.7662  155.1863 O   0  0  0  0  0  0  0  0  0  0  0  0
  150.4010  139.1052  156.3786 N   0  0  0  0  0  0  0  0  0  0  0  0
  150.9924  137.9555  155.7013 C   0  0  1  0  0  0  0  0  0  0  0  0
  150.7566  138.0356  154.1836 C   0  0  0  0  0  0  0  0  0  0  0  0
  152.4678  137.8176  156.0873 C   0  0  0  0  0  0  0  0  0  0  0  0
  153.2229  138.7787  155.8232 O   0  0  0  0  0  0  0  0  0  0  0  0
  152.8181  136.7515  156.6409 O   0  5  0  0  0  0  0  0  0  0  0  0
  151.6447  141.6030  158.8382 C   0  0  0  0  0  0  0  0  0  0  0  0
  151.7048  140.1469  159.1697 C   0  0  0  0  0  0  0  0  0  0  0  0
  152.2893  142.6785  159.3736 C   0  0  0  0  0  0  0  0  0  0  0  0
  153.4304  142.6562  160.6687 Cl  0  0  0  0  0  0  0  0  0  0  0  0
  150.4903  137.0562  156.0643 H   0  0  0  0  0  0  0  0  0  0  0  0
  153.1492  145.3658  159.3874 H   0  0  0  0  0  0  0  0  0  0  0  0
  151.4427  145.8009  159.3949 H   0  0  0  0  0  0  0  0  0  0  0  0
  152.3374  145.7609  157.8775 H   0  0  0  0  0  0  0  0  0  0  0  0
  149.1367  140.9381  157.5418 H   0  0  0  0  0  0  0  0  0  0  0  0
  149.4128  142.1678  156.3227 H   0  0  0  0  0  0  0  0  0  0  0  0
  149.7640  138.8956  157.1344 H   0  0  0  0  0  0  0  0  0  0  0  0
  151.2033  137.1825  153.6720 H   0  0  0  0  0  0  0  0  0  0  0  0
  151.1917  138.9422  153.7614 H   0  0  0  0  0  0  0  0  0  0  0  0
  149.6920  138.0377  153.9481 H   0  0  0  0  0  0  0  0  0  0  0  0
  152.4939  139.9406  159.8927 H   0  0  0  0  0  0  0  0  0  0  0  0
  151.9049  139.5517  158.2788 H   0  0  0  0  0  0  0  0  0  0  0  0
  150.7616  139.8089  159.5991 H   0  0  0  0  0  0  0  0  0  0  0  0
  1  2  1  0  0  0  0
  1 19  1  0  0  0  0
  1 20  1  0  0  0  0
  1 21  1  0  0  0  0
  2 16  1  0  0  0  0
  2  3  2  0  0  0  0
  3  4  1  0  0  0  0
  4  5  1  0  0  0  0
  4 14  1  0  0  0  0
  5  6  1  0  0  0  0
  5 22  1  0  0  0  0
  5 23  1  0  0  0  0
  6  7  2  0  0  0  0
  6  8  1  0  0  0  0
  8  9  1  0  0  0  0
  8 24  1  0  0  0  0
  9 18  1  0  0  0  0
  9 10  1  0  0  0  0
  9 11  1  0  0  0  0
 10 25  1  0  0  0  0
 10 26  1  0  0  0  0
 10 27  1  0  0  0  0
 11 12  2  0  0  0  0
 11 13  1  0  0  0  0
 14 15  1  0  0  0  0
 14 16  2  0  0  0  0
 15 28  1  0  0  0  0
 15 29  1  0  0  0  0
 15 30  1  0  0  0  0
 16 17  1  0  0  0  0
M  CHG  1  13  -1
M  END
> <s_m_source_file>
AV-unprocessed.smi

> <i_m_source_file_index>
2932

> <i_lp_mmshare_version>
43012

> <i_f3d_flags>
0

> <s_epik_input>
W0NIM11jMW5uKGMoW0NIM10pYzFDbClbQ0gyXUMoPU8pW05IXVtDQEhdKFtDSDNdKUMoPU8pW09IXQ==

> <s_epik_cmdline>
J2VwaWtfcHl0aG9uJywgJy1waCcsICc3LjAnLCAnLXRuJywgJzgnLCAnLW1hJywgJzIwMCcsICctbWV0YWxfYmluZGluZycsICctaW1hZScsICc8aW5maWxlLm1hZT4nLCAnLW9tYWUnLCAnPG91dGZpbGUubWFlPic=

> <r_lp_tautomer_probability>
1

> <r_epik_Ionization_Penalty>
0.000148999

> <r_epik_Ionization_Penalty_Charging>
0.000144005

> <r_epik_Ionization_Penalty_Neutral>
4.99331e-06

> <r_epik_State_Penalty>
-0

> <r_epik_Charging_Adjusted_Penalty>
0.000144005

> <i_epik_Tot_Q>
-1

> <i_epik_Tot_abs_Q>
1

> <r_epik_Metal_State_Penalty>
-0

> <b_epik_Metal_Only>
0

> <s_lp_Force_Field>
OPLS_2005

> <r_lp_Energy>
1.5608

> <b_lp_Chiralities_Consistent>
1

> <s_lp_Variant>
AV-unprocessed.smi:2932-2

> <Gold.Version>
5.8.1

> <Gold.Id.Protein>
6NUR|6NUR_protein|mol2

> <Gold.PLP.Fitness>
46.9248

> <Gold.PLP.PLP>
-33.0923

> <Gold.PLP.part.hbond>
-2.9748

> <Gold.PLP.part.metal>
0.0000

> <Gold.PLP.part.buried>
-3.9707

> <Gold.PLP.part.nonpolar>
-26.9380

> <Gold.PLP.part.repulsive>
0.2196

> <Gold.PLP.ligand.clash>
0.0000

> <Gold.PLP.ligand.torsion>
0.2223

> <Gold.PLP.Chemscore.Hbond>
4.7360

> <Gold.PLP.Chemscore.CHOScore>
0.0000

> <Gold.PLP.Chemscore.Metal>
0.0000

> <Gold.Chemscore.Hbonds>
donor molecule, donor type, donor heavy atom, donor atom, acceptor molecule, acceptor atom, score
      P1  H  7989  7998       L1     7  0.75
      P1  H  7997  8010       L1    12  2.00
      P1  H 10752 10765       L1    13  2.00

> <Gold.PLP.Chemscore.Internal.Correction>
0.0690

> <Gold.Rescore>
     Score         DG    S(hbond)    S(metal)    S(lipo)     H(rot)  DE(clash)    DE(int)     intcor
     15.81     -18.18       2.65        0.00      79.92       2.15       0.51       1.86       ----

> <Gold.Chemscore.Fitness>
15.8135

> <Gold.Chemscore.DG>
-18.1800

> <Gold.Chemscore.ZeroCoef>
-5.4800

> <Gold.Chemscore.Hbond>
2.6540

> <Gold.Chemscore.Metal>
0.0000

> <Gold.Chemscore.Lipo>
79.9165

> <Gold.Chemscore.Internal_Hbond>
0.0000

> <Gold.Chemscore.DEClash>
0.5108

> <Gold.Chemscore.DEInternal>
1.8557

> <Gold.Chemscore.Rot>
2.1542

> <Gold.Chemscore.Internal.Correction>
   9.000000E+99

> <Gold.Chemscore.Hbonds>
donor molecule, donor type, donor heavy atom, donor atom, acceptor molecule, acceptor atom, score
      P1  H  7989  7998       L1     7  0.76
      P1  H  7997  8010       L1    12  0.95
      P1  H 10752 10765       L1    13  0.64

> <Gold.Chemscore.Hbond.Weighted>
-8.8644

> <Gold.Chemscore.Metal.Weighted>
-0.0000

> <Gold.Chemscore.Lipo.Weighted>
-9.3502

> <Gold.Chemscore.Internal_Hbond.Weighted>
0.0000

> <Gold.Chemscore.DEClash.Weighted>
0.5108

> <Gold.Chemscore.DEInternal.Weighted>
1.8557

> <Gold.Chemscore.Rot.Weighted>
5.5146

> <Gold.Chemscore.Internal.Correction.Weighted>
   9.000000E+99

> <Gold.Protein.RotatedTorsions>
[ 6907 6896 6895 6894 ] final   77.35 input  -60.11 | X-H torsion
[ 7974 7965 7964 7962 ] final  -43.47 input  175.53 | X-H torsion
[ 8008 7997 7996 7995 ] final   91.64 input   59.86 | X-H torsion
[ 10167 10162 10161 10158 ] final   42.39 input  -65.29 | X-H torsion
[ 10718 10713 10712 10709 ] final -150.92 input   66.30 | X-H torsion
[ 10763 10752 10751 10750 ] final -134.61 input  -60.55 | X-H torsion
[ 11005 11000 10999 10996 ] final  115.20 input  -57.11 | X-H torsion

> <Gold.Protein.ActiveResidues>
 VAL166  LYS551  ARG553  GLY616  TRP617  ASP618  TYR619  PRO620  LYS621  CYS622 
 ASP623  PHE694  ASN695  SER759  ASP760  ASP761  ALA762  ILE779  LEU786  VAL792 
 PHE793  MET794  SER795  GLU796  ALA797  LYS798  CYS799  TRP800  GLU811  SER814 

> <Gold.Protein.RotatedAtoms>
  152.5114  134.3830  159.9357 H   0  0  0  0  0  0  0  0  0  0  0  0  # atno 6907 bound_to 6896
  151.3787  133.3822  159.2715 H   0  0  0  0  0  0  0  0  0  0  0  0  # atno 6908 bound_to 6896
  150.9521  134.8940  159.7737 H   0  0  0  0  0  0  0  0  0  0  0  0  # atno 6909 bound_to 6896
  146.0016  140.7067  142.9267 H   0  0  0  0  0  0  0  0  0  0  0  0  # atno 7974 bound_to 7965
  156.0261  140.3335  155.7090 H   0  0  0  0  0  0  0  0  0  0  0  0  # atno 8008 bound_to 7997
  155.5953  140.0650  157.2765 H   0  0  0  0  0  0  0  0  0  0  0  0  # atno 8009 bound_to 7997
  154.4334  140.1820  156.1104 H   0  0  0  0  0  0  0  0  0  0  0  0  # atno 8010 bound_to 7997
  140.3548  144.2303  150.6142 H   0  0  0  0  0  0  0  0  0  0  0  0  # atno 10167 bound_to 10162
  156.4525  130.8174  151.2405 H   0  0  0  0  0  0  0  0  0  0  0  0  # atno 10718 bound_to 10713
  154.8716  135.3729  154.4764 H   0  0  0  0  0  0  0  0  0  0  0  0  # atno 10763 bound_to 10752
  153.5421  135.7026  153.5637 H   0  0  0  0  0  0  0  0  0  0  0  0  # atno 10764 bound_to 10752
  153.3794  135.4000  155.1810 H   0  0  0  0  0  0  0  0  0  0  0  0  # atno 10765 bound_to 10752
  139.9003  134.9580  156.7008 H   0  0  0  0  0  0  0  0  0  0  0  0  # atno 11005 bound_to 11000
  144.6921  140.3243  143.7227 LP  0  0  0  0  0  0  0  0  0  0  0  0  # atno 17320 bound_to 7965
  145.7479  139.1784  143.2338 LP  0  0  0  0  0  0  0  0  0  0  0  0  # atno 17321 bound_to 7965
  140.5184  143.2272  151.8428 LP  0  0  0  0  0  0  0  0  0  0  0  0  # atno 17342 bound_to 10162
  139.4821  144.4867  151.9238 LP  0  0  0  0  0  0  0  0  0  0  0  0  # atno 17343 bound_to 10162
  157.7502  131.0133  150.3419 LP  0  0  0  0  0  0  0  0  0  0  0  0  # atno 17370 bound_to 10713
  156.3801  130.3879  149.7108 LP  0  0  0  0  0  0  0  0  0  0  0  0  # atno 17371 bound_to 10713
  140.7152  133.9189  155.8110 LP  0  0  0  0  0  0  0  0  0  0  0  0  # atno 17394 bound_to 11000
  141.0270  134.0809  157.4057 LP  0  0  0  0  0  0  0  0  0  0  0  0  # atno 17395 bound_to 11000

$$$$
