AV-unprocessed.smi:1797|AV-procd|sdf|7257|dock3
  -GOLD-   22720 8513D 1   1.00000     0.00000
 Structure written by MMmdl.
 29 30  0  0  0  0  0  0  0  0  2 V2000
  152.5618  143.9191  160.6997 C   0  0  0  0  0  0  0  0  0  0  0  0
  152.9897  142.8582  159.7445 C   0  0  0  0  0  0  0  0  0  0  0  0
  154.2204  142.3403  159.7433 N   0  0  0  0  0  0  0  0  0  0  0  0
  154.3783  141.3701  158.7643 N   0  0  0  0  0  0  0  0  0  0  0  0
  153.2722  141.1781  158.0313 C   0  0  0  0  0  0  0  0  0  0  0  0
  153.2148  140.2853  157.0256 N   0  5  0  0  0  0  0  0  0  0  0  0
  152.0582  139.9827  156.3793 C   0  0  0  0  0  0  0  0  0  0  0  0
  151.2840  139.1051  156.7591 O   0  0  0  0  0  0  0  0  0  0  0  0
  151.7559  140.6832  155.2686 N   0  0  0  0  0  0  0  0  0  0  0  0
  150.5641  140.5237  154.4410 C   0  0  2  0  0  0  0  0  0  0  0  0
  149.3106  141.0164  155.1801 C   0  0  0  0  0  0  0  0  0  0  0  0
  148.0552  140.8505  154.3089 C   0  0  0  0  0  0  0  0  0  0  0  0
  147.9670  139.4836  153.6133 C   0  0  0  0  0  0  0  0  0  0  0  0
  146.8901  139.1067  153.1562 O   0  0  0  0  0  0  0  0  0  0  0  0
  149.0817  138.7421  153.4868 N   0  0  0  0  0  0  0  0  0  0  0  0
  150.3923  139.0417  154.0629 C   0  0  0  0  0  0  0  0  0  0  0  0
  151.9169  142.1919  158.5252 S   0  0  0  0  0  0  0  0  0  0  0  0
  152.9121  144.8924  160.3560 H   0  0  0  0  0  0  0  0  0  0  0  0
  152.9749  143.7257  161.6901 H   0  0  0  0  0  0  0  0  0  0  0  0
  151.4747  143.9440  160.7750 H   0  0  0  0  0  0  0  0  0  0  0  0
  152.4154  141.3895  154.9770 H   0  0  0  0  0  0  0  0  0  0  0  0
  150.6850  141.1010  153.5220 H   0  0  0  0  0  0  0  0  0  0  0  0
  149.1870  140.4627  156.1122 H   0  0  0  0  0  0  0  0  0  0  0  0
  149.4211  142.0652  155.4582 H   0  0  0  0  0  0  0  0  0  0  0  0
  147.1598  141.0123  154.9098 H   0  0  0  0  0  0  0  0  0  0  0  0
  148.0509  141.6152  153.5314 H   0  0  0  0  0  0  0  0  0  0  0  0
  148.9993  137.8642  152.9950 H   0  0  0  0  0  0  0  0  0  0  0  0
  151.1689  138.7383  153.3601 H   0  0  0  0  0  0  0  0  0  0  0  0
  150.5087  138.4140  154.9477 H   0  0  0  0  0  0  0  0  0  0  0  0
  1  2  1  0  0  0  0
  1 18  1  0  0  0  0
  1 19  1  0  0  0  0
  1 20  1  0  0  0  0
  2 17  1  0  0  0  0
  2  3  2  0  0  0  0
  3  4  1  0  0  0  0
  4  5  2  0  0  0  0
  5  6  1  0  0  0  0
  5 17  1  0  0  0  0
  6  7  1  0  0  0  0
  7  8  2  0  0  0  0
  7  9  1  0  0  0  0
  9 10  1  0  0  0  0
  9 21  1  0  0  0  0
 10 16  1  0  0  0  0
 10 11  1  0  0  0  0
 10 22  1  0  0  0  0
 11 12  1  0  0  0  0
 11 23  1  0  0  0  0
 11 24  1  0  0  0  0
 12 13  1  0  0  0  0
 12 25  1  0  0  0  0
 12 26  1  0  0  0  0
 13 14  2  0  0  0  0
 13 15  1  0  0  0  0
 15 16  1  0  0  0  0
 15 27  1  0  0  0  0
 16 28  1  0  0  0  0
 16 29  1  0  0  0  0
M  CHG  1   6  -1
M  END
> <s_m_source_file>
AV-unprocessed.smi

> <i_m_source_file_index>
1797

> <i_lp_mmshare_version>
43012

> <i_f3d_flags>
0

> <s_epik_input>
W0NIM11jMW5uYyhzMSlbTkhdQyg9TylbTkhdW0NAQEhdMltDSDJdW0NIMl1DKD1PKVtOSF1bQ0gyXTI=

> <s_epik_cmdline>
J2VwaWtfcHl0aG9uJywgJy1waCcsICc3LjAnLCAnLXRuJywgJzgnLCAnLW1hJywgJzIwMCcsICctbWV0YWxfYmluZGluZycsICctaW1hZScsICc8aW5maWxlLm1hZT4nLCAnLW9tYWUnLCAnPG91dGZpbGUubWFlPic=

> <r_lp_tautomer_probability>
1

> <r_epik_Ionization_Penalty>
3.31792

> <r_epik_Ionization_Penalty_Charging>
3.17379

> <r_epik_Ionization_Penalty_Neutral>
0.144127

> <r_epik_State_Penalty>
3.17099

> <r_epik_Charging_Adjusted_Penalty>
6.34478

> <i_epik_Tot_Q>
-1

> <i_epik_Tot_abs_Q>
1

> <r_epik_Metal_State_Penalty>
0.468583

> <b_epik_Metal_Only>
1

> <s_lp_Force_Field>
OPLS_2005

> <r_lp_Energy>
8.3623

> <b_lp_Chiralities_Consistent>
1

> <s_lp_Variant>
AV-unprocessed.smi:1797-3

> <Gold.Version>
5.8.1

> <Gold.Id.Protein>
6NUR|6NUR_protein|mol2

> <Gold.PLP.Fitness>
35.1136

> <Gold.PLP.PLP>
-27.7874

> <Gold.PLP.part.hbond>
-3.0000

> <Gold.PLP.part.metal>
0.0000

> <Gold.PLP.part.buried>
-0.0869

> <Gold.PLP.part.nonpolar>
-25.2569

> <Gold.PLP.part.repulsive>
0.9794

> <Gold.PLP.ligand.clash>
0.0000

> <Gold.PLP.ligand.torsion>
0.8391

> <Gold.PLP.Chemscore.Hbond>
3.0000

> <Gold.PLP.Chemscore.CHOScore>
0.0000

> <Gold.PLP.Chemscore.Metal>
0.0000

> <Gold.Chemscore.Hbonds>
donor molecule, donor type, donor heavy atom, donor atom, acceptor molecule, acceptor atom, score
      L1  H    15    27       P1  7948  1.00
      P1  H  7997  8010       L1     6  0.47

> <Gold.PLP.Chemscore.Internal.Correction>
0.0044

> <Gold.Rescore>
     Score         DG    S(hbond)    S(metal)    S(lipo)     H(rot)  DE(clash)    DE(int)     intcor
     11.68     -13.89       1.27        0.00      57.57       1.00       0.14       2.07       ----

> <Gold.Chemscore.Fitness>
11.6780

> <Gold.Chemscore.DG>
-13.8924

> <Gold.Chemscore.ZeroCoef>
-5.4800

> <Gold.Chemscore.Hbond>
1.2685

> <Gold.Chemscore.Metal>
0.0000

> <Gold.Chemscore.Lipo>
57.5698

> <Gold.Chemscore.Internal_Hbond>
0.0000

> <Gold.Chemscore.DEClash>
0.1394

> <Gold.Chemscore.DEInternal>
2.0749

> <Gold.Chemscore.Rot>
1.0000

> <Gold.Chemscore.Internal.Correction>
   9.000000E+99

> <Gold.Chemscore.Hbonds>
donor molecule, donor type, donor heavy atom, donor atom, acceptor molecule, acceptor atom, score
      L1  H    15    27       P1  7948  0.99
      P1  H  7997  8010       L1     6  0.11

> <Gold.Chemscore.Hbond.Weighted>
-4.2367

> <Gold.Chemscore.Metal.Weighted>
-0.0000

> <Gold.Chemscore.Lipo.Weighted>
-6.7357

> <Gold.Chemscore.Internal_Hbond.Weighted>
0.0000

> <Gold.Chemscore.DEClash.Weighted>
0.1394

> <Gold.Chemscore.DEInternal.Weighted>
2.0749

> <Gold.Chemscore.Rot.Weighted>
2.5600

> <Gold.Chemscore.Internal.Correction.Weighted>
   9.000000E+99

> <Gold.Protein.RotatedTorsions>
[ 6907 6896 6895 6894 ] final -168.66 input  -60.11 | X-H torsion
[ 7974 7965 7964 7962 ] final  -11.05 input  175.53 | X-H torsion
[ 8008 7997 7996 7995 ] final   55.25 input   59.86 | X-H torsion
[ 10167 10162 10161 10158 ] final  -94.63 input  -65.29 | X-H torsion
[ 10718 10713 10712 10709 ] final  -28.64 input   66.30 | X-H torsion
[ 10763 10752 10751 10750 ] final -104.29 input  -60.55 | X-H torsion
[ 11005 11000 10999 10996 ] final -137.48 input  -57.11 | X-H torsion

> <Gold.Protein.ActiveResidues>
 VAL166  LYS551  ARG553  GLY616  TRP617  ASP618  TYR619  PRO620  LYS621  CYS622 
 ASP623  PHE694  ASN695  SER759  ASP760  ASP761  ALA762  ILE779  LEU786  VAL792 
 PHE793  MET794  SER795  GLU796  ALA797  LYS798  CYS799  TRP800  GLU811  SER814 

> <Gold.Protein.RotatedAtoms>
  151.4791  133.3550  159.2835 H   0  0  0  0  0  0  0  0  0  0  0  0  # atno 6907 bound_to 6896
  150.8909  134.8314  159.7303 H   0  0  0  0  0  0  0  0  0  0  0  0  # atno 6908 bound_to 6896
  152.4822  134.4701  159.9684 H   0  0  0  0  0  0  0  0  0  0  0  0  # atno 6909 bound_to 6896
  146.2200  140.2854  142.8365 H   0  0  0  0  0  0  0  0  0  0  0  0  # atno 7974 bound_to 7965
  155.4980  140.3473  155.4366 H   0  0  0  0  0  0  0  0  0  0  0  0  # atno 8008 bound_to 7997
  156.0933  140.1416  156.9592 H   0  0  0  0  0  0  0  0  0  0  0  0  # atno 8009 bound_to 7997
  154.4648  140.0921  156.6968 H   0  0  0  0  0  0  0  0  0  0  0  0  # atno 8010 bound_to 7997
  140.3125  143.3096  152.0133 H   0  0  0  0  0  0  0  0  0  0  0  0  # atno 10167 bound_to 10162
  156.4227  130.4429  149.7173 H   0  0  0  0  0  0  0  0  0  0  0  0  # atno 10718 bound_to 10713
  154.7868  135.4791  153.9963 H   0  0  0  0  0  0  0  0  0  0  0  0  # atno 10763 bound_to 10752
  153.1572  135.6802  153.8802 H   0  0  0  0  0  0  0  0  0  0  0  0  # atno 10764 bound_to 10752
  153.8428  135.3177  155.3405 H   0  0  0  0  0  0  0  0  0  0  0  0  # atno 10765 bound_to 10752
  140.8707  134.2054  157.4652 H   0  0  0  0  0  0  0  0  0  0  0  0  # atno 11005 bound_to 11000
  144.9166  140.7819  143.5774 LP  0  0  0  0  0  0  0  0  0  0  0  0  # atno 17320 bound_to 7965
  145.2788  139.1926  143.4802 LP  0  0  0  0  0  0  0  0  0  0  0  0  # atno 17321 bound_to 7965
  139.4891  144.6374  151.6948 LP  0  0  0  0  0  0  0  0  0  0  0  0  # atno 17342 bound_to 10162
  140.5556  144.0354  150.6146 LP  0  0  0  0  0  0  0  0  0  0  0  0  # atno 17343 bound_to 10162
  156.4107  130.7720  151.2733 LP  0  0  0  0  0  0  0  0  0  0  0  0  # atno 17370 bound_to 10713
  157.7508  131.0212  150.3741 LP  0  0  0  0  0  0  0  0  0  0  0  0  # atno 17371 bound_to 10713
  139.8712  134.9773  156.4953 LP  0  0  0  0  0  0  0  0  0  0  0  0  # atno 17394 bound_to 11000
  140.8576  133.8084  155.9232 LP  0  0  0  0  0  0  0  0  0  0  0  0  # atno 17395 bound_to 11000

$$$$
