AV-unprocessed.smi:2087|AV-procd|sdf|8525|dock6
  -GOLD-   2272011243D 1   1.00000     0.00000
 Structure written by MMmdl.
 50 51  0  0  0  0  0  0  0  0  1 V2000
  152.1301  143.3685  161.1397 C   0  0  0  0  0  0  0  0  0  0  0  0
  152.1013  143.8656  159.6842 C   0  0  0  0  0  0  0  0  0  0  0  0
  151.4002  145.2272  159.5363 C   0  0  0  0  0  0  0  0  0  0  0  0
  151.6194  142.7990  158.6695 C   0  0  0  0  0  0  0  0  0  0  0  0
  152.0766  141.4189  158.8626 N   0  0  0  0  0  0  0  0  0  0  0  0
  153.5299  141.3746  158.9887 C   0  0  0  0  0  0  0  0  0  0  0  0
  154.0495  139.9432  159.1953 C   0  0  0  0  0  0  0  0  0  0  0  0
  153.6131  139.1271  158.1155 O   0  0  0  0  0  0  0  0  0  0  0  0
  152.1940  139.0837  157.9895 C   0  0  2  0  0  0  0  0  0  0  0  0
  151.8254  138.1681  156.8097 C   0  0  0  0  0  0  0  0  0  0  0  0
  150.7231  137.2733  157.1470 N   0  0  0  0  0  0  0  0  0  0  0  0
  150.7237  136.3823  158.1500 C   0  0  0  0  0  0  0  0  0  0  0  0
  151.6773  136.2229  158.9137 O   0  0  0  0  0  0  0  0  0  0  0  0
  149.4353  135.5662  158.3220 C   0  0  0  0  0  0  0  0  0  0  0  0
  149.4162  134.7645  159.5530 N   0  0  0  0  0  0  0  0  0  0  0  0
  149.1457  133.4097  159.4828 C   0  0  0  0  0  0  0  0  0  0  0  0
  149.0999  132.6020  160.5645 C   0  0  0  0  0  0  0  0  0  0  0  0
  149.3425  133.1299  161.9011 C   0  0  0  0  0  0  0  0  0  0  0  0
  149.3008  132.4387  162.9201 O   0  0  0  0  0  0  0  0  0  0  0  0
  149.6258  134.5143  161.9453 N   0  0  0  0  0  0  0  0  0  0  0  0
  149.8583  135.0885  163.2544 C   0  0  0  0  0  0  0  0  0  0  0  0
  149.6596  135.3587  160.8109 C   0  0  0  0  0  0  0  0  0  0  0  0
  149.8860  136.5681  160.8942 O   0  0  0  0  0  0  0  0  0  0  0  0
  151.6703  140.5202  157.7848 C   0  0  0  0  0  0  0  0  0  0  0  0
  151.1269  143.1883  161.5264 H   0  0  0  0  0  0  0  0  0  0  0  0
  152.6064  144.1002  161.7927 H   0  0  0  0  0  0  0  0  0  0  0  0
  152.6924  142.4381  161.2239 H   0  0  0  0  0  0  0  0  0  0  0  0
  153.1405  144.0619  159.4159 H   0  0  0  0  0  0  0  0  0  0  0  0
  150.3614  145.2043  159.8593 H   0  0  0  0  0  0  0  0  0  0  0  0
  151.4198  145.5689  158.5011 H   0  0  0  0  0  0  0  0  0  0  0  0
  151.9046  145.9848  160.1368 H   0  0  0  0  0  0  0  0  0  0  0  0
  150.5313  142.8247  158.5934 H   0  0  0  0  0  0  0  0  0  0  0  0
  151.9788  143.1289  157.6935 H   0  0  0  0  0  0  0  0  0  0  0  0
  153.9918  141.7970  158.0947 H   0  0  0  0  0  0  0  0  0  0  0  0
  153.8489  141.9951  159.8268 H   0  0  0  0  0  0  0  0  0  0  0  0
  155.1390  139.9361  159.2293 H   0  0  0  0  0  0  0  0  0  0  0  0
  153.6944  139.5320  160.1414 H   0  0  0  0  0  0  0  0  0  0  0  0
  151.7663  138.6737  158.9066 H   0  0  0  0  0  0  0  0  0  0  0  0
  151.5023  138.7749  155.9633 H   0  0  0  0  0  0  0  0  0  0  0  0
  152.6974  137.6066  156.4691 H   0  0  0  0  0  0  0  0  0  0  0  0
  149.8937  137.3396  156.5750 H   0  0  0  0  0  0  0  0  0  0  0  0
  148.5932  136.2595  158.3173 H   0  0  0  0  0  0  0  0  0  0  0  0
  149.2886  134.9204  157.4542 H   0  0  0  0  0  0  0  0  0  0  0  0
  148.9556  132.9721  158.5134 H   0  0  0  0  0  0  0  0  0  0  0  0
  148.8786  131.5522  160.4395 H   0  0  0  0  0  0  0  0  0  0  0  0
  150.2944  136.0837  163.1732 H   0  0  0  0  0  0  0  0  0  0  0  0
  150.5612  134.4441  163.7857 H   0  0  0  0  0  0  0  0  0  0  0  0
  148.8923  135.1278  163.7599 H   0  0  0  0  0  0  0  0  0  0  0  0
  150.5852  140.4734  157.7298 H   0  0  0  0  0  0  0  0  0  0  0  0
  152.0221  140.9069  156.8270 H   0  0  0  0  0  0  0  0  0  0  0  0
  1  2  1  0  0  0  0
  1 25  1  0  0  0  0
  1 26  1  0  0  0  0
  1 27  1  0  0  0  0
  2  3  1  0  0  0  0
  2  4  1  0  0  0  0
  2 28  1  0  0  0  0
  3 29  1  0  0  0  0
  3 30  1  0  0  0  0
  3 31  1  0  0  0  0
  4  5  1  0  0  0  0
  4 32  1  0  0  0  0
  4 33  1  0  0  0  0
  5 24  1  0  0  0  0
  5  6  1  0  0  0  0
  6  7  1  0  0  0  0
  6 34  1  0  0  0  0
  6 35  1  0  0  0  0
  7  8  1  0  0  0  0
  7 36  1  0  0  0  0
  7 37  1  0  0  0  0
  8  9  1  0  0  0  0
  9 10  1  0  0  0  0
  9 24  1  0  0  0  0
  9 38  1  0  0  0  0
 10 11  1  0  0  0  0
 10 39  1  0  0  0  0
 10 40  1  0  0  0  0
 11 12  1  0  0  0  0
 11 41  1  0  0  0  0
 12 13  2  0  0  0  0
 12 14  1  0  0  0  0
 14 15  1  0  0  0  0
 14 42  1  0  0  0  0
 14 43  1  0  0  0  0
 15 22  1  0  0  0  0
 15 16  1  0  0  0  0
 16 17  2  0  0  0  0
 16 44  1  0  0  0  0
 17 18  1  0  0  0  0
 17 45  1  0  0  0  0
 18 19  2  0  0  0  0
 18 20  1  0  0  0  0
 20 21  1  0  0  0  0
 20 22  1  0  0  0  0
 21 46  1  0  0  0  0
 21 47  1  0  0  0  0
 21 48  1  0  0  0  0
 22 23  2  0  0  0  0
 24 49  1  0  0  0  0
 24 50  1  0  0  0  0
M  END
> <s_m_source_file>
AV-unprocessed.smi

> <i_m_source_file_index>
2087

> <i_lp_mmshare_version>
43012

> <i_f3d_flags>
0

> <s_epik_input>
W0NIM11bQ0hdKFtDSDNdKVtDSDJdTjFbQ0gyXVtDSDJdT1tDQEhdKFtDSDJdMSlbQ0gyXVtOSF1DKD1PKVtDSDJdbjJbY0hdW2NIXWMoPU8pbihbQ0gzXSljMj1P

> <s_epik_cmdline>
J2VwaWtfcHl0aG9uJywgJy1waCcsICc3LjAnLCAnLXRuJywgJzgnLCAnLW1hJywgJzIwMCcsICctbWV0YWxfYmluZGluZycsICctaW1hZScsICc8aW5maWxlLm1hZT4nLCAnLW9tYWUnLCAnPG91dGZpbGUubWFlPic=

> <r_lp_tautomer_probability>
1

> <r_epik_Ionization_Penalty>
1.11669

> <r_epik_Ionization_Penalty_Charging>
1.16423e-08

> <r_epik_Ionization_Penalty_Neutral>
1.11669

> <r_epik_State_Penalty>
1.17516

> <r_epik_Charging_Adjusted_Penalty>
1.17516

> <i_epik_Tot_Q>
0

> <i_epik_Tot_abs_Q>
0

> <r_epik_Metal_State_Penalty>
1.17513

> <b_epik_Metal_Only>
0

> <s_lp_Force_Field>
OPLS_2005

> <r_lp_Energy>
38.2596

> <b_lp_Chiralities_Consistent>
1

> <s_lp_Variant>
AV-unprocessed.smi:2087-6

> <Gold.Version>
5.8.1

> <Gold.Id.Protein>
6NUR|6NUR_protein|mol2

> <Gold.PLP.Fitness>
48.5145

> <Gold.PLP.PLP>
-43.4528

> <Gold.PLP.part.hbond>
-3.3675

> <Gold.PLP.part.metal>
0.0000

> <Gold.PLP.part.buried>
-5.1084

> <Gold.PLP.part.nonpolar>
-35.2150

> <Gold.PLP.part.repulsive>
0.0441

> <Gold.PLP.ligand.clash>
0.0000

> <Gold.PLP.ligand.torsion>
0.8837

> <Gold.PLP.Chemscore.Hbond>
2.2435

> <Gold.PLP.Chemscore.CHOScore>
0.0000

> <Gold.PLP.Chemscore.Metal>
0.0000

> <Gold.Chemscore.Hbonds>
donor molecule, donor type, donor heavy atom, donor atom, acceptor molecule, acceptor atom, score
      P1  H  6896  6909       L1    13  0.14
      P1  H  6931  6943       L1    23  0.48

> <Gold.PLP.Chemscore.Internal.Correction>
0.0985

> <Gold.Rescore>
     Score         DG    S(hbond)    S(metal)    S(lipo)     H(rot)  DE(clash)    DE(int)     intcor
     18.87     -20.11       2.63        0.00      97.37       2.16       0.49       0.75       ----

> <Gold.Chemscore.Fitness>
18.8677

> <Gold.Chemscore.DG>
-20.1070

> <Gold.Chemscore.ZeroCoef>
-5.4800

> <Gold.Chemscore.Hbond>
2.6269

> <Gold.Chemscore.Metal>
0.0000

> <Gold.Chemscore.Lipo>
97.3702

> <Gold.Chemscore.Internal_Hbond>
0.0000

> <Gold.Chemscore.DEClash>
0.4876

> <Gold.Chemscore.DEInternal>
0.7517

> <Gold.Chemscore.Rot>
2.1638

> <Gold.Chemscore.Internal.Correction>
   9.000000E+99

> <Gold.Chemscore.Hbonds>
donor molecule, donor type, donor heavy atom, donor atom, acceptor molecule, acceptor atom, score
      P1  H  6896  6909       L1    13  0.01
      P1  H  6931  6943       L1    23  0.48

> <Gold.Chemscore.Hbond.Weighted>
-8.7739

> <Gold.Chemscore.Metal.Weighted>
-0.0000

> <Gold.Chemscore.Lipo.Weighted>
-11.3923

> <Gold.Chemscore.Internal_Hbond.Weighted>
0.0000

> <Gold.Chemscore.DEClash.Weighted>
0.4876

> <Gold.Chemscore.DEInternal.Weighted>
0.7517

> <Gold.Chemscore.Rot.Weighted>
5.5393

> <Gold.Chemscore.Internal.Correction.Weighted>
   9.000000E+99

> <Gold.Protein.RotatedTorsions>
[ 6907 6896 6895 6894 ] final   70.42 input  -60.11 | X-H torsion
[ 7974 7965 7964 7962 ] final -168.99 input  175.53 | X-H torsion
[ 8008 7997 7996 7995 ] final -144.39 input   59.86 | X-H torsion
[ 10167 10162 10161 10158 ] final  -35.39 input  -65.29 | X-H torsion
[ 10718 10713 10712 10709 ] final  -15.51 input   66.30 | X-H torsion
[ 10763 10752 10751 10750 ] final  -83.90 input  -60.55 | X-H torsion
[ 11005 11000 10999 10996 ] final -127.20 input  -57.11 | X-H torsion

> <Gold.Protein.ActiveResidues>
 VAL166  LYS551  ARG553  GLY616  TRP617  ASP618  TYR619  PRO620  LYS621  CYS622 
 ASP623  PHE694  ASN695  SER759  ASP760  ASP761  ALA762  ILE779  LEU786  VAL792 
 PHE793  MET794  SER795  GLU796  ALA797  LYS798  CYS799  TRP800  GLU811  SER814 

> <Gold.Protein.RotatedAtoms>
  152.4748  134.4871  159.9683 H   0  0  0  0  0  0  0  0  0  0  0  0  # atno 6907 bound_to 6896
  151.4889  133.3523  159.2858 H   0  0  0  0  0  0  0  0  0  0  0  0  # atno 6908 bound_to 6896
  150.8780  134.8193  159.7265 H   0  0  0  0  0  0  0  0  0  0  0  0  # atno 6909 bound_to 6896
  144.7193  140.2288  143.6307 H   0  0  0  0  0  0  0  0  0  0  0  0  # atno 7974 bound_to 7965
  155.5262  140.0595  157.2897 H   0  0  0  0  0  0  0  0  0  0  0  0  # atno 8008 bound_to 7997
  154.4500  140.1944  156.0493 H   0  0  0  0  0  0  0  0  0  0  0  0  # atno 8009 bound_to 7997
  156.0684  140.3263  155.7550 H   0  0  0  0  0  0  0  0  0  0  0  0  # atno 8010 bound_to 7997
  140.7166  143.3480  151.2214 H   0  0  0  0  0  0  0  0  0  0  0  0  # atno 10167 bound_to 10162
  156.6007  130.4823  149.6241 H   0  0  0  0  0  0  0  0  0  0  0  0  # atno 10718 bound_to 10713
  154.5931  135.5540  153.7299 H   0  0  0  0  0  0  0  0  0  0  0  0  # atno 10763 bound_to 10752
  153.0125  135.6348  154.1820 H   0  0  0  0  0  0  0  0  0  0  0  0  # atno 10764 bound_to 10752
  154.1761  135.2889  155.3046 H   0  0  0  0  0  0  0  0  0  0  0  0  # atno 10765 bound_to 10752
  140.9619  134.0925  157.3959 H   0  0  0  0  0  0  0  0  0  0  0  0  # atno 11005 bound_to 11000
  145.8431  139.2139  143.1816 LP  0  0  0  0  0  0  0  0  0  0  0  0  # atno 17320 bound_to 7965
  146.0329  140.8241  142.9867 LP  0  0  0  0  0  0  0  0  0  0  0  0  # atno 17321 bound_to 7965
  139.7005  143.9541  152.2903 LP  0  0  0  0  0  0  0  0  0  0  0  0  # atno 17342 bound_to 10162
  139.9233  144.6786  150.8439 LP  0  0  0  0  0  0  0  0  0  0  0  0  # atno 17343 bound_to 10162
  156.2471  130.6885  151.1610 LP  0  0  0  0  0  0  0  0  0  0  0  0  # atno 17370 bound_to 10713
  157.7280  131.0635  150.5839 LP  0  0  0  0  0  0  0  0  0  0  0  0  # atno 17371 bound_to 10713
  139.8881  135.0095  156.6600 LP  0  0  0  0  0  0  0  0  0  0  0  0  # atno 17394 bound_to 11000
  140.7455  133.8941  155.8309 LP  0  0  0  0  0  0  0  0  0  0  0  0  # atno 17395 bound_to 11000

$$$$
