AV-unprocessed.smi:1394|AV-procd|sdf|5667|dock10
  -GOLD-   22720 5293D 1   1.00000     0.00000
 Structure written by MMmdl.
 41 42  0  0  0  0  0  0  0  0  1 V2000
  148.0665  138.0879  155.9163 C   0  0  0  0  0  0  0  0  0  0  0  0
  147.4734  139.3868  155.3439 C   0  0  2  0  0  0  0  0  0  0  0  0
  147.9097  139.6114  153.8812 C   0  0  0  0  0  0  0  0  0  0  0  0
  147.2600  140.8703  153.2845 C   0  0  0  0  0  0  0  0  0  0  0  0
  147.5543  142.1118  154.1395 C   0  0  0  0  0  0  0  0  0  0  0  0
  147.1264  141.8966  155.6020 C   0  0  0  0  0  0  0  0  0  0  0  0
  147.7657  140.6353  156.2173 C   0  0  2  0  0  0  0  0  0  0  0  0
  149.2017  140.8542  156.4035 N   0  0  0  0  0  0  0  0  0  0  0  0
  149.7729  141.6302  157.3374 C   0  0  0  0  0  0  0  0  0  0  0  0
  149.1312  142.2622  158.1776 O   0  0  0  0  0  0  0  0  0  0  0  0
  151.3070  141.6819  157.3045 C   0  0  0  0  0  0  0  0  0  0  0  0
  151.9181  141.9268  158.6220 N   0  0  0  0  0  0  0  0  0  0  0  0
  151.5798  143.1341  159.2586 C   0  0  0  0  0  0  0  0  0  0  0  0
  152.0773  143.4629  160.4581 C   0  0  0  0  0  0  0  0  0  0  0  0
  152.9818  142.5389  161.0975 C   0  0  0  0  0  0  0  0  0  0  0  0
  153.3311  141.3725  160.5070 C   0  0  0  0  0  0  0  0  0  0  0  0
  154.2808  140.3803  161.1741 C   0  0  0  0  0  0  0  0  0  0  0  0
  153.7763  139.1465  161.1348 F   0  0  0  0  0  0  0  0  0  0  0  0
  155.4588  140.3691  160.5495 F   0  0  0  0  0  0  0  0  0  0  0  0
  154.5001  140.6886  162.4534 F   0  0  0  0  0  0  0  0  0  0  0  0
  152.7807  141.0227  159.1813 C   0  0  0  0  0  0  0  0  0  0  0  0
  153.0762  139.9774  158.5998 O   0  0  0  0  0  0  0  0  0  0  0  0
  149.1564  138.0956  155.8920 H   0  0  0  0  0  0  0  0  0  0  0  0
  147.7328  137.2218  155.3445 H   0  0  0  0  0  0  0  0  0  0  0  0
  147.7560  137.9377  156.9507 H   0  0  0  0  0  0  0  0  0  0  0  0
  146.3904  139.2532  155.3378 H   0  0  0  0  0  0  0  0  0  0  0  0
  148.9955  139.6986  153.8251 H   0  0  0  0  0  0  0  0  0  0  0  0
  147.6418  138.7449  153.2757 H   0  0  0  0  0  0  0  0  0  0  0  0
  147.6188  141.0271  152.2668 H   0  0  0  0  0  0  0  0  0  0  0  0
  146.1815  140.7247  153.2126 H   0  0  0  0  0  0  0  0  0  0  0  0
  148.6193  142.3427  154.0948 H   0  0  0  0  0  0  0  0  0  0  0  0
  147.0360  142.9773  153.7256 H   0  0  0  0  0  0  0  0  0  0  0  0
  147.3761  142.7756  156.1973 H   0  0  0  0  0  0  0  0  0  0  0  0
  146.0405  141.8028  155.6442 H   0  0  0  0  0  0  0  0  0  0  0  0
  147.3001  140.4844  157.1930 H   0  0  0  0  0  0  0  0  0  0  0  0
  149.8132  140.3743  155.7592 H   0  0  0  0  0  0  0  0  0  0  0  0
  151.6768  140.7409  156.8937 H   0  0  0  0  0  0  0  0  0  0  0  0
  151.6159  142.4431  156.5861 H   0  0  0  0  0  0  0  0  0  0  0  0
  150.9018  143.7714  158.7094 H   0  0  0  0  0  0  0  0  0  0  0  0
  151.8096  144.3956  160.9324 H   0  0  0  0  0  0  0  0  0  0  0  0
  153.3787  142.7993  162.0673 H   0  0  0  0  0  0  0  0  0  0  0  0
  1  2  1  0  0  0  0
  1 23  1  0  0  0  0
  1 24  1  0  0  0  0
  1 25  1  0  0  0  0
  2  7  1  0  0  0  0
  2  3  1  0  0  0  0
  2 26  1  0  0  0  0
  3  4  1  0  0  0  0
  3 27  1  0  0  0  0
  3 28  1  0  0  0  0
  4  5  1  0  0  0  0
  4 29  1  0  0  0  0
  4 30  1  0  0  0  0
  5  6  1  0  0  0  0
  5 31  1  0  0  0  0
  5 32  1  0  0  0  0
  6  7  1  0  0  0  0
  6 33  1  0  0  0  0
  6 34  1  0  0  0  0
  7  8  1  0  0  0  0
  7 35  1  0  0  0  0
  8  9  1  0  0  0  0
  8 36  1  0  0  0  0
  9 10  2  0  0  0  0
  9 11  1  0  0  0  0
 11 12  1  0  0  0  0
 11 37  1  0  0  0  0
 11 38  1  0  0  0  0
 12 21  1  0  0  0  0
 12 13  1  0  0  0  0
 13 14  2  0  0  0  0
 13 39  1  0  0  0  0
 14 15  1  0  0  0  0
 14 40  1  0  0  0  0
 15 16  2  0  0  0  0
 15 41  1  0  0  0  0
 16 17  1  0  0  0  0
 16 21  1  0  0  0  0
 17 18  1  0  0  0  0
 17 19  1  0  0  0  0
 17 20  1  0  0  0  0
 21 22  2  0  0  0  0
M  END
> <s_m_source_file>
AV-unprocessed.smi

> <i_m_source_file_index>
1394

> <i_lp_mmshare_version>
43012

> <i_f3d_flags>
0

> <s_epik_input>
W0NIM11bQ0BASF0xW0NIMl1bQ0gyXVtDSDJdW0NIMl1bQ0BIXTFbTkhdQyg9TylbQ0gyXW4yW2NIXVtjSF1bY0hdYyhDKEYpKEYpRiljMj1P

> <s_epik_cmdline>
J2VwaWtfcHl0aG9uJywgJy1waCcsICc3LjAnLCAnLXRuJywgJzgnLCAnLW1hJywgJzIwMCcsICctbWV0YWxfYmluZGluZycsICctaW1hZScsICc8aW5maWxlLm1hZT4nLCAnLW9tYWUnLCAnPG91dGZpbGUubWFlPic=

> <r_lp_tautomer_probability>
1

> <r_epik_Ionization_Penalty>
2.11487e-08

> <r_epik_Ionization_Penalty_Charging>
2.10183e-09

> <r_epik_Ionization_Penalty_Neutral>
1.90469e-08

> <r_epik_State_Penalty>
-0

> <r_epik_Charging_Adjusted_Penalty>
2.10183e-09

> <i_epik_Tot_Q>
0

> <i_epik_Tot_abs_Q>
0

> <r_epik_Metal_State_Penalty>
-0

> <b_epik_Metal_Only>
0

> <s_lp_Force_Field>
OPLS_2005

> <r_lp_Energy>
20.183

> <b_lp_Chiralities_Consistent>
1

> <s_lp_Variant>
AV-unprocessed.smi:1394-3

> <Gold.Version>
5.8.1

> <Gold.Id.Protein>
6NUR|6NUR_protein|mol2

> <Gold.PLP.Fitness>
41.6532

> <Gold.PLP.PLP>
-40.1612

> <Gold.PLP.part.hbond>
-1.0000

> <Gold.PLP.part.metal>
0.0000

> <Gold.PLP.part.buried>
-3.2778

> <Gold.PLP.part.nonpolar>
-35.3792

> <Gold.PLP.part.repulsive>
0.1546

> <Gold.PLP.ligand.clash>
0.0000

> <Gold.PLP.ligand.torsion>
0.9295

> <Gold.PLP.Chemscore.Hbond>
1.0000

> <Gold.PLP.Chemscore.CHOScore>
0.0000

> <Gold.PLP.Chemscore.Metal>
0.0000

> <Gold.Chemscore.Hbonds>
donor molecule, donor type, donor heavy atom, donor atom, acceptor molecule, acceptor atom, score
      P1  H  7997  8010       L1    22  0.59

> <Gold.PLP.Chemscore.Internal.Correction>
0.3510

> <Gold.Rescore>
     Score         DG    S(hbond)    S(metal)    S(lipo)     H(rot)  DE(clash)    DE(int)     intcor
     10.68     -14.41       0.80        0.00      86.81       1.52       0.01       3.73       ----

> <Gold.Chemscore.Fitness>
10.6753

> <Gold.Chemscore.DG>
-14.4094

> <Gold.Chemscore.ZeroCoef>
-5.4800

> <Gold.Chemscore.Hbond>
0.8008

> <Gold.Chemscore.Metal>
0.0000

> <Gold.Chemscore.Lipo>
86.8093

> <Gold.Chemscore.Internal_Hbond>
0.0000

> <Gold.Chemscore.DEClash>
0.0083

> <Gold.Chemscore.DEInternal>
3.7258

> <Gold.Chemscore.Rot>
1.5242

> <Gold.Chemscore.Internal.Correction>
   9.000000E+99

> <Gold.Chemscore.Hbonds>
donor molecule, donor type, donor heavy atom, donor atom, acceptor molecule, acceptor atom, score
      P1  H  7997  8010       L1    22  0.54

> <Gold.Chemscore.Hbond.Weighted>
-2.6746

> <Gold.Chemscore.Metal.Weighted>
-0.0000

> <Gold.Chemscore.Lipo.Weighted>
-10.1567

> <Gold.Chemscore.Internal_Hbond.Weighted>
0.0000

> <Gold.Chemscore.DEClash.Weighted>
0.0083

> <Gold.Chemscore.DEInternal.Weighted>
3.7258

> <Gold.Chemscore.Rot.Weighted>
3.9019

> <Gold.Chemscore.Internal.Correction.Weighted>
   9.000000E+99

> <Gold.Protein.RotatedTorsions>
[ 6907 6896 6895 6894 ] final  172.91 input  -60.11 | X-H torsion
[ 7974 7965 7964 7962 ] final  136.39 input  175.53 | X-H torsion
[ 8008 7997 7996 7995 ] final   40.63 input   59.86 | X-H torsion
[ 10167 10162 10161 10158 ] final   60.64 input  -65.29 | X-H torsion
[ 10718 10713 10712 10709 ] final    1.03 input   66.30 | X-H torsion
[ 10763 10752 10751 10750 ] final   21.04 input  -60.55 | X-H torsion
[ 11005 11000 10999 10996 ] final  141.02 input  -57.11 | X-H torsion

> <Gold.Protein.ActiveResidues>
 VAL166  LYS551  ARG553  GLY616  TRP617  ASP618  TYR619  PRO620  LYS621  CYS622 
 ASP623  PHE694  ASN695  SER759  ASP760  ASP761  ALA762  ILE779  LEU786  VAL792 
 PHE793  MET794  SER795  GLU796  ALA797  LYS798  CYS799  TRP800  GLU811  SER814 

> <Gold.Protein.RotatedAtoms>
  151.7767  133.3346  159.3459 H   0  0  0  0  0  0  0  0  0  0  0  0  # atno 6907 bound_to 6896
  150.7441  134.5968  159.6025 H   0  0  0  0  0  0  0  0  0  0  0  0  # atno 6908 bound_to 6896
  152.3304  134.7268  160.0342 H   0  0  0  0  0  0  0  0  0  0  0  0  # atno 6909 bound_to 6896
  144.9570  139.4754  143.5498 H   0  0  0  0  0  0  0  0  0  0  0  0  # atno 7974 bound_to 7965
  155.2563  140.3356  155.4277 H   0  0  0  0  0  0  0  0  0  0  0  0  # atno 8008 bound_to 7997
  156.2194  140.1802  156.7556 H   0  0  0  0  0  0  0  0  0  0  0  0  # atno 8009 bound_to 7997
  154.5802  140.0655  156.9077 H   0  0  0  0  0  0  0  0  0  0  0  0  # atno 8010 bound_to 7997
  140.1633  144.4348  150.6698 H   0  0  0  0  0  0  0  0  0  0  0  0  # atno 10167 bound_to 10162
  156.8421  130.5524  149.5677 H   0  0  0  0  0  0  0  0  0  0  0  0  # atno 10718 bound_to 10713
  153.1027  135.6677  153.9642 H   0  0  0  0  0  0  0  0  0  0  0  0  # atno 10763 bound_to 10752
  153.9208  135.3014  155.3449 H   0  0  0  0  0  0  0  0  0  0  0  0  # atno 10764 bound_to 10752
  154.7448  135.5062  153.9261 H   0  0  0  0  0  0  0  0  0  0  0  0  # atno 10765 bound_to 10752
  140.0371  134.9323  157.0772 H   0  0  0  0  0  0  0  0  0  0  0  0  # atno 11005 bound_to 11000
  146.3340  139.8693  142.8842 LP  0  0  0  0  0  0  0  0  0  0  0  0  # atno 17320 bound_to 7965
  145.2758  141.0123  143.3746 LP  0  0  0  0  0  0  0  0  0  0  0  0  # atno 17321 bound_to 7965
  140.6629  143.2258  151.5813 LP  0  0  0  0  0  0  0  0  0  0  0  0  # atno 17342 bound_to 10162
  139.5371  144.2751  152.1274 LP  0  0  0  0  0  0  0  0  0  0  0  0  # atno 17343 bound_to 10162
  156.0875  130.5869  150.9674 LP  0  0  0  0  0  0  0  0  0  0  0  0  # atno 17370 bound_to 10713
  157.6350  131.0917  150.8367 LP  0  0  0  0  0  0  0  0  0  0  0  0  # atno 17371 bound_to 10713
  140.4130  134.1961  155.7163 LP  0  0  0  0  0  0  0  0  0  0  0  0  # atno 17394 bound_to 11000
  141.1863  133.8305  157.1074 LP  0  0  0  0  0  0  0  0  0  0  0  0  # atno 17395 bound_to 11000

$$$$
