AV-unprocessed.smi:50|AV-procd|sdf|496|dock5
  -GOLD-   2262016363D 1   1.00000     0.00000
 Structure written by MMmdl.
 43 44  0  0  0  0  0  0  0  0  3 V2000
  152.4495  143.3399  159.9112 C   0  0  0  0  0  0  0  0  0  0  0  0
  151.9363  143.5610  158.4746 C   0  0  0  0  0  0  0  0  0  0  0  0
  151.0652  144.8305  158.4342 C   0  0  0  0  0  0  0  0  0  0  0  0
  151.1823  142.3198  157.9227 C   0  0  1  0  0  0  0  0  0  0  0  0
  150.8370  142.4758  156.4973 N   0  3  0  0  0  0  0  0  0  0  0  0
  151.9826  141.0108  158.0131 C   0  0  0  0  0  0  0  0  0  0  0  0
  152.3850  140.3690  157.0413 O   0  0  0  0  0  0  0  0  0  0  0  0
  152.1411  140.6510  159.2981 O   0  0  0  0  0  0  0  0  0  0  0  0
  152.9080  139.5006  159.6158 C   0  0  0  0  0  0  0  0  0  0  0  0
  153.4825  139.6402  161.0282 C   0  0  0  0  0  0  0  0  0  0  0  0
  154.0927  138.4143  161.3959 O   0  0  0  0  0  0  0  0  0  0  0  0
  154.7896  138.4948  162.5958 C   0  0  0  0  0  0  0  0  0  0  0  0
  154.5841  137.2617  163.3356 N   0  0  0  0  0  0  0  0  0  0  0  0
  154.1014  137.1209  164.5871 C   0  0  0  0  0  0  0  0  0  0  0  0
  154.0231  135.8676  165.0326 N   0  0  0  0  0  0  0  0  0  0  0  0
  154.5165  135.1443  163.9528 C   0  0  0  0  0  0  0  0  0  0  0  0
  154.7269  133.6898  163.7527 C   0  0  0  0  0  0  0  0  0  0  0  0
  154.4239  132.9109  164.6546 O   0  0  0  0  0  0  0  0  0  0  0  0
  155.2580  133.3337  162.5434 N   0  5  0  0  0  0  0  0  0  0  0  0
  155.5655  134.3115  161.5868 C   0  0  0  0  0  0  0  0  0  0  0  0
  156.0985  133.7799  160.4327 N   0  0  0  0  0  0  0  0  0  0  0  0
  155.4008  135.6074  161.6925 N   0  0  0  0  0  0  0  0  0  0  0  0
  154.8654  135.9669  162.9158 C   0  0  0  0  0  0  0  0  0  0  0  0
  150.2490  142.2042  158.4752 H   0  0  0  0  0  0  0  0  0  0  0  0
  151.6273  143.1265  160.5950 H   0  0  0  0  0  0  0  0  0  0  0  0
  152.9659  144.2253  160.2835 H   0  0  0  0  0  0  0  0  0  0  0  0
  153.1556  142.5121  159.9744 H   0  0  0  0  0  0  0  0  0  0  0  0
  152.8046  143.7505  157.8410 H   0  0  0  0  0  0  0  0  0  0  0  0
  150.1517  144.7018  159.0158 H   0  0  0  0  0  0  0  0  0  0  0  0
  150.7796  145.0971  157.4167 H   0  0  0  0  0  0  0  0  0  0  0  0
  151.6012  145.6861  158.8467 H   0  0  0  0  0  0  0  0  0  0  0  0
  151.6655  142.7328  155.9799 H   0  0  0  0  0  0  0  0  0  0  0  0
  150.1402  143.2002  156.3991 H   0  0  0  0  0  0  0  0  0  0  0  0
  152.2632  138.6223  159.5647 H   0  0  0  0  0  0  0  0  0  0  0  0
  153.7128  139.3593  158.8925 H   0  0  0  0  0  0  0  0  0  0  0  0
  154.1964  140.4639  161.0777 H   0  0  0  0  0  0  0  0  0  0  0  0
  152.6716  139.8655  161.7224 H   0  0  0  0  0  0  0  0  0  0  0  0
  155.8575  138.6165  162.4066 H   0  0  0  0  0  0  0  0  0  0  0  0
  154.4254  139.3259  163.2009 H   0  0  0  0  0  0  0  0  0  0  0  0
  153.7966  137.9625  165.1911 H   0  0  0  0  0  0  0  0  0  0  0  0
  156.2511  132.7924  160.2918 H   0  0  0  0  0  0  0  0  0  0  0  0
  156.3682  134.3441  159.6403 H   0  0  0  0  0  0  0  0  0  0  0  0
  150.4716  141.6044  156.1409 H   0  0  0  0  0  0  0  0  0  0  0  0
  1  2  1  0  0  0  0
  1 25  1  0  0  0  0
  1 26  1  0  0  0  0
  1 27  1  0  0  0  0
  2  3  1  0  0  0  0
  2  4  1  0  0  0  0
  2 28  1  0  0  0  0
  3 29  1  0  0  0  0
  3 30  1  0  0  0  0
  3 31  1  0  0  0  0
  4 24  1  0  0  0  0
  4  5  1  0  0  0  0
  4  6  1  0  0  0  0
  5 32  1  0  0  0  0
  5 33  1  0  0  0  0
  5 43  1  0  0  0  0
  6  7  2  0  0  0  0
  6  8  1  0  0  0  0
  8  9  1  0  0  0  0
  9 10  1  0  0  0  0
  9 34  1  0  0  0  0
  9 35  1  0  0  0  0
 10 11  1  0  0  0  0
 10 36  1  0  0  0  0
 10 37  1  0  0  0  0
 11 12  1  0  0  0  0
 12 13  1  0  0  0  0
 12 38  1  0  0  0  0
 12 39  1  0  0  0  0
 13 23  1  0  0  0  0
 13 14  1  0  0  0  0
 14 15  2  0  0  0  0
 14 40  1  0  0  0  0
 15 16  1  0  0  0  0
 16 23  2  0  0  0  0
 16 17  1  0  0  0  0
 17 18  2  0  0  0  0
 17 19  1  0  0  0  0
 19 20  1  0  0  0  0
 20 21  1  0  0  0  0
 20 22  2  0  0  0  0
 21 41  1  0  0  0  0
 21 42  1  0  0  0  0
 22 23  1  0  0  0  0
M  CHG  1   5   1
M  CHG  1  19  -1
M  END
> <s_m_source_file>
AV-unprocessed.smi

> <i_m_source_file_index>
50

> <i_lp_mmshare_version>
43012

> <i_f3d_flags>
0

> <s_epik_input>
W0NIM11bQ0hdKFtDSDNdKVtDQEhdKFtOSDJdKUMoPU8pT1tDSDJdW0NIMl1PW0NIMl1uKFtjSF1uMSljKGMxMiluYyhbTkgyXSlbbkhdYzI9Tw==

> <s_epik_cmdline>
J2VwaWtfcHl0aG9uJywgJy1waCcsICc3LjAnLCAnLXRuJywgJzgnLCAnLW1hJywgJzIwMCcsICctbWV0YWxfYmluZGluZycsICctaW1hZScsICc8aW5maWxlLm1hZT4nLCAnLW9tYWUnLCAnPG91dGZpbGUubWFlPic=

> <r_lp_tautomer_probability>
0.99994

> <r_epik_Ionization_Penalty>
3.77459

> <r_epik_Ionization_Penalty_Charging>
0.215994

> <r_epik_Ionization_Penalty_Neutral>
3.5586

> <r_epik_State_Penalty>
3.75449

> <r_epik_Charging_Adjusted_Penalty>
3.97048

> <i_epik_Tot_Q>
0

> <i_epik_Tot_abs_Q>
2

> <r_epik_Metal_State_Penalty>
0.723824

> <b_epik_Metal_Only>
1

> <s_epik_Chemistry_Notes>
This compound has an ester and may undergo hydrolysis at high or low pH. This compound contains an acetal/aminal-like group ( X-CH(R)-Y where X, Y are N, S, or O) that may be acid/base labile, releasing an aldehyde.

> <s_lp_Force_Field>
OPLS_2005

> <r_lp_Energy>
22.4326

> <b_lp_Chiralities_Consistent>
1

> <s_lp_Variant>
AV-unprocessed.smi:50-6

> <Gold.Version>
5.8.1

> <Gold.Id.Protein>
6NUR|6NUR_protein|mol2

> <Gold.PLP.Fitness>
43.5477

> <Gold.PLP.PLP>
-36.2711

> <Gold.PLP.part.hbond>
-2.0000

> <Gold.PLP.part.metal>
0.0000

> <Gold.PLP.part.buried>
-5.5092

> <Gold.PLP.part.nonpolar>
-29.7567

> <Gold.PLP.part.repulsive>
0.3043

> <Gold.PLP.ligand.clash>
0.0000

> <Gold.PLP.ligand.torsion>
0.6516

> <Gold.PLP.Chemscore.Hbond>
2.7899

> <Gold.PLP.Chemscore.CHOScore>
0.0000

> <Gold.PLP.Chemscore.Metal>
0.0000

> <Gold.Chemscore.Hbonds>
donor molecule, donor type, donor heavy atom, donor atom, acceptor molecule, acceptor atom, score
      L1  H     5    33       P1  8028  1.66
      P1  H  7997  8008       L1     7  0.94

> <Gold.PLP.Chemscore.Internal.Correction>
0.2101

> <Gold.Rescore>
     Score         DG    S(hbond)    S(metal)    S(lipo)     H(rot)  DE(clash)    DE(int)     intcor
      4.51      -6.69       1.75        0.00      66.09       4.83       0.20       1.98       ----

> <Gold.Chemscore.Fitness>
4.5142

> <Gold.Chemscore.DG>
-6.6883

> <Gold.Chemscore.ZeroCoef>
-5.4800

> <Gold.Chemscore.Hbond>
1.7495

> <Gold.Chemscore.Metal>
0.0000

> <Gold.Chemscore.Lipo>
66.0910

> <Gold.Chemscore.Internal_Hbond>
0.0000

> <Gold.Chemscore.DEClash>
0.1951

> <Gold.Chemscore.DEInternal>
1.9789

> <Gold.Chemscore.Rot>
4.8312

> <Gold.Chemscore.Internal.Correction>
   9.000000E+99

> <Gold.Chemscore.Hbonds>
donor molecule, donor type, donor heavy atom, donor atom, acceptor molecule, acceptor atom, score
      L1  H     5    33       P1  8028  0.80
      P1  H  7997  8008       L1     7  0.84

> <Gold.Chemscore.Hbond.Weighted>
-5.8435

> <Gold.Chemscore.Metal.Weighted>
-0.0000

> <Gold.Chemscore.Lipo.Weighted>
-7.7327

> <Gold.Chemscore.Internal_Hbond.Weighted>
0.0000

> <Gold.Chemscore.DEClash.Weighted>
0.1951

> <Gold.Chemscore.DEInternal.Weighted>
1.9789

> <Gold.Chemscore.Rot.Weighted>
12.3678

> <Gold.Chemscore.Internal.Correction.Weighted>
   9.000000E+99

> <Gold.Protein.RotatedTorsions>
[ 6907 6896 6895 6894 ] final  -46.28 input  -60.11 | X-H torsion
[ 7974 7965 7964 7962 ] final  142.06 input  175.53 | X-H torsion
[ 8008 7997 7996 7995 ] final  -51.97 input   59.86 | X-H torsion
[ 10167 10162 10161 10158 ] final   17.46 input  -65.29 | X-H torsion
[ 10718 10713 10712 10709 ] final  -73.15 input   66.30 | X-H torsion
[ 10763 10752 10751 10750 ] final -172.21 input  -60.55 | X-H torsion
[ 11005 11000 10999 10996 ] final   35.21 input  -57.11 | X-H torsion

> <Gold.Protein.ActiveResidues>
 VAL166  LYS551  ARG553  GLY616  TRP617  ASP618  TYR619  PRO620  LYS621  CYS622 
 ASP623  PHE694  ASN695  SER759  ASP760  ASP761  ALA762  ILE779  LEU786  VAL792 
 PHE793  MET794  SER795  GLU796  ALA797  LYS798  CYS799  TRP800  GLU811  SER814 

> <Gold.Protein.RotatedAtoms>
  150.9129  134.8546  159.7437 H   0  0  0  0  0  0  0  0  0  0  0  0  # atno 6907 bound_to 6896
  152.4954  134.4332  159.9529 H   0  0  0  0  0  0  0  0  0  0  0  0  # atno 6908 bound_to 6896
  151.4372  133.3614  159.2812 H   0  0  0  0  0  0  0  0  0  0  0  0  # atno 6909 bound_to 6896
  144.9041  139.5382  143.5739 H   0  0  0  0  0  0  0  0  0  0  0  0  # atno 7974 bound_to 7965
  154.4095  140.1235  156.4916 H   0  0  0  0  0  0  0  0  0  0  0  0  # atno 8008 bound_to 7997
  155.6985  140.3495  155.4903 H   0  0  0  0  0  0  0  0  0  0  0  0  # atno 8009 bound_to 7997
  155.9406  140.1086  157.1048 H   0  0  0  0  0  0  0  0  0  0  0  0  # atno 8010 bound_to 7997
  140.5724  143.9136  150.6723 H   0  0  0  0  0  0  0  0  0  0  0  0  # atno 10167 bound_to 10162
  156.0291  130.4388  150.2699 H   0  0  0  0  0  0  0  0  0  0  0  0  # atno 10718 bound_to 10713
  154.6218  135.2876  155.0317 H   0  0  0  0  0  0  0  0  0  0  0  0  # atno 10763 bound_to 10752
  154.1509  135.6503  153.4967 H   0  0  0  0  0  0  0  0  0  0  0  0  # atno 10764 bound_to 10752
  153.0239  135.5355  154.7011 H   0  0  0  0  0  0  0  0  0  0  0  0  # atno 10765 bound_to 10752
  140.2450  134.3370  155.7911 H   0  0  0  0  0  0  0  0  0  0  0  0  # atno 11005 bound_to 11000
  146.3124  139.7795  142.9009 LP  0  0  0  0  0  0  0  0  0  0  0  0  # atno 17320 bound_to 7965
  145.3565  141.0318  143.3309 LP  0  0  0  0  0  0  0  0  0  0  0  0  # atno 17321 bound_to 7965
  140.2614  143.3521  152.1319 LP  0  0  0  0  0  0  0  0  0  0  0  0  # atno 17342 bound_to 10162
  139.5125  144.6917  151.5741 LP  0  0  0  0  0  0  0  0  0  0  0  0  # atno 17343 bound_to 10162
  157.0802  131.0141  151.3159 LP  0  0  0  0  0  0  0  0  0  0  0  0  # atno 17370 bound_to 10713
  157.4933  130.7835  149.7530 LP  0  0  0  0  0  0  0  0  0  0  0  0  # atno 17371 bound_to 10713
  141.2207  133.7320  156.8946 LP  0  0  0  0  0  0  0  0  0  0  0  0  # atno 17394 bound_to 11000
  140.1615  134.9162  157.2720 LP  0  0  0  0  0  0  0  0  0  0  0  0  # atno 17395 bound_to 11000

$$$$
