AV-unprocessed.smi:1244|AV-procd|sdf|5235|dock9
  -GOLD-   22720 4343D 1   1.00000     0.00000
 Structure written by MMmdl.
 55 57  0  0  0  0  0  0  0  0  4 V2000
  150.0507  141.3645  157.2415 C   0  0  0  0  0  0  0  0  0  0  0  0
  150.2516  141.4081  155.7163 C   0  0  2  0  0  0  0  0  0  0  0  0
  148.9449  141.2292  154.9187 C   0  0  0  0  0  0  0  0  0  0  0  0
  148.4816  139.8212  154.9586 N   0  3  1  0  0  0  0  0  0  0  0  0
  147.1783  139.6226  154.2703 C   0  0  0  0  0  0  0  0  0  0  0  0
  147.3558  139.1313  152.8191 C   0  0  0  0  0  0  0  0  0  0  0  0
  146.0754  138.6613  152.2912 N   0  5  0  0  0  0  0  0  0  0  0  0
  145.8943  137.5011  151.6050 C   0  0  0  0  0  0  0  0  0  0  0  0
  146.3861  137.1826  150.5165 O   0  0  0  0  0  0  0  0  0  0  0  0
  145.0597  136.6652  152.2466 N   0  0  0  0  0  0  0  0  0  0  0  0
  144.5899  135.3804  151.8521 C   0  0  0  0  0  0  0  0  0  0  0  0
  144.9570  134.8107  150.6062 C   0  0  0  0  0  0  0  0  0  0  0  0
  144.4606  133.5465  150.2373 C   0  0  0  0  0  0  0  0  0  0  0  0
  143.6091  132.8658  151.1236 C   0  0  0  0  0  0  0  0  0  0  0  0
  143.2981  133.4227  152.3122 N   0  3  0  0  0  0  0  0  0  0  0  0
  143.7556  134.6295  152.7311 C   0  0  0  0  0  0  0  0  0  0  0  0
  143.3566  135.0746  154.0128 N   0  0  0  0  0  0  0  0  0  0  0  0
  144.3395  135.2433  155.0769 C   0  0  0  0  0  0  0  0  0  0  0  0
  143.6189  136.0431  156.1590 C   0  0  0  0  0  0  0  0  0  0  0  0
  142.7163  136.9623  155.3417 C   0  0  0  0  0  0  0  0  0  0  0  0
  142.3334  136.1091  154.1278 C   0  0  0  0  0  0  0  0  0  0  0  0
  149.5595  138.9168  154.4823 C   0  0  0  0  0  0  0  0  0  0  0  0
  150.8300  139.1067  155.3286 C   0  0  1  0  0  0  0  0  0  0  0  0
  151.9936  138.2495  154.8183 C   0  0  0  0  0  0  0  0  0  0  0  0
  151.2350  140.4722  155.2740 O   0  0  0  0  0  0  0  0  0  0  0  0
  149.4002  142.1760  157.5682 H   0  0  0  0  0  0  0  0  0  0  0  0
  151.0021  141.4762  157.7617 H   0  0  0  0  0  0  0  0  0  0  0  0
  149.5946  140.4320  157.5733 H   0  0  0  0  0  0  0  0  0  0  0  0
  150.6496  142.3957  155.4810 H   0  0  0  0  0  0  0  0  0  0  0  0
  148.1752  141.8910  155.3183 H   0  0  0  0  0  0  0  0  0  0  0  0
  149.1037  141.5203  153.8790 H   0  0  0  0  0  0  0  0  0  0  0  0
  146.5942  138.8741  154.8087 H   0  0  0  0  0  0  0  0  0  0  0  0
  146.5923  140.5425  154.3052 H   0  0  0  0  0  0  0  0  0  0  0  0
  147.7475  139.9493  152.2147 H   0  0  0  0  0  0  0  0  0  0  0  0
  148.1278  138.3609  152.7941 H   0  0  0  0  0  0  0  0  0  0  0  0
  144.6280  137.0490  153.0741 H   0  0  0  0  0  0  0  0  0  0  0  0
  145.6201  135.3239  149.9264 H   0  0  0  0  0  0  0  0  0  0  0  0
  144.7295  133.1077  149.2876 H   0  0  0  0  0  0  0  0  0  0  0  0
  143.1783  131.8951  150.9253 H   0  0  0  0  0  0  0  0  0  0  0  0
  144.6912  134.2812  155.4509 H   0  0  0  0  0  0  0  0  0  0  0  0
  145.1994  135.8086  154.7151 H   0  0  0  0  0  0  0  0  0  0  0  0
  143.0123  135.3769  156.7743 H   0  0  0  0  0  0  0  0  0  0  0  0
  144.3018  136.5845  156.8143 H   0  0  0  0  0  0  0  0  0  0  0  0
  141.8494  137.3165  155.9003 H   0  0  0  0  0  0  0  0  0  0  0  0
  143.2836  137.8343  155.0134 H   0  0  0  0  0  0  0  0  0  0  0  0
  142.2577  136.7168  153.2249 H   0  0  0  0  0  0  0  0  0  0  0  0
  141.3683  135.6304  154.2981 H   0  0  0  0  0  0  0  0  0  0  0  0
  149.2351  137.8774  154.5421 H   0  0  0  0  0  0  0  0  0  0  0  0
  149.7703  139.1232  153.4315 H   0  0  0  0  0  0  0  0  0  0  0  0
  150.6291  138.8216  156.3614 H   0  0  0  0  0  0  0  0  0  0  0  0
  151.7419  137.1891  154.8461 H   0  0  0  0  0  0  0  0  0  0  0  0
  152.8830  138.3952  155.4317 H   0  0  0  0  0  0  0  0  0  0  0  0
  152.2523  138.5053  153.7904 H   0  0  0  0  0  0  0  0  0  0  0  0
  148.3174  139.6055  155.9317 H   0  0  0  0  0  0  0  0  0  0  0  0
  142.6876  132.8990  152.9391 H   0  0  0  0  0  0  0  0  0  0  0  0
  1  2  1  0  0  0  0
  1 26  1  0  0  0  0
  1 27  1  0  0  0  0
  1 28  1  0  0  0  0
  2 25  1  0  0  0  0
  2  3  1  0  0  0  0
  2 29  1  0  0  0  0
  3  4  1  0  0  0  0
  3 30  1  0  0  0  0
  3 31  1  0  0  0  0
  4  5  1  0  0  0  0
  4 22  1  0  0  0  0
  4 54  1  0  0  0  0
  5  6  1  0  0  0  0
  5 32  1  0  0  0  0
  5 33  1  0  0  0  0
  6  7  1  0  0  0  0
  6 34  1  0  0  0  0
  6 35  1  0  0  0  0
  7  8  1  0  0  0  0
  8  9  2  0  0  0  0
  8 10  1  0  0  0  0
 10 11  1  0  0  0  0
 10 36  1  0  0  0  0
 11 16  1  0  0  0  0
 11 12  2  0  0  0  0
 12 13  1  0  0  0  0
 12 37  1  0  0  0  0
 13 14  2  0  0  0  0
 13 38  1  0  0  0  0
 14 15  1  0  0  0  0
 14 39  1  0  0  0  0
 15 16  2  0  0  0  0
 15 55  1  0  0  0  0
 16 17  1  0  0  0  0
 17 21  1  0  0  0  0
 17 18  1  0  0  0  0
 18 19  1  0  0  0  0
 18 40  1  0  0  0  0
 18 41  1  0  0  0  0
 19 20  1  0  0  0  0
 19 42  1  0  0  0  0
 19 43  1  0  0  0  0
 20 21  1  0  0  0  0
 20 44  1  0  0  0  0
 20 45  1  0  0  0  0
 21 46  1  0  0  0  0
 21 47  1  0  0  0  0
 22 23  1  0  0  0  0
 22 48  1  0  0  0  0
 22 49  1  0  0  0  0
 23 24  1  0  0  0  0
 23 25  1  0  0  0  0
 23 50  1  0  0  0  0
 24 51  1  0  0  0  0
 24 52  1  0  0  0  0
 24 53  1  0  0  0  0
M  CHG  1   4   1
M  CHG  1   7  -1
M  CHG  1  15   1
M  END
> <s_m_source_file>
AV-unprocessed.smi

> <i_m_source_file_index>
1244

> <i_lp_mmshare_version>
43012

> <i_f3d_flags>
0

> <s_epik_input>
W0NIM11bQ0BASF0xW0NIMl1OKFtDSDJdW0NASF0oTzEpW0NIM10pW0NIMl1bQ0gyXVtOSF1DKD1PKVtOSF1jMltjSF1bY0hdW2NIXW5jMk4zW0NIMl1bQ0gyXVtDSDJdW0NIMl0z

> <s_epik_cmdline>
J2VwaWtfcHl0aG9uJywgJy1waCcsICc3LjAnLCAnLXRuJywgJzgnLCAnLW1hJywgJzIwMCcsICctbWV0YWxfYmluZGluZycsICctaW1hZScsICc8aW5maWxlLm1hZT4nLCAnLW9tYWUnLCAnPG91dGZpbGUubWFlPic=

> <r_lp_tautomer_probability>
0.999994

> <r_epik_Ionization_Penalty>
8.60539

> <r_epik_Ionization_Penalty_Charging>
8.60539

> <r_epik_Ionization_Penalty_Neutral>
3.60441e-06

> <r_epik_State_Penalty>
8.59967

> <r_epik_Charging_Adjusted_Penalty>
17.2051

> <i_epik_Tot_Q>
1

> <i_epik_Tot_abs_Q>
3

> <r_epik_Metal_State_Penalty>
4.59489

> <b_epik_Metal_Only>
1

> <s_lp_Force_Field>
OPLS_2005

> <r_lp_Energy>
46.9863

> <b_lp_Chiralities_Consistent>
1

> <s_lp_Variant>
AV-unprocessed.smi:1244-15

> <Gold.Version>
5.8.1

> <Gold.Id.Protein>
6NUR|6NUR_protein|mol2

> <Gold.PLP.Fitness>
43.5419

> <Gold.PLP.PLP>
-34.2919

> <Gold.PLP.part.hbond>
-3.0000

> <Gold.PLP.part.metal>
0.0000

> <Gold.PLP.part.buried>
-3.4707

> <Gold.PLP.part.nonpolar>
-32.2037

> <Gold.PLP.part.repulsive>
3.0624

> <Gold.PLP.ligand.clash>
0.0000

> <Gold.PLP.ligand.torsion>
1.3768

> <Gold.PLP.Chemscore.Hbond>
3.8516

> <Gold.PLP.Chemscore.CHOScore>
0.0000

> <Gold.PLP.Chemscore.Metal>
0.0000

> <Gold.Chemscore.Hbonds>
donor molecule, donor type, donor heavy atom, donor atom, acceptor molecule, acceptor atom, score
      L1  H    15    55       P1 10957  1.26
      P1  H  7954  7966       L1     9  0.90
      P1  H  7989  7998       L1    25  0.94

> <Gold.PLP.Chemscore.Internal.Correction>
0.4488

> <Gold.Rescore>
     Score         DG    S(hbond)    S(metal)    S(lipo)     H(rot)  DE(clash)    DE(int)     intcor
     10.81     -15.90       1.15        0.00      91.30       1.60       2.04       3.04       ----

> <Gold.Chemscore.Fitness>
10.8146

> <Gold.Chemscore.DG>
-15.8988

> <Gold.Chemscore.ZeroCoef>
-5.4800

> <Gold.Chemscore.Hbond>
1.1457

> <Gold.Chemscore.Metal>
0.0000

> <Gold.Chemscore.Lipo>
91.3031

> <Gold.Chemscore.Internal_Hbond>
0.0000

> <Gold.Chemscore.DEClash>
2.0394

> <Gold.Chemscore.DEInternal>
3.0448

> <Gold.Chemscore.Rot>
1.5978

> <Gold.Chemscore.Internal.Correction>
   9.000000E+99

> <Gold.Chemscore.Hbonds>
donor molecule, donor type, donor heavy atom, donor atom, acceptor molecule, acceptor atom, score
      L1  H    15    55       P1 10957  0.21
      P1  H  7954  7966       L1     9  0.83
      P1  H  7989  7998       L1    25  0.36

> <Gold.Chemscore.Hbond.Weighted>
-3.8268

> <Gold.Chemscore.Metal.Weighted>
-0.0000

> <Gold.Chemscore.Lipo.Weighted>
-10.6825

> <Gold.Chemscore.Internal_Hbond.Weighted>
0.0000

> <Gold.Chemscore.DEClash.Weighted>
2.0394

> <Gold.Chemscore.DEInternal.Weighted>
3.0448

> <Gold.Chemscore.Rot.Weighted>
4.0905

> <Gold.Chemscore.Internal.Correction.Weighted>
   9.000000E+99

> <Gold.Protein.RotatedTorsions>
[ 6907 6896 6895 6894 ] final  178.56 input  -60.11 | X-H torsion
[ 7974 7965 7964 7962 ] final   76.18 input  175.53 | X-H torsion
[ 8008 7997 7996 7995 ] final   -1.42 input   59.86 | X-H torsion
[ 10167 10162 10161 10158 ] final  144.40 input  -65.29 | X-H torsion
[ 10718 10713 10712 10709 ] final   68.52 input   66.30 | X-H torsion
[ 10763 10752 10751 10750 ] final -140.54 input  -60.55 | X-H torsion
[ 11005 11000 10999 10996 ] final   90.43 input  -57.11 | X-H torsion

> <Gold.Protein.ActiveResidues>
 VAL166  LYS551  ARG553  GLY616  TRP617  ASP618  TYR619  PRO620  LYS621  CYS622 
 ASP623  PHE694  ASN695  SER759  ASP760  ASP761  ALA762  ILE779  LEU786  VAL792 
 PHE793  MET794  SER795  GLU796  ALA797  LYS798  CYS799  TRP800  GLU811  SER814 

> <Gold.Protein.RotatedAtoms>
  151.6859  133.3311  159.3230 H   0  0  0  0  0  0  0  0  0  0  0  0  # atno 6907 bound_to 6896
  150.7801  134.6740  159.6417 H   0  0  0  0  0  0  0  0  0  0  0  0  # atno 6908 bound_to 6896
  152.3856  134.6526  160.0179 H   0  0  0  0  0  0  0  0  0  0  0  0  # atno 6909 bound_to 6896
  145.7061  139.2599  143.1677 H   0  0  0  0  0  0  0  0  0  0  0  0  # atno 7974 bound_to 7965
  154.6470  140.2560  155.7257 H   0  0  0  0  0  0  0  0  0  0  0  0  # atno 8008 bound_to 7997
  156.2556  140.2876  156.0808 H   0  0  0  0  0  0  0  0  0  0  0  0  # atno 8009 bound_to 7997
  155.1509  140.0382  157.2811 H   0  0  0  0  0  0  0  0  0  0  0  0  # atno 8010 bound_to 7997
  139.4948  144.5975  151.6552 H   0  0  0  0  0  0  0  0  0  0  0  0  # atno 10167 bound_to 10162
  157.6294  130.9378  150.0389 H   0  0  0  0  0  0  0  0  0  0  0  0  # atno 10718 bound_to 10713
  154.8575  135.3550  154.5723 H   0  0  0  0  0  0  0  0  0  0  0  0  # atno 10763 bound_to 10752
  153.6336  135.7001  153.5271 H   0  0  0  0  0  0  0  0  0  0  0  0  # atno 10764 bound_to 10752
  153.3029  135.4201  155.1228 H   0  0  0  0  0  0  0  0  0  0  0  0  # atno 10765 bound_to 10752
  139.8856  134.8613  156.3284 H   0  0  0  0  0  0  0  0  0  0  0  0  # atno 11005 bound_to 11000
  146.0754  140.7823  142.9667 LP  0  0  0  0  0  0  0  0  0  0  0  0  # atno 17320 bound_to 7965
  144.6955  140.3407  143.7199 LP  0  0  0  0  0  0  0  0  0  0  0  0  # atno 17321 bound_to 7965
  140.5616  144.0259  150.6172 LP  0  0  0  0  0  0  0  0  0  0  0  0  # atno 17342 bound_to 10162
  140.3347  143.3056  152.0651 LP  0  0  0  0  0  0  0  0  0  0  0  0  # atno 17343 bound_to 10162
  156.1487  130.3642  149.9471 LP  0  0  0  0  0  0  0  0  0  0  0  0  # atno 17370 bound_to 10713
  156.7496  130.9110  151.3636 LP  0  0  0  0  0  0  0  0  0  0  0  0  # atno 17371 bound_to 10713
  140.9739  133.7309  156.0574 LP  0  0  0  0  0  0  0  0  0  0  0  0  # atno 17394 bound_to 11000
  140.7835  134.3698  157.5482 LP  0  0  0  0  0  0  0  0  0  0  0  0  # atno 17395 bound_to 11000

$$$$
