AV-unprocessed.smi:190|AV-procd|sdf|1491|dock1
  -GOLD-   2262019313D 1   1.00000     0.00000
 Structure written by MMmdl.
 54 58  0  0  0  0  0  0  0  0  1 V2000
  146.7826  135.6724  153.5766 O   0  0  0  0  0  0  0  0  0  0  0  0
  145.8840  134.6128  153.3135 C   0  0  0  0  0  0  0  0  0  0  0  0
  146.6151  133.2626  153.0643 C   0  0  0  0  0  0  0  0  0  0  0  0
  147.6075  133.0419  154.2478 C   0  0  0  0  0  0  0  0  0  0  0  0
  147.0349  133.1521  155.5822 N   0  0  0  0  0  0  0  0  0  0  0  0
  145.8327  132.6397  156.0104 C   0  0  0  0  0  0  0  0  0  0  0  0
  145.5377  132.8858  157.2567 N   0  0  0  0  0  0  0  0  0  0  0  0
  146.6086  133.6387  157.7292 C   0  0  0  0  0  0  0  0  0  0  0  0
  146.9368  134.2420  158.9831 C   0  0  0  0  0  0  0  0  0  0  0  0
  146.1522  134.1650  160.0991 N   0  0  0  0  0  0  0  0  0  0  0  0
  145.5507  132.8889  160.4733 C   0  0  0  0  0  0  0  0  0  0  0  0
  145.0573  133.0457  161.9148 C   0  0  0  0  0  0  0  0  0  0  0  0
  145.0865  134.5546  162.1514 C   0  0  0  0  0  0  0  0  0  0  0  0
  146.2608  135.0324  161.2815 C   0  0  1  0  0  0  0  0  0  0  0  0
  147.5914  134.8786  162.0349 C   0  0  0  0  0  0  0  0  0  0  0  0
  147.8773  136.2960  162.5156 C   0  0  0  0  0  0  0  0  0  0  0  0
  147.4136  137.0932  161.4398 O   0  0  0  0  0  0  0  0  0  0  0  0
  146.1740  136.5510  161.0023 C   0  0  0  0  0  0  0  0  0  0  0  0
  148.1029  134.9392  159.0338 N   0  0  0  0  0  0  0  0  0  0  0  0
  148.8958  135.0385  157.9648 C   0  0  0  0  0  0  0  0  0  0  0  0
  148.7192  134.5249  156.7484 N   0  0  0  0  0  0  0  0  0  0  0  0
  147.5513  133.8261  156.6758 C   0  0  0  0  0  0  0  0  0  0  0  0
  145.6077  132.0888  152.9489 C   0  0  0  0  0  0  0  0  0  0  0  0
  144.7379  132.1772  151.6814 C   0  0  0  0  0  0  0  0  0  0  0  0
  145.5676  132.2148  150.5268 O   0  0  0  0  0  0  0  0  0  0  0  0
  146.4272  133.3474  150.4945 C   0  0  0  0  0  0  0  0  0  0  0  0
  147.3719  133.3264  151.7111 C   0  0  0  0  0  0  0  0  0  0  0  0
  147.2329  135.8909  152.7748 H   0  0  0  0  0  0  0  0  0  0  0  0
  145.1916  134.5585  154.1514 H   0  0  0  0  0  0  0  0  0  0  0  0
  145.2849  134.8838  152.4435 H   0  0  0  0  0  0  0  0  0  0  0  0
  148.0652  132.0552  154.1667 H   0  0  0  0  0  0  0  0  0  0  0  0
  148.4310  133.7546  154.1881 H   0  0  0  0  0  0  0  0  0  0  0  0
  145.1787  132.0699  155.3662 H   0  0  0  0  0  0  0  0  0  0  0  0
  144.7045  132.6875  159.8160 H   0  0  0  0  0  0  0  0  0  0  0  0
  146.2604  132.0654  160.3849 H   0  0  0  0  0  0  0  0  0  0  0  0
  144.0682  132.6146  162.0706 H   0  0  0  0  0  0  0  0  0  0  0  0
  145.7481  132.5483  162.5965 H   0  0  0  0  0  0  0  0  0  0  0  0
  144.1512  134.9871  161.7914 H   0  0  0  0  0  0  0  0  0  0  0  0
  145.1877  134.8189  163.2047 H   0  0  0  0  0  0  0  0  0  0  0  0
  147.5550  134.1642  162.8577 H   0  0  0  0  0  0  0  0  0  0  0  0
  148.3965  134.5579  161.3748 H   0  0  0  0  0  0  0  0  0  0  0  0
  147.3090  136.5273  163.4178 H   0  0  0  0  0  0  0  0  0  0  0  0
  148.9346  136.4671  162.7180 H   0  0  0  0  0  0  0  0  0  0  0  0
  145.9833  136.7984  159.9580 H   0  0  0  0  0  0  0  0  0  0  0  0
  145.3791  137.0140  161.5889 H   0  0  0  0  0  0  0  0  0  0  0  0
  149.8005  135.6114  158.1060 H   0  0  0  0  0  0  0  0  0  0  0  0
  146.1432  131.1414  152.9057 H   0  0  0  0  0  0  0  0  0  0  0  0
  144.9734  132.0331  153.8339 H   0  0  0  0  0  0  0  0  0  0  0  0
  144.0934  131.3006  151.6150 H   0  0  0  0  0  0  0  0  0  0  0  0
  144.0784  133.0451  151.7032 H   0  0  0  0  0  0  0  0  0  0  0  0
  147.0113  133.3096  149.5746 H   0  0  0  0  0  0  0  0  0  0  0  0
  145.8425  134.2661  150.4480 H   0  0  0  0  0  0  0  0  0  0  0  0
  148.0349  134.1918  151.6858 H   0  0  0  0  0  0  0  0  0  0  0  0
  148.0106  132.4516  151.5946 H   0  0  0  0  0  0  0  0  0  0  0  0
  1  2  1  0  0  0  0
  1 28  1  0  0  0  0
  2  3  1  0  0  0  0
  2 29  1  0  0  0  0
  2 30  1  0  0  0  0
  3 27  1  0  0  0  0
  3  4  1  0  0  0  0
  3 23  1  0  0  0  0
  4  5  1  0  0  0  0
  4 31  1  0  0  0  0
  4 32  1  0  0  0  0
  5 22  1  0  0  0  0
  5  6  1  0  0  0  0
  6  7  2  0  0  0  0
  6 33  1  0  0  0  0
  7  8  1  0  0  0  0
  8 22  2  0  0  0  0
  8  9  1  0  0  0  0
  9 10  1  0  0  0  0
  9 19  2  0  0  0  0
 10 14  1  0  0  0  0
 10 11  1  0  0  0  0
 11 12  1  0  0  0  0
 11 34  1  0  0  0  0
 11 35  1  0  0  0  0
 12 13  1  0  0  0  0
 12 36  1  0  0  0  0
 12 37  1  0  0  0  0
 13 14  1  0  0  0  0
 13 38  1  0  0  0  0
 13 39  1  0  0  0  0
 14 18  1  0  0  0  0
 14 15  1  0  0  0  0
 15 16  1  0  0  0  0
 15 40  1  0  0  0  0
 15 41  1  0  0  0  0
 16 17  1  0  0  0  0
 16 42  1  0  0  0  0
 16 43  1  0  0  0  0
 17 18  1  0  0  0  0
 18 44  1  0  0  0  0
 18 45  1  0  0  0  0
 19 20  1  0  0  0  0
 20 21  2  0  0  0  0
 20 46  1  0  0  0  0
 21 22  1  0  0  0  0
 23 24  1  0  0  0  0
 23 47  1  0  0  0  0
 23 48  1  0  0  0  0
 24 25  1  0  0  0  0
 24 49  1  0  0  0  0
 24 50  1  0  0  0  0
 25 26  1  0  0  0  0
 26 27  1  0  0  0  0
 26 51  1  0  0  0  0
 26 52  1  0  0  0  0
 27 53  1  0  0  0  0
 27 54  1  0  0  0  0
M  END
> <s_m_source_file>
AV-unprocessed.smi

> <i_m_source_file_index>
190

> <i_lp_mmshare_version>
43012

> <i_f3d_flags>
0

> <s_epik_input>
W0NIMl0xW0NIMl1PW0NIMl1bQ0gyXUMxKFtDSDJdW09IXSlbQ0gyXW4oW2NIXW4yKWMoYzIzKW5bY0hdbmMzTihbQ0gyXVtDSDJdW0NIMl00KVtDQF00NVtDSDJdW0NIMl1PW0NIMl01

> <s_epik_cmdline>
J2VwaWtfcHl0aG9uJywgJy1waCcsICc3LjAnLCAnLXRuJywgJzgnLCAnLW1hJywgJzIwMCcsICctbWV0YWxfYmluZGluZycsICctaW1hZScsICc8aW5maWxlLm1hZT4nLCAnLW9tYWUnLCAnPG91dGZpbGUubWFlPic=

> <r_lp_tautomer_probability>
1

> <r_epik_Ionization_Penalty>
0.00423054

> <r_epik_Ionization_Penalty_Charging>
0

> <r_epik_Ionization_Penalty_Neutral>
0.00423054

> <r_epik_State_Penalty>
0.00298851

> <r_epik_Charging_Adjusted_Penalty>
0.00298851

> <i_epik_Tot_Q>
0

> <i_epik_Tot_abs_Q>
0

> <r_epik_Metal_State_Penalty>
-0

> <b_epik_Metal_Only>
0

> <s_lp_Force_Field>
OPLS_2005

> <r_lp_Energy>
66.7697

> <b_lp_Chiralities_Consistent>
1

> <s_lp_Variant>
AV-unprocessed.smi:190-1

> <Gold.Version>
5.8.1

> <Gold.Id.Protein>
6NUR|6NUR_protein|mol2

> <Gold.PLP.Fitness>
39.0812

> <Gold.PLP.PLP>
-30.9100

> <Gold.PLP.part.hbond>
-3.0000

> <Gold.PLP.part.metal>
0.0000

> <Gold.PLP.part.buried>
-4.2510

> <Gold.PLP.part.nonpolar>
-22.6944

> <Gold.PLP.part.repulsive>
0.1976

> <Gold.PLP.ligand.clash>
0.0000

> <Gold.PLP.ligand.torsion>
0.7333

> <Gold.PLP.Chemscore.Hbond>
2.1659

> <Gold.PLP.Chemscore.CHOScore>
0.9768

> <Gold.PLP.Chemscore.Metal>
0.0000

> <Gold.Chemscore.Hbonds>
donor molecule, donor type, donor heavy atom, donor atom, acceptor molecule, acceptor atom, score
      L1  H     1    28       P1  7948  0.96
      P1  H  6931  6943       L1    17  0.19
      P1  H  6934  6947       L1    17  0.93
      L1  C     6    33       P1 10957  0.92

> <Gold.PLP.Chemscore.Internal.Correction>
0.2095

> <Gold.Rescore>
     Score         DG    S(hbond)    S(metal)    S(lipo)     H(rot)  DE(clash)    DE(int)     intcor
     14.56     -16.38       1.98        0.00      82.62       2.10       0.10       1.72       ----

> <Gold.Chemscore.Fitness>
14.5590

> <Gold.Chemscore.DG>
-16.3814

> <Gold.Chemscore.ZeroCoef>
-5.4800

> <Gold.Chemscore.Hbond>
1.9775

> <Gold.Chemscore.Metal>
0.0000

> <Gold.Chemscore.Lipo>
82.6218

> <Gold.Chemscore.Internal_Hbond>
0.0000

> <Gold.Chemscore.DEClash>
0.1044

> <Gold.Chemscore.DEInternal>
1.7179

> <Gold.Chemscore.Rot>
2.0978

> <Gold.Chemscore.Internal.Correction>
   9.000000E+99

> <Gold.Chemscore.Hbonds>
donor molecule, donor type, donor heavy atom, donor atom, acceptor molecule, acceptor atom, score
      L1  H     1    28       P1  7948  0.91
      P1  H  6934  6947       L1    17  0.26

> <Gold.Chemscore.Hbond.Weighted>
-6.6049

> <Gold.Chemscore.Metal.Weighted>
-0.0000

> <Gold.Chemscore.Lipo.Weighted>
-9.6667

> <Gold.Chemscore.Internal_Hbond.Weighted>
0.0000

> <Gold.Chemscore.DEClash.Weighted>
0.1044

> <Gold.Chemscore.DEInternal.Weighted>
1.7179

> <Gold.Chemscore.Rot.Weighted>
5.3703

> <Gold.Chemscore.Internal.Correction.Weighted>
   9.000000E+99

> <Gold.Protein.RotatedTorsions>
[ 6907 6896 6895 6894 ] final  -54.26 input  -60.11 | X-H torsion
[ 7974 7965 7964 7962 ] final  -46.66 input  175.53 | X-H torsion
[ 8008 7997 7996 7995 ] final  173.66 input   59.86 | X-H torsion
[ 10167 10162 10161 10158 ] final -148.44 input  -65.29 | X-H torsion
[ 10718 10713 10712 10709 ] final   86.11 input   66.30 | X-H torsion
[ 10763 10752 10751 10750 ] final  -84.60 input  -60.55 | X-H torsion
[ 11005 11000 10999 10996 ] final   56.60 input  -57.11 | X-H torsion

> <Gold.Protein.ActiveResidues>
 VAL166  LYS551  ARG553  GLY616  TRP617  ASP618  TYR619  PRO620  LYS621  CYS622 
 ASP623  PHE694  ASN695  SER759  ASP760  ASP761  ALA762  ILE779  LEU786  VAL792 
 PHE793  MET794  SER795  GLU796  ALA797  LYS798  CYS799  TRP800  GLU811  SER814 

> <Gold.Protein.RotatedAtoms>
  150.8354  134.7624  159.6887 H   0  0  0  0  0  0  0  0  0  0  0  0  # atno 6907 bound_to 6896
  152.4451  134.5508  159.9876 H   0  0  0  0  0  0  0  0  0  0  0  0  # atno 6908 bound_to 6896
  151.5659  133.3359  159.3016 H   0  0  0  0  0  0  0  0  0  0  0  0  # atno 6909 bound_to 6896
  145.9696  140.7397  142.9417 H   0  0  0  0  0  0  0  0  0  0  0  0  # atno 7974 bound_to 7965
  156.1053  140.1454  156.9412 H   0  0  0  0  0  0  0  0  0  0  0  0  # atno 8008 bound_to 7997
  154.4730  140.0903  156.7236 H   0  0  0  0  0  0  0  0  0  0  0  0  # atno 8009 bound_to 7997
  155.4690  140.3441  155.4325 H   0  0  0  0  0  0  0  0  0  0  0  0  # atno 8010 bound_to 7997
  139.7531  143.8488  152.2591 H   0  0  0  0  0  0  0  0  0  0  0  0  # atno 10167 bound_to 10162
  157.6924  131.0202  150.2924 H   0  0  0  0  0  0  0  0  0  0  0  0  # atno 10718 bound_to 10713
  154.6014  135.5515  153.7378 H   0  0  0  0  0  0  0  0  0  0  0  0  # atno 10763 bound_to 10752
  153.0156  135.6367  154.1708 H   0  0  0  0  0  0  0  0  0  0  0  0  # atno 10764 bound_to 10752
  154.1648  135.2895  155.3078 H   0  0  0  0  0  0  0  0  0  0  0  0  # atno 10765 bound_to 10752
  140.0516  134.5729  155.9257 H   0  0  0  0  0  0  0  0  0  0  0  0  # atno 11005 bound_to 11000
  144.6833  140.2726  143.7303 LP  0  0  0  0  0  0  0  0  0  0  0  0  # atno 17320 bound_to 7965
  145.7925  139.1932  143.2094 LP  0  0  0  0  0  0  0  0  0  0  0  0  # atno 17321 bound_to 7965
  139.8472  144.7182  150.9258 LP  0  0  0  0  0  0  0  0  0  0  0  0  # atno 17342 bound_to 10162
  140.7800  143.3931  151.1276 LP  0  0  0  0  0  0  0  0  0  0  0  0  # atno 17343 bound_to 10162
  156.3453  130.3822  149.7375 LP  0  0  0  0  0  0  0  0  0  0  0  0  # atno 17370 bound_to 10713
  156.4870  130.8067  151.3079 LP  0  0  0  0  0  0  0  0  0  0  0  0  # atno 17371 bound_to 10713
  141.1933  133.6578  156.5541 LP  0  0  0  0  0  0  0  0  0  0  0  0  # atno 17394 bound_to 11000
  140.3908  134.7442  157.4720 LP  0  0  0  0  0  0  0  0  0  0  0  0  # atno 17395 bound_to 11000

$$$$
