AV-unprocessed.smi:2889|AV-procd|sdf|11113|dock3
  -GOLD-   2272015583D 1   1.00000     0.00000
 Structure written by MMmdl.
 35 36  0  0  0  0  0  0  0  0  2 V2000
  151.8134  144.6187  157.9803 C   0  0  0  0  0  0  0  0  0  0  0  0
  151.3095  144.3213  159.6990 S   0  0  0  0  0  0  0  0  0  0  0  0
  152.7238  143.3676  160.3531 C   0  0  1  0  0  0  0  0  0  0  0  0
  152.4952  143.0228  161.8502 C   0  0  0  0  0  0  0  0  0  0  0  0
  153.6891  142.2793  162.4847 C   0  0  0  0  0  0  0  0  0  0  0  0
  154.0264  141.0277  161.6494 C   0  0  0  0  0  0  0  0  0  0  0  0
  154.2534  141.3511  160.1496 C   0  0  0  0  0  0  0  0  0  0  0  0
  153.0877  142.1248  159.4836 C   0  0  1  0  0  0  0  0  0  0  0  0
  151.9364  141.2449  159.3233 N   0  5  0  0  0  0  0  0  0  0  0  0
  152.0194  139.9885  158.3016 S   0  0  0  0  0  0  0  0  0  0  0  0
  153.3874  139.4655  158.1463 O   0  0  0  0  0  0  0  0  0  0  0  0
  150.9500  139.0083  158.5502 O   0  0  0  0  0  0  0  0  0  0  0  0
  151.5912  140.8145  156.7062 C   0  0  0  0  0  0  0  0  0  0  0  0
  151.3929  139.7916  155.6202 C   0  0  0  0  0  0  0  0  0  0  0  0
  152.3026  138.7962  155.1663 C   0  0  0  0  0  0  0  0  0  0  0  0
  151.6086  138.1522  154.1838 C   0  0  0  0  0  0  0  0  0  0  0  0
  150.3805  138.7077  154.0275 O   0  0  0  0  0  0  0  0  0  0  0  0
  150.2535  139.7563  154.9456 N   0  0  0  0  0  0  0  0  0  0  0  0
  151.0835  145.2586  157.4852 H   0  0  0  0  0  0  0  0  0  0  0  0
  151.8757  143.6833  157.4245 H   0  0  0  0  0  0  0  0  0  0  0  0
  152.7847  145.1119  157.9459 H   0  0  0  0  0  0  0  0  0  0  0  0
  153.5777  144.0455  160.3220 H   0  0  0  0  0  0  0  0  0  0  0  0
  152.3134  143.9411  162.4094 H   0  0  0  0  0  0  0  0  0  0  0  0
  151.5899  142.4230  161.9673 H   0  0  0  0  0  0  0  0  0  0  0  0
  154.5556  142.9406  162.5223 H   0  0  0  0  0  0  0  0  0  0  0  0
  153.4605  142.0000  163.5135 H   0  0  0  0  0  0  0  0  0  0  0  0
  154.9197  140.5522  162.0555 H   0  0  0  0  0  0  0  0  0  0  0  0
  153.2258  140.2933  161.7582 H   0  0  0  0  0  0  0  0  0  0  0  0
  155.1592  141.9522  160.0630 H   0  0  0  0  0  0  0  0  0  0  0  0
  154.4566  140.4318  159.5987 H   0  0  0  0  0  0  0  0  0  0  0  0
  153.4426  142.4855  158.5175 H   0  0  0  0  0  0  0  0  0  0  0  0
  150.6785  141.3880  156.8681 H   0  0  0  0  0  0  0  0  0  0  0  0
  152.3813  141.5214  156.4546 H   0  0  0  0  0  0  0  0  0  0  0  0
  153.3002  138.5807  155.5196 H   0  0  0  0  0  0  0  0  0  0  0  0
  151.8407  137.3216  153.5338 H   0  0  0  0  0  0  0  0  0  0  0  0
  1  2  1  0  0  0  0
  1 19  1  0  0  0  0
  1 20  1  0  0  0  0
  1 21  1  0  0  0  0
  2  3  1  0  0  0  0
  3  8  1  0  0  0  0
  3  4  1  0  0  0  0
  3 22  1  0  0  0  0
  4  5  1  0  0  0  0
  4 23  1  0  0  0  0
  4 24  1  0  0  0  0
  5  6  1  0  0  0  0
  5 25  1  0  0  0  0
  5 26  1  0  0  0  0
  6  7  1  0  0  0  0
  6 27  1  0  0  0  0
  6 28  1  0  0  0  0
  7  8  1  0  0  0  0
  7 29  1  0  0  0  0
  7 30  1  0  0  0  0
  8  9  1  0  0  0  0
  8 31  1  0  0  0  0
  9 10  1  0  0  0  0
 10 11  2  0  0  0  0
 10 12  2  0  0  0  0
 10 13  1  0  0  0  0
 13 14  1  0  0  0  0
 13 32  1  0  0  0  0
 13 33  1  0  0  0  0
 14 18  2  0  0  0  0
 14 15  1  0  0  0  0
 15 16  2  0  0  0  0
 15 34  1  0  0  0  0
 16 17  1  0  0  0  0
 16 35  1  0  0  0  0
 17 18  1  0  0  0  0
M  CHG  1   9  -1
M  END
> <s_m_source_file>
AV-unprocessed.smi

> <i_m_source_file_index>
2889

> <i_lp_mmshare_version>
43012

> <i_f3d_flags>
0

> <s_epik_input>
W0NIM11TW0NAQEhdMVtDSDJdW0NIMl1bQ0gyXVtDSDJdW0NASF0xW05IXVMoPU8pKD1PKVtDSDJdYzJbY0hdW2NIXW9uMg==

> <s_epik_cmdline>
J2VwaWtfcHl0aG9uJywgJy1waCcsICc3LjAnLCAnLXRuJywgJzgnLCAnLW1hJywgJzIwMCcsICctbWV0YWxfYmluZGluZycsICctaW1hZScsICc8aW5maWxlLm1hZT4nLCAnLW9tYWUnLCAnPG91dGZpbGUubWFlPic=

> <r_lp_tautomer_probability>
1

> <r_epik_Ionization_Penalty>
4.65467

> <r_epik_Ionization_Penalty_Charging>
4.65467

> <r_epik_Ionization_Penalty_Neutral>
2.71476e-10

> <r_epik_State_Penalty>
4.65444

> <r_epik_Charging_Adjusted_Penalty>
9.30911

> <i_epik_Tot_Q>
-1

> <i_epik_Tot_abs_Q>
1

> <r_epik_Metal_State_Penalty>
0.901484

> <b_epik_Metal_Only>
1

> <s_lp_Force_Field>
OPLS_2005

> <r_lp_Energy>
11.2119

> <b_lp_Chiralities_Consistent>
1

> <s_lp_Variant>
AV-unprocessed.smi:2889-6

> <Gold.Version>
5.8.1

> <Gold.Id.Protein>
6NUR|6NUR_protein|mol2

> <Gold.PLP.Fitness>
52.2131

> <Gold.PLP.PLP>
-46.5302

> <Gold.PLP.part.hbond>
-1.1909

> <Gold.PLP.part.metal>
0.0000

> <Gold.PLP.part.buried>
-6.1028

> <Gold.PLP.part.nonpolar>
-38.1749

> <Gold.PLP.part.repulsive>
0.2984

> <Gold.PLP.ligand.clash>
0.0000

> <Gold.PLP.ligand.torsion>
0.6750

> <Gold.PLP.Chemscore.Hbond>
1.0000

> <Gold.PLP.Chemscore.CHOScore>
0.9989

> <Gold.PLP.Chemscore.Metal>
0.0000

> <Gold.Chemscore.Hbonds>
donor molecule, donor type, donor heavy atom, donor atom, acceptor molecule, acceptor atom, score
      P1  H  7997  8008       L1    11  1.00
      L1  C    16    35       P1  7949  1.00

> <Gold.PLP.Chemscore.Internal.Correction>
1.0360

> <Gold.Rescore>
     Score         DG    S(hbond)    S(metal)    S(lipo)     H(rot)  DE(clash)    DE(int)     intcor
     17.37     -19.30       1.00        0.00     123.13       1.53       0.04       1.89       ----

> <Gold.Chemscore.Fitness>
17.3661

> <Gold.Chemscore.DG>
-19.2978

> <Gold.Chemscore.ZeroCoef>
-5.4800

> <Gold.Chemscore.Hbond>
0.9978

> <Gold.Chemscore.Metal>
0.0000

> <Gold.Chemscore.Lipo>
123.1260

> <Gold.Chemscore.Internal_Hbond>
0.0000

> <Gold.Chemscore.DEClash>
0.0428

> <Gold.Chemscore.DEInternal>
1.8889

> <Gold.Chemscore.Rot>
1.5314

> <Gold.Chemscore.Internal.Correction>
   9.000000E+99

> <Gold.Chemscore.Hbonds>
donor molecule, donor type, donor heavy atom, donor atom, acceptor molecule, acceptor atom, score
      P1  H  7997  8008       L1    11  1.00

> <Gold.Chemscore.Hbond.Weighted>
-3.3325

> <Gold.Chemscore.Metal.Weighted>
-0.0000

> <Gold.Chemscore.Lipo.Weighted>
-14.4057

> <Gold.Chemscore.Internal_Hbond.Weighted>
0.0000

> <Gold.Chemscore.DEClash.Weighted>
0.0428

> <Gold.Chemscore.DEInternal.Weighted>
1.8889

> <Gold.Chemscore.Rot.Weighted>
3.9205

> <Gold.Chemscore.Internal.Correction.Weighted>
   9.000000E+99

> <Gold.Protein.RotatedTorsions>
[ 6907 6896 6895 6894 ] final  118.22 input  -60.11 | X-H torsion
[ 7974 7965 7964 7962 ] final -118.62 input  175.53 | X-H torsion
[ 8008 7997 7996 7995 ] final  -99.37 input   59.86 | X-H torsion
[ 10167 10162 10161 10158 ] final   -7.39 input  -65.29 | X-H torsion
[ 10718 10713 10712 10709 ] final  -52.55 input   66.30 | X-H torsion
[ 10763 10752 10751 10750 ] final  175.90 input  -60.55 | X-H torsion
[ 11005 11000 10999 10996 ] final -157.38 input  -57.11 | X-H torsion

> <Gold.Protein.ActiveResidues>
 VAL166  LYS551  ARG553  GLY616  TRP617  ASP618  TYR619  PRO620  LYS621  CYS622 
 ASP623  PHE694  ASN695  SER759  ASP760  ASP761  ALA762  ILE779  LEU786  VAL792 
 PHE793  MET794  SER795  GLU796  ALA797  LYS798  CYS799  TRP800  GLU811  SER814 

> <Gold.Protein.RotatedAtoms>
  152.4558  133.7720  159.6803 H   0  0  0  0  0  0  0  0  0  0  0  0  # atno 6907 bound_to 6896
  150.8484  133.7815  159.3041 H   0  0  0  0  0  0  0  0  0  0  0  0  # atno 6908 bound_to 6896
  151.5418  135.1071  159.9980 H   0  0  0  0  0  0  0  0  0  0  0  0  # atno 6909 bound_to 6896
  145.0718  140.8364  143.4091 H   0  0  0  0  0  0  0  0  0  0  0  0  # atno 7974 bound_to 7965
  154.8139  140.0448  157.1362 H   0  0  0  0  0  0  0  0  0  0  0  0  # atno 8008 bound_to 7997
  154.9337  140.3043  155.5135 H   0  0  0  0  0  0  0  0  0  0  0  0  # atno 8009 bound_to 7997
  156.2974  140.2318  156.4399 H   0  0  0  0  0  0  0  0  0  0  0  0  # atno 8010 bound_to 7997
  140.7027  143.6086  150.8726 H   0  0  0  0  0  0  0  0  0  0  0  0  # atno 10167 bound_to 10162
  156.1611  130.4149  149.9791 H   0  0  0  0  0  0  0  0  0  0  0  0  # atno 10718 bound_to 10713
  154.4739  135.2772  155.1622 H   0  0  0  0  0  0  0  0  0  0  0  0  # atno 10763 bound_to 10752
  154.3359  135.6180  153.5577 H   0  0  0  0  0  0  0  0  0  0  0  0  # atno 10764 bound_to 10752
  152.9867  135.5777  154.5126 H   0  0  0  0  0  0  0  0  0  0  0  0  # atno 10765 bound_to 10752
  140.6653  134.4306  157.5233 H   0  0  0  0  0  0  0  0  0  0  0  0  # atno 11005 bound_to 11000
  145.1284  139.2648  143.5552 LP  0  0  0  0  0  0  0  0  0  0  0  0  # atno 17320 bound_to 7965
  146.3529  140.0927  142.8612 LP  0  0  0  0  0  0  0  0  0  0  0  0  # atno 17321 bound_to 7965
  139.9810  143.5952  152.2943 LP  0  0  0  0  0  0  0  0  0  0  0  0  # atno 17342 bound_to 10162
  139.6572  144.7662  151.2032 LP  0  0  0  0  0  0  0  0  0  0  0  0  # atno 17343 bound_to 10162
  156.7620  130.9154  151.3641 LP  0  0  0  0  0  0  0  0  0  0  0  0  # atno 17370 bound_to 10713
  157.6733  130.9071  150.0091 LP  0  0  0  0  0  0  0  0  0  0  0  0  # atno 17371 bound_to 10713
  139.8999  134.8580  156.1939 LP  0  0  0  0  0  0  0  0  0  0  0  0  # atno 17394 bound_to 11000
  141.0434  133.6926  156.1639 LP  0  0  0  0  0  0  0  0  0  0  0  0  # atno 17395 bound_to 11000

$$$$
