AV-unprocessed.smi:1663|AV-procd|sdf|6666|dock3
  -GOLD-   22720 7373D 1   1.00000     0.00000
 Structure written by MMmdl.
 39 40  0  0  0  0  0  0  0  0  2 V2000
  144.9703  137.8476  154.6229 C   0  0  0  0  0  0  0  0  0  0  0  0
  145.5121  139.1236  154.1082 N   0  3  2  0  0  0  0  0  0  0  0  0
  146.5916  138.9175  153.1112 C   0  0  0  0  0  0  0  0  0  0  0  0
  147.0501  140.2567  152.5062 C   0  0  0  0  0  0  0  0  0  0  0  0
  147.4910  141.2649  153.5847 C   0  0  2  0  0  0  0  0  0  0  0  0
  148.8702  140.9082  154.1906 C   0  0  0  0  0  0  0  0  0  0  0  0
  149.3545  141.9193  155.1258 N   0  0  0  0  0  0  0  0  0  0  0  0
  150.1788  141.6804  156.1564 C   0  0  0  0  0  0  0  0  0  0  0  0
  150.6263  140.5638  156.4187 O   0  0  0  0  0  0  0  0  0  0  0  0
  150.4422  142.8064  156.8431 N   0  0  0  0  0  0  0  0  0  0  0  0
  151.2717  142.9628  157.9858 C   0  0  0  0  0  0  0  0  0  0  0  0
  151.4855  144.2994  158.3929 C   0  0  0  0  0  0  0  0  0  0  0  0
  152.2954  144.5607  159.5149 C   0  0  0  0  0  0  0  0  0  0  0  0
  152.8705  143.4775  160.2031 C   0  0  0  0  0  0  0  0  0  0  0  0
  152.6063  142.1778  159.7330 C   0  0  0  0  0  0  0  0  0  0  0  0
  151.8312  141.9253  158.6572 N   0  0  0  0  0  0  0  0  0  0  0  0
  146.3654  141.4056  154.6313 C   0  0  0  0  0  0  0  0  0  0  0  0
  145.9250  140.0437  155.1970 C   0  0  0  0  0  0  0  0  0  0  0  0
  145.7346  137.2869  155.1627 H   0  0  0  0  0  0  0  0  0  0  0  0
  144.6043  137.2268  153.8046 H   0  0  0  0  0  0  0  0  0  0  0  0
  144.1354  138.0289  155.3006 H   0  0  0  0  0  0  0  0  0  0  0  0
  147.4313  138.4010  153.5783 H   0  0  0  0  0  0  0  0  0  0  0  0
  146.2284  138.2675  152.3141 H   0  0  0  0  0  0  0  0  0  0  0  0
  147.8575  140.0889  151.7925 H   0  0  0  0  0  0  0  0  0  0  0  0
  146.2267  140.6850  151.9327 H   0  0  0  0  0  0  0  0  0  0  0  0
  147.6004  142.2310  153.0901 H   0  0  0  0  0  0  0  0  0  0  0  0
  148.8260  139.9590  154.7236 H   0  0  0  0  0  0  0  0  0  0  0  0
  149.6062  140.7721  153.3963 H   0  0  0  0  0  0  0  0  0  0  0  0
  149.0308  142.8650  154.9841 H   0  0  0  0  0  0  0  0  0  0  0  0
  150.0018  143.6506  156.5093 H   0  0  0  0  0  0  0  0  0  0  0  0
  151.0359  145.1202  157.8531 H   0  0  0  0  0  0  0  0  0  0  0  0
  152.4718  145.5752  159.8410 H   0  0  0  0  0  0  0  0  0  0  0  0
  153.4968  143.6376  161.0681 H   0  0  0  0  0  0  0  0  0  0  0  0
  153.0278  141.3181  160.2325 H   0  0  0  0  0  0  0  0  0  0  0  0
  146.6670  142.0691  155.4420 H   0  0  0  0  0  0  0  0  0  0  0  0
  145.5051  141.8850  154.1623 H   0  0  0  0  0  0  0  0  0  0  0  0
  145.0897  140.1913  155.8826 H   0  0  0  0  0  0  0  0  0  0  0  0
  146.7305  139.5916  155.7774 H   0  0  0  0  0  0  0  0  0  0  0  0
  144.7539  139.5789  153.6201 H   0  0  0  0  0  0  0  0  0  0  0  0
  1  2  1  0  0  0  0
  1 19  1  0  0  0  0
  1 20  1  0  0  0  0
  1 21  1  0  0  0  0
  2 18  1  0  0  0  0
  2  3  1  0  0  0  0
  2 39  1  0  0  0  0
  3  4  1  0  0  0  0
  3 22  1  0  0  0  0
  3 23  1  0  0  0  0
  4  5  1  0  0  0  0
  4 24  1  0  0  0  0
  4 25  1  0  0  0  0
  5  6  1  0  0  0  0
  5 17  1  0  0  0  0
  5 26  1  0  0  0  0
  6  7  1  0  0  0  0
  6 27  1  0  0  0  0
  6 28  1  0  0  0  0
  7  8  1  0  0  0  0
  7 29  1  0  0  0  0
  8  9  2  0  0  0  0
  8 10  1  0  0  0  0
 10 11  1  0  0  0  0
 10 30  1  0  0  0  0
 11 16  1  0  0  0  0
 11 12  2  0  0  0  0
 12 13  1  0  0  0  0
 12 31  1  0  0  0  0
 13 14  2  0  0  0  0
 13 32  1  0  0  0  0
 14 15  1  0  0  0  0
 14 33  1  0  0  0  0
 15 16  2  0  0  0  0
 15 34  1  0  0  0  0
 17 18  1  0  0  0  0
 17 35  1  0  0  0  0
 17 36  1  0  0  0  0
 18 37  1  0  0  0  0
 18 38  1  0  0  0  0
M  CHG  1   2   1
M  END
> <s_m_source_file>
AV-unprocessed.smi

> <i_m_source_file_index>
1663

> <i_lp_mmshare_version>
43012

> <i_f3d_flags>
0

> <s_epik_input>
W0NIM11OMVtDSDJdW0NIMl1bQ0hdKFtDSDJdW0NIMl0xKVtDSDJdW05IXUMoPU8pW05IXWMyW2NIXVtjSF1bY0hdW2NIXW4y

> <s_epik_cmdline>
J2VwaWtfcHl0aG9uJywgJy1waCcsICc3LjAnLCAnLXRuJywgJzgnLCAnLW1hJywgJzIwMCcsICctbWV0YWxfYmluZGluZycsICctaW1hZScsICc8aW5maWxlLm1hZT4nLCAnLW9tYWUnLCAnPG91dGZpbGUubWFlPic=

> <r_epik_Ionization_Penalty>
0.00110639

> <r_epik_Ionization_Penalty_Charging>
0.00106265

> <r_epik_Ionization_Penalty_Neutral>
4.37361e-05

> <r_epik_State_Penalty>
0.000695551

> <r_epik_Charging_Adjusted_Penalty>
0.0017582

> <i_epik_Tot_Q>
1

> <i_epik_Tot_abs_Q>
1

> <r_epik_Metal_State_Penalty>
-0

> <b_epik_Metal_Only>
0

> <s_lp_Force_Field>
OPLS_2005

> <r_lp_Energy>
20.4416

> <b_lp_Chiralities_Consistent>
1

> <s_lp_Variant>
AV-unprocessed.smi:1663-2

> <Gold.Version>
5.8.1

> <Gold.Id.Protein>
6NUR|6NUR_protein|mol2

> <Gold.PLP.Fitness>
48.8261

> <Gold.PLP.PLP>
-37.2999

> <Gold.PLP.part.hbond>
-3.0000

> <Gold.PLP.part.metal>
0.0000

> <Gold.PLP.part.buried>
-2.5893

> <Gold.PLP.part.nonpolar>
-31.7046

> <Gold.PLP.part.repulsive>
0.2864

> <Gold.PLP.ligand.clash>
0.0000

> <Gold.PLP.ligand.torsion>
0.2047

> <Gold.PLP.Chemscore.Hbond>
3.9760

> <Gold.PLP.Chemscore.CHOScore>
0.0000

> <Gold.PLP.Chemscore.Metal>
0.0000

> <Gold.Chemscore.Hbonds>
donor molecule, donor type, donor heavy atom, donor atom, acceptor molecule, acceptor atom, score
      L1  H     2    39       P1 10175  2.00
      L1  H     7    29       P1  8028  0.99
      L1  H    10    30       P1  8028  1.00

> <Gold.PLP.Chemscore.Internal.Correction>
0.0075

> <Gold.Rescore>
     Score         DG    S(hbond)    S(metal)    S(lipo)     H(rot)  DE(clash)    DE(int)     intcor
     20.71     -22.42       2.95        0.00      88.42       1.28       0.24       1.47       ----

> <Gold.Chemscore.Fitness>
20.7118

> <Gold.Chemscore.DG>
-22.4183

> <Gold.Chemscore.ZeroCoef>
-5.4800

> <Gold.Chemscore.Hbond>
2.9529

> <Gold.Chemscore.Metal>
0.0000

> <Gold.Chemscore.Lipo>
88.4171

> <Gold.Chemscore.Internal_Hbond>
0.0000

> <Gold.Chemscore.DEClash>
0.2396

> <Gold.Chemscore.DEInternal>
1.4669

> <Gold.Chemscore.Rot>
1.2770

> <Gold.Chemscore.Internal.Correction>
   9.000000E+99

> <Gold.Chemscore.Hbonds>
donor molecule, donor type, donor heavy atom, donor atom, acceptor molecule, acceptor atom, score
      L1  H     2    39       P1 10175  1.00
      L1  H     7    29       P1  8028  0.93
      L1  H    10    30       P1  8028  1.00

> <Gold.Chemscore.Hbond.Weighted>
-9.8626

> <Gold.Chemscore.Metal.Weighted>
-0.0000

> <Gold.Chemscore.Lipo.Weighted>
-10.3448

> <Gold.Chemscore.Internal_Hbond.Weighted>
0.0000

> <Gold.Chemscore.DEClash.Weighted>
0.2396

> <Gold.Chemscore.DEInternal.Weighted>
1.4669

> <Gold.Chemscore.Rot.Weighted>
3.2691

> <Gold.Chemscore.Internal.Correction.Weighted>
   9.000000E+99

> <Gold.Protein.RotatedTorsions>
[ 6907 6896 6895 6894 ] final -158.48 input  -60.11 | X-H torsion
[ 7974 7965 7964 7962 ] final -106.68 input  175.53 | X-H torsion
[ 8008 7997 7996 7995 ] final  149.80 input   59.86 | X-H torsion
[ 10167 10162 10161 10158 ] final -131.95 input  -65.29 | X-H torsion
[ 10718 10713 10712 10709 ] final  -11.16 input   66.30 | X-H torsion
[ 10763 10752 10751 10750 ] final  -64.06 input  -60.55 | X-H torsion
[ 11005 11000 10999 10996 ] final  -85.81 input  -57.11 | X-H torsion

> <Gold.Protein.ActiveResidues>
 VAL166  LYS551  ARG553  GLY616  TRP617  ASP618  TYR619  PRO620  LYS621  CYS622 
 ASP623  PHE694  ASN695  SER759  ASP760  ASP761  ALA762  ILE779  LEU786  VAL792 
 PHE793  MET794  SER795  GLU796  ALA797  LYS798  CYS799  TRP800  GLU811  SER814 

> <Gold.Protein.RotatedAtoms>
  151.3188  133.4049  159.2652 H   0  0  0  0  0  0  0  0  0  0  0  0  # atno 6907 bound_to 6896
  151.0052  134.9354  159.7986 H   0  0  0  0  0  0  0  0  0  0  0  0  # atno 6908 bound_to 6896
  152.5286  134.3153  159.9181 H   0  0  0  0  0  0  0  0  0  0  0  0  # atno 6909 bound_to 6896
  145.2148  140.9111  143.3293 H   0  0  0  0  0  0  0  0  0  0  0  0  # atno 7974 bound_to 7965
  156.2741  140.2092  156.5915 H   0  0  0  0  0  0  0  0  0  0  0  0  # atno 8008 bound_to 7997
  154.6978  140.0524  157.0452 H   0  0  0  0  0  0  0  0  0  0  0  0  # atno 8009 bound_to 7997
  155.0776  140.3183  155.4614 H   0  0  0  0  0  0  0  0  0  0  0  0  # atno 8010 bound_to 7997
  139.9136  143.6465  152.2570 H   0  0  0  0  0  0  0  0  0  0  0  0  # atno 10167 bound_to 10162
  156.6630  130.4987  149.6024 H   0  0  0  0  0  0  0  0  0  0  0  0  # atno 10718 bound_to 10713
  154.3244  135.6189  153.5522 H   0  0  0  0  0  0  0  0  0  0  0  0  # atno 10763 bound_to 10752
  152.9817  135.5732  154.5033 H   0  0  0  0  0  0  0  0  0  0  0  0  # atno 10764 bound_to 10752
  154.4707  135.2859  155.1621 H   0  0  0  0  0  0  0  0  0  0  0  0  # atno 10765 bound_to 10752
  141.1637  133.7420  156.9069 H   0  0  0  0  0  0  0  0  0  0  0  0  # atno 11005 bound_to 11000
  144.9821  139.3773  143.6257 LP  0  0  0  0  0  0  0  0  0  0  0  0  # atno 17320 bound_to 7965
  146.3389  139.8966  142.8801 LP  0  0  0  0  0  0  0  0  0  0  0  0  # atno 17321 bound_to 7965
  139.6921  144.7645  151.1420 LP  0  0  0  0  0  0  0  0  0  0  0  0  # atno 17342 bound_to 10162
  140.7679  143.5574  150.9136 LP  0  0  0  0  0  0  0  0  0  0  0  0  # atno 17343 bound_to 10162
  156.1997  130.6612  151.1153 LP  0  0  0  0  0  0  0  0  0  0  0  0  # atno 17370 bound_to 10713
  157.7103  131.0737  150.6523 LP  0  0  0  0  0  0  0  0  0  0  0  0  # atno 17371 bound_to 10713
  140.1543  134.9209  157.2633 LP  0  0  0  0  0  0  0  0  0  0  0  0  # atno 17394 bound_to 11000
  140.2685  134.3487  155.7381 LP  0  0  0  0  0  0  0  0  0  0  0  0  # atno 17395 bound_to 11000

$$$$
