AV-unprocessed.smi:3029|AV-procd|sdf|11528|dock2
  -GOLD-   2272016473D 1   1.00000     0.00000
 Structure written by MMmdl.
 42 43  0  0  0  0  0  0  0  0  4 V2000
  154.1686  136.3558  160.5818 O   0  0  0  0  0  0  0  0  0  0  0  0
  154.5074  136.9653  161.5963 C   0  0  0  0  0  0  0  0  0  0  0  0
  154.6814  136.2939  162.8885 C   0  0  0  0  0  0  0  0  0  0  0  0
  155.0332  136.9736  163.9978 C   0  0  0  0  0  0  0  0  0  0  0  0
  155.2500  138.4067  163.9448 C   0  0  0  0  0  0  0  0  0  0  0  0
  155.6101  139.1497  165.1322 N   0  3  0  0  0  0  0  0  0  0  0  0
  155.7219  138.5507  166.1977 O   0  0  0  0  0  0  0  0  0  0  0  0
  155.7949  140.3585  165.0362 O   0  5  0  0  0  0  0  0  0  0  0  0
  155.0980  139.0195  162.7542 C   0  0  0  0  0  0  0  0  0  0  0  0
  154.7409  138.3125  161.5898 N   0  0  0  0  0  0  0  0  0  0  0  0
  154.6028  139.0911  160.3518 C   0  0  0  0  0  0  0  0  0  0  0  0
  153.5834  140.2300  160.5149 C   0  0  0  0  0  0  0  0  0  0  0  0
  153.2913  140.8633  159.2123 N   0  3  0  0  0  0  0  0  0  0  0  0
  152.2255  141.8922  159.2304 C   0  0  1  0  0  0  0  0  0  0  0  0
  152.7177  143.1397  159.9999 C   0  0  0  0  0  0  0  0  0  0  0  0
  151.6759  144.2649  160.0056 C   0  0  0  0  0  0  0  0  0  0  0  0
  151.2813  144.6449  158.5754 C   0  0  0  0  0  0  0  0  0  0  0  0
  150.7601  143.4201  157.8127 C   0  0  0  0  0  0  0  0  0  0  0  0
  151.7841  142.2606  157.7834 C   0  0  2  0  0  0  0  0  0  0  0  0
  151.2014  141.0600  156.9942 C   0  0  0  0  0  0  0  0  0  0  0  0
  152.1231  140.1099  156.8365 F   0  0  0  0  0  0  0  0  0  0  0  0
  150.1632  140.5439  157.6522 F   0  0  0  0  0  0  0  0  0  0  0  0
  150.7655  141.4362  155.7923 F   0  0  0  0  0  0  0  0  0  0  0  0
  154.5238  135.2270  162.9509 H   0  0  0  0  0  0  0  0  0  0  0  0
  155.1504  136.4352  164.9269 H   0  0  0  0  0  0  0  0  0  0  0  0
  155.2316  140.0825  162.6111 H   0  0  0  0  0  0  0  0  0  0  0  0
  155.5698  139.5033  160.0590 H   0  0  0  0  0  0  0  0  0  0  0  0
  154.3107  138.4415  159.5241 H   0  0  0  0  0  0  0  0  0  0  0  0
  152.6551  139.8445  160.9387 H   0  0  0  0  0  0  0  0  0  0  0  0
  153.9722  140.9727  161.2115 H   0  0  0  0  0  0  0  0  0  0  0  0
  154.1366  141.2717  158.8397 H   0  0  0  0  0  0  0  0  0  0  0  0
  151.3588  141.4803  159.7499 H   0  0  0  0  0  0  0  0  0  0  0  0
  152.9593  142.8849  161.0316 H   0  0  0  0  0  0  0  0  0  0  0  0
  153.6415  143.5081  159.5512 H   0  0  0  0  0  0  0  0  0  0  0  0
  150.7925  143.9466  160.5608 H   0  0  0  0  0  0  0  0  0  0  0  0
  152.0722  145.1368  160.5267 H   0  0  0  0  0  0  0  0  0  0  0  0
  150.5182  145.4238  158.5947 H   0  0  0  0  0  0  0  0  0  0  0  0
  152.1413  145.0667  158.0535 H   0  0  0  0  0  0  0  0  0  0  0  0
  149.8314  143.0802  158.2729 H   0  0  0  0  0  0  0  0  0  0  0  0
  150.5035  143.7217  156.7968 H   0  0  0  0  0  0  0  0  0  0  0  0
  152.6633  142.6156  157.2429 H   0  0  0  0  0  0  0  0  0  0  0  0
  152.9913  140.1275  158.5881 H   0  0  0  0  0  0  0  0  0  0  0  0
  1  2  2  0  0  0  0
  2 10  1  0  0  0  0
  2  3  1  0  0  0  0
  3  4  2  0  0  0  0
  3 24  1  0  0  0  0
  4  5  1  0  0  0  0
  4 25  1  0  0  0  0
  5  6  1  0  0  0  0
  5  9  2  0  0  0  0
  6  7  2  0  0  0  0
  6  8  1  0  0  0  0
  9 10  1  0  0  0  0
  9 26  1  0  0  0  0
 10 11  1  0  0  0  0
 11 12  1  0  0  0  0
 11 27  1  0  0  0  0
 11 28  1  0  0  0  0
 12 13  1  0  0  0  0
 12 29  1  0  0  0  0
 12 30  1  0  0  0  0
 13 14  1  0  0  0  0
 13 31  1  0  0  0  0
 13 42  1  0  0  0  0
 14 19  1  0  0  0  0
 14 15  1  0  0  0  0
 14 32  1  0  0  0  0
 15 16  1  0  0  0  0
 15 33  1  0  0  0  0
 15 34  1  0  0  0  0
 16 17  1  0  0  0  0
 16 35  1  0  0  0  0
 16 36  1  0  0  0  0
 17 18  1  0  0  0  0
 17 37  1  0  0  0  0
 17 38  1  0  0  0  0
 18 19  1  0  0  0  0
 18 39  1  0  0  0  0
 18 40  1  0  0  0  0
 19 20  1  0  0  0  0
 19 41  1  0  0  0  0
 20 21  1  0  0  0  0
 20 22  1  0  0  0  0
 20 23  1  0  0  0  0
M  CHG  1   6   1
M  CHG  1   8  -1
M  CHG  1  13   1
M  END
> <s_m_source_file>
AV-unprocessed.smi

> <i_m_source_file_index>
3029

> <i_lp_mmshare_version>
43012

> <i_f3d_flags>
0

> <s_epik_input>
Tz1jMVtjSF1bY0hdYyhbTitdKD1PKVtPLV0pW2NIXW4xW0NIMl1bQ0gyXVtOSF1bQ0BASF0yW0NIMl1bQ0gyXVtDSDJdW0NIMl1bQ0BIXTJDKEYpKEYpRg==

> <s_epik_cmdline>
J2VwaWtfcHl0aG9uJywgJy1waCcsICc3LjAnLCAnLXRuJywgJzgnLCAnLW1hJywgJzIwMCcsICctbWV0YWxfYmluZGluZycsICctaW1hZScsICc8aW5maWxlLm1hZT4nLCAnLW9tYWUnLCAnPG91dGZpbGUubWFlPic=

> <r_lp_tautomer_probability>
1

> <r_epik_Ionization_Penalty>
0.037386

> <r_epik_Ionization_Penalty_Charging>
0.037386

> <r_epik_Ionization_Penalty_Neutral>
0

> <r_epik_State_Penalty>
0.0312892

> <r_epik_Charging_Adjusted_Penalty>
0.0686752

> <i_epik_Tot_Q>
1

> <i_epik_Tot_abs_Q>
3

> <r_epik_Metal_State_Penalty>
0.0312892

> <b_epik_Metal_Only>
0

> <s_lp_Force_Field>
OPLS_2005

> <r_lp_Energy>
31.4453

> <b_lp_Chiralities_Consistent>
1

> <s_lp_Variant>
AV-unprocessed.smi:3029-4

> <Gold.Version>
5.8.1

> <Gold.Id.Protein>
6NUR|6NUR_protein|mol2

> <Gold.PLP.Fitness>
49.5744

> <Gold.PLP.PLP>
-46.9758

> <Gold.PLP.part.hbond>
-1.3058

> <Gold.PLP.part.metal>
0.0000

> <Gold.PLP.part.buried>
-6.1617

> <Gold.PLP.part.nonpolar>
-39.3602

> <Gold.PLP.part.repulsive>
0.1946

> <Gold.PLP.ligand.clash>
0.0000

> <Gold.PLP.ligand.torsion>
0.1444

> <Gold.PLP.Chemscore.Hbond>
0.9263

> <Gold.PLP.Chemscore.CHOScore>
0.0000

> <Gold.PLP.Chemscore.Metal>
0.0000

> <Gold.PLP.Chemscore.Internal.Correction>
0.1087

> <Gold.Rescore>
     Score         DG    S(hbond)    S(metal)    S(lipo)     H(rot)  DE(clash)    DE(int)     intcor
     15.49     -17.11       1.00        0.00     112.49       1.90       0.01       1.60       ----

> <Gold.Chemscore.Fitness>
15.4929

> <Gold.Chemscore.DG>
-17.1076

> <Gold.Chemscore.ZeroCoef>
-5.4800

> <Gold.Chemscore.Hbond>
0.9998

> <Gold.Chemscore.Metal>
0.0000

> <Gold.Chemscore.Lipo>
112.4948

> <Gold.Chemscore.Internal_Hbond>
0.0000

> <Gold.Chemscore.DEClash>
0.0149

> <Gold.Chemscore.DEInternal>
1.5999

> <Gold.Chemscore.Rot>
1.9037

> <Gold.Chemscore.Internal.Correction>
   9.000000E+99

> <Gold.Chemscore.Hbonds>
donor molecule, donor type, donor heavy atom, donor atom, acceptor molecule, acceptor atom, score
      P1  H  6896  6908       L1     1  0.05

> <Gold.Chemscore.Hbond.Weighted>
-3.3393

> <Gold.Chemscore.Metal.Weighted>
-0.0000

> <Gold.Chemscore.Lipo.Weighted>
-13.1619

> <Gold.Chemscore.Internal_Hbond.Weighted>
0.0000

> <Gold.Chemscore.DEClash.Weighted>
0.0149

> <Gold.Chemscore.DEInternal.Weighted>
1.5999

> <Gold.Chemscore.Rot.Weighted>
4.8736

> <Gold.Chemscore.Internal.Correction.Weighted>
   9.000000E+99

> <Gold.Protein.RotatedTorsions>
[ 6907 6896 6895 6894 ] final  -77.11 input  -60.11 | X-H torsion
[ 7974 7965 7964 7962 ] final  -72.06 input  175.53 | X-H torsion
[ 8008 7997 7996 7995 ] final   59.65 input   59.86 | X-H torsion
[ 10167 10162 10161 10158 ] final -175.26 input  -65.29 | X-H torsion
[ 10718 10713 10712 10709 ] final  -37.43 input   66.30 | X-H torsion
[ 10763 10752 10751 10750 ] final   17.28 input  -60.55 | X-H torsion
[ 11005 11000 10999 10996 ] final   21.75 input  -57.11 | X-H torsion

> <Gold.Protein.ActiveResidues>
 VAL166  LYS551  ARG553  GLY616  TRP617  ASP618  TYR619  PRO620  LYS621  CYS622 
 ASP623  PHE694  ASN695  SER759  ASP760  ASP761  ALA762  ILE779  LEU786  VAL792 
 PHE793  MET794  SER795  GLU796  ALA797  LYS798  CYS799  TRP800  GLU811  SER814 

> <Gold.Protein.RotatedAtoms>
  150.7008  134.4472  159.5319 H   0  0  0  0  0  0  0  0  0  0  0  0  # atno 6907 bound_to 6896
  152.2171  134.8445  160.0499 H   0  0  0  0  0  0  0  0  0  0  0  0  # atno 6908 bound_to 6896
  151.9309  133.3576  159.3967 H   0  0  0  0  0  0  0  0  0  0  0  0  # atno 6909 bound_to 6896
  145.6700  140.9224  143.0888 H   0  0  0  0  0  0  0  0  0  0  0  0  # atno 7974 bound_to 7965
  155.5696  140.3489  155.4512 H   0  0  0  0  0  0  0  0  0  0  0  0  # atno 8008 bound_to 7997
  156.0454  140.1305  157.0135 H   0  0  0  0  0  0  0  0  0  0  0  0  # atno 8009 bound_to 7997
  154.4410  140.1015  156.6283 H   0  0  0  0  0  0  0  0  0  0  0  0  # atno 8010 bound_to 7997
  139.5590  144.1916  152.1208 H   0  0  0  0  0  0  0  0  0  0  0  0  # atno 10167 bound_to 10162
  156.3153  130.4258  149.8012 H   0  0  0  0  0  0  0  0  0  0  0  0  # atno 10718 bound_to 10713
  153.1353  135.6749  153.9113 H   0  0  0  0  0  0  0  0  0  0  0  0  # atno 10763 bound_to 10752
  153.8586  135.3084  155.3438 H   0  0  0  0  0  0  0  0  0  0  0  0  # atno 10764 bound_to 10752
  154.7742  135.4923  153.9793 H   0  0  0  0  0  0  0  0  0  0  0  0  # atno 10765 bound_to 10752
  140.3882  134.1848  155.7663 H   0  0  0  0  0  0  0  0  0  0  0  0  # atno 11005 bound_to 11000
  144.7060  139.8560  143.7430 LP  0  0  0  0  0  0  0  0  0  0  0  0  # atno 17320 bound_to 7965
  146.1053  139.4052  143.0321 LP  0  0  0  0  0  0  0  0  0  0  0  0  # atno 17321 bound_to 7965
  140.1426  144.5188  150.6735 LP  0  0  0  0  0  0  0  0  0  0  0  0  # atno 17342 bound_to 10162
  140.6868  143.2354  151.5240 LP  0  0  0  0  0  0  0  0  0  0  0  0  # atno 17343 bound_to 10162
  156.5340  130.8270  151.3246 LP  0  0  0  0  0  0  0  0  0  0  0  0  # atno 17370 bound_to 10713
  157.7400  130.9842  150.2349 LP  0  0  0  0  0  0  0  0  0  0  0  0  # atno 17371 bound_to 10713
  141.1900  133.8226  157.0935 LP  0  0  0  0  0  0  0  0  0  0  0  0  # atno 17394 bound_to 11000
  140.0427  134.9846  157.0991 LP  0  0  0  0  0  0  0  0  0  0  0  0  # atno 17395 bound_to 11000

$$$$
