AV-unprocessed.smi:1911|AV-procd|sdf|7741|dock2
  -GOLD-   22720 9483D 1   1.00000     0.00000
 Structure written by MMmdl.
 52 54  0  0  0  0  0  0  0  0  2 V2000
  146.4643  132.2461  150.4624 N   0  0  0  0  0  0  0  0  0  0  0  0
  145.1314  132.1702  150.4985 C   0  0  0  0  0  0  0  0  0  0  0  0
  144.5197  131.1659  150.1418 O   0  0  0  0  0  0  0  0  0  0  0  0
  144.3734  133.4060  150.9986 C   0  0  0  0  0  0  0  0  0  0  0  0
  145.2329  134.5464  151.3943 N   0  0  0  0  0  0  0  0  0  0  0  0
  145.1456  134.8433  152.8320 C   0  0  0  0  0  0  0  0  0  0  0  0
  146.1082  135.9838  153.2074 C   0  0  0  0  0  0  0  0  0  0  0  0
  145.8148  137.2541  152.3921 C   0  0  0  0  0  0  0  0  0  0  0  0
  146.8141  138.2856  152.6541 N   0  0  0  0  0  0  0  0  0  0  0  0
  147.2540  138.6439  153.8685 C   0  0  0  0  0  0  0  0  0  0  0  0
  146.8495  138.1371  154.9145 O   0  0  0  0  0  0  0  0  0  0  0  0
  148.1679  139.6260  153.7843 N   0  0  0  0  0  0  0  0  0  0  0  0
  148.8817  140.2622  154.8352 C   0  0  0  0  0  0  0  0  0  0  0  0
  149.4386  139.5790  155.9442 C   0  0  0  0  0  0  0  0  0  0  0  0
  150.1453  140.3051  156.9250 C   0  0  0  0  0  0  0  0  0  0  0  0
  150.2972  141.7056  156.7908 C   0  0  0  0  0  0  0  0  0  0  0  0
  150.9952  142.4924  157.7266 N   0  0  0  0  0  0  0  0  0  0  0  0
  151.7754  141.8955  158.8031 C   0  0  0  0  0  0  0  0  0  0  0  0
  152.8784  142.9106  159.1227 C   0  0  0  0  0  0  0  0  0  0  0  0
  152.3257  144.2365  158.5999 C   0  0  0  0  0  0  0  0  0  0  0  0
  151.4964  143.8140  157.3878 C   0  0  0  0  0  0  0  0  0  0  0  0
  149.7626  142.3113  155.7038 N   0  3  0  0  0  0  0  0  0  0  0  0
  149.0795  141.6547  154.7417 C   0  0  0  0  0  0  0  0  0  0  0  0
  145.8121  136.8973  150.8992 C   0  0  0  0  0  0  0  0  0  0  0  0
  144.8557  135.7272  150.6107 C   0  0  0  0  0  0  0  0  0  0  0  0
  147.0047  131.4530  150.1489 H   0  0  0  0  0  0  0  0  0  0  0  0
  146.9259  133.0941  150.7580 H   0  0  0  0  0  0  0  0  0  0  0  0
  143.7026  133.7173  150.1964 H   0  0  0  0  0  0  0  0  0  0  0  0
  143.7380  133.1162  151.8377 H   0  0  0  0  0  0  0  0  0  0  0  0
  144.1214  135.1088  153.1003 H   0  0  0  0  0  0  0  0  0  0  0  0
  145.4098  133.9703  153.4283 H   0  0  0  0  0  0  0  0  0  0  0  0
  146.0256  136.1939  154.2743 H   0  0  0  0  0  0  0  0  0  0  0  0
  147.1359  135.6596  153.0361 H   0  0  0  0  0  0  0  0  0  0  0  0
  144.8254  137.6315  152.6582 H   0  0  0  0  0  0  0  0  0  0  0  0
  147.1983  138.7579  151.8489 H   0  0  0  0  0  0  0  0  0  0  0  0
  148.3353  139.9965  152.8601 H   0  0  0  0  0  0  0  0  0  0  0  0
  149.3531  138.5095  156.0568 H   0  0  0  0  0  0  0  0  0  0  0  0
  150.5681  139.7741  157.7647 H   0  0  0  0  0  0  0  0  0  0  0  0
  151.1257  141.7470  159.6661 H   0  0  0  0  0  0  0  0  0  0  0  0
  152.2016  140.9308  158.5258 H   0  0  0  0  0  0  0  0  0  0  0  0
  153.1304  142.9420  160.1831 H   0  0  0  0  0  0  0  0  0  0  0  0
  153.7837  142.6523  158.5716 H   0  0  0  0  0  0  0  0  0  0  0  0
  151.6775  144.6869  159.3531 H   0  0  0  0  0  0  0  0  0  0  0  0
  153.1053  144.9569  158.3509 H   0  0  0  0  0  0  0  0  0  0  0  0
  152.1223  143.7485  156.4968 H   0  0  0  0  0  0  0  0  0  0  0  0
  150.6857  144.5165  157.1929 H   0  0  0  0  0  0  0  0  0  0  0  0
  148.7093  142.2652  153.9306 H   0  0  0  0  0  0  0  0  0  0  0  0
  145.5192  137.7661  150.3084 H   0  0  0  0  0  0  0  0  0  0  0  0
  146.8193  136.6286  150.5761 H   0  0  0  0  0  0  0  0  0  0  0  0
  144.8988  135.4939  149.5459 H   0  0  0  0  0  0  0  0  0  0  0  0
  143.8263  136.0169  150.8302 H   0  0  0  0  0  0  0  0  0  0  0  0
  149.8836  143.3194  155.6047 H   0  0  0  0  0  0  0  0  0  0  0  0
  1  2  1  0  0  0  0
  1 26  1  0  0  0  0
  1 27  1  0  0  0  0
  2  3  2  0  0  0  0
  2  4  1  0  0  0  0
  4  5  1  0  0  0  0
  4 28  1  0  0  0  0
  4 29  1  0  0  0  0
  5 25  1  0  0  0  0
  5  6  1  0  0  0  0
  6  7  1  0  0  0  0
  6 30  1  0  0  0  0
  6 31  1  0  0  0  0
  7  8  1  0  0  0  0
  7 32  1  0  0  0  0
  7 33  1  0  0  0  0
  8  9  1  0  0  0  0
  8 24  1  0  0  0  0
  8 34  1  0  0  0  0
  9 10  1  0  0  0  0
  9 35  1  0  0  0  0
 10 11  2  0  0  0  0
 10 12  1  0  0  0  0
 12 13  1  0  0  0  0
 12 36  1  0  0  0  0
 13 23  1  0  0  0  0
 13 14  2  0  0  0  0
 14 15  1  0  0  0  0
 14 37  1  0  0  0  0
 15 16  2  0  0  0  0
 15 38  1  0  0  0  0
 16 17  1  0  0  0  0
 16 22  1  0  0  0  0
 17 21  1  0  0  0  0
 17 18  1  0  0  0  0
 18 19  1  0  0  0  0
 18 39  1  0  0  0  0
 18 40  1  0  0  0  0
 19 20  1  0  0  0  0
 19 41  1  0  0  0  0
 19 42  1  0  0  0  0
 20 21  1  0  0  0  0
 20 43  1  0  0  0  0
 20 44  1  0  0  0  0
 21 45  1  0  0  0  0
 21 46  1  0  0  0  0
 22 23  2  0  0  0  0
 22 52  1  0  0  0  0
 23 47  1  0  0  0  0
 24 25  1  0  0  0  0
 24 48  1  0  0  0  0
 24 49  1  0  0  0  0
 25 50  1  0  0  0  0
 25 51  1  0  0  0  0
M  CHG  1  22   1
M  END
> <s_m_source_file>
AV-unprocessed.smi

> <i_m_source_file_index>
1911

> <i_lp_mmshare_version>
43012

> <i_f3d_flags>
0

> <s_epik_input>
W05IMl1DKD1PKVtDSDJdTjFbQ0gyXVtDSDJdW0NIXShbQ0gyXVtDSDJdMSlbTkhdQyg9TylbTkhdYzJbY0hdW2NIXWMobltjSF0yKU4zW0NIMl1bQ0gyXVtDSDJdW0NIMl0z

> <s_epik_cmdline>
J2VwaWtfcHl0aG9uJywgJy1waCcsICc3LjAnLCAnLXRuJywgJzgnLCAnLW1hJywgJzIwMCcsICctbWV0YWxfYmluZGluZycsICctaW1hZScsICc8aW5maWxlLm1hZT4nLCAnLW9tYWUnLCAnPG91dGZpbGUubWFlPic=

> <r_epik_Ionization_Penalty>
1.24114

> <r_epik_Ionization_Penalty_Charging>
1.08532

> <r_epik_Ionization_Penalty_Neutral>
0.155817

> <r_epik_State_Penalty>
1.33508

> <r_epik_Charging_Adjusted_Penalty>
2.4204

> <i_epik_Tot_Q>
1

> <i_epik_Tot_abs_Q>
1

> <r_epik_Metal_State_Penalty>
1.43572

> <b_epik_Metal_Only>
0

> <s_lp_Force_Field>
OPLS_2005

> <r_lp_Energy>
42.7934

> <b_lp_Chiralities_Consistent>
1

> <s_lp_Variant>
AV-unprocessed.smi:1911-4

> <Gold.Version>
5.8.1

> <Gold.Id.Protein>
6NUR|6NUR_protein|mol2

> <Gold.PLP.Fitness>
49.4419

> <Gold.PLP.PLP>
-42.2287

> <Gold.PLP.part.hbond>
-5.0000

> <Gold.PLP.part.metal>
0.0000

> <Gold.PLP.part.buried>
-0.2104

> <Gold.PLP.part.nonpolar>
-37.8322

> <Gold.PLP.part.repulsive>
0.6582

> <Gold.PLP.ligand.clash>
0.0000

> <Gold.PLP.ligand.torsion>
1.3195

> <Gold.PLP.Chemscore.Hbond>
3.2183

> <Gold.PLP.Chemscore.CHOScore>
0.0000

> <Gold.PLP.Chemscore.Metal>
0.0000

> <Gold.Chemscore.Hbonds>
donor molecule, donor type, donor heavy atom, donor atom, acceptor molecule, acceptor atom, score
      L1  H     1    26       P1 10747  0.69
      L1  H    12    36       P1  7957  0.75
      L1  H    22    52       P1  8028  1.50
      P1  H 10785 10796       L1     3  0.25

> <Gold.PLP.Chemscore.Internal.Correction>
0.1971

> <Gold.Rescore>
     Score         DG    S(hbond)    S(metal)    S(lipo)     H(rot)  DE(clash)    DE(int)     intcor
     16.47     -20.14       2.30        0.00     101.18       1.90       0.69       2.98       ----

> <Gold.Chemscore.Fitness>
16.4706

> <Gold.Chemscore.DG>
-20.1366

> <Gold.Chemscore.ZeroCoef>
-5.4800

> <Gold.Chemscore.Hbond>
2.3039

> <Gold.Chemscore.Metal>
0.0000

> <Gold.Chemscore.Lipo>
101.1792

> <Gold.Chemscore.Internal_Hbond>
0.0000

> <Gold.Chemscore.DEClash>
0.6878

> <Gold.Chemscore.DEInternal>
2.9781

> <Gold.Chemscore.Rot>
1.9049

> <Gold.Chemscore.Internal.Correction>
   9.000000E+99

> <Gold.Chemscore.Hbonds>
donor molecule, donor type, donor heavy atom, donor atom, acceptor molecule, acceptor atom, score
      L1  H     1    26       P1 10747  0.66
      L1  H    12    36       P1  7957  0.71
      L1  H    22    52       P1  8028  0.76
      P1  H 10785 10796       L1     3  0.25

> <Gold.Chemscore.Hbond.Weighted>
-7.6952

> <Gold.Chemscore.Metal.Weighted>
-0.0000

> <Gold.Chemscore.Lipo.Weighted>
-11.8380

> <Gold.Chemscore.Internal_Hbond.Weighted>
0.0000

> <Gold.Chemscore.DEClash.Weighted>
0.6878

> <Gold.Chemscore.DEInternal.Weighted>
2.9781

> <Gold.Chemscore.Rot.Weighted>
4.8766

> <Gold.Chemscore.Internal.Correction.Weighted>
   9.000000E+99

> <Gold.Protein.RotatedTorsions>
[ 6907 6896 6895 6894 ] final   56.36 input  -60.11 | X-H torsion
[ 7974 7965 7964 7962 ] final -113.60 input  175.53 | X-H torsion
[ 8008 7997 7996 7995 ] final -170.94 input   59.86 | X-H torsion
[ 10167 10162 10161 10158 ] final -129.23 input  -65.29 | X-H torsion
[ 10718 10713 10712 10709 ] final  137.26 input   66.30 | X-H torsion
[ 10763 10752 10751 10750 ] final   73.26 input  -60.55 | X-H torsion
[ 11005 11000 10999 10996 ] final  -77.72 input  -57.11 | X-H torsion

> <Gold.Protein.ActiveResidues>
 VAL166  LYS551  ARG553  GLY616  TRP617  ASP618  TYR619  PRO620  LYS621  CYS622 
 ASP623  PHE694  ASN695  SER759  ASP760  ASP761  ALA762  ILE779  LEU786  VAL792 
 PHE793  MET794  SER795  GLU796  ALA797  LYS798  CYS799  TRP800  GLU811  SER814 

> <Gold.Protein.RotatedAtoms>
  152.3628  134.6847  160.0201 H   0  0  0  0  0  0  0  0  0  0  0  0  # atno 6907 bound_to 6896
  151.7165  133.3308  159.3312 H   0  0  0  0  0  0  0  0  0  0  0  0  # atno 6908 bound_to 6896
  150.7617  134.6420  159.6287 H   0  0  0  0  0  0  0  0  0  0  0  0  # atno 6909 bound_to 6896
  145.1301  140.8719  143.3763 H   0  0  0  0  0  0  0  0  0  0  0  0  # atno 7974 bound_to 7965
  155.9249  140.1081  157.1178 H   0  0  0  0  0  0  0  0  0  0  0  0  # atno 8008 bound_to 7997
  154.4060  140.1248  156.4793 H   0  0  0  0  0  0  0  0  0  0  0  0  # atno 8009 bound_to 7997
  155.7150  140.3470  155.4993 H   0  0  0  0  0  0  0  0  0  0  0  0  # atno 8010 bound_to 7997
  139.9420  143.6152  152.2501 H   0  0  0  0  0  0  0  0  0  0  0  0  # atno 10167 bound_to 10162
  157.4379  131.1055  151.0176 H   0  0  0  0  0  0  0  0  0  0  0  0  # atno 10718 bound_to 10713
  153.0510  135.5069  154.7867 H   0  0  0  0  0  0  0  0  0  0  0  0  # atno 10763 bound_to 10752
  154.6729  135.2956  154.9719 H   0  0  0  0  0  0  0  0  0  0  0  0  # atno 10764 bound_to 10752
  154.0531  135.6701  153.4855 H   0  0  0  0  0  0  0  0  0  0  0  0  # atno 10765 bound_to 10752
  141.1662  133.7034  156.7863 H   0  0  0  0  0  0  0  0  0  0  0  0  # atno 11005 bound_to 11000
  145.0645  139.3079  143.5863 LP  0  0  0  0  0  0  0  0  0  0  0  0  # atno 17320 bound_to 7965
  146.3514  140.0099  142.8668 LP  0  0  0  0  0  0  0  0  0  0  0  0  # atno 17321 bound_to 7965
  139.6697  144.7661  151.1807 LP  0  0  0  0  0  0  0  0  0  0  0  0  # atno 17342 bound_to 10162
  140.7608  143.5884  150.8822 LP  0  0  0  0  0  0  0  0  0  0  0  0  # atno 17343 bound_to 10162
  157.1049  130.5997  149.5468 LP  0  0  0  0  0  0  0  0  0  0  0  0  # atno 17370 bound_to 10713
  155.9937  130.4999  150.7393 LP  0  0  0  0  0  0  0  0  0  0  0  0  # atno 17371 bound_to 10713
  140.2357  134.8651  157.3523 LP  0  0  0  0  0  0  0  0  0  0  0  0  # atno 17394 bound_to 11000
  140.1846  134.4447  155.7752 LP  0  0  0  0  0  0  0  0  0  0  0  0  # atno 17395 bound_to 11000

$$$$
