AV-unprocessed.smi:667|AV-procd|sdf|3256|dock8
  -GOLD-   22720 0203D 1   1.00000     0.00000
 Structure written by MMmdl.
 48 49  0  0  0  0  0  0  0  0  1 V2000
  147.2097  142.4732  153.6598 C   0  0  0  0  0  0  0  0  0  0  0  0
  147.7506  141.0743  153.7390 C   0  0  0  0  0  0  0  0  0  0  0  0
  146.9910  140.0651  153.3469 N   0  0  0  0  0  0  0  0  0  0  0  0
  147.7497  138.9675  153.5393 N   0  0  0  0  0  0  0  0  0  0  0  0
  147.2082  137.6630  153.2110 C   0  0  0  0  0  0  0  0  0  0  0  0
  148.9934  139.2848  154.0503 C   0  0  0  0  0  0  0  0  0  0  0  0
  150.0265  138.2454  154.3460 C   0  0  0  0  0  0  0  0  0  0  0  0
  149.0286  140.6451  154.2047 C   0  0  0  0  0  0  0  0  0  0  0  0
  150.1477  141.5023  154.7415 C   0  0  0  0  0  0  0  0  0  0  0  0
  150.1738  141.4412  156.2704 C   0  0  0  0  0  0  0  0  0  0  0  0
  149.3717  140.7296  156.8761 O   0  0  0  0  0  0  0  0  0  0  0  0
  151.1060  142.1881  156.8820 N   0  0  0  0  0  0  0  0  0  0  0  0
  151.3219  142.2418  158.3239 C   0  0  0  0  0  0  0  0  0  0  0  0
  152.5349  143.1305  158.6940 C   0  0  1  0  0  0  0  0  0  0  0  0
  152.3874  144.5561  158.1762 C   0  0  0  0  0  0  0  0  0  0  0  0
  151.6633  145.2841  159.3126 C   0  0  0  0  0  0  0  0  0  0  0  0
  151.7130  144.4099  160.4361 O   0  0  0  0  0  0  0  0  0  0  0  0
  152.6918  143.4075  160.1990 C   0  0  1  0  0  0  0  0  0  0  0  0
  152.5290  142.2134  161.1665 C   0  0  0  0  0  0  0  0  0  0  0  0
  152.5818  142.6807  162.6300 C   0  0  0  0  0  0  0  0  0  0  0  0
  153.5954  141.1314  160.9218 C   0  0  0  0  0  0  0  0  0  0  0  0
  147.9876  143.1784  153.3691 H   0  0  0  0  0  0  0  0  0  0  0  0
  146.8146  142.7928  154.6240 H   0  0  0  0  0  0  0  0  0  0  0  0
  146.4064  142.5524  152.9266 H   0  0  0  0  0  0  0  0  0  0  0  0
  147.2580  137.0150  154.0864 H   0  0  0  0  0  0  0  0  0  0  0  0
  147.7895  137.2173  152.4035 H   0  0  0  0  0  0  0  0  0  0  0  0
  146.1678  137.7456  152.8935 H   0  0  0  0  0  0  0  0  0  0  0  0
  151.0211  138.6870  154.4066 H   0  0  0  0  0  0  0  0  0  0  0  0
  150.0537  137.4833  153.5672 H   0  0  0  0  0  0  0  0  0  0  0  0
  149.8171  137.7530  155.2956 H   0  0  0  0  0  0  0  0  0  0  0  0
  151.1100  141.1814  154.3404 H   0  0  0  0  0  0  0  0  0  0  0  0
  150.0324  142.5442  154.4421 H   0  0  0  0  0  0  0  0  0  0  0  0
  151.7211  142.7453  156.3071 H   0  0  0  0  0  0  0  0  0  0  0  0
  150.4138  142.6235  158.7912 H   0  0  0  0  0  0  0  0  0  0  0  0
  151.4503  141.2252  158.6959 H   0  0  0  0  0  0  0  0  0  0  0  0
  153.4440  142.6740  158.3000 H   0  0  0  0  0  0  0  0  0  0  0  0
  153.3753  144.9957  158.0323 H   0  0  0  0  0  0  0  0  0  0  0  0
  151.8565  144.6319  157.2274 H   0  0  0  0  0  0  0  0  0  0  0  0
  152.1472  146.2334  159.5449 H   0  0  0  0  0  0  0  0  0  0  0  0
  150.6217  145.4858  159.0616 H   0  0  0  0  0  0  0  0  0  0  0  0
  153.6709  143.8617  160.3673 H   0  0  0  0  0  0  0  0  0  0  0  0
  151.5476  141.7651  161.0115 H   0  0  0  0  0  0  0  0  0  0  0  0
  153.5371  143.1534  162.8615 H   0  0  0  0  0  0  0  0  0  0  0  0
  152.4503  141.8428  163.3150 H   0  0  0  0  0  0  0  0  0  0  0  0
  151.7931  143.4022  162.8452 H   0  0  0  0  0  0  0  0  0  0  0  0
  154.6005  141.5279  161.0681 H   0  0  0  0  0  0  0  0  0  0  0  0
  153.5424  140.7316  159.9094 H   0  0  0  0  0  0  0  0  0  0  0  0
  153.4673  140.2926  161.6061 H   0  0  0  0  0  0  0  0  0  0  0  0
  1  2  1  0  0  0  0
  1 22  1  0  0  0  0
  1 23  1  0  0  0  0
  1 24  1  0  0  0  0
  2  8  1  0  0  0  0
  2  3  2  0  0  0  0
  3  4  1  0  0  0  0
  4  5  1  0  0  0  0
  4  6  1  0  0  0  0
  5 25  1  0  0  0  0
  5 26  1  0  0  0  0
  5 27  1  0  0  0  0
  6  7  1  0  0  0  0
  6  8  2  0  0  0  0
  7 28  1  0  0  0  0
  7 29  1  0  0  0  0
  7 30  1  0  0  0  0
  8  9  1  0  0  0  0
  9 10  1  0  0  0  0
  9 31  1  0  0  0  0
  9 32  1  0  0  0  0
 10 11  2  0  0  0  0
 10 12  1  0  0  0  0
 12 13  1  0  0  0  0
 12 33  1  0  0  0  0
 13 14  1  0  0  0  0
 13 34  1  0  0  0  0
 13 35  1  0  0  0  0
 14 18  1  0  0  0  0
 14 15  1  0  0  0  0
 14 36  1  0  0  0  0
 15 16  1  0  0  0  0
 15 37  1  0  0  0  0
 15 38  1  0  0  0  0
 16 17  1  0  0  0  0
 16 39  1  0  0  0  0
 16 40  1  0  0  0  0
 17 18  1  0  0  0  0
 18 19  1  0  0  0  0
 18 41  1  0  0  0  0
 19 20  1  0  0  0  0
 19 21  1  0  0  0  0
 19 42  1  0  0  0  0
 20 43  1  0  0  0  0
 20 44  1  0  0  0  0
 20 45  1  0  0  0  0
 21 46  1  0  0  0  0
 21 47  1  0  0  0  0
 21 48  1  0  0  0  0
M  END
> <s_m_source_file>
AV-unprocessed.smi

> <i_m_source_file_index>
667

> <i_lp_mmshare_version>
43012

> <i_f3d_flags>
0

> <s_epik_input>
W0NIM11jMW5uKFtDSDNdKWMoW0NIM10pYzFbQ0gyXUMoPU8pW05IXVtDSDJdW0NAQEhdMltDSDJdW0NIMl1PW0NASF0yW0NIXShbQ0gzXSlbQ0gzXQ==

> <s_epik_cmdline>
J2VwaWtfcHl0aG9uJywgJy1waCcsICc3LjAnLCAnLXRuJywgJzgnLCAnLW1hJywgJzIwMCcsICctbWV0YWxfYmluZGluZycsICctaW1hZScsICc8aW5maWxlLm1hZT4nLCAnLW9tYWUnLCAnPG91dGZpbGUubWFlPic=

> <r_lp_tautomer_probability>
1

> <r_epik_Ionization_Penalty>
0.00315488

> <r_epik_Ionization_Penalty_Charging>
0

> <r_epik_Ionization_Penalty_Neutral>
0.00315488

> <r_epik_State_Penalty>
0.00222269

> <r_epik_Charging_Adjusted_Penalty>
0.00222269

> <i_epik_Tot_Q>
0

> <i_epik_Tot_abs_Q>
0

> <r_epik_Metal_State_Penalty>
-0

> <b_epik_Metal_Only>
0

> <s_lp_Force_Field>
OPLS_2005

> <r_lp_Energy>
16.6838

> <b_lp_Chiralities_Consistent>
1

> <s_lp_Variant>
AV-unprocessed.smi:667-2

> <Gold.Version>
5.8.1

> <Gold.Id.Protein>
6NUR|6NUR_protein|mol2

> <Gold.PLP.Fitness>
49.3905

> <Gold.PLP.PLP>
-49.9527

> <Gold.PLP.part.hbond>
0.0000

> <Gold.PLP.part.metal>
0.0000

> <Gold.PLP.part.buried>
-5.0098

> <Gold.PLP.part.nonpolar>
-45.4473

> <Gold.PLP.part.repulsive>
0.3505

> <Gold.PLP.ligand.clash>
0.0000

> <Gold.PLP.ligand.torsion>
0.3044

> <Gold.PLP.Chemscore.Hbond>
0.0000

> <Gold.PLP.Chemscore.CHOScore>
0.0000

> <Gold.PLP.Chemscore.Metal>
0.0000

> <Gold.PLP.Chemscore.Internal.Correction>
0.0466

> <Gold.Rescore>
     Score         DG    S(hbond)    S(metal)    S(lipo)     H(rot)  DE(clash)    DE(int)     intcor
     14.69     -15.56       0.00        0.00     119.41       1.52       0.02       0.85       ----

> <Gold.Chemscore.Fitness>
14.6907

> <Gold.Chemscore.DG>
-15.5562

> <Gold.Chemscore.ZeroCoef>
-5.4800

> <Gold.Chemscore.Hbond>
0.0000

> <Gold.Chemscore.Metal>
0.0000

> <Gold.Chemscore.Lipo>
119.4073

> <Gold.Chemscore.Internal_Hbond>
0.0000

> <Gold.Chemscore.DEClash>
0.0187

> <Gold.Chemscore.DEInternal>
0.8468

> <Gold.Chemscore.Rot>
1.5213

> <Gold.Chemscore.Internal.Correction>
   9.000000E+99

> <Gold.Chemscore.Hbond.Weighted>
-0.0000

> <Gold.Chemscore.Metal.Weighted>
-0.0000

> <Gold.Chemscore.Lipo.Weighted>
-13.9707

> <Gold.Chemscore.Internal_Hbond.Weighted>
0.0000

> <Gold.Chemscore.DEClash.Weighted>
0.0187

> <Gold.Chemscore.DEInternal.Weighted>
0.8468

> <Gold.Chemscore.Rot.Weighted>
3.8945

> <Gold.Chemscore.Internal.Correction.Weighted>
   9.000000E+99

> <Gold.Protein.RotatedTorsions>
[ 6907 6896 6895 6894 ] final -173.68 input  -60.11 | X-H torsion
[ 7974 7965 7964 7962 ] final    6.17 input  175.53 | X-H torsion
[ 8008 7997 7996 7995 ] final  145.02 input   59.86 | X-H torsion
[ 10167 10162 10161 10158 ] final  103.27 input  -65.29 | X-H torsion
[ 10718 10713 10712 10709 ] final  165.70 input   66.30 | X-H torsion
[ 10763 10752 10751 10750 ] final -114.98 input  -60.55 | X-H torsion
[ 11005 11000 10999 10996 ] final  -33.96 input  -57.11 | X-H torsion

> <Gold.Protein.ActiveResidues>
 VAL166  LYS551  ARG553  GLY616  TRP617  ASP618  TYR619  PRO620  LYS621  CYS622 
 ASP623  PHE694  ASN695  SER759  ASP760  ASP761  ALA762  ILE779  LEU786  VAL792 
 PHE793  MET794  SER795  GLU796  ALA797  LYS798  CYS799  TRP800  GLU811  SER814 

> <Gold.Protein.RotatedAtoms>
  151.5600  133.3404  159.2969 H   0  0  0  0  0  0  0  0  0  0  0  0  # atno 6907 bound_to 6896
  150.8428  134.7729  159.6957 H   0  0  0  0  0  0  0  0  0  0  0  0  # atno 6908 bound_to 6896
  152.4492  134.5437  159.9898 H   0  0  0  0  0  0  0  0  0  0  0  0  # atno 6909 bound_to 6896
  146.2436  140.0274  142.8392 H   0  0  0  0  0  0  0  0  0  0  0  0  # atno 7974 bound_to 7965
  156.2894  140.2220  156.5148 H   0  0  0  0  0  0  0  0  0  0  0  0  # atno 8008 bound_to 7997
  154.7578  140.0475  157.0970 H   0  0  0  0  0  0  0  0  0  0  0  0  # atno 8009 bound_to 7997
  155.0028  140.3103  155.4863 H   0  0  0  0  0  0  0  0  0  0  0  0  # atno 8010 bound_to 7997
  139.7277  144.7043  151.0771 H   0  0  0  0  0  0  0  0  0  0  0  0  # atno 10167 bound_to 10162
  157.0764  131.0380  151.2592 H   0  0  0  0  0  0  0  0  0  0  0  0  # atno 10718 bound_to 10713
  154.8462  135.4398  154.1591 H   0  0  0  0  0  0  0  0  0  0  0  0  # atno 10763 bound_to 10752
  153.2732  135.6947  153.7465 H   0  0  0  0  0  0  0  0  0  0  0  0  # atno 10764 bound_to 10752
  153.6698  135.3421  155.3125 H   0  0  0  0  0  0  0  0  0  0  0  0  # atno 10765 bound_to 10752
  140.9677  133.7127  156.1473 H   0  0  0  0  0  0  0  0  0  0  0  0  # atno 11005 bound_to 11000
  145.1186  140.9448  143.4614 LP  0  0  0  0  0  0  0  0  0  0  0  0  # atno 17320 bound_to 7965
  145.0504  139.3186  143.5931 LP  0  0  0  0  0  0  0  0  0  0  0  0  # atno 17321 bound_to 7965
  140.7766  143.5083  150.9684 LP  0  0  0  0  0  0  0  0  0  0  0  0  # atno 17342 bound_to 10162
  139.8771  143.7119  152.3161 LP  0  0  0  0  0  0  0  0  0  0  0  0  # atno 17343 bound_to 10162
  157.4836  130.7780  149.7438 LP  0  0  0  0  0  0  0  0  0  0  0  0  # atno 17370 bound_to 10713
  155.9936  130.3923  150.2894 LP  0  0  0  0  0  0  0  0  0  0  0  0  # atno 17371 bound_to 10713
  140.7375  134.4187  157.5559 LP  0  0  0  0  0  0  0  0  0  0  0  0  # atno 17394 bound_to 11000
  139.8901  134.8814  156.2389 LP  0  0  0  0  0  0  0  0  0  0  0  0  # atno 17395 bound_to 11000

$$$$
