AV-unprocessed.smi:2027|AV-procd|sdf|8209|dock5
  -GOLD-   2272010473D 1   1.00000     0.00000
 Structure written by MMmdl.
 49 51  0  0  0  0  0  0  0  0  1 V2000
  152.9609  142.8876  161.8193 C   0  0  0  0  0  0  0  0  0  0  0  0
  152.4385  142.5830  160.4264 C   0  0  0  0  0  0  0  0  0  0  0  0
  152.7880  141.3581  159.8144 C   0  0  0  0  0  0  0  0  0  0  0  0
  152.3184  141.0336  158.5229 C   0  0  0  0  0  0  0  0  0  0  0  0
  152.5302  139.9072  157.7464 N   0  0  0  0  0  0  0  0  0  0  0  0
  151.8240  140.1962  156.6570 C   0  0  0  0  0  0  0  0  0  0  0  0
  151.1779  141.3779  156.6363 N   0  0  0  0  0  0  0  0  0  0  0  0
  150.3434  141.9048  155.5701 C   0  0  0  0  0  0  0  0  0  0  0  0
  149.4367  140.8217  154.9570 C   0  0  2  0  0  0  0  0  0  0  0  0
  150.1851  140.0566  154.0314 O   0  0  0  0  0  0  0  0  0  0  0  0
  148.2188  141.4270  154.2274 C   0  0  0  0  0  0  0  0  0  0  0  0
  147.0718  141.8157  155.0646 N   0  0  0  0  0  0  0  0  0  0  0  0
  146.2283  140.6500  155.3039 C   0  0  0  0  0  0  0  0  0  0  0  0
  146.2489  142.8860  154.4828 C   0  0  0  0  0  0  0  0  0  0  0  0
  145.1691  143.4254  155.3817 C   0  0  0  0  0  0  0  0  0  0  0  0
  143.7701  143.4725  155.1203 C   0  0  0  0  0  0  0  0  0  0  0  0
  143.0807  144.0261  156.1035 N   0  0  0  0  0  0  0  0  0  0  0  0
  144.0101  144.3475  157.0259 N   0  0  0  0  0  0  0  0  0  0  0  0
  143.6015  145.0074  158.2468 C   0  0  0  0  0  0  0  0  0  0  0  0
  145.2766  143.9754  156.6291 C   0  0  0  0  0  0  0  0  0  0  0  0
  151.4828  141.9756  157.8547 C   0  0  0  0  0  0  0  0  0  0  0  0
  151.1339  143.2004  158.4507 C   0  0  0  0  0  0  0  0  0  0  0  0
  151.6115  143.5091  159.7413 C   0  0  0  0  0  0  0  0  0  0  0  0
  151.2232  144.8323  160.3766 C   0  0  0  0  0  0  0  0  0  0  0  0
  153.5081  142.0401  162.2335 H   0  0  0  0  0  0  0  0  0  0  0  0
  152.1374  143.1161  162.4963 H   0  0  0  0  0  0  0  0  0  0  0  0
  153.6365  143.7428  161.7930 H   0  0  0  0  0  0  0  0  0  0  0  0
  153.4197  140.6532  160.3347 H   0  0  0  0  0  0  0  0  0  0  0  0
  151.7680  139.5058  155.8280 H   0  0  0  0  0  0  0  0  0  0  0  0
  149.7380  142.7119  155.9845 H   0  0  0  0  0  0  0  0  0  0  0  0
  150.9826  142.3507  154.8065 H   0  0  0  0  0  0  0  0  0  0  0  0
  149.1303  140.1680  155.7655 H   0  0  0  0  0  0  0  0  0  0  0  0
  149.7093  140.0217  153.2158 H   0  0  0  0  0  0  0  0  0  0  0  0
  148.5389  142.2904  153.6421 H   0  0  0  0  0  0  0  0  0  0  0  0
  147.8963  140.6889  153.4909 H   0  0  0  0  0  0  0  0  0  0  0  0
  145.3951  140.8995  155.9621 H   0  0  0  0  0  0  0  0  0  0  0  0
  146.7937  139.8525  155.7872 H   0  0  0  0  0  0  0  0  0  0  0  0
  145.8198  140.2601  154.3704 H   0  0  0  0  0  0  0  0  0  0  0  0
  146.8985  143.6932  154.1404 H   0  0  0  0  0  0  0  0  0  0  0  0
  145.7738  142.5073  153.5768 H   0  0  0  0  0  0  0  0  0  0  0  0
  143.2396  143.1337  154.2426 H   0  0  0  0  0  0  0  0  0  0  0  0
  144.4754  145.2449  158.8540 H   0  0  0  0  0  0  0  0  0  0  0  0
  142.9393  144.3542  158.8157 H   0  0  0  0  0  0  0  0  0  0  0  0
  143.0757  145.9326  158.0071 H   0  0  0  0  0  0  0  0  0  0  0  0
  146.1446  144.1538  157.2467 H   0  0  0  0  0  0  0  0  0  0  0  0
  150.4987  143.8948  157.9211 H   0  0  0  0  0  0  0  0  0  0  0  0
  150.7105  145.4790  159.6641 H   0  0  0  0  0  0  0  0  0  0  0  0
  152.1050  145.3664  160.7308 H   0  0  0  0  0  0  0  0  0  0  0  0
  150.5545  144.6646  161.2211 H   0  0  0  0  0  0  0  0  0  0  0  0
  1  2  1  0  0  0  0
  1 25  1  0  0  0  0
  1 26  1  0  0  0  0
  1 27  1  0  0  0  0
  2 23  1  0  0  0  0
  2  3  2  0  0  0  0
  3  4  1  0  0  0  0
  3 28  1  0  0  0  0
  4 21  2  0  0  0  0
  4  5  1  0  0  0  0
  5  6  2  0  0  0  0
  6  7  1  0  0  0  0
  6 29  1  0  0  0  0
  7  8  1  0  0  0  0
  7 21  1  0  0  0  0
  8  9  1  0  0  0  0
  8 30  1  0  0  0  0
  8 31  1  0  0  0  0
  9 10  1  0  0  0  0
  9 11  1  0  0  0  0
  9 32  1  0  0  0  0
 10 33  1  0  0  0  0
 11 12  1  0  0  0  0
 11 34  1  0  0  0  0
 11 35  1  0  0  0  0
 12 13  1  0  0  0  0
 12 14  1  0  0  0  0
 13 36  1  0  0  0  0
 13 37  1  0  0  0  0
 13 38  1  0  0  0  0
 14 15  1  0  0  0  0
 14 39  1  0  0  0  0
 14 40  1  0  0  0  0
 15 20  2  0  0  0  0
 15 16  1  0  0  0  0
 16 17  2  0  0  0  0
 16 41  1  0  0  0  0
 17 18  1  0  0  0  0
 18 19  1  0  0  0  0
 18 20  1  0  0  0  0
 19 42  1  0  0  0  0
 19 43  1  0  0  0  0
 19 44  1  0  0  0  0
 20 45  1  0  0  0  0
 21 22  1  0  0  0  0
 22 23  2  0  0  0  0
 22 46  1  0  0  0  0
 23 24  1  0  0  0  0
 24 47  1  0  0  0  0
 24 48  1  0  0  0  0
 24 49  1  0  0  0  0
M  END
> <s_m_source_file>
AV-unprocessed.smi

> <i_m_source_file_index>
2027

> <i_lp_mmshare_version>
43012

> <i_f3d_flags>
0

> <s_epik_input>
W0NIM11jKFtjSF0xKWMoW0NIM10pW2NIXWMoYzEyKW4oW2NIXW4yKVtDSDJdW0NASF0oW09IXSlbQ0gyXU4oW0NIM10pW0NIMl1jM1tjSF1ubihbQ0gzXSlbY0hdMw==

> <s_epik_cmdline>
J2VwaWtfcHl0aG9uJywgJy1waCcsICc3LjAnLCAnLXRuJywgJzgnLCAnLW1hJywgJzIwMCcsICctbWV0YWxfYmluZGluZycsICctaW1hZScsICc8aW5maWxlLm1hZT4nLCAnLW9tYWUnLCAnPG91dGZpbGUubWFlPic=

> <r_lp_tautomer_probability>
1

> <r_epik_Ionization_Penalty>
0.374241

> <r_epik_Ionization_Penalty_Charging>
0

> <r_epik_Ionization_Penalty_Neutral>
0.374241

> <r_epik_State_Penalty>
0.350767

> <r_epik_Charging_Adjusted_Penalty>
0.350767

> <i_epik_Tot_Q>
0

> <i_epik_Tot_abs_Q>
0

> <r_epik_Metal_State_Penalty>
0.343203

> <b_epik_Metal_Only>
0

> <s_lp_Force_Field>
OPLS_2005

> <r_lp_Energy>
16.8083

> <b_lp_Chiralities_Consistent>
1

> <s_lp_Variant>
AV-unprocessed.smi:2027-1

> <Gold.Version>
5.8.1

> <Gold.Id.Protein>
6NUR|6NUR_protein|mol2

> <Gold.PLP.Fitness>
58.1183

> <Gold.PLP.PLP>
-47.0409

> <Gold.PLP.part.hbond>
-3.0000

> <Gold.PLP.part.metal>
0.0000

> <Gold.PLP.part.buried>
-6.4559

> <Gold.PLP.part.nonpolar>
-37.4496

> <Gold.PLP.part.repulsive>
0.1445

> <Gold.PLP.ligand.clash>
0.0000

> <Gold.PLP.ligand.torsion>
0.9906

> <Gold.PLP.Chemscore.Hbond>
2.9600

> <Gold.PLP.Chemscore.CHOScore>
1.3683

> <Gold.PLP.Chemscore.Metal>
0.0000

> <Gold.Chemscore.Hbonds>
donor molecule, donor type, donor heavy atom, donor atom, acceptor molecule, acceptor atom, score
      L1  H    10    33       P1  7957  0.94
      P1  H  7989  7998       L1    10  0.91
      P1  H  7997  8010       L1     5  0.67
      L1  C    16    41       P1 10174  1.00
      L1  C    20    45       P1  8029  0.27

> <Gold.PLP.Chemscore.Internal.Correction>
0.0739

> <Gold.Rescore>
     Score         DG    S(hbond)    S(metal)    S(lipo)     H(rot)  DE(clash)    DE(int)     intcor
     17.61     -18.73       1.64        0.00     119.25       2.42       0.34       0.78       ----

> <Gold.Chemscore.Fitness>
17.6095

> <Gold.Chemscore.DG>
-18.7294

> <Gold.Chemscore.ZeroCoef>
-5.4800

> <Gold.Chemscore.Hbond>
1.6443

> <Gold.Chemscore.Metal>
0.0000

> <Gold.Chemscore.Lipo>
119.2483

> <Gold.Chemscore.Internal_Hbond>
0.0000

> <Gold.Chemscore.DEClash>
0.3427

> <Gold.Chemscore.DEInternal>
0.7772

> <Gold.Chemscore.Rot>
2.4198

> <Gold.Chemscore.Internal.Correction>
   9.000000E+99

> <Gold.Chemscore.Hbonds>
donor molecule, donor type, donor heavy atom, donor atom, acceptor molecule, acceptor atom, score
      L1  H    10    33       P1  7957  0.87
      P1  H  7989  7998       L1    10  0.17
      P1  H  7997  8010       L1     5  0.12

> <Gold.Chemscore.Hbond.Weighted>
-5.4921

> <Gold.Chemscore.Metal.Weighted>
-0.0000

> <Gold.Chemscore.Lipo.Weighted>
-13.9521

> <Gold.Chemscore.Internal_Hbond.Weighted>
0.0000

> <Gold.Chemscore.DEClash.Weighted>
0.3427

> <Gold.Chemscore.DEInternal.Weighted>
0.7772

> <Gold.Chemscore.Rot.Weighted>
6.1948

> <Gold.Chemscore.Internal.Correction.Weighted>
   9.000000E+99

> <Gold.Protein.RotatedTorsions>
[ 6907 6896 6895 6894 ] final  -29.94 input  -60.11 | X-H torsion
[ 7974 7965 7964 7962 ] final  -13.10 input  175.53 | X-H torsion
[ 8008 7997 7996 7995 ] final   37.85 input   59.86 | X-H torsion
[ 10167 10162 10161 10158 ] final  -20.49 input  -65.29 | X-H torsion
[ 10718 10713 10712 10709 ] final -140.46 input   66.30 | X-H torsion
[ 10763 10752 10751 10750 ] final  -69.29 input  -60.55 | X-H torsion
[ 11005 11000 10999 10996 ] final   13.24 input  -57.11 | X-H torsion

> <Gold.Protein.ActiveResidues>
 VAL166  LYS551  ARG553  GLY616  TRP617  ASP618  TYR619  PRO620  LYS621  CYS622 
 ASP623  PHE694  ASN695  SER759  ASP760  ASP761  ALA762  ILE779  LEU786  VAL792 
 PHE793  MET794  SER795  GLU796  ALA797  LYS798  CYS799  TRP800  GLU811  SER814 

> <Gold.Protein.RotatedAtoms>
  151.1123  135.0033  159.8499 H   0  0  0  0  0  0  0  0  0  0  0  0  # atno 6907 bound_to 6896
  152.5444  134.1822  159.8650 H   0  0  0  0  0  0  0  0  0  0  0  0  # atno 6908 bound_to 6896
  151.1873  133.4644  159.2627 H   0  0  0  0  0  0  0  0  0  0  0  0  # atno 6909 bound_to 6896
  146.2127  140.3154  142.8386 H   0  0  0  0  0  0  0  0  0  0  0  0  # atno 7974 bound_to 7965
  155.2106  140.3323  155.4329 H   0  0  0  0  0  0  0  0  0  0  0  0  # atno 8008 bound_to 7997
  156.2372  140.1878  156.7136 H   0  0  0  0  0  0  0  0  0  0  0  0  # atno 8009 bound_to 7997
  154.6080  140.0613  156.9443 H   0  0  0  0  0  0  0  0  0  0  0  0  # atno 8010 bound_to 7997
  140.7276  143.4717  151.0237 H   0  0  0  0  0  0  0  0  0  0  0  0  # atno 10167 bound_to 10162
  156.3226  130.7542  151.1643 H   0  0  0  0  0  0  0  0  0  0  0  0  # atno 10718 bound_to 10713
  154.4013  135.6030  153.5899 H   0  0  0  0  0  0  0  0  0  0  0  0  # atno 10763 bound_to 10752
  152.9788  135.5907  154.4181 H   0  0  0  0  0  0  0  0  0  0  0  0  # atno 10764 bound_to 10752
  154.3980  135.2842  155.2092 H   0  0  0  0  0  0  0  0  0  0  0  0  # atno 10765 bound_to 10752
  140.4830  134.0916  155.7755 H   0  0  0  0  0  0  0  0  0  0  0  0  # atno 11005 bound_to 11000
  144.8958  140.7581  143.5898 LP  0  0  0  0  0  0  0  0  0  0  0  0  # atno 17320 bound_to 7965
  145.3078  139.1829  143.4655 LP  0  0  0  0  0  0  0  0  0  0  0  0  # atno 17321 bound_to 7965
  139.8410  143.7564  152.3180 LP  0  0  0  0  0  0  0  0  0  0  0  0  # atno 17342 bound_to 10162
  139.7713  144.7475  151.0221 LP  0  0  0  0  0  0  0  0  0  0  0  0  # atno 17343 bound_to 10162
  157.7415  131.0503  150.5094 LP  0  0  0  0  0  0  0  0  0  0  0  0  # atno 17370 bound_to 10713
  156.5248  130.4170  149.6232 LP  0  0  0  0  0  0  0  0  0  0  0  0  # atno 17371 bound_to 10713
  141.1522  133.8948  157.2069 LP  0  0  0  0  0  0  0  0  0  0  0  0  # atno 17394 bound_to 11000
  139.9815  135.0096  156.9761 LP  0  0  0  0  0  0  0  0  0  0  0  0  # atno 17395 bound_to 11000

$$$$
