AV-unprocessed.smi:3188|AV-procd|sdf|12184|dock7
  -GOLD-   2272018 23D 1   1.00000     0.00000
 Structure written by MMmdl.
 40 41  0  0  0  0  0  0  0  0  2 V2000
  151.4682  144.6728  158.0380 C   0  0  0  0  0  0  0  0  0  0  0  0
  151.9181  143.5335  158.9378 C   0  0  0  0  0  0  0  0  0  0  0  0
  152.5474  143.8070  160.0967 C   0  0  0  0  0  0  0  0  0  0  0  0
  153.1026  142.7594  161.0339 C   0  0  0  0  0  0  0  0  0  0  0  0
  153.3128  141.4285  160.3086 C   0  0  0  0  0  0  0  0  0  0  0  0
  152.0617  141.0167  159.5152 C   0  0  2  0  0  0  0  0  0  0  0  0
  152.2910  139.6286  158.8859 C   0  0  0  0  0  0  0  0  0  0  0  0
  151.6487  142.0909  158.4617 C   0  0  1  0  0  0  0  0  0  0  0  0
  150.1771  141.8697  158.0212 C   0  0  0  0  0  0  0  0  0  0  0  0
  149.9517  142.1760  156.5933 N   0  3  0  0  0  0  0  0  0  0  0  0
  148.9926  141.2744  155.9272 C   0  0  0  0  0  0  0  0  0  0  0  0
  149.5144  140.8354  154.5512 C   0  0  0  0  0  0  0  0  0  0  0  0
  150.3666  139.6661  154.6468 N   0  0  0  0  0  0  0  0  0  0  0  0
  150.3613  138.5304  153.8633 C   0  0  0  0  0  0  0  0  0  0  0  0
  151.3645  137.7727  154.3973 C   0  0  0  0  0  0  0  0  0  0  0  0
  151.9300  138.4683  155.4647 N   0  0  0  0  0  0  0  0  0  0  0  0
  151.3250  139.6057  155.6023 N   0  0  0  0  0  0  0  0  0  0  0  0
  151.8291  144.5223  157.0203 H   0  0  0  0  0  0  0  0  0  0  0  0
  151.8575  145.6300  158.3869 H   0  0  0  0  0  0  0  0  0  0  0  0
  150.3813  144.7524  158.0227 H   0  0  0  0  0  0  0  0  0  0  0  0
  152.6947  144.8330  160.4016 H   0  0  0  0  0  0  0  0  0  0  0  0
  154.0509  143.1106  161.4420 H   0  0  0  0  0  0  0  0  0  0  0  0
  152.4162  142.6416  161.8727 H   0  0  0  0  0  0  0  0  0  0  0  0
  154.1634  141.5143  159.6305 H   0  0  0  0  0  0  0  0  0  0  0  0
  153.5756  140.6591  161.0358 H   0  0  0  0  0  0  0  0  0  0  0  0
  151.2488  140.9222  160.2373 H   0  0  0  0  0  0  0  0  0  0  0  0
  153.0862  139.6596  158.1404 H   0  0  0  0  0  0  0  0  0  0  0  0
  151.3985  139.2362  158.4011 H   0  0  0  0  0  0  0  0  0  0  0  0
  152.5820  138.9009  159.6440 H   0  0  0  0  0  0  0  0  0  0  0  0
  152.2906  141.9489  157.5906 H   0  0  0  0  0  0  0  0  0  0  0  0
  149.8712  140.8360  158.1741 H   0  0  0  0  0  0  0  0  0  0  0  0
  149.5137  142.4786  158.6374 H   0  0  0  0  0  0  0  0  0  0  0  0
  149.6028  143.1214  156.5232 H   0  0  0  0  0  0  0  0  0  0  0  0
  148.8204  140.4041  156.5622 H   0  0  0  0  0  0  0  0  0  0  0  0
  148.0368  141.7883  155.8160 H   0  0  0  0  0  0  0  0  0  0  0  0
  148.6814  140.6022  153.8867 H   0  0  0  0  0  0  0  0  0  0  0  0
  150.0806  141.6401  154.0800 H   0  0  0  0  0  0  0  0  0  0  0  0
  149.6824  138.3680  153.0390 H   0  0  0  0  0  0  0  0  0  0  0  0
  151.7229  136.7961  154.1060 H   0  0  0  0  0  0  0  0  0  0  0  0
  150.8370  142.1220  156.1097 H   0  0  0  0  0  0  0  0  0  0  0  0
  1  2  1  0  0  0  0
  1 18  1  0  0  0  0
  1 19  1  0  0  0  0
  1 20  1  0  0  0  0
  2  8  1  0  0  0  0
  2  3  2  0  0  0  0
  3  4  1  0  0  0  0
  3 21  1  0  0  0  0
  4  5  1  0  0  0  0
  4 22  1  0  0  0  0
  4 23  1  0  0  0  0
  5  6  1  0  0  0  0
  5 24  1  0  0  0  0
  5 25  1  0  0  0  0
  6  7  1  0  0  0  0
  6  8  1  0  0  0  0
  6 26  1  0  0  0  0
  7 27  1  0  0  0  0
  7 28  1  0  0  0  0
  7 29  1  0  0  0  0
  8  9  1  0  0  0  0
  8 30  1  0  0  0  0
  9 10  1  0  0  0  0
  9 31  1  0  0  0  0
  9 32  1  0  0  0  0
 10 11  1  0  0  0  0
 10 33  1  0  0  0  0
 10 40  1  0  0  0  0
 11 12  1  0  0  0  0
 11 34  1  0  0  0  0
 11 35  1  0  0  0  0
 12 13  1  0  0  0  0
 12 36  1  0  0  0  0
 12 37  1  0  0  0  0
 13 17  1  0  0  0  0
 13 14  1  0  0  0  0
 14 15  2  0  0  0  0
 14 38  1  0  0  0  0
 15 16  1  0  0  0  0
 15 39  1  0  0  0  0
 16 17  2  0  0  0  0
M  CHG  1  10   1
M  END
> <s_m_source_file>
AV-unprocessed.smi

> <i_m_source_file_index>
3188

> <i_lp_mmshare_version>
43012

> <i_f3d_flags>
0

> <s_epik_input>
W0NIM11DMT1bQ0hdW0NIMl1bQ0gyXVtDQEBIXShbQ0gzXSlbQ0BIXTFbQ0gyXVtOSF1bQ0gyXVtDSDJdbjJbY0hdW2NIXW5uMg==

> <s_epik_cmdline>
J2VwaWtfcHl0aG9uJywgJy1waCcsICc3LjAnLCAnLXRuJywgJzgnLCAnLW1hJywgJzIwMCcsICctbWV0YWxfYmluZGluZycsICctaW1hZScsICc8aW5maWxlLm1hZT4nLCAnLW9tYWUnLCAnPG91dGZpbGUubWFlPic=

> <r_lp_tautomer_probability>
1

> <r_epik_Ionization_Penalty>
0.007268

> <r_epik_Ionization_Penalty_Charging>
0.00726786

> <r_epik_Ionization_Penalty_Neutral>
1.34882e-07

> <r_epik_State_Penalty>
0.00542069

> <r_epik_Charging_Adjusted_Penalty>
0.0126886

> <i_epik_Tot_Q>
1

> <i_epik_Tot_abs_Q>
1

> <r_epik_Metal_State_Penalty>
-0

> <b_epik_Metal_Only>
0

> <s_lp_Force_Field>
OPLS_2005

> <r_lp_Energy>
15.008

> <b_lp_Chiralities_Consistent>
1

> <s_lp_Variant>
AV-unprocessed.smi:3188-2

> <Gold.Version>
5.8.1

> <Gold.Id.Protein>
6NUR|6NUR_protein|mol2

> <Gold.PLP.Fitness>
49.7219

> <Gold.PLP.PLP>
-40.0111

> <Gold.PLP.part.hbond>
-1.0000

> <Gold.PLP.part.metal>
0.0000

> <Gold.PLP.part.buried>
-2.8668

> <Gold.PLP.part.nonpolar>
-35.5182

> <Gold.PLP.part.repulsive>
0.0711

> <Gold.PLP.ligand.clash>
0.0000

> <Gold.PLP.ligand.torsion>
1.3200

> <Gold.PLP.Chemscore.Hbond>
2.0000

> <Gold.PLP.Chemscore.CHOScore>
2.0967

> <Gold.PLP.Chemscore.Metal>
0.0000

> <Gold.Chemscore.Hbonds>
donor molecule, donor type, donor heavy atom, donor atom, acceptor molecule, acceptor atom, score
      L1  H    10    33       P1  8028  2.00
      L1  C    14    38       P1  7948  1.00
      L1  C    14    38       P1  7957  0.79
      L1  C    15    39       P1  7949  0.26

> <Gold.PLP.Chemscore.Internal.Correction>
0.0605

> <Gold.Rescore>
     Score         DG    S(hbond)    S(metal)    S(lipo)     H(rot)  DE(clash)    DE(int)     intcor
     16.14     -17.87       0.99        0.00     116.49       1.78       0.16       1.57       ----

> <Gold.Chemscore.Fitness>
16.1364

> <Gold.Chemscore.DG>
-17.8652

> <Gold.Chemscore.ZeroCoef>
-5.4800

> <Gold.Chemscore.Hbond>
0.9926

> <Gold.Chemscore.Metal>
0.0000

> <Gold.Chemscore.Lipo>
116.4875

> <Gold.Chemscore.Internal_Hbond>
0.0000

> <Gold.Chemscore.DEClash>
0.1596

> <Gold.Chemscore.DEInternal>
1.5691

> <Gold.Chemscore.Rot>
1.7809

> <Gold.Chemscore.Internal.Correction>
   9.000000E+99

> <Gold.Chemscore.Hbonds>
donor molecule, donor type, donor heavy atom, donor atom, acceptor molecule, acceptor atom, score
      L1  H    10    33       P1  8028  0.98

> <Gold.Chemscore.Hbond.Weighted>
-3.3151

> <Gold.Chemscore.Metal.Weighted>
-0.0000

> <Gold.Chemscore.Lipo.Weighted>
-13.6290

> <Gold.Chemscore.Internal_Hbond.Weighted>
0.0000

> <Gold.Chemscore.DEClash.Weighted>
0.1596

> <Gold.Chemscore.DEInternal.Weighted>
1.5691

> <Gold.Chemscore.Rot.Weighted>
4.5590

> <Gold.Chemscore.Internal.Correction.Weighted>
   9.000000E+99

> <Gold.Protein.RotatedTorsions>
[ 6907 6896 6895 6894 ] final  122.42 input  -60.11 | X-H torsion
[ 7974 7965 7964 7962 ] final   41.42 input  175.53 | X-H torsion
[ 8008 7997 7996 7995 ] final -128.00 input   59.86 | X-H torsion
[ 10167 10162 10161 10158 ] final   83.67 input  -65.29 | X-H torsion
[ 10718 10713 10712 10709 ] final   74.60 input   66.30 | X-H torsion
[ 10763 10752 10751 10750 ] final  166.33 input  -60.55 | X-H torsion
[ 11005 11000 10999 10996 ] final -128.33 input  -57.11 | X-H torsion

> <Gold.Protein.ActiveResidues>
 VAL166  LYS551  ARG553  GLY616  TRP617  ASP618  TYR619  PRO620  LYS621  CYS622 
 ASP623  PHE694  ASN695  SER759  ASP760  ASP761  ALA762  ILE779  LEU786  VAL792 
 PHE793  MET794  SER795  GLU796  ALA797  LYS798  CYS799  TRP800  GLU811  SER814 

> <Gold.Protein.RotatedAtoms>
  152.4244  133.7171  159.6511 H   0  0  0  0  0  0  0  0  0  0  0  0  # atno 6907 bound_to 6896
  150.8121  133.8393  159.3183 H   0  0  0  0  0  0  0  0  0  0  0  0  # atno 6908 bound_to 6896
  151.6100  135.1043  160.0130 H   0  0  0  0  0  0  0  0  0  0  0  0  # atno 6909 bound_to 6896
  146.0825  139.5418  142.9528 H   0  0  0  0  0  0  0  0  0  0  0  0  # atno 7974 bound_to 7965
  155.2555  140.0434  157.2991 H   0  0  0  0  0  0  0  0  0  0  0  0  # atno 8008 bound_to 7997
  154.5743  140.2382  155.8115 H   0  0  0  0  0  0  0  0  0  0  0  0  # atno 8009 bound_to 7997
  156.2146  140.2988  155.9817 H   0  0  0  0  0  0  0  0  0  0  0  0  # atno 8010 bound_to 7997
  139.9160  144.6242  150.8489 H   0  0  0  0  0  0  0  0  0  0  0  0  # atno 10167 bound_to 10162
  157.6599  130.9685  150.1233 H   0  0  0  0  0  0  0  0  0  0  0  0  # atno 10718 bound_to 10713
  154.3374  135.2754  155.2440 H   0  0  0  0  0  0  0  0  0  0  0  0  # atno 10763 bound_to 10752
  154.4726  135.5879  153.6336 H   0  0  0  0  0  0  0  0  0  0  0  0  # atno 10764 bound_to 10752
  152.9861  135.6092  154.3572 H   0  0  0  0  0  0  0  0  0  0  0  0  # atno 10765 bound_to 10752
  140.9525  134.1046  157.4048 H   0  0  0  0  0  0  0  0  0  0  0  0  # atno 11005 bound_to 11000
  145.6192  141.0325  143.1924 LP  0  0  0  0  0  0  0  0  0  0  0  0  # atno 17320 bound_to 7965
  144.7303  139.7747  143.7350 LP  0  0  0  0  0  0  0  0  0  0  0  0  # atno 17321 bound_to 7965
  140.7674  143.3331  151.2367 LP  0  0  0  0  0  0  0  0  0  0  0  0  # atno 17342 bound_to 10162
  139.6902  143.9705  152.2855 LP  0  0  0  0  0  0  0  0  0  0  0  0  # atno 17343 bound_to 10162
  156.2099  130.3666  149.8683 LP  0  0  0  0  0  0  0  0  0  0  0  0  # atno 17370 bound_to 10713
  156.6565  130.8764  151.3540 LP  0  0  0  0  0  0  0  0  0  0  0  0  # atno 17371 bound_to 10713
  139.8852  135.0070  156.6419 LP  0  0  0  0  0  0  0  0  0  0  0  0  # atno 17394 bound_to 11000
  140.7582  133.8840  155.8398 LP  0  0  0  0  0  0  0  0  0  0  0  0  # atno 17395 bound_to 11000

$$$$
