AV-unprocessed.smi:716|AV-procd|sdf|3486|dock3
  -GOLD-   22720 0483D 1   1.00000     0.00000
 Structure written by MMmdl.
 48 50  0  0  0  0  0  0  0  0  1 V2000
  152.7923  144.2687  158.4537 C   0  0  0  0  0  0  0  0  0  0  0  0
  151.4949  143.8553  157.7557 C   0  0  0  0  0  0  0  0  0  0  0  0
  151.5245  142.4570  157.5220 O   0  0  0  0  0  0  0  0  0  0  0  0
  150.3479  141.9752  156.8838 C   0  0  2  0  0  0  0  0  0  0  0  0
  149.3130  141.4529  157.8886 C   0  0  0  0  0  0  0  0  0  0  0  0
  150.0379  140.1099  157.7941 C   0  0  1  0  0  0  0  0  0  0  0  0
  149.1198  138.9793  157.8397 N   0  0  0  0  0  0  0  0  0  0  0  0
  149.2565  137.9169  158.6452 C   0  0  0  0  0  0  0  0  0  0  0  0
  150.1581  137.8052  159.4752 O   0  0  0  0  0  0  0  0  0  0  0  0
  148.2212  136.8007  158.4806 C   0  0  0  0  0  0  0  0  0  0  0  0
  147.8825  136.1949  159.7751 N   0  0  0  0  0  0  0  0  0  0  0  0
  147.3627  137.0874  160.6985 N   0  0  0  0  0  0  0  0  0  0  0  0
  147.0627  136.7078  161.8970 C   0  0  0  0  0  0  0  0  0  0  0  0
  146.5183  137.7418  162.8372 C   0  0  0  0  0  0  0  0  0  0  0  0
  147.2622  135.3228  162.2787 C   0  0  0  0  0  0  0  0  0  0  0  0
  147.7662  134.4537  161.3767 C   0  0  0  0  0  0  0  0  0  0  0  0
  148.1205  134.8719  160.0224 C   0  0  0  0  0  0  0  0  0  0  0  0
  148.6029  134.1083  159.1860 O   0  0  0  0  0  0  0  0  0  0  0  0
  150.5113  140.5227  156.3725 C   0  0  0  0  0  0  0  0  0  0  0  0
  149.6581  140.1322  155.1573 C   0  0  0  0  0  0  0  0  0  0  0  0
  150.2884  138.8891  154.5235 C   0  0  0  0  0  0  0  0  0  0  0  0
  151.7380  138.8592  155.0112 C   0  0  0  0  0  0  0  0  0  0  0  0
  151.9029  140.0756  155.9272 C   0  0  0  0  0  0  0  0  0  0  0  0
  152.8023  145.3402  158.6542 H   0  0  0  0  0  0  0  0  0  0  0  0
  153.6599  144.0343  157.8366 H   0  0  0  0  0  0  0  0  0  0  0  0
  152.9066  143.7491  159.4053 H   0  0  0  0  0  0  0  0  0  0  0  0
  150.6394  144.1231  158.3767 H   0  0  0  0  0  0  0  0  0  0  0  0
  151.3947  144.3892  156.8096 H   0  0  0  0  0  0  0  0  0  0  0  0
  149.9496  142.6602  156.1335 H   0  0  0  0  0  0  0  0  0  0  0  0
  149.3410  141.9144  158.8757 H   0  0  0  0  0  0  0  0  0  0  0  0
  148.3008  141.4357  157.4800 H   0  0  0  0  0  0  0  0  0  0  0  0
  150.8589  140.0458  158.5125 H   0  0  0  0  0  0  0  0  0  0  0  0
  148.3496  138.9858  157.1863 H   0  0  0  0  0  0  0  0  0  0  0  0
  147.3250  137.2188  158.0186 H   0  0  0  0  0  0  0  0  0  0  0  0
  148.5880  136.0527  157.7749 H   0  0  0  0  0  0  0  0  0  0  0  0
  146.3144  137.3144  163.8192 H   0  0  0  0  0  0  0  0  0  0  0  0
  145.5870  138.1622  162.4564 H   0  0  0  0  0  0  0  0  0  0  0  0
  147.2294  138.5576  162.9701 H   0  0  0  0  0  0  0  0  0  0  0  0
  147.0065  134.9979  163.2764 H   0  0  0  0  0  0  0  0  0  0  0  0
  147.9145  133.4225  161.6617 H   0  0  0  0  0  0  0  0  0  0  0  0
  148.6092  139.9644  155.4036 H   0  0  0  0  0  0  0  0  0  0  0  0
  149.6717  140.9414  154.4261 H   0  0  0  0  0  0  0  0  0  0  0  0
  149.7719  137.9885  154.8531 H   0  0  0  0  0  0  0  0  0  0  0  0
  150.2232  138.9198  153.4356 H   0  0  0  0  0  0  0  0  0  0  0  0
  151.9244  137.9378  155.5639 H   0  0  0  0  0  0  0  0  0  0  0  0
  152.4460  138.8893  154.1825 H   0  0  0  0  0  0  0  0  0  0  0  0
  152.3885  140.8787  155.3714 H   0  0  0  0  0  0  0  0  0  0  0  0
  152.5525  139.8443  156.7721 H   0  0  0  0  0  0  0  0  0  0  0  0
  1  2  1  0  0  0  0
  1 24  1  0  0  0  0
  1 25  1  0  0  0  0
  1 26  1  0  0  0  0
  2  3  1  0  0  0  0
  2 27  1  0  0  0  0
  2 28  1  0  0  0  0
  3  4  1  0  0  0  0
  4 19  1  0  0  0  0
  4  5  1  0  0  0  0
  4 29  1  0  0  0  0
  5  6  1  0  0  0  0
  5 30  1  0  0  0  0
  5 31  1  0  0  0  0
  6  7  1  0  0  0  0
  6 19  1  0  0  0  0
  6 32  1  0  0  0  0
  7  8  1  0  0  0  0
  7 33  1  0  0  0  0
  8  9  2  0  0  0  0
  8 10  1  0  0  0  0
 10 11  1  0  0  0  0
 10 34  1  0  0  0  0
 10 35  1  0  0  0  0
 11 17  1  0  0  0  0
 11 12  1  0  0  0  0
 12 13  2  0  0  0  0
 13 14  1  0  0  0  0
 13 15  1  0  0  0  0
 14 36  1  0  0  0  0
 14 37  1  0  0  0  0
 14 38  1  0  0  0  0
 15 16  2  0  0  0  0
 15 39  1  0  0  0  0
 16 17  1  0  0  0  0
 16 40  1  0  0  0  0
 17 18  2  0  0  0  0
 19 23  1  0  0  0  0
 19 20  1  0  0  0  0
 20 21  1  0  0  0  0
 20 41  1  0  0  0  0
 20 42  1  0  0  0  0
 21 22  1  0  0  0  0
 21 43  1  0  0  0  0
 21 44  1  0  0  0  0
 22 23  1  0  0  0  0
 22 45  1  0  0  0  0
 22 46  1  0  0  0  0
 23 47  1  0  0  0  0
 23 48  1  0  0  0  0
M  END
> <s_m_source_file>
AV-unprocessed.smi

> <i_m_source_file_index>
716

> <i_lp_mmshare_version>
43012

> <i_f3d_flags>
0

> <s_epik_input>
W0NIMl0xW0NIMl1bQ0gyXVtDSDJdQzEyW0NASF0oT1tDSDJdW0NIM10pW0NIMl1bQ0BIXTJbTkhdQyg9TylbQ0gyXW4zbmMoW0NIM10pW2NIXVtjSF1jMz1P

> <s_epik_cmdline>
J2VwaWtfcHl0aG9uJywgJy1waCcsICc3LjAnLCAnLXRuJywgJzgnLCAnLW1hJywgJzIwMCcsICctbWV0YWxfYmluZGluZycsICctaW1hZScsICc8aW5maWxlLm1hZT4nLCAnLW9tYWUnLCAnPG91dGZpbGUubWFlPic=

> <r_lp_tautomer_probability>
1

> <r_epik_Ionization_Penalty>
4.75561e-08

> <r_epik_Ionization_Penalty_Charging>
2.86617e-08

> <r_epik_Ionization_Penalty_Neutral>
1.88944e-08

> <r_epik_State_Penalty>
-0

> <r_epik_Charging_Adjusted_Penalty>
2.86617e-08

> <i_epik_Tot_Q>
0

> <i_epik_Tot_abs_Q>
0

> <r_epik_Metal_State_Penalty>
-0

> <b_epik_Metal_Only>
0

> <s_lp_Force_Field>
OPLS_2005

> <r_lp_Energy>
50.4804

> <b_lp_Chiralities_Consistent>
1

> <s_lp_Variant>
AV-unprocessed.smi:716-1

> <Gold.Version>
5.8.1

> <Gold.Id.Protein>
6NUR|6NUR_protein|mol2

> <Gold.PLP.Fitness>
49.4122

> <Gold.PLP.PLP>
-44.4461

> <Gold.PLP.part.hbond>
-3.4999

> <Gold.PLP.part.metal>
0.0000

> <Gold.PLP.part.buried>
-3.8696

> <Gold.PLP.part.nonpolar>
-38.3682

> <Gold.PLP.part.repulsive>
0.1872

> <Gold.PLP.ligand.clash>
0.0000

> <Gold.PLP.ligand.torsion>
0.7004

> <Gold.PLP.Chemscore.Hbond>
2.0004

> <Gold.PLP.Chemscore.CHOScore>
0.0000

> <Gold.PLP.Chemscore.Metal>
0.0000

> <Gold.Chemscore.Hbonds>
donor molecule, donor type, donor heavy atom, donor atom, acceptor molecule, acceptor atom, score
      P1  H  6896  6908       L1    18  0.99
      P1  H  6931  6943       L1    12  0.01
      P1  H  6934  6947       L1    12  0.95

> <Gold.PLP.Chemscore.Internal.Correction>
0.3659

> <Gold.Rescore>
     Score         DG    S(hbond)    S(metal)    S(lipo)     H(rot)  DE(clash)    DE(int)     intcor
     17.79     -18.77       1.47        0.00     109.64       1.73       0.26       0.72       ----

> <Gold.Chemscore.Fitness>
17.7918

> <Gold.Chemscore.DG>
-18.7702

> <Gold.Chemscore.ZeroCoef>
-5.4800

> <Gold.Chemscore.Hbond>
1.4683

> <Gold.Chemscore.Metal>
0.0000

> <Gold.Chemscore.Lipo>
109.6357

> <Gold.Chemscore.Internal_Hbond>
0.0000

> <Gold.Chemscore.DEClash>
0.2563

> <Gold.Chemscore.DEInternal>
0.7222

> <Gold.Chemscore.Rot>
1.7348

> <Gold.Chemscore.Internal.Correction>
   9.000000E+99

> <Gold.Chemscore.Hbonds>
donor molecule, donor type, donor heavy atom, donor atom, acceptor molecule, acceptor atom, score
      P1  H  6896  6908       L1    18  0.45
      P1  H  6934  6947       L1    12  0.21

> <Gold.Chemscore.Hbond.Weighted>
-4.9040

> <Gold.Chemscore.Metal.Weighted>
-0.0000

> <Gold.Chemscore.Lipo.Weighted>
-12.8274

> <Gold.Chemscore.Internal_Hbond.Weighted>
0.0000

> <Gold.Chemscore.DEClash.Weighted>
0.2563

> <Gold.Chemscore.DEInternal.Weighted>
0.7222

> <Gold.Chemscore.Rot.Weighted>
4.4411

> <Gold.Chemscore.Internal.Correction.Weighted>
   9.000000E+99

> <Gold.Protein.RotatedTorsions>
[ 6907 6896 6895 6894 ] final  149.08 input  -60.11 | X-H torsion
[ 7974 7965 7964 7962 ] final  -21.51 input  175.53 | X-H torsion
[ 8008 7997 7996 7995 ] final -172.15 input   59.86 | X-H torsion
[ 10167 10162 10161 10158 ] final  -32.31 input  -65.29 | X-H torsion
[ 10718 10713 10712 10709 ] final   93.87 input   66.30 | X-H torsion
[ 10763 10752 10751 10750 ] final   43.20 input  -60.55 | X-H torsion
[ 11005 11000 10999 10996 ] final -122.79 input  -57.11 | X-H torsion

> <Gold.Protein.ActiveResidues>
 VAL166  LYS551  ARG553  GLY616  TRP617  ASP618  TYR619  PRO620  LYS621  CYS622 
 ASP623  PHE694  ASN695  SER759  ASP760  ASP761  ALA762  ILE779  LEU786  VAL792 
 PHE793  MET794  SER795  GLU796  ALA797  LYS798  CYS799  TRP800  GLU811  SER814 

> <Gold.Protein.RotatedAtoms>
  152.1328  133.4418  159.4728 H   0  0  0  0  0  0  0  0  0  0  0  0  # atno 6907 bound_to 6896
  150.6879  134.2400  159.4478 H   0  0  0  0  0  0  0  0  0  0  0  0  # atno 6908 bound_to 6896
  152.0285  134.9781  160.0622 H   0  0  0  0  0  0  0  0  0  0  0  0  # atno 6909 bound_to 6896
  146.1729  140.4350  142.8525 H   0  0  0  0  0  0  0  0  0  0  0  0  # atno 7974 bound_to 7965
  155.9409  140.1108  157.1056 H   0  0  0  0  0  0  0  0  0  0  0  0  # atno 8008 bound_to 7997
  154.4089  140.1219  156.4991 H   0  0  0  0  0  0  0  0  0  0  0  0  # atno 8009 bound_to 7997
  155.6963  140.3472  155.4917 H   0  0  0  0  0  0  0  0  0  0  0  0  # atno 8010 bound_to 7997
  140.7223  143.3704  151.1789 H   0  0  0  0  0  0  0  0  0  0  0  0  # atno 10167 bound_to 10162
  157.6952  131.0493  150.4100 H   0  0  0  0  0  0  0  0  0  0  0  0  # atno 10718 bound_to 10713
  152.9866  135.6108  154.3074 H   0  0  0  0  0  0  0  0  0  0  0  0  # atno 10763 bound_to 10752
  154.2791  135.2777  155.2707 H   0  0  0  0  0  0  0  0  0  0  0  0  # atno 10764 bound_to 10752
  154.5054  135.5855  153.6620 H   0  0  0  0  0  0  0  0  0  0  0  0  # atno 10765 bound_to 10752
  140.9969  134.0459  157.3586 H   0  0  0  0  0  0  0  0  0  0  0  0  # atno 11005 bound_to 11000
  144.8191  140.6518  143.6365 LP  0  0  0  0  0  0  0  0  0  0  0  0  # atno 17320 bound_to 7965
  145.4291  139.1552  143.4032 LP  0  0  0  0  0  0  0  0  0  0  0  0  # atno 17321 bound_to 7965
  139.7274  143.9126  152.3007 LP  0  0  0  0  0  0  0  0  0  0  0  0  # atno 17342 bound_to 10162
  139.8904  144.6969  150.8777 LP  0  0  0  0  0  0  0  0  0  0  0  0  # atno 17343 bound_to 10162
  156.4485  130.4006  149.6651 LP  0  0  0  0  0  0  0  0  0  0  0  0  # atno 17370 bound_to 10713
  156.3809  130.7578  151.2571 LP  0  0  0  0  0  0  0  0  0  0  0  0  # atno 17371 bound_to 10713
  139.9019  135.0167  156.7308 LP  0  0  0  0  0  0  0  0  0  0  0  0  # atno 17394 bound_to 11000
  140.6952  133.9355  155.7990 LP  0  0  0  0  0  0  0  0  0  0  0  0  # atno 17395 bound_to 11000

$$$$
