AV-unprocessed.smi:3029|AV-procd|sdf|11532|dock6
  -GOLD-   2272016473D 1   1.00000     0.00000
 Structure written by MMmdl.
 41 42  0  0  0  0  0  0  0  0  3 V2000
  151.2823  144.2397  161.1889 O   0  0  0  0  0  0  0  0  0  0  0  0
  152.0781  143.3109  161.0486 C   0  0  0  0  0  0  0  0  0  0  0  0
  152.8305  142.7584  162.1798 C   0  0  0  0  0  0  0  0  0  0  0  0
  153.7067  141.7471  162.0220 C   0  0  0  0  0  0  0  0  0  0  0  0
  153.9336  141.1687  160.7120 C   0  0  0  0  0  0  0  0  0  0  0  0
  154.8769  140.0877  160.5290 N   0  3  0  0  0  0  0  0  0  0  0  0
  155.4524  139.6272  161.5105 O   0  0  0  0  0  0  0  0  0  0  0  0
  155.0730  139.6634  159.3948 O   0  5  0  0  0  0  0  0  0  0  0  0
  153.2392  141.6763  159.6749 C   0  0  0  0  0  0  0  0  0  0  0  0
  152.3218  142.7329  159.8329 N   0  0  0  0  0  0  0  0  0  0  0  0
  151.6476  143.2056  158.6136 C   0  0  0  0  0  0  0  0  0  0  0  0
  151.4810  142.0818  157.5744 C   0  0  0  0  0  0  0  0  0  0  0  0
  150.5059  141.1047  158.0369 N   0  0  0  0  0  0  0  0  0  0  0  0
  149.6312  140.6323  156.9707 C   0  0  1  0  0  0  0  0  0  0  0  0
  148.6708  141.7846  156.5941 C   0  0  0  0  0  0  0  0  0  0  0  0
  147.7935  141.4333  155.3871 C   0  0  0  0  0  0  0  0  0  0  0  0
  148.6607  141.0457  154.1858 C   0  0  0  0  0  0  0  0  0  0  0  0
  149.5839  139.8732  154.5409 C   0  0  0  0  0  0  0  0  0  0  0  0
  150.4922  140.1760  155.7566 C   0  0  2  0  0  0  0  0  0  0  0  0
  151.3866  138.9461  156.0655 C   0  0  0  0  0  0  0  0  0  0  0  0
  152.0661  139.1327  157.1976 F   0  0  0  0  0  0  0  0  0  0  0  0
  150.6287  137.8574  156.1993 F   0  0  0  0  0  0  0  0  0  0  0  0
  152.2538  138.7062  155.0822 F   0  0  0  0  0  0  0  0  0  0  0  0
  152.6777  143.1757  163.1643 H   0  0  0  0  0  0  0  0  0  0  0  0
  154.2379  141.3745  162.8857 H   0  0  0  0  0  0  0  0  0  0  0  0
  153.3377  141.3211  158.6590 H   0  0  0  0  0  0  0  0  0  0  0  0
  150.6605  143.5807  158.8879 H   0  0  0  0  0  0  0  0  0  0  0  0
  152.1535  144.0630  158.1663 H   0  0  0  0  0  0  0  0  0  0  0  0
  151.1703  142.4982  156.6152 H   0  0  0  0  0  0  0  0  0  0  0  0
  152.4408  141.5909  157.4160 H   0  0  0  0  0  0  0  0  0  0  0  0
  150.9609  140.3287  158.4968 H   0  0  0  0  0  0  0  0  0  0  0  0
  149.0531  139.7753  157.3195 H   0  0  0  0  0  0  0  0  0  0  0  0
  148.0259  142.0378  157.4355 H   0  0  0  0  0  0  0  0  0  0  0  0
  149.2438  142.6847  156.3652 H   0  0  0  0  0  0  0  0  0  0  0  0
  147.1260  140.6096  155.6432 H   0  0  0  0  0  0  0  0  0  0  0  0
  147.1574  142.2807  155.1298 H   0  0  0  0  0  0  0  0  0  0  0  0
  148.0261  140.7767  153.3408 H   0  0  0  0  0  0  0  0  0  0  0  0
  149.2567  141.9018  153.8668 H   0  0  0  0  0  0  0  0  0  0  0  0
  148.9771  138.9906  154.7466 H   0  0  0  0  0  0  0  0  0  0  0  0
  150.1920  139.6282  153.6700 H   0  0  0  0  0  0  0  0  0  0  0  0
  151.1474  141.0021  155.4740 H   0  0  0  0  0  0  0  0  0  0  0  0
  1  2  2  0  0  0  0
  2 10  1  0  0  0  0
  2  3  1  0  0  0  0
  3  4  2  0  0  0  0
  3 24  1  0  0  0  0
  4  5  1  0  0  0  0
  4 25  1  0  0  0  0
  5  6  1  0  0  0  0
  5  9  2  0  0  0  0
  6  7  2  0  0  0  0
  6  8  1  0  0  0  0
  9 10  1  0  0  0  0
  9 26  1  0  0  0  0
 10 11  1  0  0  0  0
 11 12  1  0  0  0  0
 11 27  1  0  0  0  0
 11 28  1  0  0  0  0
 12 13  1  0  0  0  0
 12 29  1  0  0  0  0
 12 30  1  0  0  0  0
 13 14  1  0  0  0  0
 13 31  1  0  0  0  0
 14 19  1  0  0  0  0
 14 15  1  0  0  0  0
 14 32  1  0  0  0  0
 15 16  1  0  0  0  0
 15 33  1  0  0  0  0
 15 34  1  0  0  0  0
 16 17  1  0  0  0  0
 16 35  1  0  0  0  0
 16 36  1  0  0  0  0
 17 18  1  0  0  0  0
 17 37  1  0  0  0  0
 17 38  1  0  0  0  0
 18 19  1  0  0  0  0
 18 39  1  0  0  0  0
 18 40  1  0  0  0  0
 19 20  1  0  0  0  0
 19 41  1  0  0  0  0
 20 21  1  0  0  0  0
 20 22  1  0  0  0  0
 20 23  1  0  0  0  0
M  CHG  1   6   1
M  CHG  1   8  -1
M  END
> <s_m_source_file>
AV-unprocessed.smi

> <i_m_source_file_index>
3029

> <i_lp_mmshare_version>
43012

> <i_f3d_flags>
0

> <s_epik_input>
Tz1jMVtjSF1bY0hdYyhbTitdKD1PKVtPLV0pW2NIXW4xW0NIMl1bQ0gyXVtOSF1bQ0BASF0yW0NIMl1bQ0gyXVtDSDJdW0NIMl1bQ0BIXTJDKEYpKEYpRg==

> <s_epik_cmdline>
J2VwaWtfcHl0aG9uJywgJy1waCcsICc3LjAnLCAnLXRuJywgJzgnLCAnLW1hJywgJzIwMCcsICctbWV0YWxfYmluZGluZycsICctaW1hZScsICc8aW5maWxlLm1hZT4nLCAnLW9tYWUnLCAnPG91dGZpbGUubWFlPic=

> <r_lp_tautomer_probability>
1

> <r_epik_Ionization_Penalty>
1.65565

> <r_epik_Ionization_Penalty_Charging>
3.32684e-10

> <r_epik_Ionization_Penalty_Neutral>
1.65565

> <r_epik_State_Penalty>
1.75811

> <r_epik_Charging_Adjusted_Penalty>
1.75811

> <i_epik_Tot_Q>
0

> <i_epik_Tot_abs_Q>
2

> <r_epik_Metal_State_Penalty>
1.75811

> <b_epik_Metal_Only>
0

> <s_lp_Force_Field>
OPLS_2005

> <r_lp_Energy>
36.7279

> <b_lp_Chiralities_Consistent>
1

> <s_lp_Variant>
AV-unprocessed.smi:3029-8

> <Gold.Version>
5.8.1

> <Gold.Id.Protein>
6NUR|6NUR_protein|mol2

> <Gold.PLP.Fitness>
51.2886

> <Gold.PLP.PLP>
-49.9214

> <Gold.PLP.part.hbond>
-1.1888

> <Gold.PLP.part.metal>
0.0000

> <Gold.PLP.part.buried>
-2.1367

> <Gold.PLP.part.nonpolar>
-44.7180

> <Gold.PLP.part.repulsive>
0.1847

> <Gold.PLP.ligand.clash>
0.0000

> <Gold.PLP.ligand.torsion>
0.8486

> <Gold.PLP.Chemscore.Hbond>
1.0000

> <Gold.PLP.Chemscore.CHOScore>
0.0000

> <Gold.PLP.Chemscore.Metal>
0.0000

> <Gold.Chemscore.Hbonds>
donor molecule, donor type, donor heavy atom, donor atom, acceptor molecule, acceptor atom, score
      P1  H  7997  8008       L1     8  0.76

> <Gold.PLP.Chemscore.Internal.Correction>
0.0643

> <Gold.Rescore>
     Score         DG    S(hbond)    S(metal)    S(lipo)     H(rot)  DE(clash)    DE(int)     intcor
     13.65     -15.94       0.93        0.00     103.57       1.86       0.05       2.24       ----

> <Gold.Chemscore.Fitness>
13.6525

> <Gold.Chemscore.DG>
-15.9439

> <Gold.Chemscore.ZeroCoef>
-5.4800

> <Gold.Chemscore.Hbond>
0.9294

> <Gold.Chemscore.Metal>
0.0000

> <Gold.Chemscore.Lipo>
103.5679

> <Gold.Chemscore.Internal_Hbond>
0.0000

> <Gold.Chemscore.DEClash>
0.0498

> <Gold.Chemscore.DEInternal>
2.2416

> <Gold.Chemscore.Rot>
1.8584

> <Gold.Chemscore.Internal.Correction>
   9.000000E+99

> <Gold.Chemscore.Hbonds>
donor molecule, donor type, donor heavy atom, donor atom, acceptor molecule, acceptor atom, score
      P1  H  7997  8008       L1     8  0.71

> <Gold.Chemscore.Hbond.Weighted>
-3.1041

> <Gold.Chemscore.Metal.Weighted>
-0.0000

> <Gold.Chemscore.Lipo.Weighted>
-12.1174

> <Gold.Chemscore.Internal_Hbond.Weighted>
0.0000

> <Gold.Chemscore.DEClash.Weighted>
0.0498

> <Gold.Chemscore.DEInternal.Weighted>
2.2416

> <Gold.Chemscore.Rot.Weighted>
4.7576

> <Gold.Chemscore.Internal.Correction.Weighted>
   9.000000E+99

> <Gold.Protein.RotatedTorsions>
[ 6907 6896 6895 6894 ] final  -32.91 input  -60.11 | X-H torsion
[ 7974 7965 7964 7962 ] final  -91.65 input  175.53 | X-H torsion
[ 8008 7997 7996 7995 ] final -145.24 input   59.86 | X-H torsion
[ 10167 10162 10161 10158 ] final   -8.01 input  -65.29 | X-H torsion
[ 10718 10713 10712 10709 ] final -107.01 input   66.30 | X-H torsion
[ 10763 10752 10751 10750 ] final   51.30 input  -60.55 | X-H torsion
[ 11005 11000 10999 10996 ] final   99.88 input  -57.11 | X-H torsion

> <Gold.Protein.ActiveResidues>
 VAL166  LYS551  ARG553  GLY616  TRP617  ASP618  TYR619  PRO620  LYS621  CYS622 
 ASP623  PHE694  ASN695  SER759  ASP760  ASP761  ALA762  ILE779  LEU786  VAL792 
 PHE793  MET794  SER795  GLU796  ALA797  LYS798  CYS799  TRP800  GLU811  SER814 

> <Gold.Protein.RotatedAtoms>
  151.0725  134.9807  159.8315 H   0  0  0  0  0  0  0  0  0  0  0  0  # atno 6907 bound_to 6896
  152.5410  134.2282  159.8824 H   0  0  0  0  0  0  0  0  0  0  0  0  # atno 6908 bound_to 6896
  151.2307  133.4408  159.2637 H   0  0  0  0  0  0  0  0  0  0  0  0  # atno 6909 bound_to 6896
  145.4103  140.9544  143.2237 H   0  0  0  0  0  0  0  0  0  0  0  0  # atno 7974 bound_to 7965
  155.5400  140.0607  157.2872 H   0  0  0  0  0  0  0  0  0  0  0  0  # atno 8008 bound_to 7997
  154.4455  140.1921  156.0625 H   0  0  0  0  0  0  0  0  0  0  0  0  # atno 8009 bound_to 7997
  156.0592  140.3274  155.7445 H   0  0  0  0  0  0  0  0  0  0  0  0  # atno 8010 bound_to 7997
  140.7046  143.6016  150.8792 H   0  0  0  0  0  0  0  0  0  0  0  0  # atno 10167 bound_to 10162
  156.0416  130.5641  150.7761 H   0  0  0  0  0  0  0  0  0  0  0  0  # atno 10718 bound_to 10713
  152.9785  135.5850  154.4393 H   0  0  0  0  0  0  0  0  0  0  0  0  # atno 10763 bound_to 10752
  154.3996  135.2768  155.2106 H   0  0  0  0  0  0  0  0  0  0  0  0  # atno 10764 bound_to 10752
  154.3943  135.6118  153.5915 H   0  0  0  0  0  0  0  0  0  0  0  0  # atno 10765 bound_to 10752
  139.8770  134.9116  156.4673 H   0  0  0  0  0  0  0  0  0  0  0  0  # atno 11005 bound_to 11000
  144.8313  139.5623  143.6942 LP  0  0  0  0  0  0  0  0  0  0  0  0  # atno 17320 bound_to 7965
  146.2708  139.6630  142.9297 LP  0  0  0  0  0  0  0  0  0  0  0  0  # atno 17321 bound_to 7965
  139.9740  143.6024  152.2964 LP  0  0  0  0  0  0  0  0  0  0  0  0  # atno 17342 bound_to 10162
  139.6622  144.7662  151.1942 LP  0  0  0  0  0  0  0  0  0  0  0  0  # atno 17343 bound_to 10162
  157.5242  131.0933  151.0040 LP  0  0  0  0  0  0  0  0  0  0  0  0  # atno 17370 bound_to 10713
  157.0363  130.5731  149.5350 LP  0  0  0  0  0  0  0  0  0  0  0  0  # atno 17371 bound_to 10713
  140.8821  133.7910  155.9478 LP  0  0  0  0  0  0  0  0  0  0  0  0  # atno 17394 bound_to 11000
  140.8843  134.2573  157.5128 LP  0  0  0  0  0  0  0  0  0  0  0  0  # atno 17395 bound_to 11000

$$$$
