AV-unprocessed.smi:389|AV-procd|sdf|2476|dock1
  -GOLD-   2262022413D 1   1.00000     0.00000
 Structure written by MMmdl.
 34 34  0  0  0  0  0  0  0  0  1 V2000
  152.2063  143.6886  161.6183 C   0  0  0  0  0  0  0  0  0  0  0  0
  152.5490  143.1826  160.2091 C   0  0  0  0  0  0  0  0  0  0  0  0
  152.1453  144.2219  159.1504 C   0  0  0  0  0  0  0  0  0  0  0  0
  151.9033  141.8018  159.9529 C   0  0  0  0  0  0  0  0  0  0  0  0
  152.2873  141.1304  158.6172 C   0  0  0  0  0  0  0  0  0  0  0  0
  151.5991  141.7275  157.4778 N   0  0  0  0  0  0  0  0  0  0  0  0
  150.5629  141.1771  156.8276 C   0  0  0  0  0  0  0  0  0  0  0  0
  150.0295  140.1232  157.1765 O   0  0  0  0  0  0  0  0  0  0  0  0
  150.0490  141.9412  155.5998 C   0  0  0  0  0  0  0  0  0  0  0  0
  149.1501  141.1290  154.7669 N   0  0  0  0  0  0  0  0  0  0  0  0
  147.8275  141.5077  154.5848 C   0  0  0  0  0  0  0  0  0  0  0  0
  146.9452  140.7992  153.8408 C   0  0  0  0  0  0  0  0  0  0  0  0
  147.3591  139.5676  153.1773 C   0  0  0  0  0  0  0  0  0  0  0  0
  146.6346  138.8581  152.4828 O   0  0  0  0  0  0  0  0  0  0  0  0
  148.6963  139.2191  153.3856 N   0  0  0  0  0  0  0  0  0  0  0  0
  149.6108  139.9439  154.1513 C   0  0  0  0  0  0  0  0  0  0  0  0
  150.7690  139.5454  154.2728 O   0  0  0  0  0  0  0  0  0  0  0  0
  149.0275  138.3717  152.9477 H   0  0  0  0  0  0  0  0  0  0  0  0
  151.1313  143.8247  161.7406 H   0  0  0  0  0  0  0  0  0  0  0  0
  152.6887  144.6454  161.8206 H   0  0  0  0  0  0  0  0  0  0  0  0
  152.5427  142.9859  162.3813 H   0  0  0  0  0  0  0  0  0  0  0  0
  153.6333  143.0730  160.1725 H   0  0  0  0  0  0  0  0  0  0  0  0
  151.0638  144.3570  159.1202 H   0  0  0  0  0  0  0  0  0  0  0  0
  152.4740  143.9282  158.1538 H   0  0  0  0  0  0  0  0  0  0  0  0
  152.5947  145.1921  159.3632 H   0  0  0  0  0  0  0  0  0  0  0  0
  152.1757  141.1285  160.7669 H   0  0  0  0  0  0  0  0  0  0  0  0
  150.8179  141.8946  160.0033 H   0  0  0  0  0  0  0  0  0  0  0  0
  153.3665  141.1890  158.4677 H   0  0  0  0  0  0  0  0  0  0  0  0
  152.0460  140.0680  158.6441 H   0  0  0  0  0  0  0  0  0  0  0  0
  151.9674  142.6007  157.1294 H   0  0  0  0  0  0  0  0  0  0  0  0
  149.5409  142.8408  155.9500 H   0  0  0  0  0  0  0  0  0  0  0  0
  150.8877  142.2973  154.9977 H   0  0  0  0  0  0  0  0  0  0  0  0
  147.4741  142.4114  155.0606 H   0  0  0  0  0  0  0  0  0  0  0  0
  145.9269  141.1451  153.7373 H   0  0  0  0  0  0  0  0  0  0  0  0
  1  2  1  0  0  0  0
  1 19  1  0  0  0  0
  1 20  1  0  0  0  0
  1 21  1  0  0  0  0
  2  3  1  0  0  0  0
  2  4  1  0  0  0  0
  2 22  1  0  0  0  0
  3 23  1  0  0  0  0
  3 24  1  0  0  0  0
  3 25  1  0  0  0  0
  4  5  1  0  0  0  0
  4 26  1  0  0  0  0
  4 27  1  0  0  0  0
  5  6  1  0  0  0  0
  5 28  1  0  0  0  0
  5 29  1  0  0  0  0
  6  7  1  0  0  0  0
  6 30  1  0  0  0  0
  7  8  2  0  0  0  0
  7  9  1  0  0  0  0
  9 10  1  0  0  0  0
  9 31  1  0  0  0  0
  9 32  1  0  0  0  0
 10 16  1  0  0  0  0
 10 11  1  0  0  0  0
 11 12  2  0  0  0  0
 11 33  1  0  0  0  0
 12 13  1  0  0  0  0
 12 34  1  0  0  0  0
 13 14  2  0  0  0  0
 13 15  1  0  0  0  0
 15 18  1  0  0  0  0
 15 16  1  0  0  0  0
 16 17  2  0  0  0  0
M  END
> <s_m_source_file>
AV-unprocessed.smi

> <i_m_source_file_index>
389

> <i_lp_mmshare_version>
43012

> <i_f3d_flags>
0

> <s_epik_input>
W0NIM11bQ0hdKFtDSDNdKVtDSDJdW0NIMl1bTkhdQyg9TylbQ0gyXW4xW2NIXVtjSF1jKD1PKVtuSF1jMT1P

> <s_epik_cmdline>
J2VwaWtfcHl0aG9uJywgJy1waCcsICc3LjAnLCAnLXRuJywgJzgnLCAnLW1hJywgJzIwMCcsICctbWV0YWxfYmluZGluZycsICctaW1hZScsICc8aW5maWxlLm1hZT4nLCAnLW9tYWUnLCAnPG91dGZpbGUubWFlPic=

> <r_lp_tautomer_probability>
0.999537

> <r_epik_Ionization_Penalty>
0.00305319

> <r_epik_Ionization_Penalty_Charging>
0.00305317

> <r_epik_Ionization_Penalty_Neutral>
2.06703e-08

> <r_epik_State_Penalty>
0.00214626

> <r_epik_Charging_Adjusted_Penalty>
0.00519944

> <i_epik_Tot_Q>
0

> <i_epik_Tot_abs_Q>
0

> <r_epik_Metal_State_Penalty>
0.361976

> <b_epik_Metal_Only>
0

> <s_lp_Force_Field>
OPLS_2005

> <r_lp_Energy>
4.98151

> <b_lp_Chiralities_Consistent>
1

> <s_lp_Variant>
AV-unprocessed.smi:389-1

> <Gold.Version>
5.8.1

> <Gold.Id.Protein>
6NUR|6NUR_protein|mol2

> <Gold.PLP.Fitness>
39.4844

> <Gold.PLP.PLP>
-34.4186

> <Gold.PLP.part.hbond>
-2.0000

> <Gold.PLP.part.metal>
0.0000

> <Gold.PLP.part.buried>
-1.0940

> <Gold.PLP.part.nonpolar>
-30.9661

> <Gold.PLP.part.repulsive>
0.6046

> <Gold.PLP.ligand.clash>
0.0000

> <Gold.PLP.ligand.torsion>
0.3483

> <Gold.PLP.Chemscore.Hbond>
0.8812

> <Gold.PLP.Chemscore.CHOScore>
0.9997

> <Gold.PLP.Chemscore.Metal>
0.0000

> <Gold.Chemscore.Hbonds>
donor molecule, donor type, donor heavy atom, donor atom, acceptor molecule, acceptor atom, score
      L1  H    15    18       P1  7948  0.16
      P1  H  7989  7998       L1    17  1.00
      L1  C    11    33       P1  8028  0.47

> <Gold.PLP.Chemscore.Internal.Correction>
0.1193

> <Gold.Rescore>
     Score         DG    S(hbond)    S(metal)    S(lipo)     H(rot)  DE(clash)    DE(int)     intcor
     10.09     -11.54       1.00        0.00      72.35       2.24       0.24       1.21       ----

> <Gold.Chemscore.Fitness>
10.0898

> <Gold.Chemscore.DG>
-11.5407

> <Gold.Chemscore.ZeroCoef>
-5.4800

> <Gold.Chemscore.Hbond>
0.9980

> <Gold.Chemscore.Metal>
0.0000

> <Gold.Chemscore.Lipo>
72.3530

> <Gold.Chemscore.Internal_Hbond>
0.0000

> <Gold.Chemscore.DEClash>
0.2436

> <Gold.Chemscore.DEInternal>
1.2073

> <Gold.Chemscore.Rot>
2.2414

> <Gold.Chemscore.Internal.Correction>
   9.000000E+99

> <Gold.Chemscore.Hbonds>
donor molecule, donor type, donor heavy atom, donor atom, acceptor molecule, acceptor atom, score
      L1  H    15    18       P1  7948  0.17
      P1  H  7989  7998       L1    17  0.26

> <Gold.Chemscore.Hbond.Weighted>
-3.3334

> <Gold.Chemscore.Metal.Weighted>
-0.0000

> <Gold.Chemscore.Lipo.Weighted>
-8.4653

> <Gold.Chemscore.Internal_Hbond.Weighted>
0.0000

> <Gold.Chemscore.DEClash.Weighted>
0.2436

> <Gold.Chemscore.DEInternal.Weighted>
1.2073

> <Gold.Chemscore.Rot.Weighted>
5.7380

> <Gold.Chemscore.Internal.Correction.Weighted>
   9.000000E+99

> <Gold.Protein.RotatedTorsions>
[ 6907 6896 6895 6894 ] final   -9.40 input  -60.11 | X-H torsion
[ 7974 7965 7964 7962 ] final  162.54 input  175.53 | X-H torsion
[ 8008 7997 7996 7995 ] final  -38.18 input   59.86 | X-H torsion
[ 10167 10162 10161 10158 ] final  -91.45 input  -65.29 | X-H torsion
[ 10718 10713 10712 10709 ] final  -50.03 input   66.30 | X-H torsion
[ 10763 10752 10751 10750 ] final  149.59 input  -60.55 | X-H torsion
[ 11005 11000 10999 10996 ] final -105.98 input  -57.11 | X-H torsion

> <Gold.Protein.ActiveResidues>
 VAL166  LYS551  ARG553  GLY616  TRP617  ASP618  TYR619  PRO620  LYS621  CYS622 
 ASP623  PHE694  ASN695  SER759  ASP760  ASP761  ALA762  ILE779  LEU786  VAL792 
 PHE793  MET794  SER795  GLU796  ALA797  LYS798  CYS799  TRP800  GLU811  SER814 

> <Gold.Protein.RotatedAtoms>
  151.4183  135.0994  159.9605 H   0  0  0  0  0  0  0  0  0  0  0  0  # atno 6907 bound_to 6896
  152.4997  133.8731  159.7319 H   0  0  0  0  0  0  0  0  0  0  0  0  # atno 6908 bound_to 6896
  150.9242  133.6787  159.2853 H   0  0  0  0  0  0  0  0  0  0  0  0  # atno 6909 bound_to 6896
  144.7632  139.8054  143.6325 H   0  0  0  0  0  0  0  0  0  0  0  0  # atno 7974 bound_to 7965
  154.4041  140.1584  156.2658 H   0  0  0  0  0  0  0  0  0  0  0  0  # atno 8008 bound_to 7997
  155.8996  140.3434  155.5994 H   0  0  0  0  0  0  0  0  0  0  0  0  # atno 8009 bound_to 7997
  155.7463  140.0799  157.2213 H   0  0  0  0  0  0  0  0  0  0  0  0  # atno 8010 bound_to 7997
  140.3448  143.2923  151.9794 H   0  0  0  0  0  0  0  0  0  0  0  0  # atno 10167 bound_to 10162
  156.1838  130.4151  149.9469 H   0  0  0  0  0  0  0  0  0  0  0  0  # atno 10718 bound_to 10713
  154.0736  135.2865  155.3303 H   0  0  0  0  0  0  0  0  0  0  0  0  # atno 10763 bound_to 10752
  154.6730  135.5292  153.8166 H   0  0  0  0  0  0  0  0  0  0  0  0  # atno 10764 bound_to 10752
  153.0476  135.6562  154.0916 H   0  0  0  0  0  0  0  0  0  0  0  0  # atno 10765 bound_to 10752
  141.1027  133.8854  157.1800 H   0  0  0  0  0  0  0  0  0  0  0  0  # atno 11005 bound_to 11000
  146.1715  139.4867  142.9925 LP  0  0  0  0  0  0  0  0  0  0  0  0  # atno 17320 bound_to 7965
  145.6553  141.0253  143.1738 LP  0  0  0  0  0  0  0  0  0  0  0  0  # atno 17321 bound_to 7965
  139.4835  144.6126  151.7405 LP  0  0  0  0  0  0  0  0  0  0  0  0  # atno 17342 bound_to 10162
  140.5275  144.0782  150.6042 LP  0  0  0  0  0  0  0  0  0  0  0  0  # atno 17343 bound_to 10162
  156.7231  130.9014  151.3620 LP  0  0  0  0  0  0  0  0  0  0  0  0  # atno 17370 bound_to 10713
  157.6885  130.9210  150.0451 LP  0  0  0  0  0  0  0  0  0  0  0  0  # atno 17371 bound_to 10713
  139.9885  135.0073  156.9919 LP  0  0  0  0  0  0  0  0  0  0  0  0  # atno 17394 bound_to 11000
  140.4981  134.1125  155.7245 LP  0  0  0  0  0  0  0  0  0  0  0  0  # atno 17395 bound_to 11000

$$$$
