AV-unprocessed.smi:1762|AV-procd|sdf|7117|dock1
  -GOLD-   22720 8343D 1   1.00000     0.00000
 Structure written by MMmdl.
 53 54  0  0  0  0  0  0  0  0  2 V2000
  145.9784  132.2941  150.8445 C   0  0  0  0  0  0  0  0  0  0  0  0
  146.5564  133.4023  151.7317 C   0  0  2  0  0  0  0  0  0  0  0  0
  147.8221  132.9465  152.4797 C   0  0  0  0  0  0  0  0  0  0  0  0
  148.3351  134.0223  153.3764 N   0  3  2  0  0  0  0  0  0  0  0  0
  149.6286  133.6564  154.0509 C   0  0  1  0  0  0  0  0  0  0  0  0
  150.1000  134.7838  154.9951 C   0  0  0  0  0  0  0  0  0  0  0  0
  149.9921  134.6549  156.2153 O   0  0  0  0  0  0  0  0  0  0  0  0
  150.6189  135.8776  154.4169 N   0  0  0  0  0  0  0  0  0  0  0  0
  151.1267  137.0383  155.1364 C   0  0  0  0  0  0  0  0  0  0  0  0
  150.8789  138.3209  154.3305 C   0  0  0  0  0  0  0  0  0  0  0  0
  150.7809  139.5478  155.2179 C   0  0  0  0  0  0  0  0  0  0  0  0
  151.6761  139.7336  156.2929 C   0  0  0  0  0  0  0  0  0  0  0  0
  151.5474  140.8943  157.0801 C   0  0  0  0  0  0  0  0  0  0  0  0
  150.5349  141.8199  156.7630 C   0  0  0  0  0  0  0  0  0  0  0  0
  149.6917  141.5424  155.6687 C   0  0  0  0  0  0  0  0  0  0  0  0
  149.8061  140.4323  154.9080 N   0  0  0  0  0  0  0  0  0  0  0  0
  149.5980  132.2829  154.8041 C   0  0  0  0  0  0  0  0  0  0  0  0
  148.4603  132.1602  155.8395 C   0  0  0  0  0  0  0  0  0  0  0  0
  150.9459  131.9136  155.4547 C   0  0  0  0  0  0  0  0  0  0  0  0
  147.2395  134.4496  154.2907 C   0  0  0  0  0  0  0  0  0  0  0  0
  145.9795  134.8519  153.5003 C   0  0  2  0  0  0  0  0  0  0  0  0
  144.8135  135.2216  154.4239 C   0  0  0  0  0  0  0  0  0  0  0  0
  145.5667  133.7643  152.6845 O   0  0  0  0  0  0  0  0  0  0  0  0
  146.6974  131.9817  150.0865 H   0  0  0  0  0  0  0  0  0  0  0  0
  145.0810  132.6366  150.3286 H   0  0  0  0  0  0  0  0  0  0  0  0
  145.7095  131.4163  151.4329 H   0  0  0  0  0  0  0  0  0  0  0  0
  146.7893  134.2635  151.1028 H   0  0  0  0  0  0  0  0  0  0  0  0
  147.6055  132.0558  153.0719 H   0  0  0  0  0  0  0  0  0  0  0  0
  148.5681  132.6564  151.7403 H   0  0  0  0  0  0  0  0  0  0  0  0
  150.3693  133.5636  153.2540 H   0  0  0  0  0  0  0  0  0  0  0  0
  150.6758  135.9044  153.4090 H   0  0  0  0  0  0  0  0  0  0  0  0
  150.6278  137.0979  156.1047 H   0  0  0  0  0  0  0  0  0  0  0  0
  152.1952  136.9279  155.3305 H   0  0  0  0  0  0  0  0  0  0  0  0
  151.6848  138.4702  153.6101 H   0  0  0  0  0  0  0  0  0  0  0  0
  149.9611  138.2249  153.7489 H   0  0  0  0  0  0  0  0  0  0  0  0
  152.4445  139.0064  156.5109 H   0  0  0  0  0  0  0  0  0  0  0  0
  152.2141  141.0717  157.9108 H   0  0  0  0  0  0  0  0  0  0  0  0
  150.4073  142.7213  157.3444 H   0  0  0  0  0  0  0  0  0  0  0  0
  148.9054  142.2309  155.3967 H   0  0  0  0  0  0  0  0  0  0  0  0
  149.4503  131.4997  154.0622 H   0  0  0  0  0  0  0  0  0  0  0  0
  148.6099  132.8324  156.6848 H   0  0  0  0  0  0  0  0  0  0  0  0
  148.4086  131.1468  156.2389 H   0  0  0  0  0  0  0  0  0  0  0  0
  147.4860  132.3873  155.4077 H   0  0  0  0  0  0  0  0  0  0  0  0
  151.1809  132.5519  156.3067 H   0  0  0  0  0  0  0  0  0  0  0  0
  151.7646  131.9937  154.7390 H   0  0  0  0  0  0  0  0  0  0  0  0
  150.9319  130.8858  155.8185 H   0  0  0  0  0  0  0  0  0  0  0  0
  147.0113  133.6408  154.9869 H   0  0  0  0  0  0  0  0  0  0  0  0
  147.5319  135.3143  154.8827 H   0  0  0  0  0  0  0  0  0  0  0  0
  146.2037  135.7122  152.8669 H   0  0  0  0  0  0  0  0  0  0  0  0
  145.0739  136.0606  155.0695 H   0  0  0  0  0  0  0  0  0  0  0  0
  144.5333  134.3827  155.0619 H   0  0  0  0  0  0  0  0  0  0  0  0
  143.9345  135.5088  153.8464 H   0  0  0  0  0  0  0  0  0  0  0  0
  148.5432  134.8174  152.7886 H   0  0  0  0  0  0  0  0  0  0  0  0
  1  2  1  0  0  0  0
  1 24  1  0  0  0  0
  1 25  1  0  0  0  0
  1 26  1  0  0  0  0
  2 23  1  0  0  0  0
  2  3  1  0  0  0  0
  2 27  1  0  0  0  0
  3  4  1  0  0  0  0
  3 28  1  0  0  0  0
  3 29  1  0  0  0  0
  4  5  1  0  0  0  0
  4 20  1  0  0  0  0
  4 53  1  0  0  0  0
  5  6  1  0  0  0  0
  5 17  1  0  0  0  0
  5 30  1  0  0  0  0
  6  7  2  0  0  0  0
  6  8  1  0  0  0  0
  8  9  1  0  0  0  0
  8 31  1  0  0  0  0
  9 10  1  0  0  0  0
  9 32  1  0  0  0  0
  9 33  1  0  0  0  0
 10 11  1  0  0  0  0
 10 34  1  0  0  0  0
 10 35  1  0  0  0  0
 11 16  1  0  0  0  0
 11 12  2  0  0  0  0
 12 13  1  0  0  0  0
 12 36  1  0  0  0  0
 13 14  2  0  0  0  0
 13 37  1  0  0  0  0
 14 15  1  0  0  0  0
 14 38  1  0  0  0  0
 15 16  2  0  0  0  0
 15 39  1  0  0  0  0
 17 18  1  0  0  0  0
 17 19  1  0  0  0  0
 17 40  1  0  0  0  0
 18 41  1  0  0  0  0
 18 42  1  0  0  0  0
 18 43  1  0  0  0  0
 19 44  1  0  0  0  0
 19 45  1  0  0  0  0
 19 46  1  0  0  0  0
 20 21  1  0  0  0  0
 20 47  1  0  0  0  0
 20 48  1  0  0  0  0
 21 22  1  0  0  0  0
 21 23  1  0  0  0  0
 21 49  1  0  0  0  0
 22 50  1  0  0  0  0
 22 51  1  0  0  0  0
 22 52  1  0  0  0  0
M  CHG  1   4   1
M  END
> <s_m_source_file>
AV-unprocessed.smi

> <i_m_source_file_index>
1762

> <i_lp_mmshare_version>
43012

> <i_f3d_flags>
0

> <s_epik_input>
W0NIM11bQ0BASF0xW0NIMl1OKFtDSDJdW0NASF0oTzEpW0NIM10pW0NAQEhdKFtDSF0oW0NIM10pW0NIM10pQyg9TylbTkhdW0NIMl1bQ0gyXWMyW2NIXVtjSF1bY0hdW2NIXW4y

> <s_epik_cmdline>
J2VwaWtfcHl0aG9uJywgJy1waCcsICc3LjAnLCAnLXRuJywgJzgnLCAnLW1hJywgJzIwMCcsICctbWV0YWxfYmluZGluZycsICctaW1hZScsICc8aW5maWxlLm1hZT4nLCAnLW9tYWUnLCAnPG91dGZpbGUubWFlPic=

> <r_epik_Ionization_Penalty>
2.27005

> <r_epik_Ionization_Penalty_Charging>
2.24983

> <r_epik_Ionization_Penalty_Neutral>
0.0202209

> <r_epik_State_Penalty>
2.40228

> <r_epik_Charging_Adjusted_Penalty>
4.65211

> <i_epik_Tot_Q>
1

> <i_epik_Tot_abs_Q>
1

> <r_epik_Metal_State_Penalty>
2.40762

> <b_epik_Metal_Only>
0

> <s_lp_Force_Field>
OPLS_2005

> <r_lp_Energy>
21.958

> <b_lp_Chiralities_Consistent>
1

> <s_lp_Variant>
AV-unprocessed.smi:1762-19

> <Gold.Version>
5.8.1

> <Gold.Id.Protein>
6NUR|6NUR_protein|mol2

> <Gold.PLP.Fitness>
48.3421

> <Gold.PLP.PLP>
-39.6304

> <Gold.PLP.part.hbond>
-3.9860

> <Gold.PLP.part.metal>
0.0000

> <Gold.PLP.part.buried>
-3.0208

> <Gold.PLP.part.nonpolar>
-32.0656

> <Gold.PLP.part.repulsive>
0.2949

> <Gold.PLP.ligand.clash>
0.0000

> <Gold.PLP.ligand.torsion>
1.2004

> <Gold.PLP.Chemscore.Hbond>
2.5500

> <Gold.PLP.Chemscore.CHOScore>
0.9960

> <Gold.PLP.Chemscore.Metal>
0.0000

> <Gold.Chemscore.Hbonds>
donor molecule, donor type, donor heavy atom, donor atom, acceptor molecule, acceptor atom, score
      L1  H     4    53       P1  7948  2.00
      L1  H     8    31       P1  7949  0.40
      L1  C    15    39       P1  8028  0.97

> <Gold.PLP.Chemscore.Internal.Correction>
0.4745

> <Gold.Rescore>
     Score         DG    S(hbond)    S(metal)    S(lipo)     H(rot)  DE(clash)    DE(int)     intcor
     10.67     -15.08       0.87        0.00      93.60       1.66       0.04       4.36       ----

> <Gold.Chemscore.Fitness>
10.6708

> <Gold.Chemscore.DG>
-15.0800

> <Gold.Chemscore.ZeroCoef>
-5.4800

> <Gold.Chemscore.Hbond>
0.8704

> <Gold.Chemscore.Metal>
0.0000

> <Gold.Chemscore.Lipo>
93.6022

> <Gold.Chemscore.Internal_Hbond>
0.0000

> <Gold.Chemscore.DEClash>
0.0450

> <Gold.Chemscore.DEInternal>
4.3642

> <Gold.Chemscore.Rot>
1.6635

> <Gold.Chemscore.Internal.Correction>
   9.000000E+99

> <Gold.Chemscore.Hbonds>
donor molecule, donor type, donor heavy atom, donor atom, acceptor molecule, acceptor atom, score
      L1  H     4    53       P1  7948  0.30
      L1  H     8    31       P1  7949  0.01

> <Gold.Chemscore.Hbond.Weighted>
-2.9071

> <Gold.Chemscore.Metal.Weighted>
-0.0000

> <Gold.Chemscore.Lipo.Weighted>
-10.9515

> <Gold.Chemscore.Internal_Hbond.Weighted>
0.0000

> <Gold.Chemscore.DEClash.Weighted>
0.0450

> <Gold.Chemscore.DEInternal.Weighted>
4.3642

> <Gold.Chemscore.Rot.Weighted>
4.2586

> <Gold.Chemscore.Internal.Correction.Weighted>
   9.000000E+99

> <Gold.Protein.RotatedTorsions>
[ 6907 6896 6895 6894 ] final  165.27 input  -60.11 | X-H torsion
[ 7974 7965 7964 7962 ] final -154.53 input  175.53 | X-H torsion
[ 8008 7997 7996 7995 ] final   97.26 input   59.86 | X-H torsion
[ 10167 10162 10161 10158 ] final   29.22 input  -65.29 | X-H torsion
[ 10718 10713 10712 10709 ] final  168.39 input   66.30 | X-H torsion
[ 10763 10752 10751 10750 ] final  -50.50 input  -60.55 | X-H torsion
[ 11005 11000 10999 10996 ] final  -20.16 input  -57.11 | X-H torsion

> <Gold.Protein.ActiveResidues>
 VAL166  LYS551  ARG553  GLY616  TRP617  ASP618  TYR619  PRO620  LYS621  CYS622 
 ASP623  PHE694  ASN695  SER759  ASP760  ASP761  ALA762  ILE779  LEU786  VAL792 
 PHE793  MET794  SER795  GLU796  ALA797  LYS798  CYS799  TRP800  GLU811  SER814 

> <Gold.Protein.RotatedAtoms>
  151.8970  133.3529  159.3817 H   0  0  0  0  0  0  0  0  0  0  0  0  # atno 6907 bound_to 6896
  150.7089  134.4866  159.5505 H   0  0  0  0  0  0  0  0  0  0  0  0  # atno 6908 bound_to 6896
  152.2447  134.8193  160.0506 H   0  0  0  0  0  0  0  0  0  0  0  0  # atno 6909 bound_to 6896
  144.7685  140.4375  143.5924 H   0  0  0  0  0  0  0  0  0  0  0  0  # atno 7974 bound_to 7965
  156.0882  140.3261  155.7782 H   0  0  0  0  0  0  0  0  0  0  0  0  # atno 8008 bound_to 7997
  155.5040  140.0571  157.2952 H   0  0  0  0  0  0  0  0  0  0  0  0  # atno 8009 bound_to 7997
  154.4622  140.1972  156.0230 H   0  0  0  0  0  0  0  0  0  0  0  0  # atno 8010 bound_to 7997
  140.4785  144.0653  150.6258 H   0  0  0  0  0  0  0  0  0  0  0  0  # atno 10167 bound_to 10162
  157.0378  131.0278  151.2723 H   0  0  0  0  0  0  0  0  0  0  0  0  # atno 10718 bound_to 10713
  154.1114  135.6548  153.4886 H   0  0  0  0  0  0  0  0  0  0  0  0  # atno 10763 bound_to 10752
  153.0255  135.5248  154.7188 H   0  0  0  0  0  0  0  0  0  0  0  0  # atno 10764 bound_to 10752
  154.6369  135.2983  155.0120 H   0  0  0  0  0  0  0  0  0  0  0  0  # atno 10765 bound_to 10752
  140.8437  133.7907  155.9889 H   0  0  0  0  0  0  0  0  0  0  0  0  # atno 11005 bound_to 11000
  145.6396  139.1548  143.2923 LP  0  0  0  0  0  0  0  0  0  0  0  0  # atno 17320 bound_to 7965
  146.1812  140.6494  142.9188 LP  0  0  0  0  0  0  0  0  0  0  0  0  # atno 17321 bound_to 7965
  140.3888  143.2763  152.0085 LP  0  0  0  0  0  0  0  0  0  0  0  0  # atno 17342 bound_to 10162
  139.4829  144.6094  151.7461 LP  0  0  0  0  0  0  0  0  0  0  0  0  # atno 17343 bound_to 10162
  157.5128  130.7949  149.7723 LP  0  0  0  0  0  0  0  0  0  0  0  0  # atno 17370 bound_to 10713
  156.0048  130.3861  150.2472 LP  0  0  0  0  0  0  0  0  0  0  0  0  # atno 17371 bound_to 10713
  140.8867  134.2546  157.5116 LP  0  0  0  0  0  0  0  0  0  0  0  0  # atno 17394 bound_to 11000
  139.8703  134.9641  156.4485 LP  0  0  0  0  0  0  0  0  0  0  0  0  # atno 17395 bound_to 11000

$$$$
