AV-unprocessed.smi:688|AV-procd|sdf|3354|dock2
  -GOLD-   22720 0323D 1   1.00000     0.00000
 Structure written by MMmdl.
 36 37  0  0  0  0  0  0  0  0  1 V2000
  151.3639  133.9892  157.2504 O   0  0  0  0  0  0  0  0  0  0  0  0
  151.1753  134.9558  156.5145 C   0  0  0  0  0  0  0  0  0  0  0  0
  151.9713  136.0977  156.6478 N   0  0  0  0  0  0  0  0  0  0  0  0
  151.8630  137.2574  155.8795 C   0  0  0  0  0  0  0  0  0  0  0  0
  152.6144  138.2090  156.0938 O   0  0  0  0  0  0  0  0  0  0  0  0
  150.8659  137.2661  154.8768 N   0  0  0  0  0  0  0  0  0  0  0  0
  150.7220  138.4559  154.0723 C   0  0  0  0  0  0  0  0  0  0  0  0
  149.8767  139.5565  154.7519 C   0  0  2  0  0  0  0  0  0  0  0  0
  149.8015  140.6566  153.8658 O   0  0  0  0  0  0  0  0  0  0  0  0
  150.5335  140.0583  156.0488 C   0  0  0  0  0  0  0  0  0  0  0  0
  149.9857  141.3209  156.3911 O   0  0  0  0  0  0  0  0  0  0  0  0
  150.9684  142.3401  156.4849 C   0  0  0  0  0  0  0  0  0  0  0  0
  151.5165  142.4815  157.8927 C   0  0  0  0  0  0  0  0  0  0  0  0
  152.0329  141.3600  158.5770 C   0  0  0  0  0  0  0  0  0  0  0  0
  152.5242  141.4953  159.8901 C   0  0  0  0  0  0  0  0  0  0  0  0
  152.4947  142.7506  160.5281 C   0  0  0  0  0  0  0  0  0  0  0  0
  153.0964  142.9166  162.1367 Cl  0  0  0  0  0  0  0  0  0  0  0  0
  151.9706  143.8701  159.8529 C   0  0  0  0  0  0  0  0  0  0  0  0
  151.4798  143.7349  158.5395 C   0  0  0  0  0  0  0  0  0  0  0  0
  150.0480  136.1587  154.7145 C   0  0  0  0  0  0  0  0  0  0  0  0
  150.1569  135.0379  155.4680 C   0  0  0  0  0  0  0  0  0  0  0  0
  149.0988  133.6979  155.2053 Cl  0  0  0  0  0  0  0  0  0  0  0  0
  152.6831  136.0829  157.3638 H   0  0  0  0  0  0  0  0  0  0  0  0
  151.7335  138.7969  153.8406 H   0  0  0  0  0  0  0  0  0  0  0  0
  150.2935  138.1429  153.1182 H   0  0  0  0  0  0  0  0  0  0  0  0
  148.8735  139.1884  154.9714 H   0  0  0  0  0  0  0  0  0  0  0  0
  149.9833  140.3506  152.9906 H   0  0  0  0  0  0  0  0  0  0  0  0
  150.3167  139.3660  156.8638 H   0  0  0  0  0  0  0  0  0  0  0  0
  151.6194  140.1069  155.9483 H   0  0  0  0  0  0  0  0  0  0  0  0
  151.7888  142.1217  155.7992 H   0  0  0  0  0  0  0  0  0  0  0  0
  150.5407  143.2985  156.1869 H   0  0  0  0  0  0  0  0  0  0  0  0
  152.0551  140.3917  158.0984 H   0  0  0  0  0  0  0  0  0  0  0  0
  152.9222  140.6344  160.4072 H   0  0  0  0  0  0  0  0  0  0  0  0
  151.9430  144.8333  160.3408 H   0  0  0  0  0  0  0  0  0  0  0  0
  151.0761  144.5975  158.0300 H   0  0  0  0  0  0  0  0  0  0  0  0
  149.2823  136.1880  153.9522 H   0  0  0  0  0  0  0  0  0  0  0  0
  1  2  2  0  0  0  0
  2 21  1  0  0  0  0
  2  3  1  0  0  0  0
  3 23  1  0  0  0  0
  3  4  1  0  0  0  0
  4  5  2  0  0  0  0
  4  6  1  0  0  0  0
  6  7  1  0  0  0  0
  6 20  1  0  0  0  0
  7  8  1  0  0  0  0
  7 24  1  0  0  0  0
  7 25  1  0  0  0  0
  8  9  1  0  0  0  0
  8 10  1  0  0  0  0
  8 26  1  0  0  0  0
  9 27  1  0  0  0  0
 10 11  1  0  0  0  0
 10 28  1  0  0  0  0
 10 29  1  0  0  0  0
 11 12  1  0  0  0  0
 12 13  1  0  0  0  0
 12 30  1  0  0  0  0
 12 31  1  0  0  0  0
 13 19  1  0  0  0  0
 13 14  2  0  0  0  0
 14 15  1  0  0  0  0
 14 32  1  0  0  0  0
 15 16  2  0  0  0  0
 15 33  1  0  0  0  0
 16 17  1  0  0  0  0
 16 18  1  0  0  0  0
 18 19  2  0  0  0  0
 18 34  1  0  0  0  0
 19 35  1  0  0  0  0
 20 21  2  0  0  0  0
 20 36  1  0  0  0  0
 21 22  1  0  0  0  0
M  END
> <s_m_source_file>
AV-unprocessed.smi

> <i_m_source_file_index>
688

> <i_lp_mmshare_version>
43012

> <i_f3d_flags>
0

> <s_epik_input>
Tz1jMVtuSF1jKD1PKW4oW2NIXWMxQ2wpW0NIMl1bQ0BIXShbT0hdKVtDSDJdT1tDSDJdYzJbY0hdW2NIXWMoQ2wpW2NIXVtjSF0y

> <s_epik_cmdline>
J2VwaWtfcHl0aG9uJywgJy1waCcsICc3LjAnLCAnLXRuJywgJzgnLCAnLW1hJywgJzIwMCcsICctbWV0YWxfYmluZGluZycsICctaW1hZScsICc8aW5maWxlLm1hZT4nLCAnLW9tYWUnLCAnPG91dGZpbGUubWFlPic=

> <r_lp_tautomer_probability>
0.999537

> <r_epik_Ionization_Penalty>
0.0280571

> <r_epik_Ionization_Penalty_Charging>
0.028057

> <r_epik_Ionization_Penalty_Neutral>
6.25502e-08

> <r_epik_State_Penalty>
0.0230008

> <r_epik_Charging_Adjusted_Penalty>
0.0510579

> <i_epik_Tot_Q>
0

> <i_epik_Tot_abs_Q>
0

> <r_epik_Metal_State_Penalty>
2.1942

> <b_epik_Metal_Only>
0

> <s_lp_Force_Field>
OPLS_2005

> <r_lp_Energy>
17.1949

> <b_lp_Chiralities_Consistent>
1

> <s_lp_Variant>
AV-unprocessed.smi:688-1

> <Gold.Version>
5.8.1

> <Gold.Id.Protein>
6NUR|6NUR_protein|mol2

> <Gold.PLP.Fitness>
48.5167

> <Gold.PLP.PLP>
-43.1230

> <Gold.PLP.part.hbond>
-3.2991

> <Gold.PLP.part.metal>
0.0000

> <Gold.PLP.part.buried>
-4.9033

> <Gold.PLP.part.nonpolar>
-35.4492

> <Gold.PLP.part.repulsive>
0.2338

> <Gold.PLP.ligand.clash>
0.0000

> <Gold.PLP.ligand.torsion>
1.0961

> <Gold.PLP.Chemscore.Hbond>
1.4800

> <Gold.PLP.Chemscore.CHOScore>
1.0000

> <Gold.PLP.Chemscore.Metal>
0.0000

> <Gold.Chemscore.Hbonds>
donor molecule, donor type, donor heavy atom, donor atom, acceptor molecule, acceptor atom, score
      L1  H     9    27       P1  7957  1.00
      P1  H  6896  6908       L1     1  0.38
      L1  C    20    36       P1  7948  1.00

> <Gold.PLP.Chemscore.Internal.Correction>
0.1459

> <Gold.Rescore>
     Score         DG    S(hbond)    S(metal)    S(lipo)     H(rot)  DE(clash)    DE(int)     intcor
     13.95     -16.87       1.63        0.00     115.12       2.94       0.49       2.43       ----

> <Gold.Chemscore.Fitness>
13.9502

> <Gold.Chemscore.DG>
-16.8676

> <Gold.Chemscore.ZeroCoef>
-5.4800

> <Gold.Chemscore.Hbond>
1.6324

> <Gold.Chemscore.Metal>
0.0000

> <Gold.Chemscore.Lipo>
115.1198

> <Gold.Chemscore.Internal_Hbond>
0.0000

> <Gold.Chemscore.DEClash>
0.4907

> <Gold.Chemscore.DEInternal>
2.4267

> <Gold.Chemscore.Rot>
2.9429

> <Gold.Chemscore.Internal.Correction>
   9.000000E+99

> <Gold.Chemscore.Hbonds>
donor molecule, donor type, donor heavy atom, donor atom, acceptor molecule, acceptor atom, score
      L1  H     9    27       P1  7957  0.98
      P1  H  6896  6908       L1     1  0.36

> <Gold.Chemscore.Hbond.Weighted>
-5.4523

> <Gold.Chemscore.Metal.Weighted>
-0.0000

> <Gold.Chemscore.Lipo.Weighted>
-13.4690

> <Gold.Chemscore.Internal_Hbond.Weighted>
0.0000

> <Gold.Chemscore.DEClash.Weighted>
0.4907

> <Gold.Chemscore.DEInternal.Weighted>
2.4267

> <Gold.Chemscore.Rot.Weighted>
7.5337

> <Gold.Chemscore.Internal.Correction.Weighted>
   9.000000E+99

> <Gold.Protein.RotatedTorsions>
[ 6907 6896 6895 6894 ] final   99.87 input  -60.11 | X-H torsion
[ 7974 7965 7964 7962 ] final  -92.91 input  175.53 | X-H torsion
[ 8008 7997 7996 7995 ] final   34.67 input   59.86 | X-H torsion
[ 10167 10162 10161 10158 ] final  -25.52 input  -65.29 | X-H torsion
[ 10718 10713 10712 10709 ] final   52.80 input   66.30 | X-H torsion
[ 10763 10752 10751 10750 ] final   -2.46 input  -60.55 | X-H torsion
[ 11005 11000 10999 10996 ] final  129.49 input  -57.11 | X-H torsion

> <Gold.Protein.ActiveResidues>
 VAL166  LYS551  ARG553  GLY616  TRP617  ASP618  TYR619  PRO620  LYS621  CYS622 
 ASP623  PHE694  ASN695  SER759  ASP760  ASP761  ALA762  ILE779  LEU786  VAL792 
 PHE793  MET794  SER795  GLU796  ALA797  LYS798  CYS799  TRP800  GLU811  SER814 

> <Gold.Protein.RotatedAtoms>
  152.5383  134.0363  159.8046 H   0  0  0  0  0  0  0  0  0  0  0  0  # atno 6907 bound_to 6896
  151.0525  133.5604  159.2648 H   0  0  0  0  0  0  0  0  0  0  0  0  # atno 6908 bound_to 6896
  151.2533  135.0637  159.9124 H   0  0  0  0  0  0  0  0  0  0  0  0  # atno 6909 bound_to 6896
  145.3936  140.9530  143.2327 H   0  0  0  0  0  0  0  0  0  0  0  0  # atno 7974 bound_to 7965
  155.1586  140.3281  155.4416 H   0  0  0  0  0  0  0  0  0  0  0  0  # atno 8008 bound_to 7997
  156.2550  140.1964  156.6645 H   0  0  0  0  0  0  0  0  0  0  0  0  # atno 8009 bound_to 7997
  154.6421  140.0569  156.9844 H   0  0  0  0  0  0  0  0  0  0  0  0  # atno 8010 bound_to 7997
  140.7286  143.4258  151.0879 H   0  0  0  0  0  0  0  0  0  0  0  0  # atno 10167 bound_to 10162
  157.5108  130.8499  149.8433 H   0  0  0  0  0  0  0  0  0  0  0  0  # atno 10718 bound_to 10713
  153.3584  135.6989  153.6732 H   0  0  0  0  0  0  0  0  0  0  0  0  # atno 10763 bound_to 10752
  153.5430  135.3569  155.2727 H   0  0  0  0  0  0  0  0  0  0  0  0  # atno 10764 bound_to 10752
  154.8664  135.4208  154.2835 H   0  0  0  0  0  0  0  0  0  0  0  0  # atno 10765 bound_to 10752
  139.9618  134.9600  156.9156 H   0  0  0  0  0  0  0  0  0  0  0  0  # atno 11005 bound_to 11000
  144.8423  139.5452  143.6894 LP  0  0  0  0  0  0  0  0  0  0  0  0  # atno 17320 bound_to 7965
  146.2786  139.6817  142.9245 LP  0  0  0  0  0  0  0  0  0  0  0  0  # atno 17321 bound_to 7965
  139.7909  143.8220  152.3151 LP  0  0  0  0  0  0  0  0  0  0  0  0  # atno 17342 bound_to 10162
  139.8204  144.7298  150.9581 LP  0  0  0  0  0  0  0  0  0  0  0  0  # atno 17343 bound_to 10162
  156.0288  130.3771  150.1747 LP  0  0  0  0  0  0  0  0  0  0  0  0  # atno 17370 bound_to 10713
  156.9936  130.9901  151.3408 LP  0  0  0  0  0  0  0  0  0  0  0  0  # atno 17371 bound_to 10713
  140.5483  134.0652  155.7361 LP  0  0  0  0  0  0  0  0  0  0  0  0  # atno 17394 bound_to 11000
  141.1296  133.9325  157.2564 LP  0  0  0  0  0  0  0  0  0  0  0  0  # atno 17395 bound_to 11000

$$$$
