AV-unprocessed.smi:1740|AV-procd|sdf|7011|dock8
  -GOLD-   22720 8223D 1   1.00000     0.00000
 Structure written by MMmdl.
 53 55  0  0  0  0  0  0  0  0  3 V2000
  144.8706  135.7073  149.9057 N   0  0  0  0  0  0  0  0  0  0  0  0
  144.4906  134.7872  150.7947 C   0  0  0  0  0  0  0  0  0  0  0  0
  144.6699  133.5847  150.6098 O   0  0  0  0  0  0  0  0  0  0  0  0
  143.8297  135.2985  152.0793 C   0  0  0  0  0  0  0  0  0  0  0  0
  144.6129  134.9791  153.3007 N   0  3  2  0  0  0  0  0  0  0  0  0
  143.9722  135.4675  154.5508 C   0  0  0  0  0  0  0  0  0  0  0  0
  144.7338  134.9722  155.7931 C   0  0  0  0  0  0  0  0  0  0  0  0
  146.2240  135.3545  155.7533 C   0  0  2  0  0  0  0  0  0  0  0  0
  146.4007  136.7859  155.9993 N   0  0  0  0  0  0  0  0  0  0  0  0
  147.5835  137.4169  156.0402 C   0  0  0  0  0  0  0  0  0  0  0  0
  148.6628  136.8544  155.8566 O   0  0  0  0  0  0  0  0  0  0  0  0
  147.4364  138.7303  156.2806 N   0  0  0  0  0  0  0  0  0  0  0  0
  148.4705  139.7029  156.3810 C   0  0  0  0  0  0  0  0  0  0  0  0
  149.7203  139.3689  156.9630 C   0  0  0  0  0  0  0  0  0  0  0  0
  150.7080  140.3584  157.1236 C   0  0  0  0  0  0  0  0  0  0  0  0
  150.4253  141.6728  156.7148 C   0  0  0  0  0  0  0  0  0  0  0  0
  149.2231  141.9613  156.1748 N   0  3  0  0  0  0  0  0  0  0  0  0
  148.2369  141.0502  155.9791 C   0  0  0  0  0  0  0  0  0  0  0  0
  147.0347  141.4965  155.3837 N   0  0  0  0  0  0  0  0  0  0  0  0
  146.1577  142.4197  156.0958 C   0  0  0  0  0  0  0  0  0  0  0  0
  145.2058  142.9638  155.0340 C   0  0  0  0  0  0  0  0  0  0  0  0
  146.0964  143.0273  153.7971 C   0  0  0  0  0  0  0  0  0  0  0  0
  147.0284  141.8226  153.9606 C   0  0  0  0  0  0  0  0  0  0  0  0
  146.8448  134.9265  154.4087 C   0  0  0  0  0  0  0  0  0  0  0  0
  146.0255  135.4258  153.2055 C   0  0  0  0  0  0  0  0  0  0  0  0
  145.3157  135.4175  149.0464 H   0  0  0  0  0  0  0  0  0  0  0  0
  144.7202  136.6885  150.0909 H   0  0  0  0  0  0  0  0  0  0  0  0
  143.7400  136.3803  151.9722 H   0  0  0  0  0  0  0  0  0  0  0  0
  142.8151  134.9070  152.1711 H   0  0  0  0  0  0  0  0  0  0  0  0
  143.9328  136.5577  154.5402 H   0  0  0  0  0  0  0  0  0  0  0  0
  142.9408  135.1185  154.6057 H   0  0  0  0  0  0  0  0  0  0  0  0
  144.2666  135.3583  156.7000 H   0  0  0  0  0  0  0  0  0  0  0  0
  144.6469  133.8861  155.8488 H   0  0  0  0  0  0  0  0  0  0  0  0
  146.7250  134.8109  156.5567 H   0  0  0  0  0  0  0  0  0  0  0  0
  145.5656  137.3282  156.1666 H   0  0  0  0  0  0  0  0  0  0  0  0
  146.4918  139.0865  156.2974 H   0  0  0  0  0  0  0  0  0  0  0  0
  149.9268  138.3669  157.3091 H   0  0  0  0  0  0  0  0  0  0  0  0
  151.6629  140.1140  157.5659 H   0  0  0  0  0  0  0  0  0  0  0  0
  151.1171  142.4977  156.8053 H   0  0  0  0  0  0  0  0  0  0  0  0
  145.6207  141.9186  156.9019 H   0  0  0  0  0  0  0  0  0  0  0  0
  146.7334  143.2417  156.5234 H   0  0  0  0  0  0  0  0  0  0  0  0
  144.3880  142.2609  154.8686 H   0  0  0  0  0  0  0  0  0  0  0  0
  144.7763  143.9292  155.3026 H   0  0  0  0  0  0  0  0  0  0  0  0
  145.5334  143.0051  152.8636 H   0  0  0  0  0  0  0  0  0  0  0  0
  146.6807  143.9484  153.8150 H   0  0  0  0  0  0  0  0  0  0  0  0
  148.0276  142.0416  153.5815 H   0  0  0  0  0  0  0  0  0  0  0  0
  146.6342  140.9685  153.4092 H   0  0  0  0  0  0  0  0  0  0  0  0
  147.8750  135.2760  154.3319 H   0  0  0  0  0  0  0  0  0  0  0  0
  146.8955  133.8374  154.3725 H   0  0  0  0  0  0  0  0  0  0  0  0
  146.4731  135.0411  152.2883 H   0  0  0  0  0  0  0  0  0  0  0  0
  146.0625  136.5146  153.1427 H   0  0  0  0  0  0  0  0  0  0  0  0
  144.6375  133.9704  153.3569 H   0  0  0  0  0  0  0  0  0  0  0  0
  149.0494  142.9245  155.8876 H   0  0  0  0  0  0  0  0  0  0  0  0
  1  2  1  0  0  0  0
  1 26  1  0  0  0  0
  1 27  1  0  0  0  0
  2  3  2  0  0  0  0
  2  4  1  0  0  0  0
  4  5  1  0  0  0  0
  4 28  1  0  0  0  0
  4 29  1  0  0  0  0
  5 25  1  0  0  0  0
  5  6  1  0  0  0  0
  5 52  1  0  0  0  0
  6  7  1  0  0  0  0
  6 30  1  0  0  0  0
  6 31  1  0  0  0  0
  7  8  1  0  0  0  0
  7 32  1  0  0  0  0
  7 33  1  0  0  0  0
  8  9  1  0  0  0  0
  8 24  1  0  0  0  0
  8 34  1  0  0  0  0
  9 10  1  0  0  0  0
  9 35  1  0  0  0  0
 10 11  2  0  0  0  0
 10 12  1  0  0  0  0
 12 13  1  0  0  0  0
 12 36  1  0  0  0  0
 13 18  1  0  0  0  0
 13 14  2  0  0  0  0
 14 15  1  0  0  0  0
 14 37  1  0  0  0  0
 15 16  2  0  0  0  0
 15 38  1  0  0  0  0
 16 17  1  0  0  0  0
 16 39  1  0  0  0  0
 17 18  2  0  0  0  0
 17 53  1  0  0  0  0
 18 19  1  0  0  0  0
 19 23  1  0  0  0  0
 19 20  1  0  0  0  0
 20 21  1  0  0  0  0
 20 40  1  0  0  0  0
 20 41  1  0  0  0  0
 21 22  1  0  0  0  0
 21 42  1  0  0  0  0
 21 43  1  0  0  0  0
 22 23  1  0  0  0  0
 22 44  1  0  0  0  0
 22 45  1  0  0  0  0
 23 46  1  0  0  0  0
 23 47  1  0  0  0  0
 24 25  1  0  0  0  0
 24 48  1  0  0  0  0
 24 49  1  0  0  0  0
 25 50  1  0  0  0  0
 25 51  1  0  0  0  0
M  CHG  1   5   1
M  CHG  1  17   1
M  END
> <s_m_source_file>
AV-unprocessed.smi

> <i_m_source_file_index>
1740

> <i_lp_mmshare_version>
43012

> <i_f3d_flags>
0

> <s_epik_input>
W05IMl1DKD1PKVtDSDJdTjFbQ0gyXVtDSDJdW0NIXShbQ0gyXVtDSDJdMSlbTkhdQyg9TylbTkhdYzJbY0hdW2NIXVtjSF1uYzJOM1tDSDJdW0NIMl1bQ0gyXVtDSDJdMw==

> <s_epik_cmdline>
J2VwaWtfcHl0aG9uJywgJy1waCcsICc3LjAnLCAnLXRuJywgJzgnLCAnLW1hJywgJzIwMCcsICctbWV0YWxfYmluZGluZycsICctaW1hZScsICc8aW5maWxlLm1hZT4nLCAnLW9tYWUnLCAnPG91dGZpbGUubWFlPic=

> <r_lp_tautomer_probability>
0.999994

> <r_epik_Ionization_Penalty>
2.11361

> <r_epik_Ionization_Penalty_Charging>
2.11355

> <r_epik_Ionization_Penalty_Neutral>
5.98217e-05

> <r_epik_State_Penalty>
2.13444

> <r_epik_Charging_Adjusted_Penalty>
4.24799

> <i_epik_Tot_Q>
2

> <i_epik_Tot_abs_Q>
2

> <r_epik_Metal_State_Penalty>
2.23528

> <b_epik_Metal_Only>
0

> <s_lp_Force_Field>
OPLS_2005

> <r_lp_Energy>
48.4513

> <b_lp_Chiralities_Consistent>
1

> <s_lp_Variant>
AV-unprocessed.smi:1740-6

> <Gold.Version>
5.8.1

> <Gold.Id.Protein>
6NUR|6NUR_protein|mol2

> <Gold.PLP.Fitness>
39.4283

> <Gold.PLP.PLP>
-27.9209

> <Gold.PLP.part.hbond>
-3.0000

> <Gold.PLP.part.metal>
0.0000

> <Gold.PLP.part.buried>
-6.6731

> <Gold.PLP.part.nonpolar>
-18.9421

> <Gold.PLP.part.repulsive>
0.5403

> <Gold.PLP.ligand.clash>
0.0000

> <Gold.PLP.ligand.torsion>
0.4482

> <Gold.PLP.Chemscore.Hbond>
4.0000

> <Gold.PLP.Chemscore.CHOScore>
0.0000

> <Gold.PLP.Chemscore.Metal>
0.0000

> <Gold.Chemscore.Hbonds>
donor molecule, donor type, donor heavy atom, donor atom, acceptor molecule, acceptor atom, score
      L1  H     1    26       P1  7921  1.00
      L1  H     1    27       P1 10171  0.88
      L1  H    17    53       P1  8028  2.00

> <Gold.PLP.Chemscore.Internal.Correction>
0.4039

> <Gold.Rescore>
     Score         DG    S(hbond)    S(metal)    S(lipo)     H(rot)  DE(clash)    DE(int)     intcor
     14.02     -15.69       2.98        0.00      50.86       2.22       0.03       1.64       ----

> <Gold.Chemscore.Fitness>
14.0190

> <Gold.Chemscore.DG>
-15.6898

> <Gold.Chemscore.ZeroCoef>
-5.4800

> <Gold.Chemscore.Hbond>
2.9771

> <Gold.Chemscore.Metal>
0.0000

> <Gold.Chemscore.Lipo>
50.8642

> <Gold.Chemscore.Internal_Hbond>
0.0000

> <Gold.Chemscore.DEClash>
0.0334

> <Gold.Chemscore.DEInternal>
1.6374

> <Gold.Chemscore.Rot>
2.2207

> <Gold.Chemscore.Internal.Correction>
   9.000000E+99

> <Gold.Chemscore.Hbonds>
donor molecule, donor type, donor heavy atom, donor atom, acceptor molecule, acceptor atom, score
      L1  H     1    26       P1  7921  1.00
      L1  H     1    27       P1 10171  0.84
      L1  H    17    53       P1  8028  1.00

> <Gold.Chemscore.Hbond.Weighted>
-9.9436

> <Gold.Chemscore.Metal.Weighted>
-0.0000

> <Gold.Chemscore.Lipo.Weighted>
-5.9511

> <Gold.Chemscore.Internal_Hbond.Weighted>
0.0000

> <Gold.Chemscore.DEClash.Weighted>
0.0334

> <Gold.Chemscore.DEInternal.Weighted>
1.6374

> <Gold.Chemscore.Rot.Weighted>
5.6849

> <Gold.Chemscore.Internal.Correction.Weighted>
   9.000000E+99

> <Gold.Protein.RotatedTorsions>
[ 6907 6896 6895 6894 ] final   29.74 input  -60.11 | X-H torsion
[ 7974 7965 7964 7962 ] final  168.21 input  175.53 | X-H torsion
[ 8008 7997 7996 7995 ] final   85.92 input   59.86 | X-H torsion
[ 10167 10162 10161 10158 ] final -171.44 input  -65.29 | X-H torsion
[ 10718 10713 10712 10709 ] final   27.50 input   66.30 | X-H torsion
[ 10763 10752 10751 10750 ] final  -44.73 input  -60.55 | X-H torsion
[ 11005 11000 10999 10996 ] final   21.65 input  -57.11 | X-H torsion

> <Gold.Protein.ActiveResidues>
 VAL166  LYS551  ARG553  GLY616  TRP617  ASP618  TYR619  PRO620  LYS621  CYS622 
 ASP623  PHE694  ASN695  SER759  ASP760  ASP761  ALA762  ILE779  LEU786  VAL792 
 PHE793  MET794  SER795  GLU796  ALA797  LYS798  CYS799  TRP800  GLU811  SER814 

> <Gold.Protein.RotatedAtoms>
  152.0359  134.9740  160.0573 H   0  0  0  0  0  0  0  0  0  0  0  0  # atno 6907 bound_to 6896
  152.1198  133.4342  159.4678 H   0  0  0  0  0  0  0  0  0  0  0  0  # atno 6908 bound_to 6896
  150.6848  134.2467  159.4537 H   0  0  0  0  0  0  0  0  0  0  0  0  # atno 6909 bound_to 6896
  144.7396  139.8874  143.6400 H   0  0  0  0  0  0  0  0  0  0  0  0  # atno 7974 bound_to 7965
  155.9562  140.3397  155.6450 H   0  0  0  0  0  0  0  0  0  0  0  0  # atno 8008 bound_to 7997
  155.6857  140.0743  157.2486 H   0  0  0  0  0  0  0  0  0  0  0  0  # atno 8009 bound_to 7997
  154.4132  140.1666  156.2019 H   0  0  0  0  0  0  0  0  0  0  0  0  # atno 8010 bound_to 7997
  139.5802  144.1440  152.1505 H   0  0  0  0  0  0  0  0  0  0  0  0  # atno 10167 bound_to 10162
  157.2210  130.6979  149.6270 H   0  0  0  0  0  0  0  0  0  0  0  0  # atno 10718 bound_to 10713
  154.0168  135.6674  153.4769 H   0  0  0  0  0  0  0  0  0  0  0  0  # atno 10763 bound_to 10752
  153.0597  135.5035  154.8060 H   0  0  0  0  0  0  0  0  0  0  0  0  # atno 10764 bound_to 10752
  154.6962  135.3070  154.9373 H   0  0  0  0  0  0  0  0  0  0  0  0  # atno 10765 bound_to 10752
  140.3892  134.1837  155.7662 H   0  0  0  0  0  0  0  0  0  0  0  0  # atno 11005 bound_to 11000
  146.1167  139.4179  143.0254 LP  0  0  0  0  0  0  0  0  0  0  0  0  # atno 17320 bound_to 7965
  145.7365  141.0024  143.1324 LP  0  0  0  0  0  0  0  0  0  0  0  0  # atno 17321 bound_to 7965
  140.0991  144.5555  150.7001 LP  0  0  0  0  0  0  0  0  0  0  0  0  # atno 17342 bound_to 10162
  140.7081  143.2483  151.4664 LP  0  0  0  0  0  0  0  0  0  0  0  0  # atno 17343 bound_to 10162
  155.9682  130.4520  150.5756 LP  0  0  0  0  0  0  0  0  0  0  0  0  # atno 17370 bound_to 10713
  157.3575  131.0744  151.1663 LP  0  0  0  0  0  0  0  0  0  0  0  0  # atno 17371 bound_to 10713
  141.1896  133.8234  157.0948 LP  0  0  0  0  0  0  0  0  0  0  0  0  # atno 17394 bound_to 11000
  140.0419  134.9850  157.0978 LP  0  0  0  0  0  0  0  0  0  0  0  0  # atno 17395 bound_to 11000

$$$$
