AV-unprocessed.smi:2457|AV-procd|sdf|9704|dock9
  -GOLD-   2272013343D 1   1.00000     0.00000
 Structure written by MMmdl.
 40 41  0  0  0  0  0  0  0  0  1 V2000
  144.6999  145.2704  153.2044 C   0  0  0  0  0  0  0  0  0  0  0  0
  145.0462  144.1155  154.0898 C   0  0  0  0  0  0  0  0  0  0  0  0
  144.6281  143.9091  155.3805 C   0  0  0  0  0  0  0  0  0  0  0  0
  145.2574  142.4234  156.0363 S   0  0  0  0  0  0  0  0  0  0  0  0
  146.0780  142.1293  154.5062 C   0  0  0  0  0  0  0  0  0  0  0  0
  146.8709  140.8878  154.2258 C   0  0  2  0  0  0  0  0  0  0  0  0
  146.8224  139.8959  155.3968 C   0  0  0  0  0  0  0  0  0  0  0  0
  148.3097  141.1775  153.7420 C   0  0  0  0  0  0  0  0  0  0  0  0
  149.0314  142.0594  154.6582 N   0  0  0  0  0  0  0  0  0  0  0  0
  150.1032  141.7115  155.3851 C   0  0  0  0  0  0  0  0  0  0  0  0
  150.6787  140.6268  155.2959 O   0  0  0  0  0  0  0  0  0  0  0  0
  150.4449  142.6708  156.2558 N   0  0  0  0  0  0  0  0  0  0  0  0
  151.4881  142.5456  157.2691 C   0  0  2  0  0  0  0  0  0  0  0  0
  151.1391  141.4061  158.2504 C   0  0  0  0  0  0  0  0  0  0  0  0
  152.2324  141.1838  159.3075 C   0  0  0  0  0  0  0  0  0  0  0  0
  152.4645  142.4258  160.1799 C   0  0  0  0  0  0  0  0  0  0  0  0
  153.0271  143.8336  159.1847 S   0  0  0  0  0  0  0  0  0  0  0  0
  151.6581  143.8908  157.9956 C   0  0  0  0  0  0  0  0  0  0  0  0
  145.8758  143.0991  153.6090 N   0  0  0  0  0  0  0  0  0  0  0  0
  144.1928  146.0600  153.7593 H   0  0  0  0  0  0  0  0  0  0  0  0
  144.0390  144.9586  152.3952 H   0  0  0  0  0  0  0  0  0  0  0  0
  145.5929  145.7048  152.7546 H   0  0  0  0  0  0  0  0  0  0  0  0
  143.9868  144.5361  155.9821 H   0  0  0  0  0  0  0  0  0  0  0  0
  146.3653  140.3935  153.3950 H   0  0  0  0  0  0  0  0  0  0  0  0
  145.7937  139.6366  155.6490 H   0  0  0  0  0  0  0  0  0  0  0  0
  147.2895  140.3137  156.2893 H   0  0  0  0  0  0  0  0  0  0  0  0
  147.3458  138.9719  155.1506 H   0  0  0  0  0  0  0  0  0  0  0  0
  148.8529  140.2407  153.6056 H   0  0  0  0  0  0  0  0  0  0  0  0
  148.2817  141.6552  152.7624 H   0  0  0  0  0  0  0  0  0  0  0  0
  148.6382  142.9772  154.8059 H   0  0  0  0  0  0  0  0  0  0  0  0
  149.9112  143.5276  156.2549 H   0  0  0  0  0  0  0  0  0  0  0  0
  152.4310  142.3092  156.7719 H   0  0  0  0  0  0  0  0  0  0  0  0
  150.1898  141.6178  158.7446 H   0  0  0  0  0  0  0  0  0  0  0  0
  150.9920  140.4759  157.6997 H   0  0  0  0  0  0  0  0  0  0  0  0
  151.9498  140.3453  159.9449 H   0  0  0  0  0  0  0  0  0  0  0  0
  153.1646  140.8963  158.8194 H   0  0  0  0  0  0  0  0  0  0  0  0
  151.5470  142.7021  160.7005 H   0  0  0  0  0  0  0  0  0  0  0  0
  153.2145  142.2167  160.9430 H   0  0  0  0  0  0  0  0  0  0  0  0
  151.8620  144.6877  157.2797 H   0  0  0  0  0  0  0  0  0  0  0  0
  150.7430  144.1609  158.5238 H   0  0  0  0  0  0  0  0  0  0  0  0
  1  2  1  0  0  0  0
  1 20  1  0  0  0  0
  1 21  1  0  0  0  0
  1 22  1  0  0  0  0
  2 19  1  0  0  0  0
  2  3  2  0  0  0  0
  3  4  1  0  0  0  0
  3 23  1  0  0  0  0
  4  5  1  0  0  0  0
  5  6  1  0  0  0  0
  5 19  2  0  0  0  0
  6  7  1  0  0  0  0
  6  8  1  0  0  0  0
  6 24  1  0  0  0  0
  7 25  1  0  0  0  0
  7 26  1  0  0  0  0
  7 27  1  0  0  0  0
  8  9  1  0  0  0  0
  8 28  1  0  0  0  0
  8 29  1  0  0  0  0
  9 10  1  0  0  0  0
  9 30  1  0  0  0  0
 10 11  2  0  0  0  0
 10 12  1  0  0  0  0
 12 13  1  0  0  0  0
 12 31  1  0  0  0  0
 13 18  1  0  0  0  0
 13 14  1  0  0  0  0
 13 32  1  0  0  0  0
 14 15  1  0  0  0  0
 14 33  1  0  0  0  0
 14 34  1  0  0  0  0
 15 16  1  0  0  0  0
 15 35  1  0  0  0  0
 15 36  1  0  0  0  0
 16 17  1  0  0  0  0
 16 37  1  0  0  0  0
 16 38  1  0  0  0  0
 17 18  1  0  0  0  0
 18 39  1  0  0  0  0
 18 40  1  0  0  0  0
M  END
> <s_m_source_file>
AV-unprocessed.smi

> <i_m_source_file_index>
2457

> <i_lp_mmshare_version>
43012

> <i_f3d_flags>
0

> <s_epik_input>
W0NIM11jMVtjSF1zYyhuMSlbQ0BIXShbQ0gzXSlbQ0gyXVtOSF1DKD1PKVtOSF1bQ0BASF0yW0NIMl1bQ0gyXVtDSDJdU1tDSDJdMg==

> <s_epik_cmdline>
J2VwaWtfcHl0aG9uJywgJy1waCcsICc3LjAnLCAnLXRuJywgJzgnLCAnLW1hJywgJzIwMCcsICctbWV0YWxfYmluZGluZycsICctaW1hZScsICc8aW5maWxlLm1hZT4nLCAnLW9tYWUnLCAnPG91dGZpbGUubWFlPic=

> <r_epik_Ionization_Penalty>
0.00154805

> <r_epik_Ionization_Penalty_Charging>
0

> <r_epik_Ionization_Penalty_Neutral>
0.00154805

> <r_epik_State_Penalty>
0.00100357

> <r_epik_Charging_Adjusted_Penalty>
0.00100357

> <i_epik_Tot_Q>
0

> <i_epik_Tot_abs_Q>
0

> <r_epik_Metal_State_Penalty>
-0

> <b_epik_Metal_Only>
0

> <s_lp_Force_Field>
OPLS_2005

> <r_lp_Energy>
-7.34104

> <b_lp_Chiralities_Consistent>
1

> <s_lp_Variant>
AV-unprocessed.smi:2457-1

> <Gold.Version>
5.8.1

> <Gold.Id.Protein>
6NUR|6NUR_protein|mol2

> <Gold.PLP.Fitness>
49.4188

> <Gold.PLP.PLP>
-41.0340

> <Gold.PLP.part.hbond>
-3.0000

> <Gold.PLP.part.metal>
0.0000

> <Gold.PLP.part.buried>
-5.4807

> <Gold.PLP.part.nonpolar>
-31.3837

> <Gold.PLP.part.repulsive>
1.1770

> <Gold.PLP.ligand.clash>
0.0000

> <Gold.PLP.ligand.torsion>
0.1409

> <Gold.PLP.Chemscore.Hbond>
2.8488

> <Gold.PLP.Chemscore.CHOScore>
0.0000

> <Gold.PLP.Chemscore.Metal>
0.0000

> <Gold.Chemscore.Hbonds>
donor molecule, donor type, donor heavy atom, donor atom, acceptor molecule, acceptor atom, score
      L1  H     9    30       P1  8028  0.94
      L1  H    12    31       P1  8028  1.00
      P1  H  7989  7998       L1    11  0.89

> <Gold.PLP.Chemscore.Internal.Correction>
0.1201

> <Gold.Rescore>
     Score         DG    S(hbond)    S(metal)    S(lipo)     H(rot)  DE(clash)    DE(int)     intcor
     20.33     -20.59       1.87        0.00     107.72       1.46       0.08       0.18       ----

> <Gold.Chemscore.Fitness>
20.3315

> <Gold.Chemscore.DG>
-20.5945

> <Gold.Chemscore.ZeroCoef>
-5.4800

> <Gold.Chemscore.Hbond>
1.8722

> <Gold.Chemscore.Metal>
0.0000

> <Gold.Chemscore.Lipo>
107.7170

> <Gold.Chemscore.Internal_Hbond>
0.0000

> <Gold.Chemscore.DEClash>
0.0805

> <Gold.Chemscore.DEInternal>
0.1825

> <Gold.Chemscore.Rot>
1.4616

> <Gold.Chemscore.Internal.Correction>
   9.000000E+99

> <Gold.Chemscore.Hbonds>
donor molecule, donor type, donor heavy atom, donor atom, acceptor molecule, acceptor atom, score
      L1  H     9    30       P1  8028  0.90
      L1  H    12    31       P1  8028  0.99
      P1  H  7989  7998       L1    11  0.21

> <Gold.Chemscore.Hbond.Weighted>
-6.2532

> <Gold.Chemscore.Metal.Weighted>
-0.0000

> <Gold.Chemscore.Lipo.Weighted>
-12.6029

> <Gold.Chemscore.Internal_Hbond.Weighted>
0.0000

> <Gold.Chemscore.DEClash.Weighted>
0.0805

> <Gold.Chemscore.DEInternal.Weighted>
0.1825

> <Gold.Chemscore.Rot.Weighted>
3.7416

> <Gold.Chemscore.Internal.Correction.Weighted>
   9.000000E+99

> <Gold.Protein.RotatedTorsions>
[ 6907 6896 6895 6894 ] final   84.93 input  -60.11 | X-H torsion
[ 7974 7965 7964 7962 ] final  111.28 input  175.53 | X-H torsion
[ 8008 7997 7996 7995 ] final   56.10 input   59.86 | X-H torsion
[ 10167 10162 10161 10158 ] final    5.94 input  -65.29 | X-H torsion
[ 10718 10713 10712 10709 ] final   87.01 input   66.30 | X-H torsion
[ 10763 10752 10751 10750 ] final  -71.60 input  -60.55 | X-H torsion
[ 11005 11000 10999 10996 ] final  159.24 input  -57.11 | X-H torsion

> <Gold.Protein.ActiveResidues>
 VAL166  LYS551  ARG553  GLY616  TRP617  ASP618  TYR619  PRO620  LYS621  CYS622 
 ASP623  PHE694  ASN695  SER759  ASP760  ASP761  ALA762  ILE779  LEU786  VAL792 
 PHE793  MET794  SER795  GLU796  ALA797  LYS798  CYS799  TRP800  GLU811  SER814 

> <Gold.Protein.RotatedAtoms>
  152.5364  134.2664  159.8954 H   0  0  0  0  0  0  0  0  0  0  0  0  # atno 6907 bound_to 6896
  151.2622  133.4289  159.2624 H   0  0  0  0  0  0  0  0  0  0  0  0  # atno 6908 bound_to 6896
  151.0442  134.9643  159.8234 H   0  0  0  0  0  0  0  0  0  0  0  0  # atno 6909 bound_to 6896
  145.2443  139.2766  143.4101 H   0  0  0  0  0  0  0  0  0  0  0  0  # atno 7974 bound_to 7965
  155.5119  140.3477  155.4390 H   0  0  0  0  0  0  0  0  0  0  0  0  # atno 8008 bound_to 7997
  156.0843  140.1394  156.9700 H   0  0  0  0  0  0  0  0  0  0  0  0  # atno 8009 bound_to 7997
  154.4598  140.0939  156.6836 H   0  0  0  0  0  0  0  0  0  0  0  0  # atno 8010 bound_to 7997
  140.6455  143.7673  150.7492 H   0  0  0  0  0  0  0  0  0  0  0  0  # atno 10167 bound_to 10162
  157.6935  131.0238  150.3059 H   0  0  0  0  0  0  0  0  0  0  0  0  # atno 10718 bound_to 10713
  154.4340  135.5957  153.6087 H   0  0  0  0  0  0  0  0  0  0  0  0  # atno 10763 bound_to 10752
  152.9801  135.5982  154.3804 H   0  0  0  0  0  0  0  0  0  0  0  0  # atno 10764 bound_to 10752
  154.3646  135.2841  155.2279 H   0  0  0  0  0  0  0  0  0  0  0  0  # atno 10765 bound_to 10752
  140.1942  134.8385  157.2947 H   0  0  0  0  0  0  0  0  0  0  0  0  # atno 11005 bound_to 11000
  146.3320  140.2815  142.8610 LP  0  0  0  0  0  0  0  0  0  0  0  0  # atno 17320 bound_to 7965
  144.9561  140.8228  143.5542 LP  0  0  0  0  0  0  0  0  0  0  0  0  # atno 17321 bound_to 7965
  140.1313  143.4523  152.2252 LP  0  0  0  0  0  0  0  0  0  0  0  0  # atno 17342 bound_to 10162
  139.5665  144.7438  151.4008 LP  0  0  0  0  0  0  0  0  0  0  0  0  # atno 17343 bound_to 10162
  156.3567  130.3840  149.7284 LP  0  0  0  0  0  0  0  0  0  0  0  0  # atno 17370 bound_to 10713
  156.4744  130.8011  151.3028 LP  0  0  0  0  0  0  0  0  0  0  0  0  # atno 17371 bound_to 10713
  140.2125  134.4121  155.7605 LP  0  0  0  0  0  0  0  0  0  0  0  0  # atno 17394 bound_to 11000
  141.2227  133.7125  156.8361 LP  0  0  0  0  0  0  0  0  0  0  0  0  # atno 17395 bound_to 11000

$$$$
