AV-unprocessed.smi:1315|AV-procd|sdf|5454|dock1
  -GOLD-   22720 5 23D 1   1.00000     0.00000
 Structure written by MMmdl.
 25 26  0  0  0  0  0  0  0  0  1 V2000
  148.1650  137.8879  153.5720 N   0  0  0  0  0  0  0  0  0  0  0  0
  148.9699  138.9139  154.1021 C   0  0  0  0  0  0  0  0  0  0  0  0
  150.3852  138.9743  154.2376 C   0  0  0  0  0  0  0  0  0  0  0  0
  150.7965  140.1055  154.7872 N   0  0  0  0  0  0  0  0  0  0  0  0
  149.6627  140.8042  155.0161 N   0  0  0  0  0  0  0  0  0  0  0  0
  149.7361  142.1225  155.6251 C   0  0  0  0  0  0  0  0  0  0  0  0
  150.7864  142.1979  156.7400 C   0  0  0  0  0  0  0  0  0  0  0  0
  151.4252  141.1992  157.0752 O   0  0  0  0  0  0  0  0  0  0  0  0
  150.9471  143.4009  157.3107 N   0  0  0  0  0  0  0  0  0  0  0  0
  151.8608  143.7039  158.3645 C   0  0  0  0  0  0  0  0  0  0  0  0
  151.2847  144.2024  159.6721 C   0  0  0  0  0  0  0  0  0  0  0  0
  152.0137  145.1552  158.7656 C   0  0  0  0  0  0  0  0  0  0  0  0
  148.5425  140.1056  154.6143 C   0  0  0  0  0  0  0  0  0  0  0  0
  147.1588  137.9674  153.5318 H   0  0  0  0  0  0  0  0  0  0  0  0
  148.5559  137.0135  153.2518 H   0  0  0  0  0  0  0  0  0  0  0  0
  151.1208  138.2353  153.9561 H   0  0  0  0  0  0  0  0  0  0  0  0
  149.9678  142.8473  154.8435 H   0  0  0  0  0  0  0  0  0  0  0  0
  148.7602  142.3902  156.0329 H   0  0  0  0  0  0  0  0  0  0  0  0
  150.3768  144.1625  156.9730 H   0  0  0  0  0  0  0  0  0  0  0  0
  152.7576  143.0904  158.4416 H   0  0  0  0  0  0  0  0  0  0  0  0
  150.2038  144.3068  159.7458 H   0  0  0  0  0  0  0  0  0  0  0  0
  151.7861  143.8988  160.5888 H   0  0  0  0  0  0  0  0  0  0  0  0
  153.0016  145.4881  159.0771 H   0  0  0  0  0  0  0  0  0  0  0  0
  151.4191  145.8964  158.2348 H   0  0  0  0  0  0  0  0  0  0  0  0
  147.5480  140.5124  154.7238 H   0  0  0  0  0  0  0  0  0  0  0  0
  1  2  1  0  0  0  0
  1 14  1  0  0  0  0
  1 15  1  0  0  0  0
  2 13  2  0  0  0  0
  2  3  1  0  0  0  0
  3  4  2  0  0  0  0
  3 16  1  0  0  0  0
  4  5  1  0  0  0  0
  5  6  1  0  0  0  0
  5 13  1  0  0  0  0
  6  7  1  0  0  0  0
  6 17  1  0  0  0  0
  6 18  1  0  0  0  0
  7  8  2  0  0  0  0
  7  9  1  0  0  0  0
  9 10  1  0  0  0  0
  9 19  1  0  0  0  0
 10 12  1  0  0  0  0
 10 11  1  0  0  0  0
 10 20  1  0  0  0  0
 11 12  1  0  0  0  0
 11 21  1  0  0  0  0
 11 22  1  0  0  0  0
 12 23  1  0  0  0  0
 12 24  1  0  0  0  0
 13 25  1  0  0  0  0
M  END
> <s_m_source_file>
AV-unprocessed.smi

> <i_m_source_file_index>
1315

> <i_lp_mmshare_version>
43012

> <i_f3d_flags>
0

> <s_epik_input>
W05IMl1jMVtjSF1ubihbY0hdMSlbQ0gyXUMoPU8pW05IXVtDSF0yW0NIMl1bQ0gyXTI=

> <s_epik_cmdline>
J2VwaWtfcHl0aG9uJywgJy1waCcsICc3LjAnLCAnLXRuJywgJzgnLCAnLW1hJywgJzIwMCcsICctbWV0YWxfYmluZGluZycsICctaW1hZScsICc8aW5maWxlLm1hZT4nLCAnLW9tYWUnLCAnPG91dGZpbGUubWFlPic=

> <r_lp_tautomer_probability>
1

> <r_epik_Ionization_Penalty>
0.000100915

> <r_epik_Ionization_Penalty_Charging>
0

> <r_epik_Ionization_Penalty_Neutral>
0.000100915

> <r_epik_State_Penalty>
-0

> <r_epik_Charging_Adjusted_Penalty>
0

> <i_epik_Tot_Q>
0

> <i_epik_Tot_abs_Q>
0

> <r_epik_Metal_State_Penalty>
-0

> <b_epik_Metal_Only>
0

> <s_lp_Force_Field>
OPLS_2005

> <r_lp_Energy>
18.5759

> <b_lp_Chiralities_Consistent>
1

> <s_lp_Variant>
AV-unprocessed.smi:1315-1

> <Gold.Version>
5.8.1

> <Gold.Id.Protein>
6NUR|6NUR_protein|mol2

> <Gold.PLP.Fitness>
36.1807

> <Gold.PLP.PLP>
-28.6430

> <Gold.PLP.part.hbond>
-3.0000

> <Gold.PLP.part.metal>
0.0000

> <Gold.PLP.part.buried>
-0.4944

> <Gold.PLP.part.nonpolar>
-24.8962

> <Gold.PLP.part.repulsive>
0.1213

> <Gold.PLP.ligand.clash>
0.0000

> <Gold.PLP.ligand.torsion>
0.3181

> <Gold.PLP.Chemscore.Hbond>
2.7120

> <Gold.PLP.Chemscore.CHOScore>
0.0000

> <Gold.PLP.Chemscore.Metal>
0.0000

> <Gold.Chemscore.Hbonds>
donor molecule, donor type, donor heavy atom, donor atom, acceptor molecule, acceptor atom, score
      L1  H     1    15       P1  7948  0.82
      L1  H     9    19       P1  8028  0.92
      P1  H  7989  7998       L1     4  1.00

> <Gold.PLP.Chemscore.Internal.Correction>
0.0380

> <Gold.Rescore>
     Score         DG    S(hbond)    S(metal)    S(lipo)     H(rot)  DE(clash)    DE(int)     intcor
     14.33     -17.56       2.61        0.00      65.30       1.67       1.35       1.88       ----

> <Gold.Chemscore.Fitness>
14.3343

> <Gold.Chemscore.DG>
-17.5604

> <Gold.Chemscore.ZeroCoef>
-5.4800

> <Gold.Chemscore.Hbond>
2.6104

> <Gold.Chemscore.Metal>
0.0000

> <Gold.Chemscore.Lipo>
65.3026

> <Gold.Chemscore.Internal_Hbond>
0.0000

> <Gold.Chemscore.DEClash>
1.3507

> <Gold.Chemscore.DEInternal>
1.8754

> <Gold.Chemscore.Rot>
1.6713

> <Gold.Chemscore.Internal.Correction>
   9.000000E+99

> <Gold.Chemscore.Hbonds>
donor molecule, donor type, donor heavy atom, donor atom, acceptor molecule, acceptor atom, score
      L1  H     1    15       P1  7948  0.81
      L1  H     9    19       P1  8028  0.80
      P1  H  7989  7998       L1     4  0.26

> <Gold.Chemscore.Hbond.Weighted>
-8.7187

> <Gold.Chemscore.Metal.Weighted>
-0.0000

> <Gold.Chemscore.Lipo.Weighted>
-7.6404

> <Gold.Chemscore.Internal_Hbond.Weighted>
0.0000

> <Gold.Chemscore.DEClash.Weighted>
1.3507

> <Gold.Chemscore.DEInternal.Weighted>
1.8754

> <Gold.Chemscore.Rot.Weighted>
4.2786

> <Gold.Chemscore.Internal.Correction.Weighted>
   9.000000E+99

> <Gold.Protein.RotatedTorsions>
[ 6907 6896 6895 6894 ] final  135.68 input  -60.11 | X-H torsion
[ 7974 7965 7964 7962 ] final   40.34 input  175.53 | X-H torsion
[ 8008 7997 7996 7995 ] final  121.26 input   59.86 | X-H torsion
[ 10167 10162 10161 10158 ] final  -86.78 input  -65.29 | X-H torsion
[ 10718 10713 10712 10709 ] final  112.23 input   66.30 | X-H torsion
[ 10763 10752 10751 10750 ] final   85.29 input  -60.55 | X-H torsion
[ 11005 11000 10999 10996 ] final   75.87 input  -57.11 | X-H torsion

> <Gold.Protein.ActiveResidues>
 VAL166  LYS551  ARG553  GLY616  TRP617  ASP618  TYR619  PRO620  LYS621  CYS622 
 ASP623  PHE694  ASN695  SER759  ASP760  ASP761  ALA762  ILE779  LEU786  VAL792 
 PHE793  MET794  SER795  GLU796  ALA797  LYS798  CYS799  TRP800  GLU811  SER814 

> <Gold.Protein.RotatedAtoms>
  152.2978  133.5625  159.5598 H   0  0  0  0  0  0  0  0  0  0  0  0  # atno 6907 bound_to 6896
  150.7264  134.0336  159.3750 H   0  0  0  0  0  0  0  0  0  0  0  0  # atno 6908 bound_to 6896
  151.8237  135.0644  160.0479 H   0  0  0  0  0  0  0  0  0  0  0  0  # atno 6909 bound_to 6896
  146.0913  139.5545  142.9474 H   0  0  0  0  0  0  0  0  0  0  0  0  # atno 7974 bound_to 7965
  156.2679  140.2812  156.1280 H   0  0  0  0  0  0  0  0  0  0  0  0  # atno 8008 bound_to 7997
  155.1084  140.0390  157.2734 H   0  0  0  0  0  0  0  0  0  0  0  0  # atno 8009 bound_to 7997
  154.6761  140.2598  155.6962 H   0  0  0  0  0  0  0  0  0  0  0  0  # atno 8010 bound_to 7997
  140.3909  143.2705  151.9266 H   0  0  0  0  0  0  0  0  0  0  0  0  # atno 10167 bound_to 10162
  157.6403  131.0964  150.6865 H   0  0  0  0  0  0  0  0  0  0  0  0  # atno 10718 bound_to 10713
  153.1461  135.4622  154.9568 H   0  0  0  0  0  0  0  0  0  0  0  0  # atno 10763 bound_to 10752
  154.7787  135.3181  154.8039 H   0  0  0  0  0  0  0  0  0  0  0  0  # atno 10764 bound_to 10752
  153.8552  135.6918  153.4842 H   0  0  0  0  0  0  0  0  0  0  0  0  # atno 10765 bound_to 10752
  139.9324  134.7553  156.1324 H   0  0  0  0  0  0  0  0  0  0  0  0  # atno 11005 bound_to 11000
  145.6034  141.0351  143.2006 LP  0  0  0  0  0  0  0  0  0  0  0  0  # atno 17320 bound_to 7965
  144.7362  139.7579  143.7328 LP  0  0  0  0  0  0  0  0  0  0  0  0  # atno 17321 bound_to 7965
  139.4789  144.5729  151.8059 LP  0  0  0  0  0  0  0  0  0  0  0  0  # atno 17342 bound_to 10162
  140.4841  144.1407  150.5938 LP  0  0  0  0  0  0  0  0  0  0  0  0  # atno 17343 bound_to 10162
  156.7190  130.4675  149.5528 LP  0  0  0  0  0  0  0  0  0  0  0  0  # atno 17370 bound_to 10713
  156.1678  130.6417  151.0800 LP  0  0  0  0  0  0  0  0  0  0  0  0  # atno 17371 bound_to 10713
  141.0920  133.6710  156.2561 LP  0  0  0  0  0  0  0  0  0  0  0  0  # atno 17394 bound_to 11000
  140.6166  134.5404  157.5541 LP  0  0  0  0  0  0  0  0  0  0  0  0  # atno 17395 bound_to 11000

$$$$
