AV-unprocessed.smi:1356|AV-procd|sdf|5544|dock3
  -GOLD-   22720 5133D 1   1.00000     0.00000
 Structure written by MMmdl.
 42 43  0  0  0  0  0  0  0  0  2 V2000
  149.6939  131.2998  154.5908 C   0  0  0  0  0  0  0  0  0  0  0  0
  149.4175  132.7370  154.9759 C   0  0  2  0  0  0  0  0  0  0  0  0
  148.4638  133.5841  154.1689 C   0  0  0  0  0  0  0  0  0  0  0  0
  149.9501  133.8754  154.1256 C   0  0  1  0  0  0  0  0  0  0  0  0
  150.4312  135.1038  154.8265 C   0  0  0  0  0  0  0  0  0  0  0  0
  151.2357  135.0745  155.7591 O   0  0  0  0  0  0  0  0  0  0  0  0
  149.9037  136.2431  154.3531 N   0  0  0  0  0  0  0  0  0  0  0  0
  150.1923  137.5770  154.8673 C   0  0  0  0  0  0  0  0  0  0  0  0
  151.5197  138.1221  154.3061 C   0  0  0  0  0  0  0  0  0  0  0  0
  152.0710  139.2875  155.1309 C   0  0  0  0  0  0  0  0  0  0  0  0
  153.2449  139.2875  155.5030 O   0  0  0  0  0  0  0  0  0  0  0  0
  151.2135  140.2834  155.4027 N   0  0  0  0  0  0  0  0  0  0  0  0
  151.5377  141.4812  156.1679 C   0  0  0  0  0  0  0  0  0  0  0  0
  151.7011  141.1688  157.6646 C   0  0  0  0  0  0  0  0  0  0  0  0
  151.8369  142.4258  158.5010 C   0  0  0  0  0  0  0  0  0  0  0  0
  152.0612  142.3795  159.8940 C   0  0  0  0  0  0  0  0  0  0  0  0
  152.1718  143.5870  160.6146 C   0  0  0  0  0  0  0  0  0  0  0  0
  152.0548  144.8135  159.9283 C   0  0  0  0  0  0  0  0  0  0  0  0
  151.8296  144.8015  158.5366 C   0  0  0  0  0  0  0  0  0  0  0  0
  151.7293  143.6237  157.8818 N   0  3  0  0  0  0  0  0  0  0  0  0
  149.6935  131.1825  153.5067 H   0  0  0  0  0  0  0  0  0  0  0  0
  148.9290  130.6465  155.0111 H   0  0  0  0  0  0  0  0  0  0  0  0
  150.6662  130.9900  154.9740 H   0  0  0  0  0  0  0  0  0  0  0  0
  149.3934  132.8933  156.0533 H   0  0  0  0  0  0  0  0  0  0  0  0
  148.0214  133.1521  153.2737 H   0  0  0  0  0  0  0  0  0  0  0  0
  147.8146  134.2649  154.7171 H   0  0  0  0  0  0  0  0  0  0  0  0
  150.4721  133.6048  153.2087 H   0  0  0  0  0  0  0  0  0  0  0  0
  149.2526  136.1809  153.5837 H   0  0  0  0  0  0  0  0  0  0  0  0
  149.3666  138.2514  154.6323 H   0  0  0  0  0  0  0  0  0  0  0  0
  150.2402  137.5121  155.9549 H   0  0  0  0  0  0  0  0  0  0  0  0
  152.2690  137.3301  154.2845 H   0  0  0  0  0  0  0  0  0  0  0  0
  151.3816  138.4475  153.2739 H   0  0  0  0  0  0  0  0  0  0  0  0
  150.2670  140.2002  155.0599 H   0  0  0  0  0  0  0  0  0  0  0  0
  152.4638  141.8960  155.7687 H   0  0  0  0  0  0  0  0  0  0  0  0
  150.7673  142.2398  156.0173 H   0  0  0  0  0  0  0  0  0  0  0  0
  150.8463  140.5958  158.0267 H   0  0  0  0  0  0  0  0  0  0  0  0
  152.5798  140.5420  157.8232 H   0  0  0  0  0  0  0  0  0  0  0  0
  152.1462  141.4317  160.4060 H   0  0  0  0  0  0  0  0  0  0  0  0
  152.3438  143.5722  161.6810 H   0  0  0  0  0  0  0  0  0  0  0  0
  152.1361  145.7495  160.4616 H   0  0  0  0  0  0  0  0  0  0  0  0
  151.7273  145.6909  157.9322 H   0  0  0  0  0  0  0  0  0  0  0  0
  151.5652  143.6390  156.8749 H   0  0  0  0  0  0  0  0  0  0  0  0
  1  2  1  0  0  0  0
  1 21  1  0  0  0  0
  1 22  1  0  0  0  0
  1 23  1  0  0  0  0
  2  4  1  0  0  0  0
  2  3  1  0  0  0  0
  2 24  1  0  0  0  0
  3  4  1  0  0  0  0
  3 25  1  0  0  0  0
  3 26  1  0  0  0  0
  4  5  1  0  0  0  0
  4 27  1  0  0  0  0
  5  6  2  0  0  0  0
  5  7  1  0  0  0  0
  7  8  1  0  0  0  0
  7 28  1  0  0  0  0
  8  9  1  0  0  0  0
  8 29  1  0  0  0  0
  8 30  1  0  0  0  0
  9 10  1  0  0  0  0
  9 31  1  0  0  0  0
  9 32  1  0  0  0  0
 10 11  2  0  0  0  0
 10 12  1  0  0  0  0
 12 13  1  0  0  0  0
 12 33  1  0  0  0  0
 13 14  1  0  0  0  0
 13 34  1  0  0  0  0
 13 35  1  0  0  0  0
 14 15  1  0  0  0  0
 14 36  1  0  0  0  0
 14 37  1  0  0  0  0
 15 20  1  0  0  0  0
 15 16  2  0  0  0  0
 16 17  1  0  0  0  0
 16 38  1  0  0  0  0
 17 18  2  0  0  0  0
 17 39  1  0  0  0  0
 18 19  1  0  0  0  0
 18 40  1  0  0  0  0
 19 20  2  0  0  0  0
 19 41  1  0  0  0  0
 20 42  1  0  0  0  0
M  CHG  1  20   1
M  END
> <s_m_source_file>
AV-unprocessed.smi

> <i_m_source_file_index>
1356

> <i_lp_mmshare_version>
43012

> <i_f3d_flags>
0

> <s_epik_input>
W0NIM11bQ0BASF0xW0NIMl1bQ0BIXTFDKD1PKVtOSF1bQ0gyXVtDSDJdQyg9TylbTkhdW0NIMl1bQ0gyXWMyW2NIXVtjSF1bY0hdW2NIXW4y

> <s_epik_cmdline>
J2VwaWtfcHl0aG9uJywgJy1waCcsICc3LjAnLCAnLXRuJywgJzgnLCAnLW1hJywgJzIwMCcsICctbWV0YWxfYmluZGluZycsICctaW1hZScsICc8aW5maWxlLm1hZT4nLCAnLW9tYWUnLCAnPG91dGZpbGUubWFlPic=

> <r_epik_Ionization_Penalty>
1.86966

> <r_epik_Ionization_Penalty_Charging>
1.86966

> <r_epik_Ionization_Penalty_Neutral>
5.0403e-08

> <r_epik_State_Penalty>
1.98858

> <r_epik_Charging_Adjusted_Penalty>
3.85824

> <i_epik_Tot_Q>
1

> <i_epik_Tot_abs_Q>
1

> <r_epik_Metal_State_Penalty>
2.01347

> <b_epik_Metal_Only>
0

> <s_lp_Force_Field>
OPLS_2005

> <r_lp_Energy>
11.3302

> <b_lp_Chiralities_Consistent>
1

> <s_lp_Variant>
AV-unprocessed.smi:1356-5

> <Gold.Version>
5.8.1

> <Gold.Id.Protein>
6NUR|6NUR_protein|mol2

> <Gold.PLP.Fitness>
51.0742

> <Gold.PLP.PLP>
-44.1765

> <Gold.PLP.part.hbond>
-3.0000

> <Gold.PLP.part.metal>
0.0000

> <Gold.PLP.part.buried>
-6.4563

> <Gold.PLP.part.nonpolar>
-34.4512

> <Gold.PLP.part.repulsive>
0.2254

> <Gold.PLP.ligand.clash>
0.0000

> <Gold.PLP.ligand.torsion>
0.4943

> <Gold.PLP.Chemscore.Hbond>
2.5680

> <Gold.PLP.Chemscore.CHOScore>
0.0000

> <Gold.PLP.Chemscore.Metal>
0.0000

> <Gold.Chemscore.Hbonds>
donor molecule, donor type, donor heavy atom, donor atom, acceptor molecule, acceptor atom, score
      L1  H     7    28       P1  7948  0.96
      P1  H  7997  8010       L1    11  1.00
      P1  H 10752 10764       L1     6  0.98

> <Gold.PLP.Chemscore.Internal.Correction>
0.1822

> <Gold.Rescore>
     Score         DG    S(hbond)    S(metal)    S(lipo)     H(rot)  DE(clash)    DE(int)     intcor
     19.42     -20.09       2.46        0.00     105.18       2.31       0.15       0.51       ----

> <Gold.Chemscore.Fitness>
19.4239

> <Gold.Chemscore.DG>
-20.0870

> <Gold.Chemscore.ZeroCoef>
-5.4800

> <Gold.Chemscore.Hbond>
2.4626

> <Gold.Chemscore.Metal>
0.0000

> <Gold.Chemscore.Lipo>
105.1775

> <Gold.Chemscore.Internal_Hbond>
0.0000

> <Gold.Chemscore.DEClash>
0.1535

> <Gold.Chemscore.DEInternal>
0.5096

> <Gold.Chemscore.Rot>
2.3140

> <Gold.Chemscore.Internal.Correction>
   9.000000E+99

> <Gold.Chemscore.Hbonds>
donor molecule, donor type, donor heavy atom, donor atom, acceptor molecule, acceptor atom, score
      L1  H     7    28       P1  7948  0.79
      P1  H  7997  8010       L1    11  0.94
      P1  H 10752 10764       L1     6  0.44

> <Gold.Chemscore.Hbond.Weighted>
-8.2250

> <Gold.Chemscore.Metal.Weighted>
-0.0000

> <Gold.Chemscore.Lipo.Weighted>
-12.3058

> <Gold.Chemscore.Internal_Hbond.Weighted>
0.0000

> <Gold.Chemscore.DEClash.Weighted>
0.1535

> <Gold.Chemscore.DEInternal.Weighted>
0.5096

> <Gold.Chemscore.Rot.Weighted>
5.9238

> <Gold.Chemscore.Internal.Correction.Weighted>
   9.000000E+99

> <Gold.Protein.RotatedTorsions>
[ 6907 6896 6895 6894 ] final  157.26 input  -60.11 | X-H torsion
[ 7974 7965 7964 7962 ] final   -7.03 input  175.53 | X-H torsion
[ 8008 7997 7996 7995 ] final   89.87 input   59.86 | X-H torsion
[ 10167 10162 10161 10158 ] final   17.66 input  -65.29 | X-H torsion
[ 10718 10713 10712 10709 ] final    3.28 input   66.30 | X-H torsion
[ 10763 10752 10751 10750 ] final  -38.44 input  -60.55 | X-H torsion
[ 11005 11000 10999 10996 ] final   73.75 input  -57.11 | X-H torsion

> <Gold.Protein.ActiveResidues>
 VAL166  LYS551  ARG553  GLY616  TRP617  ASP618  TYR619  PRO620  LYS621  CYS622 
 ASP623  PHE694  ASN695  SER759  ASP760  ASP761  ALA762  ILE779  LEU786  VAL792 
 PHE793  MET794  SER795  GLU796  ALA797  LYS798  CYS799  TRP800  GLU811  SER814 

> <Gold.Protein.RotatedAtoms>
  152.0177  133.3886  159.4245 H   0  0  0  0  0  0  0  0  0  0  0  0  # atno 6907 bound_to 6896
  150.6893  134.3660  159.4980 H   0  0  0  0  0  0  0  0  0  0  0  0  # atno 6908 bound_to 6896
  152.1429  134.9048  160.0603 H   0  0  0  0  0  0  0  0  0  0  0  0  # atno 6909 bound_to 6896
  146.2317  140.2259  142.8339 H   0  0  0  0  0  0  0  0  0  0  0  0  # atno 7974 bound_to 7965
  156.0051  140.3356  155.6885 H   0  0  0  0  0  0  0  0  0  0  0  0  # atno 8008 bound_to 7997
  155.6235  140.0677  157.2688 H   0  0  0  0  0  0  0  0  0  0  0  0  # atno 8009 bound_to 7997
  154.4262  140.1772  156.1385 H   0  0  0  0  0  0  0  0  0  0  0  0  # atno 8010 bound_to 7997
  140.5710  143.9161  150.6713 H   0  0  0  0  0  0  0  0  0  0  0  0  # atno 10167 bound_to 10162
  156.8755  130.5635  149.5655 H   0  0  0  0  0  0  0  0  0  0  0  0  # atno 10718 bound_to 10713
  153.9129  135.6790  153.4750 H   0  0  0  0  0  0  0  0  0  0  0  0  # atno 10763 bound_to 10752
  153.1069  135.4801  154.8964 H   0  0  0  0  0  0  0  0  0  0  0  0  # atno 10764 bound_to 10752
  154.7517  135.3186  154.8500 H   0  0  0  0  0  0  0  0  0  0  0  0  # atno 10765 bound_to 10752
  139.9424  134.7374  156.1064 H   0  0  0  0  0  0  0  0  0  0  0  0  # atno 11005 bound_to 11000
  144.9596  140.8261  143.5522 LP  0  0  0  0  0  0  0  0  0  0  0  0  # atno 17320 bound_to 7965
  145.2228  139.2151  143.5084 LP  0  0  0  0  0  0  0  0  0  0  0  0  # atno 17321 bound_to 7965
  140.2637  143.3506  152.1300 LP  0  0  0  0  0  0  0  0  0  0  0  0  # atno 17342 bound_to 10162
  139.5117  144.6905  151.5771 LP  0  0  0  0  0  0  0  0  0  0  0  0  # atno 17343 bound_to 10162
  156.0704  130.5738  150.9372 LP  0  0  0  0  0  0  0  0  0  0  0  0  # atno 17370 bound_to 10713
  157.6171  131.0932  150.8691 LP  0  0  0  0  0  0  0  0  0  0  0  0  # atno 17371 bound_to 10713
  141.1064  133.6658  156.2873 LP  0  0  0  0  0  0  0  0  0  0  0  0  # atno 17394 bound_to 11000
  140.5917  134.5643  157.5501 LP  0  0  0  0  0  0  0  0  0  0  0  0  # atno 17395 bound_to 11000

$$$$
