AV-unprocessed.smi:72|AV-procd|sdf|756|dock4
  -GOLD-   2262017 93D 1   1.00000     0.00000
 Structure written by MMmdl.
 29 30  0  0  0  0  0  0  0  0  1 V2000
  152.4610  140.7893  159.1220 N   0  0  0  0  0  0  0  0  0  0  0  0
  151.6733  140.8877  157.9944 C   0  0  0  0  0  0  0  0  0  0  0  0
  150.5559  141.7277  158.0865 N   0  0  0  0  0  0  0  0  0  0  0  0
  149.8183  141.8310  157.0267 C   0  0  0  0  0  0  0  0  0  0  0  0
  150.1526  141.1258  155.7984 N   0  0  0  0  0  0  0  0  0  0  0  0
  149.2987  141.2061  154.5413 C   0  0  1  0  0  0  0  0  0  0  0  0
  149.0331  139.9197  154.0611 O   0  0  0  0  0  0  0  0  0  0  0  0
  147.7561  139.4880  154.5212 C   0  0  2  0  0  0  0  0  0  0  0  0
  147.2474  138.2835  153.7102 C   0  0  0  0  0  0  0  0  0  0  0  0
  147.4107  138.5299  152.3297 O   0  0  0  0  0  0  0  0  0  0  0  0
  146.9290  140.7715  154.4032 C   0  0  2  0  0  0  0  0  0  0  0  0
  146.4728  140.9519  153.0713 O   0  0  0  0  0  0  0  0  0  0  0  0
  147.9247  141.8483  154.8396 C   0  0  2  0  0  0  0  0  0  0  0  0
  147.7226  143.0750  154.1632 O   0  0  0  0  0  0  0  0  0  0  0  0
  151.2808  140.2583  155.7933 C   0  0  0  0  0  0  0  0  0  0  0  0
  151.5537  139.6046  154.7867 O   0  0  0  0  0  0  0  0  0  0  0  0
  152.0471  140.1880  156.9625 N   0  0  0  0  0  0  0  0  0  0  0  0
  149.9085  141.7501  153.8177 H   0  0  0  0  0  0  0  0  0  0  0  0
  147.8178  139.2234  155.5786 H   0  0  0  0  0  0  0  0  0  0  0  0
  146.0561  140.7462  155.0564 H   0  0  0  0  0  0  0  0  0  0  0  0
  147.8257  142.0129  155.9137 H   0  0  0  0  0  0  0  0  0  0  0  0
  153.2886  140.2132  159.1728 H   0  0  0  0  0  0  0  0  0  0  0  0
  152.2709  141.2888  159.9783 H   0  0  0  0  0  0  0  0  0  0  0  0
  148.9170  142.4431  156.9993 H   0  0  0  0  0  0  0  0  0  0  0  0
  147.8288  137.3938  153.9537 H   0  0  0  0  0  0  0  0  0  0  0  0
  146.2030  138.0635  153.9339 H   0  0  0  0  0  0  0  0  0  0  0  0
  148.2288  138.9848  152.2007 H   0  0  0  0  0  0  0  0  0  0  0  0
  145.5679  140.6824  153.0292 H   0  0  0  0  0  0  0  0  0  0  0  0
  148.2594  143.7336  154.5775 H   0  0  0  0  0  0  0  0  0  0  0  0
  1  2  1  0  0  0  0
  1 22  1  0  0  0  0
  1 23  1  0  0  0  0
  2 17  2  0  0  0  0
  2  3  1  0  0  0  0
  3  4  2  0  0  0  0
  4  5  1  0  0  0  0
  4 24  1  0  0  0  0
  5  6  1  0  0  0  0
  5 15  1  0  0  0  0
  6 18  1  0  0  0  0
  6 13  1  0  0  0  0
  6  7  1  0  0  0  0
  7  8  1  0  0  0  0
  8 19  1  0  0  0  0
  8  9  1  0  0  0  0
  8 11  1  0  0  0  0
  9 10  1  0  0  0  0
  9 25  1  0  0  0  0
  9 26  1  0  0  0  0
 10 27  1  0  0  0  0
 11 20  1  0  0  0  0
 11 12  1  0  0  0  0
 11 13  1  0  0  0  0
 12 28  1  0  0  0  0
 13 21  1  0  0  0  0
 13 14  1  0  0  0  0
 14 29  1  0  0  0  0
 15 16  2  0  0  0  0
 15 17  1  0  0  0  0
M  END
> <s_m_source_file>
AV-unprocessed.smi

> <i_m_source_file_index>
72

> <i_lp_mmshare_version>
43012

> <i_f3d_flags>
0

> <s_epik_input>
W05IMl1jMW5bY0hdbihjKD1PKW4xKVtDQEBIXTJPW0NASF0oW0NIMl1bT0hdKVtDQEBIXShbT0hdKVtDQEhdMltPSF0=

> <s_epik_cmdline>
J2VwaWtfcHl0aG9uJywgJy1waCcsICc3LjAnLCAnLXRuJywgJzgnLCAnLW1hJywgJzIwMCcsICctbWV0YWxfYmluZGluZycsICctaW1hZScsICc8aW5maWxlLm1hZT4nLCAnLW9tYWUnLCAnPG91dGZpbGUubWFlPic=

> <r_lp_tautomer_probability>
4.77166e-05

> <r_epik_Ionization_Penalty>
1.3546

> <r_epik_Ionization_Penalty_Charging>
1.46833e-10

> <r_epik_Ionization_Penalty_Neutral>
1.3546

> <r_epik_State_Penalty>
3.51908

> <r_epik_Charging_Adjusted_Penalty>
3.51908

> <i_epik_Tot_Q>
0

> <i_epik_Tot_abs_Q>
0

> <r_epik_Metal_State_Penalty>
3.44088

> <b_epik_Metal_Only>
1

> <s_epik_Chemistry_Notes>
This compound contains an acetal/aminal-like group ( X-CH(R)-Y where X, Y are N, S, or O) that may be acid/base labile, releasing an aldehyde.

> <s_lp_Force_Field>
OPLS_2005

> <r_lp_Energy>
31.1202

> <b_lp_Chiralities_Consistent>
1

> <s_lp_Variant>
AV-unprocessed.smi:72-94

> <Gold.Version>
5.8.1

> <Gold.Id.Protein>
6NUR|6NUR_protein|mol2

> <Gold.PLP.Fitness>
40.9020

> <Gold.PLP.PLP>
-24.9643

> <Gold.PLP.part.hbond>
-7.4886

> <Gold.PLP.part.metal>
0.0000

> <Gold.PLP.part.buried>
0.3099

> <Gold.PLP.part.nonpolar>
-17.3721

> <Gold.PLP.part.repulsive>
1.5755

> <Gold.PLP.ligand.clash>
0.0000

> <Gold.PLP.ligand.torsion>
0.3632

> <Gold.PLP.Chemscore.Hbond>
4.6488

> <Gold.PLP.Chemscore.CHOScore>
0.8968

> <Gold.PLP.Chemscore.Metal>
0.0000

> <Gold.Chemscore.Hbonds>
donor molecule, donor type, donor heavy atom, donor atom, acceptor molecule, acceptor atom, score
      L1  H    10    27       P1  7957  1.00
      L1  H    12    28       P1 10175  1.00
      L1  H    14    29       P1  8028  1.00
      P1  H  7989  7998       L1    16  1.00
      P1  H  7997  8009       L1    17  0.23
      L1  C     4    24       P1  8028  0.60

> <Gold.PLP.Chemscore.Internal.Correction>
0.0275

> <Gold.Rescore>
     Score         DG    S(hbond)    S(metal)    S(lipo)     H(rot)  DE(clash)    DE(int)     intcor
      7.77     -10.10       3.88        0.00      17.64       4.06       0.52       1.81       ----

> <Gold.Chemscore.Fitness>
7.7680

> <Gold.Chemscore.DG>
-10.0979

> <Gold.Chemscore.ZeroCoef>
-5.4800

> <Gold.Chemscore.Hbond>
3.8765

> <Gold.Chemscore.Metal>
0.0000

> <Gold.Chemscore.Lipo>
17.6404

> <Gold.Chemscore.Internal_Hbond>
0.0000

> <Gold.Chemscore.DEClash>
0.5233

> <Gold.Chemscore.DEInternal>
1.8066

> <Gold.Chemscore.Rot>
4.0600

> <Gold.Chemscore.Internal.Correction>
   9.000000E+99

> <Gold.Chemscore.Hbonds>
donor molecule, donor type, donor heavy atom, donor atom, acceptor molecule, acceptor atom, score
      L1  H    10    27       P1  7957  0.93
      L1  H    12    28       P1 10175  0.69
      L1  H    14    29       P1  8028  0.85
      P1  H  7989  7998       L1    16  0.39
      P1  H  7997  8009       L1    17  0.17

> <Gold.Chemscore.Hbond.Weighted>
-12.9476

> <Gold.Chemscore.Metal.Weighted>
-0.0000

> <Gold.Chemscore.Lipo.Weighted>
-2.0639

> <Gold.Chemscore.Internal_Hbond.Weighted>
0.0000

> <Gold.Chemscore.DEClash.Weighted>
0.5233

> <Gold.Chemscore.DEInternal.Weighted>
1.8066

> <Gold.Chemscore.Rot.Weighted>
10.3936

> <Gold.Chemscore.Internal.Correction.Weighted>
   9.000000E+99

> <Gold.Protein.RotatedTorsions>
[ 6907 6896 6895 6894 ] final   31.09 input  -60.11 | X-H torsion
[ 7974 7965 7964 7962 ] final  129.91 input  175.53 | X-H torsion
[ 8008 7997 7996 7995 ] final -169.30 input   59.86 | X-H torsion
[ 10167 10162 10161 10158 ] final  145.73 input  -65.29 | X-H torsion
[ 10718 10713 10712 10709 ] final   82.47 input   66.30 | X-H torsion
[ 10763 10752 10751 10750 ] final -125.69 input  -60.55 | X-H torsion
[ 11005 11000 10999 10996 ] final -172.80 input  -57.11 | X-H torsion

> <Gold.Protein.ActiveResidues>
 VAL166  LYS551  ARG553  GLY616  TRP617  ASP618  TYR619  PRO620  LYS621  CYS622 
 ASP623  PHE694  ASN695  SER759  ASP760  ASP761  ALA762  ILE779  LEU786  VAL792 
 PHE793  MET794  SER795  GLU796  ALA797  LYS798  CYS799  TRP800  GLU811  SER814 

> <Gold.Protein.RotatedAtoms>
  152.0553  134.9628  160.0574 H   0  0  0  0  0  0  0  0  0  0  0  0  # atno 6907 bound_to 6896
  152.1013  133.4246  159.4596 H   0  0  0  0  0  0  0  0  0  0  0  0  # atno 6908 bound_to 6896
  150.6839  134.2676  159.4618 H   0  0  0  0  0  0  0  0  0  0  0  0  # atno 6909 bound_to 6896
  145.0236  139.4109  143.5185 H   0  0  0  0  0  0  0  0  0  0  0  0  # atno 7974 bound_to 7965
  155.9031  140.1044  157.1335 H   0  0  0  0  0  0  0  0  0  0  0  0  # atno 8008 bound_to 7997
  154.4029  140.1289  156.4526 H   0  0  0  0  0  0  0  0  0  0  0  0  # atno 8009 bound_to 7997
  155.7399  140.3467  155.5101 H   0  0  0  0  0  0  0  0  0  0  0  0  # atno 8010 bound_to 7997
  139.4920  144.5881  151.6737 H   0  0  0  0  0  0  0  0  0  0  0  0  # atno 10167 bound_to 10162
  157.6858  131.0049  150.2380 H   0  0  0  0  0  0  0  0  0  0  0  0  # atno 10718 bound_to 10713
  154.8738  135.4021  154.3309 H   0  0  0  0  0  0  0  0  0  0  0  0  # atno 10763 bound_to 10752
  153.4123  135.7021  153.6356 H   0  0  0  0  0  0  0  0  0  0  0  0  # atno 10764 bound_to 10752
  153.5054  135.3719  155.2531 H   0  0  0  0  0  0  0  0  0  0  0  0  # atno 10765 bound_to 10752
  140.4929  134.5967  157.4961 H   0  0  0  0  0  0  0  0  0  0  0  0  # atno 11005 bound_to 11000
  146.3489  139.9747  142.8702 LP  0  0  0  0  0  0  0  0  0  0  0  0  # atno 17320 bound_to 7965
  145.1863  140.9791  143.4237 LP  0  0  0  0  0  0  0  0  0  0  0  0  # atno 17321 bound_to 7965
  140.5501  144.0439  150.6123 LP  0  0  0  0  0  0  0  0  0  0  0  0  # atno 17342 bound_to 10162
  140.3490  143.2974  152.0507 LP  0  0  0  0  0  0  0  0  0  0  0  0  # atno 17343 bound_to 10162
  156.3000  130.3757  149.7759 LP  0  0  0  0  0  0  0  0  0  0  0  0  # atno 17370 bound_to 10713
  156.5393  130.8292  151.3263 LP  0  0  0  0  0  0  0  0  0  0  0  0  # atno 17371 bound_to 10713
  139.9758  134.7217  155.9952 LP  0  0  0  0  0  0  0  0  0  0  0  0  # atno 17394 bound_to 11000
  141.1475  133.6553  156.3911 LP  0  0  0  0  0  0  0  0  0  0  0  0  # atno 17395 bound_to 11000

$$$$
