AV-unprocessed.smi:1240|AV-procd|sdf|5212|dock5
  -GOLD-   22720 4303D 1   1.00000     0.00000
 Structure written by MMmdl.
 48 50  0  0  0  0  0  0  0  0  4 V2000
  147.4906  132.9414  153.1274 O   0  0  0  0  0  0  0  0  0  0  0  0
  147.2176  131.7436  152.9878 C   0  0  0  0  0  0  0  0  0  0  0  0
  147.8503  130.6784  153.5474 N   0  5  0  0  0  0  0  0  0  0  0  0
  147.5319  129.2795  153.2626 C   0  0  0  0  0  0  0  0  0  0  0  0
  148.8386  128.4491  153.0024 C   0  0  1  0  0  0  0  0  0  0  0  0
  149.8978  128.5152  154.1527 C   0  0  2  0  0  0  0  0  0  0  0  0
  150.6868  129.8137  154.2917 C   0  0  0  0  0  0  0  0  0  0  0  0
  151.9028  129.3862  155.1069 C   0  0  0  0  0  0  0  0  0  0  0  0
  152.1260  128.0189  154.7841 O   0  0  0  0  0  0  0  0  0  0  0  0
  151.0655  127.5369  153.9685 C   0  0  0  0  0  0  0  0  0  0  0  0
  148.5942  127.0114  152.6260 N   0  3  0  0  0  0  0  0  0  0  0  0
  148.2227  126.0552  153.7073 C   0  0  0  0  0  0  0  0  0  0  0  0
  148.3121  124.6141  153.1801 C   0  0  0  0  0  0  0  0  0  0  0  0
  147.4748  124.4679  152.0386 O   0  0  0  0  0  0  0  0  0  0  0  0
  147.8706  125.3189  150.9689 C   0  0  0  0  0  0  0  0  0  0  0  0
  147.7689  126.7885  151.4088 C   0  0  0  0  0  0  0  0  0  0  0  0
  146.1721  131.3693  152.2289 N   0  0  0  0  0  0  0  0  0  0  0  0
  145.2661  132.1812  151.4954 C   0  0  0  0  0  0  0  0  0  0  0  0
  145.7064  133.4634  151.1004 C   0  0  0  0  0  0  0  0  0  0  0  0
  144.8332  134.3076  150.3849 C   0  0  0  0  0  0  0  0  0  0  0  0
  143.5816  133.8908  150.0959 N   0  3  0  0  0  0  0  0  0  0  0  0
  143.1099  132.6818  150.4696 C   0  0  0  0  0  0  0  0  0  0  0  0
  143.9377  131.7942  151.1865 C   0  0  0  0  0  0  0  0  0  0  0  0
  146.9670  128.8147  154.0711 H   0  0  0  0  0  0  0  0  0  0  0  0
  146.8905  129.2052  152.3841 H   0  0  0  0  0  0  0  0  0  0  0  0
  149.3213  128.8832  152.1250 H   0  0  0  0  0  0  0  0  0  0  0  0
  149.4299  128.3016  155.1160 H   0  0  0  0  0  0  0  0  0  0  0  0
  151.0033  130.1731  153.3113 H   0  0  0  0  0  0  0  0  0  0  0  0
  150.1277  130.6118  154.7813 H   0  0  0  0  0  0  0  0  0  0  0  0
  152.7807  129.9956  154.8920 H   0  0  0  0  0  0  0  0  0  0  0  0
  151.6917  129.4595  156.1743 H   0  0  0  0  0  0  0  0  0  0  0  0
  150.8038  126.5137  154.2393 H   0  0  0  0  0  0  0  0  0  0  0  0
  151.4050  127.5334  152.9317 H   0  0  0  0  0  0  0  0  0  0  0  0
  148.8855  126.1670  154.5648 H   0  0  0  0  0  0  0  0  0  0  0  0
  147.2075  126.2456  154.0578 H   0  0  0  0  0  0  0  0  0  0  0  0
  149.3415  124.3554  152.9270 H   0  0  0  0  0  0  0  0  0  0  0  0
  147.9874  123.9126  153.9484 H   0  0  0  0  0  0  0  0  0  0  0  0
  148.8866  125.0768  150.6528 H   0  0  0  0  0  0  0  0  0  0  0  0
  147.2195  125.1375  150.1136 H   0  0  0  0  0  0  0  0  0  0  0  0
  146.7252  127.0375  151.6033 H   0  0  0  0  0  0  0  0  0  0  0  0
  148.1090  127.4355  150.5995 H   0  0  0  0  0  0  0  0  0  0  0  0
  145.9572  130.3833  152.2487 H   0  0  0  0  0  0  0  0  0  0  0  0
  146.7075  133.7954  151.3350 H   0  0  0  0  0  0  0  0  0  0  0  0
  145.0964  135.2964  150.0393 H   0  0  0  0  0  0  0  0  0  0  0  0
  142.0893  132.4632  150.1913 H   0  0  0  0  0  0  0  0  0  0  0  0
  143.5392  130.8399  151.4965 H   0  0  0  0  0  0  0  0  0  0  0  0
  149.5122  126.7041  152.3398 H   0  0  0  0  0  0  0  0  0  0  0  0
  142.9647  134.5174  149.5785 H   0  0  0  0  0  0  0  0  0  0  0  0
  1  2  2  0  0  0  0
  2  3  1  0  0  0  0
  2 17  1  0  0  0  0
  3  4  1  0  0  0  0
  4  5  1  0  0  0  0
  4 24  1  0  0  0  0
  4 25  1  0  0  0  0
  5  6  1  0  0  0  0
  5 11  1  0  0  0  0
  5 26  1  0  0  0  0
  6 10  1  0  0  0  0
  6  7  1  0  0  0  0
  6 27  1  0  0  0  0
  7  8  1  0  0  0  0
  7 28  1  0  0  0  0
  7 29  1  0  0  0  0
  8  9  1  0  0  0  0
  8 30  1  0  0  0  0
  8 31  1  0  0  0  0
  9 10  1  0  0  0  0
 10 32  1  0  0  0  0
 10 33  1  0  0  0  0
 11 16  1  0  0  0  0
 11 12  1  0  0  0  0
 11 47  1  0  0  0  0
 12 13  1  0  0  0  0
 12 34  1  0  0  0  0
 12 35  1  0  0  0  0
 13 14  1  0  0  0  0
 13 36  1  0  0  0  0
 13 37  1  0  0  0  0
 14 15  1  0  0  0  0
 15 16  1  0  0  0  0
 15 38  1  0  0  0  0
 15 39  1  0  0  0  0
 16 40  1  0  0  0  0
 16 41  1  0  0  0  0
 17 18  1  0  0  0  0
 17 42  1  0  0  0  0
 18 23  1  0  0  0  0
 18 19  2  0  0  0  0
 19 20  1  0  0  0  0
 19 43  1  0  0  0  0
 20 21  2  0  0  0  0
 20 44  1  0  0  0  0
 21 22  1  0  0  0  0
 21 48  1  0  0  0  0
 22 23  2  0  0  0  0
 22 45  1  0  0  0  0
 23 46  1  0  0  0  0
M  CHG  1   3  -1
M  CHG  1  11   1
M  CHG  1  21   1
M  END
> <s_m_source_file>
AV-unprocessed.smi

> <i_m_source_file_index>
1240

> <i_lp_mmshare_version>
43012

> <i_f3d_flags>
0

> <s_epik_input>
W2NIXTFbY0hdbltjSF1bY0hdYzFbTkhdQyg9TylbTkhdW0NIMl1bQ0BIXShbQ0BASF0yW0NIMl1bQ0gyXU9bQ0gyXTIpTjNbQ0gyXVtDSDJdT1tDSDJdW0NIMl0z

> <s_epik_cmdline>
J2VwaWtfcHl0aG9uJywgJy1waCcsICc3LjAnLCAnLXRuJywgJzgnLCAnLW1hJywgJzIwMCcsICctbWV0YWxfYmluZGluZycsICctaW1hZScsICc8aW5maWxlLm1hZT4nLCAnLW9tYWUnLCAnPG91dGZpbGUubWFlPic=

> <r_epik_Ionization_Penalty>
8.41087

> <r_epik_Ionization_Penalty_Charging>
8.41087

> <r_epik_Ionization_Penalty_Neutral>
3.12936e-06

> <r_epik_State_Penalty>
8.81894

> <r_epik_Charging_Adjusted_Penalty>
17.2298

> <i_epik_Tot_Q>
1

> <i_epik_Tot_abs_Q>
3

> <r_epik_Metal_State_Penalty>
4.82983

> <b_epik_Metal_Only>
1

> <s_lp_Force_Field>
OPLS_2005

> <r_lp_Energy>
48.6891

> <b_lp_Chiralities_Consistent>
1

> <s_lp_Variant>
AV-unprocessed.smi:1240-18

> <Gold.Version>
5.8.1

> <Gold.Id.Protein>
6NUR|6NUR_protein|mol2

> <Gold.PLP.Fitness>
37.2224

> <Gold.PLP.PLP>
-33.8399

> <Gold.PLP.part.hbond>
-2.0000

> <Gold.PLP.part.metal>
0.0000

> <Gold.PLP.part.buried>
-1.5819

> <Gold.PLP.part.nonpolar>
-30.9029

> <Gold.PLP.part.repulsive>
0.3916

> <Gold.PLP.ligand.clash>
1.8376

> <Gold.PLP.ligand.torsion>
0.6117

> <Gold.PLP.Chemscore.Hbond>
2.0150

> <Gold.PLP.Chemscore.CHOScore>
0.0000

> <Gold.PLP.Chemscore.Metal>
0.0000

> <Gold.Chemscore.Hbonds>
donor molecule, donor type, donor heavy atom, donor atom, acceptor molecule, acceptor atom, score
      L1  H    21    48       P1 10186  1.06

> <Gold.PLP.Chemscore.Internal.Correction>
0.3984

> <Gold.Rescore>
     Score         DG    S(hbond)    S(metal)    S(lipo)     H(rot)  DE(clash)    DE(int)     intcor
     14.04     -16.99       1.69        0.00      87.46       1.70       0.14       2.80       ----

> <Gold.Chemscore.Fitness>
14.0446

> <Gold.Chemscore.DG>
-16.9918

> <Gold.Chemscore.ZeroCoef>
-5.4800

> <Gold.Chemscore.Hbond>
1.6876

> <Gold.Chemscore.Metal>
0.0000

> <Gold.Chemscore.Lipo>
87.4580

> <Gold.Chemscore.Internal_Hbond>
0.0000

> <Gold.Chemscore.DEClash>
0.1441

> <Gold.Chemscore.DEInternal>
2.8031

> <Gold.Chemscore.Rot>
1.7021

> <Gold.Chemscore.Internal.Correction>
   9.000000E+99

> <Gold.Chemscore.Hbonds>
donor molecule, donor type, donor heavy atom, donor atom, acceptor molecule, acceptor atom, score
      L1  H    21    48       P1 10186  0.50

> <Gold.Chemscore.Hbond.Weighted>
-5.6367

> <Gold.Chemscore.Metal.Weighted>
-0.0000

> <Gold.Chemscore.Lipo.Weighted>
-10.2326

> <Gold.Chemscore.Internal_Hbond.Weighted>
0.0000

> <Gold.Chemscore.DEClash.Weighted>
0.1441

> <Gold.Chemscore.DEInternal.Weighted>
2.8031

> <Gold.Chemscore.Rot.Weighted>
4.3575

> <Gold.Chemscore.Internal.Correction.Weighted>
   9.000000E+99

> <Gold.Protein.RotatedTorsions>
[ 6907 6896 6895 6894 ] final   84.54 input  -60.11 | X-H torsion
[ 7974 7965 7964 7962 ] final  -67.21 input  175.53 | X-H torsion
[ 8008 7997 7996 7995 ] final   38.33 input   59.86 | X-H torsion
[ 10167 10162 10161 10158 ] final  116.42 input  -65.29 | X-H torsion
[ 10718 10713 10712 10709 ] final  -29.42 input   66.30 | X-H torsion
[ 10763 10752 10751 10750 ] final -106.43 input  -60.55 | X-H torsion
[ 11005 11000 10999 10996 ] final -104.75 input  -57.11 | X-H torsion

> <Gold.Protein.ActiveResidues>
 VAL166  LYS551  ARG553  GLY616  TRP617  ASP618  TYR619  PRO620  LYS621  CYS622 
 ASP623  PHE694  ASN695  SER759  ASP760  ASP761  ALA762  ILE779  LEU786  VAL792 
 PHE793  MET794  SER795  GLU796  ALA797  LYS798  CYS799  TRP800  GLU811  SER814 

> <Gold.Protein.RotatedAtoms>
  152.5355  134.2725  159.8976 H   0  0  0  0  0  0  0  0  0  0  0  0  # atno 6907 bound_to 6896
  151.2681  133.4262  159.2627 H   0  0  0  0  0  0  0  0  0  0  0  0  # atno 6908 bound_to 6896
  151.0392  134.9610  159.8209 H   0  0  0  0  0  0  0  0  0  0  0  0  # atno 6909 bound_to 6896
  145.7320  140.8992  143.0575 H   0  0  0  0  0  0  0  0  0  0  0  0  # atno 7974 bound_to 7965
  155.2184  140.3329  155.4319 H   0  0  0  0  0  0  0  0  0  0  0  0  # atno 8008 bound_to 7997
  156.2343  140.1865  156.7209 H   0  0  0  0  0  0  0  0  0  0  0  0  # atno 8009 bound_to 7997
  154.6031  140.0620  156.9381 H   0  0  0  0  0  0  0  0  0  0  0  0  # atno 8010 bound_to 7997
  139.6249  144.7107  151.2556 H   0  0  0  0  0  0  0  0  0  0  0  0  # atno 10167 bound_to 10162
  156.4127  130.4411  149.7240 H   0  0  0  0  0  0  0  0  0  0  0  0  # atno 10718 bound_to 10713
  154.8012  135.4712  154.0280 H   0  0  0  0  0  0  0  0  0  0  0  0  # atno 10763 bound_to 10752
  153.1784  135.6836  153.8518 H   0  0  0  0  0  0  0  0  0  0  0  0  # atno 10764 bound_to 10752
  153.8077  135.3221  155.3375 H   0  0  0  0  0  0  0  0  0  0  0  0  # atno 10765 bound_to 10752
  141.1086  133.8750  157.1650 H   0  0  0  0  0  0  0  0  0  0  0  0  # atno 11005 bound_to 11000
  144.6890  139.9344  143.7473 LP  0  0  0  0  0  0  0  0  0  0  0  0  # atno 17320 bound_to 7965
  146.0528  139.3528  143.0629 LP  0  0  0  0  0  0  0  0  0  0  0  0  # atno 17321 bound_to 7965
  140.7404  143.6587  150.8183 LP  0  0  0  0  0  0  0  0  0  0  0  0  # atno 17342 bound_to 10162
  140.0203  143.5549  152.2803 LP  0  0  0  0  0  0  0  0  0  0  0  0  # atno 17343 bound_to 10162
  156.4212  130.7770  151.2787 LP  0  0  0  0  0  0  0  0  0  0  0  0  # atno 17370 bound_to 10713
  157.7507  131.0182  150.3617 LP  0  0  0  0  0  0  0  0  0  0  0  0  # atno 17371 bound_to 10713
  139.9968  135.0044  157.0100 LP  0  0  0  0  0  0  0  0  0  0  0  0  # atno 17394 bound_to 11000
  140.4837  134.1264  155.7221 LP  0  0  0  0  0  0  0  0  0  0  0  0  # atno 17395 bound_to 11000

$$$$
