AV-unprocessed.smi:69|AV-procd|sdf|649|dock6
  -GOLD-   2262016543D 1   1.00000     0.00000
 Structure written by MMmdl.
 32 34  0  0  0  0  0  0  0  0  1 V2000
  153.7352  137.9282  155.7598 N   0  0  0  0  0  0  0  0  0  0  0  0
  152.4540  138.1376  155.4273 C   0  0  0  0  0  0  0  0  0  0  0  0
  151.7802  137.1402  154.8100 N   0  0  0  0  0  0  0  0  0  0  0  0
  150.5006  137.3240  154.4736 C   0  0  0  0  0  0  0  0  0  0  0  0
  149.7362  138.4023  154.6604 N   0  0  0  0  0  0  0  0  0  0  0  0
  150.4122  139.4131  155.2832 C   0  0  0  0  0  0  0  0  0  0  0  0
  151.7737  139.3523  155.6961 C   0  0  0  0  0  0  0  0  0  0  0  0
  152.1420  140.5453  156.2981 N   0  0  0  0  0  0  0  0  0  0  0  0
  151.0550  141.2654  156.2512 C   0  0  0  0  0  0  0  0  0  0  0  0
  149.9652  140.6747  155.6464 N   0  0  0  0  0  0  0  0  0  0  0  0
  148.5976  141.2908  155.5048 C   0  0  2  0  0  0  0  0  0  0  0  0
  147.6534  140.3655  155.9389 O   0  0  0  0  0  0  0  0  0  0  0  0
  147.1467  139.6389  154.8289 C   0  0  1  0  0  0  0  0  0  0  0  0
  145.7668  139.0599  155.1749 C   0  0  0  0  0  0  0  0  0  0  0  0
  144.7808  140.0659  155.0834 O   0  0  0  0  0  0  0  0  0  0  0  0
  147.1011  140.6980  153.7164 C   0  0  2  0  0  0  0  0  0  0  0  0
  147.3207  140.0965  152.4563 O   0  0  0  0  0  0  0  0  0  0  0  0
  148.2327  141.6724  154.0584 C   0  0  1  0  0  0  0  0  0  0  0  0
  147.7647  143.0044  153.9801 O   0  0  0  0  0  0  0  0  0  0  0  0
  148.6231  142.1438  156.1849 H   0  0  0  0  0  0  0  0  0  0  0  0
  147.8402  138.8383  154.5718 H   0  0  0  0  0  0  0  0  0  0  0  0
  146.1355  141.2067  153.7207 H   0  0  0  0  0  0  0  0  0  0  0  0
  149.0984  141.5818  153.4033 H   0  0  0  0  0  0  0  0  0  0  0  0
  154.2587  138.6565  156.2241 H   0  0  0  0  0  0  0  0  0  0  0  0
  154.1708  137.0411  155.5536 H   0  0  0  0  0  0  0  0  0  0  0  0
  150.0194  136.4889  153.9864 H   0  0  0  0  0  0  0  0  0  0  0  0
  151.0180  142.2625  156.6656 H   0  0  0  0  0  0  0  0  0  0  0  0
  145.5147  138.2186  154.5289 H   0  0  0  0  0  0  0  0  0  0  0  0
  145.7630  138.6931  156.2016 H   0  0  0  0  0  0  0  0  0  0  0  0
  144.6536  140.2804  154.1720 H   0  0  0  0  0  0  0  0  0  0  0  0
  148.2102  140.2744  152.1913 H   0  0  0  0  0  0  0  0  0  0  0  0
  148.1694  143.5053  154.6718 H   0  0  0  0  0  0  0  0  0  0  0  0
  1  2  1  0  0  0  0
  1 24  1  0  0  0  0
  1 25  1  0  0  0  0
  2  7  1  0  0  0  0
  2  3  2  0  0  0  0
  3  4  1  0  0  0  0
  4  5  2  0  0  0  0
  4 26  1  0  0  0  0
  5  6  1  0  0  0  0
  6 10  1  0  0  0  0
  6  7  2  0  0  0  0
  7  8  1  0  0  0  0
  8  9  2  0  0  0  0
  9 10  1  0  0  0  0
  9 27  1  0  0  0  0
 10 11  1  0  0  0  0
 11 20  1  0  0  0  0
 11 18  1  0  0  0  0
 11 12  1  0  0  0  0
 12 13  1  0  0  0  0
 13 21  1  0  0  0  0
 13 14  1  0  0  0  0
 13 16  1  0  0  0  0
 14 15  1  0  0  0  0
 14 28  1  0  0  0  0
 14 29  1  0  0  0  0
 15 30  1  0  0  0  0
 16 22  1  0  0  0  0
 16 17  1  0  0  0  0
 16 18  1  0  0  0  0
 17 31  1  0  0  0  0
 18 23  1  0  0  0  0
 18 19  1  0  0  0  0
 19 32  1  0  0  0  0
M  END
> <s_m_source_file>
AV-unprocessed.smi

> <i_m_source_file_index>
69

> <i_lp_mmshare_version>
43012

> <i_f3d_flags>
0

> <s_epik_input>
bjFbY0hdbmMoW05IMl0pYyhjMTIpbltjSF1uMltDQEBIXTNPW0NASF0oW0NIMl1bT0hdKVtDQEBIXShbT0hdKVtDQEhdM1tPSF0=

> <s_epik_cmdline>
J2VwaWtfcHl0aG9uJywgJy1waCcsICc3LjAnLCAnLXRuJywgJzgnLCAnLW1hJywgJzIwMCcsICctbWV0YWxfYmluZGluZycsICctaW1hZScsICc8aW5maWxlLm1hZT4nLCAnLW9tYWUnLCAnPG91dGZpbGUubWFlPic=

> <r_lp_tautomer_probability>
1

> <r_epik_Ionization_Penalty>
0.000428445

> <r_epik_Ionization_Penalty_Charging>
0

> <r_epik_Ionization_Penalty_Neutral>
0.000428445

> <r_epik_State_Penalty>
-0

> <r_epik_Charging_Adjusted_Penalty>
0

> <i_epik_Tot_Q>
0

> <i_epik_Tot_abs_Q>
0

> <r_epik_Metal_State_Penalty>
-0

> <b_epik_Metal_Only>
0

> <s_epik_Chemistry_Notes>
This compound contains an acetal/aminal-like group ( X-CH(R)-Y where X, Y are N, S, or O) that may be acid/base labile, releasing an aldehyde.

> <s_lp_Force_Field>
OPLS_2005

> <r_lp_Energy>
31.8637

> <b_lp_Chiralities_Consistent>
1

> <s_lp_Variant>
AV-unprocessed.smi:69-7

> <Gold.Version>
5.8.1

> <Gold.Id.Protein>
6NUR|6NUR_protein|mol2

> <Gold.PLP.Fitness>
40.7542

> <Gold.PLP.PLP>
-25.1761

> <Gold.PLP.part.hbond>
-6.7868

> <Gold.PLP.part.metal>
0.0000

> <Gold.PLP.part.buried>
0.3823

> <Gold.PLP.part.nonpolar>
-21.2345

> <Gold.PLP.part.repulsive>
1.8653

> <Gold.PLP.ligand.clash>
0.0000

> <Gold.PLP.ligand.torsion>
0.4566

> <Gold.PLP.Chemscore.Hbond>
4.5195

> <Gold.PLP.Chemscore.CHOScore>
0.9707

> <Gold.PLP.Chemscore.Metal>
0.0000

> <Gold.Chemscore.Hbonds>
donor molecule, donor type, donor heavy atom, donor atom, acceptor molecule, acceptor atom, score
      L1  H    15    30       P1 10175  1.00
      L1  H    17    31       P1  7957  1.00
      L1  H    19    32       P1  8028  1.00
      P1  H  7997  8009       L1     8  0.42
      P1  H 10752 10763       L1     3  0.99
      L1  C     4    26       P1  7948  1.00

> <Gold.PLP.Chemscore.Internal.Correction>
0.0206

> <Gold.Rescore>
     Score         DG    S(hbond)    S(metal)    S(lipo)     H(rot)  DE(clash)    DE(int)     intcor
      7.01     -10.83       3.82        0.00      24.92       4.03       2.06       1.75       ----

> <Gold.Chemscore.Fitness>
7.0118

> <Gold.Chemscore.DG>
-10.8272

> <Gold.Chemscore.ZeroCoef>
-5.4800

> <Gold.Chemscore.Hbond>
3.8153

> <Gold.Chemscore.Metal>
0.0000

> <Gold.Chemscore.Lipo>
24.9158

> <Gold.Chemscore.Internal_Hbond>
0.0000

> <Gold.Chemscore.DEClash>
2.0617

> <Gold.Chemscore.DEInternal>
1.7537

> <Gold.Chemscore.Rot>
4.0277

> <Gold.Chemscore.Internal.Correction>
   9.000000E+99

> <Gold.Chemscore.Hbonds>
donor molecule, donor type, donor heavy atom, donor atom, acceptor molecule, acceptor atom, score
      L1  H    15    30       P1 10175  0.98
      L1  H    17    31       P1  7957  0.96
      L1  H    19    32       P1  8028  0.91
      P1  H  7997  8009       L1     8  0.07
      P1  H 10752 10763       L1     3  0.77

> <Gold.Chemscore.Hbond.Weighted>
-12.7430

> <Gold.Chemscore.Metal.Weighted>
-0.0000

> <Gold.Chemscore.Lipo.Weighted>
-2.9151

> <Gold.Chemscore.Internal_Hbond.Weighted>
0.0000

> <Gold.Chemscore.DEClash.Weighted>
2.0617

> <Gold.Chemscore.DEInternal.Weighted>
1.7537

> <Gold.Chemscore.Rot.Weighted>
10.3110

> <Gold.Chemscore.Internal.Correction.Weighted>
   9.000000E+99

> <Gold.Protein.RotatedTorsions>
[ 6907 6896 6895 6894 ] final -171.92 input  -60.11 | X-H torsion
[ 7974 7965 7964 7962 ] final   68.17 input  175.53 | X-H torsion
[ 8008 7997 7996 7995 ] final -162.04 input   59.86 | X-H torsion
[ 10167 10162 10161 10158 ] final -130.27 input  -65.29 | X-H torsion
[ 10718 10713 10712 10709 ] final  111.14 input   66.30 | X-H torsion
[ 10763 10752 10751 10750 ] final   43.07 input  -60.55 | X-H torsion
[ 11005 11000 10999 10996 ] final -122.65 input  -57.11 | X-H torsion

> <Gold.Protein.ActiveResidues>
 VAL166  LYS551  ARG553  GLY616  TRP617  ASP618  TYR619  PRO620  LYS621  CYS622 
 ASP623  PHE694  ASN695  SER759  ASP760  ASP761  ALA762  ILE779  LEU786  VAL792 
 PHE793  MET794  SER795  GLU796  ALA797  LYS798  CYS799  TRP800  GLU811  SER814 

> <Gold.Protein.RotatedAtoms>
  151.5316  133.3448  159.2918 H   0  0  0  0  0  0  0  0  0  0  0  0  # atno 6907 bound_to 6896
  150.8590  134.7939  159.7079 H   0  0  0  0  0  0  0  0  0  0  0  0  # atno 6908 bound_to 6896
  152.4615  134.5181  159.9826 H   0  0  0  0  0  0  0  0  0  0  0  0  # atno 6909 bound_to 6896
  145.8059  139.3006  143.1128 H   0  0  0  0  0  0  0  0  0  0  0  0  # atno 7974 bound_to 7965
  155.8010  140.0892  157.1957 H   0  0  0  0  0  0  0  0  0  0  0  0  # atno 8008 bound_to 7997
  154.3982  140.1472  156.3333 H   0  0  0  0  0  0  0  0  0  0  0  0  # atno 8009 bound_to 7997
  155.8462  140.3436  155.5666 H   0  0  0  0  0  0  0  0  0  0  0  0  # atno 8010 bound_to 7997
  139.9311  143.6271  152.2529 H   0  0  0  0  0  0  0  0  0  0  0  0  # atno 10167 bound_to 10162
  157.6460  131.0945  150.6704 H   0  0  0  0  0  0  0  0  0  0  0  0  # atno 10718 bound_to 10713
  152.9868  135.6112  154.3052 H   0  0  0  0  0  0  0  0  0  0  0  0  # atno 10763 bound_to 10752
  154.2770  135.2778  155.2715 H   0  0  0  0  0  0  0  0  0  0  0  0  # atno 10764 bound_to 10752
  154.5072  135.5851  153.6633 H   0  0  0  0  0  0  0  0  0  0  0  0  # atno 10765 bound_to 10752
  140.9979  134.0445  157.3574 H   0  0  0  0  0  0  0  0  0  0  0  0  # atno 11005 bound_to 11000
  145.9829  140.8667  143.0105 LP  0  0  0  0  0  0  0  0  0  0  0  0  # atno 17320 bound_to 7965
  144.6763  140.2106  143.7377 LP  0  0  0  0  0  0  0  0  0  0  0  0  # atno 17321 bound_to 7965
  139.6781  144.7657  151.1658 LP  0  0  0  0  0  0  0  0  0  0  0  0  # atno 17342 bound_to 10162
  140.7637  143.5764  150.8941 LP  0  0  0  0  0  0  0  0  0  0  0  0  # atno 17343 bound_to 10162
  156.7022  130.4626  149.5570 LP  0  0  0  0  0  0  0  0  0  0  0  0  # atno 17370 bound_to 10713
  156.1788  130.6485  151.0926 LP  0  0  0  0  0  0  0  0  0  0  0  0  # atno 17371 bound_to 10713
  139.9024  135.0169  156.7329 LP  0  0  0  0  0  0  0  0  0  0  0  0  # atno 17394 bound_to 11000
  140.6936  133.9368  155.7981 LP  0  0  0  0  0  0  0  0  0  0  0  0  # atno 17395 bound_to 11000

$$$$
