AV-unprocessed.smi:1809|AV-procd|sdf|7332|dock8
  -GOLD-   22720 8593D 1   1.00000     0.00000
 Structure written by MMmdl.
 38 40  0  0  0  0  0  0  0  0  2 V2000
  143.8926  143.7030  155.2775 C   0  0  0  0  0  0  0  0  0  0  0  0
  145.2302  143.0675  155.1091 C   0  0  0  0  0  0  0  0  0  0  0  0
  145.8136  142.3475  156.0703 N   0  0  0  0  0  0  0  0  0  0  0  0
  147.0526  141.8601  155.6794 N   0  0  0  0  0  0  0  0  0  0  0  0
  147.3833  142.2084  154.4275 C   0  0  0  0  0  0  0  0  0  0  0  0
  148.5443  141.8421  153.8598 N   0  5  0  0  0  0  0  0  0  0  0  0
  149.4989  141.2366  154.6025 C   0  0  0  0  0  0  0  0  0  0  0  0
  150.0967  140.1960  154.3177 O   0  0  0  0  0  0  0  0  0  0  0  0
  149.7811  141.8756  155.7451 N   0  0  0  0  0  0  0  0  0  0  0  0
  150.7686  141.4435  156.7259 C   0  0  0  0  0  0  0  0  0  0  0  0
  150.7038  142.3169  157.9863 C   0  0  1  0  0  0  0  0  0  0  0  0
  151.6309  141.7833  159.1030 C   0  0  0  0  0  0  0  0  0  0  0  0
  151.6381  142.7047  160.2233 N   0  0  0  0  0  0  0  0  0  0  0  0
  152.5218  142.3919  161.3221 C   0  0  0  0  0  0  0  0  0  0  0  0
  152.6180  143.7066  162.1166 C   0  0  0  0  0  0  0  0  0  0  0  0
  152.1896  144.7977  161.1097 C   0  0  0  0  0  0  0  0  0  0  0  0
  152.0530  144.0156  159.8024 C   0  0  2  0  0  0  0  0  0  0  0  0
  151.0993  144.5702  158.7350 C   0  0  0  0  0  0  0  0  0  0  0  0
  151.0893  143.6537  157.6382 O   0  0  0  0  0  0  0  0  0  0  0  0
  146.1653  143.2034  153.6297 S   0  0  0  0  0  0  0  0  0  0  0  0
  143.1096  142.9486  155.1993 H   0  0  0  0  0  0  0  0  0  0  0  0
  143.7313  144.4565  154.5065 H   0  0  0  0  0  0  0  0  0  0  0  0
  143.8230  144.1834  156.2538 H   0  0  0  0  0  0  0  0  0  0  0  0
  149.2767  142.7270  155.9445 H   0  0  0  0  0  0  0  0  0  0  0  0
  150.5729  140.4017  156.9841 H   0  0  0  0  0  0  0  0  0  0  0  0
  151.7676  141.4862  156.2893 H   0  0  0  0  0  0  0  0  0  0  0  0
  149.6770  142.3356  158.3562 H   0  0  0  0  0  0  0  0  0  0  0  0
  151.2954  140.7997  159.4331 H   0  0  0  0  0  0  0  0  0  0  0  0
  152.6436  141.6603  158.7159 H   0  0  0  0  0  0  0  0  0  0  0  0
  152.1422  141.5644  161.9218 H   0  0  0  0  0  0  0  0  0  0  0  0
  153.5072  142.1133  160.9449 H   0  0  0  0  0  0  0  0  0  0  0  0
  151.9430  143.6956  162.9730 H   0  0  0  0  0  0  0  0  0  0  0  0
  153.6300  143.8674  162.4896 H   0  0  0  0  0  0  0  0  0  0  0  0
  151.2313  145.2272  161.4052 H   0  0  0  0  0  0  0  0  0  0  0  0
  152.9152  145.6078  161.0310 H   0  0  0  0  0  0  0  0  0  0  0  0
  153.0474  143.9431  159.3566 H   0  0  0  0  0  0  0  0  0  0  0  0
  150.0892  144.6905  159.1300 H   0  0  0  0  0  0  0  0  0  0  0  0
  151.4340  145.5475  158.3869 H   0  0  0  0  0  0  0  0  0  0  0  0
  1  2  1  0  0  0  0
  1 21  1  0  0  0  0
  1 22  1  0  0  0  0
  1 23  1  0  0  0  0
  2 20  1  0  0  0  0
  2  3  2  0  0  0  0
  3  4  1  0  0  0  0
  4  5  2  0  0  0  0
  5  6  1  0  0  0  0
  5 20  1  0  0  0  0
  6  7  1  0  0  0  0
  7  8  2  0  0  0  0
  7  9  1  0  0  0  0
  9 10  1  0  0  0  0
  9 24  1  0  0  0  0
 10 11  1  0  0  0  0
 10 25  1  0  0  0  0
 10 26  1  0  0  0  0
 11 19  1  0  0  0  0
 11 12  1  0  0  0  0
 11 27  1  0  0  0  0
 12 13  1  0  0  0  0
 12 28  1  0  0  0  0
 12 29  1  0  0  0  0
 13 17  1  0  0  0  0
 13 14  1  0  0  0  0
 14 15  1  0  0  0  0
 14 30  1  0  0  0  0
 14 31  1  0  0  0  0
 15 16  1  0  0  0  0
 15 32  1  0  0  0  0
 15 33  1  0  0  0  0
 16 17  1  0  0  0  0
 16 34  1  0  0  0  0
 16 35  1  0  0  0  0
 17 18  1  0  0  0  0
 17 36  1  0  0  0  0
 18 19  1  0  0  0  0
 18 37  1  0  0  0  0
 18 38  1  0  0  0  0
M  CHG  1   6  -1
M  END
> <s_m_source_file>
AV-unprocessed.smi

> <i_m_source_file_index>
1809

> <i_lp_mmshare_version>
43012

> <i_f3d_flags>
0

> <s_epik_input>
W0NIM11jMW5uYyhzMSlbTkhdQyg9TylbTkhdW0NIMl1bQ0BIXShbQ0gyXTIpT1tDSDJdW0NAQEhdKE4yMylbQ0gyXVtDSDJdW0NIMl0z

> <s_epik_cmdline>
J2VwaWtfcHl0aG9uJywgJy1waCcsICc3LjAnLCAnLXRuJywgJzgnLCAnLW1hJywgJzIwMCcsICctbWV0YWxfYmluZGluZycsICctaW1hZScsICc8aW5maWxlLm1hZT4nLCAnLW9tYWUnLCAnPG91dGZpbGUubWFlPic=

> <r_lp_tautomer_probability>
1

> <r_epik_Ionization_Penalty>
4.48809

> <r_epik_Ionization_Penalty_Charging>
3.27284

> <r_epik_Ionization_Penalty_Neutral>
1.21525

> <r_epik_State_Penalty>
4.69427

> <r_epik_Charging_Adjusted_Penalty>
7.96711

> <i_epik_Tot_Q>
-1

> <i_epik_Tot_abs_Q>
1

> <r_epik_Metal_State_Penalty>
1.91976

> <b_epik_Metal_Only>
1

> <s_lp_Force_Field>
OPLS_2005

> <r_lp_Energy>
45.7242

> <b_lp_Chiralities_Consistent>
1

> <s_lp_Variant>
AV-unprocessed.smi:1809-24

> <Gold.Version>
5.8.1

> <Gold.Id.Protein>
6NUR|6NUR_protein|mol2

> <Gold.PLP.Fitness>
47.5181

> <Gold.PLP.PLP>
-41.3813

> <Gold.PLP.part.hbond>
-3.6738

> <Gold.PLP.part.metal>
0.0000

> <Gold.PLP.part.buried>
-5.7829

> <Gold.PLP.part.nonpolar>
-32.3920

> <Gold.PLP.part.repulsive>
0.8811

> <Gold.PLP.ligand.clash>
0.0000

> <Gold.PLP.ligand.torsion>
0.4956

> <Gold.PLP.Chemscore.Hbond>
2.3680

> <Gold.PLP.Chemscore.CHOScore>
0.0000

> <Gold.PLP.Chemscore.Metal>
0.0000

> <Gold.Chemscore.Hbonds>
donor molecule, donor type, donor heavy atom, donor atom, acceptor molecule, acceptor atom, score
      L1  H     9    24       P1  8028  0.96
      P1  H  7989  7998       L1     8  0.99
      P1  H  8011  8017       L1     6  0.42

> <Gold.PLP.Chemscore.Internal.Correction>
0.0238

> <Gold.Rescore>
     Score         DG    S(hbond)    S(metal)    S(lipo)     H(rot)  DE(clash)    DE(int)     intcor
     16.85     -18.43       1.61        0.00      93.22       1.31       0.68       0.90       ----

> <Gold.Chemscore.Fitness>
16.8458

> <Gold.Chemscore.DG>
-18.4255

> <Gold.Chemscore.ZeroCoef>
-5.4800

> <Gold.Chemscore.Hbond>
1.6107

> <Gold.Chemscore.Metal>
0.0000

> <Gold.Chemscore.Lipo>
93.2210

> <Gold.Chemscore.Internal_Hbond>
0.0000

> <Gold.Chemscore.DEClash>
0.6812

> <Gold.Chemscore.DEInternal>
0.8985

> <Gold.Chemscore.Rot>
1.3051

> <Gold.Chemscore.Internal.Correction>
   9.000000E+99

> <Gold.Chemscore.Hbonds>
donor molecule, donor type, donor heavy atom, donor atom, acceptor molecule, acceptor atom, score
      L1  H     9    24       P1  8028  0.87
      P1  H  7989  7998       L1     8  0.28
      P1  H  8011  8017       L1     6  0.07

> <Gold.Chemscore.Hbond.Weighted>
-5.3798

> <Gold.Chemscore.Metal.Weighted>
-0.0000

> <Gold.Chemscore.Lipo.Weighted>
-10.9069

> <Gold.Chemscore.Internal_Hbond.Weighted>
0.0000

> <Gold.Chemscore.DEClash.Weighted>
0.6812

> <Gold.Chemscore.DEInternal.Weighted>
0.8985

> <Gold.Chemscore.Rot.Weighted>
3.3412

> <Gold.Chemscore.Internal.Correction.Weighted>
   9.000000E+99

> <Gold.Protein.RotatedTorsions>
[ 6907 6896 6895 6894 ] final  138.90 input  -60.11 | X-H torsion
[ 7974 7965 7964 7962 ] final  -53.44 input  175.53 | X-H torsion
[ 8008 7997 7996 7995 ] final   51.14 input   59.86 | X-H torsion
[ 10167 10162 10161 10158 ] final  -35.41 input  -65.29 | X-H torsion
[ 10718 10713 10712 10709 ] final   69.29 input   66.30 | X-H torsion
[ 10763 10752 10751 10750 ] final -124.55 input  -60.55 | X-H torsion
[ 11005 11000 10999 10996 ] final   50.19 input  -57.11 | X-H torsion

> <Gold.Protein.ActiveResidues>
 VAL166  LYS551  ARG553  GLY616  TRP617  ASP618  TYR619  PRO620  LYS621  CYS622 
 ASP623  PHE694  ASN695  SER759  ASP760  ASP761  ALA762  ILE779  LEU786  VAL792 
 PHE793  MET794  SER795  GLU796  ALA797  LYS798  CYS799  TRP800  GLU811  SER814 

> <Gold.Protein.RotatedAtoms>
  152.2612  133.5299  159.5382 H   0  0  0  0  0  0  0  0  0  0  0  0  # atno 6907 bound_to 6896
  150.7126  134.0826  159.3912 H   0  0  0  0  0  0  0  0  0  0  0  0  # atno 6908 bound_to 6896
  151.8744  135.0477  160.0533 H   0  0  0  0  0  0  0  0  0  0  0  0  # atno 6909 bound_to 6896
  145.8967  140.8027  142.9764 H   0  0  0  0  0  0  0  0  0  0  0  0  # atno 7974 bound_to 7965
  155.4304  140.3450  155.4279 H   0  0  0  0  0  0  0  0  0  0  0  0  # atno 8008 bound_to 7997
  156.1339  140.1522  156.9054 H   0  0  0  0  0  0  0  0  0  0  0  0  # atno 8009 bound_to 7997
  154.4917  140.0839  156.7588 H   0  0  0  0  0  0  0  0  0  0  0  0  # atno 8010 bound_to 7997
  140.7165  143.3480  151.2216 H   0  0  0  0  0  0  0  0  0  0  0  0  # atno 10167 bound_to 10162
  157.6337  130.9418  150.0493 H   0  0  0  0  0  0  0  0  0  0  0  0  # atno 10718 bound_to 10713
  154.8725  135.4060  154.3124 H   0  0  0  0  0  0  0  0  0  0  0  0  # atno 10763 bound_to 10752
  153.3966  135.7016  153.6462 H   0  0  0  0  0  0  0  0  0  0  0  0  # atno 10764 bound_to 10752
  153.5222  135.3685  155.2608 H   0  0  0  0  0  0  0  0  0  0  0  0  # atno 10765 bound_to 10752
  140.1039  134.5045  155.8738 H   0  0  0  0  0  0  0  0  0  0  0  0  # atno 11005 bound_to 11000
  144.6733  140.1614  143.7422 LP  0  0  0  0  0  0  0  0  0  0  0  0  # atno 17320 bound_to 7965
  145.8841  139.2339  143.1588 LP  0  0  0  0  0  0  0  0  0  0  0  0  # atno 17321 bound_to 7965
  139.7003  143.9543  152.2902 LP  0  0  0  0  0  0  0  0  0  0  0  0  # atno 17342 bound_to 10162
  139.9234  144.6785  150.8437 LP  0  0  0  0  0  0  0  0  0  0  0  0  # atno 17343 bound_to 10162
  156.1560  130.3643  149.9368 LP  0  0  0  0  0  0  0  0  0  0  0  0  # atno 17370 bound_to 10713
  156.7377  130.9067  151.3630 LP  0  0  0  0  0  0  0  0  0  0  0  0  # atno 17371 bound_to 10713
  141.2113  133.6705  156.6571 LP  0  0  0  0  0  0  0  0  0  0  0  0  # atno 17394 bound_to 11000
  140.3183  134.8029  157.4232 LP  0  0  0  0  0  0  0  0  0  0  0  0  # atno 17395 bound_to 11000

$$$$
