AV-unprocessed.smi:153|AV-procd|sdf|1255|dock3
  -GOLD-   2262018493D 1   1.00000     0.00000
 Structure written by MMmdl.
 60 63  0  0  0  0  0  0  0  0  2 V2000
  152.1279  145.3688  159.2143 C   0  0  0  0  0  0  0  0  0  0  0  0
  152.4023  143.9937  158.5836 C   0  0  1  0  0  0  0  0  0  0  0  0
  153.4415  143.3659  159.3316 O   0  0  0  0  0  0  0  0  0  0  0  0
  153.2097  141.9689  159.3679 C   0  0  0  0  0  0  0  0  0  0  0  0
  151.6994  141.8931  159.5141 C   0  0  0  0  0  0  0  0  0  0  0  0
  151.2156  142.9899  158.5657 C   0  0  1  0  0  0  0  0  0  0  0  0
  150.0237  143.5435  159.0965 O   0  0  0  0  0  0  0  0  0  0  0  0
  150.9271  142.4942  157.1226 C   0  0  0  0  0  0  0  0  0  0  0  0
  149.9468  141.4210  157.0394 N   0  0  0  0  0  0  0  0  0  0  0  0
  148.5821  141.5633  156.9484 C   0  0  0  0  0  0  0  0  0  0  0  0
  147.9128  140.4470  156.8730 N   0  0  0  0  0  0  0  0  0  0  0  0
  148.8819  139.4507  156.9416 C   0  0  0  0  0  0  0  0  0  0  0  0
  148.8611  138.0214  156.9061 C   0  0  0  0  0  0  0  0  0  0  0  0
  147.7421  137.2517  156.7845 N   0  0  0  0  0  0  0  0  0  0  0  0
  146.4236  137.8618  156.9096 C   0  0  0  0  0  0  0  0  0  0  0  0
  147.8382  135.9542  156.1114 C   0  0  0  0  0  0  0  0  0  0  0  0
  147.0811  135.9263  154.7676 C   0  0  1  0  0  0  0  0  0  0  0  0
  147.6303  136.9202  153.9243 O   0  0  0  0  0  0  0  0  0  0  0  0
  147.2482  134.5696  154.0540 C   0  0  0  0  0  0  0  0  0  0  0  0
  146.6879  134.5703  152.6780 N   0  3  0  0  0  0  0  0  0  0  0  0
  146.7875  133.2432  152.0251 C   0  0  0  0  0  0  0  0  0  0  0  0
  146.2585  133.3118  150.5825 C   0  0  0  0  0  0  0  0  0  0  0  0
  144.9169  133.7833  150.5888 O   0  0  0  0  0  0  0  0  0  0  0  0
  144.8162  135.0925  151.1346 C   0  0  0  0  0  0  0  0  0  0  0  0
  145.2977  135.0836  152.5955 C   0  0  0  0  0  0  0  0  0  0  0  0
  150.0618  137.3892  156.9938 N   0  0  0  0  0  0  0  0  0  0  0  0
  151.1964  138.0831  157.1102 C   0  0  0  0  0  0  0  0  0  0  0  0
  151.3625  139.4042  157.1495 N   0  0  0  0  0  0  0  0  0  0  0  0
  150.1689  140.0548  157.0560 C   0  0  0  0  0  0  0  0  0  0  0  0
  151.3523  145.9068  158.6686 H   0  0  0  0  0  0  0  0  0  0  0  0
  153.0265  145.9860  159.2021 H   0  0  0  0  0  0  0  0  0  0  0  0
  151.8084  145.2729  160.2526 H   0  0  0  0  0  0  0  0  0  0  0  0
  152.7763  144.1467  157.5701 H   0  0  0  0  0  0  0  0  0  0  0  0
  153.5403  141.5111  158.4345 H   0  0  0  0  0  0  0  0  0  0  0  0
  153.7384  141.4947  160.1949 H   0  0  0  0  0  0  0  0  0  0  0  0
  151.3021  140.9000  159.3106 H   0  0  0  0  0  0  0  0  0  0  0  0
  151.4402  142.1384  160.5456 H   0  0  0  0  0  0  0  0  0  0  0  0
  149.5883  142.8820  159.6120 H   0  0  0  0  0  0  0  0  0  0  0  0
  150.5789  143.3228  156.5041 H   0  0  0  0  0  0  0  0  0  0  0  0
  151.8478  142.1388  156.6579 H   0  0  0  0  0  0  0  0  0  0  0  0
  148.0961  142.5281  156.9241 H   0  0  0  0  0  0  0  0  0  0  0  0
  146.3661  138.4851  157.8024 H   0  0  0  0  0  0  0  0  0  0  0  0
  145.6498  137.0989  156.9963 H   0  0  0  0  0  0  0  0  0  0  0  0
  146.1947  138.4725  156.0358 H   0  0  0  0  0  0  0  0  0  0  0  0
  148.8707  135.6234  155.9927 H   0  0  0  0  0  0  0  0  0  0  0  0
  147.3884  135.2221  156.7828 H   0  0  0  0  0  0  0  0  0  0  0  0
  146.0257  136.1374  154.9366 H   0  0  0  0  0  0  0  0  0  0  0  0
  148.1935  136.4995  153.2919 H   0  0  0  0  0  0  0  0  0  0  0  0
  148.3121  134.3284  154.0140 H   0  0  0  0  0  0  0  0  0  0  0  0
  146.7774  133.7720  154.6311 H   0  0  0  0  0  0  0  0  0  0  0  0
  147.8259  132.9097  152.0171 H   0  0  0  0  0  0  0  0  0  0  0  0
  146.2182  132.5094  152.5981 H   0  0  0  0  0  0  0  0  0  0  0  0
  146.8835  133.9614  149.9676 H   0  0  0  0  0  0  0  0  0  0  0  0
  146.2828  132.3220  150.1263 H   0  0  0  0  0  0  0  0  0  0  0  0
  145.3990  135.7952  150.5366 H   0  0  0  0  0  0  0  0  0  0  0  0
  143.7769  135.4175  151.0836 H   0  0  0  0  0  0  0  0  0  0  0  0
  144.6386  134.4581  153.1999 H   0  0  0  0  0  0  0  0  0  0  0  0
  145.2356  136.0941  152.9972 H   0  0  0  0  0  0  0  0  0  0  0  0
  152.1003  137.4956  157.1769 H   0  0  0  0  0  0  0  0  0  0  0  0
  147.2689  135.1961  152.1377 H   0  0  0  0  0  0  0  0  0  0  0  0
  1  2  1  0  0  0  0
  1 30  1  0  0  0  0
  1 31  1  0  0  0  0
  1 32  1  0  0  0  0
  2  6  1  0  0  0  0
  2  3  1  0  0  0  0
  2 33  1  0  0  0  0
  3  4  1  0  0  0  0
  4  5  1  0  0  0  0
  4 34  1  0  0  0  0
  4 35  1  0  0  0  0
  5  6  1  0  0  0  0
  5 36  1  0  0  0  0
  5 37  1  0  0  0  0
  6  7  1  0  0  0  0
  6  8  1  0  0  0  0
  7 38  1  0  0  0  0
  8  9  1  0  0  0  0
  8 39  1  0  0  0  0
  8 40  1  0  0  0  0
  9 29  1  0  0  0  0
  9 10  1  0  0  0  0
 10 11  2  0  0  0  0
 10 41  1  0  0  0  0
 11 12  1  0  0  0  0
 12 29  2  0  0  0  0
 12 13  1  0  0  0  0
 13 14  1  0  0  0  0
 13 26  2  0  0  0  0
 14 15  1  0  0  0  0
 14 16  1  0  0  0  0
 15 42  1  0  0  0  0
 15 43  1  0  0  0  0
 15 44  1  0  0  0  0
 16 17  1  0  0  0  0
 16 45  1  0  0  0  0
 16 46  1  0  0  0  0
 17 18  1  0  0  0  0
 17 19  1  0  0  0  0
 17 47  1  0  0  0  0
 18 48  1  0  0  0  0
 19 20  1  0  0  0  0
 19 49  1  0  0  0  0
 19 50  1  0  0  0  0
 20 25  1  0  0  0  0
 20 21  1  0  0  0  0
 20 60  1  0  0  0  0
 21 22  1  0  0  0  0
 21 51  1  0  0  0  0
 21 52  1  0  0  0  0
 22 23  1  0  0  0  0
 22 53  1  0  0  0  0
 22 54  1  0  0  0  0
 23 24  1  0  0  0  0
 24 25  1  0  0  0  0
 24 55  1  0  0  0  0
 24 56  1  0  0  0  0
 25 57  1  0  0  0  0
 25 58  1  0  0  0  0
 26 27  1  0  0  0  0
 27 28  2  0  0  0  0
 27 59  1  0  0  0  0
 28 29  1  0  0  0  0
M  CHG  1  20   1
M  END
> <s_m_source_file>
AV-unprocessed.smi

> <i_m_source_file_index>
153

> <i_lp_mmshare_version>
43012

> <i_f3d_flags>
0

> <s_epik_input>
W0NIMl0xW0NIMl1PW0NAQEhdKFtDSDNdKVtDQEBdMShbT0hdKVtDSDJdbihbY0hdbjIpYyhjMjMpbltjSF1uYzNOKFtDSDNdKVtDSDJdW0NASF0oW09IXSlbQ0gyXU40W0NIMl1bQ0gyXU9bQ0gyXVtDSDJdNA==

> <s_epik_cmdline>
J2VwaWtfcHl0aG9uJywgJy1waCcsICc3LjAnLCAnLXRuJywgJzgnLCAnLW1hJywgJzIwMCcsICctbWV0YWxfYmluZGluZycsICctaW1hZScsICc8aW5maWxlLm1hZT4nLCAnLW9tYWUnLCAnPG91dGZpbGUubWFlPic=

> <r_lp_tautomer_probability>
1

> <r_epik_Ionization_Penalty>
0.403509

> <r_epik_Ionization_Penalty_Charging>
0.40072

> <r_epik_Ionization_Penalty_Neutral>
0.00278876

> <r_epik_State_Penalty>
0.400058

> <r_epik_Charging_Adjusted_Penalty>
0.800778

> <i_epik_Tot_Q>
1

> <i_epik_Tot_abs_Q>
1

> <r_epik_Metal_State_Penalty>
0.400321

> <b_epik_Metal_Only>
0

> <s_lp_Force_Field>
OPLS_2005

> <r_lp_Energy>
46.896

> <b_lp_Chiralities_Consistent>
1

> <s_lp_Variant>
AV-unprocessed.smi:153-6

> <Gold.Version>
5.8.1

> <Gold.Id.Protein>
6NUR|6NUR_protein|mol2

> <Gold.PLP.Fitness>
48.3057

> <Gold.PLP.PLP>
-37.3320

> <Gold.PLP.part.hbond>
-1.7005

> <Gold.PLP.part.metal>
0.0000

> <Gold.PLP.part.buried>
-6.2465

> <Gold.PLP.part.nonpolar>
-29.7916

> <Gold.PLP.part.repulsive>
0.1822

> <Gold.PLP.ligand.clash>
0.0000

> <Gold.PLP.ligand.torsion>
0.7494

> <Gold.PLP.Chemscore.Hbond>
3.0000

> <Gold.PLP.Chemscore.CHOScore>
1.0000

> <Gold.PLP.Chemscore.Metal>
0.0000

> <Gold.Chemscore.Hbonds>
donor molecule, donor type, donor heavy atom, donor atom, acceptor molecule, acceptor atom, score
      L1  H    18    48       P1  7948  1.00
      L1  H    20    60       P1  7948  2.00
      L1  C    10    41       P1  8028  0.72

> <Gold.PLP.Chemscore.Internal.Correction>
0.4726

> <Gold.Rescore>
     Score         DG    S(hbond)    S(metal)    S(lipo)     H(rot)  DE(clash)    DE(int)     intcor
     11.81     -13.66       1.96        0.00      93.17       3.62       0.01       1.84       ----

> <Gold.Chemscore.Fitness>
11.8092

> <Gold.Chemscore.DG>
-13.6643

> <Gold.Chemscore.ZeroCoef>
-5.4800

> <Gold.Chemscore.Hbond>
1.9599

> <Gold.Chemscore.Metal>
0.0000

> <Gold.Chemscore.Lipo>
93.1684

> <Gold.Chemscore.Internal_Hbond>
0.0000

> <Gold.Chemscore.DEClash>
0.0130

> <Gold.Chemscore.DEInternal>
1.8421

> <Gold.Chemscore.Rot>
3.6182

> <Gold.Chemscore.Internal.Correction>
   9.000000E+99

> <Gold.Chemscore.Hbonds>
donor molecule, donor type, donor heavy atom, donor atom, acceptor molecule, acceptor atom, score
      L1  H    18    48       P1  7948  0.99
      L1  H    20    60       P1  7948  0.94

> <Gold.Chemscore.Hbond.Weighted>
-6.5461

> <Gold.Chemscore.Metal.Weighted>
-0.0000

> <Gold.Chemscore.Lipo.Weighted>
-10.9007

> <Gold.Chemscore.Internal_Hbond.Weighted>
0.0000

> <Gold.Chemscore.DEClash.Weighted>
0.0130

> <Gold.Chemscore.DEInternal.Weighted>
1.8421

> <Gold.Chemscore.Rot.Weighted>
9.2625

> <Gold.Chemscore.Internal.Correction.Weighted>
   9.000000E+99

> <Gold.Protein.RotatedTorsions>
[ 6907 6896 6895 6894 ] final   28.47 input  -60.11 | X-H torsion
[ 7974 7965 7964 7962 ] final  100.53 input  175.53 | X-H torsion
[ 8008 7997 7996 7995 ] final  -39.08 input   59.86 | X-H torsion
[ 10167 10162 10161 10158 ] final -144.14 input  -65.29 | X-H torsion
[ 10718 10713 10712 10709 ] final  -57.14 input   66.30 | X-H torsion
[ 10763 10752 10751 10750 ] final  -32.74 input  -60.55 | X-H torsion
[ 11005 11000 10999 10996 ] final   74.88 input  -57.11 | X-H torsion

> <Gold.Protein.ActiveResidues>
 VAL166  LYS551  ARG553  GLY616  TRP617  ASP618  TYR619  PRO620  LYS621  CYS622 
 ASP623  PHE694  ASN695  SER759  ASP760  ASP761  ALA762  ILE779  LEU786  VAL792 
 PHE793  MET794  SER795  GLU796  ALA797  LYS798  CYS799  TRP800  GLU811  SER814 

> <Gold.Protein.RotatedAtoms>
  152.0175  134.9841  160.0569 H   0  0  0  0  0  0  0  0  0  0  0  0  # atno 6907 bound_to 6896
  152.1369  133.4436  159.4756 H   0  0  0  0  0  0  0  0  0  0  0  0  # atno 6908 bound_to 6896
  150.6861  134.2270  159.4462 H   0  0  0  0  0  0  0  0  0  0  0  0  # atno 6909 bound_to 6896
  145.3844  139.2374  143.3386 H   0  0  0  0  0  0  0  0  0  0  0  0  # atno 7974 bound_to 7965
  154.4028  140.1561  156.2804 H   0  0  0  0  0  0  0  0  0  0  0  0  # atno 8008 bound_to 7997
  155.8874  140.3440  155.5909 H   0  0  0  0  0  0  0  0  0  0  0  0  # atno 8009 bound_to 7997
  155.7597  140.0816  157.2152 H   0  0  0  0  0  0  0  0  0  0  0  0  # atno 8010 bound_to 7997
  139.7927  143.7943  152.2651 H   0  0  0  0  0  0  0  0  0  0  0  0  # atno 10167 bound_to 10162
  156.1234  130.4164  150.0400 H   0  0  0  0  0  0  0  0  0  0  0  0  # atno 10718 bound_to 10713
  153.8187  135.6876  153.4830 H   0  0  0  0  0  0  0  0  0  0  0  0  # atno 10763 bound_to 10752
  153.1583  135.4590  154.9733 H   0  0  0  0  0  0  0  0  0  0  0  0  # atno 10764 bound_to 10752
  154.7937  135.3311  154.7661 H   0  0  0  0  0  0  0  0  0  0  0  0  # atno 10765 bound_to 10752
  139.9370  134.7470  156.1202 H   0  0  0  0  0  0  0  0  0  0  0  0  # atno 11005 bound_to 11000
  146.2827  140.4517  142.8770 LP  0  0  0  0  0  0  0  0  0  0  0  0  # atno 17320 bound_to 7965
  144.8484  140.6965  143.6184 LP  0  0  0  0  0  0  0  0  0  0  0  0  # atno 17321 bound_to 7965
  139.8039  144.7363  150.9787 LP  0  0  0  0  0  0  0  0  0  0  0  0  # atno 17342 bound_to 10162
  140.7820  143.4317  151.0684 LP  0  0  0  0  0  0  0  0  0  0  0  0  # atno 17343 bound_to 10162
  156.8333  130.9400  151.3636 LP  0  0  0  0  0  0  0  0  0  0  0  0  # atno 17370 bound_to 10713
  157.6416  130.8810  149.9459 LP  0  0  0  0  0  0  0  0  0  0  0  0  # atno 17371 bound_to 10713
  141.0988  133.6685  156.2706 LP  0  0  0  0  0  0  0  0  0  0  0  0  # atno 17394 bound_to 11000
  140.6050  134.5516  157.5524 LP  0  0  0  0  0  0  0  0  0  0  0  0  # atno 17395 bound_to 11000

$$$$
