AV-unprocessed.smi:2923|AV-procd|sdf|11202|dock7
  -GOLD-   2272016 93D 1   1.00000     0.00000
 Structure written by MMmdl.
 47 49  0  0  0  0  0  0  0  0  2 V2000
  149.7611  133.5495  155.0102 C   0  0  0  0  0  0  0  0  0  0  0  0
  149.1583  134.8526  154.7735 N   0  0  0  0  0  0  0  0  0  0  0  0
  147.7070  134.8762  154.6717 C   0  0  0  0  0  0  0  0  0  0  0  0
  149.6641  135.8476  155.6211 C   0  0  0  0  0  0  0  0  0  0  0  0
  149.7485  135.6493  157.0146 C   0  0  0  0  0  0  0  0  0  0  0  0
  150.2587  136.6799  157.8303 C   0  0  0  0  0  0  0  0  0  0  0  0
  150.6860  137.8913  157.2446 C   0  0  0  0  0  0  0  0  0  0  0  0
  151.1754  138.9077  158.1086 N   0  0  0  0  0  0  0  0  0  0  0  0
  151.9185  139.9838  157.7977 C   0  0  0  0  0  0  0  0  0  0  0  0
  152.3404  140.2582  156.6746 O   0  0  0  0  0  0  0  0  0  0  0  0
  152.1632  140.7317  158.8815 N   0  0  0  0  0  0  0  0  0  0  0  0
  152.9667  141.9588  158.8842 C   0  0  2  0  0  0  0  0  0  0  0  0
  153.1729  142.5202  160.2935 C   0  0  2  0  0  0  0  0  0  0  0  0
  153.0485  141.9942  161.6776 C   0  0  0  0  0  0  0  0  0  0  0  0
  152.3725  143.2462  162.3000 C   0  0  0  0  0  0  0  0  0  0  0  0
  152.0186  144.1051  161.1852 O   0  0  0  0  0  0  0  0  0  0  0  0
  151.8353  143.2072  160.1087 C   0  0  1  0  0  0  0  0  0  0  0  0
  152.1744  143.2981  158.6040 C   0  0  0  0  0  0  0  0  0  0  0  0
  152.9925  144.5178  158.1420 C   0  0  0  0  0  0  0  0  0  0  0  0
  150.9743  143.2179  157.6537 C   0  0  0  0  0  0  0  0  0  0  0  0
  150.5693  138.0381  155.8405 C   0  0  0  0  0  0  0  0  0  0  0  0
  150.0733  137.0264  155.0953 N   0  3  0  0  0  0  0  0  0  0  0  0
  150.8489  133.6245  155.0435 H   0  0  0  0  0  0  0  0  0  0  0  0
  149.4966  132.8607  154.2076 H   0  0  0  0  0  0  0  0  0  0  0  0
  149.4154  133.1237  155.9530 H   0  0  0  0  0  0  0  0  0  0  0  0
  147.3471  135.8881  154.4818 H   0  0  0  0  0  0  0  0  0  0  0  0
  147.2436  134.5109  155.5887 H   0  0  0  0  0  0  0  0  0  0  0  0
  147.3776  134.2430  153.8475 H   0  0  0  0  0  0  0  0  0  0  0  0
  149.4247  134.7181  157.4568 H   0  0  0  0  0  0  0  0  0  0  0  0
  150.3237  136.5356  158.8990 H   0  0  0  0  0  0  0  0  0  0  0  0
  150.9724  138.7791  159.0891 H   0  0  0  0  0  0  0  0  0  0  0  0
  151.7812  140.4344  159.7673 H   0  0  0  0  0  0  0  0  0  0  0  0
  153.8979  141.8795  158.3206 H   0  0  0  0  0  0  0  0  0  0  0  0
  154.0141  143.2169  160.2639 H   0  0  0  0  0  0  0  0  0  0  0  0
  152.4070  141.1137  161.7300 H   0  0  0  0  0  0  0  0  0  0  0  0
  154.0116  141.7656  162.1345 H   0  0  0  0  0  0  0  0  0  0  0  0
  151.4807  142.9658  162.8617 H   0  0  0  0  0  0  0  0  0  0  0  0
  153.0432  143.7795  162.9741 H   0  0  0  0  0  0  0  0  0  0  0  0
  150.9711  142.5615  160.2959 H   0  0  0  0  0  0  0  0  0  0  0  0
  152.4293  145.4422  158.2734 H   0  0  0  0  0  0  0  0  0  0  0  0
  153.2521  144.4427  157.0856 H   0  0  0  0  0  0  0  0  0  0  0  0
  153.9300  144.6435  158.6806 H   0  0  0  0  0  0  0  0  0  0  0  0
  150.4314  144.1627  157.6120 H   0  0  0  0  0  0  0  0  0  0  0  0
  150.2565  142.4583  157.9630 H   0  0  0  0  0  0  0  0  0  0  0  0
  151.2869  142.9729  156.6383 H   0  0  0  0  0  0  0  0  0  0  0  0
  150.8366  138.9222  155.2820 H   0  0  0  0  0  0  0  0  0  0  0  0
  150.0004  137.1605  154.0867 H   0  0  0  0  0  0  0  0  0  0  0  0
  1  2  1  0  0  0  0
  1 23  1  0  0  0  0
  1 24  1  0  0  0  0
  1 25  1  0  0  0  0
  2  3  1  0  0  0  0
  2  4  1  0  0  0  0
  3 26  1  0  0  0  0
  3 27  1  0  0  0  0
  3 28  1  0  0  0  0
  4 22  1  0  0  0  0
  4  5  2  0  0  0  0
  5  6  1  0  0  0  0
  5 29  1  0  0  0  0
  6  7  2  0  0  0  0
  6 30  1  0  0  0  0
  7  8  1  0  0  0  0
  7 21  1  0  0  0  0
  8  9  1  0  0  0  0
  8 31  1  0  0  0  0
  9 10  2  0  0  0  0
  9 11  1  0  0  0  0
 11 12  1  0  0  0  0
 11 32  1  0  0  0  0
 12 18  1  0  0  0  0
 12 13  1  0  0  0  0
 12 33  1  0  0  0  0
 13 17  1  0  0  0  0
 13 14  1  0  0  0  0
 13 34  1  0  0  0  0
 14 15  1  0  0  0  0
 14 35  1  0  0  0  0
 14 36  1  0  0  0  0
 15 16  1  0  0  0  0
 15 37  1  0  0  0  0
 15 38  1  0  0  0  0
 16 17  1  0  0  0  0
 17 18  1  0  0  0  0
 17 39  1  0  0  0  0
 18 19  1  0  0  0  0
 18 20  1  0  0  0  0
 19 40  1  0  0  0  0
 19 41  1  0  0  0  0
 19 42  1  0  0  0  0
 20 43  1  0  0  0  0
 20 44  1  0  0  0  0
 20 45  1  0  0  0  0
 21 22  2  0  0  0  0
 21 46  1  0  0  0  0
 22 47  1  0  0  0  0
M  CHG  1  22   1
M  END
> <s_m_source_file>
AV-unprocessed.smi

> <i_m_source_file_index>
2923

> <i_lp_mmshare_version>
43012

> <i_f3d_flags>
0

> <s_epik_input>
W0NIM11OKFtDSDNdKWMxW2NIXVtjSF1jKFtjSF1uMSlbTkhdQyg9TylbTkhdW0NASF0yQyhbQ0gzXSkoW0NIM10pW0NAQEhdKFtDQEhdMjMpT1tDSDJdW0NIMl0z

> <s_epik_cmdline>
J2VwaWtfcHl0aG9uJywgJy1waCcsICc3LjAnLCAnLXRuJywgJzgnLCAnLW1hJywgJzIwMCcsICctbWV0YWxfYmluZGluZycsICctaW1hZScsICc8aW5maWxlLm1hZT4nLCAnLW9tYWUnLCAnPG91dGZpbGUubWFlPic=

> <r_lp_tautomer_probability>
0.999994

> <r_epik_Ionization_Penalty>
0.252205

> <r_epik_Ionization_Penalty_Charging>
0.252185

> <r_epik_Ionization_Penalty_Neutral>
1.99479e-05

> <r_epik_State_Penalty>
0.243573

> <r_epik_Charging_Adjusted_Penalty>
0.495758

> <i_epik_Tot_Q>
1

> <i_epik_Tot_abs_Q>
1

> <r_epik_Metal_State_Penalty>
0.534372

> <b_epik_Metal_Only>
0

> <s_lp_Force_Field>
OPLS_2005

> <r_lp_Energy>
76.1272

> <b_lp_Chiralities_Consistent>
1

> <s_lp_Variant>
AV-unprocessed.smi:2923-1

> <Gold.Version>
5.8.1

> <Gold.Id.Protein>
6NUR|6NUR_protein|mol2

> <Gold.PLP.Fitness>
38.4331

> <Gold.PLP.PLP>
-36.4935

> <Gold.PLP.part.hbond>
-1.0000

> <Gold.PLP.part.metal>
0.0000

> <Gold.PLP.part.buried>
-4.2508

> <Gold.PLP.part.nonpolar>
-31.3297

> <Gold.PLP.part.repulsive>
0.5196

> <Gold.PLP.ligand.clash>
0.0000

> <Gold.PLP.ligand.torsion>
0.7337

> <Gold.PLP.Chemscore.Hbond>
0.9833

> <Gold.PLP.Chemscore.CHOScore>
0.0000

> <Gold.PLP.Chemscore.Metal>
0.0000

> <Gold.Chemscore.Hbonds>
donor molecule, donor type, donor heavy atom, donor atom, acceptor molecule, acceptor atom, score
      P1  H  7997  8010       L1    10  1.00

> <Gold.PLP.Chemscore.Internal.Correction>
0.4571

> <Gold.Rescore>
     Score         DG    S(hbond)    S(metal)    S(lipo)     H(rot)  DE(clash)    DE(int)     intcor
     16.78     -19.06       0.87        0.00     117.52       1.20       0.68       1.59       ----

> <Gold.Chemscore.Fitness>
16.7805

> <Gold.Chemscore.DG>
-19.0568

> <Gold.Chemscore.ZeroCoef>
-5.4800

> <Gold.Chemscore.Hbond>
0.8718

> <Gold.Chemscore.Metal>
0.0000

> <Gold.Chemscore.Lipo>
117.5189

> <Gold.Chemscore.Internal_Hbond>
0.0000

> <Gold.Chemscore.DEClash>
0.6848

> <Gold.Chemscore.DEInternal>
1.5914

> <Gold.Chemscore.Rot>
1.2049

> <Gold.Chemscore.Internal.Correction>
   9.000000E+99

> <Gold.Chemscore.Hbonds>
donor molecule, donor type, donor heavy atom, donor atom, acceptor molecule, acceptor atom, score
      P1  H  7997  8010       L1    10  0.86

> <Gold.Chemscore.Hbond.Weighted>
-2.9117

> <Gold.Chemscore.Metal.Weighted>
-0.0000

> <Gold.Chemscore.Lipo.Weighted>
-13.7497

> <Gold.Chemscore.Internal_Hbond.Weighted>
0.0000

> <Gold.Chemscore.DEClash.Weighted>
0.6848

> <Gold.Chemscore.DEInternal.Weighted>
1.5914

> <Gold.Chemscore.Rot.Weighted>
3.0846

> <Gold.Chemscore.Internal.Correction.Weighted>
   9.000000E+99

> <Gold.Protein.RotatedTorsions>
[ 6907 6896 6895 6894 ] final -125.08 input  -60.11 | X-H torsion
[ 7974 7965 7964 7962 ] final -150.30 input  175.53 | X-H torsion
[ 8008 7997 7996 7995 ] final   72.39 input   59.86 | X-H torsion
[ 10167 10162 10161 10158 ] final  -95.19 input  -65.29 | X-H torsion
[ 10718 10713 10712 10709 ] final -167.79 input   66.30 | X-H torsion
[ 10763 10752 10751 10750 ] final  -28.07 input  -60.55 | X-H torsion
[ 11005 11000 10999 10996 ] final  139.97 input  -57.11 | X-H torsion

> <Gold.Protein.ActiveResidues>
 VAL166  LYS551  ARG553  GLY616  TRP617  ASP618  TYR619  PRO620  LYS621  CYS622 
 ASP623  PHE694  ASN695  SER759  ASP760  ASP761  ALA762  ILE779  LEU786  VAL792 
 PHE793  MET794  SER795  GLU796  ALA797  LYS798  CYS799  TRP800  GLU811  SER814 

> <Gold.Protein.RotatedAtoms>
  150.8832  133.7344  159.2925 H   0  0  0  0  0  0  0  0  0  0  0  0  # atno 6907 bound_to 6896
  151.4918  135.1056  159.9815 H   0  0  0  0  0  0  0  0  0  0  0  0  # atno 6908 bound_to 6896
  152.4773  133.8123  159.7065 H   0  0  0  0  0  0  0  0  0  0  0  0  # atno 6909 bound_to 6896
  144.7916  140.4950  143.5769 H   0  0  0  0  0  0  0  0  0  0  0  0  # atno 7974 bound_to 7965
  155.7682  140.3485  155.5233 H   0  0  0  0  0  0  0  0  0  0  0  0  # atno 8008 bound_to 7997
  155.8848  140.1008  157.1481 H   0  0  0  0  0  0  0  0  0  0  0  0  # atno 8009 bound_to 7997
  154.4028  140.1315  156.4229 H   0  0  0  0  0  0  0  0  0  0  0  0  # atno 8010 bound_to 7997
  140.3067  143.3129  152.0192 H   0  0  0  0  0  0  0  0  0  0  0  0  # atno 10167 bound_to 10162
  156.6875  130.9146  151.3065 H   0  0  0  0  0  0  0  0  0  0  0  0  # atno 10718 bound_to 10713
  153.7424  135.6931  153.4964 H   0  0  0  0  0  0  0  0  0  0  0  0  # atno 10763 bound_to 10752
  153.2060  135.4420  155.0322 H   0  0  0  0  0  0  0  0  0  0  0  0  # atno 10764 bound_to 10752
  154.8216  135.3425  154.6949 H   0  0  0  0  0  0  0  0  0  0  0  0  # atno 10765 bound_to 10752
  140.0293  134.9359  157.0631 H   0  0  0  0  0  0  0  0  0  0  0  0  # atno 11005 bound_to 11000
  145.5780  139.1487  143.3251 LP  0  0  0  0  0  0  0  0  0  0  0  0  # atno 17320 bound_to 7965
  146.2170  140.5911  142.9034 LP  0  0  0  0  0  0  0  0  0  0  0  0  # atno 17321 bound_to 7965
  139.4903  144.6415  151.6866 LP  0  0  0  0  0  0  0  0  0  0  0  0  # atno 17342 bound_to 10162
  140.5604  144.0278  150.6167 LP  0  0  0  0  0  0  0  0  0  0  0  0  # atno 17343 bound_to 10162
  157.7021  130.9344  150.0817 LP  0  0  0  0  0  0  0  0  0  0  0  0  # atno 17370 bound_to 10713
  156.1822  130.3650  149.9020 LP  0  0  0  0  0  0  0  0  0  0  0  0  # atno 17371 bound_to 10713
  140.4253  134.1838  155.7166 LP  0  0  0  0  0  0  0  0  0  0  0  0  # atno 17394 bound_to 11000
  141.1821  133.8391  157.1219 LP  0  0  0  0  0  0  0  0  0  0  0  0  # atno 17395 bound_to 11000

$$$$
