AV-unprocessed.smi:255|AV-procd|sdf|1949|dock6
  -GOLD-   2262021 83D 1   1.00000     0.00000
 Structure written by MMmdl.
 44 47  0  0  0  0  0  0  0  0  1 V2000
  153.1852  137.6388  158.3988 O   0  0  0  0  0  0  0  0  0  0  0  0
  153.2987  138.3783  159.5962 C   0  0  0  0  0  0  0  0  0  0  0  0
  153.3852  139.8867  159.2953 C   0  0  2  0  0  0  0  0  0  0  0  0
  153.7069  140.7276  160.5315 C   0  0  0  0  0  0  0  0  0  0  0  0
  153.2677  142.1159  160.0823 C   0  0  2  0  0  0  0  0  0  0  0  0
  153.0080  142.9271  161.1072 F   0  0  0  0  0  0  0  0  0  0  0  0
  152.0326  141.8404  159.2204 C   0  0  0  0  0  0  0  0  0  0  0  0
  152.1228  140.4406  158.8090 N   0  0  0  0  0  0  0  0  0  0  0  0
  151.8604  140.1982  157.5056 C   0  0  0  0  0  0  0  0  0  0  0  0
  152.7719  139.5492  156.7338 N   0  0  0  0  0  0  0  0  0  0  0  0
  152.4979  139.2964  155.4502 C   0  0  0  0  0  0  0  0  0  0  0  0
  151.3978  139.5976  154.7559 N   0  0  0  0  0  0  0  0  0  0  0  0
  150.4830  140.2475  155.5320 C   0  0  0  0  0  0  0  0  0  0  0  0
  150.6329  140.5812  156.9065 C   0  0  0  0  0  0  0  0  0  0  0  0
  149.4950  141.2286  157.3694 N   0  0  0  0  0  0  0  0  0  0  0  0
  148.7162  141.2817  156.3230 C   0  0  0  0  0  0  0  0  0  0  0  0
  149.2331  140.7226  155.1752 N   0  0  0  0  0  0  0  0  0  0  0  0
  148.5847  140.6495  153.8749 C   0  0  0  0  0  0  0  0  0  0  0  0
  147.0582  140.8890  153.9376 C   0  0  1  0  0  0  0  0  0  0  0  0
  146.4973  140.6124  152.6655 O   0  0  0  0  0  0  0  0  0  0  0  0
  146.3348  140.0430  154.9817 C   0  0  0  0  0  0  0  0  0  0  0  0
  145.1840  140.9427  155.4095 C   0  0  0  0  0  0  0  0  0  0  0  0
  145.7906  142.2233  155.4405 O   0  0  0  0  0  0  0  0  0  0  0  0
  146.6799  142.3305  154.3335 C   0  0  0  0  0  0  0  0  0  0  0  0
  154.1743  140.0665  158.5622 H   0  0  0  0  0  0  0  0  0  0  0  0
  154.0504  142.5805  159.4810 H   0  0  0  0  0  0  0  0  0  0  0  0
  152.5540  136.9481  158.5315 H   0  0  0  0  0  0  0  0  0  0  0  0
  152.4715  138.1476  160.2687 H   0  0  0  0  0  0  0  0  0  0  0  0
  154.2128  138.0451  160.0884 H   0  0  0  0  0  0  0  0  0  0  0  0
  153.1073  140.3995  161.3823 H   0  0  0  0  0  0  0  0  0  0  0  0
  154.7585  140.6851  160.8165 H   0  0  0  0  0  0  0  0  0  0  0  0
  151.1258  141.9501  159.8156 H   0  0  0  0  0  0  0  0  0  0  0  0
  151.9618  142.5419  158.3881 H   0  0  0  0  0  0  0  0  0  0  0  0
  153.2697  138.7774  154.9011 H   0  0  0  0  0  0  0  0  0  0  0  0
  147.7376  141.7383  156.3575 H   0  0  0  0  0  0  0  0  0  0  0  0
  149.0526  141.3844  153.2186 H   0  0  0  0  0  0  0  0  0  0  0  0
  148.7975  139.6724  153.4390 H   0  0  0  0  0  0  0  0  0  0  0  0
  145.5555  140.6175  152.7462 H   0  0  0  0  0  0  0  0  0  0  0  0
  146.0095  139.0686  154.6143 H   0  0  0  0  0  0  0  0  0  0  0  0
  146.9806  139.8743  155.8442 H   0  0  0  0  0  0  0  0  0  0  0  0
  144.3794  140.9310  154.6725 H   0  0  0  0  0  0  0  0  0  0  0  0
  144.7708  140.6684  156.3802 H   0  0  0  0  0  0  0  0  0  0  0  0
  147.5473  142.9205  154.6317 H   0  0  0  0  0  0  0  0  0  0  0  0
  146.1872  142.8651  153.5197 H   0  0  0  0  0  0  0  0  0  0  0  0
  1  2  1  0  0  0  0
  1 27  1  0  0  0  0
  2  3  1  0  0  0  0
  2 28  1  0  0  0  0
  2 29  1  0  0  0  0
  3 25  1  0  0  0  0
  3  8  1  0  0  0  0
  3  4  1  0  0  0  0
  4  5  1  0  0  0  0
  4 30  1  0  0  0  0
  4 31  1  0  0  0  0
  5 26  1  0  0  0  0
  5  6  1  0  0  0  0
  5  7  1  0  0  0  0
  7  8  1  0  0  0  0
  7 32  1  0  0  0  0
  7 33  1  0  0  0  0
  8  9  1  0  0  0  0
  9 14  1  0  0  0  0
  9 10  2  0  0  0  0
 10 11  1  0  0  0  0
 11 12  2  0  0  0  0
 11 34  1  0  0  0  0
 12 13  1  0  0  0  0
 13 17  1  0  0  0  0
 13 14  2  0  0  0  0
 14 15  1  0  0  0  0
 15 16  2  0  0  0  0
 16 17  1  0  0  0  0
 16 35  1  0  0  0  0
 17 18  1  0  0  0  0
 18 19  1  0  0  0  0
 18 36  1  0  0  0  0
 18 37  1  0  0  0  0
 19 24  1  0  0  0  0
 19 20  1  0  0  0  0
 19 21  1  0  0  0  0
 20 38  1  0  0  0  0
 21 22  1  0  0  0  0
 21 39  1  0  0  0  0
 21 40  1  0  0  0  0
 22 23  1  0  0  0  0
 22 41  1  0  0  0  0
 22 42  1  0  0  0  0
 23 24  1  0  0  0  0
 24 43  1  0  0  0  0
 24 44  1  0  0  0  0
M  END
> <s_m_source_file>
AV-unprocessed.smi

> <i_m_source_file_index>
255

> <i_lp_mmshare_version>
43012

> <i_f3d_flags>
0

> <s_epik_input>
W09IXVtDSDJdW0NAQEhdMVtDSDJdW0NASF0oRilbQ0gyXU4xYyhuW2NIXW4yKWMoYzIzKW5bY0hdbjNbQ0gyXVtDQEBdNChbT0hdKVtDSDJdW0NIMl1PW0NIMl00

> <s_epik_cmdline>
J2VwaWtfcHl0aG9uJywgJy1waCcsICc3LjAnLCAnLXRuJywgJzgnLCAnLW1hJywgJzIwMCcsICctbWV0YWxfYmluZGluZycsICctaW1hZScsICc8aW5maWxlLm1hZT4nLCAnLW9tYWUnLCAnPG91dGZpbGUubWFlPic=

> <r_lp_tautomer_probability>
1

> <r_epik_Ionization_Penalty>
0.0058098

> <r_epik_Ionization_Penalty_Charging>
0

> <r_epik_Ionization_Penalty_Neutral>
0.0058098

> <r_epik_State_Penalty>
0.00411166

> <r_epik_Charging_Adjusted_Penalty>
0.00411166

> <i_epik_Tot_Q>
0

> <i_epik_Tot_abs_Q>
0

> <r_epik_Metal_State_Penalty>
-0

> <b_epik_Metal_Only>
0

> <s_lp_Force_Field>
OPLS_2005

> <r_lp_Energy>
52.3254

> <b_lp_Chiralities_Consistent>
1

> <s_lp_Variant>
AV-unprocessed.smi:255-1

> <Gold.Version>
5.8.1

> <Gold.Id.Protein>
6NUR|6NUR_protein|mol2

> <Gold.PLP.Fitness>
49.4230

> <Gold.PLP.PLP>
-41.2135

> <Gold.PLP.part.hbond>
-3.0000

> <Gold.PLP.part.metal>
0.0000

> <Gold.PLP.part.buried>
-3.9351

> <Gold.PLP.part.nonpolar>
-34.4334

> <Gold.PLP.part.repulsive>
0.2920

> <Gold.PLP.ligand.clash>
0.0000

> <Gold.PLP.ligand.torsion>
0.3621

> <Gold.PLP.Chemscore.Hbond>
2.9500

> <Gold.PLP.Chemscore.CHOScore>
0.0000

> <Gold.PLP.Chemscore.Metal>
0.0000

> <Gold.Chemscore.Hbonds>
donor molecule, donor type, donor heavy atom, donor atom, acceptor molecule, acceptor atom, score
      L1  H    20    38       P1 10175  1.00
      P1  H  7989  7998       L1    12  0.95
      P1  H  7997  8010       L1    10  1.00

> <Gold.PLP.Chemscore.Internal.Correction>
0.0836

> <Gold.Rescore>
     Score         DG    S(hbond)    S(metal)    S(lipo)     H(rot)  DE(clash)    DE(int)     intcor
      7.11     -11.44       1.77        0.00      73.35       3.33       0.14       4.19       ----

> <Gold.Chemscore.Fitness>
7.1130

> <Gold.Chemscore.DG>
-11.4450

> <Gold.Chemscore.ZeroCoef>
-5.4800

> <Gold.Chemscore.Hbond>
1.7667

> <Gold.Chemscore.Metal>
0.0000

> <Gold.Chemscore.Lipo>
73.3513

> <Gold.Chemscore.Internal_Hbond>
0.0000

> <Gold.Chemscore.DEClash>
0.1397

> <Gold.Chemscore.DEInternal>
4.1923

> <Gold.Chemscore.Rot>
3.3273

> <Gold.Chemscore.Internal.Correction>
   9.000000E+99

> <Gold.Chemscore.Hbonds>
donor molecule, donor type, donor heavy atom, donor atom, acceptor molecule, acceptor atom, score
      L1  H    20    38       P1 10175  0.55
      P1  H  7989  7998       L1    12  0.19
      P1  H  7997  8010       L1    10  0.57

> <Gold.Chemscore.Hbond.Weighted>
-5.9008

> <Gold.Chemscore.Metal.Weighted>
-0.0000

> <Gold.Chemscore.Lipo.Weighted>
-8.5821

> <Gold.Chemscore.Internal_Hbond.Weighted>
0.0000

> <Gold.Chemscore.DEClash.Weighted>
0.1397

> <Gold.Chemscore.DEInternal.Weighted>
4.1923

> <Gold.Chemscore.Rot.Weighted>
8.5179

> <Gold.Chemscore.Internal.Correction.Weighted>
   9.000000E+99

> <Gold.Protein.RotatedTorsions>
[ 6907 6896 6895 6894 ] final  160.85 input  -60.11 | X-H torsion
[ 7974 7965 7964 7962 ] final  -35.72 input  175.53 | X-H torsion
[ 8008 7997 7996 7995 ] final   48.30 input   59.86 | X-H torsion
[ 10167 10162 10161 10158 ] final  -70.07 input  -65.29 | X-H torsion
[ 10718 10713 10712 10709 ] final   98.52 input   66.30 | X-H torsion
[ 10763 10752 10751 10750 ] final -164.14 input  -60.55 | X-H torsion
[ 11005 11000 10999 10996 ] final -106.14 input  -57.11 | X-H torsion

> <Gold.Protein.ActiveResidues>
 VAL166  LYS551  ARG553  GLY616  TRP617  ASP618  TYR619  PRO620  LYS621  CYS622 
 ASP623  PHE694  ASN695  SER759  ASP760  ASP761  ALA762  ILE779  LEU786  VAL792 
 PHE793  MET794  SER795  GLU796  ALA797  LYS798  CYS799  TRP800  GLU811  SER814 

> <Gold.Protein.RotatedAtoms>
  151.9644  133.3705  159.4047 H   0  0  0  0  0  0  0  0  0  0  0  0  # atno 6907 bound_to 6896
  150.6959  134.4206  159.5213 H   0  0  0  0  0  0  0  0  0  0  0  0  # atno 6908 bound_to 6896
  152.1900  134.8680  160.0569 H   0  0  0  0  0  0  0  0  0  0  0  0  # atno 6909 bound_to 6896
  146.0723  140.6193  142.8947 H   0  0  0  0  0  0  0  0  0  0  0  0  # atno 7974 bound_to 7965
  155.3834  140.3430  155.4248 H   0  0  0  0  0  0  0  0  0  0  0  0  # atno 8008 bound_to 7997
  156.1598  140.1597  156.8665 H   0  0  0  0  0  0  0  0  0  0  0  0  # atno 8009 bound_to 7997
  154.5128  140.0785  156.8006 H   0  0  0  0  0  0  0  0  0  0  0  0  # atno 8010 bound_to 7997
  140.5381  143.2316  151.7139 H   0  0  0  0  0  0  0  0  0  0  0  0  # atno 10167 bound_to 10162
  157.6894  131.0642  150.4809 H   0  0  0  0  0  0  0  0  0  0  0  0  # atno 10718 bound_to 10713
  154.7057  135.2996  154.9274 H   0  0  0  0  0  0  0  0  0  0  0  0  # atno 10763 bound_to 10752
  154.0192  135.6685  153.4775 H   0  0  0  0  0  0  0  0  0  0  0  0  # atno 10764 bound_to 10752
  153.0715  135.5058  154.8226 H   0  0  0  0  0  0  0  0  0  0  0  0  # atno 10765 bound_to 10752
  141.1019  133.8868  157.1820 H   0  0  0  0  0  0  0  0  0  0  0  0  # atno 11005 bound_to 11000
  144.7239  140.4463  143.6987 LP  0  0  0  0  0  0  0  0  0  0  0  0  # atno 17320 bound_to 7965
  145.6369  139.1544  143.2937 LP  0  0  0  0  0  0  0  0  0  0  0  0  # atno 17321 bound_to 7965
  139.4978  144.4011  152.0180 LP  0  0  0  0  0  0  0  0  0  0  0  0  # atno 17342 bound_to 10162
  140.3118  144.3529  150.6032 LP  0  0  0  0  0  0  0  0  0  0  0  0  # atno 17343 bound_to 10162
  156.5141  130.4146  149.6285 LP  0  0  0  0  0  0  0  0  0  0  0  0  # atno 17370 bound_to 10713
  156.3214  130.7282  151.2195 LP  0  0  0  0  0  0  0  0  0  0  0  0  # atno 17371 bound_to 10713
  139.9874  135.0077  156.9894 LP  0  0  0  0  0  0  0  0  0  0  0  0  # atno 17394 bound_to 11000
  140.5001  134.1106  155.7249 LP  0  0  0  0  0  0  0  0  0  0  0  0  # atno 17395 bound_to 11000

$$$$
