AV-unprocessed.smi:2931|AV-procd|sdf|11242|dock2
  -GOLD-   2272016133D 1   1.00000     0.00000
 Structure written by MMmdl.
 42 43  0  0  0  0  0  0  0  0  2 V2000
  146.1734  135.4613  153.8332 C   0  0  0  0  0  0  0  0  0  0  0  0
  146.7616  136.7023  153.2853 N   0  3  1  0  0  0  0  0  0  0  0  0
  145.8444  137.3991  152.3491 C   0  0  0  0  0  0  0  0  0  0  0  0
  146.5382  138.6060  151.6962 C   0  0  0  0  0  0  0  0  0  0  0  0
  147.0831  139.5714  152.7579 C   0  0  0  0  0  0  0  0  0  0  0  0
  147.9964  138.8195  153.7435 C   0  0  1  0  0  0  0  0  0  0  0  0
  148.4412  139.7116  154.8095 N   0  0  0  0  0  0  0  0  0  0  0  0
  149.6970  140.1490  154.9746 C   0  0  0  0  0  0  0  0  0  0  0  0
  150.6428  139.8184  154.2598 O   0  0  0  0  0  0  0  0  0  0  0  0
  149.7928  141.0059  155.9999 N   0  0  0  0  0  0  0  0  0  0  0  0
  151.0128  141.6998  156.4029 C   0  0  0  0  0  0  0  0  0  0  0  0
  151.3173  141.5624  157.9089 C   0  0  0  0  0  0  0  0  0  0  0  0
  151.3538  142.8902  158.6468 C   0  0  0  0  0  0  0  0  0  0  0  0
  152.4437  143.2252  159.4775 C   0  0  0  0  0  0  0  0  0  0  0  0
  152.4321  144.4738  160.1304 C   0  0  0  0  0  0  0  0  0  0  0  0
  151.4297  145.3693  160.0006 N   0  0  0  0  0  0  0  0  0  0  0  0
  150.3890  145.0412  159.2051 C   0  0  0  0  0  0  0  0  0  0  0  0
  150.3023  143.8192  158.5081 C   0  0  0  0  0  0  0  0  0  0  0  0
  147.2611  137.6089  154.3490 C   0  0  0  0  0  0  0  0  0  0  0  0
  145.2952  135.6799  154.4420 H   0  0  0  0  0  0  0  0  0  0  0  0
  146.8982  134.9337  154.4540 H   0  0  0  0  0  0  0  0  0  0  0  0
  145.8741  134.7889  153.0286 H   0  0  0  0  0  0  0  0  0  0  0  0
  145.5162  136.7053  151.5742 H   0  0  0  0  0  0  0  0  0  0  0  0
  144.9508  137.7231  152.8851 H   0  0  0  0  0  0  0  0  0  0  0  0
  147.3560  138.2595  151.0630 H   0  0  0  0  0  0  0  0  0  0  0  0
  145.8401  139.1285  151.0412 H   0  0  0  0  0  0  0  0  0  0  0  0
  147.6286  140.3842  152.2764 H   0  0  0  0  0  0  0  0  0  0  0  0
  146.2512  140.0297  153.2950 H   0  0  0  0  0  0  0  0  0  0  0  0
  148.8672  138.4452  153.2010 H   0  0  0  0  0  0  0  0  0  0  0  0
  147.7361  140.0473  155.4491 H   0  0  0  0  0  0  0  0  0  0  0  0
  148.9569  141.2171  156.5255 H   0  0  0  0  0  0  0  0  0  0  0  0
  151.8327  141.2674  155.8289 H   0  0  0  0  0  0  0  0  0  0  0  0
  150.9596  142.7516  156.1186 H   0  0  0  0  0  0  0  0  0  0  0  0
  150.5700  140.9211  158.3770 H   0  0  0  0  0  0  0  0  0  0  0  0
  152.2730  141.0550  158.0455 H   0  0  0  0  0  0  0  0  0  0  0  0
  153.2727  142.5454  159.6101 H   0  0  0  0  0  0  0  0  0  0  0  0
  153.2514  144.7614  160.7724 H   0  0  0  0  0  0  0  0  0  0  0  0
  149.6020  145.7754  159.1195 H   0  0  0  0  0  0  0  0  0  0  0  0
  149.4499  143.6040  157.8806 H   0  0  0  0  0  0  0  0  0  0  0  0
  146.4245  137.9396  154.9672 H   0  0  0  0  0  0  0  0  0  0  0  0
  147.9402  137.0582  155.0017 H   0  0  0  0  0  0  0  0  0  0  0  0
  147.5671  136.4218  152.7440 H   0  0  0  0  0  0  0  0  0  0  0  0
  1  2  1  0  0  0  0
  1 20  1  0  0  0  0
  1 21  1  0  0  0  0
  1 22  1  0  0  0  0
  2 19  1  0  0  0  0
  2  3  1  0  0  0  0
  2 42  1  0  0  0  0
  3  4  1  0  0  0  0
  3 23  1  0  0  0  0
  3 24  1  0  0  0  0
  4  5  1  0  0  0  0
  4 25  1  0  0  0  0
  4 26  1  0  0  0  0
  5  6  1  0  0  0  0
  5 27  1  0  0  0  0
  5 28  1  0  0  0  0
  6  7  1  0  0  0  0
  6 19  1  0  0  0  0
  6 29  1  0  0  0  0
  7  8  1  0  0  0  0
  7 30  1  0  0  0  0
  8  9  2  0  0  0  0
  8 10  1  0  0  0  0
 10 11  1  0  0  0  0
 10 31  1  0  0  0  0
 11 12  1  0  0  0  0
 11 32  1  0  0  0  0
 11 33  1  0  0  0  0
 12 13  1  0  0  0  0
 12 34  1  0  0  0  0
 12 35  1  0  0  0  0
 13 18  1  0  0  0  0
 13 14  2  0  0  0  0
 14 15  1  0  0  0  0
 14 36  1  0  0  0  0
 15 16  2  0  0  0  0
 15 37  1  0  0  0  0
 16 17  1  0  0  0  0
 17 18  2  0  0  0  0
 17 38  1  0  0  0  0
 18 39  1  0  0  0  0
 19 40  1  0  0  0  0
 19 41  1  0  0  0  0
M  CHG  1   2   1
M  END
> <s_m_source_file>
AV-unprocessed.smi

> <i_m_source_file_index>
2931

> <i_lp_mmshare_version>
43012

> <i_f3d_flags>
0

> <s_epik_input>
W0NIM11OMVtDSDJdW0NIMl1bQ0gyXVtDQEhdKFtDSDJdMSlbTkhdQyg9TylbTkhdW0NIMl1bQ0gyXWMyW2NIXVtjSF1uW2NIXVtjSF0y

> <s_epik_cmdline>
J2VwaWtfcHl0aG9uJywgJy1waCcsICc3LjAnLCAnLXRuJywgJzgnLCAnLW1hJywgJzIwMCcsICctbWV0YWxfYmluZGluZycsICctaW1hZScsICc8aW5maWxlLm1hZT4nLCAnLW9tYWUnLCAnPG91dGZpbGUubWFlPic=

> <r_epik_Ionization_Penalty>
0.0573876

> <r_epik_Ionization_Penalty_Charging>
0.00229982

> <r_epik_Ionization_Penalty_Neutral>
0.0550878

> <r_epik_State_Penalty>
0.0473925

> <r_epik_Charging_Adjusted_Penalty>
0.0496923

> <i_epik_Tot_Q>
1

> <i_epik_Tot_abs_Q>
1

> <r_epik_Metal_State_Penalty>
0.0433388

> <b_epik_Metal_Only>
0

> <s_lp_Force_Field>
OPLS_2005

> <r_lp_Energy>
13.6108

> <b_lp_Chiralities_Consistent>
1

> <s_lp_Variant>
AV-unprocessed.smi:2931-1

> <Gold.Version>
5.8.1

> <Gold.Id.Protein>
6NUR|6NUR_protein|mol2

> <Gold.PLP.Fitness>
43.8772

> <Gold.PLP.PLP>
-33.2821

> <Gold.PLP.part.hbond>
-2.0000

> <Gold.PLP.part.metal>
0.0000

> <Gold.PLP.part.buried>
-4.1279

> <Gold.PLP.part.nonpolar>
-29.2565

> <Gold.PLP.part.repulsive>
0.4181

> <Gold.PLP.ligand.clash>
0.0000

> <Gold.PLP.ligand.torsion>
0.5711

> <Gold.PLP.Chemscore.Hbond>
3.0000

> <Gold.PLP.Chemscore.CHOScore>
0.9054

> <Gold.PLP.Chemscore.Metal>
0.0000

> <Gold.Chemscore.Hbonds>
donor molecule, donor type, donor heavy atom, donor atom, acceptor molecule, acceptor atom, score
      L1  H     2    42       P1  7948  2.00
      P1  H  7989  7998       L1     9  1.00
      L1  C    17    38       P1  8029  0.94

> <Gold.PLP.Chemscore.Internal.Correction>
0.0211

> <Gold.Rescore>
     Score         DG    S(hbond)    S(metal)    S(lipo)     H(rot)  DE(clash)    DE(int)     intcor
     19.05     -19.55       1.98        0.00      97.69       1.56       0.03       0.47       ----

> <Gold.Chemscore.Fitness>
19.0454

> <Gold.Chemscore.DG>
-19.5482

> <Gold.Chemscore.ZeroCoef>
-5.4800

> <Gold.Chemscore.Hbond>
1.9849

> <Gold.Chemscore.Metal>
0.0000

> <Gold.Chemscore.Lipo>
97.6943

> <Gold.Chemscore.Internal_Hbond>
0.0000

> <Gold.Chemscore.DEClash>
0.0314

> <Gold.Chemscore.DEInternal>
0.4714

> <Gold.Chemscore.Rot>
1.5592

> <Gold.Chemscore.Internal.Correction>
   9.000000E+99

> <Gold.Chemscore.Hbonds>
donor molecule, donor type, donor heavy atom, donor atom, acceptor molecule, acceptor atom, score
      L1  H     2    42       P1  7948  1.00
      P1  H  7989  7998       L1     9  0.99

> <Gold.Chemscore.Hbond.Weighted>
-6.6294

> <Gold.Chemscore.Metal.Weighted>
-0.0000

> <Gold.Chemscore.Lipo.Weighted>
-11.4302

> <Gold.Chemscore.Internal_Hbond.Weighted>
0.0000

> <Gold.Chemscore.DEClash.Weighted>
0.0314

> <Gold.Chemscore.DEInternal.Weighted>
0.4714

> <Gold.Chemscore.Rot.Weighted>
3.9915

> <Gold.Chemscore.Internal.Correction.Weighted>
   9.000000E+99

> <Gold.Protein.RotatedTorsions>
[ 6907 6896 6895 6894 ] final -164.59 input  -60.11 | X-H torsion
[ 7974 7965 7964 7962 ] final -140.40 input  175.53 | X-H torsion
[ 8008 7997 7996 7995 ] final  -94.12 input   59.86 | X-H torsion
[ 10167 10162 10161 10158 ] final   46.96 input  -65.29 | X-H torsion
[ 10718 10713 10712 10709 ] final  -44.49 input   66.30 | X-H torsion
[ 10763 10752 10751 10750 ] final  126.35 input  -60.55 | X-H torsion
[ 11005 11000 10999 10996 ] final  117.24 input  -57.11 | X-H torsion

> <Gold.Protein.ActiveResidues>
 VAL166  LYS551  ARG553  GLY616  TRP617  ASP618  TYR619  PRO620  LYS621  CYS622 
 ASP623  PHE694  ASN695  SER759  ASP760  ASP761  ALA762  ILE779  LEU786  VAL792 
 PHE793  MET794  SER795  GLU796  ALA797  LYS798  CYS799  TRP800  GLU811  SER814 

> <Gold.Protein.RotatedAtoms>
  151.4142  133.3718  159.2747 H   0  0  0  0  0  0  0  0  0  0  0  0  # atno 6907 bound_to 6896
  150.9340  134.8755  159.7580 H   0  0  0  0  0  0  0  0  0  0  0  0  # atno 6908 bound_to 6896
  152.5041  134.4089  159.9494 H   0  0  0  0  0  0  0  0  0  0  0  0  # atno 6909 bound_to 6896
  144.8600  140.6204  143.5334 H   0  0  0  0  0  0  0  0  0  0  0  0  # atno 7974 bound_to 7965
  154.7443  140.0492  157.0838 H   0  0  0  0  0  0  0  0  0  0  0  0  # atno 8008 bound_to 7997
  155.0138  140.3139  155.4800 H   0  0  0  0  0  0  0  0  0  0  0  0  # atno 8009 bound_to 7997
  156.2871  140.2179  156.5253 H   0  0  0  0  0  0  0  0  0  0  0  0  # atno 8010 bound_to 7997
  140.3085  144.2848  150.6204 H   0  0  0  0  0  0  0  0  0  0  0  0  # atno 10167 bound_to 10162
  156.2380  130.4177  149.8794 H   0  0  0  0  0  0  0  0  0  0  0  0  # atno 10718 bound_to 10713
  153.6919  135.3297  155.3204 H   0  0  0  0  0  0  0  0  0  0  0  0  # atno 10763 bound_to 10752
  154.8437  135.4433  154.1500 H   0  0  0  0  0  0  0  0  0  0  0  0  # atno 10764 bound_to 10752
  153.2544  135.6984  153.7723 H   0  0  0  0  0  0  0  0  0  0  0  0  # atno 10765 bound_to 10752
  139.9068  134.9608  156.7321 H   0  0  0  0  0  0  0  0  0  0  0  0  # atno 11005 bound_to 11000
  145.4331  139.1546  143.4011 LP  0  0  0  0  0  0  0  0  0  0  0  0  # atno 17320 bound_to 7965
  146.2853  140.4448  142.8760 LP  0  0  0  0  0  0  0  0  0  0  0  0  # atno 17321 bound_to 7965
  140.5589  143.2195  151.7800 LP  0  0  0  0  0  0  0  0  0  0  0  0  # atno 17342 bound_to 10162
  139.4899  144.4376  151.9801 LP  0  0  0  0  0  0  0  0  0  0  0  0  # atno 17343 bound_to 10162
  156.6385  130.8695  151.3509 LP  0  0  0  0  0  0  0  0  0  0  0  0  # atno 17370 bound_to 10713
  157.7163  130.9501  150.1268 LP  0  0  0  0  0  0  0  0  0  0  0  0  # atno 17371 bound_to 10713
  140.6917  133.9384  155.7970 LP  0  0  0  0  0  0  0  0  0  0  0  0  # atno 17394 bound_to 11000
  141.0437  134.0585  157.3871 LP  0  0  0  0  0  0  0  0  0  0  0  0  # atno 17395 bound_to 11000

$$$$
