AV-unprocessed.smi:1715|AV-procd|sdf|6910|dock4
  -GOLD-   22720 8113D 1   1.00000     0.00000
 Structure written by MMmdl.
 40 41  0  0  0  0  0  0  0  0  1 V2000
  150.6050  141.8716  156.6724 C   0  0  0  0  0  0  0  0  0  0  0  0
  150.3531  141.0654  155.3939 C   0  0  2  0  0  0  0  0  0  0  0  0
  148.8556  140.9824  155.0426 C   0  0  0  0  0  0  0  0  0  0  0  0
  148.6135  140.1533  153.8672 N   0  0  0  0  0  0  0  0  0  0  0  0
  147.1871  140.0995  153.5521 C   0  0  0  0  0  0  0  0  0  0  0  0
  146.7936  139.0475  152.4981 C   0  0  0  0  0  0  0  0  0  0  0  0
  145.4009  138.6434  152.6471 N   0  0  0  0  0  0  0  0  0  0  0  0
  144.9900  137.4312  153.0453 C   0  0  0  0  0  0  0  0  0  0  0  0
  145.7574  136.5122  153.3323 O   0  0  0  0  0  0  0  0  0  0  0  0
  143.6494  137.3591  153.0850 N   0  0  0  0  0  0  0  0  0  0  0  0
  142.8580  136.2440  153.4596 C   0  0  0  0  0  0  0  0  0  0  0  0
  141.4576  136.2894  153.6982 C   0  0  0  0  0  0  0  0  0  0  0  0
  140.9849  135.0976  154.0334 N   0  0  0  0  0  0  0  0  0  0  0  0
  142.0705  134.2917  154.0116 N   0  0  0  0  0  0  0  0  0  0  0  0
  143.2326  134.9459  153.6669 C   0  0  0  0  0  0  0  0  0  0  0  0
  149.1898  138.8304  154.0955 C   0  0  0  0  0  0  0  0  0  0  0  0
  150.6876  138.9064  154.4501 C   0  0  2  0  0  0  0  0  0  0  0  0
  151.2766  137.5299  154.7763 C   0  0  0  0  0  0  0  0  0  0  0  0
  150.8571  139.7468  155.5882 O   0  0  0  0  0  0  0  0  0  0  0  0
  142.0030  133.3081  154.2320 H   0  0  0  0  0  0  0  0  0  0  0  0
  150.2444  142.8951  156.5681 H   0  0  0  0  0  0  0  0  0  0  0  0
  151.6701  141.9161  156.9013 H   0  0  0  0  0  0  0  0  0  0  0  0
  150.0986  141.4235  157.5279 H   0  0  0  0  0  0  0  0  0  0  0  0
  150.8960  141.5344  154.5715 H   0  0  0  0  0  0  0  0  0  0  0  0
  148.3047  140.5820  155.8955 H   0  0  0  0  0  0  0  0  0  0  0  0
  148.4713  141.9882  154.8687 H   0  0  0  0  0  0  0  0  0  0  0  0
  146.6143  139.9338  154.4658 H   0  0  0  0  0  0  0  0  0  0  0  0
  146.8782  141.0771  153.1792 H   0  0  0  0  0  0  0  0  0  0  0  0
  146.9679  139.4306  151.4911 H   0  0  0  0  0  0  0  0  0  0  0  0
  147.4017  138.1496  152.6005 H   0  0  0  0  0  0  0  0  0  0  0  0
  144.7004  139.3376  152.4320 H   0  0  0  0  0  0  0  0  0  0  0  0
  143.1406  138.1895  152.8199 H   0  0  0  0  0  0  0  0  0  0  0  0
  140.7823  137.1303  153.6403 H   0  0  0  0  0  0  0  0  0  0  0  0
  144.1846  134.4401  153.6046 H   0  0  0  0  0  0  0  0  0  0  0  0
  148.6506  138.3275  154.8999 H   0  0  0  0  0  0  0  0  0  0  0  0
  149.0752  138.2104  153.2069 H   0  0  0  0  0  0  0  0  0  0  0  0
  151.2396  139.3334  153.6111 H   0  0  0  0  0  0  0  0  0  0  0  0
  151.1819  136.8509  153.9284 H   0  0  0  0  0  0  0  0  0  0  0  0
  150.7700  137.0755  155.6281 H   0  0  0  0  0  0  0  0  0  0  0  0
  152.3358  137.6085  155.0219 H   0  0  0  0  0  0  0  0  0  0  0  0
  1  2  1  0  0  0  0
  1 21  1  0  0  0  0
  1 22  1  0  0  0  0
  1 23  1  0  0  0  0
  2 19  1  0  0  0  0
  2  3  1  0  0  0  0
  2 24  1  0  0  0  0
  3  4  1  0  0  0  0
  3 25  1  0  0  0  0
  3 26  1  0  0  0  0
  4  5  1  0  0  0  0
  4 16  1  0  0  0  0
  5  6  1  0  0  0  0
  5 27  1  0  0  0  0
  5 28  1  0  0  0  0
  6  7  1  0  0  0  0
  6 29  1  0  0  0  0
  6 30  1  0  0  0  0
  7  8  1  0  0  0  0
  7 31  1  0  0  0  0
  8  9  2  0  0  0  0
  8 10  1  0  0  0  0
 10 11  1  0  0  0  0
 10 32  1  0  0  0  0
 11 15  2  0  0  0  0
 11 12  1  0  0  0  0
 12 13  2  0  0  0  0
 12 33  1  0  0  0  0
 13 14  1  0  0  0  0
 14 20  1  0  0  0  0
 14 15  1  0  0  0  0
 15 34  1  0  0  0  0
 16 17  1  0  0  0  0
 16 35  1  0  0  0  0
 16 36  1  0  0  0  0
 17 18  1  0  0  0  0
 17 19  1  0  0  0  0
 17 37  1  0  0  0  0
 18 38  1  0  0  0  0
 18 39  1  0  0  0  0
 18 40  1  0  0  0  0
M  END
> <s_m_source_file>
AV-unprocessed.smi

> <i_m_source_file_index>
1715

> <i_lp_mmshare_version>
43012

> <i_f3d_flags>
0

> <s_epik_input>
W0NIM11bQ0BASF0xW0NIMl1OKFtDSDJdW0NASF0oTzEpW0NIM10pW0NIMl1bQ0gyXVtOSF1DKD1PKVtOSF1jMltjSF1uW25IXVtjSF0y

> <s_epik_cmdline>
J2VwaWtfcHl0aG9uJywgJy1waCcsICc3LjAnLCAnLXRuJywgJzgnLCAnLW1hJywgJzIwMCcsICctbWV0YWxfYmluZGluZycsICctaW1hZScsICc8aW5maWxlLm1hZT4nLCAnLW9tYWUnLCAnPG91dGZpbGUubWFlPic=

> <r_lp_tautomer_probability>
0.5

> <r_epik_Ionization_Penalty>
0.242771

> <r_epik_Ionization_Penalty_Charging>
0

> <r_epik_Ionization_Penalty_Neutral>
0.242771

> <r_epik_State_Penalty>
0.233765

> <r_epik_Charging_Adjusted_Penalty>
0.233765

> <i_epik_Tot_Q>
0

> <i_epik_Tot_abs_Q>
0

> <r_epik_Metal_State_Penalty>
0.233764

> <b_epik_Metal_Only>
0

> <s_lp_Force_Field>
OPLS_2005

> <r_lp_Energy>
21.5882

> <b_lp_Chiralities_Consistent>
1

> <s_lp_Variant>
AV-unprocessed.smi:1715-2

> <Gold.Version>
5.8.1

> <Gold.Id.Protein>
6NUR|6NUR_protein|mol2

> <Gold.PLP.Fitness>
41.4530

> <Gold.PLP.PLP>
-33.1335

> <Gold.PLP.part.hbond>
-4.5866

> <Gold.PLP.part.metal>
0.0000

> <Gold.PLP.part.buried>
-5.9147

> <Gold.PLP.part.nonpolar>
-24.3628

> <Gold.PLP.part.repulsive>
2.0115

> <Gold.PLP.ligand.clash>
0.0000

> <Gold.PLP.ligand.torsion>
0.2692

> <Gold.PLP.Chemscore.Hbond>
2.9491

> <Gold.PLP.Chemscore.CHOScore>
0.0000

> <Gold.PLP.Chemscore.Metal>
0.0000

> <Gold.Chemscore.Hbonds>
donor molecule, donor type, donor heavy atom, donor atom, acceptor molecule, acceptor atom, score
      L1  H     7    31       P1 10175  0.96
      L1  H    10    32       P1 10175  0.21
      L1  H    14    20       P1 10957  1.00
      P1  H 11000 11005       L1    13  0.80

> <Gold.PLP.Chemscore.Internal.Correction>
0.0106

> <Gold.Rescore>
     Score         DG    S(hbond)    S(metal)    S(lipo)     H(rot)  DE(clash)    DE(int)     intcor
     17.55     -19.02       2.90        0.00      68.69       1.63       0.11       1.36       ----

> <Gold.Chemscore.Fitness>
17.5481

> <Gold.Chemscore.DG>
-19.0168

> <Gold.Chemscore.ZeroCoef>
-5.4800

> <Gold.Chemscore.Hbond>
2.8952

> <Gold.Chemscore.Metal>
0.0000

> <Gold.Chemscore.Lipo>
68.6868

> <Gold.Chemscore.Internal_Hbond>
0.0000

> <Gold.Chemscore.DEClash>
0.1066

> <Gold.Chemscore.DEInternal>
1.3620

> <Gold.Chemscore.Rot>
1.6287

> <Gold.Chemscore.Internal.Correction>
   9.000000E+99

> <Gold.Chemscore.Hbonds>
donor molecule, donor type, donor heavy atom, donor atom, acceptor molecule, acceptor atom, score
      L1  H     7    31       P1 10175  0.91
      L1  H    10    32       P1 10175  0.20
      L1  H    14    20       P1 10957  0.98
      P1  H 11000 11005       L1    13  0.11

> <Gold.Chemscore.Hbond.Weighted>
-9.6699

> <Gold.Chemscore.Metal.Weighted>
-0.0000

> <Gold.Chemscore.Lipo.Weighted>
-8.0364

> <Gold.Chemscore.Internal_Hbond.Weighted>
0.0000

> <Gold.Chemscore.DEClash.Weighted>
0.1066

> <Gold.Chemscore.DEInternal.Weighted>
1.3620

> <Gold.Chemscore.Rot.Weighted>
4.1695

> <Gold.Chemscore.Internal.Correction.Weighted>
   9.000000E+99

> <Gold.Protein.RotatedTorsions>
[ 6907 6896 6895 6894 ] final  110.41 input  -60.11 | X-H torsion
[ 7974 7965 7964 7962 ] final -178.41 input  175.53 | X-H torsion
[ 8008 7997 7996 7995 ] final  158.62 input   59.86 | X-H torsion
[ 10167 10162 10161 10158 ] final -108.94 input  -65.29 | X-H torsion
[ 10718 10713 10712 10709 ] final -178.35 input   66.30 | X-H torsion
[ 10763 10752 10751 10750 ] final -141.02 input  -60.55 | X-H torsion
[ 11005 11000 10999 10996 ] final   38.22 input  -57.11 | X-H torsion

> <Gold.Protein.ActiveResidues>
 VAL166  LYS551  ARG553  GLY616  TRP617  ASP618  TYR619  PRO620  LYS621  CYS622 
 ASP623  PHE694  ASN695  SER759  ASP760  ASP761  ALA762  ILE779  LEU786  VAL792 
 PHE793  MET794  SER795  GLU796  ALA797  LYS798  CYS799  TRP800  GLU811  SER814 

> <Gold.Protein.RotatedAtoms>
  152.5021  133.8804  159.7343 H   0  0  0  0  0  0  0  0  0  0  0  0  # atno 6907 bound_to 6896
  150.9268  133.6805  159.2826 H   0  0  0  0  0  0  0  0  0  0  0  0  # atno 6908 bound_to 6896
  151.4163  135.0996  159.9653 H   0  0  0  0  0  0  0  0  0  0  0  0  # atno 6909 bound_to 6896
  144.7131  140.0872  143.6423 H   0  0  0  0  0  0  0  0  0  0  0  0  # atno 7974 bound_to 7965
  156.2291  140.1853  156.7288 H   0  0  0  0  0  0  0  0  0  0  0  0  # atno 8008 bound_to 7997
  154.5991  140.0639  156.9372 H   0  0  0  0  0  0  0  0  0  0  0  0  # atno 8009 bound_to 7997
  155.2204  140.3307  155.4319 H   0  0  0  0  0  0  0  0  0  0  0  0  # atno 8010 bound_to 7997
  140.1607  143.4123  152.1428 H   0  0  0  0  0  0  0  0  0  0  0  0  # atno 10167 bound_to 10162
  156.8430  130.9693  151.3098 H   0  0  0  0  0  0  0  0  0  0  0  0  # atno 10718 bound_to 10713
  154.8559  135.3536  154.5801 H   0  0  0  0  0  0  0  0  0  0  0  0  # atno 10763 bound_to 10752
  153.6412  135.6998  153.5245 H   0  0  0  0  0  0  0  0  0  0  0  0  # atno 10764 bound_to 10752
  153.2970  135.4218  155.1177 H   0  0  0  0  0  0  0  0  0  0  0  0  # atno 10765 bound_to 10752
  140.2148  134.3712  155.8032 H   0  0  0  0  0  0  0  0  0  0  0  0  # atno 11005 bound_to 11000
  145.9651  139.2829  143.1132 LP  0  0  0  0  0  0  0  0  0  0  0  0  # atno 17320 bound_to 7965
  145.9178  140.9136  143.0421 LP  0  0  0  0  0  0  0  0  0  0  0  0  # atno 17321 bound_to 7965
  139.5382  144.7231  151.4820 LP  0  0  0  0  0  0  0  0  0  0  0  0  # atno 17342 bound_to 10162
  140.6645  143.8428  150.6925 LP  0  0  0  0  0  0  0  0  0  0  0  0  # atno 17343 bound_to 10162
  157.6345  130.8756  149.9334 LP  0  0  0  0  0  0  0  0  0  0  0  0  # atno 17370 bound_to 10713
  156.0870  130.3667  150.0468 LP  0  0  0  0  0  0  0  0  0  0  0  0  # atno 17371 bound_to 10713
  141.2225  133.7162  156.8478 LP  0  0  0  0  0  0  0  0  0  0  0  0  # atno 17394 bound_to 11000
  140.1912  134.8964  157.3063 LP  0  0  0  0  0  0  0  0  0  0  0  0  # atno 17395 bound_to 11000

$$$$
