AV-unprocessed.smi:1893|AV-procd|sdf|7674|dock10
  -GOLD-   22720 9413D 1   1.00000     0.00000
 Structure written by MMmdl.
 43 44  0  0  0  0  0  0  0  0  2 V2000
  145.8747  132.7731  150.6846 C   0  0  0  0  0  0  0  0  0  0  0  0
  146.0004  131.6755  151.7596 C   0  0  1  0  0  0  0  0  0  0  0  0
  145.6017  130.3172  151.1414 C   0  0  0  0  0  0  0  0  0  0  0  0
  145.7208  129.1700  152.1491 C   0  0  0  0  0  0  0  0  0  0  0  0
  147.1407  129.1360  152.7172 C   0  0  0  0  0  0  0  0  0  0  0  0
  147.5034  130.4920  153.3378 C   0  0  0  0  0  0  0  0  0  0  0  0
  147.3717  131.6058  152.3585 N   0  3  2  0  0  0  0  0  0  0  0  0
  147.8556  132.8904  152.9349 C   0  0  0  0  0  0  0  0  0  0  0  0
  146.8796  133.4390  153.9923 C   0  0  0  0  0  0  0  0  0  0  0  0
  145.8598  134.2845  153.3843 N   0  0  0  0  0  0  0  0  0  0  0  0
  144.7680  134.7463  154.0147 C   0  0  0  0  0  0  0  0  0  0  0  0
  144.5367  134.5197  155.2031 O   0  0  0  0  0  0  0  0  0  0  0  0
  143.7919  135.5768  153.1656 C   0  0  2  0  0  0  0  0  0  0  0  0
  144.2627  137.0310  152.9604 C   0  0  0  0  0  0  0  0  0  0  0  0
  142.4507  135.5116  153.7331 N   0  0  0  0  0  0  0  0  0  0  0  0
  141.7049  134.4520  154.0540 C   0  0  0  0  0  0  0  0  0  0  0  0
  140.5370  134.7608  154.5995 N   0  0  0  0  0  0  0  0  0  0  0  0
  140.6333  136.1233  154.5896 C   0  0  0  0  0  0  0  0  0  0  0  0
  141.7642  136.6247  154.0938 N   0  0  0  0  0  0  0  0  0  0  0  0
  144.8820  132.7615  150.2336 H   0  0  0  0  0  0  0  0  0  0  0  0
  146.5992  132.6276  149.8826 H   0  0  0  0  0  0  0  0  0  0  0  0
  146.0183  133.7734  151.0918 H   0  0  0  0  0  0  0  0  0  0  0  0
  145.2973  131.9043  152.5623 H   0  0  0  0  0  0  0  0  0  0  0  0
  144.5783  130.3624  150.7670 H   0  0  0  0  0  0  0  0  0  0  0  0
  146.2341  130.1050  150.2779 H   0  0  0  0  0  0  0  0  0  0  0  0
  144.9990  129.3056  152.9556 H   0  0  0  0  0  0  0  0  0  0  0  0
  145.4826  128.2198  151.6699 H   0  0  0  0  0  0  0  0  0  0  0  0
  147.2229  128.3486  153.4671 H   0  0  0  0  0  0  0  0  0  0  0  0
  147.8513  128.8888  151.9272 H   0  0  0  0  0  0  0  0  0  0  0  0
  146.8669  130.6900  154.2019 H   0  0  0  0  0  0  0  0  0  0  0  0
  148.5305  130.4472  153.7030 H   0  0  0  0  0  0  0  0  0  0  0  0
  148.8583  132.7770  153.3495 H   0  0  0  0  0  0  0  0  0  0  0  0
  147.9610  133.6379  152.1471 H   0  0  0  0  0  0  0  0  0  0  0  0
  146.4080  132.6198  154.5380 H   0  0  0  0  0  0  0  0  0  0  0  0
  147.4069  134.0372  154.7341 H   0  0  0  0  0  0  0  0  0  0  0  0
  145.9804  134.5193  152.4096 H   0  0  0  0  0  0  0  0  0  0  0  0
  143.7460  135.1106  152.1797 H   0  0  0  0  0  0  0  0  0  0  0  0
  145.2456  137.0638  152.4891 H   0  0  0  0  0  0  0  0  0  0  0  0
  144.3294  137.5780  153.9017 H   0  0  0  0  0  0  0  0  0  0  0  0
  143.5735  137.5738  152.3130 H   0  0  0  0  0  0  0  0  0  0  0  0
  142.0249  133.4332  153.8905 H   0  0  0  0  0  0  0  0  0  0  0  0
  139.8501  136.7646  154.9667 H   0  0  0  0  0  0  0  0  0  0  0  0
  148.0036  131.3809  151.6033 H   0  0  0  0  0  0  0  0  0  0  0  0
  1  2  1  0  0  0  0
  1 20  1  0  0  0  0
  1 21  1  0  0  0  0
  1 22  1  0  0  0  0
  2  7  1  0  0  0  0
  2  3  1  0  0  0  0
  2 23  1  0  0  0  0
  3  4  1  0  0  0  0
  3 24  1  0  0  0  0
  3 25  1  0  0  0  0
  4  5  1  0  0  0  0
  4 26  1  0  0  0  0
  4 27  1  0  0  0  0
  5  6  1  0  0  0  0
  5 28  1  0  0  0  0
  5 29  1  0  0  0  0
  6  7  1  0  0  0  0
  6 30  1  0  0  0  0
  6 31  1  0  0  0  0
  7  8  1  0  0  0  0
  7 43  1  0  0  0  0
  8  9  1  0  0  0  0
  8 32  1  0  0  0  0
  8 33  1  0  0  0  0
  9 10  1  0  0  0  0
  9 34  1  0  0  0  0
  9 35  1  0  0  0  0
 10 11  1  0  0  0  0
 10 36  1  0  0  0  0
 11 12  2  0  0  0  0
 11 13  1  0  0  0  0
 13 14  1  0  0  0  0
 13 15  1  0  0  0  0
 13 37  1  0  0  0  0
 14 38  1  0  0  0  0
 14 39  1  0  0  0  0
 14 40  1  0  0  0  0
 15 19  1  0  0  0  0
 15 16  1  0  0  0  0
 16 17  2  0  0  0  0
 16 41  1  0  0  0  0
 17 18  1  0  0  0  0
 18 19  2  0  0  0  0
 18 42  1  0  0  0  0
M  CHG  1   7   1
M  END
> <s_m_source_file>
AV-unprocessed.smi

> <i_m_source_file_index>
1893

> <i_lp_mmshare_version>
43012

> <i_f3d_flags>
0

> <s_epik_input>
W0NIM11bQ0BASF0xW0NIMl1bQ0gyXVtDSDJdW0NIMl1OMVtDSDJdW0NIMl1bTkhdQyg9TylbQ0BIXShbQ0gzXSluMltjSF1uW2NIXW4y

> <s_epik_cmdline>
J2VwaWtfcHl0aG9uJywgJy1waCcsICc3LjAnLCAnLXRuJywgJzgnLCAnLW1hJywgJzIwMCcsICctbWV0YWxfYmluZGluZycsICctaW1hZScsICc8aW5maWxlLm1hZT4nLCAnLW9tYWUnLCAnPG91dGZpbGUubWFlPic=

> <r_lp_tautomer_probability>
1

> <r_epik_Ionization_Penalty>
0.00266409

> <r_epik_Ionization_Penalty_Charging>
0.00265606

> <r_epik_Ionization_Penalty_Neutral>
8.02794e-06

> <r_epik_State_Penalty>
0.00184955

> <r_epik_Charging_Adjusted_Penalty>
0.00450561

> <i_epik_Tot_Q>
1

> <i_epik_Tot_abs_Q>
1

> <r_epik_Metal_State_Penalty>
-0

> <b_epik_Metal_Only>
0

> <s_lp_Force_Field>
OPLS_2005

> <r_lp_Energy>
24.4169

> <b_lp_Chiralities_Consistent>
1

> <s_lp_Variant>
AV-unprocessed.smi:1893-4

> <Gold.Version>
5.8.1

> <Gold.Id.Protein>
6NUR|6NUR_protein|mol2

> <Gold.PLP.Fitness>
40.1311

> <Gold.PLP.PLP>
-32.8085

> <Gold.PLP.part.hbond>
-2.9568

> <Gold.PLP.part.metal>
0.0000

> <Gold.PLP.part.buried>
-6.1522

> <Gold.PLP.part.nonpolar>
-24.2739

> <Gold.PLP.part.repulsive>
0.4136

> <Gold.PLP.ligand.clash>
0.0000

> <Gold.PLP.ligand.torsion>
0.9006

> <Gold.PLP.Chemscore.Hbond>
2.0000

> <Gold.PLP.Chemscore.CHOScore>
1.0000

> <Gold.PLP.Chemscore.Metal>
0.0000

> <Gold.Chemscore.Hbonds>
donor molecule, donor type, donor heavy atom, donor atom, acceptor molecule, acceptor atom, score
      L1  H     7    43       P1 10747  1.00
      P1  H 11000 11005       L1    17  0.31
      L1  C    16    41       P1 10957  0.87

> <Gold.PLP.Chemscore.Internal.Correction>
0.1237

> <Gold.Rescore>
     Score         DG    S(hbond)    S(metal)    S(lipo)     H(rot)  DE(clash)    DE(int)     intcor
     11.82     -12.94       1.84        0.00      66.74       2.54       0.04       1.09       ----

> <Gold.Chemscore.Fitness>
11.8155

> <Gold.Chemscore.DG>
-12.9380

> <Gold.Chemscore.ZeroCoef>
-5.4800

> <Gold.Chemscore.Hbond>
1.8401

> <Gold.Chemscore.Metal>
0.0000

> <Gold.Chemscore.Lipo>
66.7415

> <Gold.Chemscore.Internal_Hbond>
0.0000

> <Gold.Chemscore.DEClash>
0.0357

> <Gold.Chemscore.DEInternal>
1.0868

> <Gold.Chemscore.Rot>
2.5377

> <Gold.Chemscore.Internal.Correction>
   9.000000E+99

> <Gold.Chemscore.Hbonds>
donor molecule, donor type, donor heavy atom, donor atom, acceptor molecule, acceptor atom, score
      L1  H     7    43       P1 10747  1.00
      P1  H 11000 11005       L1    17  0.20

> <Gold.Chemscore.Hbond.Weighted>
-6.1458

> <Gold.Chemscore.Metal.Weighted>
-0.0000

> <Gold.Chemscore.Lipo.Weighted>
-7.8088

> <Gold.Chemscore.Internal_Hbond.Weighted>
0.0000

> <Gold.Chemscore.DEClash.Weighted>
0.0357

> <Gold.Chemscore.DEInternal.Weighted>
1.0868

> <Gold.Chemscore.Rot.Weighted>
6.4966

> <Gold.Chemscore.Internal.Correction.Weighted>
   9.000000E+99

> <Gold.Protein.RotatedTorsions>
[ 6907 6896 6895 6894 ] final   79.93 input  -60.11 | X-H torsion
[ 7974 7965 7964 7962 ] final   24.47 input  175.53 | X-H torsion
[ 8008 7997 7996 7995 ] final  -73.33 input   59.86 | X-H torsion
[ 10167 10162 10161 10158 ] final -150.76 input  -65.29 | X-H torsion
[ 10718 10713 10712 10709 ] final  -72.36 input   66.30 | X-H torsion
[ 10763 10752 10751 10750 ] final -115.09 input  -60.55 | X-H torsion
[ 11005 11000 10999 10996 ] final   17.88 input  -57.11 | X-H torsion

> <Gold.Protein.ActiveResidues>
 VAL166  LYS551  ARG553  GLY616  TRP617  ASP618  TYR619  PRO620  LYS621  CYS622 
 ASP623  PHE694  ASN695  SER759  ASP760  ASP761  ALA762  ILE779  LEU786  VAL792 
 PHE793  MET794  SER795  GLU796  ALA797  LYS798  CYS799  TRP800  GLU811  SER814 

> <Gold.Protein.RotatedAtoms>
  152.5216  134.3436  159.9225 H   0  0  0  0  0  0  0  0  0  0  0  0  # atno 6907 bound_to 6896
  151.3386  133.3965  159.2677 H   0  0  0  0  0  0  0  0  0  0  0  0  # atno 6908 bound_to 6896
  150.9822  134.9192  159.7908 H   0  0  0  0  0  0  0  0  0  0  0  0  # atno 6909 bound_to 6896
  146.1936  139.7599  142.8814 H   0  0  0  0  0  0  0  0  0  0  0  0  # atno 7974 bound_to 7965
  154.5239  140.0781  156.8222 H   0  0  0  0  0  0  0  0  0  0  0  0  # atno 8008 bound_to 7997
  155.3518  140.3413  155.4221 H   0  0  0  0  0  0  0  0  0  0  0  0  # atno 8009 bound_to 7997
  156.1710  140.1620  156.8434 H   0  0  0  0  0  0  0  0  0  0  0  0  # atno 8010 bound_to 7997
  139.7327  143.8784  152.2539 H   0  0  0  0  0  0  0  0  0  0  0  0  # atno 10167 bound_to 10162
  156.0324  130.4370  150.2581 H   0  0  0  0  0  0  0  0  0  0  0  0  # atno 10718 bound_to 10713
  154.8467  135.4394  154.1609 H   0  0  0  0  0  0  0  0  0  0  0  0  # atno 10763 bound_to 10752
  153.2746  135.6948  153.7452 H   0  0  0  0  0  0  0  0  0  0  0  0  # atno 10764 bound_to 10752
  153.6680  135.3423  155.3120 H   0  0  0  0  0  0  0  0  0  0  0  0  # atno 10765 bound_to 10752
  140.4310  134.1420  155.7680 H   0  0  0  0  0  0  0  0  0  0  0  0  # atno 11005 bound_to 11000
  145.3716  141.0343  143.3228 LP  0  0  0  0  0  0  0  0  0  0  0  0  # atno 17320 bound_to 7965
  144.8534  139.5286  143.6845 LP  0  0  0  0  0  0  0  0  0  0  0  0  # atno 17321 bound_to 7965
  139.8712  144.7067  150.8986 LP  0  0  0  0  0  0  0  0  0  0  0  0  # atno 17342 bound_to 10162
  140.7774  143.3737  151.1602 LP  0  0  0  0  0  0  0  0  0  0  0  0  # atno 17343 bound_to 10162
  157.0682  131.0109  151.3199 LP  0  0  0  0  0  0  0  0  0  0  0  0  # atno 17370 bound_to 10713
  157.5019  130.7885  149.7614 LP  0  0  0  0  0  0  0  0  0  0  0  0  # atno 17371 bound_to 10713
  141.1745  133.8541  157.1464 LP  0  0  0  0  0  0  0  0  0  0  0  0  # atno 17394 bound_to 11000
  140.0134  134.9978  157.0443 LP  0  0  0  0  0  0  0  0  0  0  0  0  # atno 17395 bound_to 11000

$$$$
