AV-unprocessed.smi:1115|AV-procd|sdf|4805|dock4
  -GOLD-   22720 3353D 1   1.00000     0.00000
 Structure written by MMmdl.
 51 52  0  0  0  0  0  0  0  0  2 V2000
  153.5204  142.0524  160.7448 C   0  0  0  0  0  0  0  0  0  0  0  0
  152.5303  142.7468  159.9311 N   0  0  0  0  0  0  0  0  0  0  0  0
  152.4458  144.2031  159.9747 C   0  0  0  0  0  0  0  0  0  0  0  0
  151.7007  142.0204  159.0464 C   0  0  0  0  0  0  0  0  0  0  0  0
  151.8108  140.6135  158.9159 C   0  0  0  0  0  0  0  0  0  0  0  0
  150.9617  139.9335  158.0217 C   0  0  0  0  0  0  0  0  0  0  0  0
  150.0127  140.6731  157.2795 C   0  0  0  0  0  0  0  0  0  0  0  0
  149.1175  140.1079  156.3314 N   0  0  0  0  0  0  0  0  0  0  0  0
  148.8895  138.8103  156.0660 C   0  0  0  0  0  0  0  0  0  0  0  0
  149.4051  137.8611  156.6559 O   0  0  0  0  0  0  0  0  0  0  0  0
  147.9924  138.6683  155.0796 N   0  0  0  0  0  0  0  0  0  0  0  0
  147.5176  137.3943  154.5385 C   0  0  0  0  0  0  0  0  0  0  0  0
  146.4005  137.5371  153.4594 C   0  0  0  0  0  0  0  0  0  0  0  0
  145.0688  137.8805  154.1791 C   0  0  0  0  0  0  0  0  0  0  0  0
  146.7383  138.7068  152.5030 C   0  0  0  0  0  0  0  0  0  0  0  0
  146.2822  136.2308  152.7093 N   0  3  0  0  0  0  0  0  0  0  0  0
  146.1494  135.0007  153.5432 C   0  0  0  0  0  0  0  0  0  0  0  0
  146.1821  133.7339  152.6693 C   0  0  0  0  0  0  0  0  0  0  0  0
  145.1661  133.7950  151.6799 O   0  0  0  0  0  0  0  0  0  0  0  0
  145.3509  134.9038  150.8135 C   0  0  0  0  0  0  0  0  0  0  0  0
  145.2561  136.2045  151.6263 C   0  0  0  0  0  0  0  0  0  0  0  0
  149.9860  142.0689  157.4655 C   0  0  0  0  0  0  0  0  0  0  0  0
  150.7960  142.7239  158.3226 N   0  0  0  0  0  0  0  0  0  0  0  0
  154.2276  141.5153  160.1121 H   0  0  0  0  0  0  0  0  0  0  0  0
  153.0363  141.3399  161.4130 H   0  0  0  0  0  0  0  0  0  0  0  0
  154.0889  142.7499  161.3599 H   0  0  0  0  0  0  0  0  0  0  0  0
  152.6844  144.6293  158.9998 H   0  0  0  0  0  0  0  0  0  0  0  0
  153.1422  144.6219  160.7014 H   0  0  0  0  0  0  0  0  0  0  0  0
  151.4412  144.5204  160.2558 H   0  0  0  0  0  0  0  0  0  0  0  0
  152.5322  140.0415  159.4794 H   0  0  0  0  0  0  0  0  0  0  0  0
  151.0681  138.8653  157.9145 H   0  0  0  0  0  0  0  0  0  0  0  0
  148.5513  140.7725  155.8245 H   0  0  0  0  0  0  0  0  0  0  0  0
  147.6161  139.5063  154.6604 H   0  0  0  0  0  0  0  0  0  0  0  0
  148.4063  136.9229  154.1244 H   0  0  0  0  0  0  0  0  0  0  0  0
  147.1795  136.7342  155.3392 H   0  0  0  0  0  0  0  0  0  0  0  0
  145.1539  138.7721  154.7992 H   0  0  0  0  0  0  0  0  0  0  0  0
  144.7429  137.0658  154.8269 H   0  0  0  0  0  0  0  0  0  0  0  0
  144.2643  138.1029  153.4784 H   0  0  0  0  0  0  0  0  0  0  0  0
  146.7229  139.6636  153.0260 H   0  0  0  0  0  0  0  0  0  0  0  0
  146.0205  138.7834  151.6863 H   0  0  0  0  0  0  0  0  0  0  0  0
  147.7315  138.6066  152.0654 H   0  0  0  0  0  0  0  0  0  0  0  0
  146.9667  134.9073  154.2560 H   0  0  0  0  0  0  0  0  0  0  0  0
  145.2207  135.0339  154.1139 H   0  0  0  0  0  0  0  0  0  0  0  0
  147.1585  133.6132  152.1969 H   0  0  0  0  0  0  0  0  0  0  0  0
  146.0184  132.8499  153.2858 H   0  0  0  0  0  0  0  0  0  0  0  0
  146.3101  134.8309  150.2982 H   0  0  0  0  0  0  0  0  0  0  0  0
  144.5756  134.8832  150.0472 H   0  0  0  0  0  0  0  0  0  0  0  0
  144.2557  136.2793  152.0537 H   0  0  0  0  0  0  0  0  0  0  0  0
  145.3720  137.0379  150.9377 H   0  0  0  0  0  0  0  0  0  0  0  0
  149.2892  142.6826  156.9134 H   0  0  0  0  0  0  0  0  0  0  0  0
  147.1713  136.1265  152.2409 H   0  0  0  0  0  0  0  0  0  0  0  0
  1  2  1  0  0  0  0
  1 24  1  0  0  0  0
  1 25  1  0  0  0  0
  1 26  1  0  0  0  0
  2  3  1  0  0  0  0
  2  4  1  0  0  0  0
  3 27  1  0  0  0  0
  3 28  1  0  0  0  0
  3 29  1  0  0  0  0
  4 23  1  0  0  0  0
  4  5  2  0  0  0  0
  5  6  1  0  0  0  0
  5 30  1  0  0  0  0
  6  7  2  0  0  0  0
  6 31  1  0  0  0  0
  7  8  1  0  0  0  0
  7 22  1  0  0  0  0
  8  9  1  0  0  0  0
  8 32  1  0  0  0  0
  9 10  2  0  0  0  0
  9 11  1  0  0  0  0
 11 12  1  0  0  0  0
 11 33  1  0  0  0  0
 12 13  1  0  0  0  0
 12 34  1  0  0  0  0
 12 35  1  0  0  0  0
 13 14  1  0  0  0  0
 13 15  1  0  0  0  0
 13 16  1  0  0  0  0
 14 36  1  0  0  0  0
 14 37  1  0  0  0  0
 14 38  1  0  0  0  0
 15 39  1  0  0  0  0
 15 40  1  0  0  0  0
 15 41  1  0  0  0  0
 16 21  1  0  0  0  0
 16 17  1  0  0  0  0
 16 51  1  0  0  0  0
 17 18  1  0  0  0  0
 17 42  1  0  0  0  0
 17 43  1  0  0  0  0
 18 19  1  0  0  0  0
 18 44  1  0  0  0  0
 18 45  1  0  0  0  0
 19 20  1  0  0  0  0
 20 21  1  0  0  0  0
 20 46  1  0  0  0  0
 20 47  1  0  0  0  0
 21 48  1  0  0  0  0
 21 49  1  0  0  0  0
 22 23  2  0  0  0  0
 22 50  1  0  0  0  0
M  CHG  1  16   1
M  END
> <s_m_source_file>
AV-unprocessed.smi

> <i_m_source_file_index>
1115

> <i_lp_mmshare_version>
43012

> <i_f3d_flags>
0

> <s_epik_input>
W0NIM11OKFtDSDNdKWMxW2NIXVtjSF1jKFtjSF1uMSlbTkhdQyg9TylbTkhdW0NIMl1DKFtDSDNdKShbQ0gzXSlOMltDSDJdW0NIMl1PW0NIMl1bQ0gyXTI=

> <s_epik_cmdline>
J2VwaWtfcHl0aG9uJywgJy1waCcsICc3LjAnLCAnLXRuJywgJzgnLCAnLW1hJywgJzIwMCcsICctbWV0YWxfYmluZGluZycsICctaW1hZScsICc8aW5maWxlLm1hZT4nLCAnLW9tYWUnLCAnPG91dGZpbGUubWFlPic=

> <r_epik_Ionization_Penalty>
1.14783

> <r_epik_Ionization_Penalty_Charging>
0.602531

> <r_epik_Ionization_Penalty_Neutral>
0.545303

> <r_epik_State_Penalty>
1.19446

> <r_epik_Charging_Adjusted_Penalty>
1.79699

> <i_epik_Tot_Q>
1

> <i_epik_Tot_abs_Q>
1

> <r_epik_Metal_State_Penalty>
0.937982

> <b_epik_Metal_Only>
0

> <s_lp_Force_Field>
OPLS_2005

> <r_lp_Energy>
30.1641

> <b_lp_Chiralities_Consistent>
1

> <s_lp_Variant>
AV-unprocessed.smi:1115-4

> <Gold.Version>
5.8.1

> <Gold.Id.Protein>
6NUR|6NUR_protein|mol2

> <Gold.PLP.Fitness>
42.0359

> <Gold.PLP.PLP>
-33.5078

> <Gold.PLP.part.hbond>
-1.0000

> <Gold.PLP.part.metal>
0.0000

> <Gold.PLP.part.buried>
-4.5718

> <Gold.PLP.part.nonpolar>
-28.4768

> <Gold.PLP.part.repulsive>
0.2136

> <Gold.PLP.ligand.clash>
0.0000

> <Gold.PLP.ligand.torsion>
0.2847

> <Gold.PLP.Chemscore.Hbond>
2.0000

> <Gold.PLP.Chemscore.CHOScore>
1.0000

> <Gold.PLP.Chemscore.Metal>
0.0000

> <Gold.Chemscore.Hbonds>
donor molecule, donor type, donor heavy atom, donor atom, acceptor molecule, acceptor atom, score
      L1  H    16    51       P1  7948  2.00
      L1  C    22    50       P1  8028  1.00

> <Gold.PLP.Chemscore.Internal.Correction>
0.0975

> <Gold.Rescore>
     Score         DG    S(hbond)    S(metal)    S(lipo)     H(rot)  DE(clash)    DE(int)     intcor
     13.11     -14.62       1.00        0.00      81.73       1.46       0.06       1.46       ----

> <Gold.Chemscore.Fitness>
13.1080

> <Gold.Chemscore.DG>
-14.6240

> <Gold.Chemscore.ZeroCoef>
-5.4800

> <Gold.Chemscore.Hbond>
0.9974

> <Gold.Chemscore.Metal>
0.0000

> <Gold.Chemscore.Lipo>
81.7326

> <Gold.Chemscore.Internal_Hbond>
0.0000

> <Gold.Chemscore.DEClash>
0.0572

> <Gold.Chemscore.DEInternal>
1.4587

> <Gold.Chemscore.Rot>
1.4648

> <Gold.Chemscore.Internal.Correction>
   9.000000E+99

> <Gold.Chemscore.Hbonds>
donor molecule, donor type, donor heavy atom, donor atom, acceptor molecule, acceptor atom, score
      L1  H    16    51       P1  7948  1.00

> <Gold.Chemscore.Hbond.Weighted>
-3.3312

> <Gold.Chemscore.Metal.Weighted>
-0.0000

> <Gold.Chemscore.Lipo.Weighted>
-9.5627

> <Gold.Chemscore.Internal_Hbond.Weighted>
0.0000

> <Gold.Chemscore.DEClash.Weighted>
0.0572

> <Gold.Chemscore.DEInternal.Weighted>
1.4587

> <Gold.Chemscore.Rot.Weighted>
3.7499

> <Gold.Chemscore.Internal.Correction.Weighted>
   9.000000E+99

> <Gold.Protein.RotatedTorsions>
[ 6907 6896 6895 6894 ] final  -47.75 input  -60.11 | X-H torsion
[ 7974 7965 7964 7962 ] final  153.25 input  175.53 | X-H torsion
[ 8008 7997 7996 7995 ] final    8.84 input   59.86 | X-H torsion
[ 10167 10162 10161 10158 ] final   -2.97 input  -65.29 | X-H torsion
[ 10718 10713 10712 10709 ] final  119.20 input   66.30 | X-H torsion
[ 10763 10752 10751 10750 ] final   91.73 input  -60.55 | X-H torsion
[ 11005 11000 10999 10996 ] final -124.82 input  -57.11 | X-H torsion

> <Gold.Protein.ActiveResidues>
 VAL166  LYS551  ARG553  GLY616  TRP617  ASP618  TYR619  PRO620  LYS621  CYS622 
 ASP623  PHE694  ASN695  SER759  ASP760  ASP761  ALA762  ILE779  LEU786  VAL792 
 PHE793  MET794  SER795  GLU796  ALA797  LYS798  CYS799  TRP800  GLU811  SER814 

> <Gold.Protein.RotatedAtoms>
  150.8976  134.8385  159.7337 H   0  0  0  0  0  0  0  0  0  0  0  0  # atno 6907 bound_to 6896
  152.4874  134.4552  159.9597 H   0  0  0  0  0  0  0  0  0  0  0  0  # atno 6908 bound_to 6896
  151.4608  133.3554  159.2844 H   0  0  0  0  0  0  0  0  0  0  0  0  # atno 6909 bound_to 6896
  144.8167  139.6775  143.6118 H   0  0  0  0  0  0  0  0  0  0  0  0  # atno 7974 bound_to 7965
  154.7722  140.2804  155.6129 H   0  0  0  0  0  0  0  0  0  0  0  0  # atno 8008 bound_to 7997
  156.2935  140.2639  156.2454 H   0  0  0  0  0  0  0  0  0  0  0  0  # atno 8009 bound_to 7997
  154.9887  140.0374  157.2299 H   0  0  0  0  0  0  0  0  0  0  0  0  # atno 8010 bound_to 7997
  140.6872  143.6594  150.8280 H   0  0  0  0  0  0  0  0  0  0  0  0  # atno 10167 bound_to 10162
  157.5978  131.1055  150.7863 H   0  0  0  0  0  0  0  0  0  0  0  0  # atno 10718 bound_to 10713
  153.2115  135.4387  155.0385 H   0  0  0  0  0  0  0  0  0  0  0  0  # atno 10763 bound_to 10752
  154.8202  135.3334  154.7062 H   0  0  0  0  0  0  0  0  0  0  0  0  # atno 10764 bound_to 10752
  153.7500  135.6999  153.5003 H   0  0  0  0  0  0  0  0  0  0  0  0  # atno 10765 bound_to 10752
  140.9811  134.0672  157.3764 H   0  0  0  0  0  0  0  0  0  0  0  0  # atno 11005 bound_to 11000
  146.2471  139.6120  142.9452 LP  0  0  0  0  0  0  0  0  0  0  0  0  # atno 17320 bound_to 7965
  145.5197  141.0432  143.2442 LP  0  0  0  0  0  0  0  0  0  0  0  0  # atno 17321 bound_to 7965
  140.0302  143.5451  152.2763 LP  0  0  0  0  0  0  0  0  0  0  0  0  # atno 17342 bound_to 10162
  139.6241  144.7634  151.2676 LP  0  0  0  0  0  0  0  0  0  0  0  0  # atno 17343 bound_to 10162
  156.8270  130.5003  149.5336 LP  0  0  0  0  0  0  0  0  0  0  0  0  # atno 17370 bound_to 10713
  156.1044  130.5993  150.9947 LP  0  0  0  0  0  0  0  0  0  0  0  0  # atno 17371 bound_to 10713
  139.8950  135.0139  156.6982 LP  0  0  0  0  0  0  0  0  0  0  0  0  # atno 17394 bound_to 11000
  140.7185  133.9161  155.8131 LP  0  0  0  0  0  0  0  0  0  0  0  0  # atno 17395 bound_to 11000

$$$$
