AV-unprocessed.smi:1774|AV-procd|sdf|7167|dock6
  -GOLD-   22720 8403D 1   1.00000     0.00000
 Structure written by MMmdl.
 46 47  0  0  0  0  0  0  0  0  2 V2000
  147.5804  132.9670  152.2056 C   0  0  0  0  0  0  0  0  0  0  0  0
  146.3594  133.1484  151.3184 C   0  0  0  0  0  0  0  0  0  0  0  0
  145.7340  132.0113  150.7640 C   0  0  0  0  0  0  0  0  0  0  0  0
  144.6035  132.1806  149.9466 C   0  0  0  0  0  0  0  0  0  0  0  0
  144.1426  133.4882  149.7179 C   0  0  0  0  0  0  0  0  0  0  0  0
  144.7339  134.5803  150.2435 N   0  0  0  0  0  0  0  0  0  0  0  0
  145.8261  134.4344  151.0351 C   0  0  0  0  0  0  0  0  0  0  0  0
  146.5033  135.5423  151.6191 N   0  0  0  0  0  0  0  0  0  0  0  0
  145.9742  136.6270  152.2125 C   0  0  0  0  0  0  0  0  0  0  0  0
  144.7721  136.8388  152.3750 O   0  0  0  0  0  0  0  0  0  0  0  0
  146.9309  137.4716  152.6247 N   0  0  0  0  0  0  0  0  0  0  0  0
  146.6892  138.7224  153.3350 C   0  0  0  0  0  0  0  0  0  0  0  0
  147.9674  139.2505  154.0160 C   0  0  0  0  0  0  0  0  0  0  0  0
  149.0412  138.2279  154.0781 N   0  3  1  0  0  0  0  0  0  0  0  0
  150.3701  138.8223  154.3563 C   0  0  0  0  0  0  0  0  0  0  0  0
  151.4620  137.7358  154.3456 C   0  0  1  0  0  0  0  0  0  0  0  0
  152.8419  138.2970  154.7050 C   0  0  0  0  0  0  0  0  0  0  0  0
  151.1289  136.7334  155.2996 O   0  0  0  0  0  0  0  0  0  0  0  0
  149.8960  136.0862  155.0052 C   0  0  1  0  0  0  0  0  0  0  0  0
  149.6837  134.9698  156.0336 C   0  0  0  0  0  0  0  0  0  0  0  0
  148.7608  137.1271  155.0331 C   0  0  0  0  0  0  0  0  0  0  0  0
  147.8463  131.9141  152.3053 H   0  0  0  0  0  0  0  0  0  0  0  0
  147.3869  133.3597  153.2042 H   0  0  0  0  0  0  0  0  0  0  0  0
  148.4396  133.4913  151.7861 H   0  0  0  0  0  0  0  0  0  0  0  0
  146.1136  131.0194  150.9607 H   0  0  0  0  0  0  0  0  0  0  0  0
  144.1031  131.3306  149.5069 H   0  0  0  0  0  0  0  0  0  0  0  0
  143.2770  133.6630  149.0965 H   0  0  0  0  0  0  0  0  0  0  0  0
  147.5108  135.4979  151.5827 H   0  0  0  0  0  0  0  0  0  0  0  0
  147.8940  137.2218  152.4529 H   0  0  0  0  0  0  0  0  0  0  0  0
  146.2790  139.4502  152.6348 H   0  0  0  0  0  0  0  0  0  0  0  0
  145.9173  138.5418  154.0835 H   0  0  0  0  0  0  0  0  0  0  0  0
  148.3254  140.1083  153.4445 H   0  0  0  0  0  0  0  0  0  0  0  0
  147.7576  139.6165  155.0223 H   0  0  0  0  0  0  0  0  0  0  0  0
  150.5993  139.5791  153.6049 H   0  0  0  0  0  0  0  0  0  0  0  0
  150.3474  139.3276  155.3236 H   0  0  0  0  0  0  0  0  0  0  0  0
  151.5197  137.2832  153.3541 H   0  0  0  0  0  0  0  0  0  0  0  0
  153.1478  139.0709  154.0007 H   0  0  0  0  0  0  0  0  0  0  0  0
  153.5981  137.5118  154.6844 H   0  0  0  0  0  0  0  0  0  0  0  0
  152.8433  138.7334  155.7041 H   0  0  0  0  0  0  0  0  0  0  0  0
  149.9564  135.6349  154.0129 H   0  0  0  0  0  0  0  0  0  0  0  0
  148.7526  134.4346  155.8460 H   0  0  0  0  0  0  0  0  0  0  0  0
  149.6426  135.3686  157.0475 H   0  0  0  0  0  0  0  0  0  0  0  0
  150.4965  134.2442  155.9939 H   0  0  0  0  0  0  0  0  0  0  0  0
  148.6495  137.5366  156.0387 H   0  0  0  0  0  0  0  0  0  0  0  0
  147.8208  136.6367  154.7831 H   0  0  0  0  0  0  0  0  0  0  0  0
  149.1017  137.8158  153.1580 H   0  0  0  0  0  0  0  0  0  0  0  0
  1  2  1  0  0  0  0
  1 22  1  0  0  0  0
  1 23  1  0  0  0  0
  1 24  1  0  0  0  0
  2  7  1  0  0  0  0
  2  3  2  0  0  0  0
  3  4  1  0  0  0  0
  3 25  1  0  0  0  0
  4  5  2  0  0  0  0
  4 26  1  0  0  0  0
  5  6  1  0  0  0  0
  5 27  1  0  0  0  0
  6  7  2  0  0  0  0
  7  8  1  0  0  0  0
  8  9  1  0  0  0  0
  8 28  1  0  0  0  0
  9 10  2  0  0  0  0
  9 11  1  0  0  0  0
 11 12  1  0  0  0  0
 11 29  1  0  0  0  0
 12 13  1  0  0  0  0
 12 30  1  0  0  0  0
 12 31  1  0  0  0  0
 13 14  1  0  0  0  0
 13 32  1  0  0  0  0
 13 33  1  0  0  0  0
 14 21  1  0  0  0  0
 14 15  1  0  0  0  0
 14 46  1  0  0  0  0
 15 16  1  0  0  0  0
 15 34  1  0  0  0  0
 15 35  1  0  0  0  0
 16 17  1  0  0  0  0
 16 18  1  0  0  0  0
 16 36  1  0  0  0  0
 17 37  1  0  0  0  0
 17 38  1  0  0  0  0
 17 39  1  0  0  0  0
 18 19  1  0  0  0  0
 19 20  1  0  0  0  0
 19 21  1  0  0  0  0
 19 40  1  0  0  0  0
 20 41  1  0  0  0  0
 20 42  1  0  0  0  0
 20 43  1  0  0  0  0
 21 44  1  0  0  0  0
 21 45  1  0  0  0  0
M  CHG  1  14   1
M  END
> <s_m_source_file>
AV-unprocessed.smi

> <i_m_source_file_index>
1774

> <i_lp_mmshare_version>
43012

> <i_f3d_flags>
0

> <s_epik_input>
W0NIM11jMVtjSF1bY0hdW2NIXW5jMVtOSF1DKD1PKVtOSF1bQ0gyXVtDSDJdTjJbQ0gyXVtDQEBIXShbQ0gzXSlPW0NAQEhdKFtDSDNdKVtDSDJdMg==

> <s_epik_cmdline>
J2VwaWtfcHl0aG9uJywgJy1waCcsICc3LjAnLCAnLXRuJywgJzgnLCAnLW1hJywgJzIwMCcsICctbWV0YWxfYmluZGluZycsICctaW1hZScsICc8aW5maWxlLm1hZT4nLCAnLW9tYWUnLCAnPG91dGZpbGUubWFlPic=

> <r_epik_Ionization_Penalty>
0.602573

> <r_epik_Ionization_Penalty_Charging>
0.602531

> <r_epik_Ionization_Penalty_Neutral>
4.21996e-05

> <r_epik_State_Penalty>
0.617039

> <r_epik_Charging_Adjusted_Penalty>
1.21957

> <i_epik_Tot_Q>
1

> <i_epik_Tot_abs_Q>
1

> <r_epik_Metal_State_Penalty>
0.617042

> <b_epik_Metal_Only>
0

> <s_lp_Force_Field>
OPLS_2005

> <r_lp_Energy>
15.6229

> <b_lp_Chiralities_Consistent>
1

> <s_lp_Variant>
AV-unprocessed.smi:1774-4

> <Gold.Version>
5.8.1

> <Gold.Id.Protein>
6NUR|6NUR_protein|mol2

> <Gold.PLP.Fitness>
50.7462

> <Gold.PLP.PLP>
-35.8983

> <Gold.PLP.part.hbond>
-3.4190

> <Gold.PLP.part.metal>
0.0000

> <Gold.PLP.part.buried>
-5.1389

> <Gold.PLP.part.nonpolar>
-29.1844

> <Gold.PLP.part.repulsive>
0.6370

> <Gold.PLP.ligand.clash>
0.0000

> <Gold.PLP.ligand.torsion>
0.8812

> <Gold.PLP.Chemscore.Hbond>
4.5265

> <Gold.PLP.Chemscore.CHOScore>
1.0000

> <Gold.PLP.Chemscore.Metal>
0.0000

> <Gold.Chemscore.Hbonds>
donor molecule, donor type, donor heavy atom, donor atom, acceptor molecule, acceptor atom, score
      L1  H     8    28       P1  7948  1.00
      L1  H    11    29       P1  7948  1.00
      L1  H    14    46       P1  7948  2.00
      P1  H 10752 10765       L1    18  0.24
      L1  C     5    27       P1 10186  1.00

> <Gold.PLP.Chemscore.Internal.Correction>
0.0308

> <Gold.Rescore>
     Score         DG    S(hbond)    S(metal)    S(lipo)     H(rot)  DE(clash)    DE(int)     intcor
     21.18     -22.15       2.98        0.00      90.19       1.49       0.05       0.92       ----

> <Gold.Chemscore.Fitness>
21.1765

> <Gold.Chemscore.DG>
-22.1495

> <Gold.Chemscore.ZeroCoef>
-5.4800

> <Gold.Chemscore.Hbond>
2.9769

> <Gold.Chemscore.Metal>
0.0000

> <Gold.Chemscore.Lipo>
90.1941

> <Gold.Chemscore.Internal_Hbond>
0.0000

> <Gold.Chemscore.DEClash>
0.0542

> <Gold.Chemscore.DEInternal>
0.9188

> <Gold.Chemscore.Rot>
1.4946

> <Gold.Chemscore.Internal.Correction>
   9.000000E+99

> <Gold.Chemscore.Hbonds>
donor molecule, donor type, donor heavy atom, donor atom, acceptor molecule, acceptor atom, score
      L1  H     8    28       P1  7948  0.89
      L1  H    11    29       P1  7948  0.91
      L1  H    14    46       P1  7948  0.91
      P1  H 10752 10765       L1    18  0.02

> <Gold.Chemscore.Hbond.Weighted>
-9.9429

> <Gold.Chemscore.Metal.Weighted>
-0.0000

> <Gold.Chemscore.Lipo.Weighted>
-10.5527

> <Gold.Chemscore.Internal_Hbond.Weighted>
0.0000

> <Gold.Chemscore.DEClash.Weighted>
0.0542

> <Gold.Chemscore.DEInternal.Weighted>
0.9188

> <Gold.Chemscore.Rot.Weighted>
3.8261

> <Gold.Chemscore.Internal.Correction.Weighted>
   9.000000E+99

> <Gold.Protein.RotatedTorsions>
[ 6907 6896 6895 6894 ] final  134.40 input  -60.11 | X-H torsion
[ 7974 7965 7964 7962 ] final  -98.31 input  175.53 | X-H torsion
[ 8008 7997 7996 7995 ] final   97.42 input   59.86 | X-H torsion
[ 10167 10162 10161 10158 ] final  -50.17 input  -65.29 | X-H torsion
[ 10718 10713 10712 10709 ] final  -73.97 input   66.30 | X-H torsion
[ 10763 10752 10751 10750 ] final -165.70 input  -60.55 | X-H torsion
[ 11005 11000 10999 10996 ] final   55.75 input  -57.11 | X-H torsion

> <Gold.Protein.ActiveResidues>
 VAL166  LYS551  ARG553  GLY616  TRP617  ASP618  TYR619  PRO620  LYS621  CYS622 
 ASP623  PHE694  ASN695  SER759  ASP760  ASP761  ALA762  ILE779  LEU786  VAL792 
 PHE793  MET794  SER795  GLU796  ALA797  LYS798  CYS799  TRP800  GLU811  SER814 

> <Gold.Protein.RotatedAtoms>
  152.3117  133.5760  159.5684 H   0  0  0  0  0  0  0  0  0  0  0  0  # atno 6907 bound_to 6896
  150.7326  134.0142  159.3689 H   0  0  0  0  0  0  0  0  0  0  0  0  # atno 6908 bound_to 6896
  151.8034  135.0702  160.0454 H   0  0  0  0  0  0  0  0  0  0  0  0  # atno 6909 bound_to 6896
  145.3222  140.9424  143.2709 H   0  0  0  0  0  0  0  0  0  0  0  0  # atno 7974 bound_to 7965
  156.0899  140.3258  155.7802 H   0  0  0  0  0  0  0  0  0  0  0  0  # atno 8008 bound_to 7997
  155.5014  140.0569  157.2956 H   0  0  0  0  0  0  0  0  0  0  0  0  # atno 8009 bound_to 7997
  154.4631  140.1976  156.0206 H   0  0  0  0  0  0  0  0  0  0  0  0  # atno 8010 bound_to 7997
  140.6650  143.2668  151.4321 H   0  0  0  0  0  0  0  0  0  0  0  0  # atno 10167 bound_to 10162
  156.0260  130.4406  150.2823 H   0  0  0  0  0  0  0  0  0  0  0  0  # atno 10718 bound_to 10713
  154.6906  135.2970  154.9485 H   0  0  0  0  0  0  0  0  0  0  0  0  # atno 10763 bound_to 10752
  154.0449  135.6652  153.4798 H   0  0  0  0  0  0  0  0  0  0  0  0  # atno 10764 bound_to 10752
  153.0609  135.5116  154.7997 H   0  0  0  0  0  0  0  0  0  0  0  0  # atno 10765 bound_to 10752
  140.0583  134.5639  155.9182 H   0  0  0  0  0  0  0  0  0  0  0  0  # atno 11005 bound_to 11000
  144.8930  139.4749  143.6669 LP  0  0  0  0  0  0  0  0  0  0  0  0  # atno 17320 bound_to 7965
  146.3078  139.7639  142.9043 LP  0  0  0  0  0  0  0  0  0  0  0  0  # atno 17321 bound_to 7965
  139.5896  144.1528  152.2072 LP  0  0  0  0  0  0  0  0  0  0  0  0  # atno 17342 bound_to 10162
  140.0879  144.5646  150.7076 LP  0  0  0  0  0  0  0  0  0  0  0  0  # atno 17343 bound_to 10162
  157.0926  131.0174  151.3116 LP  0  0  0  0  0  0  0  0  0  0  0  0  # atno 17370 bound_to 10713
  157.4842  130.7783  149.7444 LP  0  0  0  0  0  0  0  0  0  0  0  0  # atno 17371 bound_to 10713
  141.1962  133.6590  156.5678 LP  0  0  0  0  0  0  0  0  0  0  0  0  # atno 17394 bound_to 11000
  140.3810  134.7523  157.4661 LP  0  0  0  0  0  0  0  0  0  0  0  0  # atno 17395 bound_to 11000

$$$$
