AV-unprocessed.smi:1723|AV-procd|sdf|6946|dock6
  -GOLD-   22720 8153D 1   1.00000     0.00000
 Structure written by MMmdl.
 38 38  0  0  0  0  0  0  0  0  1 V2000
  150.9163  145.0064  159.4180 C   0  0  0  0  0  0  0  0  0  0  0  0
  151.7190  144.0106  160.2622 C   0  0  0  0  0  0  0  0  0  0  0  0
  152.1155  142.7547  159.4732 C   0  0  0  0  0  0  0  0  0  0  0  0
  153.0562  141.8361  160.2611 C   0  0  0  0  0  0  0  0  0  0  0  0
  152.4059  140.5863  160.4618 O   0  0  0  0  0  0  0  0  0  0  0  0
  152.6504  139.5997  159.4624 C   0  0  1  0  0  0  0  0  0  0  0  0
  152.7951  138.2470  160.1748 C   0  0  0  0  0  0  0  0  0  0  0  0
  151.4969  139.5750  158.4467 C   0  0  0  0  0  0  0  0  0  0  0  0
  150.3932  140.0122  158.7724 O   0  0  0  0  0  0  0  0  0  0  0  0
  151.7982  139.0573  157.2395 N   0  0  0  0  0  0  0  0  0  0  0  0
  150.9938  138.9638  156.0922 C   0  0  0  0  0  0  0  0  0  0  0  0
  149.8956  139.7277  155.8561 C   0  0  0  0  0  0  0  0  0  0  0  0
  149.1121  139.5969  154.6393 C   0  0  0  0  0  0  0  0  0  0  0  0
  147.9198  140.4996  154.3620 C   0  0  0  0  0  0  0  0  0  0  0  0
  147.0325  140.4515  155.3565 F   0  0  0  0  0  0  0  0  0  0  0  0
  148.3277  141.7607  154.2302 F   0  0  0  0  0  0  0  0  0  0  0  0
  147.3039  140.1432  153.2346 F   0  0  0  0  0  0  0  0  0  0  0  0
  149.5480  138.6962  153.7389 C   0  0  0  0  0  0  0  0  0  0  0  0
  150.6761  137.9066  153.9744 N   0  0  0  0  0  0  0  0  0  0  0  0
  151.4363  137.9807  155.0899 C   0  0  0  0  0  0  0  0  0  0  0  0
  152.4228  137.2566  155.2191 O   0  0  0  0  0  0  0  0  0  0  0  0
  150.9330  137.2465  153.2546 H   0  0  0  0  0  0  0  0  0  0  0  0
  150.6483  145.8858  160.0041 H   0  0  0  0  0  0  0  0  0  0  0  0
  149.9931  144.5572  159.0509 H   0  0  0  0  0  0  0  0  0  0  0  0
  151.4915  145.3443  158.5556 H   0  0  0  0  0  0  0  0  0  0  0  0
  152.6155  144.5031  160.6404 H   0  0  0  0  0  0  0  0  0  0  0  0
  151.1320  143.7246  161.1356 H   0  0  0  0  0  0  0  0  0  0  0  0
  151.2186  142.2004  159.1939 H   0  0  0  0  0  0  0  0  0  0  0  0
  152.5999  143.0485  158.5411 H   0  0  0  0  0  0  0  0  0  0  0  0
  153.9883  141.7107  159.7090 H   0  0  0  0  0  0  0  0  0  0  0  0
  153.3006  142.2861  161.2245 H   0  0  0  0  0  0  0  0  0  0  0  0
  153.5911  139.8228  158.9548 H   0  0  0  0  0  0  0  0  0  0  0  0
  152.9705  137.4404  159.4621 H   0  0  0  0  0  0  0  0  0  0  0  0
  151.9027  137.9981  160.7508 H   0  0  0  0  0  0  0  0  0  0  0  0
  153.6377  138.2635  160.8664 H   0  0  0  0  0  0  0  0  0  0  0  0
  152.7177  138.6505  157.1439 H   0  0  0  0  0  0  0  0  0  0  0  0
  149.5797  140.4755  156.5653 H   0  0  0  0  0  0  0  0  0  0  0  0
  149.0803  138.5165  152.7822 H   0  0  0  0  0  0  0  0  0  0  0  0
  1  2  1  0  0  0  0
  1 23  1  0  0  0  0
  1 24  1  0  0  0  0
  1 25  1  0  0  0  0
  2  3  1  0  0  0  0
  2 26  1  0  0  0  0
  2 27  1  0  0  0  0
  3  4  1  0  0  0  0
  3 28  1  0  0  0  0
  3 29  1  0  0  0  0
  4  5  1  0  0  0  0
  4 30  1  0  0  0  0
  4 31  1  0  0  0  0
  5  6  1  0  0  0  0
  6  7  1  0  0  0  0
  6  8  1  0  0  0  0
  6 32  1  0  0  0  0
  7 33  1  0  0  0  0
  7 34  1  0  0  0  0
  7 35  1  0  0  0  0
  8  9  2  0  0  0  0
  8 10  1  0  0  0  0
 10 11  1  0  0  0  0
 10 36  1  0  0  0  0
 11 20  1  0  0  0  0
 11 12  2  0  0  0  0
 12 13  1  0  0  0  0
 12 37  1  0  0  0  0
 13 14  1  0  0  0  0
 13 18  2  0  0  0  0
 14 15  1  0  0  0  0
 14 16  1  0  0  0  0
 14 17  1  0  0  0  0
 18 19  1  0  0  0  0
 18 38  1  0  0  0  0
 19 22  1  0  0  0  0
 19 20  1  0  0  0  0
 20 21  2  0  0  0  0
M  END
> <s_m_source_file>
AV-unprocessed.smi

> <i_m_source_file_index>
1723

> <i_lp_mmshare_version>
43012

> <i_f3d_flags>
0

> <s_epik_input>
W0NIM11bQ0gyXVtDSDJdW0NIMl1PW0NASF0oW0NIM10pQyg9TylbTkhdYzFbY0hdYyhDKEYpKEYpRilbY0hdW25IXWMxPU8=

> <s_epik_cmdline>
J2VwaWtfcHl0aG9uJywgJy1waCcsICc3LjAnLCAnLXRuJywgJzgnLCAnLW1hJywgJzIwMCcsICctbWV0YWxfYmluZGluZycsICctaW1hZScsICc8aW5maWxlLm1hZT4nLCAnLW9tYWUnLCAnPG91dGZpbGUubWFlPic=

> <r_lp_tautomer_probability>
0.999

> <r_epik_Ionization_Penalty>
0.00763408

> <r_epik_Ionization_Penalty_Charging>
0.00763398

> <r_epik_Ionization_Penalty_Neutral>
9.29819e-08

> <r_epik_State_Penalty>
0.00571302

> <r_epik_Charging_Adjusted_Penalty>
0.013347

> <i_epik_Tot_Q>
0

> <i_epik_Tot_abs_Q>
0

> <r_epik_Metal_State_Penalty>
0.392814

> <b_epik_Metal_Only>
0

> <s_lp_Force_Field>
OPLS_2005

> <r_lp_Energy>
18.7704

> <b_lp_Chiralities_Consistent>
1

> <s_lp_Variant>
AV-unprocessed.smi:1723-2

> <Gold.Version>
5.8.1

> <Gold.Id.Protein>
6NUR|6NUR_protein|mol2

> <Gold.PLP.Fitness>
42.3456

> <Gold.PLP.PLP>
-38.5438

> <Gold.PLP.part.hbond>
-2.5853

> <Gold.PLP.part.metal>
0.0000

> <Gold.PLP.part.buried>
-0.1045

> <Gold.PLP.part.nonpolar>
-36.0647

> <Gold.PLP.part.repulsive>
0.2541

> <Gold.PLP.ligand.clash>
1.1783

> <Gold.PLP.ligand.torsion>
1.9947

> <Gold.PLP.Chemscore.Hbond>
1.4870

> <Gold.PLP.Chemscore.CHOScore>
1.4504

> <Gold.PLP.Chemscore.Metal>
0.0000

> <Gold.Chemscore.Hbonds>
donor molecule, donor type, donor heavy atom, donor atom, acceptor molecule, acceptor atom, score
      L1  H    19    22       P1  7949  0.60
      P1  H 10752 10765       L1    21  0.69
      L1  C    18    38       P1  7948  0.82
      L1  C    18    38       P1  7957  0.71

> <Gold.PLP.Chemscore.Internal.Correction>
0.1573

> <Gold.Rescore>
     Score         DG    S(hbond)    S(metal)    S(lipo)     H(rot)  DE(clash)    DE(int)     intcor
     11.31     -14.04       0.94        0.00      89.86       1.99       0.07       2.66       ----

> <Gold.Chemscore.Fitness>
11.3071

> <Gold.Chemscore.DG>
-14.0408

> <Gold.Chemscore.ZeroCoef>
-5.4800

> <Gold.Chemscore.Hbond>
0.9441

> <Gold.Chemscore.Metal>
0.0000

> <Gold.Chemscore.Lipo>
89.8600

> <Gold.Chemscore.Internal_Hbond>
0.0000

> <Gold.Chemscore.DEClash>
0.0740

> <Gold.Chemscore.DEInternal>
2.6597

> <Gold.Chemscore.Rot>
1.9946

> <Gold.Chemscore.Internal.Correction>
   9.000000E+99

> <Gold.Chemscore.Hbonds>
donor molecule, donor type, donor heavy atom, donor atom, acceptor molecule, acceptor atom, score
      L1  H    19    22       P1  7949  0.13
      P1  H 10752 10765       L1    21  0.70

> <Gold.Chemscore.Hbond.Weighted>
-3.1534

> <Gold.Chemscore.Metal.Weighted>
-0.0000

> <Gold.Chemscore.Lipo.Weighted>
-10.5136

> <Gold.Chemscore.Internal_Hbond.Weighted>
0.0000

> <Gold.Chemscore.DEClash.Weighted>
0.0740

> <Gold.Chemscore.DEInternal.Weighted>
2.6597

> <Gold.Chemscore.Rot.Weighted>
5.1062

> <Gold.Chemscore.Internal.Correction.Weighted>
   9.000000E+99

> <Gold.Protein.RotatedTorsions>
[ 6907 6896 6895 6894 ] final  -76.27 input  -60.11 | X-H torsion
[ 7974 7965 7964 7962 ] final  140.37 input  175.53 | X-H torsion
[ 8008 7997 7996 7995 ] final  -83.42 input   59.86 | X-H torsion
[ 10167 10162 10161 10158 ] final  132.06 input  -65.29 | X-H torsion
[ 10718 10713 10712 10709 ] final -122.29 input   66.30 | X-H torsion
[ 10763 10752 10751 10750 ] final -174.63 input  -60.55 | X-H torsion
[ 11005 11000 10999 10996 ] final   28.19 input  -57.11 | X-H torsion

> <Gold.Protein.ActiveResidues>
 VAL166  LYS551  ARG553  GLY616  TRP617  ASP618  TYR619  PRO620  LYS621  CYS622 
 ASP623  PHE694  ASN695  SER759  ASP760  ASP761  ALA762  ILE779  LEU786  VAL792 
 PHE793  MET794  SER795  GLU796  ALA797  LYS798  CYS799  TRP800  GLU811  SER814 

> <Gold.Protein.RotatedAtoms>
  150.7033  134.4597  159.5374 H   0  0  0  0  0  0  0  0  0  0  0  0  # atno 6907 bound_to 6896
  152.2274  134.8352  160.0487 H   0  0  0  0  0  0  0  0  0  0  0  0  # atno 6908 bound_to 6896
  151.9180  133.3543  159.3924 H   0  0  0  0  0  0  0  0  0  0  0  0  # atno 6909 bound_to 6896
  144.9193  139.5189  143.5671 H   0  0  0  0  0  0  0  0  0  0  0  0  # atno 7974 bound_to 7965
  154.6189  140.0619  156.9590 H   0  0  0  0  0  0  0  0  0  0  0  0  # atno 8008 bound_to 7997
  155.1850  140.3302  155.4350 H   0  0  0  0  0  0  0  0  0  0  0  0  # atno 8009 bound_to 7997
  156.2420  140.1891  156.6944 H   0  0  0  0  0  0  0  0  0  0  0  0  # atno 8010 bound_to 7997
  139.5356  144.6679  151.4797 H   0  0  0  0  0  0  0  0  0  0  0  0  # atno 10167 bound_to 10162
  156.1407  130.6463  150.9766 H   0  0  0  0  0  0  0  0  0  0  0  0  # atno 10718 bound_to 10713
  154.5940  135.2848  155.0606 H   0  0  0  0  0  0  0  0  0  0  0  0  # atno 10763 bound_to 10752
  154.1896  135.6443  153.5060 H   0  0  0  0  0  0  0  0  0  0  0  0  # atno 10764 bound_to 10752
  153.0132  135.5443  154.6635 H   0  0  0  0  0  0  0  0  0  0  0  0  # atno 10765 bound_to 10752
  140.3183  134.2572  155.7721 H   0  0  0  0  0  0  0  0  0  0  0  0  # atno 11005 bound_to 11000
  146.3197  139.8060  142.8955 LP  0  0  0  0  0  0  0  0  0  0  0  0  # atno 17320 bound_to 7965
  145.3323  141.0269  143.3439 LP  0  0  0  0  0  0  0  0  0  0  0  0  # atno 17321 bound_to 7965
  140.6561  143.8597  150.6836 LP  0  0  0  0  0  0  0  0  0  0  0  0  # atno 17342 bound_to 10162
  140.1976  143.3985  152.1816 LP  0  0  0  0  0  0  0  0  0  0  0  0  # atno 17343 bound_to 10162
  157.6573  131.0887  150.7919 LP  0  0  0  0  0  0  0  0  0  0  0  0  # atno 17370 bound_to 10713
  156.7995  130.4916  149.5372 LP  0  0  0  0  0  0  0  0  0  0  0  0  # atno 17371 bound_to 10713
  141.2092  133.7754  157.0008 LP  0  0  0  0  0  0  0  0  0  0  0  0  # atno 17394 bound_to 11000
  140.0964  134.9561  157.1856 LP  0  0  0  0  0  0  0  0  0  0  0  0  # atno 17395 bound_to 11000

$$$$
