AV-unprocessed.smi:3327|AV-procd|sdf|12789|dock3
  -GOLD-   2272019143D 1   1.00000     0.00000
 Structure written by MMmdl.
 40 41  0  0  0  0  0  0  0  0  1 V2000
  152.6400  143.1478  161.1291 C   0  0  0  0  0  0  0  0  0  0  0  0
  152.4815  142.8924  159.6237 C   0  0  2  0  0  0  0  0  0  0  0  0
  151.8650  144.1113  158.9043 C   0  0  0  0  0  0  0  0  0  0  0  0
  151.5883  143.8226  157.4170 C   0  0  0  0  0  0  0  0  0  0  0  0
  150.7953  142.5149  157.2467 C   0  0  0  0  0  0  0  0  0  0  0  0
  151.5400  141.4255  157.8934 N   0  0  0  0  0  0  0  0  0  0  0  0
  152.1852  140.4195  157.2526 C   0  0  0  0  0  0  0  0  0  0  0  0
  152.8919  139.6096  157.8560 O   0  0  0  0  0  0  0  0  0  0  0  0
  152.0548  140.3020  155.7199 C   0  0  0  0  0  0  0  0  0  0  0  0
  151.5863  138.9966  155.2247 N   0  0  0  0  0  0  0  0  0  0  0  0
  150.3054  139.0677  154.5275 C   0  0  0  0  0  0  0  0  0  0  0  0
  149.2557  139.7668  155.4081 C   0  0  0  0  0  0  0  0  0  0  0  0
  148.2724  140.4994  154.6300 N   0  0  0  0  0  0  0  0  0  0  0  0
  147.9003  141.8222  154.7457 C   0  0  0  0  0  0  0  0  0  0  0  0
  146.9450  142.0599  153.7994 C   0  0  0  0  0  0  0  0  0  0  0  0
  146.7982  140.8050  153.1451 C   0  0  0  0  0  0  0  0  0  0  0  0
  147.5959  139.8736  153.6425 N   0  0  0  0  0  0  0  0  0  0  0  0
  151.6388  141.6295  159.3454 C   0  0  0  0  0  0  0  0  0  0  0  0
  151.6739  143.3095  161.6084 H   0  0  0  0  0  0  0  0  0  0  0  0
  153.2559  144.0281  161.3153 H   0  0  0  0  0  0  0  0  0  0  0  0
  153.1185  142.3012  161.6219 H   0  0  0  0  0  0  0  0  0  0  0  0
  153.4784  142.7274  159.2118 H   0  0  0  0  0  0  0  0  0  0  0  0
  150.9270  144.3812  159.3915 H   0  0  0  0  0  0  0  0  0  0  0  0
  152.5207  144.9775  158.9986 H   0  0  0  0  0  0  0  0  0  0  0  0
  151.0420  144.6545  156.9716 H   0  0  0  0  0  0  0  0  0  0  0  0
  152.5331  143.7476  156.8768 H   0  0  0  0  0  0  0  0  0  0  0  0
  149.8158  142.6085  157.7180 H   0  0  0  0  0  0  0  0  0  0  0  0
  150.5942  142.3504  156.1901 H   0  0  0  0  0  0  0  0  0  0  0  0
  151.3817  141.0733  155.3438 H   0  0  0  0  0  0  0  0  0  0  0  0
  153.0357  140.4960  155.2853 H   0  0  0  0  0  0  0  0  0  0  0  0
  151.5458  138.3105  155.9648 H   0  0  0  0  0  0  0  0  0  0  0  0
  150.4094  139.6239  153.5965 H   0  0  0  0  0  0  0  0  0  0  0  0
  149.9666  138.0652  154.2621 H   0  0  0  0  0  0  0  0  0  0  0  0
  148.7396  139.0431  156.0406 H   0  0  0  0  0  0  0  0  0  0  0  0
  149.7482  140.4702  156.0809 H   0  0  0  0  0  0  0  0  0  0  0  0
  148.3404  142.4760  155.4841 H   0  0  0  0  0  0  0  0  0  0  0  0
  146.4293  142.9882  153.6045 H   0  0  0  0  0  0  0  0  0  0  0  0
  146.1417  140.5456  152.3277 H   0  0  0  0  0  0  0  0  0  0  0  0
  152.0704  140.7703  159.8608 H   0  0  0  0  0  0  0  0  0  0  0  0
  150.6361  141.7454  159.7602 H   0  0  0  0  0  0  0  0  0  0  0  0
  1  2  1  0  0  0  0
  1 19  1  0  0  0  0
  1 20  1  0  0  0  0
  1 21  1  0  0  0  0
  2 18  1  0  0  0  0
  2  3  1  0  0  0  0
  2 22  1  0  0  0  0
  3  4  1  0  0  0  0
  3 23  1  0  0  0  0
  3 24  1  0  0  0  0
  4  5  1  0  0  0  0
  4 25  1  0  0  0  0
  4 26  1  0  0  0  0
  5  6  1  0  0  0  0
  5 27  1  0  0  0  0
  5 28  1  0  0  0  0
  6  7  1  0  0  0  0
  6 18  1  0  0  0  0
  7  8  2  0  0  0  0
  7  9  1  0  0  0  0
  9 10  1  0  0  0  0
  9 29  1  0  0  0  0
  9 30  1  0  0  0  0
 10 11  1  0  0  0  0
 10 31  1  0  0  0  0
 11 12  1  0  0  0  0
 11 32  1  0  0  0  0
 11 33  1  0  0  0  0
 12 13  1  0  0  0  0
 12 34  1  0  0  0  0
 12 35  1  0  0  0  0
 13 17  1  0  0  0  0
 13 14  1  0  0  0  0
 14 15  2  0  0  0  0
 14 36  1  0  0  0  0
 15 16  1  0  0  0  0
 15 37  1  0  0  0  0
 16 17  2  0  0  0  0
 16 38  1  0  0  0  0
 18 39  1  0  0  0  0
 18 40  1  0  0  0  0
M  END
> <s_m_source_file>
AV-unprocessed.smi

> <i_m_source_file_index>
3327

> <i_lp_mmshare_version>
43012

> <i_f3d_flags>
0

> <s_epik_input>
W0NIM11bQ0BASF0xW0NIMl1bQ0gyXVtDSDJdTihbQ0gyXTEpQyg9TylbQ0gyXVtOSF1bQ0gyXVtDSDJdbjJbY0hdW2NIXVtjSF1uMg==

> <s_epik_cmdline>
J2VwaWtfcHl0aG9uJywgJy1waCcsICc3LjAnLCAnLXRuJywgJzgnLCAnLW1hJywgJzIwMCcsICctbWV0YWxfYmluZGluZycsICctaW1hZScsICc8aW5maWxlLm1hZT4nLCAnLW9tYWUnLCAnPG91dGZpbGUubWFlPic=

> <r_lp_tautomer_probability>
1

> <r_epik_Ionization_Penalty>
0.752964

> <r_epik_Ionization_Penalty_Charging>
0

> <r_epik_Ionization_Penalty_Neutral>
0.752964

> <r_epik_State_Penalty>
0.778238

> <r_epik_Charging_Adjusted_Penalty>
0.778238

> <i_epik_Tot_Q>
0

> <i_epik_Tot_abs_Q>
0

> <r_epik_Metal_State_Penalty>
0.776974

> <b_epik_Metal_Only>
0

> <s_lp_Force_Field>
OPLS_2005

> <r_lp_Energy>
27.1089

> <b_lp_Chiralities_Consistent>
1

> <s_lp_Variant>
AV-unprocessed.smi:3327-3

> <Gold.Version>
5.8.1

> <Gold.Id.Protein>
6NUR|6NUR_protein|mol2

> <Gold.PLP.Fitness>
45.6718

> <Gold.PLP.PLP>
-38.2896

> <Gold.PLP.part.hbond>
-1.0000

> <Gold.PLP.part.metal>
0.0000

> <Gold.PLP.part.buried>
-2.5967

> <Gold.PLP.part.nonpolar>
-34.5057

> <Gold.PLP.part.repulsive>
0.1815

> <Gold.PLP.ligand.clash>
0.0000

> <Gold.PLP.ligand.torsion>
0.6588

> <Gold.PLP.Chemscore.Hbond>
1.0000

> <Gold.PLP.Chemscore.CHOScore>
1.8796

> <Gold.PLP.Chemscore.Metal>
0.0000

> <Gold.Chemscore.Hbonds>
donor molecule, donor type, donor heavy atom, donor atom, acceptor molecule, acceptor atom, score
      P1  H  7997  8010       L1     8  1.00
      L1  C    14    36       P1  8028  1.00
      L1  C    16    38       P1 10175  0.90

> <Gold.PLP.Chemscore.Internal.Correction>
0.0612

> <Gold.Rescore>
     Score         DG    S(hbond)    S(metal)    S(lipo)     H(rot)  DE(clash)    DE(int)     intcor
     14.32     -15.17       0.52        0.00     105.78       1.73       0.25       0.60       ----

> <Gold.Chemscore.Fitness>
14.3170

> <Gold.Chemscore.DG>
-15.1674

> <Gold.Chemscore.ZeroCoef>
-5.4800

> <Gold.Chemscore.Hbond>
0.5207

> <Gold.Chemscore.Metal>
0.0000

> <Gold.Chemscore.Lipo>
105.7798

> <Gold.Chemscore.Internal_Hbond>
0.0000

> <Gold.Chemscore.DEClash>
0.2457

> <Gold.Chemscore.DEInternal>
0.6047

> <Gold.Chemscore.Rot>
1.7296

> <Gold.Chemscore.Internal.Correction>
   9.000000E+99

> <Gold.Chemscore.Hbonds>
donor molecule, donor type, donor heavy atom, donor atom, acceptor molecule, acceptor atom, score
      P1  H  7997  8010       L1     8  0.28

> <Gold.Chemscore.Hbond.Weighted>
-1.7390

> <Gold.Chemscore.Metal.Weighted>
-0.0000

> <Gold.Chemscore.Lipo.Weighted>
-12.3762

> <Gold.Chemscore.Internal_Hbond.Weighted>
0.0000

> <Gold.Chemscore.DEClash.Weighted>
0.2457

> <Gold.Chemscore.DEInternal.Weighted>
0.6047

> <Gold.Chemscore.Rot.Weighted>
4.4278

> <Gold.Chemscore.Internal.Correction.Weighted>
   9.000000E+99

> <Gold.Protein.RotatedTorsions>
[ 6907 6896 6895 6894 ] final  100.71 input  -60.11 | X-H torsion
[ 7974 7965 7964 7962 ] final  -33.78 input  175.53 | X-H torsion
[ 8008 7997 7996 7995 ] final   27.84 input   59.86 | X-H torsion
[ 10167 10162 10161 10158 ] final  156.87 input  -65.29 | X-H torsion
[ 10718 10713 10712 10709 ] final  -52.85 input   66.30 | X-H torsion
[ 10763 10752 10751 10750 ] final  111.45 input  -60.55 | X-H torsion
[ 11005 11000 10999 10996 ] final   -8.42 input  -57.11 | X-H torsion

> <Gold.Protein.ActiveResidues>
 VAL166  LYS551  ARG553  GLY616  TRP617  ASP618  TYR619  PRO620  LYS621  CYS622 
 ASP623  PHE694  ASN695  SER759  ASP760  ASP761  ALA762  ILE779  LEU786  VAL792 
 PHE793  MET794  SER795  GLU796  ALA797  LYS798  CYS799  TRP800  GLU811  SER814 

> <Gold.Protein.RotatedAtoms>
  152.5366  134.0235  159.7992 H   0  0  0  0  0  0  0  0  0  0  0  0  # atno 6907 bound_to 6896
  151.0418  133.5692  159.2657 H   0  0  0  0  0  0  0  0  0  0  0  0  # atno 6908 bound_to 6896
  151.2659  135.0676  159.9169 H   0  0  0  0  0  0  0  0  0  0  0  0  # atno 6909 bound_to 6896
  146.0883  140.5958  142.8876 H   0  0  0  0  0  0  0  0  0  0  0  0  # atno 7974 bound_to 7965
  155.0493  140.3178  155.4697 H   0  0  0  0  0  0  0  0  0  0  0  0  # atno 8008 bound_to 7997
  156.2838  140.2149  156.5562 H   0  0  0  0  0  0  0  0  0  0  0  0  # atno 8009 bound_to 7997
  154.7224  140.0488  157.0639 H   0  0  0  0  0  0  0  0  0  0  0  0  # atno 8010 bound_to 7997
  139.4822  144.4969  151.8226 H   0  0  0  0  0  0  0  0  0  0  0  0  # atno 10167 bound_to 10162
  156.1586  130.4150  149.9829 H   0  0  0  0  0  0  0  0  0  0  0  0  # atno 10718 bound_to 10713
  153.4636  135.3716  155.2352 H   0  0  0  0  0  0  0  0  0  0  0  0  # atno 10763 bound_to 10752
  154.8757  135.3914  154.3896 H   0  0  0  0  0  0  0  0  0  0  0  0  # atno 10764 bound_to 10752
  153.4473  135.7085  153.6195 H   0  0  0  0  0  0  0  0  0  0  0  0  # atno 10765 bound_to 10752
  140.7233  133.8810  155.8837 H   0  0  0  0  0  0  0  0  0  0  0  0  # atno 11005 bound_to 11000
  144.7341  140.4758  143.6916 LP  0  0  0  0  0  0  0  0  0  0  0  0  # atno 17320 bound_to 7965
  145.6088  139.1511  143.3087 LP  0  0  0  0  0  0  0  0  0  0  0  0  # atno 17321 bound_to 7965
  140.4459  144.1923  150.5894 LP  0  0  0  0  0  0  0  0  0  0  0  0  # atno 17342 bound_to 10162
  140.4635  143.2439  151.9187 LP  0  0  0  0  0  0  0  0  0  0  0  0  # atno 17343 bound_to 10162
  156.7666  130.9170  151.3643 LP  0  0  0  0  0  0  0  0  0  0  0  0  # atno 17370 bound_to 10713
  157.6714  130.9055  150.0050 LP  0  0  0  0  0  0  0  0  0  0  0  0  # atno 17371 bound_to 10713
  140.9984  134.1183  157.4341 LP  0  0  0  0  0  0  0  0  0  0  0  0  # atno 17394 bound_to 11000
  139.8843  135.0061  156.6359 LP  0  0  0  0  0  0  0  0  0  0  0  0  # atno 17395 bound_to 11000

$$$$
