AV-unprocessed.smi:115|AV-procd|sdf|1124|dock8
  -GOLD-   2262018253D 1   1.00000     0.00000
 Structure written by MMmdl.
 55 57  0  0  0  0  0  0  0  0  1 V2000
  155.9203  134.0431  163.6966 C   0  0  0  0  0  0  0  0  0  0  0  0
  155.7092  133.5630  162.3802 O   0  0  0  0  0  0  0  0  0  0  0  0
  156.7900  133.8614  161.5108 C   0  0  0  0  0  0  0  0  0  0  0  0
  157.0252  135.3859  161.5033 C   0  0  1  0  0  0  0  0  0  0  0  0
  158.1668  135.8352  160.5751 C   0  0  0  0  0  0  0  0  0  0  0  0
  155.7976  136.1687  161.2842 N   0  0  0  0  0  0  0  0  0  0  0  0
  155.1932  136.9553  162.2641 C   0  0  0  0  0  0  0  0  0  0  0  0
  155.7280  137.1012  163.6542 C   0  0  0  0  0  0  0  0  0  0  0  0
  154.0781  137.5189  161.7219 C   0  0  0  0  0  0  0  0  0  0  0  0
  153.9739  137.1053  160.3675 C   0  0  0  0  0  0  0  0  0  0  0  0
  152.9026  137.4406  159.3941 C   0  0  0  0  0  0  0  0  0  0  0  0
  151.7187  137.1442  159.5622 O   0  0  0  0  0  0  0  0  0  0  0  0
  153.3558  138.2104  158.1392 C   0  0  0  0  0  0  0  0  0  0  0  0
  152.7715  139.5433  158.0464 N   0  0  0  0  0  0  0  0  0  0  0  0
  151.6793  139.7229  157.1619 C   0  0  0  0  0  0  0  0  0  0  0  0
  151.2134  138.7948  156.4983 O   0  0  0  0  0  0  0  0  0  0  0  0
  151.1627  141.0852  157.1095 C   0  0  0  0  0  0  0  0  0  0  0  0
  150.1677  141.3862  156.2576 F   0  0  0  0  0  0  0  0  0  0  0  0
  151.6789  142.0575  157.8913 C   0  0  0  0  0  0  0  0  0  0  0  0
  152.6988  141.8395  158.8039 N   0  0  0  0  0  0  0  0  0  0  0  0
  153.3084  142.9774  159.5973 C   0  0  2  0  0  0  0  0  0  0  0  0
  153.1499  142.8366  161.1217 C   0  0  0  0  0  0  0  0  0  0  0  0
  152.0746  143.8598  161.4327 C   0  0  0  0  0  0  0  0  0  0  0  0
  152.3279  144.9102  160.3584 C   0  0  0  0  0  0  0  0  0  0  0  0
  152.6674  144.1539  159.2035 O   0  0  0  0  0  0  0  0  0  0  0  0
  153.3120  140.5667  158.8632 C   0  0  0  0  0  0  0  0  0  0  0  0
  154.2712  140.3581  159.6097 O   0  0  0  0  0  0  0  0  0  0  0  0
  155.0601  136.3026  160.0971 C   0  0  0  0  0  0  0  0  0  0  0  0
  155.4681  135.6392  158.8105 C   0  0  0  0  0  0  0  0  0  0  0  0
  155.0611  133.7941  164.3193 H   0  0  0  0  0  0  0  0  0  0  0  0
  156.0413  135.1272  163.7075 H   0  0  0  0  0  0  0  0  0  0  0  0
  156.8041  133.5874  164.1454 H   0  0  0  0  0  0  0  0  0  0  0  0
  157.6730  133.3157  161.8402 H   0  0  0  0  0  0  0  0  0  0  0  0
  156.5440  133.5187  160.5041 H   0  0  0  0  0  0  0  0  0  0  0  0
  157.3643  135.6044  162.5144 H   0  0  0  0  0  0  0  0  0  0  0  0
  159.0959  135.3241  160.8286 H   0  0  0  0  0  0  0  0  0  0  0  0
  158.3476  136.9059  160.6740 H   0  0  0  0  0  0  0  0  0  0  0  0
  157.9617  135.6332  159.5259 H   0  0  0  0  0  0  0  0  0  0  0  0
  155.1523  137.8372  164.2157 H   0  0  0  0  0  0  0  0  0  0  0  0
  156.7661  137.4346  163.6427 H   0  0  0  0  0  0  0  0  0  0  0  0
  155.6734  136.1565  164.1959 H   0  0  0  0  0  0  0  0  0  0  0  0
  153.3970  138.1653  162.2561 H   0  0  0  0  0  0  0  0  0  0  0  0
  154.4417  138.3095  158.1128 H   0  0  0  0  0  0  0  0  0  0  0  0
  153.0944  137.6654  157.2308 H   0  0  0  0  0  0  0  0  0  0  0  0
  151.2647  143.0467  157.7801 H   0  0  0  0  0  0  0  0  0  0  0  0
  154.3661  143.0052  159.3318 H   0  0  0  0  0  0  0  0  0  0  0  0
  152.9251  141.8195  161.4431 H   0  0  0  0  0  0  0  0  0  0  0  0
  154.0894  143.1353  161.5885 H   0  0  0  0  0  0  0  0  0  0  0  0
  151.0812  143.4286  161.3079 H   0  0  0  0  0  0  0  0  0  0  0  0
  152.1468  144.2600  162.4443 H   0  0  0  0  0  0  0  0  0  0  0  0
  151.4631  145.5495  160.1802 H   0  0  0  0  0  0  0  0  0  0  0  0
  153.1725  145.5443  160.6323 H   0  0  0  0  0  0  0  0  0  0  0  0
  155.1456  136.2131  157.9432 H   0  0  0  0  0  0  0  0  0  0  0  0
  155.0342  134.6421  158.7338 H   0  0  0  0  0  0  0  0  0  0  0  0
  156.5460  135.5537  158.7092 H   0  0  0  0  0  0  0  0  0  0  0  0
  1  2  1  0  0  0  0
  1 30  1  0  0  0  0
  1 31  1  0  0  0  0
  1 32  1  0  0  0  0
  2  3  1  0  0  0  0
  3  4  1  0  0  0  0
  3 33  1  0  0  0  0
  3 34  1  0  0  0  0
  4  5  1  0  0  0  0
  4  6  1  0  0  0  0
  4 35  1  0  0  0  0
  5 36  1  0  0  0  0
  5 37  1  0  0  0  0
  5 38  1  0  0  0  0
  6 28  1  0  0  0  0
  6  7  1  0  0  0  0
  7  8  1  0  0  0  0
  7  9  2  0  0  0  0
  8 39  1  0  0  0  0
  8 40  1  0  0  0  0
  8 41  1  0  0  0  0
  9 10  1  0  0  0  0
  9 42  1  0  0  0  0
 10 11  1  0  0  0  0
 10 28  2  0  0  0  0
 11 12  2  0  0  0  0
 11 13  1  0  0  0  0
 13 14  1  0  0  0  0
 13 43  1  0  0  0  0
 13 44  1  0  0  0  0
 14 26  1  0  0  0  0
 14 15  1  0  0  0  0
 15 16  2  0  0  0  0
 15 17  1  0  0  0  0
 17 18  1  0  0  0  0
 17 19  2  0  0  0  0
 19 20  1  0  0  0  0
 19 45  1  0  0  0  0
 20 21  1  0  0  0  0
 20 26  1  0  0  0  0
 21 25  1  0  0  0  0
 21 22  1  0  0  0  0
 21 46  1  0  0  0  0
 22 23  1  0  0  0  0
 22 47  1  0  0  0  0
 22 48  1  0  0  0  0
 23 24  1  0  0  0  0
 23 49  1  0  0  0  0
 23 50  1  0  0  0  0
 24 25  1  0  0  0  0
 24 51  1  0  0  0  0
 24 52  1  0  0  0  0
 26 27  2  0  0  0  0
 28 29  1  0  0  0  0
 29 53  1  0  0  0  0
 29 54  1  0  0  0  0
 29 55  1  0  0  0  0
M  END
> <s_m_source_file>
AV-unprocessed.smi

> <i_m_source_file_index>
115

> <i_lp_mmshare_version>
43012

> <i_f3d_flags>
0

> <s_epik_input>
W0NIM11PW0NIMl1bQ0BIXShbQ0gzXSluMWMoW0NIM10pW2NIXWMoYzFbQ0gzXSlDKD1PKVtDSDJdbjJjKD1PKWMoRilbY0hdbihjMj1PKVtDQEBIXTNbQ0gyXVtDSDJdW0NIMl1PMw==

> <s_epik_cmdline>
J2VwaWtfcHl0aG9uJywgJy1waCcsICc3LjAnLCAnLXRuJywgJzgnLCAnLW1hJywgJzIwMCcsICctbWV0YWxfYmluZGluZycsICctaW1hZScsICc8aW5maWxlLm1hZT4nLCAnLW9tYWUnLCAnPG91dGZpbGUubWFlPic=

> <r_lp_tautomer_probability>
1

> <r_epik_Ionization_Penalty>
5.02611e-09

> <r_epik_Ionization_Penalty_Charging>
5.01743e-09

> <r_epik_Ionization_Penalty_Neutral>
8.68114e-12

> <r_epik_State_Penalty>
-0

> <r_epik_Charging_Adjusted_Penalty>
5.01743e-09

> <i_epik_Tot_Q>
0

> <i_epik_Tot_abs_Q>
0

> <r_epik_Metal_State_Penalty>
-0

> <b_epik_Metal_Only>
0

> <s_epik_Chemistry_Notes>
This compound contains an acetal/aminal-like group ( X-CH(R)-Y where X, Y are N, S, or O) that may be acid/base labile, releasing an aldehyde.

> <s_lp_Force_Field>
OPLS_2005

> <r_lp_Energy>
46.8154

> <b_lp_Chiralities_Consistent>
1

> <s_lp_Variant>
AV-unprocessed.smi:115-2

> <Gold.Version>
5.8.1

> <Gold.Id.Protein>
6NUR|6NUR_protein|mol2

> <Gold.PLP.Fitness>
49.4400

> <Gold.PLP.PLP>
-49.8837

> <Gold.PLP.part.hbond>
-0.8988

> <Gold.PLP.part.metal>
0.0000

> <Gold.PLP.part.buried>
-7.7691

> <Gold.PLP.part.nonpolar>
-41.5984

> <Gold.PLP.part.repulsive>
0.0026

> <Gold.PLP.ligand.clash>
0.0000

> <Gold.PLP.ligand.torsion>
1.6306

> <Gold.PLP.Chemscore.Hbond>
0.8450

> <Gold.PLP.Chemscore.CHOScore>
0.0000

> <Gold.PLP.Chemscore.Metal>
0.0000

> <Gold.Chemscore.Hbonds>
donor molecule, donor type, donor heavy atom, donor atom, acceptor molecule, acceptor atom, score
      P1  H  6896  6907       L1    12  0.71

> <Gold.PLP.Chemscore.Internal.Correction>
0.2825

> <Gold.Rescore>
     Score         DG    S(hbond)    S(metal)    S(lipo)     H(rot)  DE(clash)    DE(int)     intcor
     12.58     -14.27       0.78        0.00     100.78       2.19       0.05       1.64       ----

> <Gold.Chemscore.Fitness>
12.5801

> <Gold.Chemscore.DG>
-14.2677

> <Gold.Chemscore.ZeroCoef>
-5.4800

> <Gold.Chemscore.Hbond>
0.7821

> <Gold.Chemscore.Metal>
0.0000

> <Gold.Chemscore.Lipo>
100.7819

> <Gold.Chemscore.Internal_Hbond>
0.0000

> <Gold.Chemscore.DEClash>
0.0458

> <Gold.Chemscore.DEInternal>
1.6417

> <Gold.Chemscore.Rot>
2.1938

> <Gold.Chemscore.Internal.Correction>
   9.000000E+99

> <Gold.Chemscore.Hbonds>
donor molecule, donor type, donor heavy atom, donor atom, acceptor molecule, acceptor atom, score
      P1  H  6896  6907       L1    12  0.67

> <Gold.Chemscore.Hbond.Weighted>
-2.6122

> <Gold.Chemscore.Metal.Weighted>
-0.0000

> <Gold.Chemscore.Lipo.Weighted>
-11.7915

> <Gold.Chemscore.Internal_Hbond.Weighted>
0.0000

> <Gold.Chemscore.DEClash.Weighted>
0.0458

> <Gold.Chemscore.DEInternal.Weighted>
1.6417

> <Gold.Chemscore.Rot.Weighted>
5.6160

> <Gold.Chemscore.Internal.Correction.Weighted>
   9.000000E+99

> <Gold.Protein.RotatedTorsions>
[ 6907 6896 6895 6894 ] final  -24.12 input  -60.11 | X-H torsion
[ 7974 7965 7964 7962 ] final  115.48 input  175.53 | X-H torsion
[ 8008 7997 7996 7995 ] final   13.17 input   59.86 | X-H torsion
[ 10167 10162 10161 10158 ] final  152.42 input  -65.29 | X-H torsion
[ 10718 10713 10712 10709 ] final   89.79 input   66.30 | X-H torsion
[ 10763 10752 10751 10750 ] final   37.08 input  -60.55 | X-H torsion
[ 11005 11000 10999 10996 ] final   85.25 input  -57.11 | X-H torsion

> <Gold.Protein.ActiveResidues>
 VAL166  LYS551  ARG553  GLY616  TRP617  ASP618  TYR619  PRO620  LYS621  CYS622 
 ASP623  PHE694  ASN695  SER759  ASP760  ASP761  ALA762  ILE779  LEU786  VAL792 
 PHE793  MET794  SER795  GLU796  ALA797  LYS798  CYS799  TRP800  GLU811  SER814 

> <Gold.Protein.RotatedAtoms>
  151.1941  135.0415  159.8844 H   0  0  0  0  0  0  0  0  0  0  0  0  # atno 6907 bound_to 6896
  152.5437  134.0923  159.8292 H   0  0  0  0  0  0  0  0  0  0  0  0  # atno 6908 bound_to 6896
  151.1055  133.5164  159.2640 H   0  0  0  0  0  0  0  0  0  0  0  0  # atno 6909 bound_to 6896
  145.1915  139.2998  143.4366 H   0  0  0  0  0  0  0  0  0  0  0  0  # atno 7974 bound_to 7965
  154.8307  140.2899  155.5724 H   0  0  0  0  0  0  0  0  0  0  0  0  # atno 8008 bound_to 7997
  156.3005  140.2532  156.3163 H   0  0  0  0  0  0  0  0  0  0  0  0  # atno 8009 bound_to 7997
  154.9234  140.0385  157.1999 H   0  0  0  0  0  0  0  0  0  0  0  0  # atno 8010 bound_to 7997
  139.4833  144.5359  151.7646 H   0  0  0  0  0  0  0  0  0  0  0  0  # atno 10167 bound_to 10162
  157.6957  131.0346  150.3479 H   0  0  0  0  0  0  0  0  0  0  0  0  # atno 10718 bound_to 10713
  153.0051  135.6288  154.2088 H   0  0  0  0  0  0  0  0  0  0  0  0  # atno 10763 bound_to 10752
  154.1831  135.2812  155.3047 H   0  0  0  0  0  0  0  0  0  0  0  0  # atno 10764 bound_to 10752
  154.5819  135.5645  153.7253 H   0  0  0  0  0  0  0  0  0  0  0  0  # atno 10765 bound_to 10752
  139.8977  134.8274  156.2557 H   0  0  0  0  0  0  0  0  0  0  0  0  # atno 11005 bound_to 11000
  146.3435  140.2129  142.8590 LP  0  0  0  0  0  0  0  0  0  0  0  0  # atno 17320 bound_to 7965
  145.0037  140.8654  143.5266 LP  0  0  0  0  0  0  0  0  0  0  0  0  # atno 17321 bound_to 7965
  140.4892  144.1336  150.5947 LP  0  0  0  0  0  0  0  0  0  0  0  0  # atno 17342 bound_to 10162
  140.4191  143.2620  151.9738 LP  0  0  0  0  0  0  0  0  0  0  0  0  # atno 17343 bound_to 10162
  156.3931  130.3901  149.7015 LP  0  0  0  0  0  0  0  0  0  0  0  0  # atno 17370 bound_to 10713
  156.4358  130.7837  151.2858 LP  0  0  0  0  0  0  0  0  0  0  0  0  # atno 17371 bound_to 10713
  141.0195  133.7049  156.1244 LP  0  0  0  0  0  0  0  0  0  0  0  0  # atno 17394 bound_to 11000
  140.7254  134.4313  157.5571 LP  0  0  0  0  0  0  0  0  0  0  0  0  # atno 17395 bound_to 11000

$$$$
