AV-unprocessed.smi:104|AV-procd|sdf|996|dock9
  -GOLD-   2262017583D 1   1.00000     0.00000
 Structure written by MMmdl.
 47 49  0  0  0  0  0  0  0  0  1 V2000
  146.9725  134.8324  161.8800 C   0  0  0  0  0  0  0  0  0  0  0  0
  147.3695  136.1057  161.1437 C   0  0  0  0  0  0  0  0  0  0  0  0
  147.1679  137.2177  161.6315 O   0  0  0  0  0  0  0  0  0  0  0  0
  147.9354  135.8562  159.9534 O   0  0  0  0  0  0  0  0  0  0  0  0
  148.2971  136.9319  159.0991 C   0  0  0  0  0  0  0  0  0  0  0  0
  147.6334  136.7964  157.7177 C   0  0  1  0  0  0  0  0  0  0  0  0
  146.2096  136.8210  157.7929 O   0  0  0  0  0  0  0  0  0  0  0  0
  145.6945  137.3827  156.6217 C   0  0  2  0  0  0  0  0  0  0  0  0
  144.7042  136.4468  156.0094 N   0  0  0  0  0  0  0  0  0  0  0  0
  144.2170  135.2614  156.5104 C   0  0  0  0  0  0  0  0  0  0  0  0
  144.7557  134.5752  158.2035 Br  0  0  0  0  0  0  0  0  0  0  0  0
  143.3444  134.6211  155.7838 N   0  0  0  0  0  0  0  0  0  0  0  0
  143.2026  135.4483  154.6767 C   0  0  0  0  0  0  0  0  0  0  0  0
  142.4217  135.3865  153.4948 C   0  0  0  0  0  0  0  0  0  0  0  0
  141.5870  134.3746  153.2206 N   0  0  0  0  0  0  0  0  0  0  0  0
  142.5209  136.3975  152.6006 N   0  0  0  0  0  0  0  0  0  0  0  0
  143.3446  137.4204  152.8500 C   0  0  0  0  0  0  0  0  0  0  0  0
  144.1377  137.6161  153.9068 N   0  0  0  0  0  0  0  0  0  0  0  0
  144.0406  136.5949  154.8077 C   0  0  0  0  0  0  0  0  0  0  0  0
  146.8633  137.6169  155.6647 C   0  0  1  0  0  0  0  0  0  0  0  0
  146.6137  138.7327  154.8197 O   0  0  0  0  0  0  0  0  0  0  0  0
  147.5677  139.1712  153.9836 C   0  0  0  0  0  0  0  0  0  0  0  0
  147.1213  140.3860  153.1813 C   0  0  0  0  0  0  0  0  0  0  0  0
  148.6928  138.6900  153.8510 O   0  0  0  0  0  0  0  0  0  0  0  0
  148.0148  137.8193  156.6384 C   0  0  1  0  0  0  0  0  0  0  0  0
  148.0155  139.1426  157.1707 O   0  0  0  0  0  0  0  0  0  0  0  0
  149.1478  139.7007  157.6332 C   0  0  0  0  0  0  0  0  0  0  0  0
  149.0476  141.2167  157.7375 C   0  0  0  0  0  0  0  0  0  0  0  0
  150.1764  139.1033  157.9497 O   0  0  0  0  0  0  0  0  0  0  0  0
  146.8610  134.0005  161.1838 H   0  0  0  0  0  0  0  0  0  0  0  0
  146.0241  134.9757  162.3981 H   0  0  0  0  0  0  0  0  0  0  0  0
  147.7326  134.5702  162.6161 H   0  0  0  0  0  0  0  0  0  0  0  0
  148.0060  137.8857  159.5424 H   0  0  0  0  0  0  0  0  0  0  0  0
  149.3822  136.9442  158.9915 H   0  0  0  0  0  0  0  0  0  0  0  0
  147.9016  135.8132  157.3293 H   0  0  0  0  0  0  0  0  0  0  0  0
  145.1430  138.2886  156.8731 H   0  0  0  0  0  0  0  0  0  0  0  0
  141.4929  133.6083  153.8717 H   0  0  0  0  0  0  0  0  0  0  0  0
  141.0562  134.3783  152.3616 H   0  0  0  0  0  0  0  0  0  0  0  0
  143.3729  138.1916  152.0943 H   0  0  0  0  0  0  0  0  0  0  0  0
  147.0235  136.7022  155.0907 H   0  0  0  0  0  0  0  0  0  0  0  0
  146.0908  140.2653  152.8463 H   0  0  0  0  0  0  0  0  0  0  0  0
  147.7558  140.5195  152.3047 H   0  0  0  0  0  0  0  0  0  0  0  0
  147.1842  141.2849  153.7947 H   0  0  0  0  0  0  0  0  0  0  0  0
  148.9755  137.5669  156.1878 H   0  0  0  0  0  0  0  0  0  0  0  0
  148.1446  141.5821  157.2474 H   0  0  0  0  0  0  0  0  0  0  0  0
  149.9107  141.6855  157.2645 H   0  0  0  0  0  0  0  0  0  0  0  0
  149.0186  141.5200  158.7840 H   0  0  0  0  0  0  0  0  0  0  0  0
  1  2  1  0  0  0  0
  1 30  1  0  0  0  0
  1 31  1  0  0  0  0
  1 32  1  0  0  0  0
  2  3  2  0  0  0  0
  2  4  1  0  0  0  0
  4  5  1  0  0  0  0
  5  6  1  0  0  0  0
  5 33  1  0  0  0  0
  5 34  1  0  0  0  0
  6 25  1  0  0  0  0
  6  7  1  0  0  0  0
  6 35  1  0  0  0  0
  7  8  1  0  0  0  0
  8  9  1  0  0  0  0
  8 20  1  0  0  0  0
  8 36  1  0  0  0  0
  9 19  1  0  0  0  0
  9 10  1  0  0  0  0
 10 11  1  0  0  0  0
 10 12  2  0  0  0  0
 12 13  1  0  0  0  0
 13 19  2  0  0  0  0
 13 14  1  0  0  0  0
 14 15  1  0  0  0  0
 14 16  2  0  0  0  0
 15 37  1  0  0  0  0
 15 38  1  0  0  0  0
 16 17  1  0  0  0  0
 17 18  2  0  0  0  0
 17 39  1  0  0  0  0
 18 19  1  0  0  0  0
 20 21  1  0  0  0  0
 20 25  1  0  0  0  0
 20 40  1  0  0  0  0
 21 22  1  0  0  0  0
 22 23  1  0  0  0  0
 22 24  2  0  0  0  0
 23 41  1  0  0  0  0
 23 42  1  0  0  0  0
 23 43  1  0  0  0  0
 25 26  1  0  0  0  0
 25 44  1  0  0  0  0
 26 27  1  0  0  0  0
 27 28  1  0  0  0  0
 27 29  2  0  0  0  0
 28 45  1  0  0  0  0
 28 46  1  0  0  0  0
 28 47  1  0  0  0  0
M  END
> <s_m_source_file>
AV-unprocessed.smi

> <i_m_source_file_index>
104

> <i_lp_mmshare_version>
43012

> <i_f3d_flags>
0

> <s_epik_input>
W0NIM11DKD1PKU9bQ0gyXVtDQEBIXTFPW0NASF0oW0NAQEhdKE9DKD1PKVtDSDNdKVtDQEhdMU9DKD1PKVtDSDNdKW4oYyhCciluMiljKGMyMyluW2NIXW5jM1tOSDJd

> <s_epik_cmdline>
J2VwaWtfcHl0aG9uJywgJy1waCcsICc3LjAnLCAnLXRuJywgJzgnLCAnLW1hJywgJzIwMCcsICctbWV0YWxfYmluZGluZycsICctaW1hZScsICc8aW5maWxlLm1hZT4nLCAnLW9tYWUnLCAnPG91dGZpbGUubWFlPic=

> <r_lp_tautomer_probability>
1

> <r_epik_Ionization_Penalty>
7.36622e-05

> <r_epik_Ionization_Penalty_Charging>
0

> <r_epik_Ionization_Penalty_Neutral>
7.36622e-05

> <r_epik_State_Penalty>
-0

> <r_epik_Charging_Adjusted_Penalty>
0

> <i_epik_Tot_Q>
0

> <i_epik_Tot_abs_Q>
0

> <r_epik_Metal_State_Penalty>
-0

> <b_epik_Metal_Only>
0

> <s_epik_Chemistry_Notes>
This compound has an ester and may undergo hydrolysis at high or low pH. This compound contains an acetal/aminal-like group ( X-CH(R)-Y where X, Y are N, S, or O) that may be acid/base labile, releasing an aldehyde.

> <s_lp_Force_Field>
OPLS_2005

> <r_lp_Energy>
19.7206

> <b_lp_Chiralities_Consistent>
1

> <s_lp_Variant>
AV-unprocessed.smi:104-4

> <Gold.Version>
5.8.1

> <Gold.Id.Protein>
6NUR|6NUR_protein|mol2

> <Gold.PLP.Fitness>
36.6733

> <Gold.PLP.PLP>
-24.4808

> <Gold.PLP.part.hbond>
-3.0134

> <Gold.PLP.part.metal>
0.0000

> <Gold.PLP.part.buried>
-6.2798

> <Gold.PLP.part.nonpolar>
-15.7150

> <Gold.PLP.part.repulsive>
1.3588

> <Gold.PLP.ligand.clash>
0.0000

> <Gold.PLP.ligand.torsion>
1.0549

> <Gold.PLP.Chemscore.Hbond>
2.6720

> <Gold.PLP.Chemscore.CHOScore>
2.0000

> <Gold.PLP.Chemscore.Metal>
0.0000

> <Gold.Chemscore.Hbonds>
donor molecule, donor type, donor heavy atom, donor atom, acceptor molecule, acceptor atom, score
      L1  H    15    37       P1 10957  0.20
      P1  H  6931  6943       L1     3  0.59
      P1  H  6934  6947       L1     3  0.93
      L1  C    17    39       P1 10171  1.00
      L1  C    17    39       P1 10175  0.94

> <Gold.PLP.Chemscore.Internal.Correction>
0.2862

> <Gold.Rescore>
     Score         DG    S(hbond)    S(metal)    S(lipo)     H(rot)  DE(clash)    DE(int)     intcor
      1.54      -5.89       2.51        0.00      26.06       4.31       0.20       4.15       ----

> <Gold.Chemscore.Fitness>
1.5396

> <Gold.Chemscore.DG>
-5.8904

> <Gold.Chemscore.ZeroCoef>
-5.4800

> <Gold.Chemscore.Hbond>
2.5112

> <Gold.Chemscore.Metal>
0.0000

> <Gold.Chemscore.Lipo>
26.0579

> <Gold.Chemscore.Internal_Hbond>
0.0000

> <Gold.Chemscore.DEClash>
0.1997

> <Gold.Chemscore.DEInternal>
4.1512

> <Gold.Chemscore.Rot>
4.3070

> <Gold.Chemscore.Internal.Correction>
   9.000000E+99

> <Gold.Chemscore.Hbonds>
donor molecule, donor type, donor heavy atom, donor atom, acceptor molecule, acceptor atom, score
      L1  H    15    37       P1 10957  0.20
      P1  H  6931  6943       L1     3  0.46
      P1  H  6934  6947       L1     3  0.89

> <Gold.Chemscore.Hbond.Weighted>
-8.3875

> <Gold.Chemscore.Metal.Weighted>
-0.0000

> <Gold.Chemscore.Lipo.Weighted>
-3.0488

> <Gold.Chemscore.Internal_Hbond.Weighted>
0.0000

> <Gold.Chemscore.DEClash.Weighted>
0.1997

> <Gold.Chemscore.DEInternal.Weighted>
4.1512

> <Gold.Chemscore.Rot.Weighted>
11.0259

> <Gold.Chemscore.Internal.Correction.Weighted>
   9.000000E+99

> <Gold.Protein.RotatedTorsions>
[ 6907 6896 6895 6894 ] final  -15.42 input  -60.11 | X-H torsion
[ 7974 7965 7964 7962 ] final -136.09 input  175.53 | X-H torsion
[ 8008 7997 7996 7995 ] final  143.91 input   59.86 | X-H torsion
[ 10167 10162 10161 10158 ] final   94.81 input  -65.29 | X-H torsion
[ 10718 10713 10712 10709 ] final  148.84 input   66.30 | X-H torsion
[ 10763 10752 10751 10750 ] final   85.95 input  -60.55 | X-H torsion
[ 11005 11000 10999 10996 ] final   30.87 input  -57.11 | X-H torsion

> <Gold.Protein.ActiveResidues>
 VAL166  LYS551  ARG553  GLY616  TRP617  ASP618  TYR619  PRO620  LYS621  CYS622 
 ASP623  PHE694  ASN695  SER759  ASP760  ASP761  ALA762  ILE779  LEU786  VAL792 
 PHE793  MET794  SER795  GLU796  ALA797  LYS798  CYS799  TRP800  GLU811  SER814 

> <Gold.Protein.RotatedAtoms>
  151.3242  135.0826  159.9315 H   0  0  0  0  0  0  0  0  0  0  0  0  # atno 6907 bound_to 6896
  152.5250  133.9608  159.7727 H   0  0  0  0  0  0  0  0  0  0  0  0  # atno 6908 bound_to 6896
  150.9935  133.6074  159.2735 H   0  0  0  0  0  0  0  0  0  0  0  0  # atno 6909 bound_to 6896
  144.8957  140.6703  143.5117 H   0  0  0  0  0  0  0  0  0  0  0  0  # atno 7974 bound_to 7965
  156.2920  140.2250  156.4967 H   0  0  0  0  0  0  0  0  0  0  0  0  # atno 8008 bound_to 7997
  154.7725  140.0465  157.1084 H   0  0  0  0  0  0  0  0  0  0  0  0  # atno 8009 bound_to 7997
  154.9857  140.3084  155.4931 H   0  0  0  0  0  0  0  0  0  0  0  0  # atno 8010 bound_to 7997
  139.8048  144.6798  150.9717 H   0  0  0  0  0  0  0  0  0  0  0  0  # atno 10167 bound_to 10162
  157.3036  131.0875  151.1371 H   0  0  0  0  0  0  0  0  0  0  0  0  # atno 10718 bound_to 10713
  153.1524  135.4598  154.9655 H   0  0  0  0  0  0  0  0  0  0  0  0  # atno 10763 bound_to 10752
  154.7835  135.3196  154.7941 H   0  0  0  0  0  0  0  0  0  0  0  0  # atno 10764 bound_to 10752
  153.8444  135.6927  153.4853 H   0  0  0  0  0  0  0  0  0  0  0  0  # atno 10765 bound_to 10752
  140.2898  134.2877  155.7779 H   0  0  0  0  0  0  0  0  0  0  0  0  # atno 11005 bound_to 11000
  145.3704  139.1660  143.4335 LP  0  0  0  0  0  0  0  0  0  0  0  0  # atno 17320 bound_to 7965
  146.3080  140.3776  142.8680 LP  0  0  0  0  0  0  0  0  0  0  0  0  # atno 17321 bound_to 7965
  140.7819  143.4244  151.0791 LP  0  0  0  0  0  0  0  0  0  0  0  0  # atno 17342 bound_to 10162
  139.7914  143.8213  152.3152 LP  0  0  0  0  0  0  0  0  0  0  0  0  # atno 17343 bound_to 10162
  157.2721  130.6709  149.6024 LP  0  0  0  0  0  0  0  0  0  0  0  0  # atno 17370 bound_to 10713
  155.9673  130.4476  150.5586 LP  0  0  0  0  0  0  0  0  0  0  0  0  # atno 17371 bound_to 10713
  141.2148  133.7578  156.9607 LP  0  0  0  0  0  0  0  0  0  0  0  0  # atno 17394 bound_to 11000
  140.1206  134.9419  157.2198 LP  0  0  0  0  0  0  0  0  0  0  0  0  # atno 17395 bound_to 11000

$$$$
