AV-unprocessed.smi:3317|AV-procd|sdf|12761|dock5
  -GOLD-   2272019103D 1   1.00000     0.00000
 Structure written by MMmdl.
 36 37  0  0  0  0  0  0  0  0  1 V2000
  148.0488  133.4140  158.5976 C   0  0  0  0  0  0  0  0  0  0  0  0
  148.6204  134.6486  159.0045 O   0  0  0  0  0  0  0  0  0  0  0  0
  148.1830  135.2140  160.1865 C   0  0  0  0  0  0  0  0  0  0  0  0
  147.5152  134.4861  161.2043 C   0  0  0  0  0  0  0  0  0  0  0  0
  147.1087  135.1506  162.3740 C   0  0  0  0  0  0  0  0  0  0  0  0
  147.3834  136.5233  162.4874 C   0  0  0  0  0  0  0  0  0  0  0  0
  148.0154  137.2273  161.5282 N   0  0  0  0  0  0  0  0  0  0  0  0
  148.4141  136.5990  160.3941 C   0  0  0  0  0  0  0  0  0  0  0  0
  149.0836  137.2700  159.3347 N   0  0  0  0  0  0  0  0  0  0  0  0
  150.4055  137.4494  159.1519 C   0  0  0  0  0  0  0  0  0  0  0  0
  151.2815  137.0477  159.9174 O   0  0  0  0  0  0  0  0  0  0  0  0
  150.8053  138.2327  157.9019 C   0  0  0  0  0  0  0  0  0  0  0  0
  150.3926  139.5851  158.0471 O   0  0  0  0  0  0  0  0  0  0  0  0
  151.2160  140.5192  157.3616 C   0  0  0  0  0  0  0  0  0  0  0  0
  150.4363  141.8287  157.2419 C   0  0  0  0  0  0  0  0  0  0  0  0
  149.5010  141.6327  156.0436 C   0  0  0  0  0  0  0  0  0  0  0  0
  150.1431  140.5425  155.1720 C   0  0  0  0  0  0  0  0  0  0  0  0
  151.4196  140.1045  155.8997 C   0  0  0  0  0  0  0  0  0  0  0  0
  148.4996  133.1030  157.6552 H   0  0  0  0  0  0  0  0  0  0  0  0
  146.9744  133.5080  158.4335 H   0  0  0  0  0  0  0  0  0  0  0  0
  148.2364  132.6257  159.3278 H   0  0  0  0  0  0  0  0  0  0  0  0
  147.3066  133.4310  161.1124 H   0  0  0  0  0  0  0  0  0  0  0  0
  146.5985  134.6206  163.1646 H   0  0  0  0  0  0  0  0  0  0  0  0
  147.0878  137.0707  163.3702 H   0  0  0  0  0  0  0  0  0  0  0  0
  148.4820  137.6547  158.6206 H   0  0  0  0  0  0  0  0  0  0  0  0
  151.8881  138.1757  157.7830 H   0  0  0  0  0  0  0  0  0  0  0  0
  150.3489  137.7755  157.0234 H   0  0  0  0  0  0  0  0  0  0  0  0
  152.1580  140.6710  157.8916 H   0  0  0  0  0  0  0  0  0  0  0  0
  149.9017  142.0884  158.1564 H   0  0  0  0  0  0  0  0  0  0  0  0
  151.1306  142.6420  157.0268 H   0  0  0  0  0  0  0  0  0  0  0  0
  148.5212  141.2978  156.3861 H   0  0  0  0  0  0  0  0  0  0  0  0
  149.3544  142.5635  155.4949 H   0  0  0  0  0  0  0  0  0  0  0  0
  149.4585  139.6990  155.0740 H   0  0  0  0  0  0  0  0  0  0  0  0
  150.3636  140.9020  154.1666 H   0  0  0  0  0  0  0  0  0  0  0  0
  152.2692  140.6529  155.4907 H   0  0  0  0  0  0  0  0  0  0  0  0
  151.6304  139.0435  155.7688 H   0  0  0  0  0  0  0  0  0  0  0  0
  1  2  1  0  0  0  0
  1 19  1  0  0  0  0
  1 20  1  0  0  0  0
  1 21  1  0  0  0  0
  2  3  1  0  0  0  0
  3  8  1  0  0  0  0
  3  4  2  0  0  0  0
  4  5  1  0  0  0  0
  4 22  1  0  0  0  0
  5  6  2  0  0  0  0
  5 23  1  0  0  0  0
  6  7  1  0  0  0  0
  6 24  1  0  0  0  0
  7  8  2  0  0  0  0
  8  9  1  0  0  0  0
  9 10  1  0  0  0  0
  9 25  1  0  0  0  0
 10 11  2  0  0  0  0
 10 12  1  0  0  0  0
 12 13  1  0  0  0  0
 12 26  1  0  0  0  0
 12 27  1  0  0  0  0
 13 14  1  0  0  0  0
 14 18  1  0  0  0  0
 14 15  1  0  0  0  0
 14 28  1  0  0  0  0
 15 16  1  0  0  0  0
 15 29  1  0  0  0  0
 15 30  1  0  0  0  0
 16 17  1  0  0  0  0
 16 31  1  0  0  0  0
 16 32  1  0  0  0  0
 17 18  1  0  0  0  0
 17 33  1  0  0  0  0
 17 34  1  0  0  0  0
 18 35  1  0  0  0  0
 18 36  1  0  0  0  0
M  END
> <s_m_source_file>
AV-unprocessed.smi

> <i_m_source_file_index>
3317

> <i_lp_mmshare_version>
43012

> <i_f3d_flags>
0

> <s_epik_input>
W0NIM11PYzFbY0hdW2NIXVtjSF1uYzFbTkhdQyg9TylbQ0gyXU9bQ0hdMltDSDJdW0NIMl1bQ0gyXVtDSDJdMg==

> <s_epik_cmdline>
J2VwaWtfcHl0aG9uJywgJy1waCcsICc3LjAnLCAnLXRuJywgJzgnLCAnLW1hJywgJzIwMCcsICctbWV0YWxfYmluZGluZycsICctaW1hZScsICc8aW5maWxlLm1hZT4nLCAnLW9tYWUnLCAnPG91dGZpbGUubWFlPic=

> <r_lp_tautomer_probability>
1

> <r_epik_Ionization_Penalty>
0.000545986

> <r_epik_Ionization_Penalty_Charging>
0

> <r_epik_Ionization_Penalty_Neutral>
0.000545986

> <r_epik_State_Penalty>
-0

> <r_epik_Charging_Adjusted_Penalty>
0

> <i_epik_Tot_Q>
0

> <i_epik_Tot_abs_Q>
0

> <r_epik_Metal_State_Penalty>
-0

> <b_epik_Metal_Only>
0

> <s_lp_Force_Field>
OPLS_2005

> <r_lp_Energy>
28.4297

> <b_lp_Chiralities_Consistent>
1

> <s_lp_Variant>
AV-unprocessed.smi:3317-1

> <Gold.Version>
5.8.1

> <Gold.Id.Protein>
6NUR|6NUR_protein|mol2

> <Gold.PLP.Fitness>
39.6346

> <Gold.PLP.PLP>
-31.6306

> <Gold.PLP.part.hbond>
-3.9773

> <Gold.PLP.part.metal>
0.0000

> <Gold.PLP.part.buried>
-2.5049

> <Gold.PLP.part.nonpolar>
-25.8279

> <Gold.PLP.part.repulsive>
0.2124

> <Gold.PLP.ligand.clash>
0.0000

> <Gold.PLP.ligand.torsion>
1.3720

> <Gold.PLP.Chemscore.Hbond>
3.5701

> <Gold.PLP.Chemscore.CHOScore>
0.0000

> <Gold.PLP.Chemscore.Metal>
0.0000

> <Gold.Chemscore.Hbonds>
donor molecule, donor type, donor heavy atom, donor atom, acceptor molecule, acceptor atom, score
      P1  H  6896  6908       L1     2  0.64
      P1  H  6896  6909       L1    11  0.96
      P1  H  6931  6943       L1     7  0.89
      P1  H  6934  6947       L1     7  0.58

> <Gold.PLP.Chemscore.Internal.Correction>
0.0375

> <Gold.Rescore>
     Score         DG    S(hbond)    S(metal)    S(lipo)     H(rot)  DE(clash)    DE(int)     intcor
     16.02     -17.41       2.46        0.00      66.90       1.61       0.01       1.39       ----

> <Gold.Chemscore.Fitness>
16.0156

> <Gold.Chemscore.DG>
-17.4108

> <Gold.Chemscore.ZeroCoef>
-5.4800

> <Gold.Chemscore.Hbond>
2.4648

> <Gold.Chemscore.Metal>
0.0000

> <Gold.Chemscore.Lipo>
66.8976

> <Gold.Chemscore.Internal_Hbond>
0.0000

> <Gold.Chemscore.DEClash>
0.0053

> <Gold.Chemscore.DEInternal>
1.3899

> <Gold.Chemscore.Rot>
1.6127

> <Gold.Chemscore.Internal.Correction>
   9.000000E+99

> <Gold.Chemscore.Hbonds>
donor molecule, donor type, donor heavy atom, donor atom, acceptor molecule, acceptor atom, score
      P1  H  6896  6908       L1     2  0.11
      P1  H  6896  6909       L1    11  0.89
      P1  H  6931  6943       L1     7  0.59
      P1  H  6934  6947       L1     7  0.32

> <Gold.Chemscore.Hbond.Weighted>
-8.2323

> <Gold.Chemscore.Metal.Weighted>
-0.0000

> <Gold.Chemscore.Lipo.Weighted>
-7.8270

> <Gold.Chemscore.Internal_Hbond.Weighted>
0.0000

> <Gold.Chemscore.DEClash.Weighted>
0.0053

> <Gold.Chemscore.DEInternal.Weighted>
1.3899

> <Gold.Chemscore.Rot.Weighted>
4.1285

> <Gold.Chemscore.Internal.Correction.Weighted>
   9.000000E+99

> <Gold.Protein.RotatedTorsions>
[ 6907 6896 6895 6894 ] final  135.54 input  -60.11 | X-H torsion
[ 7974 7965 7964 7962 ] final  -52.89 input  175.53 | X-H torsion
[ 8008 7997 7996 7995 ] final -160.89 input   59.86 | X-H torsion
[ 10167 10162 10161 10158 ] final -153.34 input  -65.29 | X-H torsion
[ 10718 10713 10712 10709 ] final  -78.56 input   66.30 | X-H torsion
[ 10763 10752 10751 10750 ] final  111.03 input  -60.55 | X-H torsion
[ 11005 11000 10999 10996 ] final -116.55 input  -57.11 | X-H torsion

> <Gold.Protein.ActiveResidues>
 VAL166  LYS551  ARG553  GLY616  TRP617  ASP618  TYR619  PRO620  LYS621  CYS622 
 ASP623  PHE694  ASN695  SER759  ASP760  ASP761  ALA762  ILE779  LEU786  VAL792 
 PHE793  MET794  SER795  GLU796  ALA797  LYS798  CYS799  TRP800  GLU811  SER814 

> <Gold.Protein.RotatedAtoms>
  152.2993  133.5639  159.5607 H   0  0  0  0  0  0  0  0  0  0  0  0  # atno 6907 bound_to 6896
  150.7270  134.0314  159.3743 H   0  0  0  0  0  0  0  0  0  0  0  0  # atno 6908 bound_to 6896
  151.8215  135.0650  160.0476 H   0  0  0  0  0  0  0  0  0  0  0  0  # atno 6909 bound_to 6896
  145.9029  140.7979  142.9734 H   0  0  0  0  0  0  0  0  0  0  0  0  # atno 7974 bound_to 7965
  155.7841  140.0869  157.2043 H   0  0  0  0  0  0  0  0  0  0  0  0  # atno 8008 bound_to 7997
  154.3988  140.1502  156.3144 H   0  0  0  0  0  0  0  0  0  0  0  0  # atno 8009 bound_to 7997
  155.8624  140.3429  155.5768 H   0  0  0  0  0  0  0  0  0  0  0  0  # atno 8010 bound_to 7997
  139.7105  143.9116  152.2466 H   0  0  0  0  0  0  0  0  0  0  0  0  # atno 10167 bound_to 10162
  156.0114  130.4521  150.3515 H   0  0  0  0  0  0  0  0  0  0  0  0  # atno 10718 bound_to 10713
  153.4575  135.3729  155.2319 H   0  0  0  0  0  0  0  0  0  0  0  0  # atno 10763 bound_to 10752
  154.8757  135.3900  154.3964 H   0  0  0  0  0  0  0  0  0  0  0  0  # atno 10764 bound_to 10752
  153.4533  135.7086  153.6160 H   0  0  0  0  0  0  0  0  0  0  0  0  # atno 10765 bound_to 10752
  141.0414  133.9829  157.2988 H   0  0  0  0  0  0  0  0  0  0  0  0  # atno 11005 bound_to 11000
  144.6737  140.1705  143.7414 LP  0  0  0  0  0  0  0  0  0  0  0  0  # atno 17320 bound_to 7965
  145.8768  139.2301  143.1628 LP  0  0  0  0  0  0  0  0  0  0  0  0  # atno 17321 bound_to 7965
  139.8984  144.6926  150.8692 LP  0  0  0  0  0  0  0  0  0  0  0  0  # atno 17342 bound_to 10162
  140.7732  143.3532  151.1972 LP  0  0  0  0  0  0  0  0  0  0  0  0  # atno 17343 bound_to 10162
  157.1607  131.0344  151.2842 LP  0  0  0  0  0  0  0  0  0  0  0  0  # atno 17370 bound_to 10713
  157.4313  130.7492  149.6993 LP  0  0  0  0  0  0  0  0  0  0  0  0  # atno 17371 bound_to 10713
  139.9279  135.0201  156.8298 LP  0  0  0  0  0  0  0  0  0  0  0  0  # atno 17394 bound_to 11000
  140.6227  133.9979  155.7625 LP  0  0  0  0  0  0  0  0  0  0  0  0  # atno 17395 bound_to 11000

$$$$
