AV-unprocessed.smi:3021|AV-procd|sdf|11498|dock3
  -GOLD-   2272016433D 1   1.00000     0.00000
 Structure written by MMmdl.
 35 37  0  0  0  0  0  0  0  0  1 V2000
  152.6198  136.7331  159.5832 O   0  0  0  0  0  0  0  0  0  0  0  0
  152.0830  138.0301  159.4095 C   0  0  2  0  0  0  0  0  0  0  0  0
  150.6014  137.8917  159.0274 C   0  0  0  0  0  0  0  0  0  0  0  0
  150.0871  136.7142  159.6264 O   0  0  0  0  0  0  0  0  0  0  0  0
  148.6790  136.5967  159.4969 C   0  0  0  0  0  0  0  0  0  0  0  0
  148.1176  136.2698  160.8448 C   0  0  0  0  0  0  0  0  0  0  0  0
  147.7338  135.0948  161.4304 C   0  0  0  0  0  0  0  0  0  0  0  0
  147.2829  135.4235  162.7387 C   0  0  0  0  0  0  0  0  0  0  0  0
  147.4256  136.7764  162.8572 C   0  0  0  0  0  0  0  0  0  0  0  0
  147.9341  137.3077  161.7127 O   0  0  0  0  0  0  0  0  0  0  0  0
  152.8947  138.7677  158.3267 C   0  0  0  0  0  0  0  0  0  0  0  0
  152.3260  140.0623  157.9939 N   0  0  0  0  0  0  0  0  0  0  0  0
  151.7197  140.2338  156.7852 N   0  0  0  0  0  0  0  0  0  0  0  0
  151.2819  141.4549  156.7085 N   0  0  0  0  0  0  0  0  0  0  0  0
  151.6034  142.1003  157.8910 C   0  0  0  0  0  0  0  0  0  0  0  0
  151.3659  143.4187  158.3393 C   0  0  0  0  0  0  0  0  0  0  0  0
  151.8064  143.8288  159.6167 C   0  0  0  0  0  0  0  0  0  0  0  0
  151.4963  145.4494  160.1297 Cl  0  0  0  0  0  0  0  0  0  0  0  0
  152.4912  142.9220  160.4616 C   0  0  0  0  0  0  0  0  0  0  0  0
  153.0366  143.4071  162.0274 Cl  0  0  0  0  0  0  0  0  0  0  0  0
  152.7346  141.6036  160.0273 C   0  0  0  0  0  0  0  0  0  0  0  0
  152.2886  141.2163  158.7524 C   0  0  0  0  0  0  0  0  0  0  0  0
  152.9726  136.4444  158.7550 H   0  0  0  0  0  0  0  0  0  0  0  0
  152.1663  138.5771  160.3498 H   0  0  0  0  0  0  0  0  0  0  0  0
  150.0401  138.7449  159.4118 H   0  0  0  0  0  0  0  0  0  0  0  0
  150.4711  137.8795  157.9437 H   0  0  0  0  0  0  0  0  0  0  0  0
  148.2503  137.5299  159.1298 H   0  0  0  0  0  0  0  0  0  0  0  0
  148.4262  135.8081  158.7871 H   0  0  0  0  0  0  0  0  0  0  0  0
  147.7732  134.1174  160.9727 H   0  0  0  0  0  0  0  0  0  0  0  0
  146.9029  134.7552  163.4971 H   0  0  0  0  0  0  0  0  0  0  0  0
  147.2250  137.4864  163.6459 H   0  0  0  0  0  0  0  0  0  0  0  0
  153.9256  138.9127  158.6527 H   0  0  0  0  0  0  0  0  0  0  0  0
  152.9398  138.1691  157.4156 H   0  0  0  0  0  0  0  0  0  0  0  0
  150.8427  144.1147  157.7002 H   0  0  0  0  0  0  0  0  0  0  0  0
  153.2528  140.9009  160.6631 H   0  0  0  0  0  0  0  0  0  0  0  0
  1  2  1  0  0  0  0
  1 23  1  0  0  0  0
  2  3  1  0  0  0  0
  2 11  1  0  0  0  0
  2 24  1  0  0  0  0
  3  4  1  0  0  0  0
  3 25  1  0  0  0  0
  3 26  1  0  0  0  0
  4  5  1  0  0  0  0
  5  6  1  0  0  0  0
  5 27  1  0  0  0  0
  5 28  1  0  0  0  0
  6 10  1  0  0  0  0
  6  7  2  0  0  0  0
  7  8  1  0  0  0  0
  7 29  1  0  0  0  0
  8  9  2  0  0  0  0
  8 30  1  0  0  0  0
  9 10  1  0  0  0  0
  9 31  1  0  0  0  0
 11 12  1  0  0  0  0
 11 32  1  0  0  0  0
 11 33  1  0  0  0  0
 12 22  1  0  0  0  0
 12 13  1  0  0  0  0
 13 14  2  0  0  0  0
 14 15  1  0  0  0  0
 15 22  2  0  0  0  0
 15 16  1  0  0  0  0
 16 17  2  0  0  0  0
 16 34  1  0  0  0  0
 17 18  1  0  0  0  0
 17 19  1  0  0  0  0
 19 20  1  0  0  0  0
 19 21  2  0  0  0  0
 21 22  1  0  0  0  0
 21 35  1  0  0  0  0
M  END
> <s_m_source_file>
AV-unprocessed.smi

> <i_m_source_file_index>
3021

> <i_lp_mmshare_version>
43012

> <i_f3d_flags>
0

> <s_epik_input>
W2NIXTFjKENsKWMoQ2wpW2NIXWMoYzEyKW4obm4yKVtDSDJdW0NASF0oW09IXSlbQ0gyXU9bQ0gyXWMzW2NIXVtjSF1bY0hdbzM=

> <s_epik_cmdline>
J2VwaWtfcHl0aG9uJywgJy1waCcsICc3LjAnLCAnLXRuJywgJzgnLCAnLW1hJywgJzIwMCcsICctbWV0YWxfYmluZGluZycsICctaW1hZScsICc8aW5maWxlLm1hZT4nLCAnLW9tYWUnLCAnPG91dGZpbGUubWFlPic=

> <r_lp_tautomer_probability>
1

> <r_epik_Ionization_Penalty>
6.1367e-06

> <r_epik_Ionization_Penalty_Charging>
0

> <r_epik_Ionization_Penalty_Neutral>
6.1367e-06

> <r_epik_State_Penalty>
-0

> <r_epik_Charging_Adjusted_Penalty>
0

> <i_epik_Tot_Q>
0

> <i_epik_Tot_abs_Q>
0

> <r_epik_Metal_State_Penalty>
-0

> <b_epik_Metal_Only>
0

> <s_lp_Force_Field>
OPLS_2005

> <r_lp_Energy>
8.1305

> <b_lp_Chiralities_Consistent>
1

> <s_lp_Variant>
AV-unprocessed.smi:3021-1

> <Gold.Version>
5.8.1

> <Gold.Id.Protein>
6NUR|6NUR_protein|mol2

> <Gold.PLP.Fitness>
57.4602

> <Gold.PLP.PLP>
-51.4440

> <Gold.PLP.part.hbond>
-4.0000

> <Gold.PLP.part.metal>
0.0000

> <Gold.PLP.part.buried>
-6.4489

> <Gold.PLP.part.nonpolar>
-39.7877

> <Gold.PLP.part.repulsive>
0.0410

> <Gold.PLP.ligand.clash>
0.0000

> <Gold.PLP.ligand.torsion>
1.1535

> <Gold.PLP.Chemscore.Hbond>
2.7087

> <Gold.PLP.Chemscore.CHOScore>
0.0000

> <Gold.PLP.Chemscore.Metal>
0.0000

> <Gold.Chemscore.Hbonds>
donor molecule, donor type, donor heavy atom, donor atom, acceptor molecule, acceptor atom, score
      P1  H  6896  6908       L1     4  1.00
      P1  H  6931  6943       L1    10  0.81
      P1  H  6934  6947       L1    10  0.59

> <Gold.PLP.Chemscore.Internal.Correction>
0.1972

> <Gold.Rescore>
     Score         DG    S(hbond)    S(metal)    S(lipo)     H(rot)  DE(clash)    DE(int)     intcor
     21.89     -23.32       2.47        0.00     136.03       2.46       0.26       1.17       ----

> <Gold.Chemscore.Fitness>
21.8949

> <Gold.Chemscore.DG>
-23.3248

> <Gold.Chemscore.ZeroCoef>
-5.4800

> <Gold.Chemscore.Hbond>
2.4668

> <Gold.Chemscore.Metal>
0.0000

> <Gold.Chemscore.Lipo>
136.0278

> <Gold.Chemscore.Internal_Hbond>
0.0000

> <Gold.Chemscore.DEClash>
0.2617

> <Gold.Chemscore.DEInternal>
1.1682

> <Gold.Chemscore.Rot>
2.4647

> <Gold.Chemscore.Internal.Correction>
   9.000000E+99

> <Gold.Chemscore.Hbonds>
donor molecule, donor type, donor heavy atom, donor atom, acceptor molecule, acceptor atom, score
      P1  H  6896  6908       L1     4  0.78
      P1  H  6931  6943       L1    10  0.67
      P1  H  6934  6947       L1    10  0.51

> <Gold.Chemscore.Hbond.Weighted>
-8.2392

> <Gold.Chemscore.Metal.Weighted>
-0.0000

> <Gold.Chemscore.Lipo.Weighted>
-15.9152

> <Gold.Chemscore.Internal_Hbond.Weighted>
0.0000

> <Gold.Chemscore.DEClash.Weighted>
0.2617

> <Gold.Chemscore.DEInternal.Weighted>
1.1682

> <Gold.Chemscore.Rot.Weighted>
6.3097

> <Gold.Chemscore.Internal.Correction.Weighted>
   9.000000E+99

> <Gold.Protein.RotatedTorsions>
[ 6907 6896 6895 6894 ] final -162.35 input  -60.11 | X-H torsion
[ 7974 7965 7964 7962 ] final -126.98 input  175.53 | X-H torsion
[ 8008 7997 7996 7995 ] final  -54.25 input   59.86 | X-H torsion
[ 10167 10162 10161 10158 ] final  163.87 input  -65.29 | X-H torsion
[ 10718 10713 10712 10709 ] final  -74.31 input   66.30 | X-H torsion
[ 10763 10752 10751 10750 ] final -140.82 input  -60.55 | X-H torsion
[ 11005 11000 10999 10996 ] final   27.26 input  -57.11 | X-H torsion

> <Gold.Protein.ActiveResidues>
 VAL166  LYS551  ARG553  GLY616  TRP617  ASP618  TYR619  PRO620  LYS621  CYS622 
 ASP623  PHE694  ASN695  SER759  ASP760  ASP761  ALA762  ILE779  LEU786  VAL792 
 PHE793  MET794  SER795  GLU796  ALA797  LYS798  CYS799  TRP800  GLU811  SER814 

> <Gold.Protein.RotatedAtoms>
  151.3789  133.3828  159.2707 H   0  0  0  0  0  0  0  0  0  0  0  0  # atno 6907 bound_to 6896
  150.9593  134.8984  159.7731 H   0  0  0  0  0  0  0  0  0  0  0  0  # atno 6908 bound_to 6896
  152.5143  134.3748  159.9383 H   0  0  0  0  0  0  0  0  0  0  0  0  # atno 6909 bound_to 6896
  144.9817  140.7647  143.4608 H   0  0  0  0  0  0  0  0  0  0  0  0  # atno 7974 bound_to 7965
  154.4157  140.1180  156.5286 H   0  0  0  0  0  0  0  0  0  0  0  0  # atno 8008 bound_to 7997
  155.6629  140.3496  155.4770 H   0  0  0  0  0  0  0  0  0  0  0  0  # atno 8009 bound_to 7997
  155.9698  140.1139  157.0812 H   0  0  0  0  0  0  0  0  0  0  0  0  # atno 8010 bound_to 7997
  139.4880  144.4293  151.9090 H   0  0  0  0  0  0  0  0  0  0  0  0  # atno 10167 bound_to 10162
  156.0247  130.4414  150.2873 H   0  0  0  0  0  0  0  0  0  0  0  0  # atno 10718 bound_to 10713
  154.8566  135.3542  154.5768 H   0  0  0  0  0  0  0  0  0  0  0  0  # atno 10763 bound_to 10752
  153.6380  135.6999  153.5256 H   0  0  0  0  0  0  0  0  0  0  0  0  # atno 10764 bound_to 10752
  153.2994  135.4211  155.1198 H   0  0  0  0  0  0  0  0  0  0  0  0  # atno 10765 bound_to 10752
  140.3282  134.2468  155.7706 H   0  0  0  0  0  0  0  0  0  0  0  0  # atno 11005 bound_to 11000
  145.2411  139.2072  143.4992 LP  0  0  0  0  0  0  0  0  0  0  0  0  # atno 17320 bound_to 7965
  146.3410  140.2306  142.8593 LP  0  0  0  0  0  0  0  0  0  0  0  0  # atno 17321 bound_to 7965
  140.3741  144.2819  150.5916 LP  0  0  0  0  0  0  0  0  0  0  0  0  # atno 17342 bound_to 10162
  140.5293  143.2247  151.8265 LP  0  0  0  0  0  0  0  0  0  0  0  0  # atno 17343 bound_to 10162
  157.0977  131.0187  151.3097 LP  0  0  0  0  0  0  0  0  0  0  0  0  # atno 17370 bound_to 10713
  157.4805  130.7762  149.7409 LP  0  0  0  0  0  0  0  0  0  0  0  0  # atno 17371 bound_to 10713
  141.2070  133.7818  157.0144 LP  0  0  0  0  0  0  0  0  0  0  0  0  # atno 17394 bound_to 11000
  140.0884  134.9607  157.1736 LP  0  0  0  0  0  0  0  0  0  0  0  0  # atno 17395 bound_to 11000

$$$$
