AV-unprocessed.smi:2090|AV-procd|sdf|8532|dock5
  -GOLD-   2272011253D 1   1.00000     0.00000
 Structure written by MMmdl.
 42 43  0  0  0  0  0  0  0  0  2 V2000
  152.6068  138.4080  158.0059 C   0  0  0  0  0  0  0  0  0  0  0  0
  152.0250  138.7682  156.6822 C   0  0  0  0  0  0  0  0  0  0  0  0
  150.8177  138.5118  156.0959 C   0  0  0  0  0  0  0  0  0  0  0  0
  150.9317  139.1561  154.8355 C   0  0  0  0  0  0  0  0  0  0  0  0
  149.8601  139.1340  153.9068 N   0  0  0  0  0  0  0  0  0  0  0  0
  148.6171  138.6636  154.1051 C   0  0  0  0  0  0  0  0  0  0  0  0
  148.1940  138.1973  155.1634 O   0  0  0  0  0  0  0  0  0  0  0  0
  147.8743  138.7555  152.9923 N   0  0  0  0  0  0  0  0  0  0  0  0
  146.4894  138.3119  152.8799 C   0  0  0  0  0  0  0  0  0  0  0  0
  146.2890  136.9236  153.5188 C   0  0  0  0  0  0  0  0  0  0  0  0
  146.1876  135.8417  152.5075 N   0  3  2  0  0  0  0  0  0  0  0  0
  145.0412  136.0456  151.5843 C   0  0  0  0  0  0  0  0  0  0  0  0
  145.0356  134.9943  150.4621 C   0  0  0  0  0  0  0  0  0  0  0  0
  145.0094  133.5680  151.0353 C   0  0  1  0  0  0  0  0  0  0  0  0
  145.0286  132.5077  149.9255 C   0  0  0  0  0  0  0  0  0  0  0  0
  146.1855  133.3951  152.0108 C   0  0  0  0  0  0  0  0  0  0  0  0
  146.1707  134.4786  153.1023 C   0  0  0  0  0  0  0  0  0  0  0  0
  152.1039  139.7482  154.6656 N   0  0  0  0  0  0  0  0  0  0  0  0
  152.8112  139.5019  155.8482 O   0  0  0  0  0  0  0  0  0  0  0  0
  151.8444  137.9966  158.6675 H   0  0  0  0  0  0  0  0  0  0  0  0
  153.0374  139.2843  158.4911 H   0  0  0  0  0  0  0  0  0  0  0  0
  153.3938  137.6628  157.8915 H   0  0  0  0  0  0  0  0  0  0  0  0
  149.9879  137.9563  156.5073 H   0  0  0  0  0  0  0  0  0  0  0  0
  150.0695  139.4969  152.9888 H   0  0  0  0  0  0  0  0  0  0  0  0
  148.2960  139.1557  152.1668 H   0  0  0  0  0  0  0  0  0  0  0  0
  145.8260  139.0453  153.3415 H   0  0  0  0  0  0  0  0  0  0  0  0
  146.2421  138.2926  151.8193 H   0  0  0  0  0  0  0  0  0  0  0  0
  147.0924  136.7004  154.2227 H   0  0  0  0  0  0  0  0  0  0  0  0
  145.3676  136.9444  154.1027 H   0  0  0  0  0  0  0  0  0  0  0  0
  144.1069  136.0029  152.1467 H   0  0  0  0  0  0  0  0  0  0  0  0
  145.0974  137.0394  151.1383 H   0  0  0  0  0  0  0  0  0  0  0  0
  144.1720  135.1537  149.8154 H   0  0  0  0  0  0  0  0  0  0  0  0
  145.9186  135.1266  149.8350 H   0  0  0  0  0  0  0  0  0  0  0  0
  144.0816  133.4438  151.5958 H   0  0  0  0  0  0  0  0  0  0  0  0
  145.9374  132.5741  149.3265 H   0  0  0  0  0  0  0  0  0  0  0  0
  144.1781  132.6274  149.2538 H   0  0  0  0  0  0  0  0  0  0  0  0
  144.9783  131.5019  150.3439 H   0  0  0  0  0  0  0  0  0  0  0  0
  146.1447  132.4084  152.4735 H   0  0  0  0  0  0  0  0  0  0  0  0
  147.1295  133.4411  151.4657 H   0  0  0  0  0  0  0  0  0  0  0  0
  147.0350  134.3345  153.7492 H   0  0  0  0  0  0  0  0  0  0  0  0
  145.2853  134.3654  153.7299 H   0  0  0  0  0  0  0  0  0  0  0  0
  147.0193  135.9063  151.9378 H   0  0  0  0  0  0  0  0  0  0  0  0
  1  2  1  0  0  0  0
  1 20  1  0  0  0  0
  1 21  1  0  0  0  0
  1 22  1  0  0  0  0
  2 19  1  0  0  0  0
  2  3  2  0  0  0  0
  3  4  1  0  0  0  0
  3 23  1  0  0  0  0
  4  5  1  0  0  0  0
  4 18  2  0  0  0  0
  5  6  1  0  0  0  0
  5 24  1  0  0  0  0
  6  7  2  0  0  0  0
  6  8  1  0  0  0  0
  8  9  1  0  0  0  0
  8 25  1  0  0  0  0
  9 10  1  0  0  0  0
  9 26  1  0  0  0  0
  9 27  1  0  0  0  0
 10 11  1  0  0  0  0
 10 28  1  0  0  0  0
 10 29  1  0  0  0  0
 11 17  1  0  0  0  0
 11 12  1  0  0  0  0
 11 42  1  0  0  0  0
 12 13  1  0  0  0  0
 12 30  1  0  0  0  0
 12 31  1  0  0  0  0
 13 14  1  0  0  0  0
 13 32  1  0  0  0  0
 13 33  1  0  0  0  0
 14 15  1  0  0  0  0
 14 16  1  0  0  0  0
 14 34  1  0  0  0  0
 15 35  1  0  0  0  0
 15 36  1  0  0  0  0
 15 37  1  0  0  0  0
 16 17  1  0  0  0  0
 16 38  1  0  0  0  0
 16 39  1  0  0  0  0
 17 40  1  0  0  0  0
 17 41  1  0  0  0  0
 18 19  1  0  0  0  0
M  CHG  1  11   1
M  END
> <s_m_source_file>
AV-unprocessed.smi

> <i_m_source_file_index>
2090

> <i_lp_mmshare_version>
43012

> <i_f3d_flags>
0

> <s_epik_input>
W0NIM11jMVtjSF1jKG5vMSlbTkhdQyg9TylbTkhdW0NIMl1bQ0gyXU4yW0NIMl1bQ0gyXVtDSF0oW0NIM10pW0NIMl1bQ0gyXTI=

> <s_epik_cmdline>
J2VwaWtfcHl0aG9uJywgJy1waCcsICc3LjAnLCAnLXRuJywgJzgnLCAnLW1hJywgJzIwMCcsICctbWV0YWxfYmluZGluZycsICctaW1hZScsICc8aW5maWxlLm1hZT4nLCAnLW9tYWUnLCAnPG91dGZpbGUubWFlPic=

> <r_epik_Ionization_Penalty>
0.00176265

> <r_epik_Ionization_Penalty_Charging>
0.00172695

> <r_epik_Ionization_Penalty_Neutral>
3.56992e-05

> <r_epik_State_Penalty>
0.00116803

> <r_epik_Charging_Adjusted_Penalty>
0.00289498

> <i_epik_Tot_Q>
1

> <i_epik_Tot_abs_Q>
1

> <r_epik_Metal_State_Penalty>
0.0215312

> <b_epik_Metal_Only>
0

> <s_lp_Force_Field>
OPLS_2005

> <r_lp_Energy>
12.7246

> <b_lp_Chiralities_Consistent>
1

> <s_lp_Variant>
AV-unprocessed.smi:2090-1

> <Gold.Version>
5.8.1

> <Gold.Id.Protein>
6NUR|6NUR_protein|mol2

> <Gold.PLP.Fitness>
46.5958

> <Gold.PLP.PLP>
-29.9348

> <Gold.PLP.part.hbond>
-5.8754

> <Gold.PLP.part.metal>
0.0000

> <Gold.PLP.part.buried>
-3.3828

> <Gold.PLP.part.nonpolar>
-20.9417

> <Gold.PLP.part.repulsive>
0.3013

> <Gold.PLP.ligand.clash>
0.0000

> <Gold.PLP.ligand.torsion>
0.4297

> <Gold.PLP.Chemscore.Hbond>
5.8320

> <Gold.PLP.Chemscore.CHOScore>
0.0000

> <Gold.PLP.Chemscore.Metal>
0.0000

> <Gold.Chemscore.Hbonds>
donor molecule, donor type, donor heavy atom, donor atom, acceptor molecule, acceptor atom, score
      L1  H     5    24       P1  7957  1.00
      L1  H     8    25       P1  7957  1.00
      L1  H    11    42       P1  7948  1.95
      P1  H  7989  7998       L1    18  0.78
      P1  H  7997  8008       L1    19  1.00

> <Gold.PLP.Chemscore.Internal.Correction>
0.0243

> <Gold.Rescore>
     Score         DG    S(hbond)    S(metal)    S(lipo)     H(rot)  DE(clash)    DE(int)     intcor
     19.67     -22.89       4.38        0.00      57.99       1.57       0.02       3.20       ----

> <Gold.Chemscore.Fitness>
19.6656

> <Gold.Chemscore.DG>
-22.8869

> <Gold.Chemscore.ZeroCoef>
-5.4800

> <Gold.Chemscore.Hbond>
4.3834

> <Gold.Chemscore.Metal>
0.0000

> <Gold.Chemscore.Lipo>
57.9911

> <Gold.Chemscore.Internal_Hbond>
0.0000

> <Gold.Chemscore.DEClash>
0.0234

> <Gold.Chemscore.DEInternal>
3.1980

> <Gold.Chemscore.Rot>
1.5697

> <Gold.Chemscore.Internal.Correction>
   9.000000E+99

> <Gold.Chemscore.Hbonds>
donor molecule, donor type, donor heavy atom, donor atom, acceptor molecule, acceptor atom, score
      L1  H     5    24       P1  7957  0.95
      L1  H     8    25       P1  7957  0.99
      L1  H    11    42       P1  7948  0.93
      P1  H  7989  7998       L1    18  0.18
      P1  H  7997  8008       L1    19  1.00

> <Gold.Chemscore.Hbond.Weighted>
-14.6404

> <Gold.Chemscore.Metal.Weighted>
-0.0000

> <Gold.Chemscore.Lipo.Weighted>
-6.7850

> <Gold.Chemscore.Internal_Hbond.Weighted>
0.0000

> <Gold.Chemscore.DEClash.Weighted>
0.0234

> <Gold.Chemscore.DEInternal.Weighted>
3.1980

> <Gold.Chemscore.Rot.Weighted>
4.0185

> <Gold.Chemscore.Internal.Correction.Weighted>
   9.000000E+99

> <Gold.Protein.RotatedTorsions>
[ 6907 6896 6895 6894 ] final  -59.69 input  -60.11 | X-H torsion
[ 7974 7965 7964 7962 ] final -133.69 input  175.53 | X-H torsion
[ 8008 7997 7996 7995 ] final  -39.18 input   59.86 | X-H torsion
[ 10167 10162 10161 10158 ] final  -86.25 input  -65.29 | X-H torsion
[ 10718 10713 10712 10709 ] final -116.51 input   66.30 | X-H torsion
[ 10763 10752 10751 10750 ] final  -89.74 input  -60.55 | X-H torsion
[ 11005 11000 10999 10996 ] final -168.89 input  -57.11 | X-H torsion

> <Gold.Protein.ActiveResidues>
 VAL166  LYS551  ARG553  GLY616  TRP617  ASP618  TYR619  PRO620  LYS621  CYS622 
 ASP623  PHE694  ASN695  SER759  ASP760  ASP761  ALA762  ILE779  LEU786  VAL792 
 PHE793  MET794  SER795  GLU796  ALA797  LYS798  CYS799  TRP800  GLU811  SER814 

> <Gold.Protein.RotatedAtoms>
  150.7911  134.6936  159.6509 H   0  0  0  0  0  0  0  0  0  0  0  0  # atno 6907 bound_to 6896
  152.4017  134.6272  160.0076 H   0  0  0  0  0  0  0  0  0  0  0  0  # atno 6908 bound_to 6896
  151.6541  133.3283  159.3195 H   0  0  0  0  0  0  0  0  0  0  0  0  # atno 6909 bound_to 6896
  144.9171  140.6967  143.4989 H   0  0  0  0  0  0  0  0  0  0  0  0  # atno 7974 bound_to 7965
  154.4026  140.1558  156.2820 H   0  0  0  0  0  0  0  0  0  0  0  0  # atno 8008 bound_to 7997
  155.8861  140.3441  155.5900 H   0  0  0  0  0  0  0  0  0  0  0  0  # atno 8009 bound_to 7997
  155.7612  140.0818  157.2145 H   0  0  0  0  0  0  0  0  0  0  0  0  # atno 8010 bound_to 7997
  140.3960  143.2684  151.9204 H   0  0  0  0  0  0  0  0  0  0  0  0  # atno 10167 bound_to 10162
  156.0968  130.6139  150.9044 H   0  0  0  0  0  0  0  0  0  0  0  0  # atno 10718 bound_to 10713
  154.6585  135.5329  153.7988 H   0  0  0  0  0  0  0  0  0  0  0  0  # atno 10763 bound_to 10752
  153.0428  135.6500  154.0908 H   0  0  0  0  0  0  0  0  0  0  0  0  # atno 10764 bound_to 10752
  154.0819  135.2946  155.3268 H   0  0  0  0  0  0  0  0  0  0  0  0  # atno 10765 bound_to 10752
  140.5369  134.5561  157.5089 H   0  0  0  0  0  0  0  0  0  0  0  0  # atno 11005 bound_to 11000
  145.3358  139.1746  143.4512 LP  0  0  0  0  0  0  0  0  0  0  0  0  # atno 17320 bound_to 7965
  146.3187  140.3393  142.8646 LP  0  0  0  0  0  0  0  0  0  0  0  0  # atno 17321 bound_to 7965
  139.4786  144.5681  151.8132 LP  0  0  0  0  0  0  0  0  0  0  0  0  # atno 17342 bound_to 10162
  140.4790  144.1477  150.5929 LP  0  0  0  0  0  0  0  0  0  0  0  0  # atno 17343 bound_to 10162
  157.6131  131.0935  150.8759 LP  0  0  0  0  0  0  0  0  0  0  0  0  # atno 17370 bound_to 10713
  156.8895  130.5208  149.5287 LP  0  0  0  0  0  0  0  0  0  0  0  0  # atno 17371 bound_to 10713
  139.9525  134.7593  156.0417 LP  0  0  0  0  0  0  0  0  0  0  0  0  # atno 17394 bound_to 11000
  141.1250  133.6602  156.3312 LP  0  0  0  0  0  0  0  0  0  0  0  0  # atno 17395 bound_to 11000

$$$$
