AV-unprocessed.smi:818|AV-procd|sdf|3833|dock6
  -GOLD-   22720 1273D 1   1.00000     0.00000
 Structure written by MMmdl.
 44 45  0  0  0  0  0  0  0  0  1 V2000
  151.9023  145.4145  160.0563 C   0  0  0  0  0  0  0  0  0  0  0  0
  152.6588  144.1155  159.7539 C   0  0  0  0  0  0  0  0  0  0  0  0
  151.9792  143.3222  158.7489 N   0  0  0  0  0  0  0  0  0  0  0  0
  151.5585  142.0102  158.8379 C   0  0  0  0  0  0  0  0  0  0  0  0
  150.9849  141.7218  157.6362 C   0  0  0  0  0  0  0  0  0  0  0  0
  150.4223  140.4687  157.2884 N   0  0  0  0  0  0  0  0  0  0  0  0
  150.2691  139.9608  156.0549 C   0  0  0  0  0  0  0  0  0  0  0  0
  150.5617  140.5393  155.0083 O   0  0  0  0  0  0  0  0  0  0  0  0
  149.7460  138.7268  156.0997 N   0  0  0  0  0  0  0  0  0  0  0  0
  149.4333  137.8984  154.9360 C   0  0  1  0  0  0  0  0  0  0  0  0
  150.1587  136.5531  155.1064 C   0  0  0  0  0  0  0  0  0  0  0  0
  147.9246  137.6133  154.8542 C   0  0  0  0  0  0  0  0  0  0  0  0
  147.1632  137.9796  155.7513 O   0  0  0  0  0  0  0  0  0  0  0  0
  147.5122  136.9363  153.7717 N   0  0  0  0  0  0  0  0  0  0  0  0
  146.1336  136.5383  153.4999 C   0  0  0  0  0  0  0  0  0  0  0  0
  146.0463  135.0255  153.2207 C   0  0  0  0  0  0  0  0  0  0  0  0
  145.2178  134.8765  151.9432 C   0  0  0  0  0  0  0  0  0  0  0  0
  145.4902  136.1594  151.1643 C   0  0  0  0  0  0  0  0  0  0  0  0
  145.5826  137.2398  152.2427 C   0  0  0  0  0  0  0  0  0  0  0  0
  151.0934  142.9094  156.8585 C   0  0  0  0  0  0  0  0  0  0  0  0
  151.6973  143.8706  157.5414 N   0  0  0  0  0  0  0  0  0  0  0  0
  152.4262  146.0010  160.8112 H   0  0  0  0  0  0  0  0  0  0  0  0
  150.8994  145.2094  160.4322 H   0  0  0  0  0  0  0  0  0  0  0  0
  151.8059  146.0315  159.1624 H   0  0  0  0  0  0  0  0  0  0  0  0
  153.6654  144.3393  159.3993 H   0  0  0  0  0  0  0  0  0  0  0  0
  152.7679  143.5189  160.6608 H   0  0  0  0  0  0  0  0  0  0  0  0
  151.7030  141.4125  159.7261 H   0  0  0  0  0  0  0  0  0  0  0  0
  150.1158  139.8937  158.0593 H   0  0  0  0  0  0  0  0  0  0  0  0
  149.5290  138.3355  157.0045 H   0  0  0  0  0  0  0  0  0  0  0  0
  149.7747  138.3883  154.0218 H   0  0  0  0  0  0  0  0  0  0  0  0
  149.9730  135.8919  154.2590 H   0  0  0  0  0  0  0  0  0  0  0  0
  149.8421  136.0320  156.0112 H   0  0  0  0  0  0  0  0  0  0  0  0
  151.2376  136.6987  155.1709 H   0  0  0  0  0  0  0  0  0  0  0  0
  148.2050  136.6748  153.0852 H   0  0  0  0  0  0  0  0  0  0  0  0
  145.5038  136.7829  154.3575 H   0  0  0  0  0  0  0  0  0  0  0  0
  147.0396  134.6069  153.0495 H   0  0  0  0  0  0  0  0  0  0  0  0
  145.6083  134.4778  154.0560 H   0  0  0  0  0  0  0  0  0  0  0  0
  145.4732  133.9791  151.3793 H   0  0  0  0  0  0  0  0  0  0  0  0
  144.1583  134.8202  152.1963 H   0  0  0  0  0  0  0  0  0  0  0  0
  146.4447  136.0772  150.6424 H   0  0  0  0  0  0  0  0  0  0  0  0
  144.7206  136.3718  150.4217 H   0  0  0  0  0  0  0  0  0  0  0  0
  144.5827  137.6205  152.4555 H   0  0  0  0  0  0  0  0  0  0  0  0
  146.1849  138.0899  151.9186 H   0  0  0  0  0  0  0  0  0  0  0  0
  150.7706  143.1101  155.8480 H   0  0  0  0  0  0  0  0  0  0  0  0
  1  2  1  0  0  0  0
  1 22  1  0  0  0  0
  1 23  1  0  0  0  0
  1 24  1  0  0  0  0
  2  3  1  0  0  0  0
  2 25  1  0  0  0  0
  2 26  1  0  0  0  0
  3 21  1  0  0  0  0
  3  4  1  0  0  0  0
  4  5  2  0  0  0  0
  4 27  1  0  0  0  0
  5  6  1  0  0  0  0
  5 20  1  0  0  0  0
  6  7  1  0  0  0  0
  6 28  1  0  0  0  0
  7  8  2  0  0  0  0
  7  9  1  0  0  0  0
  9 10  1  0  0  0  0
  9 29  1  0  0  0  0
 10 11  1  0  0  0  0
 10 12  1  0  0  0  0
 10 30  1  0  0  0  0
 11 31  1  0  0  0  0
 11 32  1  0  0  0  0
 11 33  1  0  0  0  0
 12 13  2  0  0  0  0
 12 14  1  0  0  0  0
 14 15  1  0  0  0  0
 14 34  1  0  0  0  0
 15 19  1  0  0  0  0
 15 16  1  0  0  0  0
 15 35  1  0  0  0  0
 16 17  1  0  0  0  0
 16 36  1  0  0  0  0
 16 37  1  0  0  0  0
 17 18  1  0  0  0  0
 17 38  1  0  0  0  0
 17 39  1  0  0  0  0
 18 19  1  0  0  0  0
 18 40  1  0  0  0  0
 18 41  1  0  0  0  0
 19 42  1  0  0  0  0
 19 43  1  0  0  0  0
 20 21  2  0  0  0  0
 20 44  1  0  0  0  0
M  END
> <s_m_source_file>
AV-unprocessed.smi

> <i_m_source_file_index>
818

> <i_lp_mmshare_version>
43012

> <i_f3d_flags>
0

> <s_epik_input>
W0NIM11bQ0gyXW4xW2NIXWMoW2NIXW4xKVtOSF1DKD1PKVtOSF1bQ0BIXShbQ0gzXSlDKD1PKVtOSF1bQ0hdMltDSDJdW0NIMl1bQ0gyXVtDSDJdMg==

> <s_epik_cmdline>
J2VwaWtfcHl0aG9uJywgJy1waCcsICc3LjAnLCAnLXRuJywgJzgnLCAnLW1hJywgJzIwMCcsICctbWV0YWxfYmluZGluZycsICctaW1hZScsICc8aW5maWxlLm1hZT4nLCAnLW9tYWUnLCAnPG91dGZpbGUubWFlPic=

> <r_lp_tautomer_probability>
1

> <r_epik_Ionization_Penalty>
0.00015627

> <r_epik_Ionization_Penalty_Charging>
0

> <r_epik_Ionization_Penalty_Neutral>
0.00015627

> <r_epik_State_Penalty>
-0

> <r_epik_Charging_Adjusted_Penalty>
0

> <i_epik_Tot_Q>
0

> <i_epik_Tot_abs_Q>
0

> <r_epik_Metal_State_Penalty>
-0

> <b_epik_Metal_Only>
0

> <s_lp_Force_Field>
OPLS_2005

> <r_lp_Energy>
21.9602

> <b_lp_Chiralities_Consistent>
1

> <s_lp_Variant>
AV-unprocessed.smi:818-2

> <Gold.Version>
5.8.1

> <Gold.Id.Protein>
6NUR|6NUR_protein|mol2

> <Gold.PLP.Fitness>
39.5202

> <Gold.PLP.PLP>
-32.3297

> <Gold.PLP.part.hbond>
-1.7709

> <Gold.PLP.part.metal>
0.0000

> <Gold.PLP.part.buried>
-4.8052

> <Gold.PLP.part.nonpolar>
-27.1335

> <Gold.PLP.part.repulsive>
0.2486

> <Gold.PLP.ligand.clash>
0.0000

> <Gold.PLP.ligand.torsion>
0.2720

> <Gold.PLP.Chemscore.Hbond>
1.8613

> <Gold.PLP.Chemscore.CHOScore>
0.7089

> <Gold.PLP.Chemscore.Metal>
0.0000

> <Gold.Chemscore.Hbonds>
donor molecule, donor type, donor heavy atom, donor atom, acceptor molecule, acceptor atom, score
      L1  H    14    34       P1  7948  0.93
      P1  H  7989  7998       L1     8  0.99
      L1  C    20    44       P1  8028  0.70

> <Gold.PLP.Chemscore.Internal.Correction>
0.0242

> <Gold.Rescore>
     Score         DG    S(hbond)    S(metal)    S(lipo)     H(rot)  DE(clash)    DE(int)     intcor
     15.37     -16.72       1.91        0.00      78.25       1.68       0.30       1.06       ----

> <Gold.Chemscore.Fitness>
15.3679

> <Gold.Chemscore.DG>
-16.7208

> <Gold.Chemscore.ZeroCoef>
-5.4800

> <Gold.Chemscore.Hbond>
1.9144

> <Gold.Chemscore.Metal>
0.0000

> <Gold.Chemscore.Lipo>
78.2460

> <Gold.Chemscore.Internal_Hbond>
0.0000

> <Gold.Chemscore.DEClash>
0.2967

> <Gold.Chemscore.DEInternal>
1.0562

> <Gold.Chemscore.Rot>
1.6828

> <Gold.Chemscore.Internal.Correction>
   9.000000E+99

> <Gold.Chemscore.Hbonds>
donor molecule, donor type, donor heavy atom, donor atom, acceptor molecule, acceptor atom, score
      L1  H    14    34       P1  7948  0.89
      P1  H  7989  7998       L1     8  0.94

> <Gold.Chemscore.Hbond.Weighted>
-6.3941

> <Gold.Chemscore.Metal.Weighted>
-0.0000

> <Gold.Chemscore.Lipo.Weighted>
-9.1548

> <Gold.Chemscore.Internal_Hbond.Weighted>
0.0000

> <Gold.Chemscore.DEClash.Weighted>
0.2967

> <Gold.Chemscore.DEInternal.Weighted>
1.0562

> <Gold.Chemscore.Rot.Weighted>
4.3081

> <Gold.Chemscore.Internal.Correction.Weighted>
   9.000000E+99

> <Gold.Protein.RotatedTorsions>
[ 6907 6896 6895 6894 ] final   80.30 input  -60.11 | X-H torsion
[ 7974 7965 7964 7962 ] final  -96.68 input  175.53 | X-H torsion
[ 8008 7997 7996 7995 ] final  179.27 input   59.86 | X-H torsion
[ 10167 10162 10161 10158 ] final   83.20 input  -65.29 | X-H torsion
[ 10718 10713 10712 10709 ] final   59.43 input   66.30 | X-H torsion
[ 10763 10752 10751 10750 ] final  -84.34 input  -60.55 | X-H torsion
[ 11005 11000 10999 10996 ] final    7.60 input  -57.11 | X-H torsion

> <Gold.Protein.ActiveResidues>
 VAL166  LYS551  ARG553  GLY616  TRP617  ASP618  TYR619  PRO620  LYS621  CYS622 
 ASP623  PHE694  ASN695  SER759  ASP760  ASP761  ALA762  ILE779  LEU786  VAL792 
 PHE793  MET794  SER795  GLU796  ALA797  LYS798  CYS799  TRP800  GLU811  SER814 

> <Gold.Protein.RotatedAtoms>
  152.5230  134.3379  159.9206 H   0  0  0  0  0  0  0  0  0  0  0  0  # atno 6907 bound_to 6896
  151.3328  133.3987  159.2672 H   0  0  0  0  0  0  0  0  0  0  0  0  # atno 6908 bound_to 6896
  150.9866  134.9228  159.7933 H   0  0  0  0  0  0  0  0  0  0  0  0  # atno 6909 bound_to 6896
  145.3436  140.9464  143.2594 H   0  0  0  0  0  0  0  0  0  0  0  0  # atno 7974 bound_to 7965
  156.0452  140.1312  157.0111 H   0  0  0  0  0  0  0  0  0  0  0  0  # atno 8008 bound_to 7997
  154.4409  140.1022  156.6366 H   0  0  0  0  0  0  0  0  0  0  0  0  # atno 8009 bound_to 7997
  155.5606  140.3464  155.4492 H   0  0  0  0  0  0  0  0  0  0  0  0  # atno 8010 bound_to 7997
  139.9208  144.6214  150.8442 H   0  0  0  0  0  0  0  0  0  0  0  0  # atno 10167 bound_to 10162
  157.5675  130.8882  149.9211 H   0  0  0  0  0  0  0  0  0  0  0  0  # atno 10718 bound_to 10713
  154.5983  135.5524  153.7348 H   0  0  0  0  0  0  0  0  0  0  0  0  # atno 10763 bound_to 10752
  153.0144  135.6360  154.1751 H   0  0  0  0  0  0  0  0  0  0  0  0  # atno 10764 bound_to 10752
  154.1691  135.2893  155.3066 H   0  0  0  0  0  0  0  0  0  0  0  0  # atno 10765 bound_to 10752
  140.5464  134.0325  155.7921 H   0  0  0  0  0  0  0  0  0  0  0  0  # atno 11005 bound_to 11000
  144.8771  139.4956  143.6740 LP  0  0  0  0  0  0  0  0  0  0  0  0  # atno 17320 bound_to 7965
  146.2997  139.7388  142.9100 LP  0  0  0  0  0  0  0  0  0  0  0  0  # atno 17321 bound_to 7965
  140.7662  143.3298  151.2435 LP  0  0  0  0  0  0  0  0  0  0  0  0  # atno 17342 bound_to 10162
  139.6863  143.9768  152.2836 LP  0  0  0  0  0  0  0  0  0  0  0  0  # atno 17343 bound_to 10162
  156.0722  130.3683  150.0752 LP  0  0  0  0  0  0  0  0  0  0  0  0  # atno 17370 bound_to 10713
  156.8909  130.9588  151.3588 LP  0  0  0  0  0  0  0  0  0  0  0  0  # atno 17371 bound_to 10713
  141.1197  133.9481  157.2753 LP  0  0  0  0  0  0  0  0  0  0  0  0  # atno 17394 bound_to 11000
  139.9478  135.0181  156.8903 LP  0  0  0  0  0  0  0  0  0  0  0  0  # atno 17395 bound_to 11000

$$$$
