AV-unprocessed.smi:1916|AV-procd|sdf|7764|dock8
  -GOLD-   22720 9503D 1   1.00000     0.00000
 Structure written by MMmdl.
 45 47  0  0  0  0  0  0  0  0  1 V2000
  149.5707  136.9740  156.3654 O   0  0  0  0  0  0  0  0  0  0  0  0
  149.3264  137.1468  155.1707 C   0  0  0  0  0  0  0  0  0  0  0  0
  148.3743  136.4717  154.5075 N   0  0  0  0  0  0  0  0  0  0  0  0
  147.4467  135.5133  155.1050 C   0  0  0  0  0  0  0  0  0  0  0  0
  146.0806  135.4952  154.3883 C   0  0  0  0  0  0  0  0  0  0  0  0
  146.0049  134.5107  153.2322 C   0  0  0  0  0  0  0  0  0  0  0  0
  144.9179  134.5363  152.3311 C   0  0  0  0  0  0  0  0  0  0  0  0
  144.8762  133.5758  151.3021 C   0  0  0  0  0  0  0  0  0  0  0  0
  145.9180  132.6330  151.2119 C   0  0  0  0  0  0  0  0  0  0  0  0
  146.9634  132.6974  152.1548 C   0  0  0  0  0  0  0  0  0  0  0  0
  147.0144  133.6155  153.1442 N   0  0  0  0  0  0  0  0  0  0  0  0
  150.0940  138.2115  154.3717 C   0  0  2  0  0  0  0  0  0  0  0  0
  151.6087  137.9393  154.3499 C   0  0  0  0  0  0  0  0  0  0  0  0
  152.1852  139.0238  155.2454 C   0  0  0  0  0  0  0  0  0  0  0  0
  153.3644  139.0318  155.5957 O   0  0  0  0  0  0  0  0  0  0  0  0
  151.2510  139.9185  155.5980 N   0  0  0  0  0  0  0  0  0  0  0  0
  151.4692  141.0334  156.5352 C   0  0  0  0  0  0  0  0  0  0  0  0
  151.9467  140.6303  157.9454 C   0  0  0  0  0  0  0  0  0  0  0  0
  151.4341  141.7424  158.8551 C   0  0  0  0  0  0  0  0  0  0  0  0
  150.0596  142.0748  158.2806 C   0  0  0  0  0  0  0  0  0  0  0  0
  150.1945  141.8767  156.7657 C   0  0  0  0  0  0  0  0  0  0  0  0
  149.9536  139.6080  155.0100 C   0  0  0  0  0  0  0  0  0  0  0  0
  148.2465  136.6762  153.5269 H   0  0  0  0  0  0  0  0  0  0  0  0
  147.8997  134.5234  155.0494 H   0  0  0  0  0  0  0  0  0  0  0  0
  147.3092  135.7222  156.1674 H   0  0  0  0  0  0  0  0  0  0  0  0
  145.2956  135.2576  155.1074 H   0  0  0  0  0  0  0  0  0  0  0  0
  145.8517  136.4937  154.0140 H   0  0  0  0  0  0  0  0  0  0  0  0
  144.1259  135.2633  152.4342 H   0  0  0  0  0  0  0  0  0  0  0  0
  144.0562  133.5578  150.5995 H   0  0  0  0  0  0  0  0  0  0  0  0
  145.9167  131.8791  150.4386 H   0  0  0  0  0  0  0  0  0  0  0  0
  147.7798  131.9916  152.1142 H   0  0  0  0  0  0  0  0  0  0  0  0
  149.7101  138.2338  153.3504 H   0  0  0  0  0  0  0  0  0  0  0  0
  151.8847  136.9487  154.7150 H   0  0  0  0  0  0  0  0  0  0  0  0
  152.0129  138.0503  153.3432 H   0  0  0  0  0  0  0  0  0  0  0  0
  152.2328  141.6851  156.1062 H   0  0  0  0  0  0  0  0  0  0  0  0
  151.4864  139.6995  158.2768 H   0  0  0  0  0  0  0  0  0  0  0  0
  153.0286  140.5052  158.0019 H   0  0  0  0  0  0  0  0  0  0  0  0
  151.3904  141.4425  159.9026 H   0  0  0  0  0  0  0  0  0  0  0  0
  152.0881  142.6123  158.7812 H   0  0  0  0  0  0  0  0  0  0  0  0
  149.3228  141.3736  158.6751 H   0  0  0  0  0  0  0  0  0  0  0  0
  149.7302  143.0805  158.5429 H   0  0  0  0  0  0  0  0  0  0  0  0
  150.2887  142.8377  156.2586 H   0  0  0  0  0  0  0  0  0  0  0  0
  149.2979  141.3952  156.3724 H   0  0  0  0  0  0  0  0  0  0  0  0
  149.7139  140.3529  154.2500 H   0  0  0  0  0  0  0  0  0  0  0  0
  149.1660  139.6376  155.7640 H   0  0  0  0  0  0  0  0  0  0  0  0
  1  2  2  0  0  0  0
  2  3  1  0  0  0  0
  2 12  1  0  0  0  0
  3  4  1  0  0  0  0
  3 23  1  0  0  0  0
  4  5  1  0  0  0  0
  4 24  1  0  0  0  0
  4 25  1  0  0  0  0
  5  6  1  0  0  0  0
  5 26  1  0  0  0  0
  5 27  1  0  0  0  0
  6 11  1  0  0  0  0
  6  7  2  0  0  0  0
  7  8  1  0  0  0  0
  7 28  1  0  0  0  0
  8  9  2  0  0  0  0
  8 29  1  0  0  0  0
  9 10  1  0  0  0  0
  9 30  1  0  0  0  0
 10 11  2  0  0  0  0
 10 31  1  0  0  0  0
 12 22  1  0  0  0  0
 12 13  1  0  0  0  0
 12 32  1  0  0  0  0
 13 14  1  0  0  0  0
 13 33  1  0  0  0  0
 13 34  1  0  0  0  0
 14 15  2  0  0  0  0
 14 16  1  0  0  0  0
 16 17  1  0  0  0  0
 16 22  1  0  0  0  0
 17 21  1  0  0  0  0
 17 18  1  0  0  0  0
 17 35  1  0  0  0  0
 18 19  1  0  0  0  0
 18 36  1  0  0  0  0
 18 37  1  0  0  0  0
 19 20  1  0  0  0  0
 19 38  1  0  0  0  0
 19 39  1  0  0  0  0
 20 21  1  0  0  0  0
 20 40  1  0  0  0  0
 20 41  1  0  0  0  0
 21 42  1  0  0  0  0
 21 43  1  0  0  0  0
 22 44  1  0  0  0  0
 22 45  1  0  0  0  0
M  END
> <s_m_source_file>
AV-unprocessed.smi

> <i_m_source_file_index>
1916

> <i_lp_mmshare_version>
43012

> <i_f3d_flags>
0

> <s_epik_input>
W0NIMl0xW0NIMl1bQ0gyXVtDSDJdW0NIXTFOKFtDSDJdMilDKD1PKVtDSDJdW0NASF0yQyg9TylbTkhdW0NIMl1bQ0gyXWMzW2NIXVtjSF1bY0hdW2NIXW4z

> <s_epik_cmdline>
J2VwaWtfcHl0aG9uJywgJy1waCcsICc3LjAnLCAnLXRuJywgJzgnLCAnLW1hJywgJzIwMCcsICctbWV0YWxfYmluZGluZycsICctaW1hZScsICc8aW5maWxlLm1hZT4nLCAnLW9tYWUnLCAnPG91dGZpbGUubWFlPic=

> <r_epik_Ionization_Penalty>
0.0252359

> <r_epik_Ionization_Penalty_Charging>
0

> <r_epik_Ionization_Penalty_Neutral>
0.0252359

> <r_epik_State_Penalty>
0.020532

> <r_epik_Charging_Adjusted_Penalty>
0.020532

> <i_epik_Tot_Q>
0

> <i_epik_Tot_abs_Q>
0

> <r_epik_Metal_State_Penalty>
0.0196901

> <b_epik_Metal_Only>
0

> <s_lp_Force_Field>
OPLS_2005

> <r_lp_Energy>
33.617

> <b_lp_Chiralities_Consistent>
1

> <s_lp_Variant>
AV-unprocessed.smi:1916-1

> <Gold.Version>
5.8.1

> <Gold.Id.Protein>
6NUR|6NUR_protein|mol2

> <Gold.PLP.Fitness>
45.1948

> <Gold.PLP.PLP>
-38.0834

> <Gold.PLP.part.hbond>
-1.8467

> <Gold.PLP.part.metal>
0.0000

> <Gold.PLP.part.buried>
-5.5313

> <Gold.PLP.part.nonpolar>
-31.8828

> <Gold.PLP.part.repulsive>
0.3909

> <Gold.PLP.ligand.clash>
0.0000

> <Gold.PLP.ligand.torsion>
0.5101

> <Gold.PLP.Chemscore.Hbond>
1.6880

> <Gold.PLP.Chemscore.CHOScore>
1.0000

> <Gold.PLP.Chemscore.Metal>
0.0000

> <Gold.Chemscore.Hbonds>
donor molecule, donor type, donor heavy atom, donor atom, acceptor molecule, acceptor atom, score
      L1  H     3    23       P1  7948  0.80
      P1  H  7997  8008       L1    15  1.00
      L1  C    10    31       P1 10747  1.00

> <Gold.PLP.Chemscore.Internal.Correction>
0.0677

> <Gold.Rescore>
     Score         DG    S(hbond)    S(metal)    S(lipo)     H(rot)  DE(clash)    DE(int)     intcor
     16.89     -17.59       1.88        0.00      85.05       1.61       0.19       0.51       ----

> <Gold.Chemscore.Fitness>
16.8940

> <Gold.Chemscore.DG>
-17.5936

> <Gold.Chemscore.ZeroCoef>
-5.4800

> <Gold.Chemscore.Hbond>
1.8823

> <Gold.Chemscore.Metal>
0.0000

> <Gold.Chemscore.Lipo>
85.0509

> <Gold.Chemscore.Internal_Hbond>
0.0000

> <Gold.Chemscore.DEClash>
0.1890

> <Gold.Chemscore.DEInternal>
0.5106

> <Gold.Chemscore.Rot>
1.6110

> <Gold.Chemscore.Internal.Correction>
   9.000000E+99

> <Gold.Chemscore.Hbonds>
donor molecule, donor type, donor heavy atom, donor atom, acceptor molecule, acceptor atom, score
      L1  H     3    23       P1  7948  0.80
      P1  H  7997  8008       L1    15  0.95

> <Gold.Chemscore.Hbond.Weighted>
-6.2870

> <Gold.Chemscore.Metal.Weighted>
-0.0000

> <Gold.Chemscore.Lipo.Weighted>
-9.9510

> <Gold.Chemscore.Internal_Hbond.Weighted>
0.0000

> <Gold.Chemscore.DEClash.Weighted>
0.1890

> <Gold.Chemscore.DEInternal.Weighted>
0.5106

> <Gold.Chemscore.Rot.Weighted>
4.1243

> <Gold.Chemscore.Internal.Correction.Weighted>
   9.000000E+99

> <Gold.Protein.RotatedTorsions>
[ 6907 6896 6895 6894 ] final  -51.11 input  -60.11 | X-H torsion
[ 7974 7965 7964 7962 ] final -128.64 input  175.53 | X-H torsion
[ 8008 7997 7996 7995 ] final  -32.36 input   59.86 | X-H torsion
[ 10167 10162 10161 10158 ] final   80.07 input  -65.29 | X-H torsion
[ 10718 10713 10712 10709 ] final  -70.62 input   66.30 | X-H torsion
[ 10763 10752 10751 10750 ] final   83.33 input  -60.55 | X-H torsion
[ 11005 11000 10999 10996 ] final   27.79 input  -57.11 | X-H torsion

> <Gold.Protein.ActiveResidues>
 VAL166  LYS551  ARG553  GLY616  TRP617  ASP618  TYR619  PRO620  LYS621  CYS622 
 ASP623  PHE694  ASN695  SER759  ASP760  ASP761  ALA762  ILE779  LEU786  VAL792 
 PHE793  MET794  SER795  GLU796  ALA797  LYS798  CYS799  TRP800  GLU811  SER814 

> <Gold.Protein.RotatedAtoms>
  150.8642  134.8002  159.7105 H   0  0  0  0  0  0  0  0  0  0  0  0  # atno 6907 bound_to 6896
  152.4669  134.5050  159.9746 H   0  0  0  0  0  0  0  0  0  0  0  0  # atno 6908 bound_to 6896
  151.5149  133.3439  159.2927 H   0  0  0  0  0  0  0  0  0  0  0  0  # atno 6909 bound_to 6896
  144.9651  140.7487  143.4705 H   0  0  0  0  0  0  0  0  0  0  0  0  # atno 7974 bound_to 7965
  154.4182  140.1739  156.1715 H   0  0  0  0  0  0  0  0  0  0  0  0  # atno 8008 bound_to 7997
  155.9756  140.3382  155.6592 H   0  0  0  0  0  0  0  0  0  0  0  0  # atno 8009 bound_to 7997
  155.6567  140.0696  157.2559 H   0  0  0  0  0  0  0  0  0  0  0  0  # atno 8010 bound_to 7997
  139.9536  144.6009  150.8137 H   0  0  0  0  0  0  0  0  0  0  0  0  # atno 10167 bound_to 10162
  156.0399  130.4335  150.2323 H   0  0  0  0  0  0  0  0  0  0  0  0  # atno 10718 bound_to 10713
  153.1281  135.4695  154.9305 H   0  0  0  0  0  0  0  0  0  0  0  0  # atno 10763 bound_to 10752
  154.7639  135.3139  154.8327 H   0  0  0  0  0  0  0  0  0  0  0  0  # atno 10764 bound_to 10752
  153.8876  135.6888  153.4816 H   0  0  0  0  0  0  0  0  0  0  0  0  # atno 10765 bound_to 10752
  140.3225  134.2527  155.7715 H   0  0  0  0  0  0  0  0  0  0  0  0  # atno 11005 bound_to 11000
  145.2642  139.1980  143.4876 LP  0  0  0  0  0  0  0  0  0  0  0  0  # atno 17320 bound_to 7965
  146.3365  140.2577  142.8601 LP  0  0  0  0  0  0  0  0  0  0  0  0  # atno 17321 bound_to 7965
  140.7575  143.3088  151.2896 LP  0  0  0  0  0  0  0  0  0  0  0  0  # atno 17342 bound_to 10162
  139.6609  144.0191  152.2691 LP  0  0  0  0  0  0  0  0  0  0  0  0  # atno 17343 bound_to 10162
  157.0419  131.0037  151.3281 LP  0  0  0  0  0  0  0  0  0  0  0  0  # atno 17370 bound_to 10713
  157.5203  130.7994  149.7802 LP  0  0  0  0  0  0  0  0  0  0  0  0  # atno 17371 bound_to 10713
  141.2083  133.7781  157.0067 LP  0  0  0  0  0  0  0  0  0  0  0  0  # atno 17394 bound_to 11000
  140.0929  134.9581  157.1805 LP  0  0  0  0  0  0  0  0  0  0  0  0  # atno 17395 bound_to 11000

$$$$
