AV-unprocessed.smi:3032|AV-procd|sdf|11570|dock5
  -GOLD-   2272016533D 1   1.00000     0.00000
 Structure written by MMmdl.
 36 37  0  0  0  0  0  0  0  0  2 V2000
  151.4909  144.9614  159.0957 C   0  0  0  0  0  0  0  0  0  0  0  0
  152.4106  144.0806  159.9533 C   0  0  1  0  0  0  0  0  0  0  0  0
  151.9328  144.0214  161.4170 C   0  0  0  0  0  0  0  0  0  0  0  0
  152.8491  143.1338  162.2745 C   0  0  0  0  0  0  0  0  0  0  0  0
  152.9714  141.7211  161.6817 C   0  0  0  0  0  0  0  0  0  0  0  0
  153.4652  141.7719  160.2213 C   0  0  1  0  0  0  0  0  0  0  0  0
  153.5707  140.3650  159.6187 C   0  0  0  0  0  0  0  0  0  0  0  0
  154.6530  139.9475  159.2055 O   0  0  0  0  0  0  0  0  0  0  0  0
  152.4390  139.6436  159.5962 N   0  0  0  0  0  0  0  0  0  0  0  0
  152.3316  138.2362  159.2204 C   0  0  0  0  0  0  0  0  0  0  0  0
  152.9324  137.9768  157.8271 C   0  0  0  0  0  0  0  0  0  0  0  0
  152.0962  138.5418  156.6950 C   0  0  0  0  0  0  0  0  0  0  0  0
  152.4957  139.4844  155.8169 N   0  5  0  0  0  0  0  0  0  0  0  0
  151.5448  139.7124  154.9320 N   0  0  0  0  0  0  0  0  0  0  0  0
  150.5586  138.8817  155.2894 C   0  0  0  0  0  0  0  0  0  0  0  0
  150.8670  138.1506  156.3655 N   0  0  0  0  0  0  0  0  0  0  0  0
  152.5319  142.6592  159.3703 C   0  0  0  0  0  0  0  0  0  0  0  0
  150.4762  144.5634  159.0646 H   0  0  0  0  0  0  0  0  0  0  0  0
  151.8549  145.0248  158.0699 H   0  0  0  0  0  0  0  0  0  0  0  0
  151.4393  145.9765  159.4903 H   0  0  0  0  0  0  0  0  0  0  0  0
  153.4027  144.5343  159.9409 H   0  0  0  0  0  0  0  0  0  0  0  0
  151.8976  145.0261  161.8396 H   0  0  0  0  0  0  0  0  0  0  0  0
  150.9136  143.6342  161.4562 H   0  0  0  0  0  0  0  0  0  0  0  0
  153.8383  143.5882  162.3426 H   0  0  0  0  0  0  0  0  0  0  0  0
  152.4640  143.0772  163.2928 H   0  0  0  0  0  0  0  0  0  0  0  0
  153.6564  141.1285  162.2897 H   0  0  0  0  0  0  0  0  0  0  0  0
  152.0012  141.2243  161.7355 H   0  0  0  0  0  0  0  0  0  0  0  0
  154.4596  142.2222  160.2150 H   0  0  0  0  0  0  0  0  0  0  0  0
  151.6027  140.0760  159.9603 H   0  0  0  0  0  0  0  0  0  0  0  0
  152.8545  137.6374  159.9659 H   0  0  0  0  0  0  0  0  0  0  0  0
  151.2928  137.9024  159.2337 H   0  0  0  0  0  0  0  0  0  0  0  0
  153.9294  138.4146  157.7685 H   0  0  0  0  0  0  0  0  0  0  0  0
  153.0567  136.9049  157.6711 H   0  0  0  0  0  0  0  0  0  0  0  0
  149.6152  138.8078  154.7627 H   0  0  0  0  0  0  0  0  0  0  0  0
  151.5405  142.2070  159.3078 H   0  0  0  0  0  0  0  0  0  0  0  0
  152.9077  142.7143  158.3474 H   0  0  0  0  0  0  0  0  0  0  0  0
  1  2  1  0  0  0  0
  1 18  1  0  0  0  0
  1 19  1  0  0  0  0
  1 20  1  0  0  0  0
  2 17  1  0  0  0  0
  2  3  1  0  0  0  0
  2 21  1  0  0  0  0
  3  4  1  0  0  0  0
  3 22  1  0  0  0  0
  3 23  1  0  0  0  0
  4  5  1  0  0  0  0
  4 24  1  0  0  0  0
  4 25  1  0  0  0  0
  5  6  1  0  0  0  0
  5 26  1  0  0  0  0
  5 27  1  0  0  0  0
  6  7  1  0  0  0  0
  6 17  1  0  0  0  0
  6 28  1  0  0  0  0
  7  8  2  0  0  0  0
  7  9  1  0  0  0  0
  9 10  1  0  0  0  0
  9 29  1  0  0  0  0
 10 11  1  0  0  0  0
 10 30  1  0  0  0  0
 10 31  1  0  0  0  0
 11 32  1  0  0  0  0
 11 33  1  0  0  0  0
 11 12  1  0  0  0  0
 12 16  2  0  0  0  0
 12 13  1  0  0  0  0
 13 14  1  0  0  0  0
 14 15  2  0  0  0  0
 15 16  1  0  0  0  0
 15 34  1  0  0  0  0
 17 35  1  0  0  0  0
 17 36  1  0  0  0  0
M  CHG  1  13  -1
M  END
> <s_m_source_file>
AV-unprocessed.smi

> <i_m_source_file_index>
3032

> <i_lp_mmshare_version>
43012

> <i_f3d_flags>
0

> <s_epik_input>
W0NIM11bQ0BASF0xW0NIMl1bQ0gyXVtDSDJdW0NASF0oW0NIMl0xKUMoPU8pW05IXVtDSDJdW0NIMl1jMm5uW2NIXVtuSF0y

> <s_epik_cmdline>
J2VwaWtfcHl0aG9uJywgJy1waCcsICc3LjAnLCAnLXRuJywgJzgnLCAnLW1hJywgJzIwMCcsICctbWV0YWxfYmluZGluZycsICctaW1hZScsICc8aW5maWxlLm1hZT4nLCAnLW9tYWUnLCAnPG91dGZpbGUubWFlPic=

> <r_lp_tautomer_probability>
0.948284

> <r_epik_Ionization_Penalty>
12.042

> <r_epik_Ionization_Penalty_Charging>
12.042

> <r_epik_Ionization_Penalty_Neutral>
4.36781e-08

> <r_epik_State_Penalty>
4.67286

> <r_epik_Charging_Adjusted_Penalty>
16.7149

> <i_epik_Tot_Q>
-1

> <i_epik_Tot_abs_Q>
1

> <r_epik_Metal_State_Penalty>
0.981637

> <b_epik_Metal_Only>
1

> <s_lp_Force_Field>
OPLS_2005

> <r_lp_Energy>
10.6668

> <b_lp_Chiralities_Consistent>
1

> <s_lp_Variant>
AV-unprocessed.smi:3032-14

> <Gold.Version>
5.8.1

> <Gold.Id.Protein>
6NUR|6NUR_protein|mol2

> <Gold.PLP.Fitness>
51.4238

> <Gold.PLP.PLP>
-39.7836

> <Gold.PLP.part.hbond>
-2.9778

> <Gold.PLP.part.metal>
0.0000

> <Gold.PLP.part.buried>
-5.5519

> <Gold.PLP.part.nonpolar>
-31.4068

> <Gold.PLP.part.repulsive>
0.1873

> <Gold.PLP.ligand.clash>
0.0000

> <Gold.PLP.ligand.torsion>
0.0734

> <Gold.PLP.Chemscore.Hbond>
3.9200

> <Gold.PLP.Chemscore.CHOScore>
0.0000

> <Gold.PLP.Chemscore.Metal>
0.0000

> <Gold.Chemscore.Hbonds>
donor molecule, donor type, donor heavy atom, donor atom, acceptor molecule, acceptor atom, score
      P1  H  7989  7998       L1    14  1.00
      P1  H  7997  8008       L1    13  1.69
      P1  H  7997  8010       L1     8  0.94

> <Gold.PLP.Chemscore.Internal.Correction>
0.0269

> <Gold.Rescore>
     Score         DG    S(hbond)    S(metal)    S(lipo)     H(rot)  DE(clash)    DE(int)     intcor
     18.66     -19.91       2.84        0.00      90.61       2.21       0.02       1.23       ----

> <Gold.Chemscore.Fitness>
18.6570

> <Gold.Chemscore.DG>
-19.9071

> <Gold.Chemscore.ZeroCoef>
-5.4800

> <Gold.Chemscore.Hbond>
2.8431

> <Gold.Chemscore.Metal>
0.0000

> <Gold.Chemscore.Lipo>
90.6087

> <Gold.Chemscore.Internal_Hbond>
0.0000

> <Gold.Chemscore.DEClash>
0.0212

> <Gold.Chemscore.DEInternal>
1.2289

> <Gold.Chemscore.Rot>
2.2149

> <Gold.Chemscore.Internal.Correction>
   9.000000E+99

> <Gold.Chemscore.Hbonds>
donor molecule, donor type, donor heavy atom, donor atom, acceptor molecule, acceptor atom, score
      P1  H  7989  7998       L1    14  0.99
      P1  H  7997  8008       L1    13  0.76
      P1  H  7997  8010       L1     8  0.90

> <Gold.Chemscore.Hbond.Weighted>
-9.4961

> <Gold.Chemscore.Metal.Weighted>
-0.0000

> <Gold.Chemscore.Lipo.Weighted>
-10.6012

> <Gold.Chemscore.Internal_Hbond.Weighted>
0.0000

> <Gold.Chemscore.DEClash.Weighted>
0.0212

> <Gold.Chemscore.DEInternal.Weighted>
1.2289

> <Gold.Chemscore.Rot.Weighted>
5.6702

> <Gold.Chemscore.Internal.Correction.Weighted>
   9.000000E+99

> <Gold.Protein.RotatedTorsions>
[ 6907 6896 6895 6894 ] final -142.36 input  -60.11 | X-H torsion
[ 7974 7965 7964 7962 ] final -127.26 input  175.53 | X-H torsion
[ 8008 7997 7996 7995 ] final  -13.53 input   59.86 | X-H torsion
[ 10167 10162 10161 10158 ] final   -8.62 input  -65.29 | X-H torsion
[ 10718 10713 10712 10709 ] final  144.70 input   66.30 | X-H torsion
[ 10763 10752 10751 10750 ] final  153.10 input  -60.55 | X-H torsion
[ 11005 11000 10999 10996 ] final -163.93 input  -57.11 | X-H torsion

> <Gold.Protein.ActiveResidues>
 VAL166  LYS551  ARG553  GLY616  TRP617  ASP618  TYR619  PRO620  LYS621  CYS622 
 ASP623  PHE694  ASN695  SER759  ASP760  ASP761  ALA762  ILE779  LEU786  VAL792 
 PHE793  MET794  SER795  GLU796  ALA797  LYS798  CYS799  TRP800  GLU811  SER814 

> <Gold.Protein.RotatedAtoms>
  151.0860  133.5353  159.2617 H   0  0  0  0  0  0  0  0  0  0  0  0  # atno 6907 bound_to 6896
  151.2238  135.0528  159.8970 H   0  0  0  0  0  0  0  0  0  0  0  0  # atno 6908 bound_to 6896
  152.5429  134.0658  159.8226 H   0  0  0  0  0  0  0  0  0  0  0  0  # atno 6909 bound_to 6896
  144.9789  140.7620  143.4624 H   0  0  0  0  0  0  0  0  0  0  0  0  # atno 7974 bound_to 7965
  154.5285  140.2247  155.8847 H   0  0  0  0  0  0  0  0  0  0  0  0  # atno 8008 bound_to 7997
  156.1739  140.3115  155.8987 H   0  0  0  0  0  0  0  0  0  0  0  0  # atno 8009 bound_to 7997
  155.3501  140.0455  157.3036 H   0  0  0  0  0  0  0  0  0  0  0  0  # atno 8010 bound_to 7997
  140.7064  143.5949  150.8856 H   0  0  0  0  0  0  0  0  0  0  0  0  # atno 10167 bound_to 10162
  157.3541  131.0955  151.0974 H   0  0  0  0  0  0  0  0  0  0  0  0  # atno 10718 bound_to 10713
  154.1307  135.2827  155.3186 H   0  0  0  0  0  0  0  0  0  0  0  0  # atno 10763 bound_to 10752
  154.6357  135.5420  153.7735 H   0  0  0  0  0  0  0  0  0  0  0  0  # atno 10764 bound_to 10752
  153.0282  135.6474  154.1458 H   0  0  0  0  0  0  0  0  0  0  0  0  # atno 10765 bound_to 10752
  140.5926  134.5029  157.5195 H   0  0  0  0  0  0  0  0  0  0  0  0  # atno 11005 bound_to 11000
  145.2450  139.2056  143.4972 LP  0  0  0  0  0  0  0  0  0  0  0  0  # atno 17320 bound_to 7965
  146.3403  140.2352  142.8594 LP  0  0  0  0  0  0  0  0  0  0  0  0  # atno 17321 bound_to 7965
  139.9674  143.6096  152.2984 LP  0  0  0  0  0  0  0  0  0  0  0  0  # atno 17342 bound_to 10162
  139.6670  144.7662  151.1855 LP  0  0  0  0  0  0  0  0  0  0  0  0  # atno 17343 bound_to 10162
  157.2139  130.6450  149.5785 LP  0  0  0  0  0  0  0  0  0  0  0  0  # atno 17370 bound_to 10713
  155.9726  130.4651  150.6241 LP  0  0  0  0  0  0  0  0  0  0  0  0  # atno 17371 bound_to 10713
  139.9267  134.8042  156.1048 LP  0  0  0  0  0  0  0  0  0  0  0  0  # atno 17394 bound_to 11000
  141.0925  133.6709  156.2571 LP  0  0  0  0  0  0  0  0  0  0  0  0  # atno 17395 bound_to 11000

$$$$
