AV-unprocessed.smi:1444|AV-procd|sdf|5881|dock6
  -GOLD-   22720 5563D 1   1.00000     0.00000
 Structure written by MMmdl.
 43 44  0  0  0  0  0  0  0  0  1 V2000
  145.0079  134.7411  150.6531 C   0  0  0  0  0  0  0  0  0  0  0  0
  146.1189  134.3859  151.4692 O   0  0  0  0  0  0  0  0  0  0  0  0
  146.2404  133.0732  151.8845 C   0  0  0  0  0  0  0  0  0  0  0  0
  145.3782  132.1560  151.3783 N   0  0  0  0  0  0  0  0  0  0  0  0
  145.4980  130.8730  151.7759 C   0  0  0  0  0  0  0  0  0  0  0  0
  146.4780  130.4377  152.6858 C   0  0  0  0  0  0  0  0  0  0  0  0
  147.3734  131.3870  153.2129 C   0  0  0  0  0  0  0  0  0  0  0  0
  147.2530  132.7417  152.8156 C   0  0  0  0  0  0  0  0  0  0  0  0
  148.1053  133.7879  153.2694 N   0  0  0  0  0  0  0  0  0  0  0  0
  148.8928  133.8363  154.3578 C   0  0  0  0  0  0  0  0  0  0  0  0
  149.0157  132.9418  155.1936 O   0  0  0  0  0  0  0  0  0  0  0  0
  149.5400  135.0087  154.4293 N   0  0  0  0  0  0  0  0  0  0  0  0
  150.4819  135.3994  155.4761 C   0  0  2  0  0  0  0  0  0  0  0  0
  149.6783  135.6143  156.7685 C   0  0  0  0  0  0  0  0  0  0  0  0
  151.2862  136.6302  154.9881 C   0  0  0  0  0  0  0  0  0  0  0  0
  150.7552  137.9487  155.3473 N   0  0  0  0  0  0  0  0  0  0  0  0
  149.9627  138.5521  154.2753 C   0  0  0  0  0  0  0  0  0  0  0  0
  149.4403  139.9480  154.6585 C   0  0  0  0  0  0  0  0  0  0  0  0
  150.5354  140.7914  154.9976 O   0  0  0  0  0  0  0  0  0  0  0  0
  151.3190  140.2660  156.0630 C   0  0  0  0  0  0  0  0  0  0  0  0
  151.8395  138.8697  155.6798 C   0  0  0  0  0  0  0  0  0  0  0  0
  145.0660  135.8010  150.4061 H   0  0  0  0  0  0  0  0  0  0  0  0
  144.0620  134.5735  151.1700 H   0  0  0  0  0  0  0  0  0  0  0  0
  145.0079  134.1837  149.7153 H   0  0  0  0  0  0  0  0  0  0  0  0
  144.7950  130.1716  151.3515 H   0  0  0  0  0  0  0  0  0  0  0  0
  146.5441  129.3980  152.9704 H   0  0  0  0  0  0  0  0  0  0  0  0
  148.1344  131.0492  153.8974 H   0  0  0  0  0  0  0  0  0  0  0  0
  148.0773  134.6286  152.7112 H   0  0  0  0  0  0  0  0  0  0  0  0
  149.3727  135.6851  153.6988 H   0  0  0  0  0  0  0  0  0  0  0  0
  151.1725  134.5717  155.6483 H   0  0  0  0  0  0  0  0  0  0  0  0
  150.3244  135.6297  157.6443 H   0  0  0  0  0  0  0  0  0  0  0  0
  148.9723  134.7985  156.9297 H   0  0  0  0  0  0  0  0  0  0  0  0
  149.1094  136.5442  156.7386 H   0  0  0  0  0  0  0  0  0  0  0  0
  152.2791  136.5382  155.4314 H   0  0  0  0  0  0  0  0  0  0  0  0
  151.4534  136.5722  153.9115 H   0  0  0  0  0  0  0  0  0  0  0  0
  150.5669  138.6337  153.3704 H   0  0  0  0  0  0  0  0  0  0  0  0
  149.1120  137.9291  154.0188 H   0  0  0  0  0  0  0  0  0  0  0  0
  148.8950  140.3910  153.8249 H   0  0  0  0  0  0  0  0  0  0  0  0
  148.7465  139.8842  155.4983 H   0  0  0  0  0  0  0  0  0  0  0  0
  152.1521  140.9409  156.2586 H   0  0  0  0  0  0  0  0  0  0  0  0
  150.7220  140.2191  156.9751 H   0  0  0  0  0  0  0  0  0  0  0  0
  152.4226  138.4705  156.5105 H   0  0  0  0  0  0  0  0  0  0  0  0
  152.5229  138.9590  154.8338 H   0  0  0  0  0  0  0  0  0  0  0  0
  1  2  1  0  0  0  0
  1 22  1  0  0  0  0
  1 23  1  0  0  0  0
  1 24  1  0  0  0  0
  2  3  1  0  0  0  0
  3  8  1  0  0  0  0
  3  4  2  0  0  0  0
  4  5  1  0  0  0  0
  5  6  2  0  0  0  0
  5 25  1  0  0  0  0
  6  7  1  0  0  0  0
  6 26  1  0  0  0  0
  7  8  2  0  0  0  0
  7 27  1  0  0  0  0
  8  9  1  0  0  0  0
  9 10  1  0  0  0  0
  9 28  1  0  0  0  0
 10 11  2  0  0  0  0
 10 12  1  0  0  0  0
 12 13  1  0  0  0  0
 12 29  1  0  0  0  0
 13 14  1  0  0  0  0
 13 15  1  0  0  0  0
 13 30  1  0  0  0  0
 14 31  1  0  0  0  0
 14 32  1  0  0  0  0
 14 33  1  0  0  0  0
 15 16  1  0  0  0  0
 15 34  1  0  0  0  0
 15 35  1  0  0  0  0
 16 21  1  0  0  0  0
 16 17  1  0  0  0  0
 17 18  1  0  0  0  0
 17 36  1  0  0  0  0
 17 37  1  0  0  0  0
 18 19  1  0  0  0  0
 18 38  1  0  0  0  0
 18 39  1  0  0  0  0
 19 20  1  0  0  0  0
 20 21  1  0  0  0  0
 20 40  1  0  0  0  0
 20 41  1  0  0  0  0
 21 42  1  0  0  0  0
 21 43  1  0  0  0  0
M  END
> <s_m_source_file>
AV-unprocessed.smi

> <i_m_source_file_index>
1444

> <i_lp_mmshare_version>
43012

> <i_f3d_flags>
0

> <s_epik_input>
W0NIM11PYzFuW2NIXVtjSF1bY0hdYzFbTkhdQyg9TylbTkhdW0NASF0oW0NIM10pW0NIMl1OMltDSDJdW0NIMl1PW0NIMl1bQ0gyXTI=

> <s_epik_cmdline>
J2VwaWtfcHl0aG9uJywgJy1waCcsICc3LjAnLCAnLXRuJywgJzgnLCAnLW1hJywgJzIwMCcsICctbWV0YWxfYmluZGluZycsICctaW1hZScsICc8aW5maWxlLm1hZT4nLCAnLW9tYWUnLCAnPG91dGZpbGUubWFlPic=

> <r_lp_tautomer_probability>
1

> <r_epik_Ionization_Penalty>
0.266086

> <r_epik_Ionization_Penalty_Charging>
0

> <r_epik_Ionization_Penalty_Neutral>
0.266086

> <r_epik_State_Penalty>
0.257924

> <r_epik_Charging_Adjusted_Penalty>
0.257924

> <i_epik_Tot_Q>
0

> <i_epik_Tot_abs_Q>
0

> <r_epik_Metal_State_Penalty>
0.25792

> <b_epik_Metal_Only>
0

> <s_lp_Force_Field>
OPLS_2005

> <r_lp_Energy>
29.2367

> <b_lp_Chiralities_Consistent>
1

> <s_lp_Variant>
AV-unprocessed.smi:1444-1

> <Gold.Version>
5.8.1

> <Gold.Id.Protein>
6NUR|6NUR_protein|mol2

> <Gold.PLP.Fitness>
38.9230

> <Gold.PLP.PLP>
-32.9157

> <Gold.PLP.part.hbond>
-3.0000

> <Gold.PLP.part.metal>
0.0000

> <Gold.PLP.part.buried>
-2.4085

> <Gold.PLP.part.nonpolar>
-28.3063

> <Gold.PLP.part.repulsive>
0.5280

> <Gold.PLP.ligand.clash>
0.0000

> <Gold.PLP.ligand.torsion>
1.2183

> <Gold.PLP.Chemscore.Hbond>
2.7920

> <Gold.PLP.Chemscore.CHOScore>
0.0000

> <Gold.PLP.Chemscore.Metal>
0.0000

> <Gold.Chemscore.Hbonds>
donor molecule, donor type, donor heavy atom, donor atom, acceptor molecule, acceptor atom, score
      L1  H     9    28       P1  7948  1.00
      L1  H    12    29       P1  7948  1.00
      P1  H  7989  7998       L1    19  0.85

> <Gold.PLP.Chemscore.Internal.Correction>
0.0680

> <Gold.Rescore>
     Score         DG    S(hbond)    S(metal)    S(lipo)     H(rot)  DE(clash)    DE(int)     intcor
     12.56     -15.33       1.79        0.00      70.74       1.72       0.48       2.30       ----

> <Gold.Chemscore.Fitness>
12.5581

> <Gold.Chemscore.DG>
-15.3330

> <Gold.Chemscore.ZeroCoef>
-5.4800

> <Gold.Chemscore.Hbond>
1.7896

> <Gold.Chemscore.Metal>
0.0000

> <Gold.Chemscore.Lipo>
70.7377

> <Gold.Chemscore.Internal_Hbond>
0.0000

> <Gold.Chemscore.DEClash>
0.4771

> <Gold.Chemscore.DEInternal>
2.2978

> <Gold.Chemscore.Rot>
1.7189

> <Gold.Chemscore.Internal.Correction>
   9.000000E+99

> <Gold.Chemscore.Hbonds>
donor molecule, donor type, donor heavy atom, donor atom, acceptor molecule, acceptor atom, score
      L1  H     9    28       P1  7948  0.56
      L1  H    12    29       P1  7948  0.43
      P1  H  7989  7998       L1    19  0.33

> <Gold.Chemscore.Hbond.Weighted>
-5.9771

> <Gold.Chemscore.Metal.Weighted>
-0.0000

> <Gold.Chemscore.Lipo.Weighted>
-8.2763

> <Gold.Chemscore.Internal_Hbond.Weighted>
0.0000

> <Gold.Chemscore.DEClash.Weighted>
0.4771

> <Gold.Chemscore.DEInternal.Weighted>
2.2978

> <Gold.Chemscore.Rot.Weighted>
4.4004

> <Gold.Chemscore.Internal.Correction.Weighted>
   9.000000E+99

> <Gold.Protein.RotatedTorsions>
[ 6907 6896 6895 6894 ] final -148.65 input  -60.11 | X-H torsion
[ 7974 7965 7964 7962 ] final  169.52 input  175.53 | X-H torsion
[ 8008 7997 7996 7995 ] final  149.18 input   59.86 | X-H torsion
[ 10167 10162 10161 10158 ] final   69.49 input  -65.29 | X-H torsion
[ 10718 10713 10712 10709 ] final  -52.19 input   66.30 | X-H torsion
[ 10763 10752 10751 10750 ] final   -7.90 input  -60.55 | X-H torsion
[ 11005 11000 10999 10996 ] final  -68.10 input  -57.11 | X-H torsion

> <Gold.Protein.ActiveResidues>
 VAL166  LYS551  ARG553  GLY616  TRP617  ASP618  TYR619  PRO620  LYS621  CYS622 
 ASP623  PHE694  ASN695  SER759  ASP760  ASP761  ALA762  ILE779  LEU786  VAL792 
 PHE793  MET794  SER795  GLU796  ALA797  LYS798  CYS799  TRP800  GLU811  SER814 

> <Gold.Protein.RotatedAtoms>
  151.1729  133.4773  159.2593 H   0  0  0  0  0  0  0  0  0  0  0  0  # atno 6907 bound_to 6896
  151.1338  135.0144  159.8604 H   0  0  0  0  0  0  0  0  0  0  0  0  # atno 6908 bound_to 6896
  152.5461  134.1629  159.8618 H   0  0  0  0  0  0  0  0  0  0  0  0  # atno 6909 bound_to 6896
  144.7352  139.9067  143.6412 H   0  0  0  0  0  0  0  0  0  0  0  0  # atno 7974 bound_to 7965
  156.2764  140.2109  156.5817 H   0  0  0  0  0  0  0  0  0  0  0  0  # atno 8008 bound_to 7997
  154.7053  140.0517  157.0521 H   0  0  0  0  0  0  0  0  0  0  0  0  # atno 8009 bound_to 7997
  155.0678  140.3173  155.4643 H   0  0  0  0  0  0  0  0  0  0  0  0  # atno 8010 bound_to 7997
  140.0672  144.5183  150.7252 H   0  0  0  0  0  0  0  0  0  0  0  0  # atno 10167 bound_to 10162
  156.1643  130.4149  149.9744 H   0  0  0  0  0  0  0  0  0  0  0  0  # atno 10718 bound_to 10713
  153.4329  135.7012  153.6219 H   0  0  0  0  0  0  0  0  0  0  0  0  # atno 10763 bound_to 10752
  153.4626  135.3733  155.2347 H   0  0  0  0  0  0  0  0  0  0  0  0  # atno 10764 bound_to 10752
  154.8726  135.4023  154.3715 H   0  0  0  0  0  0  0  0  0  0  0  0  # atno 10765 bound_to 10752
  141.1524  133.6733  156.6394 H   0  0  0  0  0  0  0  0  0  0  0  0  # atno 11005 bound_to 11000
  146.1031  139.4029  143.0334 LP  0  0  0  0  0  0  0  0  0  0  0  0  # atno 17320 bound_to 7965
  145.7549  140.9958  143.1230 LP  0  0  0  0  0  0  0  0  0  0  0  0  # atno 17321 bound_to 7965
  140.7143  143.2531  151.4483 LP  0  0  0  0  0  0  0  0  0  0  0  0  # atno 17342 bound_to 10162
  139.5857  144.1609  152.2026 LP  0  0  0  0  0  0  0  0  0  0  0  0  # atno 17343 bound_to 10162
  156.7564  130.9134  151.3639 LP  0  0  0  0  0  0  0  0  0  0  0  0  # atno 17370 bound_to 10713
  157.6756  130.9091  150.0143 LP  0  0  0  0  0  0  0  0  0  0  0  0  # atno 17371 bound_to 10713
  140.3405  134.7853  157.4394 LP  0  0  0  0  0  0  0  0  0  0  0  0  # atno 17394 bound_to 11000
  140.0942  134.5560  155.8415 LP  0  0  0  0  0  0  0  0  0  0  0  0  # atno 17395 bound_to 11000

$$$$
