AV-unprocessed.smi:1190|AV-procd|sdf|4981|dock8
  -GOLD-   22720 3583D 1   1.00000     0.00000
 Structure written by MMmdl.
 43 44  0  0  0  0  0  0  0  0  1 V2000
  150.9175  141.6464  158.1634 C   0  0  0  0  0  0  0  0  0  0  0  0
  151.1715  141.4587  156.7755 O   0  0  0  0  0  0  0  0  0  0  0  0
  150.7103  140.3048  156.1755 C   0  0  0  0  0  0  0  0  0  0  0  0
  150.3115  139.2313  156.9961 C   0  0  0  0  0  0  0  0  0  0  0  0
  149.8439  138.0510  156.3886 C   0  0  0  0  0  0  0  0  0  0  0  0
  149.7961  137.9726  154.9823 C   0  0  0  0  0  0  0  0  0  0  0  0
  149.3055  136.7726  154.3998 N   0  0  0  0  0  0  0  0  0  0  0  0
  148.8029  135.6868  155.0123 C   0  0  0  0  0  0  0  0  0  0  0  0
  148.6580  135.5581  156.2274 O   0  0  0  0  0  0  0  0  0  0  0  0
  148.4599  134.7469  154.1197 N   0  0  0  0  0  0  0  0  0  0  0  0
  147.8781  133.4438  154.4347 C   0  0  0  0  0  0  0  0  0  0  0  0
  147.6425  132.5637  153.1744 C   0  0  1  0  0  0  0  0  0  0  0  0
  147.8184  131.0719  153.5572 C   0  0  0  0  0  0  0  0  0  0  0  0
  146.3460  132.8332  152.5083 N   0  0  0  0  0  0  0  0  0  0  0  0
  146.3442  134.0900  151.7500 C   0  0  0  0  0  0  0  0  0  0  0  0
  145.0084  134.3552  151.0340 C   0  0  0  0  0  0  0  0  0  0  0  0
  144.7016  133.2671  150.1737 O   0  0  0  0  0  0  0  0  0  0  0  0
  144.6130  132.0384  150.8815 C   0  0  0  0  0  0  0  0  0  0  0  0
  145.9454  131.7549  151.5963 C   0  0  0  0  0  0  0  0  0  0  0  0
  150.2060  139.1105  154.2452 C   0  0  0  0  0  0  0  0  0  0  0  0
  150.6538  140.2462  154.8221 N   0  0  0  0  0  0  0  0  0  0  0  0
  151.3350  142.6020  158.4800 H   0  0  0  0  0  0  0  0  0  0  0  0
  151.3861  140.8653  158.7639 H   0  0  0  0  0  0  0  0  0  0  0  0
  149.8473  141.6671  158.3744 H   0  0  0  0  0  0  0  0  0  0  0  0
  150.3634  139.3122  158.0718 H   0  0  0  0  0  0  0  0  0  0  0  0
  149.5308  137.2161  156.9984 H   0  0  0  0  0  0  0  0  0  0  0  0
  149.2899  136.7583  153.3906 H   0  0  0  0  0  0  0  0  0  0  0  0
  148.6141  134.9460  153.1422 H   0  0  0  0  0  0  0  0  0  0  0  0
  148.4817  132.8990  155.1629 H   0  0  0  0  0  0  0  0  0  0  0  0
  146.9392  133.6797  154.9318 H   0  0  0  0  0  0  0  0  0  0  0  0
  148.4381  132.8042  152.4673 H   0  0  0  0  0  0  0  0  0  0  0  0
  148.7616  130.8820  154.0674 H   0  0  0  0  0  0  0  0  0  0  0  0
  147.8361  130.4177  152.6871 H   0  0  0  0  0  0  0  0  0  0  0  0
  147.0164  130.7376  154.2161 H   0  0  0  0  0  0  0  0  0  0  0  0
  146.5201  134.9380  152.4085 H   0  0  0  0  0  0  0  0  0  0  0  0
  147.1524  134.0816  151.0170 H   0  0  0  0  0  0  0  0  0  0  0  0
  144.2038  134.4969  151.7571 H   0  0  0  0  0  0  0  0  0  0  0  0
  145.0713  135.2688  150.4428 H   0  0  0  0  0  0  0  0  0  0  0  0
  143.7908  132.0792  151.5978 H   0  0  0  0  0  0  0  0  0  0  0  0
  144.3843  131.2385  150.1772 H   0  0  0  0  0  0  0  0  0  0  0  0
  146.7266  131.5903  150.8526 H   0  0  0  0  0  0  0  0  0  0  0  0
  145.8207  130.8192  152.1376 H   0  0  0  0  0  0  0  0  0  0  0  0
  150.1635  139.1424  153.1679 H   0  0  0  0  0  0  0  0  0  0  0  0
  1  2  1  0  0  0  0
  1 22  1  0  0  0  0
  1 23  1  0  0  0  0
  1 24  1  0  0  0  0
  2  3  1  0  0  0  0
  3 21  1  0  0  0  0
  3  4  2  0  0  0  0
  4  5  1  0  0  0  0
  4 25  1  0  0  0  0
  5  6  2  0  0  0  0
  5 26  1  0  0  0  0
  6  7  1  0  0  0  0
  6 20  1  0  0  0  0
  7  8  1  0  0  0  0
  7 27  1  0  0  0  0
  8  9  2  0  0  0  0
  8 10  1  0  0  0  0
 10 11  1  0  0  0  0
 10 28  1  0  0  0  0
 11 12  1  0  0  0  0
 11 29  1  0  0  0  0
 11 30  1  0  0  0  0
 12 13  1  0  0  0  0
 12 14  1  0  0  0  0
 12 31  1  0  0  0  0
 13 32  1  0  0  0  0
 13 33  1  0  0  0  0
 13 34  1  0  0  0  0
 14 19  1  0  0  0  0
 14 15  1  0  0  0  0
 15 16  1  0  0  0  0
 15 35  1  0  0  0  0
 15 36  1  0  0  0  0
 16 17  1  0  0  0  0
 16 37  1  0  0  0  0
 16 38  1  0  0  0  0
 17 18  1  0  0  0  0
 18 19  1  0  0  0  0
 18 39  1  0  0  0  0
 18 40  1  0  0  0  0
 19 41  1  0  0  0  0
 19 42  1  0  0  0  0
 20 21  2  0  0  0  0
 20 43  1  0  0  0  0
M  END
> <s_m_source_file>
AV-unprocessed.smi

> <i_m_source_file_index>
1190

> <i_lp_mmshare_version>
43012

> <i_f3d_flags>
0

> <s_epik_input>
W0NIM11PYzFbY0hdW2NIXWMoW2NIXW4xKVtOSF1DKD1PKVtOSF1bQ0gyXVtDQEhdKFtDSDNdKU4yW0NIMl1bQ0gyXU9bQ0gyXVtDSDJdMg==

> <s_epik_cmdline>
J2VwaWtfcHl0aG9uJywgJy1waCcsICc3LjAnLCAnLXRuJywgJzgnLCAnLW1hJywgJzIwMCcsICctbWV0YWxfYmluZGluZycsICctaW1hZScsICc8aW5maWxlLm1hZT4nLCAnLW9tYWUnLCAnPG91dGZpbGUubWFlPic=

> <r_lp_tautomer_probability>
1

> <r_epik_Ionization_Penalty>
0.266084

> <r_epik_Ionization_Penalty_Charging>
0

> <r_epik_Ionization_Penalty_Neutral>
0.266084

> <r_epik_State_Penalty>
0.257924

> <r_epik_Charging_Adjusted_Penalty>
0.257924

> <i_epik_Tot_Q>
0

> <i_epik_Tot_abs_Q>
0

> <r_epik_Metal_State_Penalty>
0.257922

> <b_epik_Metal_Only>
0

> <s_lp_Force_Field>
OPLS_2005

> <r_lp_Energy>
31.4194

> <b_lp_Chiralities_Consistent>
1

> <s_lp_Variant>
AV-unprocessed.smi:1190-2

> <Gold.Version>
5.8.1

> <Gold.Id.Protein>
6NUR|6NUR_protein|mol2

> <Gold.PLP.Fitness>
38.5361

> <Gold.PLP.PLP>
-28.3613

> <Gold.PLP.part.hbond>
-3.0000

> <Gold.PLP.part.metal>
0.0000

> <Gold.PLP.part.buried>
-4.7513

> <Gold.PLP.part.nonpolar>
-21.3576

> <Gold.PLP.part.repulsive>
0.4161

> <Gold.PLP.ligand.clash>
0.0011

> <Gold.PLP.ligand.torsion>
0.8829

> <Gold.PLP.Chemscore.Hbond>
2.9600

> <Gold.PLP.Chemscore.CHOScore>
1.0000

> <Gold.PLP.Chemscore.Metal>
0.0000

> <Gold.Chemscore.Hbonds>
donor molecule, donor type, donor heavy atom, donor atom, acceptor molecule, acceptor atom, score
      L1  H     7    27       P1  7948  1.00
      L1  H    10    28       P1  7948  0.96
      P1  H  7989  7998       L1    21  0.95
      L1  C    20    43       P1  7957  1.00

> <Gold.PLP.Chemscore.Internal.Correction>
0.0617

> <Gold.Rescore>
     Score         DG    S(hbond)    S(metal)    S(lipo)     H(rot)  DE(clash)    DE(int)     intcor
     13.41     -15.77       2.14        0.00      64.76       1.73       0.18       2.19       ----

> <Gold.Chemscore.Fitness>
13.4075

> <Gold.Chemscore.DG>
-15.7734

> <Gold.Chemscore.ZeroCoef>
-5.4800

> <Gold.Chemscore.Hbond>
2.1386

> <Gold.Chemscore.Metal>
0.0000

> <Gold.Chemscore.Lipo>
64.7624

> <Gold.Chemscore.Internal_Hbond>
0.0000

> <Gold.Chemscore.DEClash>
0.1770

> <Gold.Chemscore.DEInternal>
2.1889

> <Gold.Chemscore.Rot>
1.7292

> <Gold.Chemscore.Internal.Correction>
   9.000000E+99

> <Gold.Chemscore.Hbonds>
donor molecule, donor type, donor heavy atom, donor atom, acceptor molecule, acceptor atom, score
      L1  H     7    27       P1  7948  0.95
      L1  H    10    28       P1  7948  0.51
      P1  H  7989  7998       L1    21  0.21

> <Gold.Chemscore.Hbond.Weighted>
-7.1430

> <Gold.Chemscore.Metal.Weighted>
-0.0000

> <Gold.Chemscore.Lipo.Weighted>
-7.5772

> <Gold.Chemscore.Internal_Hbond.Weighted>
0.0000

> <Gold.Chemscore.DEClash.Weighted>
0.1770

> <Gold.Chemscore.DEInternal.Weighted>
2.1889

> <Gold.Chemscore.Rot.Weighted>
4.4268

> <Gold.Chemscore.Internal.Correction.Weighted>
   9.000000E+99

> <Gold.Protein.RotatedTorsions>
[ 6907 6896 6895 6894 ] final  -51.32 input  -60.11 | X-H torsion
[ 7974 7965 7964 7962 ] final  117.77 input  175.53 | X-H torsion
[ 8008 7997 7996 7995 ] final  -93.35 input   59.86 | X-H torsion
[ 10167 10162 10161 10158 ] final   98.36 input  -65.29 | X-H torsion
[ 10718 10713 10712 10709 ] final  -61.67 input   66.30 | X-H torsion
[ 10763 10752 10751 10750 ] final  144.73 input  -60.55 | X-H torsion
[ 11005 11000 10999 10996 ] final   43.20 input  -57.11 | X-H torsion

> <Gold.Protein.ActiveResidues>
 VAL166  LYS551  ARG553  GLY616  TRP617  ASP618  TYR619  PRO620  LYS621  CYS622 
 ASP623  PHE694  ASN695  SER759  ASP760  ASP761  ALA762  ILE779  LEU786  VAL792 
 PHE793  MET794  SER795  GLU796  ALA797  LYS798  CYS799  TRP800  GLU811  SER814 

> <Gold.Protein.RotatedAtoms>
  150.8623  134.7978  159.7091 H   0  0  0  0  0  0  0  0  0  0  0  0  # atno 6907 bound_to 6896
  152.4656  134.5080  159.9755 H   0  0  0  0  0  0  0  0  0  0  0  0  # atno 6908 bound_to 6896
  151.5182  133.3433  159.2932 H   0  0  0  0  0  0  0  0  0  0  0  0  # atno 6909 bound_to 6896
  145.1634  139.3142  143.4505 H   0  0  0  0  0  0  0  0  0  0  0  0  # atno 7974 bound_to 7965
  154.7346  140.0500  157.0757 H   0  0  0  0  0  0  0  0  0  0  0  0  # atno 8008 bound_to 7997
  155.0257  140.3152  155.4757 H   0  0  0  0  0  0  0  0  0  0  0  0  # atno 8009 bound_to 7997
  156.2850  140.2159  156.5377 H   0  0  0  0  0  0  0  0  0  0  0  0  # atno 8010 bound_to 7997
  139.7716  144.6920  151.0148 H   0  0  0  0  0  0  0  0  0  0  0  0  # atno 10167 bound_to 10162
  156.0906  130.4201  150.1027 H   0  0  0  0  0  0  0  0  0  0  0  0  # atno 10718 bound_to 10713
  153.9937  135.2930  155.3409 H   0  0  0  0  0  0  0  0  0  0  0  0  # atno 10763 bound_to 10752
  154.7200  135.5113  153.8800 H   0  0  0  0  0  0  0  0  0  0  0  0  # atno 10764 bound_to 10752
  153.0798  135.6675  154.0186 H   0  0  0  0  0  0  0  0  0  0  0  0  # atno 10765 bound_to 10752
  140.1667  134.4273  155.8283 H   0  0  0  0  0  0  0  0  0  0  0  0  # atno 11005 bound_to 11000
  146.3479  140.1752  142.8589 LP  0  0  0  0  0  0  0  0  0  0  0  0  # atno 17320 bound_to 7965
  145.0308  140.8869  143.5111 LP  0  0  0  0  0  0  0  0  0  0  0  0  # atno 17321 bound_to 7965
  140.7814  143.4582  151.0315 LP  0  0  0  0  0  0  0  0  0  0  0  0  # atno 17342 bound_to 10162
  139.8266  143.7748  152.3179 LP  0  0  0  0  0  0  0  0  0  0  0  0  # atno 17343 bound_to 10162
  156.9038  130.9629  151.3572 LP  0  0  0  0  0  0  0  0  0  0  0  0  # atno 17370 bound_to 10713
  157.6054  130.8543  149.8867 LP  0  0  0  0  0  0  0  0  0  0  0  0  # atno 17371 bound_to 10713
  141.2214  133.6937  156.7691 LP  0  0  0  0  0  0  0  0  0  0  0  0  # atno 17394 bound_to 11000
  140.2425  134.8602  157.3588 LP  0  0  0  0  0  0  0  0  0  0  0  0  # atno 17395 bound_to 11000

$$$$
