AV-unprocessed.smi:907|AV-procd|sdf|4108|dock7
  -GOLD-   22720 2 03D 1   1.00000     0.00000
 Structure written by MMmdl.
 53 56  0  0  0  0  0  0  0  0  2 V2000
  145.9654  139.4302  156.1762 O   0  0  0  0  0  0  0  0  0  0  0  0
  146.8202  139.8539  155.3976 C   0  0  0  0  0  0  0  0  0  0  0  0
  147.2783  139.1181  154.3722 N   0  0  0  0  0  0  0  0  0  0  0  0
  146.8176  137.7763  154.0433 C   0  0  0  0  0  0  0  0  0  0  0  0
  145.3291  137.7948  153.6686 C   0  0  0  0  0  0  0  0  0  0  0  0
  144.9250  136.5807  152.8539 C   0  0  0  0  0  0  0  0  0  0  0  0
  143.8377  135.7743  153.2527 C   0  0  0  0  0  0  0  0  0  0  0  0
  143.5000  134.6628  152.4567 C   0  0  0  0  0  0  0  0  0  0  0  0
  144.2578  134.4022  151.2987 C   0  0  0  0  0  0  0  0  0  0  0  0
  145.3246  135.2685  150.9869 C   0  0  0  0  0  0  0  0  0  0  0  0
  145.6569  136.3367  151.7435 N   0  0  0  0  0  0  0  0  0  0  0  0
  147.3921  141.0785  155.5184 N   0  0  0  0  0  0  0  0  0  0  0  0
  146.9804  142.1493  156.4341 C   0  0  0  0  0  0  0  0  0  0  0  0
  148.0102  142.2448  157.5726 C   0  0  0  0  0  0  0  0  0  0  0  0
  149.3947  142.4734  157.0606 N   0  3  0  0  0  0  0  0  0  0  0  0
  150.3856  142.5700  158.1766 C   0  0  2  0  0  0  0  0  0  0  0  0
  150.1070  143.7938  159.0905 C   0  0  0  0  0  0  0  0  0  0  0  0
  151.4481  144.5447  159.1136 C   0  0  1  0  0  0  0  0  0  0  0  0
  152.4810  143.7286  159.9076 C   0  0  0  0  0  0  0  0  0  0  0  0
  152.7806  142.5576  158.9562 C   0  0  0  0  0  0  0  0  0  0  0  0
  151.8576  142.8411  157.7537 C   0  0  2  0  0  0  0  0  0  0  0  0
  151.9214  144.3621  157.6779 C   0  0  0  0  0  0  0  0  0  0  0  0
  149.7615  141.4999  155.9893 C   0  0  0  0  0  0  0  0  0  0  0  0
  148.6775  141.4036  154.8987 C   0  0  0  0  0  0  0  0  0  0  0  0
  147.9921  139.5155  153.7793 H   0  0  0  0  0  0  0  0  0  0  0  0
  147.4099  137.3863  153.2142 H   0  0  0  0  0  0  0  0  0  0  0  0
  146.9795  137.1150  154.8964 H   0  0  0  0  0  0  0  0  0  0  0  0
  144.7170  137.8326  154.5712 H   0  0  0  0  0  0  0  0  0  0  0  0
  145.0979  138.6989  153.1034 H   0  0  0  0  0  0  0  0  0  0  0  0
  143.2734  136.0011  154.1452 H   0  0  0  0  0  0  0  0  0  0  0  0
  142.6738  134.0225  152.7285 H   0  0  0  0  0  0  0  0  0  0  0  0
  144.0269  133.5595  150.6642 H   0  0  0  0  0  0  0  0  0  0  0  0
  145.9261  135.0995  150.1062 H   0  0  0  0  0  0  0  0  0  0  0  0
  146.9402  143.0928  155.8876 H   0  0  0  0  0  0  0  0  0  0  0  0
  145.9827  142.0159  156.8522 H   0  0  0  0  0  0  0  0  0  0  0  0
  147.7102  143.0447  158.2482 H   0  0  0  0  0  0  0  0  0  0  0  0
  147.9917  141.3231  158.1564 H   0  0  0  0  0  0  0  0  0  0  0  0
  150.3372  141.6420  158.7492 H   0  0  0  0  0  0  0  0  0  0  0  0
  149.3451  144.4519  158.6708 H   0  0  0  0  0  0  0  0  0  0  0  0
  149.7765  143.5006  160.0876 H   0  0  0  0  0  0  0  0  0  0  0  0
  151.3627  145.5810  159.4424 H   0  0  0  0  0  0  0  0  0  0  0  0
  153.3825  144.3142  160.0920 H   0  0  0  0  0  0  0  0  0  0  0  0
  152.0935  143.3959  160.8713 H   0  0  0  0  0  0  0  0  0  0  0  0
  153.8278  142.5752  158.6511 H   0  0  0  0  0  0  0  0  0  0  0  0
  152.5862  141.5871  159.4144 H   0  0  0  0  0  0  0  0  0  0  0  0
  152.2094  142.3220  156.8653 H   0  0  0  0  0  0  0  0  0  0  0  0
  151.2418  144.7882  156.9377 H   0  0  0  0  0  0  0  0  0  0  0  0
  152.9284  144.7453  157.5027 H   0  0  0  0  0  0  0  0  0  0  0  0
  150.6838  141.7980  155.4958 H   0  0  0  0  0  0  0  0  0  0  0  0
  149.9328  140.5180  156.4338 H   0  0  0  0  0  0  0  0  0  0  0  0
  148.9765  140.6783  154.1404 H   0  0  0  0  0  0  0  0  0  0  0  0
  148.5913  142.3558  154.3734 H   0  0  0  0  0  0  0  0  0  0  0  0
  149.3849  143.3784  156.6122 H   0  0  0  0  0  0  0  0  0  0  0  0
  1  2  2  0  0  0  0
  2  3  1  0  0  0  0
  2 12  1  0  0  0  0
  3  4  1  0  0  0  0
  3 25  1  0  0  0  0
  4  5  1  0  0  0  0
  4 26  1  0  0  0  0
  4 27  1  0  0  0  0
  5  6  1  0  0  0  0
  5 28  1  0  0  0  0
  5 29  1  0  0  0  0
  6 11  1  0  0  0  0
  6  7  2  0  0  0  0
  7  8  1  0  0  0  0
  7 30  1  0  0  0  0
  8  9  2  0  0  0  0
  8 31  1  0  0  0  0
  9 10  1  0  0  0  0
  9 32  1  0  0  0  0
 10 11  2  0  0  0  0
 10 33  1  0  0  0  0
 12 24  1  0  0  0  0
 12 13  1  0  0  0  0
 13 14  1  0  0  0  0
 13 34  1  0  0  0  0
 13 35  1  0  0  0  0
 14 15  1  0  0  0  0
 14 36  1  0  0  0  0
 14 37  1  0  0  0  0
 15 16  1  0  0  0  0
 15 23  1  0  0  0  0
 15 53  1  0  0  0  0
 16 21  1  0  0  0  0
 16 17  1  0  0  0  0
 16 38  1  0  0  0  0
 17 18  1  0  0  0  0
 17 39  1  0  0  0  0
 17 40  1  0  0  0  0
 18 22  1  0  0  0  0
 18 19  1  0  0  0  0
 18 41  1  0  0  0  0
 19 20  1  0  0  0  0
 19 42  1  0  0  0  0
 19 43  1  0  0  0  0
 20 21  1  0  0  0  0
 20 44  1  0  0  0  0
 20 45  1  0  0  0  0
 21 22  1  0  0  0  0
 21 46  1  0  0  0  0
 22 47  1  0  0  0  0
 22 48  1  0  0  0  0
 23 24  1  0  0  0  0
 23 49  1  0  0  0  0
 23 50  1  0  0  0  0
 24 51  1  0  0  0  0
 24 52  1  0  0  0  0
M  CHG  1  15   1
M  END
> <s_m_source_file>
AV-unprocessed.smi

> <i_m_source_file_index>
907

> <i_lp_mmshare_version>
43012

> <i_f3d_flags>
0

> <s_epik_input>
W0NIMl0xW0NIMl1bQ0BASF0oW0NIMl0yKVtDQEBIXShbQ0gyXVtDQEhdMTIpTihbQ0gyXVtDSDJdMylbQ0gyXVtDSDJdTjNDKD1PKVtOSF1bQ0gyXVtDSDJdYzRbY0hdW2NIXVtjSF1bY0hdbjQ=

> <s_epik_cmdline>
J2VwaWtfcHl0aG9uJywgJy1waCcsICc3LjAnLCAnLXRuJywgJzgnLCAnLW1hJywgJzIwMCcsICctbWV0YWxfYmluZGluZycsICctaW1hZScsICc8aW5maWxlLm1hZT4nLCAnLW9tYWUnLCAnPG91dGZpbGUubWFlPic=

> <r_epik_Ionization_Penalty>
0.0419258

> <r_epik_Ionization_Penalty_Charging>
0.00262064

> <r_epik_Ionization_Penalty_Neutral>
0.0393052

> <r_epik_State_Penalty>
0.0329887

> <r_epik_Charging_Adjusted_Penalty>
0.0356093

> <i_epik_Tot_Q>
1

> <i_epik_Tot_abs_Q>
1

> <r_epik_Metal_State_Penalty>
0.0309172

> <b_epik_Metal_Only>
0

> <s_lp_Force_Field>
OPLS_2005

> <r_lp_Energy>
96.3886

> <b_lp_Chiralities_Consistent>
1

> <s_lp_Variant>
AV-unprocessed.smi:907-3

> <Gold.Version>
5.8.1

> <Gold.Id.Protein>
6NUR|6NUR_protein|mol2

> <Gold.PLP.Fitness>
48.6263

> <Gold.PLP.PLP>
-40.8279

> <Gold.PLP.part.hbond>
-1.0000

> <Gold.PLP.part.metal>
0.0000

> <Gold.PLP.part.buried>
-5.3486

> <Gold.PLP.part.nonpolar>
-34.6724

> <Gold.PLP.part.repulsive>
0.2824

> <Gold.PLP.ligand.clash>
0.6856

> <Gold.PLP.ligand.torsion>
0.3062

> <Gold.PLP.Chemscore.Hbond>
2.0000

> <Gold.PLP.Chemscore.CHOScore>
1.0000

> <Gold.PLP.Chemscore.Metal>
0.0000

> <Gold.Chemscore.Hbonds>
donor molecule, donor type, donor heavy atom, donor atom, acceptor molecule, acceptor atom, score
      L1  H    15    53       P1  8028  2.00
      L1  C    10    33       P1  7921  1.00

> <Gold.PLP.Chemscore.Internal.Correction>
0.0966

> <Gold.Rescore>
     Score         DG    S(hbond)    S(metal)    S(lipo)     H(rot)  DE(clash)    DE(int)     intcor
     18.86     -19.17       0.95        0.00     119.89       1.37       0.07       0.24       ----

> <Gold.Chemscore.Fitness>
18.8567

> <Gold.Chemscore.DG>
-19.1737

> <Gold.Chemscore.ZeroCoef>
-5.4800

> <Gold.Chemscore.Hbond>
0.9525

> <Gold.Chemscore.Metal>
0.0000

> <Gold.Chemscore.Lipo>
119.8923

> <Gold.Chemscore.Internal_Hbond>
0.0000

> <Gold.Chemscore.DEClash>
0.0745

> <Gold.Chemscore.DEInternal>
0.2426

> <Gold.Chemscore.Rot>
1.3731

> <Gold.Chemscore.Internal.Correction>
   9.000000E+99

> <Gold.Chemscore.Hbonds>
donor molecule, donor type, donor heavy atom, donor atom, acceptor molecule, acceptor atom, score
      L1  H    15    53       P1  8028  1.00

> <Gold.Chemscore.Hbond.Weighted>
-3.1815

> <Gold.Chemscore.Metal.Weighted>
-0.0000

> <Gold.Chemscore.Lipo.Weighted>
-14.0274

> <Gold.Chemscore.Internal_Hbond.Weighted>
0.0000

> <Gold.Chemscore.DEClash.Weighted>
0.0745

> <Gold.Chemscore.DEInternal.Weighted>
0.2426

> <Gold.Chemscore.Rot.Weighted>
3.5152

> <Gold.Chemscore.Internal.Correction.Weighted>
   9.000000E+99

> <Gold.Protein.RotatedTorsions>
[ 6907 6896 6895 6894 ] final  -68.96 input  -60.11 | X-H torsion
[ 7974 7965 7964 7962 ] final -136.44 input  175.53 | X-H torsion
[ 8008 7997 7996 7995 ] final  136.52 input   59.86 | X-H torsion
[ 10167 10162 10161 10158 ] final  -33.12 input  -65.29 | X-H torsion
[ 10718 10713 10712 10709 ] final  -79.25 input   66.30 | X-H torsion
[ 10763 10752 10751 10750 ] final -126.59 input  -60.55 | X-H torsion
[ 11005 11000 10999 10996 ] final -173.62 input  -57.11 | X-H torsion

> <Gold.Protein.ActiveResidues>
 VAL166  LYS551  ARG553  GLY616  TRP617  ASP618  TYR619  PRO620  LYS621  CYS622 
 ASP623  PHE694  ASN695  SER759  ASP760  ASP761  ALA762  ILE779  LEU786  VAL792 
 PHE793  MET794  SER795  GLU796  ALA797  LYS798  CYS799  TRP800  GLU811  SER814 

> <Gold.Protein.RotatedAtoms>
  150.7329  134.5665  159.5868 H   0  0  0  0  0  0  0  0  0  0  0  0  # atno 6907 bound_to 6896
  152.3115  134.7489  160.0344 H   0  0  0  0  0  0  0  0  0  0  0  0  # atno 6908 bound_to 6896
  151.8035  133.3337  159.3571 H   0  0  0  0  0  0  0  0  0  0  0  0  # atno 6909 bound_to 6896
  144.8927  140.6664  143.5135 H   0  0  0  0  0  0  0  0  0  0  0  0  # atno 7974 bound_to 7965
  156.3004  140.2443  156.3759 H   0  0  0  0  0  0  0  0  0  0  0  0  # atno 8008 bound_to 7997
  154.8746  140.0415  157.1765 H   0  0  0  0  0  0  0  0  0  0  0  0  # atno 8009 bound_to 7997
  154.8759  140.2942  155.5457 H   0  0  0  0  0  0  0  0  0  0  0  0  # atno 8010 bound_to 7997
  140.7210  143.3644  151.1900 H   0  0  0  0  0  0  0  0  0  0  0  0  # atno 10167 bound_to 10162
  156.0097  130.4540  150.3620 H   0  0  0  0  0  0  0  0  0  0  0  0  # atno 10718 bound_to 10713
  154.8746  135.3990  154.3456 H   0  0  0  0  0  0  0  0  0  0  0  0  # atno 10763 bound_to 10752
  153.4249  135.7024  153.6274 H   0  0  0  0  0  0  0  0  0  0  0  0  # atno 10764 bound_to 10752
  153.4921  135.3746  155.2467 H   0  0  0  0  0  0  0  0  0  0  0  0  # atno 10765 bound_to 10752
  140.4837  134.6051  157.4929 H   0  0  0  0  0  0  0  0  0  0  0  0  # atno 11005 bound_to 11000
  145.3755  139.1649  143.4309 LP  0  0  0  0  0  0  0  0  0  0  0  0  # atno 17320 bound_to 7965
  146.3063  140.3831  142.8686 LP  0  0  0  0  0  0  0  0  0  0  0  0  # atno 17321 bound_to 7965
  139.7202  143.9235  152.2982 LP  0  0  0  0  0  0  0  0  0  0  0  0  # atno 17342 bound_to 10162
  139.8990  144.6923  150.8686 LP  0  0  0  0  0  0  0  0  0  0  0  0  # atno 17343 bound_to 10162
  157.1708  131.0368  151.2796 LP  0  0  0  0  0  0  0  0  0  0  0  0  # atno 17370 bound_to 10713
  157.4231  130.7448  149.6929 LP  0  0  0  0  0  0  0  0  0  0  0  0  # atno 17371 bound_to 10713
  139.9811  134.7136  155.9858 LP  0  0  0  0  0  0  0  0  0  0  0  0  # atno 17394 bound_to 11000
  141.1518  133.6547  156.4038 LP  0  0  0  0  0  0  0  0  0  0  0  0  # atno 17395 bound_to 11000

$$$$
