AV-unprocessed.smi:2651|AV-procd|sdf|10293|dock3
  -GOLD-   2272014303D 1   1.00000     0.00000
 Structure written by MMmdl.
 43 44  0  0  0  0  0  0  0  0  1 V2000
  152.4143  137.5112  158.2079 C   0  0  0  0  0  0  0  0  0  0  0  0
  151.9259  137.0444  156.8796 C   0  0  0  0  0  0  0  0  0  0  0  0
  150.8687  136.2672  156.4974 C   0  0  0  0  0  0  0  0  0  0  0  0
  150.9991  136.2224  155.0838 C   0  0  0  0  0  0  0  0  0  0  0  0
  150.0767  135.4925  154.2914 N   0  0  0  0  0  0  0  0  0  0  0  0
  149.6212  134.2457  154.5010 C   0  0  0  0  0  0  0  0  0  0  0  0
  149.9728  133.5151  155.4265 O   0  0  0  0  0  0  0  0  0  0  0  0
  148.7305  133.8974  153.5564 N   0  0  0  0  0  0  0  0  0  0  0  0
  147.9793  132.6409  153.4103 C   0  0  2  0  0  0  0  0  0  0  0  0
  147.2406  132.4828  154.7601 C   0  0  0  0  0  0  0  0  0  0  0  0
  148.9840  131.4524  153.3100 C   0  0  0  0  0  0  0  0  0  0  0  0
  148.4230  130.2578  152.8040 O   0  0  0  0  0  0  0  0  0  0  0  0
  146.9552  132.7065  152.2187 C   0  0  0  0  0  0  0  0  0  0  0  0
  146.3388  134.1102  151.9824 C   0  0  0  0  0  0  0  0  0  0  0  0
  145.4458  134.1344  150.7308 C   0  0  0  0  0  0  0  0  0  0  0  0
  144.3363  133.0766  150.8159 C   0  0  0  0  0  0  0  0  0  0  0  0
  144.9260  131.6794  151.0563 C   0  0  0  0  0  0  0  0  0  0  0  0
  145.8167  131.6590  152.3090 C   0  0  0  0  0  0  0  0  0  0  0  0
  152.0407  136.9109  154.6430 N   0  0  0  0  0  0  0  0  0  0  0  0
  152.6401  137.4412  155.7916 O   0  0  0  0  0  0  0  0  0  0  0  0
  151.7465  137.1854  159.0055 H   0  0  0  0  0  0  0  0  0  0  0  0
  152.4713  138.5994  158.2387 H   0  0  0  0  0  0  0  0  0  0  0  0
  153.4080  137.1137  158.4152 H   0  0  0  0  0  0  0  0  0  0  0  0
  150.1252  135.8054  157.1297 H   0  0  0  0  0  0  0  0  0  0  0  0
  149.7154  135.9767  153.4832 H   0  0  0  0  0  0  0  0  0  0  0  0
  148.5382  134.5909  152.8490 H   0  0  0  0  0  0  0  0  0  0  0  0
  146.6611  131.5616  154.8087 H   0  0  0  0  0  0  0  0  0  0  0  0
  146.5604  133.3105  154.9589 H   0  0  0  0  0  0  0  0  0  0  0  0
  147.9469  132.4500  155.5910 H   0  0  0  0  0  0  0  0  0  0  0  0
  149.8522  131.7227  152.7073 H   0  0  0  0  0  0  0  0  0  0  0  0
  149.3717  131.2054  154.2990 H   0  0  0  0  0  0  0  0  0  0  0  0
  148.6256  130.1960  151.8833 H   0  0  0  0  0  0  0  0  0  0  0  0
  147.5057  132.4722  151.3073 H   0  0  0  0  0  0  0  0  0  0  0  0
  145.7438  134.4135  152.8436 H   0  0  0  0  0  0  0  0  0  0  0  0
  147.1175  134.8633  151.8654 H   0  0  0  0  0  0  0  0  0  0  0  0
  145.0052  135.1242  150.6080 H   0  0  0  0  0  0  0  0  0  0  0  0
  146.0553  133.9558  149.8440 H   0  0  0  0  0  0  0  0  0  0  0  0
  143.6512  133.3289  151.6263 H   0  0  0  0  0  0  0  0  0  0  0  0
  143.7468  133.0797  149.8987 H   0  0  0  0  0  0  0  0  0  0  0  0
  144.1218  130.9506  151.1601 H   0  0  0  0  0  0  0  0  0  0  0  0
  145.5103  131.3731  150.1876 H   0  0  0  0  0  0  0  0  0  0  0  0
  146.2228  130.6557  152.4332 H   0  0  0  0  0  0  0  0  0  0  0  0
  145.1930  131.8490  153.1822 H   0  0  0  0  0  0  0  0  0  0  0  0
  1  2  1  0  0  0  0
  1 21  1  0  0  0  0
  1 22  1  0  0  0  0
  1 23  1  0  0  0  0
  2 20  1  0  0  0  0
  2  3  2  0  0  0  0
  3  4  1  0  0  0  0
  3 24  1  0  0  0  0
  4  5  1  0  0  0  0
  4 19  2  0  0  0  0
  5  6  1  0  0  0  0
  5 25  1  0  0  0  0
  6  7  2  0  0  0  0
  6  8  1  0  0  0  0
  8  9  1  0  0  0  0
  8 26  1  0  0  0  0
  9 10  1  0  0  0  0
  9 11  1  0  0  0  0
  9 13  1  0  0  0  0
 10 27  1  0  0  0  0
 10 28  1  0  0  0  0
 10 29  1  0  0  0  0
 11 12  1  0  0  0  0
 11 30  1  0  0  0  0
 11 31  1  0  0  0  0
 12 32  1  0  0  0  0
 13 18  1  0  0  0  0
 13 14  1  0  0  0  0
 13 33  1  0  0  0  0
 14 15  1  0  0  0  0
 14 34  1  0  0  0  0
 14 35  1  0  0  0  0
 15 16  1  0  0  0  0
 15 36  1  0  0  0  0
 15 37  1  0  0  0  0
 16 17  1  0  0  0  0
 16 38  1  0  0  0  0
 16 39  1  0  0  0  0
 17 18  1  0  0  0  0
 17 40  1  0  0  0  0
 17 41  1  0  0  0  0
 18 42  1  0  0  0  0
 18 43  1  0  0  0  0
 19 20  1  0  0  0  0
M  END
> <s_m_source_file>
AV-unprocessed.smi

> <i_m_source_file_index>
2651

> <i_lp_mmshare_version>
43012

> <i_f3d_flags>
0

> <s_epik_input>
W0NIM11jMVtjSF1jKG5vMSlbTkhdQyg9TylbTkhdW0NAQF0oW0NIM10pKFtDSDJdW09IXSlbQ0hdMltDSDJdW0NIMl1bQ0gyXVtDSDJdW0NIMl0y

> <s_epik_cmdline>
J2VwaWtfcHl0aG9uJywgJy1waCcsICc3LjAnLCAnLXRuJywgJzgnLCAnLW1hJywgJzIwMCcsICctbWV0YWxfYmluZGluZycsICctaW1hZScsICc8aW5maWxlLm1hZT4nLCAnLW9tYWUnLCAnPG91dGZpbGUubWFlPic=

> <r_lp_tautomer_probability>
1

> <r_epik_Ionization_Penalty>
2.26451e-05

> <r_epik_Ionization_Penalty_Charging>
0

> <r_epik_Ionization_Penalty_Neutral>
2.26451e-05

> <r_epik_State_Penalty>
-0

> <r_epik_Charging_Adjusted_Penalty>
0

> <i_epik_Tot_Q>
0

> <i_epik_Tot_abs_Q>
0

> <r_epik_Metal_State_Penalty>
-0

> <b_epik_Metal_Only>
0

> <s_lp_Force_Field>
OPLS_2005

> <r_lp_Energy>
19.0521

> <b_lp_Chiralities_Consistent>
1

> <s_lp_Variant>
AV-unprocessed.smi:2651-2

> <Gold.Version>
5.8.1

> <Gold.Id.Protein>
6NUR|6NUR_protein|mol2

> <Gold.PLP.Fitness>
40.2313

> <Gold.PLP.PLP>
-30.7699

> <Gold.PLP.part.hbond>
-5.4960

> <Gold.PLP.part.metal>
0.0000

> <Gold.PLP.part.buried>
-4.3063

> <Gold.PLP.part.nonpolar>
-21.0579

> <Gold.PLP.part.repulsive>
0.2039

> <Gold.PLP.ligand.clash>
0.0000

> <Gold.PLP.ligand.torsion>
1.3366

> <Gold.PLP.Chemscore.Hbond>
4.0000

> <Gold.PLP.Chemscore.CHOScore>
0.0000

> <Gold.PLP.Chemscore.Metal>
0.0000

> <Gold.Chemscore.Hbonds>
donor molecule, donor type, donor heavy atom, donor atom, acceptor molecule, acceptor atom, score
      L1  H     5    25       P1  7948  0.85
      L1  H     8    26       P1  7948  0.95
      L1  H    12    32       P1 10747  1.00
      P1  H 10752 10764       L1    19  0.75

> <Gold.PLP.Chemscore.Internal.Correction>
0.1346

> <Gold.Rescore>
     Score         DG    S(hbond)    S(metal)    S(lipo)     H(rot)  DE(clash)    DE(int)     intcor
     15.12     -18.58       3.53        0.00      57.02       2.09       0.00       3.46       ----

> <Gold.Chemscore.Fitness>
15.1167

> <Gold.Chemscore.DG>
-18.5808

> <Gold.Chemscore.ZeroCoef>
-5.4800

> <Gold.Chemscore.Hbond>
3.5297

> <Gold.Chemscore.Metal>
0.0000

> <Gold.Chemscore.Lipo>
57.0182

> <Gold.Chemscore.Internal_Hbond>
0.0000

> <Gold.Chemscore.DEClash>
0.0000

> <Gold.Chemscore.DEInternal>
3.4641

> <Gold.Chemscore.Rot>
2.0935

> <Gold.Chemscore.Internal.Correction>
   9.000000E+99

> <Gold.Chemscore.Hbonds>
donor molecule, donor type, donor heavy atom, donor atom, acceptor molecule, acceptor atom, score
      L1  H     5    25       P1  7948  0.15
      L1  H     8    26       P1  7948  0.21
      L1  H    12    32       P1 10747  0.49
      P1  H 10752 10764       L1    19  0.03

> <Gold.Chemscore.Hbond.Weighted>
-11.7890

> <Gold.Chemscore.Metal.Weighted>
-0.0000

> <Gold.Chemscore.Lipo.Weighted>
-6.6711

> <Gold.Chemscore.Internal_Hbond.Weighted>
0.0000

> <Gold.Chemscore.DEClash.Weighted>
0.0000

> <Gold.Chemscore.DEInternal.Weighted>
3.4641

> <Gold.Chemscore.Rot.Weighted>
5.3594

> <Gold.Chemscore.Internal.Correction.Weighted>
   9.000000E+99

> <Gold.Protein.RotatedTorsions>
[ 6907 6896 6895 6894 ] final  104.23 input  -60.11 | X-H torsion
[ 7974 7965 7964 7962 ] final -142.26 input  175.53 | X-H torsion
[ 8008 7997 7996 7995 ] final  -68.58 input   59.86 | X-H torsion
[ 10167 10162 10161 10158 ] final    2.47 input  -65.29 | X-H torsion
[ 10718 10713 10712 10709 ] final    8.99 input   66.30 | X-H torsion
[ 10763 10752 10751 10750 ] final  -71.77 input  -60.55 | X-H torsion
[ 11005 11000 10999 10996 ] final -127.58 input  -57.11 | X-H torsion

> <Gold.Protein.ActiveResidues>
 VAL166  LYS551  ARG553  GLY616  TRP617  ASP618  TYR619  PRO620  LYS621  CYS622 
 ASP623  PHE694  ASN695  SER759  ASP760  ASP761  ALA762  ILE779  LEU786  VAL792 
 PHE793  MET794  SER795  GLU796  ALA797  LYS798  CYS799  TRP800  GLU811  SER814 

> <Gold.Protein.RotatedAtoms>
  152.5271  133.9707  159.7760 H   0  0  0  0  0  0  0  0  0  0  0  0  # atno 6907 bound_to 6896
  150.9980  133.6076  159.2706 H   0  0  0  0  0  0  0  0  0  0  0  0  # atno 6908 bound_to 6896
  151.3196  135.0821  159.9354 H   0  0  0  0  0  0  0  0  0  0  0  0  # atno 6909 bound_to 6896
  144.8457  140.5980  143.5423 H   0  0  0  0  0  0  0  0  0  0  0  0  # atno 7974 bound_to 7965
  154.4878  140.0870  156.7526 H   0  0  0  0  0  0  0  0  0  0  0  0  # atno 8008 bound_to 7997
  155.4306  140.3449  155.4261 H   0  0  0  0  0  0  0  0  0  0  0  0  # atno 8009 bound_to 7997
  156.1286  140.1495  156.9087 H   0  0  0  0  0  0  0  0  0  0  0  0  # atno 8010 bound_to 7997
  140.6634  143.7245  150.7780 H   0  0  0  0  0  0  0  0  0  0  0  0  # atno 10167 bound_to 10162
  156.9598  130.5928  149.5661 H   0  0  0  0  0  0  0  0  0  0  0  0  # atno 10718 bound_to 10713
  154.4364  135.5951  153.6101 H   0  0  0  0  0  0  0  0  0  0  0  0  # atno 10763 bound_to 10752
  152.9802  135.5987  154.3776 H   0  0  0  0  0  0  0  0  0  0  0  0  # atno 10764 bound_to 10752
  154.3621  135.2841  155.2293 H   0  0  0  0  0  0  0  0  0  0  0  0  # atno 10765 bound_to 10752
  140.9587  134.0965  157.3990 H   0  0  0  0  0  0  0  0  0  0  0  0  # atno 11005 bound_to 11000
  145.4602  139.1513  143.3870 LP  0  0  0  0  0  0  0  0  0  0  0  0  # atno 17320 bound_to 7965
  146.2742  140.4732  142.8802 LP  0  0  0  0  0  0  0  0  0  0  0  0  # atno 17321 bound_to 7965
  140.0918  143.4871  152.2474 LP  0  0  0  0  0  0  0  0  0  0  0  0  # atno 17342 bound_to 10162
  139.5874  144.7536  151.3485 LP  0  0  0  0  0  0  0  0  0  0  0  0  # atno 17343 bound_to 10162
  156.0327  130.5417  150.8575 LP  0  0  0  0  0  0  0  0  0  0  0  0  # atno 17370 bound_to 10713
  157.5665  131.0946  150.9481 LP  0  0  0  0  0  0  0  0  0  0  0  0  # atno 17371 bound_to 10713
  139.8871  135.0087  156.6539 LP  0  0  0  0  0  0  0  0  0  0  0  0  # atno 17394 bound_to 11000
  140.7498  133.8907  155.8339 LP  0  0  0  0  0  0  0  0  0  0  0  0  # atno 17395 bound_to 11000

$$$$
