AV-unprocessed.smi:670|AV-procd|sdf|3271|dock6
  -GOLD-   22720 0233D 1   1.00000     0.00000
 Structure written by MMmdl.
 45 46  0  0  0  0  0  0  0  0  1 V2000
  148.3268  133.2045  152.6037 C   0  0  0  0  0  0  0  0  0  0  0  0
  148.4582  132.0635  153.6245 C   0  0  2  0  0  0  0  0  0  0  0  0
  147.1509  131.8397  154.4110 C   0  0  0  0  0  0  0  0  0  0  0  0
  147.2879  130.6748  155.4050 C   0  0  0  0  0  0  0  0  0  0  0  0
  148.4758  130.8855  156.3575 C   0  0  0  0  0  0  0  0  0  0  0  0
  149.7835  131.1204  155.5815 C   0  0  0  0  0  0  0  0  0  0  0  0
  149.6485  132.2858  154.5826 C   0  0  2  0  0  0  0  0  0  0  0  0
  149.4159  133.4889  155.3012 O   0  0  0  0  0  0  0  0  0  0  0  0
  150.0960  134.6281  154.8024 C   0  0  0  0  0  0  0  0  0  0  0  0
  149.5488  135.8764  155.5093 C   0  0  0  0  0  0  0  0  0  0  0  0
  150.2907  137.0726  155.1212 N   0  0  0  0  0  0  0  0  0  0  0  0
  151.5992  137.2742  155.3440 C   0  0  0  0  0  0  0  0  0  0  0  0
  152.3296  136.4344  155.8730 O   0  0  0  0  0  0  0  0  0  0  0  0
  152.1516  138.6364  154.8976 C   0  0  0  0  0  0  0  0  0  0  0  0
  151.5733  139.7767  155.6245 N   0  0  0  0  0  0  0  0  0  0  0  0
  150.6592  140.5111  154.8842 N   0  0  0  0  0  0  0  0  0  0  0  0
  150.0928  141.5475  155.4032 C   0  0  0  0  0  0  0  0  0  0  0  0
  149.1952  142.2470  154.6343 O   0  0  0  0  0  0  0  0  0  0  0  0
  150.3901  141.9645  156.7561 C   0  0  0  0  0  0  0  0  0  0  0  0
  151.2782  141.2401  157.4713 C   0  0  0  0  0  0  0  0  0  0  0  0
  151.9378  140.0581  156.9137 C   0  0  0  0  0  0  0  0  0  0  0  0
  152.7467  139.3792  157.5450 O   0  0  0  0  0  0  0  0  0  0  0  0
  149.1557  143.1103  155.0160 H   0  0  0  0  0  0  0  0  0  0  0  0
  148.1391  134.1592  153.0952 H   0  0  0  0  0  0  0  0  0  0  0  0
  147.5051  133.0208  151.9112 H   0  0  0  0  0  0  0  0  0  0  0  0
  149.2378  133.3104  152.0144 H   0  0  0  0  0  0  0  0  0  0  0  0
  148.6584  131.1531  153.0575 H   0  0  0  0  0  0  0  0  0  0  0  0
  146.8791  132.7500  154.9480 H   0  0  0  0  0  0  0  0  0  0  0  0
  146.3312  131.6357  153.7214 H   0  0  0  0  0  0  0  0  0  0  0  0
  146.3667  130.5659  155.9781 H   0  0  0  0  0  0  0  0  0  0  0  0
  147.4223  129.7416  154.8567 H   0  0  0  0  0  0  0  0  0  0  0  0
  148.2759  131.7404  157.0048 H   0  0  0  0  0  0  0  0  0  0  0  0
  148.5836  130.0216  157.0139 H   0  0  0  0  0  0  0  0  0  0  0  0
  150.6002  131.3095  156.2784 H   0  0  0  0  0  0  0  0  0  0  0  0
  150.0496  130.2114  155.0404 H   0  0  0  0  0  0  0  0  0  0  0  0
  150.5612  132.3654  153.9887 H   0  0  0  0  0  0  0  0  0  0  0  0
  151.1674  134.5370  154.9837 H   0  0  0  0  0  0  0  0  0  0  0  0
  149.9490  134.7109  153.7243 H   0  0  0  0  0  0  0  0  0  0  0  0
  148.4833  135.9929  155.3040 H   0  0  0  0  0  0  0  0  0  0  0  0
  149.6421  135.7557  156.5887 H   0  0  0  0  0  0  0  0  0  0  0  0
  149.7649  137.8120  154.6785 H   0  0  0  0  0  0  0  0  0  0  0  0
  153.2355  138.6236  155.0269 H   0  0  0  0  0  0  0  0  0  0  0  0
  151.9870  138.7516  153.8245 H   0  0  0  0  0  0  0  0  0  0  0  0
  149.9088  142.8347  157.1771 H   0  0  0  0  0  0  0  0  0  0  0  0
  151.5101  141.5396  158.4829 H   0  0  0  0  0  0  0  0  0  0  0  0
  1  2  1  0  0  0  0
  1 24  1  0  0  0  0
  1 25  1  0  0  0  0
  1 26  1  0  0  0  0
  2  7  1  0  0  0  0
  2  3  1  0  0  0  0
  2 27  1  0  0  0  0
  3  4  1  0  0  0  0
  3 28  1  0  0  0  0
  3 29  1  0  0  0  0
  4  5  1  0  0  0  0
  4 30  1  0  0  0  0
  4 31  1  0  0  0  0
  5  6  1  0  0  0  0
  5 32  1  0  0  0  0
  5 33  1  0  0  0  0
  6  7  1  0  0  0  0
  6 34  1  0  0  0  0
  6 35  1  0  0  0  0
  7  8  1  0  0  0  0
  7 36  1  0  0  0  0
  8  9  1  0  0  0  0
  9 10  1  0  0  0  0
  9 37  1  0  0  0  0
  9 38  1  0  0  0  0
 10 11  1  0  0  0  0
 10 39  1  0  0  0  0
 10 40  1  0  0  0  0
 11 12  1  0  0  0  0
 11 41  1  0  0  0  0
 12 13  2  0  0  0  0
 12 14  1  0  0  0  0
 14 42  1  0  0  0  0
 14 43  1  0  0  0  0
 14 15  1  0  0  0  0
 15 16  1  0  0  0  0
 15 21  1  0  0  0  0
 16 17  2  0  0  0  0
 17 18  1  0  0  0  0
 17 19  1  0  0  0  0
 18 23  1  0  0  0  0
 19 44  1  0  0  0  0
 19 20  2  0  0  0  0
 20 45  1  0  0  0  0
 20 21  1  0  0  0  0
 21 22  2  0  0  0  0
M  END
> <s_m_source_file>
AV-unprocessed.smi

> <i_m_source_file_index>
670

> <i_lp_mmshare_version>
43012

> <i_f3d_flags>
0

> <s_epik_input>
W0NIM11bQ0BASF0xW0NIMl1bQ0gyXVtDSDJdW0NIMl1bQ0BIXTFPW0NIMl1bQ0gyXVtOSF1DKD1PKVtDSDJdbjJbbkhdYyg9TylbY0hdW2NIXWMyPU8=

> <s_epik_cmdline>
J2VwaWtfcHl0aG9uJywgJy1waCcsICc3LjAnLCAnLXRuJywgJzgnLCAnLW1hJywgJzIwMCcsICctbWV0YWxfYmluZGluZycsICctaW1hZScsICc8aW5maWxlLm1hZT4nLCAnLW9tYWUnLCAnPG91dGZpbGUubWFlPic=

> <r_lp_tautomer_probability>
0.9996

> <r_epik_Ionization_Penalty>
2.12726

> <r_epik_Ionization_Penalty_Charging>
3.83395e-08

> <r_epik_Ionization_Penalty_Neutral>
2.12726

> <r_epik_State_Penalty>
1.70432

> <r_epik_Charging_Adjusted_Penalty>
1.70432

> <i_epik_Tot_Q>
0

> <i_epik_Tot_abs_Q>
0

> <r_epik_Metal_State_Penalty>
1.70432

> <b_epik_Metal_Only>
0

> <s_lp_Force_Field>
OPLS_2005

> <r_lp_Energy>
20.0493

> <b_lp_Chiralities_Consistent>
1

> <s_lp_Variant>
AV-unprocessed.smi:670-7

> <Gold.Version>
5.8.1

> <Gold.Id.Protein>
6NUR|6NUR_protein|mol2

> <Gold.PLP.Fitness>
46.1741

> <Gold.PLP.PLP>
-35.9778

> <Gold.PLP.part.hbond>
-4.7594

> <Gold.PLP.part.metal>
0.0000

> <Gold.PLP.part.buried>
-2.8530

> <Gold.PLP.part.nonpolar>
-28.5082

> <Gold.PLP.part.repulsive>
0.1777

> <Gold.PLP.ligand.clash>
0.0000

> <Gold.PLP.ligand.torsion>
0.7855

> <Gold.PLP.Chemscore.Hbond>
3.8968

> <Gold.PLP.Chemscore.CHOScore>
0.0000

> <Gold.PLP.Chemscore.Metal>
0.0000

> <Gold.Chemscore.Hbonds>
donor molecule, donor type, donor heavy atom, donor atom, acceptor molecule, acceptor atom, score
      L1  H    18    23       P1  8028  1.00
      P1  H  7989  7998       L1    16  1.00
      P1  H  7997  8009       L1    22  0.85
      P1  H  8011  8017       L1    18  0.03
      P1  H 10752 10765       L1    13  0.99

> <Gold.PLP.Chemscore.Internal.Correction>
0.0769

> <Gold.Rescore>
     Score         DG    S(hbond)    S(metal)    S(lipo)     H(rot)  DE(clash)    DE(int)     intcor
     13.50     -14.37       2.92        0.00      60.29       3.09       0.04       0.83       ----

> <Gold.Chemscore.Fitness>
13.4975

> <Gold.Chemscore.DG>
-14.3687

> <Gold.Chemscore.ZeroCoef>
-5.4800

> <Gold.Chemscore.Hbond>
2.9179

> <Gold.Chemscore.Metal>
0.0000

> <Gold.Chemscore.Lipo>
60.2861

> <Gold.Chemscore.Internal_Hbond>
0.0000

> <Gold.Chemscore.DEClash>
0.0392

> <Gold.Chemscore.DEInternal>
0.8321

> <Gold.Chemscore.Rot>
3.0901

> <Gold.Chemscore.Internal.Correction>
   9.000000E+99

> <Gold.Chemscore.Hbonds>
donor molecule, donor type, donor heavy atom, donor atom, acceptor molecule, acceptor atom, score
      L1  H    18    23       P1  8028  1.00
      P1  H  7989  7998       L1    16  0.21
      P1  H  7997  8009       L1    22  0.14
      P1  H  8011  8017       L1    18  0.02
      P1  H 10752 10765       L1    13  0.88

> <Gold.Chemscore.Hbond.Weighted>
-9.7458

> <Gold.Chemscore.Metal.Weighted>
-0.0000

> <Gold.Chemscore.Lipo.Weighted>
-7.0535

> <Gold.Chemscore.Internal_Hbond.Weighted>
0.0000

> <Gold.Chemscore.DEClash.Weighted>
0.0392

> <Gold.Chemscore.DEInternal.Weighted>
0.8321

> <Gold.Chemscore.Rot.Weighted>
7.9106

> <Gold.Chemscore.Internal.Correction.Weighted>
   9.000000E+99

> <Gold.Protein.RotatedTorsions>
[ 6907 6896 6895 6894 ] final   31.10 input  -60.11 | X-H torsion
[ 7974 7965 7964 7962 ] final   66.88 input  175.53 | X-H torsion
[ 8008 7997 7996 7995 ] final -179.61 input   59.86 | X-H torsion
[ 10167 10162 10161 10158 ] final  -94.19 input  -65.29 | X-H torsion
[ 10718 10713 10712 10709 ] final -116.73 input   66.30 | X-H torsion
[ 10763 10752 10751 10750 ] final -140.14 input  -60.55 | X-H torsion
[ 11005 11000 10999 10996 ] final  129.79 input  -57.11 | X-H torsion

> <Gold.Protein.ActiveResidues>
 VAL166  LYS551  ARG553  GLY616  TRP617  ASP618  TYR619  PRO620  LYS621  CYS622 
 ASP623  PHE694  ASN695  SER759  ASP760  ASP761  ALA762  ILE779  LEU786  VAL792 
 PHE793  MET794  SER795  GLU796  ALA797  LYS798  CYS799  TRP800  GLU811  SER814 

> <Gold.Protein.RotatedAtoms>
  152.0554  134.9627  160.0574 H   0  0  0  0  0  0  0  0  0  0  0  0  # atno 6907 bound_to 6896
  152.1012  133.4246  159.4596 H   0  0  0  0  0  0  0  0  0  0  0  0  # atno 6908 bound_to 6896
  150.6839  134.2678  159.4619 H   0  0  0  0  0  0  0  0  0  0  0  0  # atno 6909 bound_to 6896
  145.8213  139.3086  143.1041 H   0  0  0  0  0  0  0  0  0  0  0  0  # atno 7974 bound_to 7965
  156.0325  140.1285  157.0243 H   0  0  0  0  0  0  0  0  0  0  0  0  # atno 8008 bound_to 7997
  154.4356  140.1046  156.6191 H   0  0  0  0  0  0  0  0  0  0  0  0  # atno 8009 bound_to 7997
  155.5786  140.3467  155.4536 H   0  0  0  0  0  0  0  0  0  0  0  0  # atno 8010 bound_to 7997
  140.3170  143.3071  152.0087 H   0  0  0  0  0  0  0  0  0  0  0  0  # atno 10167 bound_to 10162
  156.0984  130.6151  150.9073 H   0  0  0  0  0  0  0  0  0  0  0  0  # atno 10718 bound_to 10713
  154.8588  135.3562  154.5659 H   0  0  0  0  0  0  0  0  0  0  0  0  # atno 10763 bound_to 10752
  153.6273  135.7003  153.5293 H   0  0  0  0  0  0  0  0  0  0  0  0  # atno 10764 bound_to 10752
  153.3078  135.4187  155.1269 H   0  0  0  0  0  0  0  0  0  0  0  0  # atno 10765 bound_to 10752
  139.9635  134.9596  156.9200 H   0  0  0  0  0  0  0  0  0  0  0  0  # atno 11005 bound_to 11000
  145.9672  140.8789  143.0181 LP  0  0  0  0  0  0  0  0  0  0  0  0  # atno 17320 bound_to 7965
  144.6747  140.1894  143.7398 LP  0  0  0  0  0  0  0  0  0  0  0  0  # atno 17321 bound_to 7965
  139.4882  144.6341  151.7012 LP  0  0  0  0  0  0  0  0  0  0  0  0  # atno 17342 bound_to 10162
  140.5518  144.0413  150.6130 LP  0  0  0  0  0  0  0  0  0  0  0  0  # atno 17343 bound_to 10162
  157.6149  131.0934  150.8728 LP  0  0  0  0  0  0  0  0  0  0  0  0  # atno 17370 bound_to 10713
  156.8861  130.5196  149.5288 LP  0  0  0  0  0  0  0  0  0  0  0  0  # atno 17371 bound_to 10713
  140.5447  134.0685  155.7351 LP  0  0  0  0  0  0  0  0  0  0  0  0  # atno 17394 bound_to 11000
  141.1314  133.9296  157.2527 LP  0  0  0  0  0  0  0  0  0  0  0  0  # atno 17395 bound_to 11000

$$$$
