AV-unprocessed.smi:2903|AV-procd|sdf|11159|dock1
  -GOLD-   2272016 43D 1   1.00000     0.00000
 Structure written by MMmdl.
 40 41  0  0  0  0  0  0  0  0  1 V2000
  153.1340  133.5725  165.3554 C   0  0  0  0  0  0  0  0  0  0  0  0
  154.2131  133.7577  164.2901 C   0  0  0  0  0  0  0  0  0  0  0  0
  155.1428  132.9533  164.2402 O   0  0  0  0  0  0  0  0  0  0  0  0
  154.0759  134.9132  163.3621 C   0  0  0  0  0  0  0  0  0  0  0  0
  154.4857  134.8544  162.0117 C   0  0  0  0  0  0  0  0  0  0  0  0
  154.3252  135.9906  161.1957 C   0  0  0  0  0  0  0  0  0  0  0  0
  153.7586  137.1639  161.7388 C   0  0  0  0  0  0  0  0  0  0  0  0
  153.6482  138.2520  160.8339 N   0  0  0  0  0  0  0  0  0  0  0  0
  153.8680  139.5592  161.0675 C   0  0  0  0  0  0  0  0  0  0  0  0
  154.1845  140.0375  162.1566 O   0  0  0  0  0  0  0  0  0  0  0  0
  153.6804  140.4806  159.8654 C   0  0  0  0  0  0  0  0  0  0  0  0
  152.5851  141.3472  160.1258 O   0  0  0  0  0  0  0  0  0  0  0  0
  152.9001  142.7299  160.0352 C   0  0  0  0  0  0  0  0  0  0  0  0
  151.9155  143.5647  160.8806 C   0  0  0  0  0  0  0  0  0  0  0  0
  152.1535  145.0720  160.6913 C   0  0  0  0  0  0  0  0  0  0  0  0
  152.0835  145.4685  159.2078 C   0  0  0  0  0  0  0  0  0  0  0  0
  153.0607  144.6355  158.3635 C   0  0  0  0  0  0  0  0  0  0  0  0
  152.8115  143.1305  158.5523 C   0  0  0  0  0  0  0  0  0  0  0  0
  153.3641  137.2177  163.0341 N   0  0  0  0  0  0  0  0  0  0  0  0
  153.5192  136.1288  163.8166 C   0  0  0  0  0  0  0  0  0  0  0  0
  152.1565  133.4417  164.8905 H   0  0  0  0  0  0  0  0  0  0  0  0
  153.0964  134.4393  166.0155 H   0  0  0  0  0  0  0  0  0  0  0  0
  153.3433  132.6910  165.9622 H   0  0  0  0  0  0  0  0  0  0  0  0
  154.9199  133.9617  161.5869 H   0  0  0  0  0  0  0  0  0  0  0  0
  154.6367  135.9566  160.1615 H   0  0  0  0  0  0  0  0  0  0  0  0
  153.3793  138.0095  159.8915 H   0  0  0  0  0  0  0  0  0  0  0  0
  154.6014  141.0411  159.7031 H   0  0  0  0  0  0  0  0  0  0  0  0
  153.4887  139.8874  158.9695 H   0  0  0  0  0  0  0  0  0  0  0  0
  153.9225  142.9049  160.3755 H   0  0  0  0  0  0  0  0  0  0  0  0
  150.8914  143.3206  160.5953 H   0  0  0  0  0  0  0  0  0  0  0  0
  152.0086  143.3158  161.9374 H   0  0  0  0  0  0  0  0  0  0  0  0
  151.4172  145.6388  161.2617 H   0  0  0  0  0  0  0  0  0  0  0  0
  153.1306  145.3400  161.0954 H   0  0  0  0  0  0  0  0  0  0  0  0
  151.0674  145.3240  158.8384 H   0  0  0  0  0  0  0  0  0  0  0  0
  152.3054  146.5299  159.0953 H   0  0  0  0  0  0  0  0  0  0  0  0
  152.9620  144.8999  157.3104 H   0  0  0  0  0  0  0  0  0  0  0  0
  154.0862  144.8747  158.6477 H   0  0  0  0  0  0  0  0  0  0  0  0
  153.5353  142.5597  157.9697 H   0  0  0  0  0  0  0  0  0  0  0  0
  151.8268  142.8732  158.1595 H   0  0  0  0  0  0  0  0  0  0  0  0
  153.1859  136.2422  164.8380 H   0  0  0  0  0  0  0  0  0  0  0  0
  1  2  1  0  0  0  0
  1 21  1  0  0  0  0
  1 22  1  0  0  0  0
  1 23  1  0  0  0  0
  2  3  2  0  0  0  0
  2  4  1  0  0  0  0
  4 20  1  0  0  0  0
  4  5  2  0  0  0  0
  5  6  1  0  0  0  0
  5 24  1  0  0  0  0
  6  7  2  0  0  0  0
  6 25  1  0  0  0  0
  7  8  1  0  0  0  0
  7 19  1  0  0  0  0
  8  9  1  0  0  0  0
  8 26  1  0  0  0  0
  9 10  2  0  0  0  0
  9 11  1  0  0  0  0
 11 12  1  0  0  0  0
 11 27  1  0  0  0  0
 11 28  1  0  0  0  0
 12 13  1  0  0  0  0
 13 18  1  0  0  0  0
 13 14  1  0  0  0  0
 13 29  1  0  0  0  0
 14 15  1  0  0  0  0
 14 30  1  0  0  0  0
 14 31  1  0  0  0  0
 15 16  1  0  0  0  0
 15 32  1  0  0  0  0
 15 33  1  0  0  0  0
 16 17  1  0  0  0  0
 16 34  1  0  0  0  0
 16 35  1  0  0  0  0
 17 18  1  0  0  0  0
 17 36  1  0  0  0  0
 17 37  1  0  0  0  0
 18 38  1  0  0  0  0
 18 39  1  0  0  0  0
 19 20  2  0  0  0  0
 20 40  1  0  0  0  0
M  END
> <s_m_source_file>
AV-unprocessed.smi

> <i_m_source_file_index>
2903

> <i_lp_mmshare_version>
43012

> <i_f3d_flags>
0

> <s_epik_input>
W0NIM11DKD1PKWMxW2NIXVtjSF1jKG5bY0hdMSlbTkhdQyg9TylbQ0gyXU9bQ0hdMltDSDJdW0NIMl1bQ0gyXVtDSDJdW0NIMl0y

> <s_epik_cmdline>
J2VwaWtfcHl0aG9uJywgJy1waCcsICc3LjAnLCAnLXRuJywgJzgnLCAnLW1hJywgJzIwMCcsICctbWV0YWxfYmluZGluZycsICctaW1hZScsICc8aW5maWxlLm1hZT4nLCAnLW9tYWUnLCAnPG91dGZpbGUubWFlPic=

> <r_lp_tautomer_probability>
1

> <r_epik_Ionization_Penalty>
3.51143e-05

> <r_epik_Ionization_Penalty_Charging>
0

> <r_epik_Ionization_Penalty_Neutral>
3.51143e-05

> <r_epik_State_Penalty>
-0

> <r_epik_Charging_Adjusted_Penalty>
0

> <i_epik_Tot_Q>
0

> <i_epik_Tot_abs_Q>
0

> <r_epik_Metal_State_Penalty>
-0

> <b_epik_Metal_Only>
0

> <s_lp_Force_Field>
OPLS_2005

> <r_lp_Energy>
19.6274

> <b_lp_Chiralities_Consistent>
1

> <s_lp_Variant>
AV-unprocessed.smi:2903-1

> <Gold.Version>
5.8.1

> <Gold.Id.Protein>
6NUR|6NUR_protein|mol2

> <Gold.PLP.Fitness>
42.1135

> <Gold.PLP.PLP>
-44.8136

> <Gold.PLP.part.hbond>
0.0000

> <Gold.PLP.part.metal>
0.0000

> <Gold.PLP.part.buried>
-5.5735

> <Gold.PLP.part.nonpolar>
-39.6038

> <Gold.PLP.part.repulsive>
0.0364

> <Gold.PLP.ligand.clash>
0.0000

> <Gold.PLP.ligand.torsion>
1.4335

> <Gold.PLP.Chemscore.Hbond>
0.0000

> <Gold.PLP.Chemscore.CHOScore>
0.0000

> <Gold.PLP.Chemscore.Metal>
0.0000

> <Gold.PLP.Chemscore.Internal.Correction>
0.1670

> <Gold.Rescore>
     Score         DG    S(hbond)    S(metal)    S(lipo)     H(rot)  DE(clash)    DE(int)     intcor
     13.93     -15.91       0.00        0.00     120.32       1.43       0.15       1.83       ----

> <Gold.Chemscore.Fitness>
13.9310

> <Gold.Chemscore.DG>
-15.9057

> <Gold.Chemscore.ZeroCoef>
-5.4800

> <Gold.Chemscore.Hbond>
0.0000

> <Gold.Chemscore.Metal>
0.0000

> <Gold.Chemscore.Lipo>
120.3188

> <Gold.Chemscore.Internal_Hbond>
0.0000

> <Gold.Chemscore.DEClash>
0.1458

> <Gold.Chemscore.DEInternal>
1.8290

> <Gold.Chemscore.Rot>
1.4264

> <Gold.Chemscore.Internal.Correction>
   9.000000E+99

> <Gold.Chemscore.Hbond.Weighted>
-0.0000

> <Gold.Chemscore.Metal.Weighted>
-0.0000

> <Gold.Chemscore.Lipo.Weighted>
-14.0773

> <Gold.Chemscore.Internal_Hbond.Weighted>
0.0000

> <Gold.Chemscore.DEClash.Weighted>
0.1458

> <Gold.Chemscore.DEInternal.Weighted>
1.8290

> <Gold.Chemscore.Rot.Weighted>
3.6516

> <Gold.Chemscore.Internal.Correction.Weighted>
   9.000000E+99

> <Gold.Protein.RotatedTorsions>
[ 6907 6896 6895 6894 ] final  144.95 input  -60.11 | X-H torsion
[ 7974 7965 7964 7962 ] final -151.92 input  175.53 | X-H torsion
[ 8008 7997 7996 7995 ] final  -31.80 input   59.86 | X-H torsion
[ 10167 10162 10161 10158 ] final  -19.00 input  -65.29 | X-H torsion
[ 10718 10713 10712 10709 ] final   -9.23 input   66.30 | X-H torsion
[ 10763 10752 10751 10750 ] final  123.71 input  -60.55 | X-H torsion
[ 11005 11000 10999 10996 ] final    7.58 input  -57.11 | X-H torsion

> <Gold.Protein.ActiveResidues>
 VAL166  LYS551  ARG553  GLY616  TRP617  ASP618  TYR619  PRO620  LYS621  CYS622 
 ASP623  PHE694  ASN695  SER759  ASP760  ASP761  ALA762  ILE779  LEU786  VAL792 
 PHE793  MET794  SER795  GLU796  ALA797  LYS798  CYS799  TRP800  GLU811  SER814 

> <Gold.Protein.RotatedAtoms>
  152.1871  133.4747  159.4988 H   0  0  0  0  0  0  0  0  0  0  0  0  # atno 6907 bound_to 6896
  150.6944  134.1760  159.4239 H   0  0  0  0  0  0  0  0  0  0  0  0  # atno 6908 bound_to 6896
  151.9673  135.0094  160.0601 H   0  0  0  0  0  0  0  0  0  0  0  0  # atno 6909 bound_to 6896
  144.7823  140.4732  143.5831 H   0  0  0  0  0  0  0  0  0  0  0  0  # atno 7974 bound_to 7965
  154.4201  140.1754  156.1625 H   0  0  0  0  0  0  0  0  0  0  0  0  # atno 8008 bound_to 7997
  155.9827  140.3376  155.6653 H   0  0  0  0  0  0  0  0  0  0  0  0  # atno 8009 bound_to 7997
  155.6479  140.0687  157.2587 H   0  0  0  0  0  0  0  0  0  0  0  0  # atno 8010 bound_to 7997
  140.7264  143.4861  151.0053 H   0  0  0  0  0  0  0  0  0  0  0  0  # atno 10167 bound_to 10162
  156.6911  130.5065  149.5943 H   0  0  0  0  0  0  0  0  0  0  0  0  # atno 10718 bound_to 10713
  153.6498  135.3365  155.3096 H   0  0  0  0  0  0  0  0  0  0  0  0  # atno 10763 bound_to 10752
  154.8540  135.4338  154.1916 H   0  0  0  0  0  0  0  0  0  0  0  0  # atno 10764 bound_to 10752
  153.2856  135.7012  153.7417 H   0  0  0  0  0  0  0  0  0  0  0  0  # atno 10765 bound_to 10752
  140.5467  134.0323  155.7922 H   0  0  0  0  0  0  0  0  0  0  0  0  # atno 11005 bound_to 11000
  145.6018  139.1504  143.3125 LP  0  0  0  0  0  0  0  0  0  0  0  0  # atno 17320 bound_to 7965
  146.2037  140.6138  142.9091 LP  0  0  0  0  0  0  0  0  0  0  0  0  # atno 17321 bound_to 7965
  139.8563  143.7373  152.3176 LP  0  0  0  0  0  0  0  0  0  0  0  0  # atno 17342 bound_to 10162
  139.7572  144.7517  151.0417 LP  0  0  0  0  0  0  0  0  0  0  0  0  # atno 17343 bound_to 10162
  156.1797  130.6491  151.0937 LP  0  0  0  0  0  0  0  0  0  0  0  0  # atno 17370 bound_to 10713
  157.7008  131.0776  150.6824 LP  0  0  0  0  0  0  0  0  0  0  0  0  # atno 17371 bound_to 10713
  141.1196  133.9484  157.2756 LP  0  0  0  0  0  0  0  0  0  0  0  0  # atno 17394 bound_to 11000
  139.9476  135.0181  156.8899 LP  0  0  0  0  0  0  0  0  0  0  0  0  # atno 17395 bound_to 11000

$$$$
