AV-unprocessed.smi:1023|AV-procd|sdf|4463|dock2
  -GOLD-   22720 2433D 1   1.00000     0.00000
 Structure written by MMmdl.
 31 32  0  0  0  0  0  0  0  0  2 V2000
  152.3559  143.6698  159.4595 C   0  0  0  0  0  0  0  0  0  0  0  0
  152.4089  142.5975  160.5574 C   0  0  0  0  0  0  0  0  0  0  0  0
  152.4945  143.2475  161.9504 C   0  0  0  0  0  0  0  0  0  0  0  0
  153.5601  141.6063  160.2977 C   0  0  0  0  0  0  0  0  0  0  0  0
  153.4700  141.0318  158.9620 N   0  0  0  0  0  0  0  0  0  0  0  0
  152.4417  140.3099  158.4799 C   0  0  0  0  0  0  0  0  0  0  0  0
  151.4881  140.0677  159.2186 O   0  0  0  0  0  0  0  0  0  0  0  0
  152.5157  139.8875  157.1898 N   0  5  0  0  0  0  0  0  0  0  0  0
  151.5397  140.1311  156.2949 C   0  0  0  0  0  0  0  0  0  0  0  0
  151.4515  139.4770  155.1284 N   0  0  0  0  0  0  0  0  0  0  0  0
  150.3882  139.9015  154.3454 N   0  0  0  0  0  0  0  0  0  0  0  0
  149.6787  140.8646  154.9383 C   0  0  0  0  0  0  0  0  0  0  0  0
  148.4899  141.4939  154.2927 C   0  0  0  0  0  0  0  0  0  0  0  0
  147.1401  141.4683  154.9719 C   0  0  0  0  0  0  0  0  0  0  0  0
  147.3643  140.6615  153.7184 C   0  0  0  0  0  0  0  0  0  0  0  0
  150.2622  141.3235  156.5301 S   0  0  0  0  0  0  0  0  0  0  0  0
  153.2638  144.2737  159.4517 H   0  0  0  0  0  0  0  0  0  0  0  0
  151.5100  144.3420  159.6066 H   0  0  0  0  0  0  0  0  0  0  0  0
  152.2483  143.2177  158.4733 H   0  0  0  0  0  0  0  0  0  0  0  0
  151.4729  142.0390  160.5126 H   0  0  0  0  0  0  0  0  0  0  0  0
  153.4266  143.8003  162.0712 H   0  0  0  0  0  0  0  0  0  0  0  0
  152.4427  142.5045  162.7469 H   0  0  0  0  0  0  0  0  0  0  0  0
  151.6717  143.9449  162.1081 H   0  0  0  0  0  0  0  0  0  0  0  0
  154.5204  142.1137  160.4018 H   0  0  0  0  0  0  0  0  0  0  0  0
  153.5400  140.8028  161.0356 H   0  0  0  0  0  0  0  0  0  0  0  0
  154.2458  141.2073  158.3406 H   0  0  0  0  0  0  0  0  0  0  0  0
  148.7762  142.3998  153.7619 H   0  0  0  0  0  0  0  0  0  0  0  0
  147.0563  140.9232  155.9102 H   0  0  0  0  0  0  0  0  0  0  0  0
  146.5223  142.3605  154.8932 H   0  0  0  0  0  0  0  0  0  0  0  0
  146.8965  141.0157  152.8022 H   0  0  0  0  0  0  0  0  0  0  0  0
  147.4143  139.5799  153.8270 H   0  0  0  0  0  0  0  0  0  0  0  0
  1  2  1  0  0  0  0
  1 17  1  0  0  0  0
  1 18  1  0  0  0  0
  1 19  1  0  0  0  0
  2  3  1  0  0  0  0
  2  4  1  0  0  0  0
  2 20  1  0  0  0  0
  3 21  1  0  0  0  0
  3 22  1  0  0  0  0
  3 23  1  0  0  0  0
  4  5  1  0  0  0  0
  4 24  1  0  0  0  0
  4 25  1  0  0  0  0
  5  6  1  0  0  0  0
  5 26  1  0  0  0  0
  6  7  2  0  0  0  0
  6  8  1  0  0  0  0
  8  9  1  0  0  0  0
  9 16  1  0  0  0  0
  9 10  2  0  0  0  0
 10 11  1  0  0  0  0
 11 12  2  0  0  0  0
 12 13  1  0  0  0  0
 12 16  1  0  0  0  0
 13 15  1  0  0  0  0
 13 14  1  0  0  0  0
 13 27  1  0  0  0  0
 14 15  1  0  0  0  0
 14 28  1  0  0  0  0
 14 29  1  0  0  0  0
 15 30  1  0  0  0  0
 15 31  1  0  0  0  0
M  CHG  1   8  -1
M  END
> <s_m_source_file>
AV-unprocessed.smi

> <i_m_source_file_index>
1023

> <i_lp_mmshare_version>
43012

> <i_f3d_flags>
0

> <s_epik_input>
W0NIM11bQ0hdKFtDSDNdKVtDSDJdW05IXUMoPU8pW05IXWMxbm5jKHMxKVtDSF0yW0NIMl1bQ0gyXTI=

> <s_epik_cmdline>
J2VwaWtfcHl0aG9uJywgJy1waCcsICc3LjAnLCAnLXRuJywgJzgnLCAnLW1hJywgJzIwMCcsICctbWV0YWxfYmluZGluZycsICctaW1hZScsICc8aW5maWxlLm1hZT4nLCAnLW9tYWUnLCAnPG91dGZpbGUubWFlPic=

> <r_lp_tautomer_probability>
1

> <r_epik_Ionization_Penalty>
3.99087

> <r_epik_Ionization_Penalty_Charging>
3.83446

> <r_epik_Ionization_Penalty_Neutral>
0.156418

> <r_epik_State_Penalty>
3.83354

> <r_epik_Charging_Adjusted_Penalty>
7.668

> <i_epik_Tot_Q>
-1

> <i_epik_Tot_abs_Q>
1

> <r_epik_Metal_State_Penalty>
0.575872

> <b_epik_Metal_Only>
1

> <s_lp_Force_Field>
OPLS_2005

> <r_lp_Energy>
2.18617

> <b_lp_Chiralities_Consistent>
1

> <s_lp_Variant>
AV-unprocessed.smi:1023-2

> <Gold.Version>
5.8.1

> <Gold.Id.Protein>
6NUR|6NUR_protein|mol2

> <Gold.PLP.Fitness>
42.7156

> <Gold.PLP.PLP>
-36.7308

> <Gold.PLP.part.hbond>
-2.9389

> <Gold.PLP.part.metal>
0.0000

> <Gold.PLP.part.buried>
-1.4462

> <Gold.PLP.part.nonpolar>
-32.5205

> <Gold.PLP.part.repulsive>
0.2835

> <Gold.PLP.ligand.clash>
0.0000

> <Gold.PLP.ligand.torsion>
0.6265

> <Gold.PLP.Chemscore.Hbond>
2.3500

> <Gold.PLP.Chemscore.CHOScore>
0.0000

> <Gold.PLP.Chemscore.Metal>
0.0000

> <Gold.Chemscore.Hbonds>
donor molecule, donor type, donor heavy atom, donor atom, acceptor molecule, acceptor atom, score
      P1  H  7989  7998       L1    11  0.25
      P1  H  7997  8010       L1     8  2.00

> <Gold.PLP.Chemscore.Internal.Correction>
0.1877

> <Gold.Rescore>
     Score         DG    S(hbond)    S(metal)    S(lipo)     H(rot)  DE(clash)    DE(int)     intcor
     13.41     -14.13       0.82        0.00      80.96       1.39       0.12       0.60       ----

> <Gold.Chemscore.Fitness>
13.4110

> <Gold.Chemscore.DG>
-14.1301

> <Gold.Chemscore.ZeroCoef>
-5.4800

> <Gold.Chemscore.Hbond>
0.8199

> <Gold.Chemscore.Metal>
0.0000

> <Gold.Chemscore.Lipo>
80.9636

> <Gold.Chemscore.Internal_Hbond>
0.0000

> <Gold.Chemscore.DEClash>
0.1223

> <Gold.Chemscore.DEInternal>
0.5968

> <Gold.Chemscore.Rot>
1.3911

> <Gold.Chemscore.Internal.Correction>
   9.000000E+99

> <Gold.Chemscore.Hbonds>
donor molecule, donor type, donor heavy atom, donor atom, acceptor molecule, acceptor atom, score
      P1  H  7997  8010       L1     8  0.67

> <Gold.Chemscore.Hbond.Weighted>
-2.7385

> <Gold.Chemscore.Metal.Weighted>
-0.0000

> <Gold.Chemscore.Lipo.Weighted>
-9.4727

> <Gold.Chemscore.Internal_Hbond.Weighted>
0.0000

> <Gold.Chemscore.DEClash.Weighted>
0.1223

> <Gold.Chemscore.DEInternal.Weighted>
0.5968

> <Gold.Chemscore.Rot.Weighted>
3.5612

> <Gold.Chemscore.Internal.Correction.Weighted>
   9.000000E+99

> <Gold.Protein.RotatedTorsions>
[ 6907 6896 6895 6894 ] final  -15.83 input  -60.11 | X-H torsion
[ 7974 7965 7964 7962 ] final   64.64 input  175.53 | X-H torsion
[ 8008 7997 7996 7995 ] final   67.46 input   59.86 | X-H torsion
[ 10167 10162 10161 10158 ] final   48.92 input  -65.29 | X-H torsion
[ 10718 10713 10712 10709 ] final   32.18 input   66.30 | X-H torsion
[ 10763 10752 10751 10750 ] final   40.88 input  -60.55 | X-H torsion
[ 11005 11000 10999 10996 ] final  -53.55 input  -57.11 | X-H torsion

> <Gold.Protein.ActiveResidues>
 VAL166  LYS551  ARG553  GLY616  TRP617  ASP618  TYR619  PRO620  LYS621  CYS622 
 ASP623  PHE694  ASN695  SER759  ASP760  ASP761  ALA762  ILE779  LEU786  VAL792 
 PHE793  MET794  SER795  GLU796  ALA797  LYS798  CYS799  TRP800  GLU811  SER814 

> <Gold.Protein.RotatedAtoms>
  151.3179  135.0811  159.9295 H   0  0  0  0  0  0  0  0  0  0  0  0  # atno 6907 bound_to 6896
  152.5263  133.9669  159.7754 H   0  0  0  0  0  0  0  0  0  0  0  0  # atno 6908 bound_to 6896
  150.9984  133.6028  159.2728 H   0  0  0  0  0  0  0  0  0  0  0  0  # atno 6909 bound_to 6896
  145.8478  139.3235  143.0893 H   0  0  0  0  0  0  0  0  0  0  0  0  # atno 7974 bound_to 7965
  155.6933  140.3496  155.4902 H   0  0  0  0  0  0  0  0  0  0  0  0  # atno 8008 bound_to 7997
  155.9505  140.1118  157.1003 H   0  0  0  0  0  0  0  0  0  0  0  0  # atno 8009 bound_to 7997
  154.4121  140.1195  156.5032 H   0  0  0  0  0  0  0  0  0  0  0  0  # atno 8010 bound_to 7997
  140.2883  144.3076  150.6247 H   0  0  0  0  0  0  0  0  0  0  0  0  # atno 10167 bound_to 10162
  157.2820  130.7260  149.6562 H   0  0  0  0  0  0  0  0  0  0  0  0  # atno 10718 bound_to 10713
  152.9924  135.6178  154.2697 H   0  0  0  0  0  0  0  0  0  0  0  0  # atno 10763 bound_to 10752
  154.2430  135.2788  155.2848 H   0  0  0  0  0  0  0  0  0  0  0  0  # atno 10764 bound_to 10752
  154.5353  135.5776  153.6851 H   0  0  0  0  0  0  0  0  0  0  0  0  # atno 10765 bound_to 10752
  141.0981  133.6621  156.4188 H   0  0  0  0  0  0  0  0  0  0  0  0  # atno 11005 bound_to 11000
  145.9392  140.8992  143.0316 LP  0  0  0  0  0  0  0  0  0  0  0  0  # atno 17320 bound_to 7965
  144.6730  140.1525  143.7429 LP  0  0  0  0  0  0  0  0  0  0  0  0  # atno 17321 bound_to 7965
  140.5754  143.2177  151.7524 LP  0  0  0  0  0  0  0  0  0  0  0  0  # atno 17342 bound_to 10162
  139.4944  144.4157  152.0033 LP  0  0  0  0  0  0  0  0  0  0  0  0  # atno 17343 bound_to 10162
  155.9664  130.4335  150.5009 LP  0  0  0  0  0  0  0  0  0  0  0  0  # atno 17370 bound_to 10713
  157.2955  131.0635  151.2104 LP  0  0  0  0  0  0  0  0  0  0  0  0  # atno 17371 bound_to 10713
  140.5089  134.6414  157.5277 LP  0  0  0  0  0  0  0  0  0  0  0  0  # atno 17394 bound_to 11000
  139.9824  134.7116  155.9835 LP  0  0  0  0  0  0  0  0  0  0  0  0  # atno 17395 bound_to 11000

$$$$
