AV-unprocessed.smi:2474|AV-procd|sdf|9754|dock2
  -GOLD-   2272013393D 1   1.00000     0.00000
 Structure written by MMmdl.
 40 41  0  0  0  0  0  0  0  0  1 V2000
  144.1335  145.2139  154.1578 C   0  0  0  0  0  0  0  0  0  0  0  0
  144.9075  143.9995  154.5433 C   0  0  0  0  0  0  0  0  0  0  0  0
  144.8425  143.3013  155.7235 C   0  0  0  0  0  0  0  0  0  0  0  0
  145.6870  142.1903  155.7693 N   0  0  0  0  0  0  0  0  0  0  0  0
  146.3917  142.0360  154.6446 C   0  0  0  0  0  0  0  0  0  0  0  0
  147.3156  140.8817  154.3913 C   0  0  1  0  0  0  0  0  0  0  0  0
  146.8169  139.9824  153.2510 C   0  0  0  0  0  0  0  0  0  0  0  0
  148.7917  141.3083  154.2217 C   0  0  0  0  0  0  0  0  0  0  0  0
  149.2420  142.1659  155.3164 N   0  0  0  0  0  0  0  0  0  0  0  0
  149.6956  141.7354  156.5022 C   0  0  0  0  0  0  0  0  0  0  0  0
  149.6718  140.5603  156.8680 O   0  0  0  0  0  0  0  0  0  0  0  0
  150.2368  142.7317  157.2158 N   0  0  0  0  0  0  0  0  0  0  0  0
  150.9708  142.5603  158.4657 C   0  0  1  0  0  0  0  0  0  0  0  0
  152.0077  141.4256  158.3153 C   0  0  0  0  0  0  0  0  0  0  0  0
  152.7876  141.1585  159.6116 C   0  0  0  0  0  0  0  0  0  0  0  0
  153.5805  142.3863  160.0803 C   0  0  0  0  0  0  0  0  0  0  0  0
  152.4780  143.7768  160.4533 S   0  0  0  0  0  0  0  0  0  0  0  0
  151.6354  143.8931  158.8511 C   0  0  0  0  0  0  0  0  0  0  0  0
  146.0583  143.2828  153.4466 S   0  0  0  0  0  0  0  0  0  0  0  0
  143.4425  145.5066  154.9488 H   0  0  0  0  0  0  0  0  0  0  0  0
  143.5513  145.0300  153.2546 H   0  0  0  0  0  0  0  0  0  0  0  0
  144.8017  146.0536  153.9661 H   0  0  0  0  0  0  0  0  0  0  0  0
  144.2188  143.5183  156.5780 H   0  0  0  0  0  0  0  0  0  0  0  0
  147.2781  140.2669  155.2917 H   0  0  0  0  0  0  0  0  0  0  0  0
  145.8076  139.6207  153.4492 H   0  0  0  0  0  0  0  0  0  0  0  0
  147.4615  139.1120  153.1274 H   0  0  0  0  0  0  0  0  0  0  0  0
  146.7987  140.5189  152.3018 H   0  0  0  0  0  0  0  0  0  0  0  0
  149.4318  140.4259  154.2018 H   0  0  0  0  0  0  0  0  0  0  0  0
  148.9321  141.8063  153.2607 H   0  0  0  0  0  0  0  0  0  0  0  0
  149.3000  143.1544  155.1200 H   0  0  0  0  0  0  0  0  0  0  0  0
  150.2068  143.6640  156.8304 H   0  0  0  0  0  0  0  0  0  0  0  0
  150.2626  142.2944  159.2530 H   0  0  0  0  0  0  0  0  0  0  0  0
  151.5062  140.5041  158.0163 H   0  0  0  0  0  0  0  0  0  0  0  0
  152.7057  141.6636  157.5115 H   0  0  0  0  0  0  0  0  0  0  0  0
  152.1008  140.8397  160.3967 H   0  0  0  0  0  0  0  0  0  0  0  0
  153.4742  140.3269  159.4506 H   0  0  0  0  0  0  0  0  0  0  0  0
  154.1540  142.1458  160.9757 H   0  0  0  0  0  0  0  0  0  0  0  0
  154.2946  142.6933  159.3154 H   0  0  0  0  0  0  0  0  0  0  0  0
  152.3596  144.1947  158.0932 H   0  0  0  0  0  0  0  0  0  0  0  0
  150.8898  144.6862  158.9149 H   0  0  0  0  0  0  0  0  0  0  0  0
  1  2  1  0  0  0  0
  1 20  1  0  0  0  0
  1 21  1  0  0  0  0
  1 22  1  0  0  0  0
  2 19  1  0  0  0  0
  2  3  2  0  0  0  0
  3  4  1  0  0  0  0
  3 23  1  0  0  0  0
  4  5  2  0  0  0  0
  5  6  1  0  0  0  0
  5 19  1  0  0  0  0
  6  7  1  0  0  0  0
  6  8  1  0  0  0  0
  6 24  1  0  0  0  0
  7 25  1  0  0  0  0
  7 26  1  0  0  0  0
  7 27  1  0  0  0  0
  8  9  1  0  0  0  0
  8 28  1  0  0  0  0
  8 29  1  0  0  0  0
  9 10  1  0  0  0  0
  9 30  1  0  0  0  0
 10 11  2  0  0  0  0
 10 12  1  0  0  0  0
 12 13  1  0  0  0  0
 12 31  1  0  0  0  0
 13 18  1  0  0  0  0
 13 14  1  0  0  0  0
 13 32  1  0  0  0  0
 14 15  1  0  0  0  0
 14 33  1  0  0  0  0
 14 34  1  0  0  0  0
 15 16  1  0  0  0  0
 15 35  1  0  0  0  0
 15 36  1  0  0  0  0
 16 17  1  0  0  0  0
 16 37  1  0  0  0  0
 16 38  1  0  0  0  0
 17 18  1  0  0  0  0
 18 39  1  0  0  0  0
 18 40  1  0  0  0  0
M  END
> <s_m_source_file>
AV-unprocessed.smi

> <i_m_source_file_index>
2474

> <i_lp_mmshare_version>
43012

> <i_f3d_flags>
0

> <s_epik_input>
W0NIM11jMVtjSF1uYyhzMSlbQ0BIXShbQ0gzXSlbQ0gyXVtOSF1DKD1PKVtOSF1bQ0BASF0yW0NIMl1bQ0gyXVtDSDJdU1tDSDJdMg==

> <s_epik_cmdline>
J2VwaWtfcHl0aG9uJywgJy1waCcsICc3LjAnLCAnLXRuJywgJzgnLCAnLW1hJywgJzIwMCcsICctbWV0YWxfYmluZGluZycsICctaW1hZScsICc8aW5maWxlLm1hZT4nLCAnLW9tYWUnLCAnPG91dGZpbGUubWFlPic=

> <r_epik_Ionization_Penalty>
0.000644338

> <r_epik_Ionization_Penalty_Charging>
0

> <r_epik_Ionization_Penalty_Neutral>
0.000644338

> <r_epik_State_Penalty>
0.000374131

> <r_epik_Charging_Adjusted_Penalty>
0.000374131

> <i_epik_Tot_Q>
0

> <i_epik_Tot_abs_Q>
0

> <r_epik_Metal_State_Penalty>
-0

> <b_epik_Metal_Only>
0

> <s_lp_Force_Field>
OPLS_2005

> <r_lp_Energy>
-6.83814

> <b_lp_Chiralities_Consistent>
1

> <s_lp_Variant>
AV-unprocessed.smi:2474-4

> <Gold.Version>
5.8.1

> <Gold.Id.Protein>
6NUR|6NUR_protein|mol2

> <Gold.PLP.Fitness>
44.9805

> <Gold.PLP.PLP>
-40.2649

> <Gold.PLP.part.hbond>
-2.0000

> <Gold.PLP.part.metal>
0.0000

> <Gold.PLP.part.buried>
-6.6062

> <Gold.PLP.part.nonpolar>
-32.8954

> <Gold.PLP.part.repulsive>
0.3343

> <Gold.PLP.ligand.clash>
0.0000

> <Gold.PLP.ligand.torsion>
0.3522

> <Gold.PLP.Chemscore.Hbond>
1.7533

> <Gold.PLP.Chemscore.CHOScore>
0.0000

> <Gold.PLP.Chemscore.Metal>
0.0000

> <Gold.Chemscore.Hbonds>
donor molecule, donor type, donor heavy atom, donor atom, acceptor molecule, acceptor atom, score
      L1  H     9    30       P1  8028  0.93
      L1  H    12    31       P1  8028  0.69

> <Gold.PLP.Chemscore.Internal.Correction>
0.1602

> <Gold.Rescore>
     Score         DG    S(hbond)    S(metal)    S(lipo)     H(rot)  DE(clash)    DE(int)     intcor
     20.13     -20.57       1.80        0.00     109.68       1.46       0.10       0.34       ----

> <Gold.Chemscore.Fitness>
20.1339

> <Gold.Chemscore.DG>
-20.5742

> <Gold.Chemscore.ZeroCoef>
-5.4800

> <Gold.Chemscore.Hbond>
1.7974

> <Gold.Chemscore.Metal>
0.0000

> <Gold.Chemscore.Lipo>
109.6791

> <Gold.Chemscore.Internal_Hbond>
0.0000

> <Gold.Chemscore.DEClash>
0.0991

> <Gold.Chemscore.DEInternal>
0.3412

> <Gold.Chemscore.Rot>
1.4616

> <Gold.Chemscore.Internal.Correction>
   9.000000E+99

> <Gold.Chemscore.Hbonds>
donor molecule, donor type, donor heavy atom, donor atom, acceptor molecule, acceptor atom, score
      L1  H     9    30       P1  8028  0.90
      L1  H    12    31       P1  8028  0.66

> <Gold.Chemscore.Hbond.Weighted>
-6.0034

> <Gold.Chemscore.Metal.Weighted>
-0.0000

> <Gold.Chemscore.Lipo.Weighted>
-12.8325

> <Gold.Chemscore.Internal_Hbond.Weighted>
0.0000

> <Gold.Chemscore.DEClash.Weighted>
0.0991

> <Gold.Chemscore.DEInternal.Weighted>
0.3412

> <Gold.Chemscore.Rot.Weighted>
3.7416

> <Gold.Chemscore.Internal.Correction.Weighted>
   9.000000E+99

> <Gold.Protein.RotatedTorsions>
[ 6907 6896 6895 6894 ] final  -41.38 input  -60.11 | X-H torsion
[ 7974 7965 7964 7962 ] final   -6.00 input  175.53 | X-H torsion
[ 8008 7997 7996 7995 ] final  -71.77 input   59.86 | X-H torsion
[ 10167 10162 10161 10158 ] final  -37.26 input  -65.29 | X-H torsion
[ 10718 10713 10712 10709 ] final  -64.28 input   66.30 | X-H torsion
[ 10763 10752 10751 10750 ] final -149.96 input  -60.55 | X-H torsion
[ 11005 11000 10999 10996 ] final  150.23 input  -57.11 | X-H torsion

> <Gold.Protein.ActiveResidues>
 VAL166  LYS551  ARG553  GLY616  TRP617  ASP618  TYR619  PRO620  LYS621  CYS622 
 ASP623  PHE694  ASN695  SER759  ASP760  ASP761  ALA762  ILE779  LEU786  VAL792 
 PHE793  MET794  SER795  GLU796  ALA797  LYS798  CYS799  TRP800  GLU811  SER814 

> <Gold.Protein.RotatedAtoms>
  150.9674  134.9052  159.7766 H   0  0  0  0  0  0  0  0  0  0  0  0  # atno 6907 bound_to 6896
  152.5178  134.3589  159.9287 H   0  0  0  0  0  0  0  0  0  0  0  0  # atno 6908 bound_to 6896
  151.3599  133.3853  159.2723 H   0  0  0  0  0  0  0  0  0  0  0  0  # atno 6909 bound_to 6896
  146.2340  140.2106  142.8335 H   0  0  0  0  0  0  0  0  0  0  0  0  # atno 7974 bound_to 7965
  154.5113  140.0809  156.7996 H   0  0  0  0  0  0  0  0  0  0  0  0  # atno 8008 bound_to 7997
  155.3778  140.3426  155.4227 H   0  0  0  0  0  0  0  0  0  0  0  0  # atno 8009 bound_to 7997
  156.1577  140.1578  156.8653 H   0  0  0  0  0  0  0  0  0  0  0  0  # atno 8010 bound_to 7997
  140.7123  143.3354  151.2475 H   0  0  0  0  0  0  0  0  0  0  0  0  # atno 10167 bound_to 10162
  156.0738  130.4231  150.1398 H   0  0  0  0  0  0  0  0  0  0  0  0  # atno 10718 bound_to 10713
  154.8147  135.3296  154.7208 H   0  0  0  0  0  0  0  0  0  0  0  0  # atno 10763 bound_to 10752
  153.7851  135.6915  153.4886 H   0  0  0  0  0  0  0  0  0  0  0  0  # atno 10764 bound_to 10752
  153.1954  135.4535  155.0148 H   0  0  0  0  0  0  0  0  0  0  0  0  # atno 10765 bound_to 10752
  140.1113  134.8922  157.1941 H   0  0  0  0  0  0  0  0  0  0  0  0  # atno 11005 bound_to 11000
  144.9710  140.8368  143.5455 LP  0  0  0  0  0  0  0  0  0  0  0  0  # atno 17320 bound_to 7965
  145.2087  139.2215  143.5154 LP  0  0  0  0  0  0  0  0  0  0  0  0  # atno 17321 bound_to 7965
  139.6847  143.9793  152.2828 LP  0  0  0  0  0  0  0  0  0  0  0  0  # atno 17342 bound_to 10162
  139.9435  144.6666  150.8242 LP  0  0  0  0  0  0  0  0  0  0  0  0  # atno 17343 bound_to 10162
  156.9443  130.9754  151.3510 LP  0  0  0  0  0  0  0  0  0  0  0  0  # atno 17370 bound_to 10713
  157.5824  130.8385  149.8541 LP  0  0  0  0  0  0  0  0  0  0  0  0  # atno 17371 bound_to 10713
  140.3087  134.3049  155.7272 LP  0  0  0  0  0  0  0  0  0  0  0  0  # atno 17394 bound_to 11000
  141.2131  133.7637  156.9745 LP  0  0  0  0  0  0  0  0  0  0  0  0  # atno 17395 bound_to 11000

$$$$
