AV-unprocessed.smi:1574|AV-procd|sdf|6338|dock9
  -GOLD-   22720 6553D 1   1.00000     0.00000
 Structure written by MMmdl.
 40 41  0  0  0  0  0  0  0  0  1 V2000
  152.5561  143.1119  161.9561 C   0  0  0  0  0  0  0  0  0  0  0  0
  151.8589  143.3757  160.6118 C   0  0  1  0  0  0  0  0  0  0  0  0
  151.8804  144.8801  160.2719 C   0  0  0  0  0  0  0  0  0  0  0  0
  151.1979  145.1719  158.9265 C   0  0  0  0  0  0  0  0  0  0  0  0
  151.8363  144.3544  157.7952 C   0  0  0  0  0  0  0  0  0  0  0  0
  151.8079  142.8554  158.1212 C   0  0  0  0  0  0  0  0  0  0  0  0
  152.4914  142.5494  159.4697 C   0  0  2  0  0  0  0  0  0  0  0  0
  152.3055  141.1709  159.7604 O   0  0  0  0  0  0  0  0  0  0  0  0
  152.7741  140.2939  158.7464 C   0  0  0  0  0  0  0  0  0  0  0  0
  151.9524  138.9986  158.7994 C   0  0  0  0  0  0  0  0  0  0  0  0
  151.6882  138.4895  157.4578 N   0  0  0  0  0  0  0  0  0  0  0  0
  152.5717  138.4879  156.4473 C   0  0  0  0  0  0  0  0  0  0  0  0
  153.7377  138.8633  156.5656 O   0  0  0  0  0  0  0  0  0  0  0  0
  152.0609  138.0035  155.0905 C   0  0  0  0  0  0  0  0  0  0  0  0
  150.9081  138.7741  154.6619 N   0  0  0  0  0  0  0  0  0  0  0  0
  149.7583  138.3935  154.1018 C   0  0  0  0  0  0  0  0  0  0  0  0
  148.9648  139.4266  153.8622 N   0  0  0  0  0  0  0  0  0  0  0  0
  149.7036  140.5039  154.3219 N   0  0  0  0  0  0  0  0  0  0  0  0
  150.8582  140.1234  154.7957 N   0  0  0  0  0  0  0  0  0  0  0  0
  153.6116  143.3829  161.9153 H   0  0  0  0  0  0  0  0  0  0  0  0
  152.4941  142.0597  162.2351 H   0  0  0  0  0  0  0  0  0  0  0  0
  152.0951  143.6898  162.7575 H   0  0  0  0  0  0  0  0  0  0  0  0
  150.8158  143.0719  160.7135 H   0  0  0  0  0  0  0  0  0  0  0  0
  151.3850  145.4478  161.0604 H   0  0  0  0  0  0  0  0  0  0  0  0
  152.9113  145.2357  160.2387 H   0  0  0  0  0  0  0  0  0  0  0  0
  150.1356  144.9339  158.9953 H   0  0  0  0  0  0  0  0  0  0  0  0
  151.2631  146.2362  158.6987 H   0  0  0  0  0  0  0  0  0  0  0  0
  151.3095  144.5397  156.8586 H   0  0  0  0  0  0  0  0  0  0  0  0
  152.8669  144.6772  157.6424 H   0  0  0  0  0  0  0  0  0  0  0  0
  150.7725  142.5187  158.1631 H   0  0  0  0  0  0  0  0  0  0  0  0
  152.2778  142.2976  157.3113 H   0  0  0  0  0  0  0  0  0  0  0  0
  153.5555  142.7888  159.4125 H   0  0  0  0  0  0  0  0  0  0  0  0
  152.6963  140.7434  157.7557 H   0  0  0  0  0  0  0  0  0  0  0  0
  153.8304  140.0837  158.9174 H   0  0  0  0  0  0  0  0  0  0  0  0
  152.4749  138.2431  159.3884 H   0  0  0  0  0  0  0  0  0  0  0  0
  151.0001  139.1798  159.2986 H   0  0  0  0  0  0  0  0  0  0  0  0
  150.7511  138.1621  157.2732 H   0  0  0  0  0  0  0  0  0  0  0  0
  152.8477  138.0912  154.3397 H   0  0  0  0  0  0  0  0  0  0  0  0
  151.7837  136.9499  155.1462 H   0  0  0  0  0  0  0  0  0  0  0  0
  149.5043  137.3694  153.8724 H   0  0  0  0  0  0  0  0  0  0  0  0
  1  2  1  0  0  0  0
  1 20  1  0  0  0  0
  1 21  1  0  0  0  0
  1 22  1  0  0  0  0
  2  7  1  0  0  0  0
  2  3  1  0  0  0  0
  2 23  1  0  0  0  0
  3  4  1  0  0  0  0
  3 24  1  0  0  0  0
  3 25  1  0  0  0  0
  4  5  1  0  0  0  0
  4 26  1  0  0  0  0
  4 27  1  0  0  0  0
  5  6  1  0  0  0  0
  5 28  1  0  0  0  0
  5 29  1  0  0  0  0
  6  7  1  0  0  0  0
  6 30  1  0  0  0  0
  6 31  1  0  0  0  0
  7  8  1  0  0  0  0
  7 32  1  0  0  0  0
  8  9  1  0  0  0  0
  9 10  1  0  0  0  0
  9 33  1  0  0  0  0
  9 34  1  0  0  0  0
 10 11  1  0  0  0  0
 10 35  1  0  0  0  0
 10 36  1  0  0  0  0
 11 12  1  0  0  0  0
 11 37  1  0  0  0  0
 12 13  2  0  0  0  0
 12 14  1  0  0  0  0
 14 15  1  0  0  0  0
 14 38  1  0  0  0  0
 14 39  1  0  0  0  0
 15 19  1  0  0  0  0
 15 16  1  0  0  0  0
 16 17  2  0  0  0  0
 16 40  1  0  0  0  0
 17 18  1  0  0  0  0
 18 19  2  0  0  0  0
M  END
> <s_m_source_file>
AV-unprocessed.smi

> <i_m_source_file_index>
1574

> <i_lp_mmshare_version>
43012

> <i_f3d_flags>
0

> <s_epik_input>
W0NIM11bQ0BASF0xW0NIMl1bQ0gyXVtDSDJdW0NIMl1bQ0BIXTFPW0NIMl1bQ0gyXVtOSF1DKD1PKVtDSDJdbjJbY0hdbm5uMg==

> <s_epik_cmdline>
J2VwaWtfcHl0aG9uJywgJy1waCcsICc3LjAnLCAnLXRuJywgJzgnLCAnLW1hJywgJzIwMCcsICctbWV0YWxfYmluZGluZycsICctaW1hZScsICc8aW5maWxlLm1hZT4nLCAnLW9tYWUnLCAnPG91dGZpbGUubWFlPic=

> <r_lp_tautomer_probability>
1

> <r_epik_Ionization_Penalty>
1.44269e-06

> <r_epik_Ionization_Penalty_Charging>
0

> <r_epik_Ionization_Penalty_Neutral>
1.44269e-06

> <r_epik_State_Penalty>
-0

> <r_epik_Charging_Adjusted_Penalty>
0

> <i_epik_Tot_Q>
0

> <i_epik_Tot_abs_Q>
0

> <r_epik_Metal_State_Penalty>
-0

> <b_epik_Metal_Only>
0

> <s_lp_Force_Field>
OPLS_2005

> <r_lp_Energy>
11.2802

> <b_lp_Chiralities_Consistent>
1

> <s_lp_Variant>
AV-unprocessed.smi:1574-4

> <Gold.Version>
5.8.1

> <Gold.Id.Protein>
6NUR|6NUR_protein|mol2

> <Gold.PLP.Fitness>
50.6830

> <Gold.PLP.PLP>
-43.3185

> <Gold.PLP.part.hbond>
-2.6414

> <Gold.PLP.part.metal>
0.0000

> <Gold.PLP.part.buried>
-7.3814

> <Gold.PLP.part.nonpolar>
-34.9772

> <Gold.PLP.part.repulsive>
1.5540

> <Gold.PLP.ligand.clash>
0.0000

> <Gold.PLP.ligand.torsion>
0.8156

> <Gold.PLP.Chemscore.Hbond>
1.9833

> <Gold.PLP.Chemscore.CHOScore>
0.9903

> <Gold.PLP.Chemscore.Metal>
0.0000

> <Gold.Chemscore.Hbonds>
donor molecule, donor type, donor heavy atom, donor atom, acceptor molecule, acceptor atom, score
      P1  H  7989  7998       L1    19  0.50
      P1  H  7997  8008       L1    13  0.49
      L1  C    16    40       P1  7948  1.00

> <Gold.PLP.Chemscore.Internal.Correction>
0.0748

> <Gold.Rescore>
     Score         DG    S(hbond)    S(metal)    S(lipo)     H(rot)  DE(clash)    DE(int)     intcor
     12.95     -15.39       1.70        0.00      99.73       2.90       0.20       2.23       ----

> <Gold.Chemscore.Fitness>
12.9514

> <Gold.Chemscore.DG>
-15.3870

> <Gold.Chemscore.ZeroCoef>
-5.4800

> <Gold.Chemscore.Hbond>
1.6991

> <Gold.Chemscore.Metal>
0.0000

> <Gold.Chemscore.Lipo>
99.7316

> <Gold.Chemscore.Internal_Hbond>
0.0000

> <Gold.Chemscore.DEClash>
0.2031

> <Gold.Chemscore.DEInternal>
2.2325

> <Gold.Chemscore.Rot>
2.9050

> <Gold.Chemscore.Internal.Correction>
   9.000000E+99

> <Gold.Chemscore.Hbonds>
donor molecule, donor type, donor heavy atom, donor atom, acceptor molecule, acceptor atom, score
      P1  H  7989  7998       L1    19  0.02
      P1  H  7997  8008       L1    13  0.47

> <Gold.Chemscore.Hbond.Weighted>
-5.6751

> <Gold.Chemscore.Metal.Weighted>
-0.0000

> <Gold.Chemscore.Lipo.Weighted>
-11.6686

> <Gold.Chemscore.Internal_Hbond.Weighted>
0.0000

> <Gold.Chemscore.DEClash.Weighted>
0.2031

> <Gold.Chemscore.DEInternal.Weighted>
2.2325

> <Gold.Chemscore.Rot.Weighted>
7.4367

> <Gold.Chemscore.Internal.Correction.Weighted>
   9.000000E+99

> <Gold.Protein.RotatedTorsions>
[ 6907 6896 6895 6894 ] final -141.81 input  -60.11 | X-H torsion
[ 7974 7965 7964 7962 ] final  143.23 input  175.53 | X-H torsion
[ 8008 7997 7996 7995 ] final  -44.17 input   59.86 | X-H torsion
[ 10167 10162 10161 10158 ] final -160.99 input  -65.29 | X-H torsion
[ 10718 10713 10712 10709 ] final  -60.14 input   66.30 | X-H torsion
[ 10763 10752 10751 10750 ] final   -8.46 input  -60.55 | X-H torsion
[ 11005 11000 10999 10996 ] final  141.97 input  -57.11 | X-H torsion

> <Gold.Protein.ActiveResidues>
 VAL166  LYS551  ARG553  GLY616  TRP617  ASP618  TYR619  PRO620  LYS621  CYS622 
 ASP623  PHE694  ASN695  SER759  ASP760  ASP761  ALA762  ILE779  LEU786  VAL792 
 PHE793  MET794  SER795  GLU796  ALA797  LYS798  CYS799  TRP800  GLU811  SER814 

> <Gold.Protein.RotatedAtoms>
  151.0787  133.5408  159.2621 H   0  0  0  0  0  0  0  0  0  0  0  0  # atno 6907 bound_to 6896
  151.2319  135.0557  159.9001 H   0  0  0  0  0  0  0  0  0  0  0  0  # atno 6908 bound_to 6896
  152.5421  134.0574  159.8191 H   0  0  0  0  0  0  0  0  0  0  0  0  # atno 6909 bound_to 6896
  144.8939  139.5519  143.5785 H   0  0  0  0  0  0  0  0  0  0  0  0  # atno 7974 bound_to 7965
  154.3997  140.1429  156.3638 H   0  0  0  0  0  0  0  0  0  0  0  0  # atno 8008 bound_to 7997
  155.8156  140.3471  155.5462 H   0  0  0  0  0  0  0  0  0  0  0  0  # atno 8009 bound_to 7997
  155.8341  140.0916  157.1765 H   0  0  0  0  0  0  0  0  0  0  0  0  # atno 8010 bound_to 7997
  139.6498  144.0105  152.2153 H   0  0  0  0  0  0  0  0  0  0  0  0  # atno 10167 bound_to 10162
  156.1011  130.4186  150.0813 H   0  0  0  0  0  0  0  0  0  0  0  0  # atno 10718 bound_to 10713
  153.4408  135.7013  153.6170 H   0  0  0  0  0  0  0  0  0  0  0  0  # atno 10763 bound_to 10752
  153.4545  135.3750  155.2303 H   0  0  0  0  0  0  0  0  0  0  0  0  # atno 10764 bound_to 10752
  154.8727  135.4005  154.3806 H   0  0  0  0  0  0  0  0  0  0  0  0  # atno 10765 bound_to 10752
  140.0441  134.9289  157.0898 H   0  0  0  0  0  0  0  0  0  0  0  0  # atno 11005 bound_to 11000
  146.3070  139.7613  142.9049 LP  0  0  0  0  0  0  0  0  0  0  0  0  # atno 17320 bound_to 7965
  145.3735  141.0346  143.3218 LP  0  0  0  0  0  0  0  0  0  0  0  0  # atno 17321 bound_to 7965
  139.9816  144.6424  150.7895 LP  0  0  0  0  0  0  0  0  0  0  0  0  # atno 17342 bound_to 10162
  140.7532  143.3004  151.3095 LP  0  0  0  0  0  0  0  0  0  0  0  0  # atno 17343 bound_to 10162
  156.8800  130.9553  151.3600 LP  0  0  0  0  0  0  0  0  0  0  0  0  # atno 17370 bound_to 10713
  157.6181  130.8634  149.9063 LP  0  0  0  0  0  0  0  0  0  0  0  0  # atno 17371 bound_to 10713
  140.4021  134.2071  155.7163 LP  0  0  0  0  0  0  0  0  0  0  0  0  # atno 17394 bound_to 11000
  141.1898  133.8230  157.0942 LP  0  0  0  0  0  0  0  0  0  0  0  0  # atno 17395 bound_to 11000

$$$$
