AV-unprocessed.smi:21|AV-procd|sdf|132|dock5
  -GOLD-   2262015323D 1   1.00000     0.00000
 Structure written by MMmdl.
 62 65  0  0  0  0  0  0  0  0  2 V2000
  146.0078  131.1942  151.4163 C   0  0  0  0  0  0  0  0  0  0  0  0
  146.6160  131.4635  152.6693 O   0  0  0  0  0  0  0  0  0  0  0  0
  147.2665  132.7246  152.7272 C   0  0  2  0  0  0  0  0  0  0  0  0
  147.5144  133.2079  154.1518 C   0  0  0  0  0  0  0  0  0  0  0  0
  147.6177  134.7359  154.0193 C   0  0  2  0  0  0  0  0  0  0  0  0
  147.2233  135.5009  155.3096 C   0  0  0  0  0  0  0  0  0  0  0  0
  148.3653  135.8250  156.1666 N   0  0  0  0  0  0  0  0  0  0  0  0
  148.3949  135.2247  157.4984 C   0  0  0  0  0  0  0  0  0  0  0  0
  149.0349  136.9963  155.9742 C   0  0  0  0  0  0  0  0  0  0  0  0
  148.9235  137.6222  154.7712 N   0  0  0  0  0  0  0  0  0  0  0  0
  149.5830  138.7572  154.5263 C   0  0  0  0  0  0  0  0  0  0  0  0
  150.3999  139.4351  155.3321 N   0  0  0  0  0  0  0  0  0  0  0  0
  150.5126  138.8256  156.5458 C   0  0  0  0  0  0  0  0  0  0  0  0
  149.8702  137.6191  156.9507 C   0  0  0  0  0  0  0  0  0  0  0  0
  150.2223  137.3274  158.2646 N   0  0  0  0  0  0  0  0  0  0  0  0
  151.0306  138.2914  158.6092 C   0  0  0  0  0  0  0  0  0  0  0  0
  151.2556  139.2382  157.6380 N   0  0  0  0  0  0  0  0  0  0  0  0
  152.1061  140.4111  157.7531 C   0  0  0  0  0  0  0  0  0  0  0  0
  151.3151  141.7370  157.8896 C   0  0  2  0  0  0  0  0  0  0  0  0
  150.9412  142.3143  156.4994 C   0  0  0  0  0  0  0  0  0  0  0  0
  149.6193  141.9812  156.1311 O   0  0  0  0  0  0  0  0  0  0  0  0
  152.1137  142.7518  158.7543 C   0  0  1  0  0  0  0  0  0  0  0  0
  151.4010  144.0564  159.0699 C   0  0  0  0  0  0  0  0  0  0  0  0
  152.1915  144.5874  160.2605 C   0  0  0  0  0  0  0  0  0  0  0  0
  152.6518  143.4379  160.9602 O   0  0  0  0  0  0  0  0  0  0  0  0
  152.4313  142.2707  160.1755 C   0  0  0  0  0  0  0  0  0  0  0  0
  146.8332  135.0828  152.7958 N   0  3  2  0  0  0  0  0  0  0  0  0
  145.7708  136.1090  152.9172 C   0  0  0  0  0  0  0  0  0  0  0  0
  146.3575  133.8224  152.1834 C   0  0  0  0  0  0  0  0  0  0  0  0
  148.1998  132.7117  152.1609 H   0  0  0  0  0  0  0  0  0  0  0  0
  148.6507  134.9847  153.7722 H   0  0  0  0  0  0  0  0  0  0  0  0
  145.4890  130.2369  151.4624 H   0  0  0  0  0  0  0  0  0  0  0  0
  146.7465  131.1325  150.6167 H   0  0  0  0  0  0  0  0  0  0  0  0
  145.2754  131.9603  151.1591 H   0  0  0  0  0  0  0  0  0  0  0  0
  146.6577  132.9431  154.7732 H   0  0  0  0  0  0  0  0  0  0  0  0
  148.4037  132.7634  154.5994 H   0  0  0  0  0  0  0  0  0  0  0  0
  146.7651  136.4528  155.0422 H   0  0  0  0  0  0  0  0  0  0  0  0
  146.4552  134.9576  155.8530 H   0  0  0  0  0  0  0  0  0  0  0  0
  149.4180  135.1555  157.8702 H   0  0  0  0  0  0  0  0  0  0  0  0
  147.9833  134.2154  157.4776 H   0  0  0  0  0  0  0  0  0  0  0  0
  147.8080  135.8146  158.2036 H   0  0  0  0  0  0  0  0  0  0  0  0
  149.4358  139.1817  153.5440 H   0  0  0  0  0  0  0  0  0  0  0  0
  151.4837  138.3428  159.5887 H   0  0  0  0  0  0  0  0  0  0  0  0
  152.7492  140.2530  158.6187 H   0  0  0  0  0  0  0  0  0  0  0  0
  152.7650  140.4556  156.8850 H   0  0  0  0  0  0  0  0  0  0  0  0
  150.3868  141.5009  158.4127 H   0  0  0  0  0  0  0  0  0  0  0  0
  151.0655  143.3975  156.4831 H   0  0  0  0  0  0  0  0  0  0  0  0
  151.5798  141.9154  155.7126 H   0  0  0  0  0  0  0  0  0  0  0  0
  149.1063  142.7746  156.1027 H   0  0  0  0  0  0  0  0  0  0  0  0
  153.0544  142.9885  158.2538 H   0  0  0  0  0  0  0  0  0  0  0  0
  151.3959  144.7586  158.2362 H   0  0  0  0  0  0  0  0  0  0  0  0
  150.3678  143.8650  159.3638 H   0  0  0  0  0  0  0  0  0  0  0  0
  153.0573  145.1568  159.9201 H   0  0  0  0  0  0  0  0  0  0  0  0
  151.5926  145.2328  160.9032 H   0  0  0  0  0  0  0  0  0  0  0  0
  151.5834  141.7306  160.5992 H   0  0  0  0  0  0  0  0  0  0  0  0
  153.3009  141.6138  160.2102 H   0  0  0  0  0  0  0  0  0  0  0  0
  144.9996  135.8060  153.6264 H   0  0  0  0  0  0  0  0  0  0  0  0
  145.2919  136.2652  151.9500 H   0  0  0  0  0  0  0  0  0  0  0  0
  146.1830  137.0682  153.2303 H   0  0  0  0  0  0  0  0  0  0  0  0
  146.3658  133.8735  151.0943 H   0  0  0  0  0  0  0  0  0  0  0  0
  145.3303  133.6305  152.5004 H   0  0  0  0  0  0  0  0  0  0  0  0
  147.5109  135.4627  152.1501 H   0  0  0  0  0  0  0  0  0  0  0  0
  1  2  1  0  0  0  0
  1 32  1  0  0  0  0
  1 33  1  0  0  0  0
  1 34  1  0  0  0  0
  2  3  1  0  0  0  0
  3 30  1  0  0  0  0
  3 29  1  0  0  0  0
  3  4  1  0  0  0  0
  4  5  1  0  0  0  0
  4 35  1  0  0  0  0
  4 36  1  0  0  0  0
  5 31  1  0  0  0  0
  5  6  1  0  0  0  0
  5 27  1  0  0  0  0
  6  7  1  0  0  0  0
  6 37  1  0  0  0  0
  6 38  1  0  0  0  0
  7  8  1  0  0  0  0
  7  9  1  0  0  0  0
  8 39  1  0  0  0  0
  8 40  1  0  0  0  0
  8 41  1  0  0  0  0
  9 14  1  0  0  0  0
  9 10  2  0  0  0  0
 10 11  1  0  0  0  0
 11 12  2  0  0  0  0
 11 42  1  0  0  0  0
 12 13  1  0  0  0  0
 13 17  1  0  0  0  0
 13 14  2  0  0  0  0
 14 15  1  0  0  0  0
 15 16  2  0  0  0  0
 16 17  1  0  0  0  0
 16 43  1  0  0  0  0
 17 18  1  0  0  0  0
 18 19  1  0  0  0  0
 18 44  1  0  0  0  0
 18 45  1  0  0  0  0
 19 20  1  0  0  0  0
 19 22  1  0  0  0  0
 19 46  1  0  0  0  0
 20 21  1  0  0  0  0
 20 47  1  0  0  0  0
 20 48  1  0  0  0  0
 21 49  1  0  0  0  0
 22 26  1  0  0  0  0
 22 23  1  0  0  0  0
 22 50  1  0  0  0  0
 23 24  1  0  0  0  0
 23 51  1  0  0  0  0
 23 52  1  0  0  0  0
 24 25  1  0  0  0  0
 24 53  1  0  0  0  0
 24 54  1  0  0  0  0
 25 26  1  0  0  0  0
 26 55  1  0  0  0  0
 26 56  1  0  0  0  0
 27 28  1  0  0  0  0
 27 29  1  0  0  0  0
 27 62  1  0  0  0  0
 28 57  1  0  0  0  0
 28 58  1  0  0  0  0
 28 59  1  0  0  0  0
 29 60  1  0  0  0  0
 29 61  1  0  0  0  0
M  CHG  1  27   1
M  END
> <s_m_source_file>
AV-unprocessed.smi

> <i_m_source_file_index>
21

> <i_lp_mmshare_version>
43012

> <i_f3d_flags>
0

> <s_epik_input>
W0NIM11PW0NASF0xW0NIMl1bQ0BIXShOKFtDSDNdKVtDSDJdMSlbQ0gyXU4oW0NIM10pYyhuW2NIXW4yKWMoYzIzKW5bY0hdbjNbQ0gyXVtDQEhdKFtDSDJdW09IXSlbQ0BASF00W0NIMl1bQ0gyXU9bQ0gyXTQ=

> <s_epik_cmdline>
J2VwaWtfcHl0aG9uJywgJy1waCcsICc3LjAnLCAnLXRuJywgJzgnLCAnLW1hJywgJzIwMCcsICctbWV0YWxfYmluZGluZycsICctaW1hZScsICc8aW5maWxlLm1hZT4nLCAnLW9tYWUnLCAnPG91dGZpbGUubWFlPic=

> <r_lp_tautomer_probability>
1

> <r_epik_Ionization_Penalty>
0.0157465

> <r_epik_Ionization_Penalty_Charging>
0.015354

> <r_epik_Ionization_Penalty_Neutral>
0.000392529

> <r_epik_State_Penalty>
0.0120612

> <r_epik_Charging_Adjusted_Penalty>
0.0274152

> <i_epik_Tot_Q>
1

> <i_epik_Tot_abs_Q>
1

> <r_epik_Metal_State_Penalty>
0.0121253

> <b_epik_Metal_Only>
0

> <s_lp_Force_Field>
OPLS_2005

> <r_lp_Energy>
62.0887

> <b_lp_Chiralities_Consistent>
1

> <s_lp_Variant>
AV-unprocessed.smi:21-12

> <Gold.Version>
5.8.1

> <Gold.Id.Protein>
6NUR|6NUR_protein|mol2

> <Gold.PLP.Fitness>
46.0760

> <Gold.PLP.PLP>
-37.2189

> <Gold.PLP.part.hbond>
-2.0000

> <Gold.PLP.part.metal>
0.0000

> <Gold.PLP.part.buried>
-6.4308

> <Gold.PLP.part.nonpolar>
-29.1368

> <Gold.PLP.part.repulsive>
0.4181

> <Gold.PLP.ligand.clash>
0.0000

> <Gold.PLP.ligand.torsion>
1.9795

> <Gold.PLP.Chemscore.Hbond>
3.0000

> <Gold.PLP.Chemscore.CHOScore>
1.0000

> <Gold.PLP.Chemscore.Metal>
0.0000

> <Gold.Chemscore.Hbonds>
donor molecule, donor type, donor heavy atom, donor atom, acceptor molecule, acceptor atom, score
      L1  H    21    49       P1  8028  1.00
      L1  H    27    62       P1  7948  2.00
      L1  C    11    42       P1  7957  0.99

> <Gold.PLP.Chemscore.Internal.Correction>
0.8160

> <Gold.Rescore>
     Score         DG    S(hbond)    S(metal)    S(lipo)     H(rot)  DE(clash)    DE(int)     intcor
     12.56     -15.91       1.97        0.00     100.19       3.08       0.10       3.25       ----

> <Gold.Chemscore.Fitness>
12.5608

> <Gold.Chemscore.DG>
-15.9132

> <Gold.Chemscore.ZeroCoef>
-5.4800

> <Gold.Chemscore.Hbond>
1.9715

> <Gold.Chemscore.Metal>
0.0000

> <Gold.Chemscore.Lipo>
100.1937

> <Gold.Chemscore.Internal_Hbond>
0.0000

> <Gold.Chemscore.DEClash>
0.0995

> <Gold.Chemscore.DEInternal>
3.2530

> <Gold.Chemscore.Rot>
3.0758

> <Gold.Chemscore.Internal.Correction>
   9.000000E+99

> <Gold.Chemscore.Hbonds>
donor molecule, donor type, donor heavy atom, donor atom, acceptor molecule, acceptor atom, score
      L1  H    21    49       P1  8028  0.92
      L1  H    27    62       P1  7948  0.96

> <Gold.Chemscore.Hbond.Weighted>
-6.5847

> <Gold.Chemscore.Metal.Weighted>
-0.0000

> <Gold.Chemscore.Lipo.Weighted>
-11.7227

> <Gold.Chemscore.Internal_Hbond.Weighted>
0.0000

> <Gold.Chemscore.DEClash.Weighted>
0.0995

> <Gold.Chemscore.DEInternal.Weighted>
3.2530

> <Gold.Chemscore.Rot.Weighted>
7.8741

> <Gold.Chemscore.Internal.Correction.Weighted>
   9.000000E+99

> <Gold.Protein.RotatedTorsions>
[ 6907 6896 6895 6894 ] final -112.97 input  -60.11 | X-H torsion
[ 7974 7965 7964 7962 ] final   -0.07 input  175.53 | X-H torsion
[ 8008 7997 7996 7995 ] final -108.99 input   59.86 | X-H torsion
[ 10167 10162 10161 10158 ] final  -70.77 input  -65.29 | X-H torsion
[ 10718 10713 10712 10709 ] final    9.99 input   66.30 | X-H torsion
[ 10763 10752 10751 10750 ] final -134.40 input  -60.55 | X-H torsion
[ 11005 11000 10999 10996 ] final   60.03 input  -57.11 | X-H torsion

> <Gold.Protein.ActiveResidues>
 VAL166  LYS551  ARG553  GLY616  TRP617  ASP618  TYR619  PRO620  LYS621  CYS622 
 ASP623  PHE694  ASN695  SER759  ASP760  ASP761  ALA762  ILE779  LEU786  VAL792 
 PHE793  MET794  SER795  GLU796  ALA797  LYS798  CYS799  TRP800  GLU811  SER814 

> <Gold.Protein.RotatedAtoms>
  150.7796  133.9012  159.3341 H   0  0  0  0  0  0  0  0  0  0  0  0  # atno 6907 bound_to 6896
  151.6878  135.0949  160.0237 H   0  0  0  0  0  0  0  0  0  0  0  0  # atno 6908 bound_to 6896
  152.3843  133.6551  159.6221 H   0  0  0  0  0  0  0  0  0  0  0  0  # atno 6909 bound_to 6896
  146.2430  140.1214  142.8340 H   0  0  0  0  0  0  0  0  0  0  0  0  # atno 7974 bound_to 7965
  154.9526  140.0400  157.2151 H   0  0  0  0  0  0  0  0  0  0  0  0  # atno 8008 bound_to 7997
  154.7964  140.2844  155.5932 H   0  0  0  0  0  0  0  0  0  0  0  0  # atno 8009 bound_to 7997
  156.2956  140.2563  156.2822 H   0  0  0  0  0  0  0  0  0  0  0  0  # atno 8010 bound_to 7997
  140.5326  143.2320  151.7235 H   0  0  0  0  0  0  0  0  0  0  0  0  # atno 10167 bound_to 10162
  156.9744  130.5981  149.5671 H   0  0  0  0  0  0  0  0  0  0  0  0  # atno 10718 bound_to 10713
  154.8720  135.3736  154.4729 H   0  0  0  0  0  0  0  0  0  0  0  0  # atno 10763 bound_to 10752
  153.5388  135.7027  153.5652 H   0  0  0  0  0  0  0  0  0  0  0  0  # atno 10764 bound_to 10752
  153.3823  135.3993  155.1830 H   0  0  0  0  0  0  0  0  0  0  0  0  # atno 10765 bound_to 10752
  140.0261  134.6081  155.9571 H   0  0  0  0  0  0  0  0  0  0  0  0  # atno 11005 bound_to 11000
  145.0403  140.8940  143.5056 LP  0  0  0  0  0  0  0  0  0  0  0  0  # atno 17320 bound_to 7965
  145.1293  139.2642  143.5547 LP  0  0  0  0  0  0  0  0  0  0  0  0  # atno 17321 bound_to 7965
  139.4959  144.4091  152.0100 LP  0  0  0  0  0  0  0  0  0  0  0  0  # atno 17342 bound_to 10162
  140.3194  144.3445  150.6013 LP  0  0  0  0  0  0  0  0  0  0  0  0  # atno 17343 bound_to 10162
  156.0269  130.5363  150.8432 LP  0  0  0  0  0  0  0  0  0  0  0  0  # atno 17370 bound_to 10713
  157.5570  131.0945  150.9614 LP  0  0  0  0  0  0  0  0  0  0  0  0  # atno 17371 bound_to 10713
  141.1803  133.6545  156.4995 LP  0  0  0  0  0  0  0  0  0  0  0  0  # atno 17394 bound_to 11000
  140.4304  134.7107  157.4939 LP  0  0  0  0  0  0  0  0  0  0  0  0  # atno 17395 bound_to 11000

$$$$
