AV-unprocessed.smi:1194|AV-procd|sdf|4992|dock3
  -GOLD-   22720 3593D 1   1.00000     0.00000
 Structure written by MMmdl.
 48 49  0  0  0  0  0  0  0  0  2 V2000
  151.9008  144.7374  158.0905 C   0  0  0  0  0  0  0  0  0  0  0  0
  151.9573  143.9513  159.4050 C   0  0  0  0  0  0  0  0  0  0  0  0
  153.3932  143.5354  159.7789 C   0  0  0  0  0  0  0  0  0  0  0  0
  153.4937  142.7423  161.0955 C   0  0  0  0  0  0  0  0  0  0  0  0
  152.9340  143.1981  162.0948 O   0  0  0  0  0  0  0  0  0  0  0  0
  154.2053  141.5819  161.1297 N   0  0  0  0  0  0  0  0  0  0  0  0
  154.3037  140.7280  162.3379 C   0  0  0  0  0  0  0  0  0  0  0  0
  155.7324  140.2152  162.5736 C   0  0  0  0  0  0  0  0  0  0  0  0
  156.2878  139.5285  161.3254 C   0  0  0  0  0  0  0  0  0  0  0  0
  156.2182  140.5007  160.1448 C   0  0  0  0  0  0  0  0  0  0  0  0
  154.7864  141.0258  159.8757 C   0  0  1  0  0  0  0  0  0  0  0  0
  153.9058  139.9427  159.2076 C   0  0  0  0  0  0  0  0  0  0  0  0
  154.2881  138.7729  159.1905 O   0  0  0  0  0  0  0  0  0  0  0  0
  152.7682  140.3330  158.6096 N   0  0  0  0  0  0  0  0  0  0  0  0
  151.8970  139.4857  157.8038 C   0  0  0  0  0  0  0  0  0  0  0  0
  152.1589  139.6541  156.2933 C   0  0  0  0  0  0  0  0  0  0  0  0
  150.8857  139.7441  155.4666 C   0  0  0  0  0  0  0  0  0  0  0  0
  150.0619  140.8891  155.5355 C   0  0  0  0  0  0  0  0  0  0  0  0
  148.9045  140.9576  154.7319 C   0  0  0  0  0  0  0  0  0  0  0  0
  148.5957  139.8782  153.8791 C   0  0  0  0  0  0  0  0  0  0  0  0
  149.4056  138.7978  153.8422 N   0  3  0  0  0  0  0  0  0  0  0  0
  150.5220  138.6938  154.5953 C   0  0  0  0  0  0  0  0  0  0  0  0
  150.8755  145.0196  157.8503 H   0  0  0  0  0  0  0  0  0  0  0  0
  152.2857  144.1447  157.2602 H   0  0  0  0  0  0  0  0  0  0  0  0
  152.4915  145.6518  158.1527 H   0  0  0  0  0  0  0  0  0  0  0  0
  151.5290  144.5629  160.1999 H   0  0  0  0  0  0  0  0  0  0  0  0
  151.3244  143.0674  159.3161 H   0  0  0  0  0  0  0  0  0  0  0  0
  153.8117  142.9313  158.9729 H   0  0  0  0  0  0  0  0  0  0  0  0
  154.0014  144.4367  159.8640 H   0  0  0  0  0  0  0  0  0  0  0  0
  153.9992  141.2303  163.2535 H   0  0  0  0  0  0  0  0  0  0  0  0
  153.6267  139.8807  162.2318 H   0  0  0  0  0  0  0  0  0  0  0  0
  156.3780  141.0502  162.8499 H   0  0  0  0  0  0  0  0  0  0  0  0
  155.7456  139.5229  163.4159 H   0  0  0  0  0  0  0  0  0  0  0  0
  157.3188  139.2176  161.4957 H   0  0  0  0  0  0  0  0  0  0  0  0
  155.7193  138.6232  161.1085 H   0  0  0  0  0  0  0  0  0  0  0  0
  156.8703  141.3508  160.3503 H   0  0  0  0  0  0  0  0  0  0  0  0
  156.6332  140.0278  159.2537 H   0  0  0  0  0  0  0  0  0  0  0  0
  154.9032  141.8050  159.1211 H   0  0  0  0  0  0  0  0  0  0  0  0
  152.5189  141.3096  158.6713 H   0  0  0  0  0  0  0  0  0  0  0  0
  151.9891  138.4393  158.0989 H   0  0  0  0  0  0  0  0  0  0  0  0
  150.8712  139.7799  158.0270 H   0  0  0  0  0  0  0  0  0  0  0  0
  152.7499  140.5559  156.1266 H   0  0  0  0  0  0  0  0  0  0  0  0
  152.7656  138.8249  155.9278 H   0  0  0  0  0  0  0  0  0  0  0  0
  150.3177  141.7099  156.1897 H   0  0  0  0  0  0  0  0  0  0  0  0
  148.2640  141.8268  154.7674 H   0  0  0  0  0  0  0  0  0  0  0  0
  147.7342  139.8479  153.2280 H   0  0  0  0  0  0  0  0  0  0  0  0
  151.0944  137.7864  154.4671 H   0  0  0  0  0  0  0  0  0  0  0  0
  149.1679  138.0298  153.2137 H   0  0  0  0  0  0  0  0  0  0  0  0
  1  2  1  0  0  0  0
  1 23  1  0  0  0  0
  1 24  1  0  0  0  0
  1 25  1  0  0  0  0
  2  3  1  0  0  0  0
  2 26  1  0  0  0  0
  2 27  1  0  0  0  0
  3  4  1  0  0  0  0
  3 28  1  0  0  0  0
  3 29  1  0  0  0  0
  4  5  2  0  0  0  0
  4  6  1  0  0  0  0
  6 11  1  0  0  0  0
  6  7  1  0  0  0  0
  7  8  1  0  0  0  0
  7 30  1  0  0  0  0
  7 31  1  0  0  0  0
  8  9  1  0  0  0  0
  8 32  1  0  0  0  0
  8 33  1  0  0  0  0
  9 10  1  0  0  0  0
  9 34  1  0  0  0  0
  9 35  1  0  0  0  0
 10 11  1  0  0  0  0
 10 36  1  0  0  0  0
 10 37  1  0  0  0  0
 11 12  1  0  0  0  0
 11 38  1  0  0  0  0
 12 13  2  0  0  0  0
 12 14  1  0  0  0  0
 14 15  1  0  0  0  0
 14 39  1  0  0  0  0
 15 16  1  0  0  0  0
 15 40  1  0  0  0  0
 15 41  1  0  0  0  0
 16 17  1  0  0  0  0
 16 42  1  0  0  0  0
 16 43  1  0  0  0  0
 17 22  1  0  0  0  0
 17 18  2  0  0  0  0
 18 19  1  0  0  0  0
 18 44  1  0  0  0  0
 19 20  2  0  0  0  0
 19 45  1  0  0  0  0
 20 21  1  0  0  0  0
 20 46  1  0  0  0  0
 21 22  2  0  0  0  0
 21 48  1  0  0  0  0
 22 47  1  0  0  0  0
M  CHG  1  21   1
M  END
> <s_m_source_file>
AV-unprocessed.smi

> <i_m_source_file_index>
1194

> <i_lp_mmshare_version>
43012

> <i_f3d_flags>
0

> <s_epik_input>
W0NIM11bQ0gyXVtDSDJdQyg9TylOMVtDSDJdW0NIMl1bQ0gyXVtDSDJdW0NASF0xQyg9TylbTkhdW0NIMl1bQ0gyXWMyW2NIXVtjSF1bY0hdbltjSF0y

> <s_epik_cmdline>
J2VwaWtfcHl0aG9uJywgJy1waCcsICc3LjAnLCAnLXRuJywgJzgnLCAnLW1hJywgJzIwMCcsICctbWV0YWxfYmluZGluZycsICctaW1hZScsICc8aW5maWxlLm1hZT4nLCAnLW9tYWUnLCAnPG91dGZpbGUubWFlPic=

> <r_epik_Ionization_Penalty>
2.26523

> <r_epik_Ionization_Penalty_Charging>
2.26523

> <r_epik_Ionization_Penalty_Neutral>
5.33649e-08

> <r_epik_State_Penalty>
2.41338

> <r_epik_Charging_Adjusted_Penalty>
4.67861

> <i_epik_Tot_Q>
1

> <i_epik_Tot_abs_Q>
1

> <r_epik_Metal_State_Penalty>
2.42628

> <b_epik_Metal_Only>
0

> <s_lp_Force_Field>
OPLS_2005

> <r_lp_Energy>
32.0414

> <b_lp_Chiralities_Consistent>
1

> <s_lp_Variant>
AV-unprocessed.smi:1194-3

> <Gold.Version>
5.8.1

> <Gold.Id.Protein>
6NUR|6NUR_protein|mol2

> <Gold.PLP.Fitness>
49.0074

> <Gold.PLP.PLP>
-44.8155

> <Gold.PLP.part.hbond>
-2.0000

> <Gold.PLP.part.metal>
0.0000

> <Gold.PLP.part.buried>
0.2142

> <Gold.PLP.part.nonpolar>
-43.3862

> <Gold.PLP.part.repulsive>
0.2778

> <Gold.PLP.ligand.clash>
0.0000

> <Gold.PLP.ligand.torsion>
0.9571

> <Gold.PLP.Chemscore.Hbond>
2.0000

> <Gold.PLP.Chemscore.CHOScore>
0.0000

> <Gold.PLP.Chemscore.Metal>
0.0000

> <Gold.Chemscore.Hbonds>
donor molecule, donor type, donor heavy atom, donor atom, acceptor molecule, acceptor atom, score
      L1  H    21    48       P1  7948  1.01

> <Gold.PLP.Chemscore.Internal.Correction>
0.1061

> <Gold.Rescore>
     Score         DG    S(hbond)    S(metal)    S(lipo)     H(rot)  DE(clash)    DE(int)     intcor
     15.88     -17.82       1.00        0.00     116.42       1.80       0.04       1.90       ----

> <Gold.Chemscore.Fitness>
15.8810

> <Gold.Chemscore.DG>
-17.8209

> <Gold.Chemscore.ZeroCoef>
-5.4800

> <Gold.Chemscore.Hbond>
0.9952

> <Gold.Chemscore.Metal>
0.0000

> <Gold.Chemscore.Lipo>
116.4190

> <Gold.Chemscore.Internal_Hbond>
0.0000

> <Gold.Chemscore.DEClash>
0.0427

> <Gold.Chemscore.DEInternal>
1.8972

> <Gold.Chemscore.Rot>
1.7985

> <Gold.Chemscore.Internal.Correction>
   9.000000E+99

> <Gold.Chemscore.Hbonds>
donor molecule, donor type, donor heavy atom, donor atom, acceptor molecule, acceptor atom, score
      L1  H    21    48       P1  7948  0.50

> <Gold.Chemscore.Hbond.Weighted>
-3.3240

> <Gold.Chemscore.Metal.Weighted>
-0.0000

> <Gold.Chemscore.Lipo.Weighted>
-13.6210

> <Gold.Chemscore.Internal_Hbond.Weighted>
0.0000

> <Gold.Chemscore.DEClash.Weighted>
0.0427

> <Gold.Chemscore.DEInternal.Weighted>
1.8972

> <Gold.Chemscore.Rot.Weighted>
4.6041

> <Gold.Chemscore.Internal.Correction.Weighted>
   9.000000E+99

> <Gold.Protein.RotatedTorsions>
[ 6907 6896 6895 6894 ] final   35.04 input  -60.11 | X-H torsion
[ 7974 7965 7964 7962 ] final -166.39 input  175.53 | X-H torsion
[ 8008 7997 7996 7995 ] final  -83.81 input   59.86 | X-H torsion
[ 10167 10162 10161 10158 ] final  -35.88 input  -65.29 | X-H torsion
[ 10718 10713 10712 10709 ] final -114.94 input   66.30 | X-H torsion
[ 10763 10752 10751 10750 ] final  -57.74 input  -60.55 | X-H torsion
[ 11005 11000 10999 10996 ] final  -33.60 input  -57.11 | X-H torsion

> <Gold.Protein.ActiveResidues>
 VAL166  LYS551  ARG553  GLY616  TRP617  ASP618  TYR619  PRO620  LYS621  CYS622 
 ASP623  PHE694  ASN695  SER759  ASP760  ASP761  ALA762  ILE779  LEU786  VAL792 
 PHE793  MET794  SER795  GLU796  ALA797  LYS798  CYS799  TRP800  GLU811  SER814 

> <Gold.Protein.RotatedAtoms>
  152.1106  134.9277  160.0566 H   0  0  0  0  0  0  0  0  0  0  0  0  # atno 6907 bound_to 6896
  152.0456  133.3991  159.4363 H   0  0  0  0  0  0  0  0  0  0  0  0  # atno 6908 bound_to 6896
  150.6843  134.3287  159.4861 H   0  0  0  0  0  0  0  0  0  0  0  0  # atno 6909 bound_to 6896
  144.7246  140.2673  143.6256 H   0  0  0  0  0  0  0  0  0  0  0  0  # atno 7974 bound_to 7965
  154.6230  140.0613  156.9639 H   0  0  0  0  0  0  0  0  0  0  0  0  # atno 8008 bound_to 7997
  155.1786  140.3297  155.4361 H   0  0  0  0  0  0  0  0  0  0  0  0  # atno 8009 bound_to 7997
  156.2442  140.1901  156.6884 H   0  0  0  0  0  0  0  0  0  0  0  0  # atno 8010 bound_to 7997
  140.7155  143.3447  151.2283 H   0  0  0  0  0  0  0  0  0  0  0  0  # atno 10167 bound_to 10162
  156.0863  130.6054  150.8840 H   0  0  0  0  0  0  0  0  0  0  0  0  # atno 10718 bound_to 10713
  154.2271  135.6367  153.5163 H   0  0  0  0  0  0  0  0  0  0  0  0  # atno 10763 bound_to 10752
  152.9956  135.5510  154.6052 H   0  0  0  0  0  0  0  0  0  0  0  0  # atno 10764 bound_to 10752
  154.5526  135.2903  155.0968 H   0  0  0  0  0  0  0  0  0  0  0  0  # atno 10765 bound_to 10752
  140.9648  133.7143  156.1427 H   0  0  0  0  0  0  0  0  0  0  0  0  # atno 11005 bound_to 11000
  145.8077  139.1990  143.2011 LP  0  0  0  0  0  0  0  0  0  0  0  0  # atno 17320 bound_to 7965
  146.0622  140.7958  142.9729 LP  0  0  0  0  0  0  0  0  0  0  0  0  # atno 17321 bound_to 7965
  139.6963  143.9608  152.2884 LP  0  0  0  0  0  0  0  0  0  0  0  0  # atno 17342 bound_to 10162
  139.9286  144.6755  150.8386 LP  0  0  0  0  0  0  0  0  0  0  0  0  # atno 17343 bound_to 10162
  157.5998  131.0941  150.8980 LP  0  0  0  0  0  0  0  0  0  0  0  0  # atno 17370 bound_to 10713
  156.9139  130.5291  149.5280 LP  0  0  0  0  0  0  0  0  0  0  0  0  # atno 17371 bound_to 10713
  140.7415  134.4144  157.5554 LP  0  0  0  0  0  0  0  0  0  0  0  0  # atno 17394 bound_to 11000
  139.8890  134.8840  156.2441 LP  0  0  0  0  0  0  0  0  0  0  0  0  # atno 17395 bound_to 11000

$$$$
