AV-unprocessed.smi:1005|AV-procd|sdf|4368|dock7
  -GOLD-   22720 2273D 1   1.00000     0.00000
 Structure written by MMmdl.
 57 59  0  0  0  0  0  0  0  0  3 V2000
  153.0535  142.6164  161.3768 C   0  0  0  0  0  0  0  0  0  0  0  0
  152.4056  142.4024  160.0201 C   0  0  0  0  0  0  0  0  0  0  0  0
  152.8296  141.3179  159.2195 C   0  0  0  0  0  0  0  0  0  0  0  0
  152.2533  141.0849  157.9517 C   0  0  0  0  0  0  0  0  0  0  0  0
  152.5126  140.1010  157.0130 N   0  0  0  0  0  0  0  0  0  0  0  0
  151.6554  140.4182  156.0477 C   0  0  0  0  0  0  0  0  0  0  0  0
  150.8722  141.4955  156.2476 N   0  0  0  0  0  0  0  0  0  0  0  0
  149.8732  142.0296  155.3389 C   0  0  0  0  0  0  0  0  0  0  0  0
  149.1095  140.9227  154.5869 C   0  0  2  0  0  0  0  0  0  0  0  0
  149.6238  140.8067  153.2742 O   0  0  0  0  0  0  0  0  0  0  0  0
  147.6023  141.2322  154.4963 C   0  0  0  0  0  0  0  0  0  0  0  0
  147.1361  142.1127  155.6017 N   0  3  2  0  0  0  0  0  0  0  0  0
  147.0766  141.4355  156.9196 C   0  0  0  0  0  0  0  0  0  0  0  0
  145.8179  140.5597  157.0370 C   0  0  0  0  0  0  0  0  0  0  0  0
  144.6647  141.3642  156.8205 O   0  0  0  0  0  0  0  0  0  0  0  0
  144.6296  141.9327  155.5151 C   0  0  1  0  0  0  0  0  0  0  0  0
  143.3197  142.7329  155.3815 C   0  0  0  0  0  0  0  0  0  0  0  0
  142.1650  141.8909  154.9750 N   0  3  0  0  0  0  0  0  0  0  0  0
  140.8757  142.6208  154.9665 C   0  0  0  0  0  0  0  0  0  0  0  0
  142.0766  140.6476  155.7729 C   0  0  0  0  0  0  0  0  0  0  0  0
  145.8686  142.8399  155.3313 C   0  0  0  0  0  0  0  0  0  0  0  0
  151.2321  141.9730  157.5035 C   0  0  0  0  0  0  0  0  0  0  0  0
  150.8019  143.0557  158.2906 C   0  0  0  0  0  0  0  0  0  0  0  0
  151.3885  143.2743  159.5548 C   0  0  0  0  0  0  0  0  0  0  0  0
  150.9173  144.4464  160.3973 C   0  0  0  0  0  0  0  0  0  0  0  0
  153.8115  141.8593  161.5803 H   0  0  0  0  0  0  0  0  0  0  0  0
  152.3069  142.5630  162.1694 H   0  0  0  0  0  0  0  0  0  0  0  0
  153.5364  143.5927  161.4201 H   0  0  0  0  0  0  0  0  0  0  0  0
  153.6044  140.6537  159.5737 H   0  0  0  0  0  0  0  0  0  0  0  0
  151.5948  139.8353  155.1401 H   0  0  0  0  0  0  0  0  0  0  0  0
  149.1785  142.6389  155.9187 H   0  0  0  0  0  0  0  0  0  0  0  0
  150.3646  142.7037  154.6359 H   0  0  0  0  0  0  0  0  0  0  0  0
  149.2755  139.9768  155.1018 H   0  0  0  0  0  0  0  0  0  0  0  0
  150.3636  140.2176  153.2911 H   0  0  0  0  0  0  0  0  0  0  0  0
  147.3645  141.6826  153.5329 H   0  0  0  0  0  0  0  0  0  0  0  0
  147.0584  140.2866  154.5254 H   0  0  0  0  0  0  0  0  0  0  0  0
  147.9786  140.8480  157.0949 H   0  0  0  0  0  0  0  0  0  0  0  0
  147.0559  142.2001  157.6975 H   0  0  0  0  0  0  0  0  0  0  0  0
  145.8426  139.7308  156.3280 H   0  0  0  0  0  0  0  0  0  0  0  0
  145.7588  140.1224  158.0338 H   0  0  0  0  0  0  0  0  0  0  0  0
  144.6504  141.1367  154.7716 H   0  0  0  0  0  0  0  0  0  0  0  0
  143.1059  143.1991  156.3447 H   0  0  0  0  0  0  0  0  0  0  0  0
  143.4395  143.5489  154.6671 H   0  0  0  0  0  0  0  0  0  0  0  0
  140.6303  142.9931  155.9621 H   0  0  0  0  0  0  0  0  0  0  0  0
  140.0668  141.9647  154.6431 H   0  0  0  0  0  0  0  0  0  0  0  0
  140.8952  143.4667  154.2805 H   0  0  0  0  0  0  0  0  0  0  0  0
  141.9050  140.8703  156.8271 H   0  0  0  0  0  0  0  0  0  0  0  0
  142.9958  140.0664  155.6907 H   0  0  0  0  0  0  0  0  0  0  0  0
  141.2590  140.0183  155.4193 H   0  0  0  0  0  0  0  0  0  0  0  0
  145.8108  143.6758  156.0300 H   0  0  0  0  0  0  0  0  0  0  0  0
  145.8774  143.2803  154.3347 H   0  0  0  0  0  0  0  0  0  0  0  0
  150.0278  143.7135  157.9242 H   0  0  0  0  0  0  0  0  0  0  0  0
  150.1286  145.0066  159.8940 H   0  0  0  0  0  0  0  0  0  0  0  0
  151.7422  145.1318  160.5927 H   0  0  0  0  0  0  0  0  0  0  0  0
  150.5223  144.0972  161.3516 H   0  0  0  0  0  0  0  0  0  0  0  0
  142.3434  141.5965  154.0248 H   0  0  0  0  0  0  0  0  0  0  0  0
  147.8600  142.8129  155.6886 H   0  0  0  0  0  0  0  0  0  0  0  0
  1  2  1  0  0  0  0
  1 26  1  0  0  0  0
  1 27  1  0  0  0  0
  1 28  1  0  0  0  0
  2 24  1  0  0  0  0
  2  3  2  0  0  0  0
  3  4  1  0  0  0  0
  3 29  1  0  0  0  0
  4 22  2  0  0  0  0
  4  5  1  0  0  0  0
  5  6  2  0  0  0  0
  6  7  1  0  0  0  0
  6 30  1  0  0  0  0
  7  8  1  0  0  0  0
  7 22  1  0  0  0  0
  8  9  1  0  0  0  0
  8 31  1  0  0  0  0
  8 32  1  0  0  0  0
  9 10  1  0  0  0  0
  9 11  1  0  0  0  0
  9 33  1  0  0  0  0
 10 34  1  0  0  0  0
 11 12  1  0  0  0  0
 11 35  1  0  0  0  0
 11 36  1  0  0  0  0
 12 21  1  0  0  0  0
 12 13  1  0  0  0  0
 12 57  1  0  0  0  0
 13 14  1  0  0  0  0
 13 37  1  0  0  0  0
 13 38  1  0  0  0  0
 14 15  1  0  0  0  0
 14 39  1  0  0  0  0
 14 40  1  0  0  0  0
 15 16  1  0  0  0  0
 16 17  1  0  0  0  0
 16 21  1  0  0  0  0
 16 41  1  0  0  0  0
 17 18  1  0  0  0  0
 17 42  1  0  0  0  0
 17 43  1  0  0  0  0
 18 19  1  0  0  0  0
 18 20  1  0  0  0  0
 18 56  1  0  0  0  0
 19 44  1  0  0  0  0
 19 45  1  0  0  0  0
 19 46  1  0  0  0  0
 20 47  1  0  0  0  0
 20 48  1  0  0  0  0
 20 49  1  0  0  0  0
 21 50  1  0  0  0  0
 21 51  1  0  0  0  0
 22 23  1  0  0  0  0
 23 24  2  0  0  0  0
 23 52  1  0  0  0  0
 24 25  1  0  0  0  0
 25 53  1  0  0  0  0
 25 54  1  0  0  0  0
 25 55  1  0  0  0  0
M  CHG  1  12   1
M  CHG  1  18   1
M  END
> <s_m_source_file>
AV-unprocessed.smi

> <i_m_source_file_index>
1005

> <i_lp_mmshare_version>
43012

> <i_f3d_flags>
0

> <s_epik_input>
W0NIM11jKFtjSF0xKWMoW0NIM10pW2NIXWMoYzEyKW4oW2NIXW4yKVtDSDJdW0NASF0oW09IXSlbQ0gyXU4zW0NIMl1bQ0gyXU9bQ0BIXShbQ0gyXTMpW0NIMl1OKFtDSDNdKVtDSDNd

> <s_epik_cmdline>
J2VwaWtfcHl0aG9uJywgJy1waCcsICc3LjAnLCAnLXRuJywgJzgnLCAnLW1hJywgJzIwMCcsICctbWV0YWxfYmluZGluZycsICctaW1hZScsICc8aW5maWxlLm1hZT4nLCAnLW9tYWUnLCAnPG91dGZpbGUubWFlPic=

> <r_epik_Ionization_Penalty>
1.0968

> <r_epik_Ionization_Penalty_Charging>
1.0096

> <r_epik_Ionization_Penalty_Neutral>
0.0871956

> <r_epik_State_Penalty>
1.31185

> <r_epik_Charging_Adjusted_Penalty>
2.32145

> <i_epik_Tot_Q>
2

> <i_epik_Tot_abs_Q>
2

> <r_epik_Metal_State_Penalty>
1.22442

> <b_epik_Metal_Only>
0

> <s_lp_Force_Field>
OPLS_2005

> <r_lp_Energy>
35.7023

> <b_lp_Chiralities_Consistent>
1

> <s_lp_Variant>
AV-unprocessed.smi:1005-7

> <Gold.Version>
5.8.1

> <Gold.Id.Protein>
6NUR|6NUR_protein|mol2

> <Gold.PLP.Fitness>
60.0300

> <Gold.PLP.PLP>
-45.4156

> <Gold.PLP.part.hbond>
-5.0994

> <Gold.PLP.part.metal>
0.0000

> <Gold.PLP.part.buried>
-5.0502

> <Gold.PLP.part.nonpolar>
-34.8379

> <Gold.PLP.part.repulsive>
0.0712

> <Gold.PLP.ligand.clash>
0.0000

> <Gold.PLP.ligand.torsion>
1.8231

> <Gold.PLP.Chemscore.Hbond>
6.0000

> <Gold.PLP.Chemscore.CHOScore>
0.0000

> <Gold.PLP.Chemscore.Metal>
0.0000

> <Gold.Chemscore.Hbonds>
donor molecule, donor type, donor heavy atom, donor atom, acceptor molecule, acceptor atom, score
      L1  H    12    57       P1  8028  1.43
      L1  H    18    56       P1 10174  0.74
      P1  H  7997  8009       L1     5  1.00
      P1  H  8011  8017       L1    10  1.00

> <Gold.PLP.Chemscore.Internal.Correction>
0.2606

> <Gold.Rescore>
     Score         DG    S(hbond)    S(metal)    S(lipo)     H(rot)  DE(clash)    DE(int)     intcor
     17.12     -20.63       2.54        0.00     111.38       2.48       0.28       3.22       ----

> <Gold.Chemscore.Fitness>
17.1200

> <Gold.Chemscore.DG>
-20.6264

> <Gold.Chemscore.ZeroCoef>
-5.4800

> <Gold.Chemscore.Hbond>
2.5350

> <Gold.Chemscore.Metal>
0.0000

> <Gold.Chemscore.Lipo>
111.3829

> <Gold.Chemscore.Internal_Hbond>
0.0000

> <Gold.Chemscore.DEClash>
0.2831

> <Gold.Chemscore.DEInternal>
3.2233

> <Gold.Chemscore.Rot>
2.4814

> <Gold.Chemscore.Internal.Correction>
   9.000000E+99

> <Gold.Chemscore.Hbonds>
donor molecule, donor type, donor heavy atom, donor atom, acceptor molecule, acceptor atom, score
      L1  H    12    57       P1  8028  0.49
      L1  H    18    56       P1 10174  0.02
      P1  H  7997  8009       L1     5  0.67
      P1  H  8011  8017       L1    10  0.89

> <Gold.Chemscore.Hbond.Weighted>
-8.4669

> <Gold.Chemscore.Metal.Weighted>
-0.0000

> <Gold.Chemscore.Lipo.Weighted>
-13.0318

> <Gold.Chemscore.Internal_Hbond.Weighted>
0.0000

> <Gold.Chemscore.DEClash.Weighted>
0.2831

> <Gold.Chemscore.DEInternal.Weighted>
3.2233

> <Gold.Chemscore.Rot.Weighted>
6.3524

> <Gold.Chemscore.Internal.Correction.Weighted>
   9.000000E+99

> <Gold.Protein.RotatedTorsions>
[ 6907 6896 6895 6894 ] final   59.03 input  -60.11 | X-H torsion
[ 7974 7965 7964 7962 ] final  171.32 input  175.53 | X-H torsion
[ 8008 7997 7996 7995 ] final -178.95 input   59.86 | X-H torsion
[ 10167 10162 10161 10158 ] final   81.24 input  -65.29 | X-H torsion
[ 10718 10713 10712 10709 ] final -133.64 input   66.30 | X-H torsion
[ 10763 10752 10751 10750 ] final  136.88 input  -60.55 | X-H torsion
[ 11005 11000 10999 10996 ] final -129.39 input  -57.11 | X-H torsion

> <Gold.Protein.ActiveResidues>
 VAL166  LYS551  ARG553  GLY616  TRP617  ASP618  TYR619  PRO620  LYS621  CYS622 
 ASP623  PHE694  ASN695  SER759  ASP760  ASP761  ALA762  ILE779  LEU786  VAL792 
 PHE793  MET794  SER795  GLU796  ALA797  LYS798  CYS799  TRP800  GLU811  SER814 

> <Gold.Protein.RotatedAtoms>
  152.3878  134.6490  160.0118 H   0  0  0  0  0  0  0  0  0  0  0  0  # atno 6907 bound_to 6896
  151.6733  133.3308  159.3210 H   0  0  0  0  0  0  0  0  0  0  0  0  # atno 6908 bound_to 6896
  150.7800  134.6780  159.6473 H   0  0  0  0  0  0  0  0  0  0  0  0  # atno 6909 bound_to 6896
  144.7298  139.9333  143.6425 H   0  0  0  0  0  0  0  0  0  0  0  0  # atno 7974 bound_to 7965
  156.0248  140.1269  157.0319 H   0  0  0  0  0  0  0  0  0  0  0  0  # atno 8008 bound_to 7997
  154.4326  140.1061  156.6086 H   0  0  0  0  0  0  0  0  0  0  0  0  # atno 8009 bound_to 7997
  155.5892  140.3469  155.4564 H   0  0  0  0  0  0  0  0  0  0  0  0  # atno 8010 bound_to 7997
  139.9413  144.6088  150.8249 H   0  0  0  0  0  0  0  0  0  0  0  0  # atno 10167 bound_to 10162
  156.2470  130.7130  151.1015 H   0  0  0  0  0  0  0  0  0  0  0  0  # atno 10718 bound_to 10713
  153.8638  135.3064  155.3439 H   0  0  0  0  0  0  0  0  0  0  0  0  # atno 10763 bound_to 10752
  154.7837  135.4821  153.9902 H   0  0  0  0  0  0  0  0  0  0  0  0  # atno 10764 bound_to 10752
  153.1446  135.6831  153.9069 H   0  0  0  0  0  0  0  0  0  0  0  0  # atno 10765 bound_to 10752
  140.9435  134.1161  157.4128 H   0  0  0  0  0  0  0  0  0  0  0  0  # atno 11005 bound_to 11000
  146.0841  139.3829  143.0446 LP  0  0  0  0  0  0  0  0  0  0  0  0  # atno 17320 bound_to 7965
  145.7801  140.9860  143.1104 LP  0  0  0  0  0  0  0  0  0  0  0  0  # atno 17321 bound_to 7965
  140.7610  143.3164  151.2723 LP  0  0  0  0  0  0  0  0  0  0  0  0  # atno 17342 bound_to 10162
  139.6702  144.0033  152.2748 LP  0  0  0  0  0  0  0  0  0  0  0  0  # atno 17343 bound_to 10162
  157.7199  131.0688  150.6178 LP  0  0  0  0  0  0  0  0  0  0  0  0  # atno 17370 bound_to 10713
  156.6255  130.4417  149.5806 LP  0  0  0  0  0  0  0  0  0  0  0  0  # atno 17371 bound_to 10713
  139.8827  135.0044  156.6247 LP  0  0  0  0  0  0  0  0  0  0  0  0  # atno 17394 bound_to 11000
  140.7701  133.8745  155.8485 LP  0  0  0  0  0  0  0  0  0  0  0  0  # atno 17395 bound_to 11000

$$$$
