AV-unprocessed.smi:236|AV-procd|sdf|1811|dock8
  -GOLD-   2262020393D 1   1.00000     0.00000
 Structure written by MMmdl.
 58 62  0  0  0  0  0  0  0  0  1 V2000
  144.6332  135.0035  152.7233 C   0  0  0  0  0  0  0  0  0  0  0  0
  143.5020  135.5628  153.6006 C   0  0  2  0  0  0  0  0  0  0  0  0
  142.2691  134.9566  153.2306 O   0  0  0  0  0  0  0  0  0  0  0  0
  141.2228  135.8332  153.6070 C   0  0  0  0  0  0  0  0  0  0  0  0
  141.7684  137.1859  153.1773 C   0  0  0  0  0  0  0  0  0  0  0  0
  143.2547  137.0957  153.5353 C   0  0  2  0  0  0  0  0  0  0  0  0
  143.9970  137.7185  152.4998 O   0  0  0  0  0  0  0  0  0  0  0  0
  143.6203  137.7755  154.8806 C   0  0  0  0  0  0  0  0  0  0  0  0
  145.0247  138.1365  155.0099 N   0  0  0  0  0  0  0  0  0  0  0  0
  145.5759  139.3873  154.8421 C   0  0  0  0  0  0  0  0  0  0  0  0
  146.8694  139.4527  155.0033 N   0  0  0  0  0  0  0  0  0  0  0  0
  147.2413  138.1447  155.2900 C   0  0  0  0  0  0  0  0  0  0  0  0
  148.4795  137.4977  155.5641 C   0  0  0  0  0  0  0  0  0  0  0  0
  149.6799  138.1119  155.6015 N   0  0  0  0  0  0  0  0  0  0  0  0
  150.5252  137.8108  154.4541 C   0  0  0  0  0  0  0  0  0  0  0  0
  151.9177  138.4295  154.6570 C   0  0  0  0  0  0  0  0  0  0  0  0
  151.7840  139.8272  154.8983 O   0  0  0  0  0  0  0  0  0  0  0  0
  151.0321  140.1084  156.0779 C   0  0  1  0  0  0  0  0  0  0  0  0
  151.0111  141.6283  156.2842 C   0  0  0  0  0  0  0  0  0  0  0  0
  150.2585  141.9286  157.4480 O   0  0  0  0  0  0  0  0  0  0  0  0
  151.0764  142.1757  158.5786 C   0  0  0  0  0  0  0  0  0  0  0  0
  152.0655  143.2717  158.2432 C   0  0  0  0  0  0  0  0  0  0  0  0
  152.3791  144.3669  159.2381 C   0  0  0  0  0  0  0  0  0  0  0  0
  151.5807  144.6830  157.9995 C   0  0  0  0  0  0  0  0  0  0  0  0
  149.6120  139.5374  155.8965 C   0  0  0  0  0  0  0  0  0  0  0  0
  148.4632  136.1628  155.7973 N   0  0  0  0  0  0  0  0  0  0  0  0
  147.3064  135.4944  155.7673 C   0  0  0  0  0  0  0  0  0  0  0  0
  146.0783  135.9596  155.5274 N   0  0  0  0  0  0  0  0  0  0  0  0
  146.0935  137.3035  155.2923 C   0  0  0  0  0  0  0  0  0  0  0  0
  145.5921  135.4509  152.9863 H   0  0  0  0  0  0  0  0  0  0  0  0
  144.4494  135.1921  151.6653 H   0  0  0  0  0  0  0  0  0  0  0  0
  144.7253  133.9252  152.8531 H   0  0  0  0  0  0  0  0  0  0  0  0
  143.6936  135.2678  154.6336 H   0  0  0  0  0  0  0  0  0  0  0  0
  140.2850  135.5799  153.1123 H   0  0  0  0  0  0  0  0  0  0  0  0
  141.0709  135.7935  154.6869 H   0  0  0  0  0  0  0  0  0  0  0  0
  141.6374  137.2803  152.0979 H   0  0  0  0  0  0  0  0  0  0  0  0
  141.2382  138.0173  153.6384 H   0  0  0  0  0  0  0  0  0  0  0  0
  143.6599  138.5923  152.3746 H   0  0  0  0  0  0  0  0  0  0  0  0
  143.0250  138.6792  155.0175 H   0  0  0  0  0  0  0  0  0  0  0  0
  143.3645  137.1172  155.7121 H   0  0  0  0  0  0  0  0  0  0  0  0
  144.9836  140.2571  154.5967 H   0  0  0  0  0  0  0  0  0  0  0  0
  150.6099  136.7306  154.3265 H   0  0  0  0  0  0  0  0  0  0  0  0
  150.0732  138.2101  153.5451 H   0  0  0  0  0  0  0  0  0  0  0  0
  152.4391  137.9533  155.4888 H   0  0  0  0  0  0  0  0  0  0  0  0
  152.5301  138.2783  153.7680 H   0  0  0  0  0  0  0  0  0  0  0  0
  151.5055  139.6365  156.9412 H   0  0  0  0  0  0  0  0  0  0  0  0
  152.0278  142.0164  156.3653 H   0  0  0  0  0  0  0  0  0  0  0  0
  150.5421  142.1118  155.4257 H   0  0  0  0  0  0  0  0  0  0  0  0
  150.4647  142.4993  159.4222 H   0  0  0  0  0  0  0  0  0  0  0  0
  151.6096  141.2715  158.8770 H   0  0  0  0  0  0  0  0  0  0  0  0
  152.8867  142.9436  157.6085 H   0  0  0  0  0  0  0  0  0  0  0  0
  151.8487  144.3582  160.1882 H   0  0  0  0  0  0  0  0  0  0  0  0
  153.4053  144.7261  159.2809 H   0  0  0  0  0  0  0  0  0  0  0  0
  152.0735  145.2547  157.2157 H   0  0  0  0  0  0  0  0  0  0  0  0
  150.5184  144.8833  158.1243 H   0  0  0  0  0  0  0  0  0  0  0  0
  149.1043  140.0617  155.0861 H   0  0  0  0  0  0  0  0  0  0  0  0
  149.0250  139.6963  156.8022 H   0  0  0  0  0  0  0  0  0  0  0  0
  147.3747  134.4341  155.9611 H   0  0  0  0  0  0  0  0  0  0  0  0
  1  2  1  0  0  0  0
  1 30  1  0  0  0  0
  1 31  1  0  0  0  0
  1 32  1  0  0  0  0
  2  6  1  0  0  0  0
  2  3  1  0  0  0  0
  2 33  1  0  0  0  0
  3  4  1  0  0  0  0
  4  5  1  0  0  0  0
  4 34  1  0  0  0  0
  4 35  1  0  0  0  0
  5  6  1  0  0  0  0
  5 36  1  0  0  0  0
  5 37  1  0  0  0  0
  6  7  1  0  0  0  0
  6  8  1  0  0  0  0
  7 38  1  0  0  0  0
  8  9  1  0  0  0  0
  8 39  1  0  0  0  0
  8 40  1  0  0  0  0
  9 29  1  0  0  0  0
  9 10  1  0  0  0  0
 10 11  2  0  0  0  0
 10 41  1  0  0  0  0
 11 12  1  0  0  0  0
 12 29  2  0  0  0  0
 12 13  1  0  0  0  0
 13 14  1  0  0  0  0
 13 26  2  0  0  0  0
 14 25  1  0  0  0  0
 14 15  1  0  0  0  0
 15 16  1  0  0  0  0
 15 42  1  0  0  0  0
 15 43  1  0  0  0  0
 16 17  1  0  0  0  0
 16 44  1  0  0  0  0
 16 45  1  0  0  0  0
 17 18  1  0  0  0  0
 18 19  1  0  0  0  0
 18 25  1  0  0  0  0
 18 46  1  0  0  0  0
 19 20  1  0  0  0  0
 19 47  1  0  0  0  0
 19 48  1  0  0  0  0
 20 21  1  0  0  0  0
 21 22  1  0  0  0  0
 21 49  1  0  0  0  0
 21 50  1  0  0  0  0
 22 24  1  0  0  0  0
 22 23  1  0  0  0  0
 22 51  1  0  0  0  0
 23 24  1  0  0  0  0
 23 52  1  0  0  0  0
 23 53  1  0  0  0  0
 24 54  1  0  0  0  0
 24 55  1  0  0  0  0
 25 56  1  0  0  0  0
 25 57  1  0  0  0  0
 26 27  1  0  0  0  0
 27 28  2  0  0  0  0
 27 58  1  0  0  0  0
 28 29  1  0  0  0  0
M  END
> <s_m_source_file>
AV-unprocessed.smi

> <i_m_source_file_index>
236

> <i_lp_mmshare_version>
43012

> <i_f3d_flags>
0

> <s_epik_input>
W0NIMl0xW0NIMl1PW0NAQEhdKFtDSDNdKVtDQEBdMShbT0hdKVtDSDJdbihbY0hdbjIpYyhjMjMpbltjSF1uYzNONFtDSDJdW0NIMl1PW0NASF0oW0NIMl00KVtDSDJdT1tDSDJdW0NIXTVbQ0gyXVtDSDJdNQ==

> <s_epik_cmdline>
J2VwaWtfcHl0aG9uJywgJy1waCcsICc3LjAnLCAnLXRuJywgJzgnLCAnLW1hJywgJzIwMCcsICctbWV0YWxfYmluZGluZycsICctaW1hZScsICc8aW5maWxlLm1hZT4nLCAnLW9tYWUnLCAnPG91dGZpbGUubWFlPic=

> <r_lp_tautomer_probability>
1

> <r_epik_Ionization_Penalty>
7.21838e-05

> <r_epik_Ionization_Penalty_Charging>
0

> <r_epik_Ionization_Penalty_Neutral>
7.21838e-05

> <r_epik_State_Penalty>
-0

> <r_epik_Charging_Adjusted_Penalty>
0

> <i_epik_Tot_Q>
0

> <i_epik_Tot_abs_Q>
0

> <r_epik_Metal_State_Penalty>
-0

> <b_epik_Metal_Only>
0

> <s_lp_Force_Field>
OPLS_2005

> <r_lp_Energy>
49.5811

> <b_lp_Chiralities_Consistent>
1

> <s_lp_Variant>
AV-unprocessed.smi:236-3

> <Gold.Version>
5.8.1

> <Gold.Id.Protein>
6NUR|6NUR_protein|mol2

> <Gold.PLP.Fitness>
45.9131

> <Gold.PLP.PLP>
-39.9784

> <Gold.PLP.part.hbond>
-3.0000

> <Gold.PLP.part.metal>
0.0000

> <Gold.PLP.part.buried>
-8.5130

> <Gold.PLP.part.nonpolar>
-29.0313

> <Gold.PLP.part.repulsive>
0.5103

> <Gold.PLP.ligand.clash>
0.0000

> <Gold.PLP.ligand.torsion>
1.6995

> <Gold.PLP.Chemscore.Hbond>
1.9920

> <Gold.PLP.Chemscore.CHOScore>
0.8352

> <Gold.PLP.Chemscore.Metal>
0.0000

> <Gold.Chemscore.Hbonds>
donor molecule, donor type, donor heavy atom, donor atom, acceptor molecule, acceptor atom, score
      L1  H     7    38       P1 10175  1.00
      P1  H  7989  7998       L1    17  1.00
      L1  C    10    41       P1 10175  0.88

> <Gold.PLP.Chemscore.Internal.Correction>
0.8522

> <Gold.Rescore>
     Score         DG    S(hbond)    S(metal)    S(lipo)     H(rot)  DE(clash)    DE(int)     intcor
     13.38     -16.51       1.93        0.00     101.80       2.87       0.11       3.03       ----

> <Gold.Chemscore.Fitness>
13.3758

> <Gold.Chemscore.DG>
-16.5136

> <Gold.Chemscore.ZeroCoef>
-5.4800

> <Gold.Chemscore.Hbond>
1.9339

> <Gold.Chemscore.Metal>
0.0000

> <Gold.Chemscore.Lipo>
101.7964

> <Gold.Chemscore.Internal_Hbond>
0.0000

> <Gold.Chemscore.DEClash>
0.1092

> <Gold.Chemscore.DEInternal>
3.0286

> <Gold.Chemscore.Rot>
2.8655

> <Gold.Chemscore.Internal.Correction>
   9.000000E+99

> <Gold.Chemscore.Hbonds>
donor molecule, donor type, donor heavy atom, donor atom, acceptor molecule, acceptor atom, score
      L1  H     7    38       P1 10175  0.99
      P1  H  7989  7998       L1    17  0.89

> <Gold.Chemscore.Hbond.Weighted>
-6.4592

> <Gold.Chemscore.Metal.Weighted>
-0.0000

> <Gold.Chemscore.Lipo.Weighted>
-11.9102

> <Gold.Chemscore.Internal_Hbond.Weighted>
0.0000

> <Gold.Chemscore.DEClash.Weighted>
0.1092

> <Gold.Chemscore.DEInternal.Weighted>
3.0286

> <Gold.Chemscore.Rot.Weighted>
7.3358

> <Gold.Chemscore.Internal.Correction.Weighted>
   9.000000E+99

> <Gold.Protein.RotatedTorsions>
[ 6907 6896 6895 6894 ] final  -63.15 input  -60.11 | X-H torsion
[ 7974 7965 7964 7962 ] final -103.24 input  175.53 | X-H torsion
[ 8008 7997 7996 7995 ] final -131.09 input   59.86 | X-H torsion
[ 10167 10162 10161 10158 ] final  139.93 input  -65.29 | X-H torsion
[ 10718 10713 10712 10709 ] final -174.41 input   66.30 | X-H torsion
[ 10763 10752 10751 10750 ] final   63.40 input  -60.55 | X-H torsion
[ 11005 11000 10999 10996 ] final  -14.96 input  -57.11 | X-H torsion

> <Gold.Protein.ActiveResidues>
 VAL166  LYS551  ARG553  GLY616  TRP617  ASP618  TYR619  PRO620  LYS621  CYS622 
 ASP623  PHE694  ASN695  SER759  ASP760  ASP761  ALA762  ILE779  LEU786  VAL792 
 PHE793  MET794  SER795  GLU796  ALA797  LYS798  CYS799  TRP800  GLU811  SER814 

> <Gold.Protein.RotatedAtoms>
  150.7668  134.6474  159.6269 H   0  0  0  0  0  0  0  0  0  0  0  0  # atno 6907 bound_to 6896
  152.3703  134.6740  160.0187 H   0  0  0  0  0  0  0  0  0  0  0  0  # atno 6908 bound_to 6896
  151.7102  133.3276  159.3325 H   0  0  0  0  0  0  0  0  0  0  0  0  # atno 6909 bound_to 6896
  145.2585  140.9261  143.3054 H   0  0  0  0  0  0  0  0  0  0  0  0  # atno 7974 bound_to 7965
  155.3066  140.0455  157.3032 H   0  0  0  0  0  0  0  0  0  0  0  0  # atno 8008 bound_to 7997
  154.5456  140.2301  155.8535 H   0  0  0  0  0  0  0  0  0  0  0  0  # atno 8009 bound_to 7997
  156.1921  140.3048  155.9360 H   0  0  0  0  0  0  0  0  0  0  0  0  # atno 8010 bound_to 7997
  139.5064  144.6265  151.5924 H   0  0  0  0  0  0  0  0  0  0  0  0  # atno 10167 bound_to 10162
  156.7847  130.9496  151.3120 H   0  0  0  0  0  0  0  0  0  0  0  0  # atno 10718 bound_to 10713
  153.0016  135.5430  154.6345 H   0  0  0  0  0  0  0  0  0  0  0  0  # atno 10763 bound_to 10752
  154.5615  135.2834  155.0917 H   0  0  0  0  0  0  0  0  0  0  0  0  # atno 10764 bound_to 10752
  154.2118  135.6466  153.5170 H   0  0  0  0  0  0  0  0  0  0  0  0  # atno 10765 bound_to 10752
  140.7917  133.8282  155.9386 H   0  0  0  0  0  0  0  0  0  0  0  0  # atno 11005 bound_to 11000
  144.9439  139.4157  143.6435 LP  0  0  0  0  0  0  0  0  0  0  0  0  # atno 17320 bound_to 7965
  146.3282  139.8413  142.8890 LP  0  0  0  0  0  0  0  0  0  0  0  0  # atno 17321 bound_to 7965
  140.5984  143.9655  150.6369 LP  0  0  0  0  0  0  0  0  0  0  0  0  # atno 17342 bound_to 10162
  140.2858  143.3358  152.1108 LP  0  0  0  0  0  0  0  0  0  0  0  0  # atno 17343 bound_to 10162
  157.6629  130.8982  149.9869 LP  0  0  0  0  0  0  0  0  0  0  0  0  # atno 17370 bound_to 10713
  156.1196  130.3646  149.9910 LP  0  0  0  0  0  0  0  0  0  0  0  0  # atno 17371 bound_to 10713
  140.9382  134.1934  157.4816 LP  0  0  0  0  0  0  0  0  0  0  0  0  # atno 17394 bound_to 11000
  139.8730  134.9861  156.5310 LP  0  0  0  0  0  0  0  0  0  0  0  0  # atno 17395 bound_to 11000

$$$$
