AV-unprocessed.smi:714|AV-procd|sdf|3482|dock2
  -GOLD-   22720 0473D 1   1.00000     0.00000
 Structure written by MMmdl.
 38 39  0  0  0  0  0  0  0  0  1 V2000
  152.5190  145.1019  159.4356 C   0  0  0  0  0  0  0  0  0  0  0  0
  152.8018  143.9220  159.5740 C   0  0  0  0  0  0  0  0  0  0  0  0
  153.1256  142.4941  159.7314 C   0  0  0  0  0  0  0  0  0  0  0  0
  152.0071  141.6258  159.3814 N   0  0  0  0  0  0  0  0  0  0  0  0
  152.1046  140.3760  158.8935 C   0  0  0  0  0  0  0  0  0  0  0  0
  153.1956  139.8320  158.7141 O   0  0  0  0  0  0  0  0  0  0  0  0
  150.8099  139.7551  158.6014 C   0  0  0  0  0  0  0  0  0  0  0  0
  149.7745  140.4103  157.8192 C   0  0  0  0  0  0  0  0  0  0  0  0
  148.6143  139.7798  157.5586 C   0  0  0  0  0  0  0  0  0  0  0  0
  148.3417  138.4253  158.0462 C   0  0  0  0  0  0  0  0  0  0  0  0
  147.2864  137.8506  157.7767 O   0  0  0  0  0  0  0  0  0  0  0  0
  149.3296  137.8468  158.8071 N   0  0  0  0  0  0  0  0  0  0  0  0
  149.2098  136.4883  159.3959 C   0  0  2  0  0  0  0  0  0  0  0  0
  149.0297  135.3832  158.3353 C   0  0  0  0  0  0  0  0  0  0  0  0
  147.8575  134.5170  158.8206 C   0  0  0  0  0  0  0  0  0  0  0  0
  147.2975  135.2194  159.9639 N   0  0  0  0  0  0  0  0  0  0  0  0
  146.0824  134.7308  160.6123 C   0  0  0  0  0  0  0  0  0  0  0  0
  146.3515  134.1744  162.0229 C   0  0  0  0  0  0  0  0  0  0  0  0
  146.7565  135.1701  162.8101 F   0  0  0  0  0  0  0  0  0  0  0  0
  145.2509  133.6402  162.5517 F   0  0  0  0  0  0  0  0  0  0  0  0
  147.3105  133.2494  161.9813 F   0  0  0  0  0  0  0  0  0  0  0  0
  148.0082  136.2950  160.3199 C   0  0  0  0  0  0  0  0  0  0  0  0
  147.7657  137.0438  161.2659 O   0  0  0  0  0  0  0  0  0  0  0  0
  150.5477  138.5147  159.0579 C   0  0  0  0  0  0  0  0  0  0  0  0
  152.2676  146.1315  159.3130 H   0  0  0  0  0  0  0  0  0  0  0  0
  154.0109  142.2667  159.1356 H   0  0  0  0  0  0  0  0  0  0  0  0
  153.3894  142.3235  160.7750 H   0  0  0  0  0  0  0  0  0  0  0  0
  151.0815  142.0086  159.5070 H   0  0  0  0  0  0  0  0  0  0  0  0
  149.9090  141.4086  157.4295 H   0  0  0  0  0  0  0  0  0  0  0  0
  147.8605  140.2859  156.9733 H   0  0  0  0  0  0  0  0  0  0  0  0
  150.0814  136.2410  160.0034 H   0  0  0  0  0  0  0  0  0  0  0  0
  148.8080  135.7870  157.3470 H   0  0  0  0  0  0  0  0  0  0  0  0
  149.9390  134.7902  158.2306 H   0  0  0  0  0  0  0  0  0  0  0  0
  147.1078  134.3873  158.0393 H   0  0  0  0  0  0  0  0  0  0  0  0
  148.2021  133.5294  159.1296 H   0  0  0  0  0  0  0  0  0  0  0  0
  145.3610  135.5467  160.6728 H   0  0  0  0  0  0  0  0  0  0  0  0
  145.6202  133.9634  159.9895 H   0  0  0  0  0  0  0  0  0  0  0  0
  151.2595  137.9495  159.6427 H   0  0  0  0  0  0  0  0  0  0  0  0
  1  2  3  0  0  0  0
  1 25  1  0  0  0  0
  2  3  1  0  0  0  0
  3  4  1  0  0  0  0
  3 26  1  0  0  0  0
  3 27  1  0  0  0  0
  4  5  1  0  0  0  0
  4 28  1  0  0  0  0
  5  6  2  0  0  0  0
  5  7  1  0  0  0  0
  7 24  2  0  0  0  0
  7  8  1  0  0  0  0
  8  9  2  0  0  0  0
  8 29  1  0  0  0  0
  9 10  1  0  0  0  0
  9 30  1  0  0  0  0
 10 11  2  0  0  0  0
 10 12  1  0  0  0  0
 12 13  1  0  0  0  0
 12 24  1  0  0  0  0
 13 22  1  0  0  0  0
 13 14  1  0  0  0  0
 13 31  1  0  0  0  0
 14 15  1  0  0  0  0
 14 32  1  0  0  0  0
 14 33  1  0  0  0  0
 15 16  1  0  0  0  0
 15 34  1  0  0  0  0
 15 35  1  0  0  0  0
 16 17  1  0  0  0  0
 16 22  1  0  0  0  0
 17 18  1  0  0  0  0
 17 36  1  0  0  0  0
 17 37  1  0  0  0  0
 18 19  1  0  0  0  0
 18 20  1  0  0  0  0
 18 21  1  0  0  0  0
 22 23  2  0  0  0  0
 24 38  1  0  0  0  0
M  END
> <s_m_source_file>
AV-unprocessed.smi

> <i_m_source_file_index>
714

> <i_lp_mmshare_version>
43012

> <i_f3d_flags>
0

> <s_epik_input>
W0NIXSNDW0NIMl1bTkhdQyg9TyljMVtjSF1bY0hdYyg9TyluKFtjSF0xKVtDQEBIXTJbQ0gyXVtDSDJdTihDMj1PKVtDSDJdQyhGKShGKUY=

> <s_epik_cmdline>
J2VwaWtfcHl0aG9uJywgJy1waCcsICc3LjAnLCAnLXRuJywgJzgnLCAnLW1hJywgJzIwMCcsICctbWV0YWxfYmluZGluZycsICctaW1hZScsICc8aW5maWxlLm1hZT4nLCAnLW9tYWUnLCAnPG91dGZpbGUubWFlPic=

> <r_lp_tautomer_probability>
1

> <r_epik_Ionization_Penalty>
2.95503e-06

> <r_epik_Ionization_Penalty_Charging>
5.74209e-08

> <r_epik_Ionization_Penalty_Neutral>
2.89761e-06

> <r_epik_State_Penalty>
-0

> <r_epik_Charging_Adjusted_Penalty>
5.74209e-08

> <i_epik_Tot_Q>
0

> <i_epik_Tot_abs_Q>
0

> <r_epik_Metal_State_Penalty>
-0

> <b_epik_Metal_Only>
0

> <s_lp_Force_Field>
OPLS_2005

> <r_lp_Energy>
34.0974

> <b_lp_Chiralities_Consistent>
1

> <s_lp_Variant>
AV-unprocessed.smi:714-1

> <Gold.Version>
5.8.1

> <Gold.Id.Protein>
6NUR|6NUR_protein|mol2

> <Gold.PLP.Fitness>
50.5111

> <Gold.PLP.PLP>
-44.1712

> <Gold.PLP.part.hbond>
-3.0000

> <Gold.PLP.part.metal>
0.0000

> <Gold.PLP.part.buried>
-5.4223

> <Gold.PLP.part.nonpolar>
-36.1635

> <Gold.PLP.part.repulsive>
0.1039

> <Gold.PLP.ligand.clash>
0.0000

> <Gold.PLP.ligand.torsion>
1.1703

> <Gold.PLP.Chemscore.Hbond>
2.8080

> <Gold.PLP.Chemscore.CHOScore>
0.0000

> <Gold.PLP.Chemscore.Metal>
0.0000

> <Gold.Chemscore.Hbonds>
donor molecule, donor type, donor heavy atom, donor atom, acceptor molecule, acceptor atom, score
      P1  H  6931  6943       L1    23  1.00
      P1  H  6934  6947       L1    23  0.72
      P1  H  7997  8010       L1     6  0.48

> <Gold.PLP.Chemscore.Internal.Correction>
0.2565

> <Gold.Rescore>
     Score         DG    S(hbond)    S(metal)    S(lipo)     H(rot)  DE(clash)    DE(int)     intcor
     16.06     -19.01       2.69        0.00      74.16       1.61       0.13       2.82       ----

> <Gold.Chemscore.Fitness>
16.0557

> <Gold.Chemscore.DG>
-19.0119

> <Gold.Chemscore.ZeroCoef>
-5.4800

> <Gold.Chemscore.Hbond>
2.6906

> <Gold.Chemscore.Metal>
0.0000

> <Gold.Chemscore.Lipo>
74.1555

> <Gold.Chemscore.Internal_Hbond>
0.0000

> <Gold.Chemscore.DEClash>
0.1347

> <Gold.Chemscore.DEInternal>
2.8215

> <Gold.Chemscore.Rot>
1.6136

> <Gold.Chemscore.Internal.Correction>
   9.000000E+99

> <Gold.Chemscore.Hbonds>
donor molecule, donor type, donor heavy atom, donor atom, acceptor molecule, acceptor atom, score
      P1  H  6931  6943       L1    23  0.96
      P1  H  6934  6947       L1    23  0.67
      P1  H  7997  8010       L1     6  0.45

> <Gold.Chemscore.Hbond.Weighted>
-8.9865

> <Gold.Chemscore.Metal.Weighted>
-0.0000

> <Gold.Chemscore.Lipo.Weighted>
-8.6762

> <Gold.Chemscore.Internal_Hbond.Weighted>
0.0000

> <Gold.Chemscore.DEClash.Weighted>
0.1347

> <Gold.Chemscore.DEInternal.Weighted>
2.8215

> <Gold.Chemscore.Rot.Weighted>
4.1308

> <Gold.Chemscore.Internal.Correction.Weighted>
   9.000000E+99

> <Gold.Protein.RotatedTorsions>
[ 6907 6896 6895 6894 ] final   93.17 input  -60.11 | X-H torsion
[ 7974 7965 7964 7962 ] final   72.09 input  175.53 | X-H torsion
[ 8008 7997 7996 7995 ] final   43.81 input   59.86 | X-H torsion
[ 10167 10162 10161 10158 ] final    3.29 input  -65.29 | X-H torsion
[ 10718 10713 10712 10709 ] final  -25.05 input   66.30 | X-H torsion
[ 10763 10752 10751 10750 ] final  108.42 input  -60.55 | X-H torsion
[ 11005 11000 10999 10996 ] final   76.00 input  -57.11 | X-H torsion

> <Gold.Protein.ActiveResidues>
 VAL166  LYS551  ARG553  GLY616  TRP617  ASP618  TYR619  PRO620  LYS621  CYS622 
 ASP623  PHE694  ASN695  SER759  ASP760  ASP761  ALA762  ILE779  LEU786  VAL792 
 PHE793  MET794  SER795  GLU796  ALA797  LYS798  CYS799  TRP800  GLU811  SER814 

> <Gold.Protein.RotatedAtoms>
  152.5453  134.1389  159.8470 H   0  0  0  0  0  0  0  0  0  0  0  0  # atno 6907 bound_to 6896
  151.1427  133.4953  159.2604 H   0  0  0  0  0  0  0  0  0  0  0  0  # atno 6908 bound_to 6896
  151.1556  135.0259  159.8742 H   0  0  0  0  0  0  0  0  0  0  0  0  # atno 6909 bound_to 6896
  145.7578  139.2787  143.1394 H   0  0  0  0  0  0  0  0  0  0  0  0  # atno 7974 bound_to 7965
  155.3089  140.3390  155.4244 H   0  0  0  0  0  0  0  0  0  0  0  0  # atno 8008 bound_to 7997
  156.1965  140.1717  156.8025 H   0  0  0  0  0  0  0  0  0  0  0  0  # atno 8009 bound_to 7997
  154.5506  140.0706  156.8644 H   0  0  0  0  0  0  0  0  0  0  0  0  # atno 8010 bound_to 7997
  140.6593  143.7346  150.7709 H   0  0  0  0  0  0  0  0  0  0  0  0  # atno 10167 bound_to 10162
  156.4694  130.4521  149.6878 H   0  0  0  0  0  0  0  0  0  0  0  0  # atno 10718 bound_to 10713
  153.4204  135.3812  155.2108 H   0  0  0  0  0  0  0  0  0  0  0  0  # atno 10763 bound_to 10752
  154.8744  135.3816  154.4391 H   0  0  0  0  0  0  0  0  0  0  0  0  # atno 10764 bound_to 10752
  153.4910  135.7088  153.5947 H   0  0  0  0  0  0  0  0  0  0  0  0  # atno 10765 bound_to 10752
  139.9318  134.7564  156.1341 H   0  0  0  0  0  0  0  0  0  0  0  0  # atno 11005 bound_to 11000
  146.0294  140.8272  142.9883 LP  0  0  0  0  0  0  0  0  0  0  0  0  # atno 17320 bound_to 7965
  144.6836  140.2746  143.7301 LP  0  0  0  0  0  0  0  0  0  0  0  0  # atno 17321 bound_to 7965
  140.1012  143.4786  152.2424 LP  0  0  0  0  0  0  0  0  0  0  0  0  # atno 17342 bound_to 10162
  139.5823  144.7516  151.3609 LP  0  0  0  0  0  0  0  0  0  0  0  0  # atno 17343 bound_to 10162
  156.3633  130.7493  151.2468 LP  0  0  0  0  0  0  0  0  0  0  0  0  # atno 17370 bound_to 10713
  157.7492  131.0344  150.4315 LP  0  0  0  0  0  0  0  0  0  0  0  0  # atno 17371 bound_to 10713
  141.0911  133.6714  156.2542 LP  0  0  0  0  0  0  0  0  0  0  0  0  # atno 17394 bound_to 11000
  140.6182  134.5389  157.5544 LP  0  0  0  0  0  0  0  0  0  0  0  0  # atno 17395 bound_to 11000

$$$$
