AV-unprocessed.smi:2999|AV-procd|sdf|11422|dock7
  -GOLD-   2272016343D 1   1.00000     0.00000
 Structure written by MMmdl.
 38 40  0  0  0  0  0  0  0  0  2 V2000
  146.8073  139.8109  153.4839 O   0  0  0  0  0  0  0  0  0  0  0  0
  147.5057  138.8623  153.1277 C   0  0  0  0  0  0  0  0  0  0  0  0
  147.0705  137.8925  152.3106 N   0  0  0  0  0  0  0  0  0  0  0  0
  145.7241  137.7977  151.7514 C   0  0  0  0  0  0  0  0  0  0  0  0
  145.0583  136.4321  152.0116 C   0  0  1  0  0  0  0  0  0  0  0  0
  145.0872  135.4674  150.8066 C   0  0  0  0  0  0  0  0  0  0  0  0
  144.4354  134.1865  151.1598 N   0  3  1  0  0  0  0  0  0  0  0  0
  144.3982  133.2404  150.0238 C   0  0  0  0  0  0  0  0  0  0  0  0
  144.2119  131.7997  150.4393 C   0  0  0  0  0  0  0  0  0  0  0  0
  145.5705  132.2881  149.9876 C   0  0  0  0  0  0  0  0  0  0  0  0
  145.0649  133.5993  152.3644 C   0  0  0  0  0  0  0  0  0  0  0  0
  145.0483  134.6107  153.5227 C   0  0  0  0  0  0  0  0  0  0  0  0
  145.6988  135.8118  153.1231 O   0  0  0  0  0  0  0  0  0  0  0  0
  148.7841  138.6613  153.4848 N   0  0  0  0  0  0  0  0  0  0  0  0
  149.5937  139.4823  154.3084 C   0  0  0  0  0  0  0  0  0  0  0  0
  149.1428  140.6880  154.6588 N   0  0  0  0  0  0  0  0  0  0  0  0
  150.0510  141.3719  155.4724 C   0  0  0  0  0  0  0  0  0  0  0  0
  151.1987  140.6653  155.7336 C   0  0  0  0  0  0  0  0  0  0  0  0
  151.1878  139.1011  154.9645 S   0  0  0  0  0  0  0  0  0  0  0  0
  147.7147  137.1547  152.0654 H   0  0  0  0  0  0  0  0  0  0  0  0
  145.1209  138.5854  152.2034 H   0  0  0  0  0  0  0  0  0  0  0  0
  145.7357  138.0085  150.6808 H   0  0  0  0  0  0  0  0  0  0  0  0
  144.0179  136.6258  152.2794 H   0  0  0  0  0  0  0  0  0  0  0  0
  144.5765  135.9191  149.9553 H   0  0  0  0  0  0  0  0  0  0  0  0
  146.1123  135.2637  150.4953 H   0  0  0  0  0  0  0  0  0  0  0  0
  143.9549  133.6089  149.1002 H   0  0  0  0  0  0  0  0  0  0  0  0
  144.0838  131.5800  151.4976 H   0  0  0  0  0  0  0  0  0  0  0  0
  143.6654  131.1488  149.7599 H   0  0  0  0  0  0  0  0  0  0  0  0
  145.9195  131.9573  149.0115 H   0  0  0  0  0  0  0  0  0  0  0  0
  146.3440  132.3912  150.7468 H   0  0  0  0  0  0  0  0  0  0  0  0
  144.5325  132.6930  152.6547 H   0  0  0  0  0  0  0  0  0  0  0  0
  146.0921  133.3093  152.1370 H   0  0  0  0  0  0  0  0  0  0  0  0
  144.0257  134.8245  153.8383 H   0  0  0  0  0  0  0  0  0  0  0  0
  145.5682  134.1995  154.3882 H   0  0  0  0  0  0  0  0  0  0  0  0
  149.2333  137.8341  153.1206 H   0  0  0  0  0  0  0  0  0  0  0  0
  149.7984  142.3616  155.8232 H   0  0  0  0  0  0  0  0  0  0  0  0
  152.0466  140.9688  156.3296 H   0  0  0  0  0  0  0  0  0  0  0  0
  143.4774  134.3986  151.3994 H   0  0  0  0  0  0  0  0  0  0  0  0
  1  2  2  0  0  0  0
  2  3  1  0  0  0  0
  2 14  1  0  0  0  0
  3  4  1  0  0  0  0
  3 20  1  0  0  0  0
  4  5  1  0  0  0  0
  4 21  1  0  0  0  0
  4 22  1  0  0  0  0
  5 13  1  0  0  0  0
  5  6  1  0  0  0  0
  5 23  1  0  0  0  0
  6  7  1  0  0  0  0
  6 24  1  0  0  0  0
  6 25  1  0  0  0  0
  7  8  1  0  0  0  0
  7 11  1  0  0  0  0
  7 38  1  0  0  0  0
  8 10  1  0  0  0  0
  8  9  1  0  0  0  0
  8 26  1  0  0  0  0
  9 10  1  0  0  0  0
  9 27  1  0  0  0  0
  9 28  1  0  0  0  0
 10 29  1  0  0  0  0
 10 30  1  0  0  0  0
 11 12  1  0  0  0  0
 11 31  1  0  0  0  0
 11 32  1  0  0  0  0
 12 13  1  0  0  0  0
 12 33  1  0  0  0  0
 12 34  1  0  0  0  0
 14 15  1  0  0  0  0
 14 35  1  0  0  0  0
 15 19  1  0  0  0  0
 15 16  2  0  0  0  0
 16 17  1  0  0  0  0
 17 18  2  0  0  0  0
 17 36  1  0  0  0  0
 18 19  1  0  0  0  0
 18 37  1  0  0  0  0
M  CHG  1   7   1
M  END
> <s_m_source_file>
AV-unprocessed.smi

> <i_m_source_file_index>
2999

> <i_lp_mmshare_version>
43012

> <i_f3d_flags>
0

> <s_epik_input>
czFbY0hdW2NIXW5jMVtOSF1DKD1PKVtOSF1bQ0gyXVtDQEBIXTJbQ0gyXU4oW0NIMl1bQ0gyXU8yKVtDSF0zW0NIMl1bQ0gyXTM=

> <s_epik_cmdline>
J2VwaWtfcHl0aG9uJywgJy1waCcsICc3LjAnLCAnLXRuJywgJzgnLCAnLW1hJywgJzIwMCcsICctbWV0YWxfYmluZGluZycsICctaW1hZScsICc8aW5maWxlLm1hZT4nLCAnLW9tYWUnLCAnPG91dGZpbGUubWFlPic=

> <r_lp_tautomer_probability>
0.999

> <r_epik_Ionization_Penalty>
1.55235

> <r_epik_Ionization_Penalty_Charging>
1.55221

> <r_epik_Ionization_Penalty_Neutral>
0.000139685

> <r_epik_State_Penalty>
1.64652

> <r_epik_Charging_Adjusted_Penalty>
3.19873

> <i_epik_Tot_Q>
1

> <i_epik_Tot_abs_Q>
1

> <r_epik_Metal_State_Penalty>
1.68612

> <b_epik_Metal_Only>
0

> <s_lp_Force_Field>
OPLS_2005

> <r_lp_Energy>
20.9615

> <b_lp_Chiralities_Consistent>
1

> <s_lp_Variant>
AV-unprocessed.smi:2999-6

> <Gold.Version>
5.8.1

> <Gold.Id.Protein>
6NUR|6NUR_protein|mol2

> <Gold.PLP.Fitness>
41.4309

> <Gold.PLP.PLP>
-34.0167

> <Gold.PLP.part.hbond>
-3.0000

> <Gold.PLP.part.metal>
0.0000

> <Gold.PLP.part.buried>
-1.3995

> <Gold.PLP.part.nonpolar>
-30.4780

> <Gold.PLP.part.repulsive>
0.5276

> <Gold.PLP.ligand.clash>
0.0000

> <Gold.PLP.ligand.torsion>
1.2323

> <Gold.PLP.Chemscore.Hbond>
1.8723

> <Gold.PLP.Chemscore.CHOScore>
1.0000

> <Gold.PLP.Chemscore.Metal>
0.0000

> <Gold.Chemscore.Hbonds>
donor molecule, donor type, donor heavy atom, donor atom, acceptor molecule, acceptor atom, score
      L1  H     3    20       P1  7948  1.00
      L1  H    14    35       P1  7948  0.88
      L1  C    17    36       P1  8028  0.99

> <Gold.PLP.Chemscore.Internal.Correction>
1.2620

> <Gold.Rescore>
     Score         DG    S(hbond)    S(metal)    S(lipo)     H(rot)  DE(clash)    DE(int)     intcor
     13.99     -16.80       1.93        0.00      76.17       1.58       0.14       2.67       ----

> <Gold.Chemscore.Fitness>
13.9905

> <Gold.Chemscore.DG>
-16.8009

> <Gold.Chemscore.ZeroCoef>
-5.4800

> <Gold.Chemscore.Hbond>
1.9320

> <Gold.Chemscore.Metal>
0.0000

> <Gold.Chemscore.Lipo>
76.1667

> <Gold.Chemscore.Internal_Hbond>
0.0000

> <Gold.Chemscore.DEClash>
0.1446

> <Gold.Chemscore.DEInternal>
2.6658

> <Gold.Chemscore.Rot>
1.5795

> <Gold.Chemscore.Internal.Correction>
   9.000000E+99

> <Gold.Chemscore.Hbonds>
donor molecule, donor type, donor heavy atom, donor atom, acceptor molecule, acceptor atom, score
      L1  H     3    20       P1  7948  0.94
      L1  H    14    35       P1  7948  0.80

> <Gold.Chemscore.Hbond.Weighted>
-6.4528

> <Gold.Chemscore.Metal.Weighted>
-0.0000

> <Gold.Chemscore.Lipo.Weighted>
-8.9115

> <Gold.Chemscore.Internal_Hbond.Weighted>
0.0000

> <Gold.Chemscore.DEClash.Weighted>
0.1446

> <Gold.Chemscore.DEInternal.Weighted>
2.6658

> <Gold.Chemscore.Rot.Weighted>
4.0434

> <Gold.Chemscore.Internal.Correction.Weighted>
   9.000000E+99

> <Gold.Protein.RotatedTorsions>
[ 6907 6896 6895 6894 ] final  113.56 input  -60.11 | X-H torsion
[ 7974 7965 7964 7962 ] final  153.71 input  175.53 | X-H torsion
[ 8008 7997 7996 7995 ] final  -39.44 input   59.86 | X-H torsion
[ 10167 10162 10161 10158 ] final  -15.81 input  -65.29 | X-H torsion
[ 10718 10713 10712 10709 ] final   27.03 input   66.30 | X-H torsion
[ 10763 10752 10751 10750 ] final   91.11 input  -60.55 | X-H torsion
[ 11005 11000 10999 10996 ] final   67.28 input  -57.11 | X-H torsion

> <Gold.Protein.ActiveResidues>
 VAL166  LYS551  ARG553  GLY616  TRP617  ASP618  TYR619  PRO620  LYS621  CYS622 
 ASP623  PHE694  ASN695  SER759  ASP760  ASP761  ALA762  ILE779  LEU786  VAL792 
 PHE793  MET794  SER795  GLU796  ALA797  LYS798  CYS799  TRP800  GLU811  SER814 

> <Gold.Protein.RotatedAtoms>
  152.4853  133.8358  159.7126 H   0  0  0  0  0  0  0  0  0  0  0  0  # atno 6907 bound_to 6896
  150.8935  133.7202  159.2904 H   0  0  0  0  0  0  0  0  0  0  0  0  # atno 6908 bound_to 6896
  151.4667  135.1046  159.9792 H   0  0  0  0  0  0  0  0  0  0  0  0  # atno 6909 bound_to 6896
  144.8137  139.6836  143.6130 H   0  0  0  0  0  0  0  0  0  0  0  0  # atno 7974 bound_to 7965
  154.4023  140.1551  156.2864 H   0  0  0  0  0  0  0  0  0  0  0  0  # atno 8008 bound_to 7997
  155.8824  140.3443  155.5875 H   0  0  0  0  0  0  0  0  0  0  0  0  # atno 8009 bound_to 7997
  155.7652  140.0823  157.2126 H   0  0  0  0  0  0  0  0  0  0  0  0  # atno 8010 bound_to 7997
  140.7224  143.5180  150.9669 H   0  0  0  0  0  0  0  0  0  0  0  0  # atno 10167 bound_to 10162
  157.2147  130.6951  149.6244 H   0  0  0  0  0  0  0  0  0  0  0  0  # atno 10718 bound_to 10713
  153.2048  135.4409  155.0309 H   0  0  0  0  0  0  0  0  0  0  0  0  # atno 10763 bound_to 10752
  154.8167  135.3318  154.7158 H   0  0  0  0  0  0  0  0  0  0  0  0  # atno 10764 bound_to 10752
  153.7600  135.6992  153.4983 H   0  0  0  0  0  0  0  0  0  0  0  0  # atno 10765 bound_to 10752
  139.9780  134.6790  156.0317 H   0  0  0  0  0  0  0  0  0  0  0  0  # atno 11005 bound_to 11000
  146.2438  139.6055  142.9473 LP  0  0  0  0  0  0  0  0  0  0  0  0  # atno 17320 bound_to 7965
  145.5265  141.0429  143.2407 LP  0  0  0  0  0  0  0  0  0  0  0  0  # atno 17321 bound_to 7965
  139.8896  143.6970  152.3147 LP  0  0  0  0  0  0  0  0  0  0  0  0  # atno 17342 bound_to 10162
  139.7281  144.7588  151.0846 LP  0  0  0  0  0  0  0  0  0  0  0  0  # atno 17343 bound_to 10162
  155.9687  130.4539  150.5831 LP  0  0  0  0  0  0  0  0  0  0  0  0  # atno 17370 bound_to 10713
  157.3636  131.0754  151.1616 LP  0  0  0  0  0  0  0  0  0  0  0  0  # atno 17371 bound_to 10713
  141.1455  133.6557  156.3855 LP  0  0  0  0  0  0  0  0  0  0  0  0  # atno 17394 bound_to 11000
  140.5155  134.6354  157.5299 LP  0  0  0  0  0  0  0  0  0  0  0  0  # atno 17395 bound_to 11000

$$$$
