AV-unprocessed.smi:3202|AV-procd|sdf|12243|dock1
  -GOLD-   2272018 73D 1   1.00000     0.00000
 Structure written by MMmdl.
 43 44  0  0  0  0  0  0  0  0  2 V2000
  146.4859  138.4005  152.8373 C   0  0  0  0  0  0  0  0  0  0  0  0
  147.5947  139.2058  153.4246 C   0  0  0  0  0  0  0  0  0  0  0  0
  147.6173  140.4682  153.9471 C   0  0  0  0  0  0  0  0  0  0  0  0
  148.9744  140.6625  154.3396 C   0  0  0  0  0  0  0  0  0  0  0  0
  149.5932  141.8776  154.9737 C   0  0  0  0  0  0  0  0  0  0  0  0
  149.9355  141.6759  156.4657 C   0  0  2  0  0  0  0  0  0  0  0  0
  148.6857  141.3964  157.3168 C   0  0  0  0  0  0  0  0  0  0  0  0
  150.6304  142.8685  157.0025 N   0  3  0  0  0  0  0  0  0  0  0  0
  151.0466  142.7907  158.4233 C   0  0  1  0  0  0  0  0  0  0  0  0
  152.1185  141.7311  158.7040 C   0  0  0  0  0  0  0  0  0  0  0  0
  152.7913  142.1795  160.0065 C   0  0  0  0  0  0  0  0  0  0  0  0
  152.3321  143.6251  160.2568 C   0  0  0  0  0  0  0  0  0  0  0  0
  151.6472  144.1064  158.9629 C   0  0  0  0  0  0  0  0  0  0  0  0
  152.7010  144.7209  158.0121 C   0  0  0  0  0  0  0  0  0  0  0  0
  150.5567  145.1515  159.2651 C   0  0  0  0  0  0  0  0  0  0  0  0
  149.7322  139.6070  154.0798 N   0  0  0  0  0  0  0  0  0  0  0  0
  148.8803  138.7260  153.5235 N   0  0  0  0  0  0  0  0  0  0  0  0
  149.1870  137.8139  153.2157 H   0  0  0  0  0  0  0  0  0  0  0  0
  145.5509  138.9612  152.8436 H   0  0  0  0  0  0  0  0  0  0  0  0
  146.3316  137.4818  153.4034 H   0  0  0  0  0  0  0  0  0  0  0  0
  146.7081  138.1298  151.8049 H   0  0  0  0  0  0  0  0  0  0  0  0
  146.7871  141.1533  154.0352 H   0  0  0  0  0  0  0  0  0  0  0  0
  150.4890  142.1490  154.4160 H   0  0  0  0  0  0  0  0  0  0  0  0
  148.9166  142.7266  154.8685 H   0  0  0  0  0  0  0  0  0  0  0  0
  150.5940  140.8110  156.5626 H   0  0  0  0  0  0  0  0  0  0  0  0
  148.1861  140.4781  157.0070 H   0  0  0  0  0  0  0  0  0  0  0  0
  147.9634  142.2097  157.2421 H   0  0  0  0  0  0  0  0  0  0  0  0
  148.9470  141.2795  158.3690 H   0  0  0  0  0  0  0  0  0  0  0  0
  151.4317  143.0772  156.4241 H   0  0  0  0  0  0  0  0  0  0  0  0
  150.1663  142.5502  159.0228 H   0  0  0  0  0  0  0  0  0  0  0  0
  151.6986  140.7274  158.7809 H   0  0  0  0  0  0  0  0  0  0  0  0
  152.8596  141.7167  157.9041 H   0  0  0  0  0  0  0  0  0  0  0  0
  152.4995  141.5393  160.8397 H   0  0  0  0  0  0  0  0  0  0  0  0
  153.8764  142.1200  159.9152 H   0  0  0  0  0  0  0  0  0  0  0  0
  151.6154  143.6224  161.0798 H   0  0  0  0  0  0  0  0  0  0  0  0
  153.1561  144.2709  160.5630 H   0  0  0  0  0  0  0  0  0  0  0  0
  153.1668  145.5983  158.4622 H   0  0  0  0  0  0  0  0  0  0  0  0
  152.2562  145.0441  157.0706 H   0  0  0  0  0  0  0  0  0  0  0  0
  153.5012  144.0193  157.7751 H   0  0  0  0  0  0  0  0  0  0  0  0
  150.9831  146.0427  159.7273 H   0  0  0  0  0  0  0  0  0  0  0  0
  149.8006  144.7598  159.9465 H   0  0  0  0  0  0  0  0  0  0  0  0
  150.0456  145.4652  158.3544 H   0  0  0  0  0  0  0  0  0  0  0  0
  149.9834  143.6411  156.9359 H   0  0  0  0  0  0  0  0  0  0  0  0
  1  2  1  0  0  0  0
  1 19  1  0  0  0  0
  1 20  1  0  0  0  0
  1 21  1  0  0  0  0
  2 17  1  0  0  0  0
  2  3  2  0  0  0  0
  3  4  1  0  0  0  0
  3 22  1  0  0  0  0
  4  5  1  0  0  0  0
  4 16  2  0  0  0  0
  5  6  1  0  0  0  0
  5 23  1  0  0  0  0
  5 24  1  0  0  0  0
  6  7  1  0  0  0  0
  6  8  1  0  0  0  0
  6 25  1  0  0  0  0
  7 26  1  0  0  0  0
  7 27  1  0  0  0  0
  7 28  1  0  0  0  0
  8  9  1  0  0  0  0
  8 29  1  0  0  0  0
  8 43  1  0  0  0  0
  9 13  1  0  0  0  0
  9 10  1  0  0  0  0
  9 30  1  0  0  0  0
 10 11  1  0  0  0  0
 10 31  1  0  0  0  0
 10 32  1  0  0  0  0
 11 12  1  0  0  0  0
 11 33  1  0  0  0  0
 11 34  1  0  0  0  0
 12 13  1  0  0  0  0
 12 35  1  0  0  0  0
 12 36  1  0  0  0  0
 13 14  1  0  0  0  0
 13 15  1  0  0  0  0
 14 37  1  0  0  0  0
 14 38  1  0  0  0  0
 14 39  1  0  0  0  0
 15 40  1  0  0  0  0
 15 41  1  0  0  0  0
 15 42  1  0  0  0  0
 16 17  1  0  0  0  0
 17 18  1  0  0  0  0
M  CHG  1   8   1
M  END
> <s_m_source_file>
AV-unprocessed.smi

> <i_m_source_file_index>
3202

> <i_lp_mmshare_version>
43012

> <i_f3d_flags>
0

> <s_epik_input>
W0NIM11jMVtjSF1jKG5bbkhdMSlbQ0gyXVtDQEhdKFtDSDNdKVtOSF1bQ0BASF0oQzIoW0NIM10pW0NIM10pW0NIMl1bQ0gyXVtDSDJdMg==

> <s_epik_cmdline>
J2VwaWtfcHl0aG9uJywgJy1waCcsICc3LjAnLCAnLXRuJywgJzgnLCAnLW1hJywgJzIwMCcsICctbWV0YWxfYmluZGluZycsICctaW1hZScsICc8aW5maWxlLm1hZT4nLCAnLW9tYWUnLCAnPG91dGZpbGUubWFlPic=

> <r_lp_tautomer_probability>
0.5

> <r_epik_Ionization_Penalty>
0.000341671

> <r_epik_Ionization_Penalty_Charging>
0.000281809

> <r_epik_Ionization_Penalty_Neutral>
5.9862e-05

> <r_epik_State_Penalty>
0.41068

> <r_epik_Charging_Adjusted_Penalty>
0.410962

> <i_epik_Tot_Q>
1

> <i_epik_Tot_abs_Q>
1

> <r_epik_Metal_State_Penalty>
0.410672

> <b_epik_Metal_Only>
0

> <s_lp_Force_Field>
OPLS_2005

> <r_lp_Energy>
29.113

> <b_lp_Chiralities_Consistent>
1

> <s_lp_Variant>
AV-unprocessed.smi:3202-3

> <Gold.Version>
5.8.1

> <Gold.Id.Protein>
6NUR|6NUR_protein|mol2

> <Gold.PLP.Fitness>
48.8420

> <Gold.PLP.PLP>
-40.2988

> <Gold.PLP.part.hbond>
-3.2677

> <Gold.PLP.part.metal>
0.0000

> <Gold.PLP.part.buried>
-2.9448

> <Gold.PLP.part.nonpolar>
-34.7086

> <Gold.PLP.part.repulsive>
1.2917

> <Gold.PLP.ligand.clash>
0.0000

> <Gold.PLP.ligand.torsion>
0.1656

> <Gold.PLP.Chemscore.Hbond>
2.9321

> <Gold.PLP.Chemscore.CHOScore>
0.0000

> <Gold.PLP.Chemscore.Metal>
0.0000

> <Gold.Chemscore.Hbonds>
donor molecule, donor type, donor heavy atom, donor atom, acceptor molecule, acceptor atom, score
      L1  H     8    43       P1  8028  1.79
      L1  H    17    18       P1  7948  0.87
      P1  H  7989  7998       L1    16  0.16

> <Gold.PLP.Chemscore.Internal.Correction>
0.0781

> <Gold.Rescore>
     Score         DG    S(hbond)    S(metal)    S(lipo)     H(rot)  DE(clash)    DE(int)     intcor
     21.16     -21.83       1.79        0.00     120.64       1.46       0.42       0.25       ----

> <Gold.Chemscore.Fitness>
21.1613

> <Gold.Chemscore.DG>
-21.8349

> <Gold.Chemscore.ZeroCoef>
-5.4800

> <Gold.Chemscore.Hbond>
1.7895

> <Gold.Chemscore.Metal>
0.0000

> <Gold.Chemscore.Lipo>
120.6362

> <Gold.Chemscore.Internal_Hbond>
0.0000

> <Gold.Chemscore.DEClash>
0.4239

> <Gold.Chemscore.DEInternal>
0.2496

> <Gold.Chemscore.Rot>
1.4596

> <Gold.Chemscore.Internal.Correction>
   9.000000E+99

> <Gold.Chemscore.Hbonds>
donor molecule, donor type, donor heavy atom, donor atom, acceptor molecule, acceptor atom, score
      L1  H     8    43       P1  8028  0.85
      L1  H    17    18       P1  7948  0.80
      P1  H  7989  7998       L1    16  0.02

> <Gold.Chemscore.Hbond.Weighted>
-5.9769

> <Gold.Chemscore.Metal.Weighted>
-0.0000

> <Gold.Chemscore.Lipo.Weighted>
-14.1144

> <Gold.Chemscore.Internal_Hbond.Weighted>
0.0000

> <Gold.Chemscore.DEClash.Weighted>
0.4239

> <Gold.Chemscore.DEInternal.Weighted>
0.2496

> <Gold.Chemscore.Rot.Weighted>
3.7365

> <Gold.Chemscore.Internal.Correction.Weighted>
   9.000000E+99

> <Gold.Protein.RotatedTorsions>
[ 6907 6896 6895 6894 ] final   19.04 input  -60.11 | X-H torsion
[ 7974 7965 7964 7962 ] final   42.89 input  175.53 | X-H torsion
[ 8008 7997 7996 7995 ] final   78.33 input   59.86 | X-H torsion
[ 10167 10162 10161 10158 ] final  168.58 input  -65.29 | X-H torsion
[ 10718 10713 10712 10709 ] final   34.55 input   66.30 | X-H torsion
[ 10763 10752 10751 10750 ] final   57.61 input  -60.55 | X-H torsion
[ 11005 11000 10999 10996 ] final  -79.48 input  -57.11 | X-H torsion

> <Gold.Protein.ActiveResidues>
 VAL166  LYS551  ARG553  GLY616  TRP617  ASP618  TYR619  PRO620  LYS621  CYS622 
 ASP623  PHE694  ASN695  SER759  ASP760  ASP761  ALA762  ILE779  LEU786  VAL792 
 PHE793  MET794  SER795  GLU796  ALA797  LYS798  CYS799  TRP800  GLU811  SER814 

> <Gold.Protein.RotatedAtoms>
  151.8747  135.0476  160.0482 H   0  0  0  0  0  0  0  0  0  0  0  0  # atno 6907 bound_to 6896
  152.2560  133.5251  159.5362 H   0  0  0  0  0  0  0  0  0  0  0  0  # atno 6908 bound_to 6896
  150.7100  134.0811  159.3941 H   0  0  0  0  0  0  0  0  0  0  0  0  # atno 6909 bound_to 6896
  146.0702  139.5249  142.9602 H   0  0  0  0  0  0  0  0  0  0  0  0  # atno 7974 bound_to 7965
  155.8542  140.3457  155.5713 H   0  0  0  0  0  0  0  0  0  0  0  0  # atno 8008 bound_to 7997
  155.8005  140.0884  157.1979 H   0  0  0  0  0  0  0  0  0  0  0  0  # atno 8009 bound_to 7997
  154.4009  140.1466  156.3256 H   0  0  0  0  0  0  0  0  0  0  0  0  # atno 8010 bound_to 7997
  139.4971  144.3799  151.9633 H   0  0  0  0  0  0  0  0  0  0  0  0  # atno 10167 bound_to 10162
  157.3117  130.7402  149.6729 H   0  0  0  0  0  0  0  0  0  0  0  0  # atno 10718 bound_to 10713
  152.9853  135.5635  154.5419 H   0  0  0  0  0  0  0  0  0  0  0  0  # atno 10763 bound_to 10752
  154.4872  135.2791  155.1527 H   0  0  0  0  0  0  0  0  0  0  0  0  # atno 10764 bound_to 10752
  154.3011  135.6307  153.5478 H   0  0  0  0  0  0  0  0  0  0  0  0  # atno 10765 bound_to 10752
  141.1667  133.7108  156.8129 H   0  0  0  0  0  0  0  0  0  0  0  0  # atno 11005 bound_to 11000
  145.6405  141.0285  143.1814 LP  0  0  0  0  0  0  0  0  0  0  0  0  # atno 17320 bound_to 7965
  144.7227  139.7977  143.7376 LP  0  0  0  0  0  0  0  0  0  0  0  0  # atno 17321 bound_to 7965
  140.3236  144.3399  150.6003 LP  0  0  0  0  0  0  0  0  0  0  0  0  # atno 17342 bound_to 10162
  140.5703  143.2181  151.7611 LP  0  0  0  0  0  0  0  0  0  0  0  0  # atno 17343 bound_to 10162
  155.9678  130.4249  150.4631 LP  0  0  0  0  0  0  0  0  0  0  0  0  # atno 17370 bound_to 10713
  157.2630  131.0571  151.2308 LP  0  0  0  0  0  0  0  0  0  0  0  0  # atno 17371 bound_to 10713
  140.2174  134.8782  157.3341 LP  0  0  0  0  0  0  0  0  0  0  0  0  # atno 17394 bound_to 11000
  140.2023  134.4240  155.7656 LP  0  0  0  0  0  0  0  0  0  0  0  0  # atno 17395 bound_to 11000

$$$$
