AV-unprocessed.smi:118|AV-procd|sdf|1132|dock3
  -GOLD-   2262018263D 1   1.00000     0.00000
 Structure written by MMmdl.
 41 44  0  0  0  0  0  0  0  0  1 V2000
  150.8862  136.9510  159.4654 O   0  0  0  0  0  0  0  0  0  0  0  0
  150.4296  137.5195  158.4727 C   0  0  0  0  0  0  0  0  0  0  0  0
  151.3716  138.1605  157.4410 C   0  0  0  0  0  0  0  0  0  0  0  0
  151.1430  139.6114  157.2645 N   0  0  0  0  0  0  0  0  0  0  0  0
  150.5313  140.0686  156.0710 C   0  0  0  0  0  0  0  0  0  0  0  0
  150.1759  139.2814  155.1926 O   0  0  0  0  0  0  0  0  0  0  0  0
  150.3647  141.5136  155.9627 C   0  0  0  0  0  0  0  0  0  0  0  0
  149.7762  142.0356  154.8731 F   0  0  0  0  0  0  0  0  0  0  0  0
  150.7923  142.3385  156.9408 C   0  0  0  0  0  0  0  0  0  0  0  0
  151.4101  141.8797  158.0909 N   0  0  0  0  0  0  0  0  0  0  0  0
  151.8892  142.8190  159.1791 C   0  0  1  0  0  0  0  0  0  0  0  0
  152.8847  143.8506  158.6106 C   0  0  0  0  0  0  0  0  0  0  0  0
  152.2869  145.1743  159.0452 C   0  0  0  0  0  0  0  0  0  0  0  0
  150.8043  144.8431  159.1196 C   0  0  0  0  0  0  0  0  0  0  0  0
  150.8080  143.5428  159.6936 O   0  0  0  0  0  0  0  0  0  0  0  0
  151.5845  140.4916  158.2808 C   0  0  0  0  0  0  0  0  0  0  0  0
  152.1172  140.0605  159.3062 O   0  0  0  0  0  0  0  0  0  0  0  0
  149.1176  137.6434  158.2040 N   0  0  0  0  0  0  0  0  0  0  0  0
  148.0111  137.1796  158.9682 C   0  0  0  0  0  0  0  0  0  0  0  0
  148.1475  136.4873  160.1991 C   0  0  0  0  0  0  0  0  0  0  0  0
  147.0102  136.0359  160.9055 C   0  0  0  0  0  0  0  0  0  0  0  0
  145.7139  136.2537  160.3963 C   0  0  0  0  0  0  0  0  0  0  0  0
  145.5743  136.9235  159.1677 C   0  0  0  0  0  0  0  0  0  0  0  0
  146.7093  137.3783  158.4572 C   0  0  0  0  0  0  0  0  0  0  0  0
  146.3931  138.0190  157.2603 N   0  0  0  0  0  0  0  0  0  0  0  0
  144.8679  137.9181  157.2879 S   0  0  0  0  0  0  0  0  0  0  0  0
  144.3644  137.2009  158.5403 N   0  0  0  0  0  0  0  0  0  0  0  0
  152.3990  137.9507  157.7420 H   0  0  0  0  0  0  0  0  0  0  0  0
  151.2648  137.6396  156.4878 H   0  0  0  0  0  0  0  0  0  0  0  0
  150.6346  143.3965  156.7988 H   0  0  0  0  0  0  0  0  0  0  0  0
  152.3055  142.1757  159.9564 H   0  0  0  0  0  0  0  0  0  0  0  0
  153.8874  143.6839  159.0052 H   0  0  0  0  0  0  0  0  0  0  0  0
  152.9176  143.7880  157.5216 H   0  0  0  0  0  0  0  0  0  0  0  0
  152.6585  145.4474  160.0336 H   0  0  0  0  0  0  0  0  0  0  0  0
  152.5092  145.9900  158.3569 H   0  0  0  0  0  0  0  0  0  0  0  0
  150.2424  145.5510  159.7290 H   0  0  0  0  0  0  0  0  0  0  0  0
  150.3609  144.8155  158.1233 H   0  0  0  0  0  0  0  0  0  0  0  0
  148.8819  138.2125  157.4040 H   0  0  0  0  0  0  0  0  0  0  0  0
  149.1201  136.2782  160.6170 H   0  0  0  0  0  0  0  0  0  0  0  0
  147.1356  135.5138  161.8427 H   0  0  0  0  0  0  0  0  0  0  0  0
  144.8456  135.9069  160.9370 H   0  0  0  0  0  0  0  0  0  0  0  0
  1  2  2  0  0  0  0
  2  3  1  0  0  0  0
  2 18  1  0  0  0  0
  3  4  1  0  0  0  0
  3 28  1  0  0  0  0
  3 29  1  0  0  0  0
  4 16  1  0  0  0  0
  4  5  1  0  0  0  0
  5  6  2  0  0  0  0
  5  7  1  0  0  0  0
  7  8  1  0  0  0  0
  7  9  2  0  0  0  0
  9 10  1  0  0  0  0
  9 30  1  0  0  0  0
 10 11  1  0  0  0  0
 10 16  1  0  0  0  0
 11 15  1  0  0  0  0
 11 12  1  0  0  0  0
 11 31  1  0  0  0  0
 12 13  1  0  0  0  0
 12 32  1  0  0  0  0
 12 33  1  0  0  0  0
 13 14  1  0  0  0  0
 13 34  1  0  0  0  0
 13 35  1  0  0  0  0
 14 15  1  0  0  0  0
 14 36  1  0  0  0  0
 14 37  1  0  0  0  0
 16 17  2  0  0  0  0
 18 19  1  0  0  0  0
 18 38  1  0  0  0  0
 19 24  1  0  0  0  0
 19 20  2  0  0  0  0
 20 21  1  0  0  0  0
 20 39  1  0  0  0  0
 21 22  2  0  0  0  0
 21 40  1  0  0  0  0
 22 23  1  0  0  0  0
 22 41  1  0  0  0  0
 23 27  1  0  0  0  0
 23 24  2  0  0  0  0
 24 25  1  0  0  0  0
 25 26  2  0  0  0  0
 26 27  2  0  0  0  0
M  END
> <s_m_source_file>
AV-unprocessed.smi

> <i_m_source_file_index>
118

> <i_lp_mmshare_version>
43012

> <i_f3d_flags>
0

> <s_epik_input>
TjE9Uz1OYyhjMTIpYyhbY0hdW2NIXVtjSF0yKVtOSF1DKD1PKVtDSDJdbjNjKD1PKWMoRilbY0hdbihjMz1PKVtDQEBIXTRbQ0gyXVtDSDJdW0NIMl1PNA==

> <s_epik_cmdline>
J2VwaWtfcHl0aG9uJywgJy1waCcsICc3LjAnLCAnLXRuJywgJzgnLCAnLW1hJywgJzIwMCcsICctbWV0YWxfYmluZGluZycsICctaW1hZScsICc8aW5maWxlLm1hZT4nLCAnLW9tYWUnLCAnPG91dGZpbGUubWFlPic=

> <r_lp_tautomer_probability>
1

> <r_epik_Ionization_Penalty>
1.81156e-06

> <r_epik_Ionization_Penalty_Charging>
3.88729e-08

> <r_epik_Ionization_Penalty_Neutral>
1.77269e-06

> <r_epik_State_Penalty>
-0

> <r_epik_Charging_Adjusted_Penalty>
3.88729e-08

> <i_epik_Tot_Q>
0

> <i_epik_Tot_abs_Q>
0

> <r_epik_Metal_State_Penalty>
-0

> <b_epik_Metal_Only>
0

> <s_epik_Chemistry_Notes>
This compound contains an acetal/aminal-like group ( X-CH(R)-Y where X, Y are N, S, or O) that may be acid/base labile, releasing an aldehyde.

> <s_lp_Force_Field>
OPLS_2005

> <r_lp_Energy>
52.0747

> <b_lp_Chiralities_Consistent>
1

> <s_lp_Variant>
AV-unprocessed.smi:118-2

> <Gold.Version>
5.8.1

> <Gold.Id.Protein>
6NUR|6NUR_protein|mol2

> <Gold.PLP.Fitness>
46.2246

> <Gold.PLP.PLP>
-40.5756

> <Gold.PLP.part.hbond>
-1.2436

> <Gold.PLP.part.metal>
0.0000

> <Gold.PLP.part.buried>
-4.6695

> <Gold.PLP.part.nonpolar>
-35.1614

> <Gold.PLP.part.repulsive>
0.2585

> <Gold.PLP.ligand.clash>
0.0000

> <Gold.PLP.ligand.torsion>
0.1696

> <Gold.PLP.Chemscore.Hbond>
0.9920

> <Gold.PLP.Chemscore.CHOScore>
1.0000

> <Gold.PLP.Chemscore.Metal>
0.0000

> <Gold.Chemscore.Hbonds>
donor molecule, donor type, donor heavy atom, donor atom, acceptor molecule, acceptor atom, score
      P1  H  6896  6907       L1     1  1.00
      L1  C     9    30       P1  8028  1.00

> <Gold.PLP.Chemscore.Internal.Correction>
0.0122

> <Gold.Rescore>
     Score         DG    S(hbond)    S(metal)    S(lipo)     H(rot)  DE(clash)    DE(int)     intcor
     12.84     -14.32       0.99        0.00      86.64       1.80       0.02       1.46       ----

> <Gold.Chemscore.Fitness>
12.8424

> <Gold.Chemscore.DG>
-14.3156

> <Gold.Chemscore.ZeroCoef>
-5.4800

> <Gold.Chemscore.Hbond>
0.9882

> <Gold.Chemscore.Metal>
0.0000

> <Gold.Chemscore.Lipo>
86.6441

> <Gold.Chemscore.Internal_Hbond>
0.0000

> <Gold.Chemscore.DEClash>
0.0174

> <Gold.Chemscore.DEInternal>
1.4558

> <Gold.Chemscore.Rot>
1.7977

> <Gold.Chemscore.Internal.Correction>
   9.000000E+99

> <Gold.Chemscore.Hbonds>
donor molecule, donor type, donor heavy atom, donor atom, acceptor molecule, acceptor atom, score
      P1  H  6896  6907       L1     1  1.00

> <Gold.Chemscore.Hbond.Weighted>
-3.3004

> <Gold.Chemscore.Metal.Weighted>
-0.0000

> <Gold.Chemscore.Lipo.Weighted>
-10.1374

> <Gold.Chemscore.Internal_Hbond.Weighted>
0.0000

> <Gold.Chemscore.DEClash.Weighted>
0.0174

> <Gold.Chemscore.DEInternal.Weighted>
1.4558

> <Gold.Chemscore.Rot.Weighted>
4.6022

> <Gold.Chemscore.Internal.Correction.Weighted>
   9.000000E+99

> <Gold.Protein.RotatedTorsions>
[ 6907 6896 6895 6894 ] final  -27.30 input  -60.11 | X-H torsion
[ 7974 7965 7964 7962 ] final  165.43 input  175.53 | X-H torsion
[ 8008 7997 7996 7995 ] final  100.85 input   59.86 | X-H torsion
[ 10167 10162 10161 10158 ] final   33.61 input  -65.29 | X-H torsion
[ 10718 10713 10712 10709 ] final  -24.77 input   66.30 | X-H torsion
[ 10763 10752 10751 10750 ] final  -38.97 input  -60.55 | X-H torsion
[ 11005 11000 10999 10996 ] final    2.22 input  -57.11 | X-H torsion

> <Gold.Protein.ActiveResidues>
 VAL166  LYS551  ARG553  GLY616  TRP617  ASP618  TYR619  PRO620  LYS621  CYS622 
 ASP623  PHE694  ASN695  SER759  ASP760  ASP761  ALA762  ILE779  LEU786  VAL792 
 PHE793  MET794  SER795  GLU796  ALA797  LYS798  CYS799  TRP800  GLU811  SER814 

> <Gold.Protein.RotatedAtoms>
  151.1488  135.0217  159.8658 H   0  0  0  0  0  0  0  0  0  0  0  0  # atno 6907 bound_to 6896
  152.5453  134.1413  159.8490 H   0  0  0  0  0  0  0  0  0  0  0  0  # atno 6908 bound_to 6896
  151.1496  133.4871  159.2628 H   0  0  0  0  0  0  0  0  0  0  0  0  # atno 6909 bound_to 6896
  144.7503  139.8469  143.6368 H   0  0  0  0  0  0  0  0  0  0  0  0  # atno 7974 bound_to 7965
  156.1243  140.3207  155.8255 H   0  0  0  0  0  0  0  0  0  0  0  0  # atno 8008 bound_to 7997
  155.4447  140.0528  157.3024 H   0  0  0  0  0  0  0  0  0  0  0  0  # atno 8009 bound_to 7997
  154.4851  140.2069  155.9688 H   0  0  0  0  0  0  0  0  0  0  0  0  # atno 8010 bound_to 7997
  140.4392  144.1213  150.6171 H   0  0  0  0  0  0  0  0  0  0  0  0  # atno 10167 bound_to 10162
  156.4733  130.4529  149.6856 H   0  0  0  0  0  0  0  0  0  0  0  0  # atno 10718 bound_to 10713
  153.9216  135.6781  153.4747 H   0  0  0  0  0  0  0  0  0  0  0  0  # atno 10763 bound_to 10752
  153.1026  135.4821  154.8891 H   0  0  0  0  0  0  0  0  0  0  0  0  # atno 10764 bound_to 10752
  154.7475  135.3176  154.8575 H   0  0  0  0  0  0  0  0  0  0  0  0  # atno 10765 bound_to 10752
  140.6067  133.9786  155.8158 H   0  0  0  0  0  0  0  0  0  0  0  0  # atno 11005 bound_to 11000
  146.1443  139.4508  143.0089 LP  0  0  0  0  0  0  0  0  0  0  0  0  # atno 17320 bound_to 7965
  145.6969  141.0147  143.1525 LP  0  0  0  0  0  0  0  0  0  0  0  0  # atno 17321 bound_to 7965
  140.4339  143.2556  151.9561 LP  0  0  0  0  0  0  0  0  0  0  0  0  # atno 17342 bound_to 10162
  139.4788  144.5718  151.8075 LP  0  0  0  0  0  0  0  0  0  0  0  0  # atno 17343 bound_to 10162
  156.3596  130.7474  151.2445 LP  0  0  0  0  0  0  0  0  0  0  0  0  # atno 17370 bound_to 10713
  157.7489  131.0354  150.4361 LP  0  0  0  0  0  0  0  0  0  0  0  0  # atno 17371 bound_to 10713
  141.0836  134.0025  157.3349 LP  0  0  0  0  0  0  0  0  0  0  0  0  # atno 17394 bound_to 11000
  139.9209  135.0200  156.8061 LP  0  0  0  0  0  0  0  0  0  0  0  0  # atno 17395 bound_to 11000

$$$$
