AV-unprocessed.smi:3328|AV-procd|sdf|12792|dock3
  -GOLD-   2272019143D 1   1.00000     0.00000
 Structure written by MMmdl.
 41 42  0  0  0  0  0  0  0  0  2 V2000
  143.7458  132.6054  149.3944 C   0  0  0  0  0  0  0  0  0  0  0  0
  144.1320  133.5702  150.4782 C   0  0  0  0  0  0  0  0  0  0  0  0
  143.6354  133.6330  151.8112 C   0  0  0  0  0  0  0  0  0  0  0  0
  144.1872  134.6045  152.5200 N   0  0  0  0  0  0  0  0  0  0  0  0
  145.0481  135.1980  151.6660 N   0  0  0  0  0  0  0  0  0  0  0  0
  145.8488  136.3243  152.1135 C   0  0  0  0  0  0  0  0  0  0  0  0
  144.9840  137.5379  152.5075 C   0  0  1  0  0  0  0  0  0  0  0  0
  144.3954  137.3533  153.9160 C   0  0  0  0  0  0  0  0  0  0  0  0
  145.7821  138.7829  152.4242 N   0  3  0  0  0  0  0  0  0  0  0  0
  146.6907  139.0321  153.5615 C   0  0  0  0  0  0  0  0  0  0  0  0
  147.6104  140.2276  153.2711 C   0  0  0  0  0  0  0  0  0  0  0  0
  148.3019  140.6769  154.4759 N   0  0  0  0  0  0  0  0  0  0  0  0
  147.5874  141.3830  155.5260 C   0  0  0  0  0  0  0  0  0  0  0  0
  148.5893  141.4884  156.6846 C   0  0  0  0  0  0  0  0  0  0  0  0
  149.9590  141.1618  156.0796 C   0  0  0  0  0  0  0  0  0  0  0  0
  149.6083  140.5479  154.7347 C   0  0  0  0  0  0  0  0  0  0  0  0
  150.4410  140.0108  154.0058 O   0  0  0  0  0  0  0  0  0  0  0  0
  145.0360  134.5934  150.4270 C   0  0  0  0  0  0  0  0  0  0  0  0
  142.9579  131.9251  149.7189 H   0  0  0  0  0  0  0  0  0  0  0  0
  144.5909  131.9916  149.0823 H   0  0  0  0  0  0  0  0  0  0  0  0
  143.3778  133.1221  148.5079 H   0  0  0  0  0  0  0  0  0  0  0  0
  142.8956  133.0027  152.2826 H   0  0  0  0  0  0  0  0  0  0  0  0
  146.4417  135.9930  152.9673 H   0  0  0  0  0  0  0  0  0  0  0  0
  146.5587  136.5918  151.3290 H   0  0  0  0  0  0  0  0  0  0  0  0
  144.1608  137.6063  151.7945 H   0  0  0  0  0  0  0  0  0  0  0  0
  143.8291  136.4238  153.9830 H   0  0  0  0  0  0  0  0  0  0  0  0
  143.7139  138.1619  154.1797 H   0  0  0  0  0  0  0  0  0  0  0  0
  145.1801  137.3170  154.6721 H   0  0  0  0  0  0  0  0  0  0  0  0
  146.3130  138.7784  151.5649 H   0  0  0  0  0  0  0  0  0  0  0  0
  146.1026  139.2327  154.4582 H   0  0  0  0  0  0  0  0  0  0  0  0
  147.2839  138.1383  153.7552 H   0  0  0  0  0  0  0  0  0  0  0  0
  148.3470  139.9625  152.5107 H   0  0  0  0  0  0  0  0  0  0  0  0
  147.0284  141.0543  152.8607 H   0  0  0  0  0  0  0  0  0  0  0  0
  147.3018  142.3720  155.1650 H   0  0  0  0  0  0  0  0  0  0  0  0
  146.6824  140.8504  155.8205 H   0  0  0  0  0  0  0  0  0  0  0  0
  148.5702  142.4754  157.1476 H   0  0  0  0  0  0  0  0  0  0  0  0
  148.3450  140.7594  157.4586 H   0  0  0  0  0  0  0  0  0  0  0  0
  150.5499  142.0648  155.9225 H   0  0  0  0  0  0  0  0  0  0  0  0
  150.5311  140.4707  156.6994 H   0  0  0  0  0  0  0  0  0  0  0  0
  145.6659  134.9361  149.6190 H   0  0  0  0  0  0  0  0  0  0  0  0
  145.1287  139.5531  152.3886 H   0  0  0  0  0  0  0  0  0  0  0  0
  1  2  1  0  0  0  0
  1 19  1  0  0  0  0
  1 20  1  0  0  0  0
  1 21  1  0  0  0  0
  2 18  2  0  0  0  0
  2  3  1  0  0  0  0
  3  4  2  0  0  0  0
  3 22  1  0  0  0  0
  4  5  1  0  0  0  0
  5  6  1  0  0  0  0
  5 18  1  0  0  0  0
  6  7  1  0  0  0  0
  6 23  1  0  0  0  0
  6 24  1  0  0  0  0
  7  8  1  0  0  0  0
  7  9  1  0  0  0  0
  7 25  1  0  0  0  0
  8 26  1  0  0  0  0
  8 27  1  0  0  0  0
  8 28  1  0  0  0  0
  9 10  1  0  0  0  0
  9 29  1  0  0  0  0
  9 41  1  0  0  0  0
 10 11  1  0  0  0  0
 10 30  1  0  0  0  0
 10 31  1  0  0  0  0
 11 12  1  0  0  0  0
 11 32  1  0  0  0  0
 11 33  1  0  0  0  0
 12 16  1  0  0  0  0
 12 13  1  0  0  0  0
 13 14  1  0  0  0  0
 13 34  1  0  0  0  0
 13 35  1  0  0  0  0
 14 15  1  0  0  0  0
 14 36  1  0  0  0  0
 14 37  1  0  0  0  0
 15 16  1  0  0  0  0
 15 38  1  0  0  0  0
 15 39  1  0  0  0  0
 16 17  2  0  0  0  0
 18 40  1  0  0  0  0
M  CHG  1   9   1
M  END
> <s_m_source_file>
AV-unprocessed.smi

> <i_m_source_file_index>
3328

> <i_lp_mmshare_version>
43012

> <i_f3d_flags>
0

> <s_epik_input>
W0NIM11jMVtjSF1ubihbY0hdMSlbQ0gyXVtDQEhdKFtDSDNdKVtOSF1bQ0gyXVtDSDJdTjJbQ0gyXVtDSDJdW0NIMl1DMj1P

> <s_epik_cmdline>
J2VwaWtfcHl0aG9uJywgJy1waCcsICc3LjAnLCAnLXRuJywgJzgnLCAnLW1hJywgJzIwMCcsICctbWV0YWxfYmluZGluZycsICctaW1hZScsICc8aW5maWxlLm1hZT4nLCAnLW9tYWUnLCAnPG91dGZpbGUubWFlPic=

> <r_lp_tautomer_probability>
1

> <r_epik_Ionization_Penalty>
0.00826719

> <r_epik_Ionization_Penalty_Charging>
0.00825899

> <r_epik_Ionization_Penalty_Neutral>
8.19932e-06

> <r_epik_State_Penalty>
0.00621436

> <r_epik_Charging_Adjusted_Penalty>
0.0144734

> <i_epik_Tot_Q>
1

> <i_epik_Tot_abs_Q>
1

> <r_epik_Metal_State_Penalty>
0.00621509

> <b_epik_Metal_Only>
0

> <s_lp_Force_Field>
OPLS_2005

> <r_lp_Energy>
19.1629

> <b_lp_Chiralities_Consistent>
1

> <s_lp_Variant>
AV-unprocessed.smi:3328-2

> <Gold.Version>
5.8.1

> <Gold.Id.Protein>
6NUR|6NUR_protein|mol2

> <Gold.PLP.Fitness>
43.5849

> <Gold.PLP.PLP>
-29.6261

> <Gold.PLP.part.hbond>
-2.3652

> <Gold.PLP.part.metal>
0.0000

> <Gold.PLP.part.buried>
-0.2344

> <Gold.PLP.part.nonpolar>
-27.5634

> <Gold.PLP.part.repulsive>
0.8928

> <Gold.PLP.ligand.clash>
0.0000

> <Gold.PLP.ligand.torsion>
0.5370

> <Gold.PLP.Chemscore.Hbond>
3.0000

> <Gold.PLP.Chemscore.CHOScore>
1.9516

> <Gold.PLP.Chemscore.Metal>
0.0000

> <Gold.Chemscore.Hbonds>
donor molecule, donor type, donor heavy atom, donor atom, acceptor molecule, acceptor atom, score
      L1  H     9    41       P1 10175  2.00
      P1  H  7989  7998       L1    17  1.00
      L1  C     3    22       P1 10957  0.33
      L1  C    18    40       P1  7921  1.00

> <Gold.PLP.Chemscore.Internal.Correction>
0.1780

> <Gold.Rescore>
     Score         DG    S(hbond)    S(metal)    S(lipo)     H(rot)  DE(clash)    DE(int)     intcor
     14.01     -14.86       1.98        0.00      66.88       1.97       0.15       0.71       ----

> <Gold.Chemscore.Fitness>
14.0064

> <Gold.Chemscore.DG>
-14.8613

> <Gold.Chemscore.ZeroCoef>
-5.4800

> <Gold.Chemscore.Hbond>
1.9771

> <Gold.Chemscore.Metal>
0.0000

> <Gold.Chemscore.Lipo>
66.8764

> <Gold.Chemscore.Internal_Hbond>
0.0000

> <Gold.Chemscore.DEClash>
0.1483

> <Gold.Chemscore.DEInternal>
0.7067

> <Gold.Chemscore.Rot>
1.9714

> <Gold.Chemscore.Internal.Correction>
   9.000000E+99

> <Gold.Chemscore.Hbonds>
donor molecule, donor type, donor heavy atom, donor atom, acceptor molecule, acceptor atom, score
      L1  H     9    41       P1 10175  1.00
      P1  H  7989  7998       L1    17  0.88

> <Gold.Chemscore.Hbond.Weighted>
-6.6036

> <Gold.Chemscore.Metal.Weighted>
-0.0000

> <Gold.Chemscore.Lipo.Weighted>
-7.8245

> <Gold.Chemscore.Internal_Hbond.Weighted>
0.0000

> <Gold.Chemscore.DEClash.Weighted>
0.1483

> <Gold.Chemscore.DEInternal.Weighted>
0.7067

> <Gold.Chemscore.Rot.Weighted>
5.0468

> <Gold.Chemscore.Internal.Correction.Weighted>
   9.000000E+99

> <Gold.Protein.RotatedTorsions>
[ 6907 6896 6895 6894 ] final   74.50 input  -60.11 | X-H torsion
[ 7974 7965 7964 7962 ] final -108.46 input  175.53 | X-H torsion
[ 8008 7997 7996 7995 ] final -140.53 input   59.86 | X-H torsion
[ 10167 10162 10161 10158 ] final   27.64 input  -65.29 | X-H torsion
[ 10718 10713 10712 10709 ] final    0.36 input   66.30 | X-H torsion
[ 10763 10752 10751 10750 ] final -134.05 input  -60.55 | X-H torsion
[ 11005 11000 10999 10996 ] final  128.71 input  -57.11 | X-H torsion

> <Gold.Protein.ActiveResidues>
 VAL166  LYS551  ARG553  GLY616  TRP617  ASP618  TYR619  PRO620  LYS621  CYS622 
 ASP623  PHE694  ASN695  SER759  ASP760  ASP761  ALA762  ILE779  LEU786  VAL792 
 PHE793  MET794  SER795  GLU796  ALA797  LYS798  CYS799  TRP800  GLU811  SER814 

> <Gold.Protein.RotatedAtoms>
  152.4979  134.4262  159.9496 H   0  0  0  0  0  0  0  0  0  0  0  0  # atno 6907 bound_to 6896
  151.4238  133.3684  159.2767 H   0  0  0  0  0  0  0  0  0  0  0  0  # atno 6908 bound_to 6896
  150.9203  134.8644  159.7544 H   0  0  0  0  0  0  0  0  0  0  0  0  # atno 6909 bound_to 6896
  145.1926  140.9021  143.3416 H   0  0  0  0  0  0  0  0  0  0  0  0  # atno 7974 bound_to 7965
  155.4629  140.0547  157.2989 H   0  0  0  0  0  0  0  0  0  0  0  0  # atno 8008 bound_to 7997
  154.4730  140.2048  155.9902 H   0  0  0  0  0  0  0  0  0  0  0  0  # atno 8009 bound_to 7997
  156.1086  140.3207  155.8046 H   0  0  0  0  0  0  0  0  0  0  0  0  # atno 8010 bound_to 7997
  140.4921  144.0451  150.6301 H   0  0  0  0  0  0  0  0  0  0  0  0  # atno 10167 bound_to 10162
  156.8322  130.5492  149.5686 H   0  0  0  0  0  0  0  0  0  0  0  0  # atno 10718 bound_to 10713
  154.8724  135.3746  154.4673 H   0  0  0  0  0  0  0  0  0  0  0  0  # atno 10763 bound_to 10752
  153.5336  135.7027  153.5676 H   0  0  0  0  0  0  0  0  0  0  0  0  # atno 10764 bound_to 10752
  153.3869  135.3982  155.1861 H   0  0  0  0  0  0  0  0  0  0  0  0  # atno 10765 bound_to 10752
  139.9575  134.9609  156.9042 H   0  0  0  0  0  0  0  0  0  0  0  0  # atno 11005 bound_to 11000
  145.0026  139.3584  143.6160 LP  0  0  0  0  0  0  0  0  0  0  0  0  # atno 17320 bound_to 7965
  146.3433  139.9256  142.8760 LP  0  0  0  0  0  0  0  0  0  0  0  0  # atno 17321 bound_to 7965
  140.3723  143.2848  152.0265 LP  0  0  0  0  0  0  0  0  0  0  0  0  # atno 17342 bound_to 10162
  139.4853  144.6220  151.7236 LP  0  0  0  0  0  0  0  0  0  0  0  0  # atno 17343 bound_to 10162
  156.0928  130.5909  150.9762 LP  0  0  0  0  0  0  0  0  0  0  0  0  # atno 17370 bound_to 10713
  157.6401  131.0911  150.8269 LP  0  0  0  0  0  0  0  0  0  0  0  0  # atno 17371 bound_to 10713
  140.5575  134.0567  155.7388 LP  0  0  0  0  0  0  0  0  0  0  0  0  # atno 17394 bound_to 11000
  141.1249  133.9400  157.2656 LP  0  0  0  0  0  0  0  0  0  0  0  0  # atno 17395 bound_to 11000

$$$$
