AV-unprocessed.smi:3183|AV-procd|sdf|12158|dock2
  -GOLD-   2272017593D 1   1.00000     0.00000
 Structure written by MMmdl.
 43 44  0  0  0  0  0  0  0  0  2 V2000
  145.8864  143.9765  153.3513 C   0  0  0  0  0  0  0  0  0  0  0  0
  146.3521  142.6850  154.0470 C   0  0  1  0  0  0  0  0  0  0  0  0
  147.5712  142.1029  153.3033 C   0  0  0  0  0  0  0  0  0  0  0  0
  148.0734  140.7997  153.9439 C   0  0  0  0  0  0  0  0  0  0  0  0
  148.3971  140.9784  155.4363 C   0  0  1  0  0  0  0  0  0  0  0  0
  149.6098  141.8079  155.6194 N   0  3  0  0  0  0  0  0  0  0  0  0
  150.1236  141.8648  157.0022 C   0  0  0  0  0  0  0  0  0  0  0  0
  151.4653  142.6098  157.0611 C   0  0  0  0  0  0  0  0  0  0  0  0
  152.0644  142.6929  158.4326 C   0  0  0  0  0  0  0  0  0  0  0  0
  152.3965  141.7104  159.3256 C   0  0  0  0  0  0  0  0  0  0  0  0
  152.9212  142.4153  160.4431 C   0  0  0  0  0  0  0  0  0  0  0  0
  152.9164  143.7238  160.2630 N   0  0  0  0  0  0  0  0  0  0  0  0
  152.3921  143.8982  159.0320 N   0  0  0  0  0  0  0  0  0  0  0  0
  152.2504  145.2517  158.5294 C   0  0  0  0  0  0  0  0  0  0  0  0
  147.1977  141.5843  156.1876 C   0  0  0  0  0  0  0  0  0  0  0  0
  146.6739  142.8914  155.5511 C   0  0  2  0  0  0  0  0  0  0  0  0
  145.4677  143.4120  156.3535 C   0  0  0  0  0  0  0  0  0  0  0  0
  146.6244  144.7725  153.4559 H   0  0  0  0  0  0  0  0  0  0  0  0
  144.9420  144.3380  153.7573 H   0  0  0  0  0  0  0  0  0  0  0  0
  145.7272  143.8116  152.2853 H   0  0  0  0  0  0  0  0  0  0  0  0
  145.5403  141.9600  153.9694 H   0  0  0  0  0  0  0  0  0  0  0  0
  147.3121  141.9113  152.2613 H   0  0  0  0  0  0  0  0  0  0  0  0
  148.3772  142.8379  153.2843 H   0  0  0  0  0  0  0  0  0  0  0  0
  147.3051  140.0333  153.8338 H   0  0  0  0  0  0  0  0  0  0  0  0
  148.9482  140.4298  153.4074 H   0  0  0  0  0  0  0  0  0  0  0  0
  148.5870  139.9888  155.8553 H   0  0  0  0  0  0  0  0  0  0  0  0
  150.3373  141.4390  155.0236 H   0  0  0  0  0  0  0  0  0  0  0  0
  149.3891  142.3653  157.6347 H   0  0  0  0  0  0  0  0  0  0  0  0
  150.2432  140.8480  157.3794 H   0  0  0  0  0  0  0  0  0  0  0  0
  152.1750  142.1189  156.3939 H   0  0  0  0  0  0  0  0  0  0  0  0
  151.3285  143.6200  156.6726 H   0  0  0  0  0  0  0  0  0  0  0  0
  152.2838  140.6433  159.2037 H   0  0  0  0  0  0  0  0  0  0  0  0
  153.3025  142.0185  161.3724 H   0  0  0  0  0  0  0  0  0  0  0  0
  151.8138  145.2542  157.5314 H   0  0  0  0  0  0  0  0  0  0  0  0
  153.2289  145.7309  158.4848 H   0  0  0  0  0  0  0  0  0  0  0  0
  151.6048  145.8249  159.1955 H   0  0  0  0  0  0  0  0  0  0  0  0
  146.3898  140.8510  156.2059 H   0  0  0  0  0  0  0  0  0  0  0  0
  147.4680  141.7564  157.2305 H   0  0  0  0  0  0  0  0  0  0  0  0
  147.4623  143.6416  155.6287 H   0  0  0  0  0  0  0  0  0  0  0  0
  144.6076  142.7490  156.2529 H   0  0  0  0  0  0  0  0  0  0  0  0
  145.1638  144.4070  156.0291 H   0  0  0  0  0  0  0  0  0  0  0  0
  145.7051  143.4857  157.4149 H   0  0  0  0  0  0  0  0  0  0  0  0
  149.3976  142.7482  155.3181 H   0  0  0  0  0  0  0  0  0  0  0  0
  1  2  1  0  0  0  0
  1 18  1  0  0  0  0
  1 19  1  0  0  0  0
  1 20  1  0  0  0  0
  2 16  1  0  0  0  0
  2  3  1  0  0  0  0
  2 21  1  0  0  0  0
  3  4  1  0  0  0  0
  3 22  1  0  0  0  0
  3 23  1  0  0  0  0
  4  5  1  0  0  0  0
  4 24  1  0  0  0  0
  4 25  1  0  0  0  0
  5  6  1  0  0  0  0
  5 15  1  0  0  0  0
  5 26  1  0  0  0  0
  6  7  1  0  0  0  0
  6 27  1  0  0  0  0
  6 43  1  0  0  0  0
  7  8  1  0  0  0  0
  7 28  1  0  0  0  0
  7 29  1  0  0  0  0
  8  9  1  0  0  0  0
  8 30  1  0  0  0  0
  8 31  1  0  0  0  0
  9 13  1  0  0  0  0
  9 10  2  0  0  0  0
 10 11  1  0  0  0  0
 10 32  1  0  0  0  0
 11 12  2  0  0  0  0
 11 33  1  0  0  0  0
 12 13  1  0  0  0  0
 13 14  1  0  0  0  0
 14 34  1  0  0  0  0
 14 35  1  0  0  0  0
 14 36  1  0  0  0  0
 15 16  1  0  0  0  0
 15 37  1  0  0  0  0
 15 38  1  0  0  0  0
 16 17  1  0  0  0  0
 16 39  1  0  0  0  0
 17 40  1  0  0  0  0
 17 41  1  0  0  0  0
 17 42  1  0  0  0  0
M  CHG  1   6   1
M  END
> <s_m_source_file>
AV-unprocessed.smi

> <i_m_source_file_index>
3183

> <i_lp_mmshare_version>
43012

> <i_f3d_flags>
0

> <s_epik_input>
W0NIM11bQ0BASF0xW0NIMl1bQ0gyXVtDQEhdKFtDSDJdW0NASF0xW0NIM10pW05IXVtDSDJdW0NIMl1jMltjSF1bY0hdbm4yW0NIM10=

> <s_epik_cmdline>
J2VwaWtfcHl0aG9uJywgJy1waCcsICc3LjAnLCAnLXRuJywgJzgnLCAnLW1hJywgJzIwMCcsICctbWV0YWxfYmluZGluZycsICctaW1hZScsICc8aW5maWxlLm1hZT4nLCAnLW9tYWUnLCAnPG91dGZpbGUubWFlPic=

> <r_lp_tautomer_probability>
1

> <r_epik_Ionization_Penalty>
0.000327718

> <r_epik_Ionization_Penalty_Charging>
0.000294043

> <r_epik_Ionization_Penalty_Neutral>
3.36755e-05

> <r_epik_State_Penalty>
-0

> <r_epik_Charging_Adjusted_Penalty>
0.000294043

> <i_epik_Tot_Q>
1

> <i_epik_Tot_abs_Q>
1

> <r_epik_Metal_State_Penalty>
-0

> <b_epik_Metal_Only>
0

> <s_lp_Force_Field>
OPLS_2005

> <r_lp_Energy>
17.888

> <b_lp_Chiralities_Consistent>
1

> <s_lp_Variant>
AV-unprocessed.smi:3183-6

> <Gold.Version>
5.8.1

> <Gold.Id.Protein>
6NUR|6NUR_protein|mol2

> <Gold.PLP.Fitness>
44.7240

> <Gold.PLP.PLP>
-38.8120

> <Gold.PLP.part.hbond>
-1.0000

> <Gold.PLP.part.metal>
0.0000

> <Gold.PLP.part.buried>
-6.0586

> <Gold.PLP.part.nonpolar>
-31.6413

> <Gold.PLP.part.repulsive>
0.1614

> <Gold.PLP.ligand.clash>
0.0000

> <Gold.PLP.ligand.torsion>
0.0521

> <Gold.PLP.Chemscore.Hbond>
2.0000

> <Gold.PLP.Chemscore.CHOScore>
0.0000

> <Gold.PLP.Chemscore.Metal>
0.0000

> <Gold.Chemscore.Hbonds>
donor molecule, donor type, donor heavy atom, donor atom, acceptor molecule, acceptor atom, score
      L1  H     6    43       P1  8028  1.85

> <Gold.PLP.Chemscore.Internal.Correction>
0.0163

> <Gold.Rescore>
     Score         DG    S(hbond)    S(metal)    S(lipo)     H(rot)  DE(clash)    DE(int)     intcor
     15.74     -17.29       0.99        0.00     102.68       1.38       1.51       0.04       ----

> <Gold.Chemscore.Fitness>
15.7378

> <Gold.Chemscore.DG>
-17.2868

> <Gold.Chemscore.ZeroCoef>
-5.4800

> <Gold.Chemscore.Hbond>
0.9932

> <Gold.Chemscore.Metal>
0.0000

> <Gold.Chemscore.Lipo>
102.6846

> <Gold.Chemscore.Internal_Hbond>
0.0000

> <Gold.Chemscore.DEClash>
1.5112

> <Gold.Chemscore.DEInternal>
0.0378

> <Gold.Chemscore.Rot>
1.3768

> <Gold.Chemscore.Internal.Correction>
   9.000000E+99

> <Gold.Chemscore.Hbonds>
donor molecule, donor type, donor heavy atom, donor atom, acceptor molecule, acceptor atom, score
      L1  H     6    43       P1  8028  0.86

> <Gold.Chemscore.Hbond.Weighted>
-3.3174

> <Gold.Chemscore.Metal.Weighted>
-0.0000

> <Gold.Chemscore.Lipo.Weighted>
-12.0141

> <Gold.Chemscore.Internal_Hbond.Weighted>
0.0000

> <Gold.Chemscore.DEClash.Weighted>
1.5112

> <Gold.Chemscore.DEInternal.Weighted>
0.0378

> <Gold.Chemscore.Rot.Weighted>
3.5247

> <Gold.Chemscore.Internal.Correction.Weighted>
   9.000000E+99

> <Gold.Protein.RotatedTorsions>
[ 6907 6896 6895 6894 ] final   15.92 input  -60.11 | X-H torsion
[ 7974 7965 7964 7962 ] final  -45.14 input  175.53 | X-H torsion
[ 8008 7997 7996 7995 ] final -132.14 input   59.86 | X-H torsion
[ 10167 10162 10161 10158 ] final -123.64 input  -65.29 | X-H torsion
[ 10718 10713 10712 10709 ] final  168.18 input   66.30 | X-H torsion
[ 10763 10752 10751 10750 ] final  126.70 input  -60.55 | X-H torsion
[ 11005 11000 10999 10996 ] final  167.19 input  -57.11 | X-H torsion

> <Gold.Protein.ActiveResidues>
 VAL166  LYS551  ARG553  GLY616  TRP617  ASP618  TYR619  PRO620  LYS621  CYS622 
 ASP623  PHE694  ASN695  SER759  ASP760  ASP761  ALA762  ILE779  LEU786  VAL792 
 PHE793  MET794  SER795  GLU796  ALA797  LYS798  CYS799  TRP800  GLU811  SER814 

> <Gold.Protein.RotatedAtoms>
  151.8257  135.0637  160.0430 H   0  0  0  0  0  0  0  0  0  0  0  0  # atno 6907 bound_to 6896
  152.2918  133.5564  159.5570 H   0  0  0  0  0  0  0  0  0  0  0  0  # atno 6908 bound_to 6896
  150.7233  134.0334  159.3783 H   0  0  0  0  0  0  0  0  0  0  0  0  # atno 6909 bound_to 6896
  145.9850  140.7242  142.9345 H   0  0  0  0  0  0  0  0  0  0  0  0  # atno 7974 bound_to 7965
  155.3240  140.0463  157.3040 H   0  0  0  0  0  0  0  0  0  0  0  0  # atno 8008 bound_to 7997
  154.5365  140.2274  155.8680 H   0  0  0  0  0  0  0  0  0  0  0  0  # atno 8009 bound_to 7997
  156.1839  140.3067  155.9208 H   0  0  0  0  0  0  0  0  0  0  0  0  # atno 8010 bound_to 7997
  140.0013  143.5538  152.2302 H   0  0  0  0  0  0  0  0  0  0  0  0  # atno 10167 bound_to 10162
  157.0409  131.0286  151.2714 H   0  0  0  0  0  0  0  0  0  0  0  0  # atno 10718 bound_to 10713
  153.6976  135.3289  155.3217 H   0  0  0  0  0  0  0  0  0  0  0  0  # atno 10763 bound_to 10752
  154.8422  135.4446  154.1444 H   0  0  0  0  0  0  0  0  0  0  0  0  # atno 10764 bound_to 10752
  153.2503  135.6980  153.7765 H   0  0  0  0  0  0  0  0  0  0  0  0  # atno 10765 bound_to 10752
  140.2743  134.7802  157.3702 H   0  0  0  0  0  0  0  0  0  0  0  0  # atno 11005 bound_to 11000
  144.6872  140.2973  143.7269 LP  0  0  0  0  0  0  0  0  0  0  0  0  # atno 17320 bound_to 7965
  145.7713  139.1858  143.2210 LP  0  0  0  0  0  0  0  0  0  0  0  0  # atno 17321 bound_to 7965
  139.6270  144.7638  151.2618 LP  0  0  0  0  0  0  0  0  0  0  0  0  # atno 17342 bound_to 10162
  140.7418  143.6547  150.8217 LP  0  0  0  0  0  0  0  0  0  0  0  0  # atno 17343 bound_to 10162
  157.5105  130.7936  149.7700 LP  0  0  0  0  0  0  0  0  0  0  0  0  # atno 17370 bound_to 10713
  156.0038  130.3866  150.2505 LP  0  0  0  0  0  0  0  0  0  0  0  0  # atno 17371 bound_to 10713
  140.1344  134.5053  155.8080 LP  0  0  0  0  0  0  0  0  0  0  0  0  # atno 17394 bound_to 11000
  141.2173  133.6801  156.7097 LP  0  0  0  0  0  0  0  0  0  0  0  0  # atno 17395 bound_to 11000

$$$$
