AV-unprocessed.smi:1166|AV-procd|sdf|4937|dock8
  -GOLD-   22720 3523D 1   1.00000     0.00000
 Structure written by MMmdl.
 46 47  0  0  0  0  0  0  0  0  1 V2000
  151.4390  143.6866  157.5736 C   0  0  0  0  0  0  0  0  0  0  0  0
  151.6881  142.3304  158.0518 N   0  0  0  0  0  0  0  0  0  0  0  0
  152.3990  142.1223  159.3073 C   0  0  0  0  0  0  0  0  0  0  0  0
  151.2911  141.2235  157.2670 C   0  0  0  0  0  0  0  0  0  0  0  0
  150.5192  141.3894  156.0902 C   0  0  0  0  0  0  0  0  0  0  0  0
  150.1466  140.2562  155.3419 C   0  0  0  0  0  0  0  0  0  0  0  0
  150.5594  138.9774  155.7809 C   0  0  0  0  0  0  0  0  0  0  0  0
  150.2334  137.7567  155.1297 N   0  0  0  0  0  0  0  0  0  0  0  0
  150.2153  136.5114  155.6352 C   0  0  0  0  0  0  0  0  0  0  0  0
  150.4523  136.2117  156.8051 O   0  0  0  0  0  0  0  0  0  0  0  0
  149.8818  135.6149  154.6960 N   0  0  0  0  0  0  0  0  0  0  0  0
  149.7680  134.1751  154.9071 C   0  0  1  0  0  0  0  0  0  0  0  0
  149.5822  133.4400  153.5692 C   0  0  0  0  0  0  0  0  0  0  0  0
  149.5218  131.9281  153.8134 C   0  0  0  0  0  0  0  0  0  0  0  0
  150.7691  131.4324  154.5658 C   0  0  0  0  0  0  0  0  0  0  0  0
  150.9950  132.1954  155.8103 N   0  0  0  0  0  0  0  0  0  0  0  0
  150.5483  131.5079  157.3454 S   0  0  0  0  0  0  0  0  0  0  0  0
  152.1406  130.9268  158.0602 C   0  0  0  0  0  0  0  0  0  0  0  0
  150.0358  132.5962  158.1920 O   0  0  0  0  0  0  0  0  0  0  0  0
  149.7063  130.3306  157.0833 O   0  0  0  0  0  0  0  0  0  0  0  0
  151.0235  133.6617  155.6387 C   0  0  0  0  0  0  0  0  0  0  0  0
  151.3149  138.9102  156.9678 C   0  0  0  0  0  0  0  0  0  0  0  0
  151.6748  139.9932  157.6870 N   0  0  0  0  0  0  0  0  0  0  0  0
  150.3713  143.8505  157.4254 H   0  0  0  0  0  0  0  0  0  0  0  0
  151.9514  143.8584  156.6265 H   0  0  0  0  0  0  0  0  0  0  0  0
  151.7938  144.4320  158.2855 H   0  0  0  0  0  0  0  0  0  0  0  0
  153.3277  141.5773  159.1363 H   0  0  0  0  0  0  0  0  0  0  0  0
  151.7837  141.5556  160.0066 H   0  0  0  0  0  0  0  0  0  0  0  0
  152.6534  143.0703  159.7820 H   0  0  0  0  0  0  0  0  0  0  0  0
  150.2010  142.3621  155.7476 H   0  0  0  0  0  0  0  0  0  0  0  0
  149.5426  140.3944  154.4593 H   0  0  0  0  0  0  0  0  0  0  0  0
  149.9382  137.8483  154.1686 H   0  0  0  0  0  0  0  0  0  0  0  0
  149.6978  135.9521  153.7624 H   0  0  0  0  0  0  0  0  0  0  0  0
  148.8980  133.9845  155.5358 H   0  0  0  0  0  0  0  0  0  0  0  0
  148.6683  133.7704  153.0739 H   0  0  0  0  0  0  0  0  0  0  0  0
  150.4073  133.6723  152.8944 H   0  0  0  0  0  0  0  0  0  0  0  0
  148.6219  131.6850  154.3768 H   0  0  0  0  0  0  0  0  0  0  0  0
  149.4344  131.4037  152.8615 H   0  0  0  0  0  0  0  0  0  0  0  0
  150.6832  130.3679  154.7823 H   0  0  0  0  0  0  0  0  0  0  0  0
  151.6473  131.5458  153.9294 H   0  0  0  0  0  0  0  0  0  0  0  0
  151.9517  130.4928  159.0417 H   0  0  0  0  0  0  0  0  0  0  0  0
  152.8262  131.7651  158.1711 H   0  0  0  0  0  0  0  0  0  0  0  0
  152.5811  130.1658  157.4186 H   0  0  0  0  0  0  0  0  0  0  0  0
  151.9163  133.9199  155.0677 H   0  0  0  0  0  0  0  0  0  0  0  0
  151.1277  134.1514  156.6069 H   0  0  0  0  0  0  0  0  0  0  0  0
  151.6457  137.9571  157.3538 H   0  0  0  0  0  0  0  0  0  0  0  0
  1  2  1  0  0  0  0
  1 24  1  0  0  0  0
  1 25  1  0  0  0  0
  1 26  1  0  0  0  0
  2  3  1  0  0  0  0
  2  4  1  0  0  0  0
  3 27  1  0  0  0  0
  3 28  1  0  0  0  0
  3 29  1  0  0  0  0
  4 23  1  0  0  0  0
  4  5  2  0  0  0  0
  5  6  1  0  0  0  0
  5 30  1  0  0  0  0
  6  7  2  0  0  0  0
  6 31  1  0  0  0  0
  7  8  1  0  0  0  0
  7 22  1  0  0  0  0
  8  9  1  0  0  0  0
  8 32  1  0  0  0  0
  9 10  2  0  0  0  0
  9 11  1  0  0  0  0
 11 12  1  0  0  0  0
 11 33  1  0  0  0  0
 12 21  1  0  0  0  0
 12 13  1  0  0  0  0
 12 34  1  0  0  0  0
 13 14  1  0  0  0  0
 13 35  1  0  0  0  0
 13 36  1  0  0  0  0
 14 15  1  0  0  0  0
 14 37  1  0  0  0  0
 14 38  1  0  0  0  0
 15 16  1  0  0  0  0
 15 39  1  0  0  0  0
 15 40  1  0  0  0  0
 16 17  1  0  0  0  0
 16 21  1  0  0  0  0
 17 18  1  0  0  0  0
 17 19  2  0  0  0  0
 17 20  2  0  0  0  0
 18 41  1  0  0  0  0
 18 42  1  0  0  0  0
 18 43  1  0  0  0  0
 21 44  1  0  0  0  0
 21 45  1  0  0  0  0
 22 23  2  0  0  0  0
 22 46  1  0  0  0  0
M  END
> <s_m_source_file>
AV-unprocessed.smi

> <i_m_source_file_index>
1166

> <i_lp_mmshare_version>
43012

> <i_f3d_flags>
0

> <s_epik_input>
W0NIM11OKFtDSDNdKWMxW2NIXVtjSF1jKFtjSF1uMSlbTkhdQyg9TylbTkhdW0NAQEhdMltDSDJdW0NIMl1bQ0gyXU4oW0NIMl0yKVMoPU8pKD1PKVtDSDNd

> <s_epik_cmdline>
J2VwaWtfcHl0aG9uJywgJy1waCcsICc3LjAnLCAnLXRuJywgJzgnLCAnLW1hJywgJzIwMCcsICctbWV0YWxfYmluZGluZycsICctaW1hZScsICc8aW5maWxlLm1hZT4nLCAnLW9tYWUnLCAnPG91dGZpbGUubWFlPic=

> <r_lp_tautomer_probability>
1

> <r_epik_Ionization_Penalty>
0.585334

> <r_epik_Ionization_Penalty_Charging>
0

> <r_epik_Ionization_Penalty_Neutral>
0.585334

> <r_epik_State_Penalty>
0.597345

> <r_epik_Charging_Adjusted_Penalty>
0.597345

> <i_epik_Tot_Q>
0

> <i_epik_Tot_abs_Q>
0

> <r_epik_Metal_State_Penalty>
0.29678

> <b_epik_Metal_Only>
0

> <s_lp_Force_Field>
OPLS_2005

> <r_lp_Energy>
2.0747

> <b_lp_Chiralities_Consistent>
1

> <s_lp_Variant>
AV-unprocessed.smi:1166-4

> <Gold.Version>
5.8.1

> <Gold.Id.Protein>
6NUR|6NUR_protein|mol2

> <Gold.PLP.Fitness>
40.2304

> <Gold.PLP.PLP>
-34.6286

> <Gold.PLP.part.hbond>
-2.0000

> <Gold.PLP.part.metal>
0.0000

> <Gold.PLP.part.buried>
-3.9140

> <Gold.PLP.part.nonpolar>
-27.8380

> <Gold.PLP.part.repulsive>
0.0741

> <Gold.PLP.ligand.clash>
0.0000

> <Gold.PLP.ligand.torsion>
1.2302

> <Gold.PLP.Chemscore.Hbond>
2.0000

> <Gold.PLP.Chemscore.CHOScore>
0.0000

> <Gold.PLP.Chemscore.Metal>
0.0000

> <Gold.Chemscore.Hbonds>
donor molecule, donor type, donor heavy atom, donor atom, acceptor molecule, acceptor atom, score
      L1  H    11    33       P1  7948  1.00
      P1  H  6896  6909       L1    19  1.00

> <Gold.PLP.Chemscore.Internal.Correction>
2.0621

> <Gold.Rescore>
     Score         DG    S(hbond)    S(metal)    S(lipo)     H(rot)  DE(clash)    DE(int)     intcor
     14.37     -18.39       1.94        0.00      76.68       1.00       0.14       3.88       ----

> <Gold.Chemscore.Fitness>
14.3736

> <Gold.Chemscore.DG>
-18.3852

> <Gold.Chemscore.ZeroCoef>
-5.4800

> <Gold.Chemscore.Hbond>
1.9442

> <Gold.Chemscore.Metal>
0.0000

> <Gold.Chemscore.Lipo>
76.6793

> <Gold.Chemscore.Internal_Hbond>
0.0000

> <Gold.Chemscore.DEClash>
0.1359

> <Gold.Chemscore.DEInternal>
3.8756

> <Gold.Chemscore.Rot>
1.0000

> <Gold.Chemscore.Internal.Correction>
   9.000000E+99

> <Gold.Chemscore.Hbonds>
donor molecule, donor type, donor heavy atom, donor atom, acceptor molecule, acceptor atom, score
      L1  H    11    33       P1  7948  0.24
      P1  H  6896  6909       L1    19  1.00

> <Gold.Chemscore.Hbond.Weighted>
-6.4937

> <Gold.Chemscore.Metal.Weighted>
-0.0000

> <Gold.Chemscore.Lipo.Weighted>
-8.9715

> <Gold.Chemscore.Internal_Hbond.Weighted>
0.0000

> <Gold.Chemscore.DEClash.Weighted>
0.1359

> <Gold.Chemscore.DEInternal.Weighted>
3.8756

> <Gold.Chemscore.Rot.Weighted>
2.5600

> <Gold.Chemscore.Internal.Correction.Weighted>
   9.000000E+99

> <Gold.Protein.RotatedTorsions>
[ 6907 6896 6895 6894 ] final  -19.53 input  -60.11 | X-H torsion
[ 7974 7965 7964 7962 ] final   50.87 input  175.53 | X-H torsion
[ 8008 7997 7996 7995 ] final -135.36 input   59.86 | X-H torsion
[ 10167 10162 10161 10158 ] final -112.83 input  -65.29 | X-H torsion
[ 10718 10713 10712 10709 ] final  -72.81 input   66.30 | X-H torsion
[ 10763 10752 10751 10750 ] final  154.68 input  -60.55 | X-H torsion
[ 11005 11000 10999 10996 ] final  -69.75 input  -57.11 | X-H torsion

> <Gold.Protein.ActiveResidues>
 VAL166  LYS551  ARG553  GLY616  TRP617  ASP618  TYR619  PRO620  LYS621  CYS622 
 ASP623  PHE694  ASN695  SER759  ASP760  ASP761  ALA762  ILE779  LEU786  VAL792 
 PHE793  MET794  SER795  GLU796  ALA797  LYS798  CYS799  TRP800  GLU811  SER814 

> <Gold.Protein.RotatedAtoms>
  151.2617  135.0656  159.9100 H   0  0  0  0  0  0  0  0  0  0  0  0  # atno 6907 bound_to 6896
  152.5365  134.0224  159.7998 H   0  0  0  0  0  0  0  0  0  0  0  0  # atno 6908 bound_to 6896
  151.0448  133.5625  159.2679 H   0  0  0  0  0  0  0  0  0  0  0  0  # atno 6909 bound_to 6896
  145.9969  139.4398  143.0039 H   0  0  0  0  0  0  0  0  0  0  0  0  # atno 7974 bound_to 7965
  155.3774  140.0492  157.3044 H   0  0  0  0  0  0  0  0  0  0  0  0  # atno 8008 bound_to 7997
  154.5099  140.2188  155.9139 H   0  0  0  0  0  0  0  0  0  0  0  0  # atno 8009 bound_to 7997
  156.1570  140.3124  155.8749 H   0  0  0  0  0  0  0  0  0  0  0  0  # atno 8010 bound_to 7997
  140.1185  143.4464  152.1706 H   0  0  0  0  0  0  0  0  0  0  0  0  # atno 10167 bound_to 10162
  156.0305  130.4380  150.2648 H   0  0  0  0  0  0  0  0  0  0  0  0  # atno 10718 bound_to 10713
  154.1562  135.2812  155.3121 H   0  0  0  0  0  0  0  0  0  0  0  0  # atno 10763 bound_to 10752
  154.6180  135.5477  153.7548 H   0  0  0  0  0  0  0  0  0  0  0  0  # atno 10764 bound_to 10752
  153.0206  135.6432  154.1705 H   0  0  0  0  0  0  0  0  0  0  0  0  # atno 10765 bound_to 10752
  141.1560  133.6772  156.6647 H   0  0  0  0  0  0  0  0  0  0  0  0  # atno 11005 bound_to 11000
  145.7546  140.9959  143.1232 LP  0  0  0  0  0  0  0  0  0  0  0  0  # atno 17320 bound_to 7965
  144.6906  139.9256  143.7469 LP  0  0  0  0  0  0  0  0  0  0  0  0  # atno 17321 bound_to 7965
  139.5581  144.7387  151.4234 LP  0  0  0  0  0  0  0  0  0  0  0  0  # atno 17342 bound_to 10162
  140.6886  143.7916  150.7221 LP  0  0  0  0  0  0  0  0  0  0  0  0  # atno 17343 bound_to 10162
  157.0751  131.0127  151.3176 LP  0  0  0  0  0  0  0  0  0  0  0  0  # atno 17370 bound_to 10713
  157.4970  130.7857  149.7565 LP  0  0  0  0  0  0  0  0  0  0  0  0  # atno 17371 bound_to 10713
  140.3220  134.7999  157.4260 LP  0  0  0  0  0  0  0  0  0  0  0  0  # atno 17394 bound_to 11000
  140.1088  134.5373  155.8284 LP  0  0  0  0  0  0  0  0  0  0  0  0  # atno 17395 bound_to 11000

$$$$
