AV-unprocessed.smi:1345|AV-procd|sdf|5510|dock1
  -GOLD-   22720 5 93D 1   1.00000     0.00000
 Structure written by MMmdl.
 40 41  0  0  0  0  0  0  0  0  1 V2000
  151.7369  144.5169  157.6084 C   0  0  0  0  0  0  0  0  0  0  0  0
  150.8059  144.4617  158.8333 C   0  0  0  0  0  0  0  0  0  0  0  0
  151.6296  144.7052  160.1131 C   0  0  0  0  0  0  0  0  0  0  0  0
  149.9917  143.1418  158.9009 C   0  0  2  0  0  0  0  0  0  0  0  0
  150.7562  141.9251  158.3444 C   0  0  0  0  0  0  0  0  0  0  0  0
  148.7362  143.2861  158.1643 N   0  0  0  0  0  0  0  0  0  0  0  0
  147.5095  143.0277  158.6458 C   0  0  0  0  0  0  0  0  0  0  0  0
  147.3068  142.6269  159.7932 O   0  0  0  0  0  0  0  0  0  0  0  0
  146.3491  143.2672  157.6711 C   0  0  0  0  0  0  0  0  0  0  0  0
  146.6251  142.6989  156.3064 C   0  0  0  0  0  0  0  0  0  0  0  0
  145.9671  142.9975  155.1376 C   0  0  0  0  0  0  0  0  0  0  0  0
  146.6050  142.1073  153.7822 S   0  0  0  0  0  0  0  0  0  0  0  0
  147.7564  141.3379  154.8722 C   0  0  0  0  0  0  0  0  0  0  0  0
  148.7148  140.3708  154.4451 N   0  0  0  0  0  0  0  0  0  0  0  0
  150.0852  140.3954  154.9423 C   0  0  0  0  0  0  0  0  0  0  0  0
  150.7528  139.2195  154.2354 C   0  0  0  0  0  0  0  0  0  0  0  0
  149.6699  138.6862  153.4429 N   0  0  0  0  0  0  0  0  0  0  0  0
  148.5227  139.3559  153.5764 C   0  0  0  0  0  0  0  0  0  0  0  0
  147.4829  139.0648  152.9871 O   0  0  0  0  0  0  0  0  0  0  0  0
  147.6377  141.7484  156.1405 N   0  0  0  0  0  0  0  0  0  0  0  0
  152.4236  143.6699  157.5937 H   0  0  0  0  0  0  0  0  0  0  0  0
  152.3357  145.4282  157.6113 H   0  0  0  0  0  0  0  0  0  0  0  0
  151.1776  144.5130  156.6734 H   0  0  0  0  0  0  0  0  0  0  0  0
  150.1008  145.2894  158.7421 H   0  0  0  0  0  0  0  0  0  0  0  0
  152.3337  143.8912  160.2893 H   0  0  0  0  0  0  0  0  0  0  0  0
  150.9963  144.7955  160.9957 H   0  0  0  0  0  0  0  0  0  0  0  0
  152.2044  145.6291  160.0408 H   0  0  0  0  0  0  0  0  0  0  0  0
  149.7613  142.9475  159.9503 H   0  0  0  0  0  0  0  0  0  0  0  0
  151.6376  141.6940  158.9415 H   0  0  0  0  0  0  0  0  0  0  0  0
  151.0806  142.0960  157.3173 H   0  0  0  0  0  0  0  0  0  0  0  0
  150.1323  141.0309  158.3497 H   0  0  0  0  0  0  0  0  0  0  0  0
  148.8077  143.6151  157.2124 H   0  0  0  0  0  0  0  0  0  0  0  0
  145.4465  142.8271  158.0973 H   0  0  0  0  0  0  0  0  0  0  0  0
  146.1626  144.3394  157.5961 H   0  0  0  0  0  0  0  0  0  0  0  0
  145.1512  143.6898  154.9919 H   0  0  0  0  0  0  0  0  0  0  0  0
  150.5714  141.3389  154.6902 H   0  0  0  0  0  0  0  0  0  0  0  0
  150.1037  140.2704  156.0261 H   0  0  0  0  0  0  0  0  0  0  0  0
  151.5751  139.5396  153.5946 H   0  0  0  0  0  0  0  0  0  0  0  0
  151.1194  138.4713  154.9390 H   0  0  0  0  0  0  0  0  0  0  0  0
  149.7820  137.8790  152.8466 H   0  0  0  0  0  0  0  0  0  0  0  0
  1  2  1  0  0  0  0
  1 21  1  0  0  0  0
  1 22  1  0  0  0  0
  1 23  1  0  0  0  0
  2  3  1  0  0  0  0
  2  4  1  0  0  0  0
  2 24  1  0  0  0  0
  3 25  1  0  0  0  0
  3 26  1  0  0  0  0
  3 27  1  0  0  0  0
  4  5  1  0  0  0  0
  4  6  1  0  0  0  0
  4 28  1  0  0  0  0
  5 29  1  0  0  0  0
  5 30  1  0  0  0  0
  5 31  1  0  0  0  0
  6  7  1  0  0  0  0
  6 32  1  0  0  0  0
  7  8  2  0  0  0  0
  7  9  1  0  0  0  0
  9 10  1  0  0  0  0
  9 33  1  0  0  0  0
  9 34  1  0  0  0  0
 10 20  1  0  0  0  0
 10 11  2  0  0  0  0
 11 12  1  0  0  0  0
 11 35  1  0  0  0  0
 12 13  1  0  0  0  0
 13 14  1  0  0  0  0
 13 20  2  0  0  0  0
 14 18  1  0  0  0  0
 14 15  1  0  0  0  0
 15 16  1  0  0  0  0
 15 36  1  0  0  0  0
 15 37  1  0  0  0  0
 16 17  1  0  0  0  0
 16 38  1  0  0  0  0
 16 39  1  0  0  0  0
 17 18  1  0  0  0  0
 17 40  1  0  0  0  0
 18 19  2  0  0  0  0
M  END
> <s_m_source_file>
AV-unprocessed.smi

> <i_m_source_file_index>
1345

> <i_lp_mmshare_version>
43012

> <i_f3d_flags>
0

> <s_epik_input>
W0NIM11bQ0hdKFtDSDNdKVtDQEhdKFtDSDNdKVtOSF1DKD1PKVtDSDJdYzFbY0hdc2MobjEpTjJbQ0gyXVtDSDJdW05IXUMyPU8=

> <s_epik_cmdline>
J2VwaWtfcHl0aG9uJywgJy1waCcsICc3LjAnLCAnLXRuJywgJzgnLCAnLW1hJywgJzIwMCcsICctbWV0YWxfYmluZGluZycsICctaW1hZScsICc8aW5maWxlLm1hZT4nLCAnLW9tYWUnLCAnPG91dGZpbGUubWFlPic=

> <r_lp_tautomer_probability>
1

> <r_epik_Ionization_Penalty>
0.000122034

> <r_epik_Ionization_Penalty_Charging>
0

> <r_epik_Ionization_Penalty_Neutral>
0.000122034

> <r_epik_State_Penalty>
-0

> <r_epik_Charging_Adjusted_Penalty>
0

> <i_epik_Tot_Q>
0

> <i_epik_Tot_abs_Q>
0

> <r_epik_Metal_State_Penalty>
-0

> <b_epik_Metal_Only>
0

> <s_lp_Force_Field>
OPLS_2005

> <r_lp_Energy>
36.09

> <b_lp_Chiralities_Consistent>
1

> <s_lp_Variant>
AV-unprocessed.smi:1345-1

> <Gold.Version>
5.8.1

> <Gold.Id.Protein>
6NUR|6NUR_protein|mol2

> <Gold.PLP.Fitness>
42.5397

> <Gold.PLP.PLP>
-35.9642

> <Gold.PLP.part.hbond>
-6.0000

> <Gold.PLP.part.metal>
0.0000

> <Gold.PLP.part.buried>
-1.0571

> <Gold.PLP.part.nonpolar>
-29.9473

> <Gold.PLP.part.repulsive>
0.5474

> <Gold.PLP.ligand.clash>
0.0000

> <Gold.PLP.ligand.torsion>
1.8894

> <Gold.PLP.Chemscore.Hbond>
3.4115

> <Gold.PLP.Chemscore.CHOScore>
0.0000

> <Gold.PLP.Chemscore.Metal>
0.0000

> <Gold.Chemscore.Hbonds>
donor molecule, donor type, donor heavy atom, donor atom, acceptor molecule, acceptor atom, score
      L1  H     6    32       P1  8028  0.95
      L1  H    17    40       P1  7948  0.98
      P1  H  6933  6944       L1     8  0.66
      P1  H  6934  6946       L1     8  0.70

> <Gold.PLP.Chemscore.Internal.Correction>
0.1197

> <Gold.Rescore>
     Score         DG    S(hbond)    S(metal)    S(lipo)     H(rot)  DE(clash)    DE(int)     intcor
     15.58     -19.06       2.71        0.00      76.64       1.74       0.09       3.39       ----

> <Gold.Chemscore.Fitness>
15.5850

> <Gold.Chemscore.DG>
-19.0648

> <Gold.Chemscore.ZeroCoef>
-5.4800

> <Gold.Chemscore.Hbond>
2.7125

> <Gold.Chemscore.Metal>
0.0000

> <Gold.Chemscore.Lipo>
76.6442

> <Gold.Chemscore.Internal_Hbond>
0.0000

> <Gold.Chemscore.DEClash>
0.0894

> <Gold.Chemscore.DEInternal>
3.3905

> <Gold.Chemscore.Rot>
1.7353

> <Gold.Chemscore.Internal.Correction>
   9.000000E+99

> <Gold.Chemscore.Hbonds>
donor molecule, donor type, donor heavy atom, donor atom, acceptor molecule, acceptor atom, score
      L1  H     6    32       P1  8028  0.21
      L1  H    17    40       P1  7948  0.43
      P1  H  6933  6944       L1     8  0.63
      P1  H  6934  6946       L1     8  0.66

> <Gold.Chemscore.Hbond.Weighted>
-9.0597

> <Gold.Chemscore.Metal.Weighted>
-0.0000

> <Gold.Chemscore.Lipo.Weighted>
-8.9674

> <Gold.Chemscore.Internal_Hbond.Weighted>
0.0000

> <Gold.Chemscore.DEClash.Weighted>
0.0894

> <Gold.Chemscore.DEInternal.Weighted>
3.3905

> <Gold.Chemscore.Rot.Weighted>
4.4423

> <Gold.Chemscore.Internal.Correction.Weighted>
   9.000000E+99

> <Gold.Protein.RotatedTorsions>
[ 6907 6896 6895 6894 ] final    2.73 input  -60.11 | X-H torsion
[ 7974 7965 7964 7962 ] final   -1.89 input  175.53 | X-H torsion
[ 8008 7997 7996 7995 ] final   67.95 input   59.86 | X-H torsion
[ 10167 10162 10161 10158 ] final  -20.91 input  -65.29 | X-H torsion
[ 10718 10713 10712 10709 ] final  -39.34 input   66.30 | X-H torsion
[ 10763 10752 10751 10750 ] final  -79.51 input  -60.55 | X-H torsion
[ 11005 11000 10999 10996 ] final   52.57 input  -57.11 | X-H torsion

> <Gold.Protein.ActiveResidues>
 VAL166  LYS551  ARG553  GLY616  TRP617  ASP618  TYR619  PRO620  LYS621  CYS622 
 ASP623  PHE694  ASN695  SER759  ASP760  ASP761  ALA762  ILE779  LEU786  VAL792 
 PHE793  MET794  SER795  GLU796  ALA797  LYS798  CYS799  TRP800  GLU811  SER814 

> <Gold.Protein.RotatedAtoms>
  151.6135  135.1038  160.0086 H   0  0  0  0  0  0  0  0  0  0  0  0  # atno 6907 bound_to 6896
  152.4195  133.7089  159.6478 H   0  0  0  0  0  0  0  0  0  0  0  0  # atno 6908 bound_to 6896
  150.8083  133.8396  159.3216 H   0  0  0  0  0  0  0  0  0  0  0  0  # atno 6909 bound_to 6896
  146.2411  140.1488  142.8334 H   0  0  0  0  0  0  0  0  0  0  0  0  # atno 7974 bound_to 7965
  155.7008  140.3495  155.4932 H   0  0  0  0  0  0  0  0  0  0  0  0  # atno 8008 bound_to 7997
  155.9442  140.1107  157.1053 H   0  0  0  0  0  0  0  0  0  0  0  0  # atno 8009 bound_to 7997
  154.4108  140.1207  156.4953 H   0  0  0  0  0  0  0  0  0  0  0  0  # atno 8010 bound_to 7997
  140.7279  143.4677  151.0290 H   0  0  0  0  0  0  0  0  0  0  0  0  # atno 10167 bound_to 10162
  156.2936  130.4231  149.8213 H   0  0  0  0  0  0  0  0  0  0  0  0  # atno 10718 bound_to 10713
  154.5395  135.5693  153.6827 H   0  0  0  0  0  0  0  0  0  0  0  0  # atno 10763 bound_to 10752
  152.9960  135.6224  154.2521 H   0  0  0  0  0  0  0  0  0  0  0  0  # atno 10764 bound_to 10752
  154.2451  135.2861  155.2818 H   0  0  0  0  0  0  0  0  0  0  0  0  # atno 10765 bound_to 10752
  140.0838  134.5302  155.8919 H   0  0  0  0  0  0  0  0  0  0  0  0  # atno 11005 bound_to 11000
  145.0185  140.8774  143.5181 LP  0  0  0  0  0  0  0  0  0  0  0  0  # atno 17320 bound_to 7965
  145.1532  139.2502  143.5430 LP  0  0  0  0  0  0  0  0  0  0  0  0  # atno 17321 bound_to 7965
  139.8367  143.7619  152.3180 LP  0  0  0  0  0  0  0  0  0  0  0  0  # atno 17342 bound_to 10162
  139.7753  144.7463  151.0165 LP  0  0  0  0  0  0  0  0  0  0  0  0  # atno 17343 bound_to 10162
  156.5617  130.8386  151.3331 LP  0  0  0  0  0  0  0  0  0  0  0  0  # atno 17370 bound_to 10713
  157.7349  130.9754  150.2054 LP  0  0  0  0  0  0  0  0  0  0  0  0  # atno 17371 bound_to 10713
  141.2056  133.6648  156.6189 LP  0  0  0  0  0  0  0  0  0  0  0  0  # atno 17394 bound_to 11000
  140.3449  134.7818  157.4425 LP  0  0  0  0  0  0  0  0  0  0  0  0  # atno 17395 bound_to 11000

$$$$
