AV-unprocessed.smi:33|AV-procd|sdf|201|dock2
  -GOLD-   2262015473D 1   1.00000     0.00000
 Structure written by MMmdl.
 67 72  0  0  0  0  0  0  0  0  1 V2000
  154.0718  139.8490  158.9249 O   0  0  0  0  0  0  0  0  0  0  0  0
  153.1347  140.6293  159.1055 C   0  0  0  0  0  0  0  0  0  0  0  0
  152.0502  140.6888  158.3084 O   0  0  0  0  0  0  0  0  0  0  0  0
  151.8866  139.7444  157.2632 C   0  0  0  0  0  0  0  0  0  0  0  0
  151.1686  140.4146  156.0857 C   0  0  2  0  0  0  0  0  0  0  0  0
  150.1160  141.2493  156.5418 O   0  0  0  0  0  0  0  0  0  0  0  0
  149.2412  141.4772  155.4820 C   0  0  2  0  0  0  0  0  0  0  0  0
  147.8571  141.5610  156.0351 N   0  0  0  0  0  0  0  0  0  0  0  0
  147.3775  140.9833  157.1898 C   0  0  0  0  0  0  0  0  0  0  0  0
  146.1191  141.2148  157.4502 N   0  0  0  0  0  0  0  0  0  0  0  0
  145.6980  142.0084  156.3908 C   0  0  0  0  0  0  0  0  0  0  0  0
  144.4602  142.6115  156.0383 C   0  0  0  0  0  0  0  0  0  0  0  0
  143.3378  142.4806  156.7842 N   0  0  0  0  0  0  0  0  0  0  0  0
  142.4173  143.6269  156.8159 C   0  0  0  0  0  0  0  0  0  0  0  0
  141.2242  143.4429  157.0639 O   0  0  0  0  0  0  0  0  0  0  0  0
  142.9123  145.0105  156.5019 C   0  0  0  0  0  0  0  0  0  0  0  0
  142.2089  145.8210  155.5839 C   0  0  0  0  0  0  0  0  0  0  0  0
  142.6582  147.1248  155.2983 C   0  0  0  0  0  0  0  0  0  0  0  0
  143.8025  147.6332  155.9422 C   0  0  0  0  0  0  0  0  0  0  0  0
  144.4923  146.8407  156.8795 C   0  0  0  0  0  0  0  0  0  0  0  0
  144.0439  145.5366  157.1654 C   0  0  0  0  0  0  0  0  0  0  0  0
  143.1466  141.2113  157.5016 C   0  0  0  0  0  0  0  0  0  0  0  0
  143.6778  140.1849  157.0731 O   0  0  0  0  0  0  0  0  0  0  0  0
  142.2627  141.1484  158.7152 C   0  0  0  0  0  0  0  0  0  0  0  0
  142.0888  142.2933  159.5236 C   0  0  0  0  0  0  0  0  0  0  0  0
  141.2540  142.2421  160.6568 C   0  0  0  0  0  0  0  0  0  0  0  0
  140.5721  141.0526  160.9771 C   0  0  0  0  0  0  0  0  0  0  0  0
  140.7183  139.9163  160.1591 C   0  0  0  0  0  0  0  0  0  0  0  0
  141.5541  139.9660  159.0269 C   0  0  0  0  0  0  0  0  0  0  0  0
  144.4118  143.3470  154.8971 N   0  0  0  0  0  0  0  0  0  0  0  0
  145.5092  143.4817  154.1469 C   0  0  0  0  0  0  0  0  0  0  0  0
  146.7271  142.9753  154.3513 N   0  0  0  0  0  0  0  0  0  0  0  0
  146.7804  142.2361  155.4974 C   0  0  0  0  0  0  0  0  0  0  0  0
  149.3729  140.2982  154.5013 C   0  0  1  0  0  0  0  0  0  0  0  0
  149.7903  140.7239  153.2198 O   0  0  0  0  0  0  0  0  0  0  0  0
  150.4582  139.4416  155.1423 C   0  0  2  0  0  0  0  0  0  0  0  0
  149.8912  138.4450  155.8241 F   0  0  0  0  0  0  0  0  0  0  0  0
  153.0827  141.6067  160.2310 C   0  0  0  0  0  0  0  0  0  0  0  0
  153.8060  141.3374  161.4165 C   0  0  0  0  0  0  0  0  0  0  0  0
  153.7730  142.2396  162.4978 C   0  0  0  0  0  0  0  0  0  0  0  0
  153.0157  143.4219  162.4070 C   0  0  0  0  0  0  0  0  0  0  0  0
  152.2913  143.7011  161.2336 C   0  0  0  0  0  0  0  0  0  0  0  0
  152.3234  142.8005  160.1511 C   0  0  0  0  0  0  0  0  0  0  0  0
  152.8687  139.3917  156.9455 H   0  0  0  0  0  0  0  0  0  0  0  0
  151.3219  138.8794  157.6148 H   0  0  0  0  0  0  0  0  0  0  0  0
  151.8707  141.0204  155.5098 H   0  0  0  0  0  0  0  0  0  0  0  0
  149.4276  142.4520  155.0283 H   0  0  0  0  0  0  0  0  0  0  0  0
  147.9959  140.3818  157.8402 H   0  0  0  0  0  0  0  0  0  0  0  0
  141.3290  145.4417  155.0845 H   0  0  0  0  0  0  0  0  0  0  0  0
  142.1237  147.7355  154.5860 H   0  0  0  0  0  0  0  0  0  0  0  0
  144.1466  148.6331  155.7227 H   0  0  0  0  0  0  0  0  0  0  0  0
  145.3643  147.2338  157.3809 H   0  0  0  0  0  0  0  0  0  0  0  0
  144.5777  144.9395  157.8909 H   0  0  0  0  0  0  0  0  0  0  0  0
  142.6075  143.2114  159.2881 H   0  0  0  0  0  0  0  0  0  0  0  0
  141.1369  143.1161  161.2803 H   0  0  0  0  0  0  0  0  0  0  0  0
  139.9322  141.0137  161.8462 H   0  0  0  0  0  0  0  0  0  0  0  0
  140.1890  139.0060  160.3994 H   0  0  0  0  0  0  0  0  0  0  0  0
  141.6557  139.0887  158.4042 H   0  0  0  0  0  0  0  0  0  0  0  0
  145.3953  144.0796  153.2548 H   0  0  0  0  0  0  0  0  0  0  0  0
  148.4320  139.7536  154.4058 H   0  0  0  0  0  0  0  0  0  0  0  0
  149.4708  140.1074  152.5791 H   0  0  0  0  0  0  0  0  0  0  0  0
  151.1350  138.9789  154.4229 H   0  0  0  0  0  0  0  0  0  0  0  0
  154.3936  140.4354  161.5101 H   0  0  0  0  0  0  0  0  0  0  0  0
  154.3290  142.0228  163.3982 H   0  0  0  0  0  0  0  0  0  0  0  0
  152.9907  144.1135  163.2361 H   0  0  0  0  0  0  0  0  0  0  0  0
  151.7088  144.6079  161.1628 H   0  0  0  0  0  0  0  0  0  0  0  0
  151.7542  143.0446  159.2660 H   0  0  0  0  0  0  0  0  0  0  0  0
  1  2  2  0  0  0  0
  2  3  1  0  0  0  0
  2 38  1  0  0  0  0
  3  4  1  0  0  0  0
  4  5  1  0  0  0  0
  4 44  1  0  0  0  0
  4 45  1  0  0  0  0
  5 36  1  0  0  0  0
  5  6  1  0  0  0  0
  5 46  1  0  0  0  0
  6  7  1  0  0  0  0
  7  8  1  0  0  0  0
  7 34  1  0  0  0  0
  7 47  1  0  0  0  0
  8 33  1  0  0  0  0
  8  9  1  0  0  0  0
  9 10  2  0  0  0  0
  9 48  1  0  0  0  0
 10 11  1  0  0  0  0
 11 33  2  0  0  0  0
 11 12  1  0  0  0  0
 12 13  1  0  0  0  0
 12 30  2  0  0  0  0
 13 14  1  0  0  0  0
 13 22  1  0  0  0  0
 14 15  2  0  0  0  0
 14 16  1  0  0  0  0
 16 21  1  0  0  0  0
 16 17  2  0  0  0  0
 17 18  1  0  0  0  0
 17 49  1  0  0  0  0
 18 19  2  0  0  0  0
 18 50  1  0  0  0  0
 19 20  1  0  0  0  0
 19 51  1  0  0  0  0
 20 21  2  0  0  0  0
 20 52  1  0  0  0  0
 21 53  1  0  0  0  0
 22 23  2  0  0  0  0
 22 24  1  0  0  0  0
 24 29  1  0  0  0  0
 24 25  2  0  0  0  0
 25 26  1  0  0  0  0
 25 54  1  0  0  0  0
 26 27  2  0  0  0  0
 26 55  1  0  0  0  0
 27 28  1  0  0  0  0
 27 56  1  0  0  0  0
 28 29  2  0  0  0  0
 28 57  1  0  0  0  0
 29 58  1  0  0  0  0
 30 31  1  0  0  0  0
 31 32  2  0  0  0  0
 31 59  1  0  0  0  0
 32 33  1  0  0  0  0
 34 35  1  0  0  0  0
 34 36  1  0  0  0  0
 34 60  1  0  0  0  0
 35 61  1  0  0  0  0
 36 37  1  0  0  0  0
 36 62  1  0  0  0  0
 38 43  1  0  0  0  0
 38 39  2  0  0  0  0
 39 40  1  0  0  0  0
 39 63  1  0  0  0  0
 40 41  2  0  0  0  0
 40 64  1  0  0  0  0
 41 42  1  0  0  0  0
 41 65  1  0  0  0  0
 42 43  2  0  0  0  0
 42 66  1  0  0  0  0
 43 67  1  0  0  0  0
M  END
> <s_m_source_file>
AV-unprocessed.smi

> <i_m_source_file_index>
33

> <i_lp_mmshare_version>
43012

> <i_f3d_flags>
0

> <s_epik_input>
W2NIXTFbY0hdW2NIXVtjSF1bY0hdYzFDKD1PKU9bQ0gyXVtDQEBIXTJPW0NASF0oW0NAQEhdKFtPSF0pW0NAQEhdMkYpbihbY0hdbjMpYyhjMzQpbltjSF1uYzROKEMoPU8pYzVbY0hdW2NIXVtjSF1bY0hdW2NIXTUpQyg9TyljNltjSF1bY0hdW2NIXVtjSF1bY0hdNg==

> <s_epik_cmdline>
J2VwaWtfcHl0aG9uJywgJy1waCcsICc3LjAnLCAnLXRuJywgJzgnLCAnLW1hJywgJzIwMCcsICctbWV0YWxfYmluZGluZycsICctaW1hZScsICc8aW5maWxlLm1hZT4nLCAnLW9tYWUnLCAnPG91dGZpbGUubWFlPic=

> <r_lp_tautomer_probability>
1

> <r_epik_Ionization_Penalty>
0.00067664

> <r_epik_Ionization_Penalty_Charging>
0

> <r_epik_Ionization_Penalty_Neutral>
0.00067664

> <r_epik_State_Penalty>
0.000428095

> <r_epik_Charging_Adjusted_Penalty>
0.000428095

> <i_epik_Tot_Q>
0

> <i_epik_Tot_abs_Q>
0

> <r_epik_Metal_State_Penalty>
-0

> <b_epik_Metal_Only>
0

> <s_epik_Chemistry_Notes>
This compound has an ester and may undergo hydrolysis at high or low pH. This compound contains an acetal/aminal-like group ( X-CH(R)-Y where X, Y are N, S, or O) that may be acid/base labile, releasing an aldehyde.

> <s_lp_Force_Field>
OPLS_2005

> <r_lp_Energy>
66.4626

> <b_lp_Chiralities_Consistent>
1

> <s_lp_Variant>
AV-unprocessed.smi:33-3

> <Gold.Version>
5.8.1

> <Gold.Id.Protein>
6NUR|6NUR_protein|mol2

> <Gold.PLP.Fitness>
66.7649

> <Gold.PLP.PLP>
-61.0175

> <Gold.PLP.part.hbond>
-2.1644

> <Gold.PLP.part.metal>
0.0000

> <Gold.PLP.part.buried>
-5.8558

> <Gold.PLP.part.nonpolar>
-52.4108

> <Gold.PLP.part.repulsive>
0.8616

> <Gold.PLP.ligand.clash>
0.0000

> <Gold.PLP.ligand.torsion>
3.6081

> <Gold.PLP.Chemscore.Hbond>
2.7472

> <Gold.PLP.Chemscore.CHOScore>
0.0000

> <Gold.PLP.Chemscore.Metal>
0.0000

> <Gold.Chemscore.Hbonds>
donor molecule, donor type, donor heavy atom, donor atom, acceptor molecule, acceptor atom, score
      L1  H    35    61       P1  7957  0.48
      P1  H  7989  7998       L1    35  0.26
      P1  H  7997  8010       L1     1  0.99
      P1  H  8011  8017       L1    35  1.00

> <Gold.PLP.Chemscore.Internal.Correction>
4.7220

> <Gold.Rescore>
     Score         DG    S(hbond)    S(metal)    S(lipo)     H(rot)  DE(clash)    DE(int)     intcor
      9.36     -21.44       2.15        0.00     130.20       2.52       0.04      12.05       ----

> <Gold.Chemscore.Fitness>
9.3612

> <Gold.Chemscore.DG>
-21.4420

> <Gold.Chemscore.ZeroCoef>
-5.4800

> <Gold.Chemscore.Hbond>
2.1533

> <Gold.Chemscore.Metal>
0.0000

> <Gold.Chemscore.Lipo>
130.1984

> <Gold.Chemscore.Internal_Hbond>
0.0000

> <Gold.Chemscore.DEClash>
0.0350

> <Gold.Chemscore.DEInternal>
12.0458

> <Gold.Chemscore.Rot>
2.5247

> <Gold.Chemscore.Internal.Correction>
   9.000000E+99

> <Gold.Chemscore.Hbonds>
donor molecule, donor type, donor heavy atom, donor atom, acceptor molecule, acceptor atom, score
      L1  H    35    61       P1  7957  0.47
      P1  H  7989  7998       L1    35  0.09
      P1  H  7997  8010       L1     1  0.90
      P1  H  8011  8017       L1    35  0.50

> <Gold.Chemscore.Hbond.Weighted>
-7.1921

> <Gold.Chemscore.Metal.Weighted>
-0.0000

> <Gold.Chemscore.Lipo.Weighted>
-15.2332

> <Gold.Chemscore.Internal_Hbond.Weighted>
0.0000

> <Gold.Chemscore.DEClash.Weighted>
0.0350

> <Gold.Chemscore.DEInternal.Weighted>
12.0458

> <Gold.Chemscore.Rot.Weighted>
6.4633

> <Gold.Chemscore.Internal.Correction.Weighted>
   9.000000E+99

> <Gold.Protein.RotatedTorsions>
[ 6907 6896 6895 6894 ] final   85.88 input  -60.11 | X-H torsion
[ 7974 7965 7964 7962 ] final   79.90 input  175.53 | X-H torsion
[ 8008 7997 7996 7995 ] final   -0.62 input   59.86 | X-H torsion
[ 10167 10162 10161 10158 ] final -138.00 input  -65.29 | X-H torsion
[ 10718 10713 10712 10709 ] final   49.00 input   66.30 | X-H torsion
[ 10763 10752 10751 10750 ] final   92.95 input  -60.55 | X-H torsion
[ 11005 11000 10999 10996 ] final -121.72 input  -57.11 | X-H torsion

> <Gold.Protein.ActiveResidues>
 VAL166  LYS551  ARG553  GLY616  TRP617  ASP618  TYR619  PRO620  LYS621  CYS622 
 ASP623  PHE694  ASN695  SER759  ASP760  ASP761  ALA762  ILE779  LEU786  VAL792 
 PHE793  MET794  SER795  GLU796  ALA797  LYS798  CYS799  TRP800  GLU811  SER814 

> <Gold.Protein.RotatedAtoms>
  152.5384  134.2517  159.8901 H   0  0  0  0  0  0  0  0  0  0  0  0  # atno 6907 bound_to 6896
  151.2480  133.4358  159.2618 H   0  0  0  0  0  0  0  0  0  0  0  0  # atno 6908 bound_to 6896
  151.0565  134.9722  159.8295 H   0  0  0  0  0  0  0  0  0  0  0  0  # atno 6909 bound_to 6896
  145.6582  139.2464  143.1938 H   0  0  0  0  0  0  0  0  0  0  0  0  # atno 7974 bound_to 7965
  154.6560  140.2579  155.7161 H   0  0  0  0  0  0  0  0  0  0  0  0  # atno 8008 bound_to 7997
  156.2597  140.2858  156.0934 H   0  0  0  0  0  0  0  0  0  0  0  0  # atno 8009 bound_to 7997
  155.1380  140.0380  157.2781 H   0  0  0  0  0  0  0  0  0  0  0  0  # atno 8010 bound_to 7997
  139.8522  143.7184  152.2657 H   0  0  0  0  0  0  0  0  0  0  0  0  # atno 10167 bound_to 10162
  157.4743  130.8275  149.8022 H   0  0  0  0  0  0  0  0  0  0  0  0  # atno 10718 bound_to 10713
  153.2249  135.4343  155.0530 H   0  0  0  0  0  0  0  0  0  0  0  0  # atno 10763 bound_to 10752
  154.8268  135.3365  154.6873 H   0  0  0  0  0  0  0  0  0  0  0  0  # atno 10764 bound_to 10752
  153.7303  135.7011  153.5047 H   0  0  0  0  0  0  0  0  0  0  0  0  # atno 10765 bound_to 10752
  141.0049  134.0349  157.3490 H   0  0  0  0  0  0  0  0  0  0  0  0  # atno 11005 bound_to 11000
  146.1147  140.7384  142.9486 LP  0  0  0  0  0  0  0  0  0  0  0  0  # atno 17320 bound_to 7965
  144.7098  140.3996  143.7089 LP  0  0  0  0  0  0  0  0  0  0  0  0  # atno 17321 bound_to 7965
  139.7454  144.7548  151.0587 LP  0  0  0  0  0  0  0  0  0  0  0  0  # atno 17342 bound_to 10162
  140.7786  143.4922  150.9878 LP  0  0  0  0  0  0  0  0  0  0  0  0  # atno 17343 bound_to 10162
  156.0089  130.3842  150.2334 LP  0  0  0  0  0  0  0  0  0  0  0  0  # atno 17370 bound_to 10713
  157.0517  131.0065  151.3251 LP  0  0  0  0  0  0  0  0  0  0  0  0  # atno 17371 bound_to 10713
  139.9058  135.0179  156.7478 LP  0  0  0  0  0  0  0  0  0  0  0  0  # atno 17394 bound_to 11000
  140.6829  133.9458  155.7921 LP  0  0  0  0  0  0  0  0  0  0  0  0  # atno 17395 bound_to 11000

$$$$
