AV-unprocessed.smi:2402|AV-procd|sdf|9506|dock2
  -GOLD-   2272013133D 1   1.00000     0.00000
 Structure written by MMmdl.
 38 39  0  0  0  0  0  0  0  0  1 V2000
  151.8600  146.0266  160.1497 C   0  0  0  0  0  0  0  0  0  0  0  0
  151.9303  144.6399  159.5455 C   0  0  0  0  0  0  0  0  0  0  0  0
  152.8464  143.6861  160.0291 C   0  0  0  0  0  0  0  0  0  0  0  0
  152.8635  142.4147  159.4231 C   0  0  0  0  0  0  0  0  0  0  0  0
  153.8232  141.3408  159.8906 C   0  0  0  0  0  0  0  0  0  0  0  0
  152.0470  142.0737  158.4035 N   0  0  0  0  0  0  0  0  0  0  0  0
  151.1624  142.9848  157.9276 C   0  0  0  0  0  0  0  0  0  0  0  0
  150.2696  142.7287  156.8528 N   0  0  0  0  0  0  0  0  0  0  0  0
  150.2676  141.6829  156.0073 C   0  0  0  0  0  0  0  0  0  0  0  0
  151.0384  140.7236  156.0571 O   0  0  0  0  0  0  0  0  0  0  0  0
  149.3096  141.8103  155.0778 N   0  0  0  0  0  0  0  0  0  0  0  0
  149.0687  140.8607  153.9970 C   0  0  1  0  0  0  0  0  0  0  0  0
  149.1636  139.4459  154.5024 C   0  0  0  0  0  0  0  0  0  0  0  0
  148.0457  138.7508  154.3025 C   0  0  0  0  0  0  0  0  0  0  0  0
  146.9655  139.5675  153.6421 C   0  0  2  0  0  0  0  0  0  0  0  0
  146.4046  138.9197  152.3619 C   0  0  0  0  0  0  0  0  0  0  0  0
  147.4112  138.7189  151.3898 O   0  0  0  0  0  0  0  0  0  0  0  0
  147.6278  140.9526  153.4262 C   0  0  0  0  0  0  0  0  0  0  0  0
  151.0776  144.2819  158.4816 C   0  0  0  0  0  0  0  0  0  0  0  0
  149.8086  140.9951  153.2059 H   0  0  0  0  0  0  0  0  0  0  0  0
  146.1539  139.6709  154.3632 H   0  0  0  0  0  0  0  0  0  0  0  0
  152.5310  146.1217  161.0038 H   0  0  0  0  0  0  0  0  0  0  0  0
  150.8459  146.2414  160.4876 H   0  0  0  0  0  0  0  0  0  0  0  0
  152.1420  146.7750  159.4088 H   0  0  0  0  0  0  0  0  0  0  0  0
  153.5188  143.9225  160.8411 H   0  0  0  0  0  0  0  0  0  0  0  0
  154.3795  141.6630  160.7713 H   0  0  0  0  0  0  0  0  0  0  0  0
  154.5386  141.1052  159.1024 H   0  0  0  0  0  0  0  0  0  0  0  0
  153.2803  140.4306  160.1461 H   0  0  0  0  0  0  0  0  0  0  0  0
  149.5685  143.4365  156.6932 H   0  0  0  0  0  0  0  0  0  0  0  0
  148.7168  142.6267  155.1087 H   0  0  0  0  0  0  0  0  0  0  0  0
  150.0614  139.0584  154.9611 H   0  0  0  0  0  0  0  0  0  0  0  0
  147.8962  137.7188  154.5838 H   0  0  0  0  0  0  0  0  0  0  0  0
  145.9491  137.9567  152.5952 H   0  0  0  0  0  0  0  0  0  0  0  0
  145.6214  139.5465  151.9347 H   0  0  0  0  0  0  0  0  0  0  0  0
  147.8528  137.9047  151.5776 H   0  0  0  0  0  0  0  0  0  0  0  0
  147.0426  141.7286  153.9221 H   0  0  0  0  0  0  0  0  0  0  0  0
  147.6623  141.2213  152.3698 H   0  0  0  0  0  0  0  0  0  0  0  0
  150.3685  144.9992  158.0936 H   0  0  0  0  0  0  0  0  0  0  0  0
  1  2  1  0  0  0  0
  1 22  1  0  0  0  0
  1 23  1  0  0  0  0
  1 24  1  0  0  0  0
  2 19  1  0  0  0  0
  2  3  2  0  0  0  0
  3  4  1  0  0  0  0
  3 25  1  0  0  0  0
  4  5  1  0  0  0  0
  4  6  2  0  0  0  0
  5 26  1  0  0  0  0
  5 27  1  0  0  0  0
  5 28  1  0  0  0  0
  6  7  1  0  0  0  0
  7  8  1  0  0  0  0
  7 19  2  0  0  0  0
  8  9  1  0  0  0  0
  8 29  1  0  0  0  0
  9 10  2  0  0  0  0
  9 11  1  0  0  0  0
 11 12  1  0  0  0  0
 11 30  1  0  0  0  0
 12 20  1  0  0  0  0
 12 18  1  0  0  0  0
 12 13  1  0  0  0  0
 13 14  2  0  0  0  0
 13 31  1  0  0  0  0
 14 15  1  0  0  0  0
 14 32  1  0  0  0  0
 15 21  1  0  0  0  0
 15 16  1  0  0  0  0
 15 18  1  0  0  0  0
 16 17  1  0  0  0  0
 16 33  1  0  0  0  0
 16 34  1  0  0  0  0
 17 35  1  0  0  0  0
 18 36  1  0  0  0  0
 18 37  1  0  0  0  0
 19 38  1  0  0  0  0
M  END
> <s_m_source_file>
AV-unprocessed.smi

> <i_m_source_file_index>
2402

> <i_lp_mmshare_version>
43012

> <i_f3d_flags>
0

> <s_epik_input>
W0NIM11jMVtjSF1jKFtDSDNdKW5jKFtjSF0xKVtOSF1DKD1PKVtOSF1bQ0BASF0yW0NIXT1bQ0hdW0NAQEhdKFtDSDJdMilbQ0gyXVtPSF0=

> <s_epik_cmdline>
J2VwaWtfcHl0aG9uJywgJy1waCcsICc3LjAnLCAnLXRuJywgJzgnLCAnLW1hJywgJzIwMCcsICctbWV0YWxfYmluZGluZycsICctaW1hZScsICc8aW5maWxlLm1hZT4nLCAnLW9tYWUnLCAnPG91dGZpbGUubWFlPic=

> <r_lp_tautomer_probability>
1

> <r_epik_Ionization_Penalty>
0.000257495

> <r_epik_Ionization_Penalty_Charging>
0

> <r_epik_Ionization_Penalty_Neutral>
0.000257495

> <r_epik_State_Penalty>
-0

> <r_epik_Charging_Adjusted_Penalty>
0

> <i_epik_Tot_Q>
0

> <i_epik_Tot_abs_Q>
0

> <r_epik_Metal_State_Penalty>
-0

> <b_epik_Metal_Only>
0

> <s_lp_Force_Field>
OPLS_2005

> <r_lp_Energy>
20.4004

> <b_lp_Chiralities_Consistent>
1

> <s_lp_Variant>
AV-unprocessed.smi:2402-2

> <Gold.Version>
5.8.1

> <Gold.Id.Protein>
6NUR|6NUR_protein|mol2

> <Gold.PLP.Fitness>
51.7933

> <Gold.PLP.PLP>
-44.9091

> <Gold.PLP.part.hbond>
-5.0000

> <Gold.PLP.part.metal>
0.0000

> <Gold.PLP.part.buried>
-0.9816

> <Gold.PLP.part.nonpolar>
-38.7773

> <Gold.PLP.part.repulsive>
0.2443

> <Gold.PLP.ligand.clash>
0.0000

> <Gold.PLP.ligand.torsion>
0.3043

> <Gold.PLP.Chemscore.Hbond>
2.4940

> <Gold.PLP.Chemscore.CHOScore>
0.0000

> <Gold.PLP.Chemscore.Metal>
0.0000

> <Gold.Chemscore.Hbonds>
donor molecule, donor type, donor heavy atom, donor atom, acceptor molecule, acceptor atom, score
      L1  H     8    29       P1  8028  1.00
      L1  H    11    30       P1  8028  0.52
      L1  H    17    35       P1  7948  1.00

> <Gold.PLP.Chemscore.Internal.Correction>
0.0108

> <Gold.Rescore>
     Score         DG    S(hbond)    S(metal)    S(lipo)     H(rot)  DE(clash)    DE(int)     intcor
     19.42     -22.62       2.68        0.00     109.21       1.78       0.10       3.11       ----

> <Gold.Chemscore.Fitness>
19.4153

> <Gold.Chemscore.DG>
-22.6246

> <Gold.Chemscore.ZeroCoef>
-5.4800

> <Gold.Chemscore.Hbond>
2.6752

> <Gold.Chemscore.Metal>
0.0000

> <Gold.Chemscore.Lipo>
109.2108

> <Gold.Chemscore.Internal_Hbond>
0.0000

> <Gold.Chemscore.DEClash>
0.0986

> <Gold.Chemscore.DEInternal>
3.1107

> <Gold.Chemscore.Rot>
1.7844

> <Gold.Chemscore.Internal.Correction>
   9.000000E+99

> <Gold.Chemscore.Hbonds>
donor molecule, donor type, donor heavy atom, donor atom, acceptor molecule, acceptor atom, score
      L1  H     8    29       P1  8028  0.94
      L1  H    11    30       P1  8028  0.53
      L1  H    17    35       P1  7948  0.97

> <Gold.Chemscore.Hbond.Weighted>
-8.9350

> <Gold.Chemscore.Metal.Weighted>
-0.0000

> <Gold.Chemscore.Lipo.Weighted>
-12.7777

> <Gold.Chemscore.Internal_Hbond.Weighted>
0.0000

> <Gold.Chemscore.DEClash.Weighted>
0.0986

> <Gold.Chemscore.DEInternal.Weighted>
3.1107

> <Gold.Chemscore.Rot.Weighted>
4.5681

> <Gold.Chemscore.Internal.Correction.Weighted>
   9.000000E+99

> <Gold.Protein.RotatedTorsions>
[ 6907 6896 6895 6894 ] final  -82.91 input  -60.11 | X-H torsion
[ 7974 7965 7964 7962 ] final  152.47 input  175.53 | X-H torsion
[ 8008 7997 7996 7995 ] final   75.61 input   59.86 | X-H torsion
[ 10167 10162 10161 10158 ] final  136.55 input  -65.29 | X-H torsion
[ 10718 10713 10712 10709 ] final   -5.82 input   66.30 | X-H torsion
[ 10763 10752 10751 10750 ] final   93.33 input  -60.55 | X-H torsion
[ 11005 11000 10999 10996 ] final  160.76 input  -57.11 | X-H torsion

> <Gold.Protein.ActiveResidues>
 VAL166  LYS551  ARG553  GLY616  TRP617  ASP618  TYR619  PRO620  LYS621  CYS622 
 ASP623  PHE694  ASN695  SER759  ASP760  ASP761  ALA762  ILE779  LEU786  VAL792 
 PHE793  MET794  SER795  GLU796  ALA797  LYS798  CYS799  TRP800  GLU811  SER814 

> <Gold.Protein.RotatedAtoms>
  150.6891  134.3593  159.4942 H   0  0  0  0  0  0  0  0  0  0  0  0  # atno 6907 bound_to 6896
  152.1424  134.9050  160.0562 H   0  0  0  0  0  0  0  0  0  0  0  0  # atno 6908 bound_to 6896
  152.0178  133.3852  159.4283 H   0  0  0  0  0  0  0  0  0  0  0  0  # atno 6909 bound_to 6896
  144.8220  139.6672  143.6096 H   0  0  0  0  0  0  0  0  0  0  0  0  # atno 7974 bound_to 7965
  155.8154  140.3471  155.5482 H   0  0  0  0  0  0  0  0  0  0  0  0  # atno 8008 bound_to 7997
  155.8397  140.0939  157.1762 H   0  0  0  0  0  0  0  0  0  0  0  0  # atno 8009 bound_to 7997
  154.4005  140.1396  156.3701 H   0  0  0  0  0  0  0  0  0  0  0  0  # atno 8010 bound_to 7997
  139.5176  144.6458  151.5443 H   0  0  0  0  0  0  0  0  0  0  0  0  # atno 10167 bound_to 10162
  156.7409  130.5209  149.5824 H   0  0  0  0  0  0  0  0  0  0  0  0  # atno 10718 bound_to 10713
  153.2291  135.4329  155.0575 H   0  0  0  0  0  0  0  0  0  0  0  0  # atno 10763 bound_to 10752
  154.8288  135.3375  154.6813 H   0  0  0  0  0  0  0  0  0  0  0  0  # atno 10764 bound_to 10752
  153.7241  135.7015  153.5061 H   0  0  0  0  0  0  0  0  0  0  0  0  # atno 10765 bound_to 10752
  140.2091  134.8281  157.3101 H   0  0  0  0  0  0  0  0  0  0  0  0  # atno 11005 bound_to 11000
  146.2526  139.6232  142.9417 LP  0  0  0  0  0  0  0  0  0  0  0  0  # atno 17320 bound_to 7965
  145.5083  141.0436  143.2502 LP  0  0  0  0  0  0  0  0  0  0  0  0  # atno 17321 bound_to 7965
  140.6242  143.9200  150.6551 LP  0  0  0  0  0  0  0  0  0  0  0  0  # atno 17342 bound_to 10162
  140.2483  143.3612  152.1428 LP  0  0  0  0  0  0  0  0  0  0  0  0  # atno 17343 bound_to 10162
  156.1465  130.6280  151.0538 LP  0  0  0  0  0  0  0  0  0  0  0  0  # atno 17370 bound_to 10713
  157.6819  131.0836  150.7348 LP  0  0  0  0  0  0  0  0  0  0  0  0  # atno 17371 bound_to 10713
  140.1971  134.4301  155.7683 LP  0  0  0  0  0  0  0  0  0  0  0  0  # atno 17394 bound_to 11000
  141.2226  133.7054  156.8122 LP  0  0  0  0  0  0  0  0  0  0  0  0  # atno 17395 bound_to 11000

$$$$
