AV-unprocessed.smi:3183|AV-procd|sdf|12154|dock6
  -GOLD-   2272017593D 1   1.00000     0.00000
 Structure written by MMmdl.
 43 44  0  0  0  0  0  0  0  0  2 V2000
  149.6087  140.7538  156.9959 C   0  0  0  0  0  0  0  0  0  0  0  0
  150.3748  140.9708  155.6752 C   0  0  1  0  0  0  0  0  0  0  0  0
  151.7086  140.1949  155.6569 C   0  0  0  0  0  0  0  0  0  0  0  0
  151.5027  138.6807  155.4803 C   0  0  0  0  0  0  0  0  0  0  0  0
  150.6881  138.3726  154.2123 C   0  0  1  0  0  0  0  0  0  0  0  0
  150.4608  136.9167  154.0884 N   0  3  0  0  0  0  0  0  0  0  0  0
  149.7483  136.3050  155.2281 C   0  0  0  0  0  0  0  0  0  0  0  0
  150.3545  134.9426  155.5945 C   0  0  0  0  0  0  0  0  0  0  0  0
  149.9072  133.8128  154.7165 C   0  0  0  0  0  0  0  0  0  0  0  0
  149.1267  133.8064  153.5922 C   0  0  0  0  0  0  0  0  0  0  0  0
  149.0639  132.4365  153.2171 C   0  0  0  0  0  0  0  0  0  0  0  0
  149.7455  131.6563  154.0363 N   0  0  0  0  0  0  0  0  0  0  0  0
  150.2637  132.4960  154.9568 N   0  0  0  0  0  0  0  0  0  0  0  0
  151.0804  131.9369  156.0176 C   0  0  0  0  0  0  0  0  0  0  0  0
  149.3453  139.1258  154.2287 C   0  0  0  0  0  0  0  0  0  0  0  0
  149.5505  140.6450  154.4024 C   0  0  1  0  0  0  0  0  0  0  0  0
  148.2216  141.4145  154.3249 C   0  0  0  0  0  0  0  0  0  0  0  0
  149.2471  139.7314  157.1003 H   0  0  0  0  0  0  0  0  0  0  0  0
  148.7484  141.4188  157.0723 H   0  0  0  0  0  0  0  0  0  0  0  0
  150.2471  140.9646  157.8541 H   0  0  0  0  0  0  0  0  0  0  0  0
  150.6261  142.0319  155.6395 H   0  0  0  0  0  0  0  0  0  0  0  0
  152.3262  140.5657  154.8375 H   0  0  0  0  0  0  0  0  0  0  0  0
  152.2731  140.3905  156.5693 H   0  0  0  0  0  0  0  0  0  0  0  0
  152.4734  138.1864  155.4272 H   0  0  0  0  0  0  0  0  0  0  0  0
  150.9995  138.2710  156.3570 H   0  0  0  0  0  0  0  0  0  0  0  0
  151.2600  138.7227  153.3509 H   0  0  0  0  0  0  0  0  0  0  0  0
  149.9253  136.7496  153.2484 H   0  0  0  0  0  0  0  0  0  0  0  0
  149.8015  136.9800  156.0836 H   0  0  0  0  0  0  0  0  0  0  0  0
  148.6953  136.1884  154.9671 H   0  0  0  0  0  0  0  0  0  0  0  0
  151.4423  135.0139  155.5523 H   0  0  0  0  0  0  0  0  0  0  0  0
  150.1023  134.7073  156.6294 H   0  0  0  0  0  0  0  0  0  0  0  0
  148.6660  134.6528  153.1049 H   0  0  0  0  0  0  0  0  0  0  0  0
  148.5475  131.9892  152.3804 H   0  0  0  0  0  0  0  0  0  0  0  0
  151.4337  132.7163  156.6918 H   0  0  0  0  0  0  0  0  0  0  0  0
  151.9439  131.4291  155.5870 H   0  0  0  0  0  0  0  0  0  0  0  0
  150.4950  131.2176  156.5909 H   0  0  0  0  0  0  0  0  0  0  0  0
  148.8115  138.9345  153.2966 H   0  0  0  0  0  0  0  0  0  0  0  0
  148.7098  138.7406  155.0271 H   0  0  0  0  0  0  0  0  0  0  0  0
  150.1448  140.9823  153.5515 H   0  0  0  0  0  0  0  0  0  0  0  0
  147.5160  141.0823  155.0865 H   0  0  0  0  0  0  0  0  0  0  0  0
  147.7446  141.2706  153.3552 H   0  0  0  0  0  0  0  0  0  0  0  0
  148.3791  142.4852  154.4565 H   0  0  0  0  0  0  0  0  0  0  0  0
  151.3579  136.4629  153.9908 H   0  0  0  0  0  0  0  0  0  0  0  0
  1  2  1  0  0  0  0
  1 18  1  0  0  0  0
  1 19  1  0  0  0  0
  1 20  1  0  0  0  0
  2 16  1  0  0  0  0
  2  3  1  0  0  0  0
  2 21  1  0  0  0  0
  3  4  1  0  0  0  0
  3 22  1  0  0  0  0
  3 23  1  0  0  0  0
  4  5  1  0  0  0  0
  4 24  1  0  0  0  0
  4 25  1  0  0  0  0
  5  6  1  0  0  0  0
  5 15  1  0  0  0  0
  5 26  1  0  0  0  0
  6  7  1  0  0  0  0
  6 27  1  0  0  0  0
  6 43  1  0  0  0  0
  7  8  1  0  0  0  0
  7 28  1  0  0  0  0
  7 29  1  0  0  0  0
  8  9  1  0  0  0  0
  8 30  1  0  0  0  0
  8 31  1  0  0  0  0
  9 13  1  0  0  0  0
  9 10  2  0  0  0  0
 10 11  1  0  0  0  0
 10 32  1  0  0  0  0
 11 12  2  0  0  0  0
 11 33  1  0  0  0  0
 12 13  1  0  0  0  0
 13 14  1  0  0  0  0
 14 34  1  0  0  0  0
 14 35  1  0  0  0  0
 14 36  1  0  0  0  0
 15 16  1  0  0  0  0
 15 37  1  0  0  0  0
 15 38  1  0  0  0  0
 16 17  1  0  0  0  0
 16 39  1  0  0  0  0
 17 40  1  0  0  0  0
 17 41  1  0  0  0  0
 17 42  1  0  0  0  0
M  CHG  1   6   1
M  END
> <s_m_source_file>
AV-unprocessed.smi

> <i_m_source_file_index>
3183

> <i_lp_mmshare_version>
43012

> <i_f3d_flags>
0

> <s_epik_input>
W0NIM11bQ0BASF0xW0NIMl1bQ0gyXVtDQEhdKFtDSDJdW0NASF0xW0NIM10pW05IXVtDSDJdW0NIMl1jMltjSF1bY0hdbm4yW0NIM10=

> <s_epik_cmdline>
J2VwaWtfcHl0aG9uJywgJy1waCcsICc3LjAnLCAnLXRuJywgJzgnLCAnLW1hJywgJzIwMCcsICctbWV0YWxfYmluZGluZycsICctaW1hZScsICc8aW5maWxlLm1hZT4nLCAnLW9tYWUnLCAnPG91dGZpbGUubWFlPic=

> <r_lp_tautomer_probability>
1

> <r_epik_Ionization_Penalty>
0.000327718

> <r_epik_Ionization_Penalty_Charging>
0.000294043

> <r_epik_Ionization_Penalty_Neutral>
3.36755e-05

> <r_epik_State_Penalty>
-0

> <r_epik_Charging_Adjusted_Penalty>
0.000294043

> <i_epik_Tot_Q>
1

> <i_epik_Tot_abs_Q>
1

> <r_epik_Metal_State_Penalty>
-0

> <b_epik_Metal_Only>
0

> <s_lp_Force_Field>
OPLS_2005

> <r_lp_Energy>
15.8905

> <b_lp_Chiralities_Consistent>
1

> <s_lp_Variant>
AV-unprocessed.smi:3183-2

> <Gold.Version>
5.8.1

> <Gold.Id.Protein>
6NUR|6NUR_protein|mol2

> <Gold.PLP.Fitness>
42.9409

> <Gold.PLP.PLP>
-34.7657

> <Gold.PLP.part.hbond>
-2.0000

> <Gold.PLP.part.metal>
0.0000

> <Gold.PLP.part.buried>
0.9165

> <Gold.PLP.part.nonpolar>
-31.9179

> <Gold.PLP.part.repulsive>
0.1156

> <Gold.PLP.ligand.clash>
0.0000

> <Gold.PLP.ligand.torsion>
0.4151

> <Gold.PLP.Chemscore.Hbond>
2.0000

> <Gold.PLP.Chemscore.CHOScore>
0.9985

> <Gold.PLP.Chemscore.Metal>
0.0000

> <Gold.Chemscore.Hbonds>
donor molecule, donor type, donor heavy atom, donor atom, acceptor molecule, acceptor atom, score
      L1  H     6    27       P1  7948  1.70
      L1  C    11    33       P1 10747  1.00

> <Gold.PLP.Chemscore.Internal.Correction>
0.0098

> <Gold.Rescore>
     Score         DG    S(hbond)    S(metal)    S(lipo)     H(rot)  DE(clash)    DE(int)     intcor
     13.51     -14.24       0.90        0.00      79.16       1.38       0.23       0.49       ----

> <Gold.Chemscore.Fitness>
13.5143

> <Gold.Chemscore.DG>
-14.2361

> <Gold.Chemscore.ZeroCoef>
-5.4800

> <Gold.Chemscore.Hbond>
0.9041

> <Gold.Chemscore.Metal>
0.0000

> <Gold.Chemscore.Lipo>
79.1562

> <Gold.Chemscore.Internal_Hbond>
0.0000

> <Gold.Chemscore.DEClash>
0.2323

> <Gold.Chemscore.DEInternal>
0.4895

> <Gold.Chemscore.Rot>
1.3768

> <Gold.Chemscore.Internal.Correction>
   9.000000E+99

> <Gold.Chemscore.Hbonds>
donor molecule, donor type, donor heavy atom, donor atom, acceptor molecule, acceptor atom, score
      L1  H     6    27       P1  7948  0.15

> <Gold.Chemscore.Hbond.Weighted>
-3.0196

> <Gold.Chemscore.Metal.Weighted>
-0.0000

> <Gold.Chemscore.Lipo.Weighted>
-9.2613

> <Gold.Chemscore.Internal_Hbond.Weighted>
0.0000

> <Gold.Chemscore.DEClash.Weighted>
0.2323

> <Gold.Chemscore.DEInternal.Weighted>
0.4895

> <Gold.Chemscore.Rot.Weighted>
3.5247

> <Gold.Chemscore.Internal.Correction.Weighted>
   9.000000E+99

> <Gold.Protein.RotatedTorsions>
[ 6907 6896 6895 6894 ] final -142.45 input  -60.11 | X-H torsion
[ 7974 7965 7964 7962 ] final -110.93 input  175.53 | X-H torsion
[ 8008 7997 7996 7995 ] final  -40.18 input   59.86 | X-H torsion
[ 10167 10162 10161 10158 ] final  101.57 input  -65.29 | X-H torsion
[ 10718 10713 10712 10709 ] final   35.77 input   66.30 | X-H torsion
[ 10763 10752 10751 10750 ] final   92.18 input  -60.55 | X-H torsion
[ 11005 11000 10999 10996 ] final -120.69 input  -57.11 | X-H torsion

> <Gold.Protein.ActiveResidues>
 VAL166  LYS551  ARG553  GLY616  TRP617  ASP618  TYR619  PRO620  LYS621  CYS622 
 ASP623  PHE694  ASN695  SER759  ASP760  ASP761  ALA762  ILE779  LEU786  VAL792 
 PHE793  MET794  SER795  GLU796  ALA797  LYS798  CYS799  TRP800  GLU811  SER814 

> <Gold.Protein.RotatedAtoms>
  151.0872  133.5344  159.2616 H   0  0  0  0  0  0  0  0  0  0  0  0  # atno 6907 bound_to 6896
  151.2225  135.0523  159.8965 H   0  0  0  0  0  0  0  0  0  0  0  0  # atno 6908 bound_to 6896
  152.5430  134.0672  159.8232 H   0  0  0  0  0  0  0  0  0  0  0  0  # atno 6909 bound_to 6896
  145.1622  140.8884  143.3584 H   0  0  0  0  0  0  0  0  0  0  0  0  # atno 7974 bound_to 7965
  154.4015  140.1532  156.2985 H   0  0  0  0  0  0  0  0  0  0  0  0  # atno 8008 bound_to 7997
  155.8722  140.3448  155.5807 H   0  0  0  0  0  0  0  0  0  0  0  0  # atno 8009 bound_to 7997
  155.7762  140.0837  157.2073 H   0  0  0  0  0  0  0  0  0  0  0  0  # atno 8010 bound_to 7997
  139.7426  144.7007  151.0552 H   0  0  0  0  0  0  0  0  0  0  0  0  # atno 10167 bound_to 10162
  157.3267  130.7476  149.6820 H   0  0  0  0  0  0  0  0  0  0  0  0  # atno 10718 bound_to 10713
  153.2163  135.4371  155.0438 H   0  0  0  0  0  0  0  0  0  0  0  0  # atno 10763 bound_to 10752
  154.8227  135.3345  154.6993 H   0  0  0  0  0  0  0  0  0  0  0  0  # atno 10764 bound_to 10752
  153.7428  135.7003  153.5019 H   0  0  0  0  0  0  0  0  0  0  0  0  # atno 10765 bound_to 10752
  141.0125  134.0243  157.3394 H   0  0  0  0  0  0  0  0  0  0  0  0  # atno 11005 bound_to 11000
  145.0319  139.3334  143.6020 LP  0  0  0  0  0  0  0  0  0  0  0  0  # atno 17320 bound_to 7965
  146.3481  139.9659  142.8712 LP  0  0  0  0  0  0  0  0  0  0  0  0  # atno 17321 bound_to 7965
  140.7788  143.4906  150.9899 LP  0  0  0  0  0  0  0  0  0  0  0  0  # atno 17342 bound_to 10162
  139.8594  143.7334  152.3174 LP  0  0  0  0  0  0  0  0  0  0  0  0  # atno 17343 bound_to 10162
  155.9691  130.4207  150.4435 LP  0  0  0  0  0  0  0  0  0  0  0  0  # atno 17370 bound_to 10713
  157.2460  131.0536  151.2408 LP  0  0  0  0  0  0  0  0  0  0  0  0  # atno 17371 bound_to 10713
  139.9098  135.0188  156.7643 LP  0  0  0  0  0  0  0  0  0  0  0  0  # atno 17394 bound_to 11000
  140.6709  133.9560  155.7856 LP  0  0  0  0  0  0  0  0  0  0  0  0  # atno 17395 bound_to 11000

$$$$
