AV-unprocessed.smi:1659|AV-procd|sdf|6651|dock2
  -GOLD-   22720 7353D 1   1.00000     0.00000
 Structure written by MMmdl.
 42 43  0  0  0  0  0  0  0  0  2 V2000
  145.9959  134.3445  162.5567 C   0  0  0  0  0  0  0  0  0  0  0  0
  146.9395  135.1643  161.7453 C   0  0  0  0  0  0  0  0  0  0  0  0
  147.9556  134.8373  160.8927 C   0  0  0  0  0  0  0  0  0  0  0  0
  148.4319  136.1033  160.4543 C   0  0  0  0  0  0  0  0  0  0  0  0
  149.4480  136.3130  159.6031 N   0  5  0  0  0  0  0  0  0  0  0  0
  149.3115  137.1894  158.5812 C   0  0  0  0  0  0  0  0  0  0  0  0
  148.4850  138.1017  158.5056 O   0  0  0  0  0  0  0  0  0  0  0  0
  150.1857  136.9984  157.5838 N   0  0  0  0  0  0  0  0  0  0  0  0
  150.2616  137.8009  156.3687 C   0  0  0  0  0  0  0  0  0  0  0  0
  151.7101  137.9411  155.8766 C   0  0  0  0  0  0  0  0  0  0  0  0
  152.5618  138.8910  156.7403 C   0  0  0  0  0  0  0  0  0  0  0  0
  151.7406  139.9373  157.3613 N   0  0  0  0  0  0  0  0  0  0  0  0
  151.7339  139.9622  158.8325 C   0  0  0  0  0  0  0  0  0  0  0  0
  152.4924  141.1659  159.4375 C   0  0  0  0  0  0  0  0  0  0  0  0
  152.4865  142.4624  158.6032 C   0  0  0  0  0  0  0  0  0  0  0  0
  151.0927  142.9374  158.1414 C   0  0  0  0  0  0  0  0  0  0  0  0
  150.2354  141.9139  157.3580 C   0  0  0  0  0  0  0  0  0  0  0  0
  151.0444  140.8340  156.6203 C   0  0  0  0  0  0  0  0  0  0  0  0
  151.0304  140.8217  155.3893 O   0  0  0  0  0  0  0  0  0  0  0  0
  147.7750  137.1095  161.0069 N   0  0  0  0  0  0  0  0  0  0  0  0
  146.8114  136.5156  161.8308 O   0  0  0  0  0  0  0  0  0  0  0  0
  146.5273  133.5504  163.0810 H   0  0  0  0  0  0  0  0  0  0  0  0
  145.2414  133.8837  161.9193 H   0  0  0  0  0  0  0  0  0  0  0  0
  145.4837  134.9552  163.3005 H   0  0  0  0  0  0  0  0  0  0  0  0
  148.3007  133.8513  160.6200 H   0  0  0  0  0  0  0  0  0  0  0  0
  150.8473  136.2418  157.6790 H   0  0  0  0  0  0  0  0  0  0  0  0
  149.6547  137.3282  155.5953 H   0  0  0  0  0  0  0  0  0  0  0  0
  149.8341  138.7881  156.5512 H   0  0  0  0  0  0  0  0  0  0  0  0
  152.1743  136.9549  155.8368 H   0  0  0  0  0  0  0  0  0  0  0  0
  151.6947  138.3101  154.8504 H   0  0  0  0  0  0  0  0  0  0  0  0
  153.0882  138.3209  157.5069 H   0  0  0  0  0  0  0  0  0  0  0  0
  153.3483  139.3489  156.1377 H   0  0  0  0  0  0  0  0  0  0  0  0
  150.7025  139.9628  159.1850 H   0  0  0  0  0  0  0  0  0  0  0  0
  152.1468  139.0378  159.2386 H   0  0  0  0  0  0  0  0  0  0  0  0
  152.0937  141.3688  160.4321 H   0  0  0  0  0  0  0  0  0  0  0  0
  153.5326  140.8769  159.5920 H   0  0  0  0  0  0  0  0  0  0  0  0
  152.9535  143.2566  159.1866 H   0  0  0  0  0  0  0  0  0  0  0  0
  153.1330  142.3353  157.7335 H   0  0  0  0  0  0  0  0  0  0  0  0
  150.5263  143.2690  159.0122 H   0  0  0  0  0  0  0  0  0  0  0  0
  151.2248  143.8271  157.5246 H   0  0  0  0  0  0  0  0  0  0  0  0
  149.5278  141.4267  158.0288 H   0  0  0  0  0  0  0  0  0  0  0  0
  149.6126  142.4467  156.6382 H   0  0  0  0  0  0  0  0  0  0  0  0
  1  2  1  0  0  0  0
  1 22  1  0  0  0  0
  1 23  1  0  0  0  0
  1 24  1  0  0  0  0
  2 21  1  0  0  0  0
  2  3  2  0  0  0  0
  3  4  1  0  0  0  0
  3 25  1  0  0  0  0
  4  5  1  0  0  0  0
  4 20  2  0  0  0  0
  5  6  1  0  0  0  0
  6  7  2  0  0  0  0
  6  8  1  0  0  0  0
  8  9  1  0  0  0  0
  8 26  1  0  0  0  0
  9 10  1  0  0  0  0
  9 27  1  0  0  0  0
  9 28  1  0  0  0  0
 10 11  1  0  0  0  0
 10 29  1  0  0  0  0
 10 30  1  0  0  0  0
 11 12  1  0  0  0  0
 11 31  1  0  0  0  0
 11 32  1  0  0  0  0
 12 18  1  0  0  0  0
 12 13  1  0  0  0  0
 13 14  1  0  0  0  0
 13 33  1  0  0  0  0
 13 34  1  0  0  0  0
 14 15  1  0  0  0  0
 14 35  1  0  0  0  0
 14 36  1  0  0  0  0
 15 16  1  0  0  0  0
 15 37  1  0  0  0  0
 15 38  1  0  0  0  0
 16 17  1  0  0  0  0
 16 39  1  0  0  0  0
 16 40  1  0  0  0  0
 17 18  1  0  0  0  0
 17 41  1  0  0  0  0
 17 42  1  0  0  0  0
 18 19  2  0  0  0  0
 20 21  1  0  0  0  0
M  CHG  1   5  -1
M  END
> <s_m_source_file>
AV-unprocessed.smi

> <i_m_source_file_index>
1659

> <i_lp_mmshare_version>
43012

> <i_f3d_flags>
0

> <s_epik_input>
W0NIM11jMVtjSF1jKG5vMSlbTkhdQyg9TylbTkhdW0NIMl1bQ0gyXVtDSDJdTjJbQ0gyXVtDSDJdW0NIMl1bQ0gyXVtDSDJdQzI9Tw==

> <s_epik_cmdline>
J2VwaWtfcHl0aG9uJywgJy1waCcsICc3LjAnLCAnLXRuJywgJzgnLCAnLW1hJywgJzIwMCcsICctbWV0YWxfYmluZGluZycsICctaW1hZScsICc8aW5maWxlLm1hZT4nLCAnLW9tYWUnLCAnPG91dGZpbGUubWFlPic=

> <r_lp_tautomer_probability>
1

> <r_epik_Ionization_Penalty>
6.59786

> <r_epik_Ionization_Penalty_Charging>
6.59773

> <r_epik_Ionization_Penalty_Neutral>
0.00012688

> <r_epik_State_Penalty>
6.59772

> <r_epik_Charging_Adjusted_Penalty>
13.1954

> <i_epik_Tot_Q>
-1

> <i_epik_Tot_abs_Q>
1

> <r_epik_Metal_State_Penalty>
2.522

> <b_epik_Metal_Only>
1

> <s_lp_Force_Field>
OPLS_2005

> <r_lp_Energy>
19.1909

> <b_lp_Chiralities_Consistent>
1

> <s_lp_Variant>
AV-unprocessed.smi:1659-2

> <Gold.Version>
5.8.1

> <Gold.Id.Protein>
6NUR|6NUR_protein|mol2

> <Gold.PLP.Fitness>
44.7408

> <Gold.PLP.PLP>
-32.4689

> <Gold.PLP.part.hbond>
-4.1410

> <Gold.PLP.part.metal>
0.0000

> <Gold.PLP.part.buried>
-4.0031

> <Gold.PLP.part.nonpolar>
-23.5312

> <Gold.PLP.part.repulsive>
0.1044

> <Gold.PLP.ligand.clash>
0.0000

> <Gold.PLP.ligand.torsion>
0.9176

> <Gold.PLP.Chemscore.Hbond>
4.5920

> <Gold.PLP.Chemscore.CHOScore>
0.0000

> <Gold.PLP.Chemscore.Metal>
0.0000

> <Gold.Chemscore.Hbonds>
donor molecule, donor type, donor heavy atom, donor atom, acceptor molecule, acceptor atom, score
      P1  H  6896  6908       L1     5  2.00
      P1  H  6931  6943       L1    20  0.94
      P1  H  6934  6947       L1    20  0.86
      P1  H  7989  7998       L1    19  0.78

> <Gold.PLP.Chemscore.Internal.Correction>
0.3311

> <Gold.Rescore>
     Score         DG    S(hbond)    S(metal)    S(lipo)     H(rot)  DE(clash)    DE(int)     intcor
     15.36     -18.60       2.68        0.00      75.79       1.84       0.01       3.23       ----

> <Gold.Chemscore.Fitness>
15.3561

> <Gold.Chemscore.DG>
-18.5975

> <Gold.Chemscore.ZeroCoef>
-5.4800

> <Gold.Chemscore.Hbond>
2.6823

> <Gold.Chemscore.Metal>
0.0000

> <Gold.Chemscore.Lipo>
75.7851

> <Gold.Chemscore.Internal_Hbond>
0.0000

> <Gold.Chemscore.DEClash>
0.0144

> <Gold.Chemscore.DEInternal>
3.2270

> <Gold.Chemscore.Rot>
1.8391

> <Gold.Chemscore.Internal.Correction>
   9.000000E+99

> <Gold.Chemscore.Hbonds>
donor molecule, donor type, donor heavy atom, donor atom, acceptor molecule, acceptor atom, score
      P1  H  6896  6908       L1     5  0.79
      P1  H  6931  6943       L1    20  0.59
      P1  H  6934  6947       L1    20  0.32
      P1  H  7989  7998       L1    19  0.76

> <Gold.Chemscore.Hbond.Weighted>
-8.9589

> <Gold.Chemscore.Metal.Weighted>
-0.0000

> <Gold.Chemscore.Lipo.Weighted>
-8.8669

> <Gold.Chemscore.Internal_Hbond.Weighted>
0.0000

> <Gold.Chemscore.DEClash.Weighted>
0.0144

> <Gold.Chemscore.DEInternal.Weighted>
3.2270

> <Gold.Chemscore.Rot.Weighted>
4.7082

> <Gold.Chemscore.Internal.Correction.Weighted>
   9.000000E+99

> <Gold.Protein.RotatedTorsions>
[ 6907 6896 6895 6894 ] final -169.06 input  -60.11 | X-H torsion
[ 7974 7965 7964 7962 ] final   43.13 input  175.53 | X-H torsion
[ 8008 7997 7996 7995 ] final  -54.21 input   59.86 | X-H torsion
[ 10167 10162 10161 10158 ] final -130.72 input  -65.29 | X-H torsion
[ 10718 10713 10712 10709 ] final   99.86 input   66.30 | X-H torsion
[ 10763 10752 10751 10750 ] final  176.29 input  -60.55 | X-H torsion
[ 11005 11000 10999 10996 ] final   50.46 input  -57.11 | X-H torsion

> <Gold.Protein.ActiveResidues>
 VAL166  LYS551  ARG553  GLY616  TRP617  ASP618  TYR619  PRO620  LYS621  CYS622 
 ASP623  PHE694  ASN695  SER759  ASP760  ASP761  ALA762  ILE779  LEU786  VAL792 
 PHE793  MET794  SER795  GLU796  ALA797  LYS798  CYS799  TRP800  GLU811  SER814 

> <Gold.Protein.RotatedAtoms>
  151.4856  133.3536  159.2844 H   0  0  0  0  0  0  0  0  0  0  0  0  # atno 6907 bound_to 6896
  150.8868  134.8269  159.7276 H   0  0  0  0  0  0  0  0  0  0  0  0  # atno 6908 bound_to 6896
  152.4798  134.4761  159.9702 H   0  0  0  0  0  0  0  0  0  0  0  0  # atno 6909 bound_to 6896
  146.0682  139.5222  142.9615 H   0  0  0  0  0  0  0  0  0  0  0  0  # atno 7974 bound_to 7965
  154.4156  140.1181  156.5279 H   0  0  0  0  0  0  0  0  0  0  0  0  # atno 8008 bound_to 7997
  155.6636  140.3496  155.4772 H   0  0  0  0  0  0  0  0  0  0  0  0  # atno 8009 bound_to 7997
  155.9692  140.1138  157.0817 H   0  0  0  0  0  0  0  0  0  0  0  0  # atno 8010 bound_to 7997
  139.9263  143.6323  152.2541 H   0  0  0  0  0  0  0  0  0  0  0  0  # atno 10167 bound_to 10162
  157.6867  131.0682  150.5013 H   0  0  0  0  0  0  0  0  0  0  0  0  # atno 10718 bound_to 10713
  154.4791  135.2774  155.1584 H   0  0  0  0  0  0  0  0  0  0  0  0  # atno 10763 bound_to 10752
  154.3302  135.6191  153.5551 H   0  0  0  0  0  0  0  0  0  0  0  0  # atno 10764 bound_to 10752
  152.9873  135.5763  154.5188 H   0  0  0  0  0  0  0  0  0  0  0  0  # atno 10765 bound_to 10752
  140.1015  134.5075  155.8758 H   0  0  0  0  0  0  0  0  0  0  0  0  # atno 11005 bound_to 11000
  145.6439  141.0278  143.1796 LP  0  0  0  0  0  0  0  0  0  0  0  0  # atno 17320 bound_to 7965
  144.7215  139.8014  143.7380 LP  0  0  0  0  0  0  0  0  0  0  0  0  # atno 17321 bound_to 7965
  139.6819  144.7655  151.1593 LP  0  0  0  0  0  0  0  0  0  0  0  0  # atno 17342 bound_to 10162
  140.7649  143.5713  150.8993 LP  0  0  0  0  0  0  0  0  0  0  0  0  # atno 17343 bound_to 10162
  156.5334  130.4190  149.6190 LP  0  0  0  0  0  0  0  0  0  0  0  0  # atno 17370 bound_to 10713
  156.3049  130.7197  151.2077 LP  0  0  0  0  0  0  0  0  0  0  0  0  # atno 17371 bound_to 10713
  141.2107  133.6698  156.6528 LP  0  0  0  0  0  0  0  0  0  0  0  0  # atno 17394 bound_to 11000
  140.3213  134.8005  157.4255 LP  0  0  0  0  0  0  0  0  0  0  0  0  # atno 17395 bound_to 11000

$$$$
