AV-unprocessed.smi:246|AV-procd|sdf|1880|dock2
  -GOLD-   2262020523D 1   1.00000     0.00000
 Structure written by MMmdl.
 57 60  0  0  0  0  0  0  0  0  1 V2000
  144.4695  132.4537  149.5372 C   0  0  0  0  0  0  0  0  0  0  0  0
  145.9595  132.1691  149.7705 C   0  0  0  0  0  0  0  0  0  0  0  0
  146.2938  132.1966  151.1510 O   0  0  0  0  0  0  0  0  0  0  0  0
  146.5673  133.4930  151.6629 C   0  0  0  0  0  0  0  0  0  0  0  0
  146.7086  133.4007  153.1848 C   0  0  0  0  0  0  0  0  0  0  0  0
  147.0649  134.6764  153.6963 O   0  0  0  0  0  0  0  0  0  0  0  0
  147.9731  134.6203  154.7869 C   0  0  1  0  0  0  0  0  0  0  0  0
  149.3437  134.0727  154.3939 C   0  0  0  0  0  0  0  0  0  0  0  0
  150.2581  134.6786  155.4554 C   0  0  0  0  0  0  0  0  0  0  0  0
  149.6742  135.9708  155.8065 N   0  0  0  0  0  0  0  0  0  0  0  0
  150.4020  137.0729  155.5140 C   0  0  0  0  0  0  0  0  0  0  0  0
  151.3766  137.0203  154.5672 N   0  0  0  0  0  0  0  0  0  0  0  0
  152.0771  138.1186  154.2679 C   0  0  0  0  0  0  0  0  0  0  0  0
  151.9680  139.3450  154.7840 N   0  0  0  0  0  0  0  0  0  0  0  0
  150.9877  139.3989  155.7313 C   0  0  0  0  0  0  0  0  0  0  0  0
  150.1599  138.3195  156.1481 C   0  0  0  0  0  0  0  0  0  0  0  0
  149.2707  138.7490  157.1247 N   0  0  0  0  0  0  0  0  0  0  0  0
  149.5620  140.0116  157.2834 C   0  0  0  0  0  0  0  0  0  0  0  0
  150.5928  140.4804  156.4993 N   0  0  0  0  0  0  0  0  0  0  0  0
  151.1169  141.8348  156.4722 C   0  0  0  0  0  0  0  0  0  0  0  0
  150.6031  142.7278  157.6252 C   0  0  2  0  0  0  0  0  0  0  0  0
  151.0268  144.0379  157.3058 O   0  0  0  0  0  0  0  0  0  0  0  0
  151.1675  142.3951  159.0265 C   0  0  2  0  0  0  0  0  0  0  0  0
  151.1462  143.5353  160.0513 C   0  0  0  0  0  0  0  0  0  0  0  0
  152.3288  143.2503  160.9652 C   0  0  0  0  0  0  0  0  0  0  0  0
  153.0902  142.1392  160.2454 C   0  0  0  0  0  0  0  0  0  0  0  0
  152.5643  142.1535  158.9280 O   0  0  0  0  0  0  0  0  0  0  0  0
  148.3101  136.0283  155.2867 C   0  0  0  0  0  0  0  0  0  0  0  0
  147.5590  134.0391  155.6130 H   0  0  0  0  0  0  0  0  0  0  0  0
  144.2544  132.5235  148.4709 H   0  0  0  0  0  0  0  0  0  0  0  0
  144.1755  133.3971  149.9977 H   0  0  0  0  0  0  0  0  0  0  0  0
  143.8359  131.6672  149.9460 H   0  0  0  0  0  0  0  0  0  0  0  0
  146.2557  131.2230  149.3154 H   0  0  0  0  0  0  0  0  0  0  0  0
  146.5458  132.9451  149.2777 H   0  0  0  0  0  0  0  0  0  0  0  0
  147.4694  133.9202  151.2246 H   0  0  0  0  0  0  0  0  0  0  0  0
  145.7368  134.1566  151.4181 H   0  0  0  0  0  0  0  0  0  0  0  0
  145.7575  133.0951  153.6230 H   0  0  0  0  0  0  0  0  0  0  0  0
  147.4473  132.6418  153.4447 H   0  0  0  0  0  0  0  0  0  0  0  0
  149.3856  132.9836  154.3727 H   0  0  0  0  0  0  0  0  0  0  0  0
  149.6264  134.4450  153.4082 H   0  0  0  0  0  0  0  0  0  0  0  0
  150.2544  134.0563  156.3508 H   0  0  0  0  0  0  0  0  0  0  0  0
  151.2918  134.7412  155.1125 H   0  0  0  0  0  0  0  0  0  0  0  0
  152.8331  137.9970  153.5063 H   0  0  0  0  0  0  0  0  0  0  0  0
  149.0341  140.6384  157.9876 H   0  0  0  0  0  0  0  0  0  0  0  0
  152.2070  141.7986  156.4775 H   0  0  0  0  0  0  0  0  0  0  0  0
  150.8288  142.2660  155.5122 H   0  0  0  0  0  0  0  0  0  0  0  0
  149.5130  142.7193  157.6468 H   0  0  0  0  0  0  0  0  0  0  0  0
  150.3219  144.4812  156.8589 H   0  0  0  0  0  0  0  0  0  0  0  0
  150.6741  141.5154  159.4452 H   0  0  0  0  0  0  0  0  0  0  0  0
  151.3001  144.4951  159.5569 H   0  0  0  0  0  0  0  0  0  0  0  0
  150.2072  143.5838  160.6015 H   0  0  0  0  0  0  0  0  0  0  0  0
  152.9451  144.1426  161.0812 H   0  0  0  0  0  0  0  0  0  0  0  0
  152.0113  142.9290  161.9578 H   0  0  0  0  0  0  0  0  0  0  0  0
  154.1688  142.2975  160.2462 H   0  0  0  0  0  0  0  0  0  0  0  0
  152.8854  141.1712  160.7052 H   0  0  0  0  0  0  0  0  0  0  0  0
  148.2447  136.7416  154.4624 H   0  0  0  0  0  0  0  0  0  0  0  0
  147.6125  136.3542  156.0585 H   0  0  0  0  0  0  0  0  0  0  0  0
  1  2  1  0  0  0  0
  1 30  1  0  0  0  0
  1 31  1  0  0  0  0
  1 32  1  0  0  0  0
  2  3  1  0  0  0  0
  2 33  1  0  0  0  0
  2 34  1  0  0  0  0
  3  4  1  0  0  0  0
  4  5  1  0  0  0  0
  4 35  1  0  0  0  0
  4 36  1  0  0  0  0
  5  6  1  0  0  0  0
  5 37  1  0  0  0  0
  5 38  1  0  0  0  0
  6  7  1  0  0  0  0
  7 29  1  0  0  0  0
  7 28  1  0  0  0  0
  7  8  1  0  0  0  0
  8  9  1  0  0  0  0
  8 39  1  0  0  0  0
  8 40  1  0  0  0  0
  9 10  1  0  0  0  0
  9 41  1  0  0  0  0
  9 42  1  0  0  0  0
 10 11  1  0  0  0  0
 10 28  1  0  0  0  0
 11 16  1  0  0  0  0
 11 12  2  0  0  0  0
 12 13  1  0  0  0  0
 13 14  2  0  0  0  0
 13 43  1  0  0  0  0
 14 15  1  0  0  0  0
 15 19  1  0  0  0  0
 15 16  2  0  0  0  0
 16 17  1  0  0  0  0
 17 18  2  0  0  0  0
 18 19  1  0  0  0  0
 18 44  1  0  0  0  0
 19 20  1  0  0  0  0
 20 21  1  0  0  0  0
 20 45  1  0  0  0  0
 20 46  1  0  0  0  0
 21 22  1  0  0  0  0
 21 23  1  0  0  0  0
 21 47  1  0  0  0  0
 22 48  1  0  0  0  0
 23 27  1  0  0  0  0
 23 24  1  0  0  0  0
 23 49  1  0  0  0  0
 24 25  1  0  0  0  0
 24 50  1  0  0  0  0
 24 51  1  0  0  0  0
 25 26  1  0  0  0  0
 25 52  1  0  0  0  0
 25 53  1  0  0  0  0
 26 27  1  0  0  0  0
 26 54  1  0  0  0  0
 26 55  1  0  0  0  0
 28 56  1  0  0  0  0
 28 57  1  0  0  0  0
M  END
> <s_m_source_file>
AV-unprocessed.smi

> <i_m_source_file_index>
246

> <i_lp_mmshare_version>
43012

> <i_f3d_flags>
0

> <s_epik_input>
W0NIM11bQ0gyXU9bQ0gyXVtDSDJdT1tDQEhdMVtDSDJdW0NIMl1OKFtDSDJdMSljKG5bY0hdbjIpYyhjMjMpbltjSF1uM1tDSDJdW0NASF0oW09IXSlbQ0BASF00W0NIMl1bQ0gyXVtDSDJdTzQ=

> <s_epik_cmdline>
J2VwaWtfcHl0aG9uJywgJy1waCcsICc3LjAnLCAnLXRuJywgJzgnLCAnLW1hJywgJzIwMCcsICctbWV0YWxfYmluZGluZycsICctaW1hZScsICc8aW5maWxlLm1hZT4nLCAnLW9tYWUnLCAnPG91dGZpbGUubWFlPic=

> <r_lp_tautomer_probability>
1

> <r_epik_Ionization_Penalty>
0.0024631

> <r_epik_Ionization_Penalty_Charging>
0

> <r_epik_Ionization_Penalty_Neutral>
0.0024631

> <r_epik_State_Penalty>
0.00162428

> <r_epik_Charging_Adjusted_Penalty>
0.00162428

> <i_epik_Tot_Q>
0

> <i_epik_Tot_abs_Q>
0

> <r_epik_Metal_State_Penalty>
-0

> <b_epik_Metal_Only>
0

> <s_lp_Force_Field>
OPLS_2005

> <r_lp_Energy>
54.9549

> <b_lp_Chiralities_Consistent>
1

> <s_lp_Variant>
AV-unprocessed.smi:246-1

> <Gold.Version>
5.8.1

> <Gold.Id.Protein>
6NUR|6NUR_protein|mol2

> <Gold.PLP.Fitness>
53.0539

> <Gold.PLP.PLP>
-46.1258

> <Gold.PLP.part.hbond>
-3.0000

> <Gold.PLP.part.metal>
0.0000

> <Gold.PLP.part.buried>
-9.7842

> <Gold.PLP.part.nonpolar>
-34.8212

> <Gold.PLP.part.repulsive>
0.7277

> <Gold.PLP.ligand.clash>
0.0000

> <Gold.PLP.ligand.torsion>
1.3501

> <Gold.PLP.Chemscore.Hbond>
2.9120

> <Gold.PLP.Chemscore.CHOScore>
0.0000

> <Gold.PLP.Chemscore.Metal>
0.0000

> <Gold.Chemscore.Hbonds>
donor molecule, donor type, donor heavy atom, donor atom, acceptor molecule, acceptor atom, score
      L1  H    22    48       P1  8028  1.00
      P1  H  7989  7998       L1    14  0.94
      P1  H 10752 10765       L1    12  0.79

> <Gold.PLP.Chemscore.Internal.Correction>
0.8922

> <Gold.Rescore>
     Score         DG    S(hbond)    S(metal)    S(lipo)     H(rot)  DE(clash)    DE(int)     intcor
     14.17     -15.50       1.97        0.00     103.21       3.37       0.38       0.95       ----

> <Gold.Chemscore.Fitness>
14.1675

> <Gold.Chemscore.DG>
-15.4985

> <Gold.Chemscore.ZeroCoef>
-5.4800

> <Gold.Chemscore.Hbond>
1.9701

> <Gold.Chemscore.Metal>
0.0000

> <Gold.Chemscore.Lipo>
103.2077

> <Gold.Chemscore.Internal_Hbond>
0.0000

> <Gold.Chemscore.DEClash>
0.3808

> <Gold.Chemscore.DEInternal>
0.9502

> <Gold.Chemscore.Rot>
3.3739

> <Gold.Chemscore.Internal.Correction>
   9.000000E+99

> <Gold.Chemscore.Hbonds>
donor molecule, donor type, donor heavy atom, donor atom, acceptor molecule, acceptor atom, score
      L1  H    22    48       P1  8028  0.88
      P1  H  7989  7998       L1    14  0.53
      P1  H 10752 10765       L1    12  0.15

> <Gold.Chemscore.Hbond.Weighted>
-6.5803

> <Gold.Chemscore.Metal.Weighted>
-0.0000

> <Gold.Chemscore.Lipo.Weighted>
-12.0753

> <Gold.Chemscore.Internal_Hbond.Weighted>
0.0000

> <Gold.Chemscore.DEClash.Weighted>
0.3808

> <Gold.Chemscore.DEInternal.Weighted>
0.9502

> <Gold.Chemscore.Rot.Weighted>
8.6371

> <Gold.Chemscore.Internal.Correction.Weighted>
   9.000000E+99

> <Gold.Protein.RotatedTorsions>
[ 6907 6896 6895 6894 ] final   13.96 input  -60.11 | X-H torsion
[ 7974 7965 7964 7962 ] final -150.93 input  175.53 | X-H torsion
[ 8008 7997 7996 7995 ] final  -89.92 input   59.86 | X-H torsion
[ 10167 10162 10161 10158 ] final  -23.38 input  -65.29 | X-H torsion
[ 10718 10713 10712 10709 ] final  -93.10 input   66.30 | X-H torsion
[ 10763 10752 10751 10750 ] final  169.00 input  -60.55 | X-H torsion
[ 11005 11000 10999 10996 ] final -105.45 input  -57.11 | X-H torsion

> <Gold.Protein.ActiveResidues>
 VAL166  LYS551  ARG553  GLY616  TRP617  ASP618  TYR619  PRO620  LYS621  CYS622 
 ASP623  PHE694  ASN695  SER759  ASP760  ASP761  ALA762  ILE779  LEU786  VAL792 
 PHE793  MET794  SER795  GLU796  ALA797  LYS798  CYS799  TRP800  GLU811  SER814 

> <Gold.Protein.RotatedAtoms>
  151.7947  135.0726  160.0391 H   0  0  0  0  0  0  0  0  0  0  0  0  # atno 6907 bound_to 6896
  152.3132  133.5770  159.5703 H   0  0  0  0  0  0  0  0  0  0  0  0  # atno 6908 bound_to 6896
  150.7330  134.0038  159.3689 H   0  0  0  0  0  0  0  0  0  0  0  0  # atno 6909 bound_to 6896
  144.7879  140.4866  143.5793 H   0  0  0  0  0  0  0  0  0  0  0  0  # atno 7974 bound_to 7965
  154.6923  140.0536  157.0376 H   0  0  0  0  0  0  0  0  0  0  0  0  # atno 8008 bound_to 7997
  155.0799  140.3208  155.4586 H   0  0  0  0  0  0  0  0  0  0  0  0  # atno 8009 bound_to 7997
  156.2732  140.2066  156.5927 H   0  0  0  0  0  0  0  0  0  0  0  0  # atno 8010 bound_to 7997
  140.7288  143.4448  151.0603 H   0  0  0  0  0  0  0  0  0  0  0  0  # atno 10167 bound_to 10162
  156.0009  130.5013  150.5725 H   0  0  0  0  0  0  0  0  0  0  0  0  # atno 10718 bound_to 10713
  154.3768  135.2753  155.2234 H   0  0  0  0  0  0  0  0  0  0  0  0  # atno 10763 bound_to 10752
  154.4358  135.5966  153.6101 H   0  0  0  0  0  0  0  0  0  0  0  0  # atno 10764 bound_to 10752
  152.9836  135.6006  154.4006 H   0  0  0  0  0  0  0  0  0  0  0  0  # atno 10765 bound_to 10752
  141.1053  133.8809  157.1736 H   0  0  0  0  0  0  0  0  0  0  0  0  # atno 11005 bound_to 11000
  145.5873  139.1493  143.3202 LP  0  0  0  0  0  0  0  0  0  0  0  0  # atno 17320 bound_to 7965
  146.2119  140.6000  142.9056 LP  0  0  0  0  0  0  0  0  0  0  0  0  # atno 17321 bound_to 7965
  139.8118  143.7940  152.3172 LP  0  0  0  0  0  0  0  0  0  0  0  0  # atno 17342 bound_to 10162
  139.7992  144.7380  150.9848 LP  0  0  0  0  0  0  0  0  0  0  0  0  # atno 17343 bound_to 10162
  157.3618  131.0751  151.1630 LP  0  0  0  0  0  0  0  0  0  0  0  0  # atno 17370 bound_to 10713
  157.2412  130.6570  149.5891 LP  0  0  0  0  0  0  0  0  0  0  0  0  # atno 17371 bound_to 10713
  139.9920  135.0061  156.9997 LP  0  0  0  0  0  0  0  0  0  0  0  0  # atno 17394 bound_to 11000
  140.4919  134.1185  155.7234 LP  0  0  0  0  0  0  0  0  0  0  0  0  # atno 17395 bound_to 11000

$$$$
