AV-unprocessed.smi:876|AV-procd|sdf|4019|dock10
  -GOLD-   22720 1503D 1   1.00000     0.00000
 Structure written by MMmdl.
 41 42  0  0  0  0  0  0  0  0  2 V2000
  153.3155  143.1991  162.9634 C   0  0  0  0  0  0  0  0  0  0  0  0
  153.4013  142.2333  161.8759 N   0  0  0  0  0  0  0  0  0  0  0  0
  154.2958  141.0855  161.9791 C   0  0  0  0  0  0  0  0  0  0  0  0
  152.6374  142.4246  160.7042 C   0  0  0  0  0  0  0  0  0  0  0  0
  152.1813  143.6948  160.2742 C   0  0  0  0  0  0  0  0  0  0  0  0
  151.4225  143.8080  159.0909 C   0  0  0  0  0  0  0  0  0  0  0  0
  151.1290  142.6470  158.3345 C   0  0  0  0  0  0  0  0  0  0  0  0
  150.3607  142.6457  157.1389 N   0  0  0  0  0  0  0  0  0  0  0  0
  150.2083  141.6563  156.2415 C   0  0  0  0  0  0  0  0  0  0  0  0
  150.7102  140.5357  156.3258 O   0  0  0  0  0  0  0  0  0  0  0  0
  149.4118  142.0345  155.2320 N   0  0  0  0  0  0  0  0  0  0  0  0
  149.0386  141.1876  154.1044 C   0  0  2  0  0  0  0  0  0  0  0  0
  147.8010  141.7166  153.4330 C   0  0  0  0  0  0  0  0  0  0  0  0
  146.8340  140.8059  153.3471 C   0  0  0  0  0  0  0  0  0  0  0  0
  147.2233  139.4805  153.9508 C   0  0  2  0  0  0  0  0  0  0  0  0
  146.2169  138.9801  155.0014 C   0  0  0  0  0  0  0  0  0  0  0  0
  144.9585  138.7363  154.4084 O   0  0  0  0  0  0  0  0  0  0  0  0
  148.6325  139.7535  154.5360 C   0  0  0  0  0  0  0  0  0  0  0  0
  151.5938  141.4059  158.8138 C   0  0  0  0  0  0  0  0  0  0  0  0
  152.3175  141.3432  159.9520 N   0  3  0  0  0  0  0  0  0  0  0  0
  149.8427  141.1606  153.3670 H   0  0  0  0  0  0  0  0  0  0  0  0
  147.3011  138.7539  153.1408 H   0  0  0  0  0  0  0  0  0  0  0  0
  152.2968  143.2536  163.3486 H   0  0  0  0  0  0  0  0  0  0  0  0
  153.6126  144.1905  162.6204 H   0  0  0  0  0  0  0  0  0  0  0  0
  153.9694  142.9239  163.7907 H   0  0  0  0  0  0  0  0  0  0  0  0
  155.0476  141.1131  161.1893 H   0  0  0  0  0  0  0  0  0  0  0  0
  153.7356  140.1536  161.8936 H   0  0  0  0  0  0  0  0  0  0  0  0
  154.8176  141.0737  162.9362 H   0  0  0  0  0  0  0  0  0  0  0  0
  152.3966  144.5907  160.8368 H   0  0  0  0  0  0  0  0  0  0  0  0
  151.0709  144.7847  158.7971 H   0  0  0  0  0  0  0  0  0  0  0  0
  149.8187  143.4808  156.9713 H   0  0  0  0  0  0  0  0  0  0  0  0
  149.0353  142.9711  155.2415 H   0  0  0  0  0  0  0  0  0  0  0  0
  147.7375  142.7262  153.0543 H   0  0  0  0  0  0  0  0  0  0  0  0
  145.8692  140.9680  152.8893 H   0  0  0  0  0  0  0  0  0  0  0  0
  146.5713  138.0524  155.4518 H   0  0  0  0  0  0  0  0  0  0  0  0
  146.1005  139.7070  155.8064 H   0  0  0  0  0  0  0  0  0  0  0  0
  144.7574  139.4521  153.8248 H   0  0  0  0  0  0  0  0  0  0  0  0
  149.3542  139.0195  154.1761 H   0  0  0  0  0  0  0  0  0  0  0  0
  148.6165  139.6652  155.6237 H   0  0  0  0  0  0  0  0  0  0  0  0
  151.4154  140.4615  158.3203 H   0  0  0  0  0  0  0  0  0  0  0  0
  152.6417  140.4276  160.2636 H   0  0  0  0  0  0  0  0  0  0  0  0
  1  2  1  0  0  0  0
  1 23  1  0  0  0  0
  1 24  1  0  0  0  0
  1 25  1  0  0  0  0
  2  3  1  0  0  0  0
  2  4  1  0  0  0  0
  3 26  1  0  0  0  0
  3 27  1  0  0  0  0
  3 28  1  0  0  0  0
  4 20  1  0  0  0  0
  4  5  2  0  0  0  0
  5  6  1  0  0  0  0
  5 29  1  0  0  0  0
  6  7  2  0  0  0  0
  6 30  1  0  0  0  0
  7  8  1  0  0  0  0
  7 19  1  0  0  0  0
  8  9  1  0  0  0  0
  8 31  1  0  0  0  0
  9 10  2  0  0  0  0
  9 11  1  0  0  0  0
 11 12  1  0  0  0  0
 11 32  1  0  0  0  0
 12 21  1  0  0  0  0
 12 18  1  0  0  0  0
 12 13  1  0  0  0  0
 13 14  2  0  0  0  0
 13 33  1  0  0  0  0
 14 15  1  0  0  0  0
 14 34  1  0  0  0  0
 15 22  1  0  0  0  0
 15 16  1  0  0  0  0
 15 18  1  0  0  0  0
 16 17  1  0  0  0  0
 16 35  1  0  0  0  0
 16 36  1  0  0  0  0
 17 37  1  0  0  0  0
 18 38  1  0  0  0  0
 18 39  1  0  0  0  0
 19 20  2  0  0  0  0
 19 40  1  0  0  0  0
 20 41  1  0  0  0  0
M  CHG  1  20   1
M  END
> <s_m_source_file>
AV-unprocessed.smi

> <i_m_source_file_index>
876

> <i_lp_mmshare_version>
43012

> <i_f3d_flags>
0

> <s_epik_input>
W0NIM11OKFtDSDNdKWMxW2NIXVtjSF1jKFtjSF1uMSlbTkhdQyg9TylbTkhdW0NAQEhdMltDSF09W0NIXVtDQEBIXShbQ0gyXTIpW0NIMl1bT0hd

> <s_epik_cmdline>
J2VwaWtfcHl0aG9uJywgJy1waCcsICc3LjAnLCAnLXRuJywgJzgnLCAnLW1hJywgJzIwMCcsICctbWV0YWxfYmluZGluZycsICctaW1hZScsICc8aW5maWxlLm1hZT4nLCAnLW9tYWUnLCAnPG91dGZpbGUubWFlPic=

> <r_lp_tautomer_probability>
0.999994

> <r_epik_Ionization_Penalty>
0.257994

> <r_epik_Ionization_Penalty_Charging>
0.257974

> <r_epik_Ionization_Penalty_Neutral>
1.95938e-05

> <r_epik_State_Penalty>
0.249586

> <r_epik_Charging_Adjusted_Penalty>
0.50756

> <i_epik_Tot_Q>
1

> <i_epik_Tot_abs_Q>
1

> <r_epik_Metal_State_Penalty>
0.538508

> <b_epik_Metal_Only>
0

> <s_lp_Force_Field>
OPLS_2005

> <r_lp_Energy>
26.1458

> <b_lp_Chiralities_Consistent>
1

> <s_lp_Variant>
AV-unprocessed.smi:876-1

> <Gold.Version>
5.8.1

> <Gold.Id.Protein>
6NUR|6NUR_protein|mol2

> <Gold.PLP.Fitness>
48.5546

> <Gold.PLP.PLP>
-40.6407

> <Gold.PLP.part.hbond>
-3.0000

> <Gold.PLP.part.metal>
0.0000

> <Gold.PLP.part.buried>
-2.6556

> <Gold.PLP.part.nonpolar>
-33.7901

> <Gold.PLP.part.repulsive>
0.3622

> <Gold.PLP.ligand.clash>
0.0000

> <Gold.PLP.ligand.torsion>
0.5523

> <Gold.PLP.Chemscore.Hbond>
3.0000

> <Gold.PLP.Chemscore.CHOScore>
0.0000

> <Gold.PLP.Chemscore.Metal>
0.0000

> <Gold.Chemscore.Hbonds>
donor molecule, donor type, donor heavy atom, donor atom, acceptor molecule, acceptor atom, score
      L1  H     8    31       P1  8028  0.99
      L1  H    11    32       P1  8028  1.00
      L1  H    17    37       P1 10175  1.00

> <Gold.PLP.Chemscore.Internal.Correction>
0.0184

> <Gold.Rescore>
     Score         DG    S(hbond)    S(metal)    S(lipo)     H(rot)  DE(clash)    DE(int)     intcor
     17.22     -21.48       2.85        0.00      95.28       1.82       0.99       3.27       ----

> <Gold.Chemscore.Fitness>
17.2174

> <Gold.Chemscore.DG>
-21.4835

> <Gold.Chemscore.ZeroCoef>
-5.4800

> <Gold.Chemscore.Hbond>
2.8487

> <Gold.Chemscore.Metal>
0.0000

> <Gold.Chemscore.Lipo>
95.2780

> <Gold.Chemscore.Internal_Hbond>
0.0000

> <Gold.Chemscore.DEClash>
0.9921

> <Gold.Chemscore.DEInternal>
3.2740

> <Gold.Chemscore.Rot>
1.8197

> <Gold.Chemscore.Internal.Correction>
   9.000000E+99

> <Gold.Chemscore.Hbonds>
donor molecule, donor type, donor heavy atom, donor atom, acceptor molecule, acceptor atom, score
      L1  H     8    31       P1  8028  0.88
      L1  H    11    32       P1  8028  1.00
      L1  H    17    37       P1 10175  0.95

> <Gold.Chemscore.Hbond.Weighted>
-9.5145

> <Gold.Chemscore.Metal.Weighted>
-0.0000

> <Gold.Chemscore.Lipo.Weighted>
-11.1475

> <Gold.Chemscore.Internal_Hbond.Weighted>
0.0000

> <Gold.Chemscore.DEClash.Weighted>
0.9921

> <Gold.Chemscore.DEInternal.Weighted>
3.2740

> <Gold.Chemscore.Rot.Weighted>
4.6585

> <Gold.Chemscore.Internal.Correction.Weighted>
   9.000000E+99

> <Gold.Protein.RotatedTorsions>
[ 6907 6896 6895 6894 ] final  156.24 input  -60.11 | X-H torsion
[ 7974 7965 7964 7962 ] final   94.91 input  175.53 | X-H torsion
[ 8008 7997 7996 7995 ] final -176.40 input   59.86 | X-H torsion
[ 10167 10162 10161 10158 ] final -163.54 input  -65.29 | X-H torsion
[ 10718 10713 10712 10709 ] final  -16.90 input   66.30 | X-H torsion
[ 10763 10752 10751 10750 ] final  173.16 input  -60.55 | X-H torsion
[ 11005 11000 10999 10996 ] final   -0.84 input  -57.11 | X-H torsion

> <Gold.Protein.ActiveResidues>
 VAL166  LYS551  ARG553  GLY616  TRP617  ASP618  TYR619  PRO620  LYS621  CYS622 
 ASP623  PHE694  ASN695  SER759  ASP760  ASP761  ALA762  ILE779  LEU786  VAL792 
 PHE793  MET794  SER795  GLU796  ALA797  LYS798  CYS799  TRP800  GLU811  SER814 

> <Gold.Protein.RotatedAtoms>
  152.0325  133.3943  159.4302 H   0  0  0  0  0  0  0  0  0  0  0  0  # atno 6907 bound_to 6896
  150.6881  134.3505  159.4916 H   0  0  0  0  0  0  0  0  0  0  0  0  # atno 6908 bound_to 6896
  152.1293  134.9146  160.0610 H   0  0  0  0  0  0  0  0  0  0  0  0  # atno 6909 bound_to 6896
  145.4592  139.2288  143.2997 H   0  0  0  0  0  0  0  0  0  0  0  0  # atno 7974 bound_to 7965
  155.9944  140.1207  157.0608 H   0  0  0  0  0  0  0  0  0  0  0  0  # atno 8008 bound_to 7997
  154.4222  140.1119  156.5678 H   0  0  0  0  0  0  0  0  0  0  0  0  # atno 8009 bound_to 7997
  155.6299  140.3473  155.4681 H   0  0  0  0  0  0  0  0  0  0  0  0  # atno 8010 bound_to 7997
  139.6314  144.0433  152.2018 H   0  0  0  0  0  0  0  0  0  0  0  0  # atno 10167 bound_to 10162
  156.5811  130.4774  149.6320 H   0  0  0  0  0  0  0  0  0  0  0  0  # atno 10718 bound_to 10713
  154.4362  135.2761  155.1879 H   0  0  0  0  0  0  0  0  0  0  0  0  # atno 10763 bound_to 10752
  154.3764  135.6097  153.5771 H   0  0  0  0  0  0  0  0  0  0  0  0  # atno 10764 bound_to 10752
  152.9838  135.5870  154.4681 H   0  0  0  0  0  0  0  0  0  0  0  0  # atno 10765 bound_to 10752
  140.6407  133.9492  155.8325 H   0  0  0  0  0  0  0  0  0  0  0  0  # atno 11005 bound_to 11000
  146.2461  140.5359  142.8913 LP  0  0  0  0  0  0  0  0  0  0  0  0  # atno 17320 bound_to 7965
  144.8013  140.6219  143.6476 LP  0  0  0  0  0  0  0  0  0  0  0  0  # atno 17321 bound_to 7965
  140.0099  144.6231  150.7656 LP  0  0  0  0  0  0  0  0  0  0  0  0  # atno 17342 bound_to 10162
  140.7441  143.2855  151.3475 LP  0  0  0  0  0  0  0  0  0  0  0  0  # atno 17343 bound_to 10162
  156.2630  130.6973  151.1748 LP  0  0  0  0  0  0  0  0  0  0  0  0  # atno 17370 bound_to 10713
  157.7326  131.0598  150.5619 LP  0  0  0  0  0  0  0  0  0  0  0  0  # atno 17371 bound_to 10713
  141.0609  134.0348  157.3660 LP  0  0  0  0  0  0  0  0  0  0  0  0  # atno 17394 bound_to 11000
  139.9081  135.0184  156.7575 LP  0  0  0  0  0  0  0  0  0  0  0  0  # atno 17395 bound_to 11000

$$$$
