AV-unprocessed.smi:1830|AV-procd|sdf|7439|dock8
  -GOLD-   22720 9123D 1   1.00000     0.00000
 Structure written by MMmdl.
 53 56  0  0  0  0  0  0  0  0  2 V2000
  149.8912  134.9059  156.0905 O   0  0  0  0  0  0  0  0  0  0  0  0
  149.4655  135.2537  154.9893 C   0  0  0  0  0  0  0  0  0  0  0  0
  148.5929  134.5334  154.2708 N   0  0  0  0  0  0  0  0  0  0  0  0
  148.0155  133.2581  154.6829 C   0  0  0  0  0  0  0  0  0  0  0  0
  147.9317  132.2611  153.5126 C   0  0  1  0  0  0  0  0  0  0  0  0
  148.4411  130.8576  153.9192 C   0  0  0  0  0  0  0  0  0  0  0  0
  148.2267  129.9390  152.7859 N   0  3  1  0  0  0  0  0  0  0  0  0
  148.6560  128.5372  152.9290 C   0  0  0  0  0  0  0  0  0  0  0  0
  147.7894  127.7554  151.9209 C   0  0  0  0  0  0  0  0  0  0  0  0
  146.7749  128.7716  151.3645 C   0  0  0  0  0  0  0  0  0  0  0  0
  146.8163  129.8954  152.3948 C   0  0  2  0  0  0  0  0  0  0  0  0
  146.3755  131.2981  151.9595 C   0  0  0  0  0  0  0  0  0  0  0  0
  146.5713  132.1705  153.0729 O   0  0  0  0  0  0  0  0  0  0  0  0
  149.7855  136.3964  154.3600 N   0  0  0  0  0  0  0  0  0  0  0  0
  150.5832  137.4690  154.8482 C   0  0  0  0  0  0  0  0  0  0  0  0
  151.7501  137.2334  155.6159 C   0  0  0  0  0  0  0  0  0  0  0  0
  152.5408  138.3224  156.0213 C   0  0  0  0  0  0  0  0  0  0  0  0
  152.1461  139.6123  155.6294 C   0  0  0  0  0  0  0  0  0  0  0  0
  151.0474  139.8519  154.8860 N   0  0  0  0  0  0  0  0  0  0  0  0
  150.2664  138.8133  154.4993 C   0  0  0  0  0  0  0  0  0  0  0  0
  149.1195  139.1277  153.7344 N   0  0  0  0  0  0  0  0  0  0  0  0
  148.9663  140.4509  153.1387 C   0  0  0  0  0  0  0  0  0  0  0  0
  147.4949  140.5379  152.7446 C   0  0  0  0  0  0  0  0  0  0  0  0
  146.8119  139.7630  153.8674 C   0  0  0  0  0  0  0  0  0  0  0  0
  147.8214  138.6639  154.2156 C   0  0  0  0  0  0  0  0  0  0  0  0
  148.3016  134.8974  153.3753 H   0  0  0  0  0  0  0  0  0  0  0  0
  148.6570  132.8509  155.4646 H   0  0  0  0  0  0  0  0  0  0  0  0
  147.0339  133.4049  155.1368 H   0  0  0  0  0  0  0  0  0  0  0  0
  148.5410  132.6338  152.6870 H   0  0  0  0  0  0  0  0  0  0  0  0
  149.5022  130.8905  154.1686 H   0  0  0  0  0  0  0  0  0  0  0  0
  147.9092  130.4931  154.7998 H   0  0  0  0  0  0  0  0  0  0  0  0
  149.7235  128.4332  152.7335 H   0  0  0  0  0  0  0  0  0  0  0  0
  148.4594  128.1876  153.9436 H   0  0  0  0  0  0  0  0  0  0  0  0
  148.3903  127.3255  151.1190 H   0  0  0  0  0  0  0  0  0  0  0  0
  147.2783  126.9339  152.4244 H   0  0  0  0  0  0  0  0  0  0  0  0
  147.1106  129.1379  150.3932 H   0  0  0  0  0  0  0  0  0  0  0  0
  145.7770  128.3503  151.2392 H   0  0  0  0  0  0  0  0  0  0  0  0
  146.2229  129.5892  153.2595 H   0  0  0  0  0  0  0  0  0  0  0  0
  146.9432  131.6489  151.0962 H   0  0  0  0  0  0  0  0  0  0  0  0
  145.3212  131.3008  151.6822 H   0  0  0  0  0  0  0  0  0  0  0  0
  149.2969  136.5814  153.4961 H   0  0  0  0  0  0  0  0  0  0  0  0
  152.0628  136.2353  155.8812 H   0  0  0  0  0  0  0  0  0  0  0  0
  153.4348  138.1704  156.6076 H   0  0  0  0  0  0  0  0  0  0  0  0
  152.7306  140.4743  155.9147 H   0  0  0  0  0  0  0  0  0  0  0  0
  149.1936  141.2320  153.8656 H   0  0  0  0  0  0  0  0  0  0  0  0
  149.6250  140.5793  152.2792 H   0  0  0  0  0  0  0  0  0  0  0  0
  147.1388  141.5644  152.6536 H   0  0  0  0  0  0  0  0  0  0  0  0
  147.3322  140.0343  151.7907 H   0  0  0  0  0  0  0  0  0  0  0  0
  146.6704  140.4173  154.7288 H   0  0  0  0  0  0  0  0  0  0  0  0
  145.8368  139.3680  153.5816 H   0  0  0  0  0  0  0  0  0  0  0  0
  147.5616  137.7439  153.6920 H   0  0  0  0  0  0  0  0  0  0  0  0
  147.8296  138.4548  155.2863 H   0  0  0  0  0  0  0  0  0  0  0  0
  148.7309  130.3134  151.9947 H   0  0  0  0  0  0  0  0  0  0  0  0
  1  2  2  0  0  0  0
  2  3  1  0  0  0  0
  2 14  1  0  0  0  0
  3  4  1  0  0  0  0
  3 26  1  0  0  0  0
  4  5  1  0  0  0  0
  4 27  1  0  0  0  0
  4 28  1  0  0  0  0
  5 13  1  0  0  0  0
  5  6  1  0  0  0  0
  5 29  1  0  0  0  0
  6  7  1  0  0  0  0
  6 30  1  0  0  0  0
  6 31  1  0  0  0  0
  7 11  1  0  0  0  0
  7  8  1  0  0  0  0
  7 53  1  0  0  0  0
  8  9  1  0  0  0  0
  8 32  1  0  0  0  0
  8 33  1  0  0  0  0
  9 10  1  0  0  0  0
  9 34  1  0  0  0  0
  9 35  1  0  0  0  0
 10 11  1  0  0  0  0
 10 36  1  0  0  0  0
 10 37  1  0  0  0  0
 11 12  1  0  0  0  0
 11 38  1  0  0  0  0
 12 13  1  0  0  0  0
 12 39  1  0  0  0  0
 12 40  1  0  0  0  0
 14 15  1  0  0  0  0
 14 41  1  0  0  0  0
 15 20  1  0  0  0  0
 15 16  2  0  0  0  0
 16 17  1  0  0  0  0
 16 42  1  0  0  0  0
 17 18  2  0  0  0  0
 17 43  1  0  0  0  0
 18 19  1  0  0  0  0
 18 44  1  0  0  0  0
 19 20  2  0  0  0  0
 20 21  1  0  0  0  0
 21 25  1  0  0  0  0
 21 22  1  0  0  0  0
 22 23  1  0  0  0  0
 22 45  1  0  0  0  0
 22 46  1  0  0  0  0
 23 24  1  0  0  0  0
 23 47  1  0  0  0  0
 23 48  1  0  0  0  0
 24 25  1  0  0  0  0
 24 49  1  0  0  0  0
 24 50  1  0  0  0  0
 25 51  1  0  0  0  0
 25 52  1  0  0  0  0
M  CHG  1   7   1
M  END
> <s_m_source_file>
AV-unprocessed.smi

> <i_m_source_file_index>
1830

> <i_lp_mmshare_version>
43012

> <i_f3d_flags>
0

> <s_epik_input>
W0NIMl0xW0NIMl1bQ0gyXVtDQEhdKE4xMilbQ0gyXU9bQ0BASF0oW0NIMl0yKVtDSDJdW05IXUMoPU8pW05IXWMzW2NIXVtjSF1bY0hdbmMzTjRbQ0gyXVtDSDJdW0NIMl1bQ0gyXTQ=

> <s_epik_cmdline>
J2VwaWtfcHl0aG9uJywgJy1waCcsICc3LjAnLCAnLXRuJywgJzgnLCAnLW1hJywgJzIwMCcsICctbWV0YWxfYmluZGluZycsICctaW1hZScsICc8aW5maWxlLm1hZT4nLCAnLW9tYWUnLCAnPG91dGZpbGUubWFlPic=

> <r_lp_tautomer_probability>
1

> <r_epik_Ionization_Penalty>
0.193547

> <r_epik_Ionization_Penalty_Charging>
0.10673

> <r_epik_Ionization_Penalty_Neutral>
0.0868166

> <r_epik_State_Penalty>
0.173595

> <r_epik_Charging_Adjusted_Penalty>
0.280326

> <i_epik_Tot_Q>
1

> <i_epik_Tot_abs_Q>
1

> <r_epik_Metal_State_Penalty>
0.164683

> <b_epik_Metal_Only>
0

> <s_lp_Force_Field>
OPLS_2005

> <r_lp_Energy>
64.524

> <b_lp_Chiralities_Consistent>
1

> <s_lp_Variant>
AV-unprocessed.smi:1830-8

> <Gold.Version>
5.8.1

> <Gold.Id.Protein>
6NUR|6NUR_protein|mol2

> <Gold.PLP.Fitness>
45.0888

> <Gold.PLP.PLP>
-38.0726

> <Gold.PLP.part.hbond>
-4.5119

> <Gold.PLP.part.metal>
0.0000

> <Gold.PLP.part.buried>
3.0825

> <Gold.PLP.part.nonpolar>
-37.3144

> <Gold.PLP.part.repulsive>
1.0846

> <Gold.PLP.ligand.clash>
0.0000

> <Gold.PLP.ligand.torsion>
1.2429

> <Gold.PLP.Chemscore.Hbond>
3.0526

> <Gold.PLP.Chemscore.CHOScore>
0.0000

> <Gold.PLP.Chemscore.Metal>
0.0000

> <Gold.Chemscore.Hbonds>
donor molecule, donor type, donor heavy atom, donor atom, acceptor molecule, acceptor atom, score
      L1  H     3    26       P1  7948  0.68
      L1  H     7    53       P1 10747  1.00
      L1  H    14    41       P1  7948  1.00
      P1  H  7989  7998       L1    19  1.00

> <Gold.PLP.Chemscore.Internal.Correction>
0.3441

> <Gold.Rescore>
     Score         DG    S(hbond)    S(metal)    S(lipo)     H(rot)  DE(clash)    DE(int)     intcor
     18.10     -22.51       2.50        0.00     105.08       1.41       2.13       2.27       ----

> <Gold.Chemscore.Fitness>
18.1003

> <Gold.Chemscore.DG>
-22.5068

> <Gold.Chemscore.ZeroCoef>
-5.4800

> <Gold.Chemscore.Hbond>
2.4952

> <Gold.Chemscore.Metal>
0.0000

> <Gold.Chemscore.Lipo>
105.0774

> <Gold.Chemscore.Internal_Hbond>
0.0000

> <Gold.Chemscore.DEClash>
2.1327

> <Gold.Chemscore.DEInternal>
2.2737

> <Gold.Chemscore.Rot>
1.4067

> <Gold.Chemscore.Internal.Correction>
   9.000000E+99

> <Gold.Chemscore.Hbonds>
donor molecule, donor type, donor heavy atom, donor atom, acceptor molecule, acceptor atom, score
      L1  H     3    26       P1  7948  0.58
      L1  H     7    53       P1 10747  0.44
      L1  H    14    41       P1  7948  0.87
      P1  H  7989  7998       L1    19  0.43

> <Gold.Chemscore.Hbond.Weighted>
-8.3338

> <Gold.Chemscore.Metal.Weighted>
-0.0000

> <Gold.Chemscore.Lipo.Weighted>
-12.2941

> <Gold.Chemscore.Internal_Hbond.Weighted>
0.0000

> <Gold.Chemscore.DEClash.Weighted>
2.1327

> <Gold.Chemscore.DEInternal.Weighted>
2.2737

> <Gold.Chemscore.Rot.Weighted>
3.6011

> <Gold.Chemscore.Internal.Correction.Weighted>
   9.000000E+99

> <Gold.Protein.RotatedTorsions>
[ 6907 6896 6895 6894 ] final   29.77 input  -60.11 | X-H torsion
[ 7974 7965 7964 7962 ] final  -40.62 input  175.53 | X-H torsion
[ 8008 7997 7996 7995 ] final  169.24 input   59.86 | X-H torsion
[ 10167 10162 10161 10158 ] final   76.60 input  -65.29 | X-H torsion
[ 10718 10713 10712 10709 ] final  -75.81 input   66.30 | X-H torsion
[ 10763 10752 10751 10750 ] final  -90.78 input  -60.55 | X-H torsion
[ 11005 11000 10999 10996 ] final  153.97 input  -57.11 | X-H torsion

> <Gold.Protein.ActiveResidues>
 VAL166  LYS551  ARG553  GLY616  TRP617  ASP618  TYR619  PRO620  LYS621  CYS622 
 ASP623  PHE694  ASN695  SER759  ASP760  ASP761  ALA762  ILE779  LEU786  VAL792 
 PHE793  MET794  SER795  GLU796  ALA797  LYS798  CYS799  TRP800  GLU811  SER814 

> <Gold.Protein.RotatedAtoms>
  152.0363  134.9738  160.0573 H   0  0  0  0  0  0  0  0  0  0  0  0  # atno 6907 bound_to 6896
  152.1195  133.4340  159.4677 H   0  0  0  0  0  0  0  0  0  0  0  0  # atno 6908 bound_to 6896
  150.6848  134.2471  159.4539 H   0  0  0  0  0  0  0  0  0  0  0  0  # atno 6909 bound_to 6896
  146.0288  140.6758  142.9143 H   0  0  0  0  0  0  0  0  0  0  0  0  # atno 7974 bound_to 7965
  156.1475  140.1569  156.8822 H   0  0  0  0  0  0  0  0  0  0  0  0  # atno 8008 bound_to 7997
  154.5042  140.0817  156.7897 H   0  0  0  0  0  0  0  0  0  0  0  0  # atno 8009 bound_to 7997
  155.3960  140.3412  155.4256 H   0  0  0  0  0  0  0  0  0  0  0  0  # atno 8010 bound_to 7997
  139.9905  144.5760  150.7822 H   0  0  0  0  0  0  0  0  0  0  0  0  # atno 10167 bound_to 10162
  156.0195  130.4450  150.3098 H   0  0  0  0  0  0  0  0  0  0  0  0  # atno 10718 bound_to 10713
  154.6693  135.5292  153.8117 H   0  0  0  0  0  0  0  0  0  0  0  0  # atno 10763 bound_to 10752
  153.0491  135.6525  154.0750 H   0  0  0  0  0  0  0  0  0  0  0  0  # atno 10764 bound_to 10752
  154.0651  135.2958  155.3298 H   0  0  0  0  0  0  0  0  0  0  0  0  # atno 10765 bound_to 10752
  140.1446  134.8716  157.2376 H   0  0  0  0  0  0  0  0  0  0  0  0  # atno 11005 bound_to 11000
  144.7021  140.3698  143.7147 LP  0  0  0  0  0  0  0  0  0  0  0  0  # atno 17320 bound_to 7965
  145.7075  139.1676  143.2558 LP  0  0  0  0  0  0  0  0  0  0  0  0  # atno 17321 bound_to 7965
  140.7456  143.2879  151.3413 LP  0  0  0  0  0  0  0  0  0  0  0  0  # atno 17342 bound_to 10162
  139.6344  144.0659  152.2503 LP  0  0  0  0  0  0  0  0  0  0  0  0  # atno 17343 bound_to 10162
  157.1200  131.0244  151.3013 LP  0  0  0  0  0  0  0  0  0  0  0  0  # atno 17370 bound_to 10713
  157.4636  130.7667  149.7258 LP  0  0  0  0  0  0  0  0  0  0  0  0  # atno 17371 bound_to 10713
  140.2679  134.3494  155.7383 LP  0  0  0  0  0  0  0  0  0  0  0  0  # atno 17394 bound_to 11000
  141.2191  133.7406  156.9178 LP  0  0  0  0  0  0  0  0  0  0  0  0  # atno 17395 bound_to 11000

$$$$
