AV-unprocessed.smi:1261|AV-procd|sdf|5308|dock2
  -GOLD-   22720 4433D 1   1.00000     0.00000
 Structure written by MMmdl.
 50 51  0  0  0  0  0  0  0  0  2 V2000
  145.6417  131.9866  150.4033 C   0  0  0  0  0  0  0  0  0  0  0  0
  145.8932  133.3935  150.9641 C   0  0  1  0  0  0  0  0  0  0  0  0
  144.6153  134.2505  150.9189 C   0  0  0  0  0  0  0  0  0  0  0  0
  144.8403  135.6416  151.5399 C   0  0  2  0  0  0  0  0  0  0  0  0
  145.6693  136.5735  150.6379 C   0  0  0  0  0  0  0  0  0  0  0  0
  145.4430  135.5101  152.9527 C   0  0  0  0  0  0  0  0  0  0  0  0
  146.6880  134.6985  152.9451 N   0  3  1  0  0  0  0  0  0  0  0  0
  147.3625  134.6901  154.2681 C   0  0  0  0  0  0  0  0  0  0  0  0
  148.4989  133.6567  154.3373 C   0  0  0  0  0  0  0  0  0  0  0  0
  149.8303  134.2796  154.7874 C   0  0  0  0  0  0  0  0  0  0  0  0
  149.9339  135.6695  154.3623 N   0  0  0  0  0  0  0  0  0  0  0  0
  150.2191  136.7076  155.1672 C   0  0  0  0  0  0  0  0  0  0  0  0
  150.4030  136.5785  156.3771 O   0  0  0  0  0  0  0  0  0  0  0  0
  150.3317  138.1081  154.5394 C   0  0  0  0  0  0  0  0  0  0  0  0
  150.4660  139.2141  155.5019 N   0  0  0  0  0  0  0  0  0  0  0  0
  149.3473  139.4119  156.2971 N   0  0  0  0  0  0  0  0  0  0  0  0
  149.3432  140.3497  157.1833 C   0  0  0  0  0  0  0  0  0  0  0  0
  148.2134  140.5130  157.9469 O   0  0  0  0  0  0  0  0  0  0  0  0
  150.4930  141.2076  157.3703 C   0  0  0  0  0  0  0  0  0  0  0  0
  151.5772  141.0091  156.5891 C   0  0  0  0  0  0  0  0  0  0  0  0
  151.6125  139.9587  155.5698 C   0  0  0  0  0  0  0  0  0  0  0  0
  152.5790  139.7673  154.8323 O   0  0  0  0  0  0  0  0  0  0  0  0
  146.4477  133.3355  152.4008 C   0  0  0  0  0  0  0  0  0  0  0  0
  148.0788  141.4465  158.0020 H   0  0  0  0  0  0  0  0  0  0  0  0
  144.8948  131.4519  150.9909 H   0  0  0  0  0  0  0  0  0  0  0  0
  146.5560  131.3925  150.4078 H   0  0  0  0  0  0  0  0  0  0  0  0
  145.2848  132.0321  149.3738 H   0  0  0  0  0  0  0  0  0  0  0  0
  146.6460  133.8630  150.3297 H   0  0  0  0  0  0  0  0  0  0  0  0
  144.2588  134.3486  149.8927 H   0  0  0  0  0  0  0  0  0  0  0  0
  143.8220  133.7413  151.4683 H   0  0  0  0  0  0  0  0  0  0  0  0
  143.8611  136.1105  151.6449 H   0  0  0  0  0  0  0  0  0  0  0  0
  146.6880  136.2111  150.5014 H   0  0  0  0  0  0  0  0  0  0  0  0
  145.7323  137.5746  151.0651 H   0  0  0  0  0  0  0  0  0  0  0  0
  145.2164  136.6689  149.6506 H   0  0  0  0  0  0  0  0  0  0  0  0
  145.6455  136.5043  153.3537 H   0  0  0  0  0  0  0  0  0  0  0  0
  144.7195  135.0446  153.6244 H   0  0  0  0  0  0  0  0  0  0  0  0
  147.7949  135.6736  154.4579 H   0  0  0  0  0  0  0  0  0  0  0  0
  146.6307  134.5186  155.0591 H   0  0  0  0  0  0  0  0  0  0  0  0
  148.2340  132.8523  155.0229 H   0  0  0  0  0  0  0  0  0  0  0  0
  148.6299  133.1956  153.3573 H   0  0  0  0  0  0  0  0  0  0  0  0
  149.9065  134.2529  155.8747 H   0  0  0  0  0  0  0  0  0  0  0  0
  150.6739  133.7047  154.4019 H   0  0  0  0  0  0  0  0  0  0  0  0
  149.7918  135.8600  153.3806 H   0  0  0  0  0  0  0  0  0  0  0  0
  151.1879  138.1011  153.8624 H   0  0  0  0  0  0  0  0  0  0  0  0
  149.4634  138.2740  153.8993 H   0  0  0  0  0  0  0  0  0  0  0  0
  150.4770  141.9856  158.1194 H   0  0  0  0  0  0  0  0  0  0  0  0
  152.4429  141.6419  156.7189 H   0  0  0  0  0  0  0  0  0  0  0  0
  145.7546  132.8013  153.0530 H   0  0  0  0  0  0  0  0  0  0  0  0
  147.3756  132.7646  152.3961 H   0  0  0  0  0  0  0  0  0  0  0  0
  147.3187  135.1635  152.3076 H   0  0  0  0  0  0  0  0  0  0  0  0
  1  2  1  0  0  0  0
  1 25  1  0  0  0  0
  1 26  1  0  0  0  0
  1 27  1  0  0  0  0
  2 23  1  0  0  0  0
  2  3  1  0  0  0  0
  2 28  1  0  0  0  0
  3  4  1  0  0  0  0
  3 29  1  0  0  0  0
  3 30  1  0  0  0  0
  4  5  1  0  0  0  0
  4  6  1  0  0  0  0
  4 31  1  0  0  0  0
  5 32  1  0  0  0  0
  5 33  1  0  0  0  0
  5 34  1  0  0  0  0
  6  7  1  0  0  0  0
  6 35  1  0  0  0  0
  6 36  1  0  0  0  0
  7  8  1  0  0  0  0
  7 23  1  0  0  0  0
  7 50  1  0  0  0  0
  8  9  1  0  0  0  0
  8 37  1  0  0  0  0
  8 38  1  0  0  0  0
  9 10  1  0  0  0  0
  9 39  1  0  0  0  0
  9 40  1  0  0  0  0
 10 11  1  0  0  0  0
 10 41  1  0  0  0  0
 10 42  1  0  0  0  0
 11 12  1  0  0  0  0
 11 43  1  0  0  0  0
 12 13  2  0  0  0  0
 12 14  1  0  0  0  0
 14 44  1  0  0  0  0
 14 45  1  0  0  0  0
 14 15  1  0  0  0  0
 15 16  1  0  0  0  0
 15 21  1  0  0  0  0
 16 17  2  0  0  0  0
 17 18  1  0  0  0  0
 17 19  1  0  0  0  0
 18 24  1  0  0  0  0
 19 46  1  0  0  0  0
 19 20  2  0  0  0  0
 20 47  1  0  0  0  0
 20 21  1  0  0  0  0
 21 22  2  0  0  0  0
 23 48  1  0  0  0  0
 23 49  1  0  0  0  0
M  CHG  1   7   1
M  END
> <s_m_source_file>
AV-unprocessed.smi

> <i_m_source_file_index>
1261

> <i_lp_mmshare_version>
43012

> <i_f3d_flags>
0

> <s_epik_input>
W0NIM11bQ0BASF0xW0NIMl1bQ0BASF0oW0NIM10pW0NIMl1OKFtDSDJdMSlbQ0gyXVtDSDJdW0NIMl1bTkhdQyg9TylbQ0gyXW4yW25IXWMoPU8pW2NIXVtjSF1jMj1P

> <s_epik_cmdline>
J2VwaWtfcHl0aG9uJywgJy1waCcsICc3LjAnLCAnLXRuJywgJzgnLCAnLW1hJywgJzIwMCcsICctbWV0YWxfYmluZGluZycsICctaW1hZScsICc8aW5maWxlLm1hZT4nLCAnLW9tYWUnLCAnPG91dGZpbGUubWFlPic=

> <r_lp_tautomer_probability>
0.9996

> <r_epik_Ionization_Penalty>
2.1425

> <r_epik_Ionization_Penalty_Charging>
0.000312112

> <r_epik_Ionization_Penalty_Neutral>
2.14218

> <r_epik_State_Penalty>
1.71978

> <r_epik_Charging_Adjusted_Penalty>
1.72009

> <i_epik_Tot_Q>
1

> <i_epik_Tot_abs_Q>
1

> <r_epik_Metal_State_Penalty>
1.71978

> <b_epik_Metal_Only>
0

> <s_lp_Force_Field>
OPLS_2005

> <r_lp_Energy>
29.1446

> <b_lp_Chiralities_Consistent>
1

> <s_lp_Variant>
AV-unprocessed.smi:1261-8

> <Gold.Version>
5.8.1

> <Gold.Id.Protein>
6NUR|6NUR_protein|mol2

> <Gold.PLP.Fitness>
47.2864

> <Gold.PLP.PLP>
-36.9847

> <Gold.PLP.part.hbond>
-5.4530

> <Gold.PLP.part.metal>
0.0000

> <Gold.PLP.part.buried>
-0.5399

> <Gold.PLP.part.nonpolar>
-31.0764

> <Gold.PLP.part.repulsive>
0.0816

> <Gold.PLP.ligand.clash>
0.0000

> <Gold.PLP.ligand.torsion>
0.7720

> <Gold.PLP.Chemscore.Hbond>
3.8765

> <Gold.PLP.Chemscore.CHOScore>
0.0000

> <Gold.PLP.Chemscore.Metal>
0.0000

> <Gold.Chemscore.Hbonds>
donor molecule, donor type, donor heavy atom, donor atom, acceptor molecule, acceptor atom, score
      L1  H     7    50       P1  7948  2.00
      L1  H    11    43       P1  7948  0.60
      P1  H  7989  7998       L1    22  0.23
      P1  H  7997  8009       L1    22  0.60

> <Gold.PLP.Chemscore.Internal.Correction>
0.2161

> <Gold.Rescore>
     Score         DG    S(hbond)    S(metal)    S(lipo)     H(rot)  DE(clash)    DE(int)     intcor
     12.04     -13.03       2.06        0.00      74.23       3.14       0.15       0.84       ----

> <Gold.Chemscore.Fitness>
12.0402

> <Gold.Chemscore.DG>
-13.0301

> <Gold.Chemscore.ZeroCoef>
-5.4800

> <Gold.Chemscore.Hbond>
2.0633

> <Gold.Chemscore.Metal>
0.0000

> <Gold.Chemscore.Lipo>
74.2279

> <Gold.Chemscore.Internal_Hbond>
0.0000

> <Gold.Chemscore.DEClash>
0.1477

> <Gold.Chemscore.DEInternal>
0.8422

> <Gold.Chemscore.Rot>
3.1352

> <Gold.Chemscore.Internal.Correction>
   9.000000E+99

> <Gold.Chemscore.Hbonds>
donor molecule, donor type, donor heavy atom, donor atom, acceptor molecule, acceptor atom, score
      L1  H     7    50       P1  7948  0.96
      L1  H    11    43       P1  7948  0.04
      P1  H  7989  7998       L1    22  0.01
      P1  H  7997  8009       L1    22  0.47

> <Gold.Chemscore.Hbond.Weighted>
-6.8915

> <Gold.Chemscore.Metal.Weighted>
-0.0000

> <Gold.Chemscore.Lipo.Weighted>
-8.6847

> <Gold.Chemscore.Internal_Hbond.Weighted>
0.0000

> <Gold.Chemscore.DEClash.Weighted>
0.1477

> <Gold.Chemscore.DEInternal.Weighted>
0.8422

> <Gold.Chemscore.Rot.Weighted>
8.0260

> <Gold.Chemscore.Internal.Correction.Weighted>
   9.000000E+99

> <Gold.Protein.RotatedTorsions>
[ 6907 6896 6895 6894 ] final   62.86 input  -60.11 | X-H torsion
[ 7974 7965 7964 7962 ] final   98.24 input  175.53 | X-H torsion
[ 8008 7997 7996 7995 ] final -135.53 input   59.86 | X-H torsion
[ 10167 10162 10161 10158 ] final  -50.50 input  -65.29 | X-H torsion
[ 10718 10713 10712 10709 ] final   38.56 input   66.30 | X-H torsion
[ 10763 10752 10751 10750 ] final   91.82 input  -60.55 | X-H torsion
[ 11005 11000 10999 10996 ] final  103.38 input  -57.11 | X-H torsion

> <Gold.Protein.ActiveResidues>
 VAL166  LYS551  ARG553  GLY616  TRP617  ASP618  TYR619  PRO620  LYS621  CYS622 
 ASP623  PHE694  ASN695  SER759  ASP760  ASP761  ALA762  ILE779  LEU786  VAL792 
 PHE793  MET794  SER795  GLU796  ALA797  LYS798  CYS799  TRP800  GLU811  SER814 

> <Gold.Protein.RotatedAtoms>
  152.4207  134.5961  159.9987 H   0  0  0  0  0  0  0  0  0  0  0  0  # atno 6907 bound_to 6896
  151.6112  133.3341  159.3076 H   0  0  0  0  0  0  0  0  0  0  0  0  # atno 6908 bound_to 6896
  150.8095  134.7279  159.6740 H   0  0  0  0  0  0  0  0  0  0  0  0  # atno 6909 bound_to 6896
  145.4148  139.2329  143.3228 H   0  0  0  0  0  0  0  0  0  0  0  0  # atno 7974 bound_to 7965
  155.3802  140.0493  157.3044 H   0  0  0  0  0  0  0  0  0  0  0  0  # atno 8008 bound_to 7997
  154.5086  140.2183  155.9162 H   0  0  0  0  0  0  0  0  0  0  0  0  # atno 8009 bound_to 7997
  156.1556  140.3127  155.8726 H   0  0  0  0  0  0  0  0  0  0  0  0  # atno 8010 bound_to 7997
  140.6635  143.2655  151.4368 H   0  0  0  0  0  0  0  0  0  0  0  0  # atno 10167 bound_to 10162
  157.3603  130.7646  149.7043 H   0  0  0  0  0  0  0  0  0  0  0  0  # atno 10718 bound_to 10713
  153.2124  135.4383  155.0395 H   0  0  0  0  0  0  0  0  0  0  0  0  # atno 10763 bound_to 10752
  154.8207  135.3336  154.7048 H   0  0  0  0  0  0  0  0  0  0  0  0  # atno 10764 bound_to 10752
  153.7485  135.7000  153.5006 H   0  0  0  0  0  0  0  0  0  0  0  0  # atno 10765 bound_to 10752
  139.8783  134.9261  156.5200 H   0  0  0  0  0  0  0  0  0  0  0  0  # atno 11005 bound_to 11000
  146.2686  140.4865  142.8823 LP  0  0  0  0  0  0  0  0  0  0  0  0  # atno 17320 bound_to 7965
  144.8284  140.6667  143.6307 LP  0  0  0  0  0  0  0  0  0  0  0  0  # atno 17321 bound_to 7965
  139.5875  144.1571  152.2048 LP  0  0  0  0  0  0  0  0  0  0  0  0  # atno 17342 bound_to 10162
  140.0915  144.5616  150.7051 LP  0  0  0  0  0  0  0  0  0  0  0  0  # atno 17343 bound_to 10162
  155.9736  130.4115  150.3987 LP  0  0  0  0  0  0  0  0  0  0  0  0  # atno 17370 bound_to 10713
  157.2063  131.0450  151.2623 LP  0  0  0  0  0  0  0  0  0  0  0  0  # atno 17371 bound_to 10713
  140.8457  133.8170  155.9119 LP  0  0  0  0  0  0  0  0  0  0  0  0  # atno 17394 bound_to 11000
  140.9194  134.2161  157.4936 LP  0  0  0  0  0  0  0  0  0  0  0  0  # atno 17395 bound_to 11000

$$$$
