AV-unprocessed.smi:1202|AV-procd|sdf|5028|dock7
  -GOLD-   22720 4 53D 1   1.00000     0.00000
 Structure written by MMmdl.
 44 45  0  0  0  0  0  0  0  0  1 V2000
  143.8480  137.3631  154.3014 C   0  0  0  0  0  0  0  0  0  0  0  0
  144.7321  138.1647  153.4697 N   0  0  0  0  0  0  0  0  0  0  0  0
  146.0690  138.0601  153.4717 C   0  0  0  0  0  0  0  0  0  0  0  0
  146.6840  137.2678  154.1857 O   0  0  0  0  0  0  0  0  0  0  0  0
  146.8329  138.9854  152.5164 C   0  0  0  0  0  0  0  0  0  0  0  0
  147.6867  139.9926  153.1873 N   0  0  0  0  0  0  0  0  0  0  0  0
  148.6601  139.3053  154.0440 C   0  0  0  0  0  0  0  0  0  0  0  0
  149.6552  140.3093  154.6517 C   0  0  0  0  0  0  0  0  0  0  0  0
  148.9100  141.3829  155.4627 C   0  0  0  0  0  0  0  0  0  0  0  0
  149.8068  142.3571  156.0885 N   0  0  0  0  0  0  0  0  0  0  0  0
  150.7793  142.1230  156.9860 C   0  0  0  0  0  0  0  0  0  0  0  0
  151.0447  141.0056  157.4303 O   0  0  0  0  0  0  0  0  0  0  0  0
  151.5547  143.3589  157.4645 C   0  0  0  0  0  0  0  0  0  0  0  0
  152.0214  143.2513  158.8570 N   0  0  0  0  0  0  0  0  0  0  0  0
  152.8386  142.1486  159.1767 C   0  0  0  0  0  0  0  0  0  0  0  0
  153.3199  141.9571  160.4153 C   0  0  0  0  0  0  0  0  0  0  0  0
  152.9788  142.9191  161.4363 C   0  0  0  0  0  0  0  0  0  0  0  0
  152.2011  143.9795  161.1404 C   0  0  0  0  0  0  0  0  0  0  0  0
  151.6755  144.1944  159.7872 C   0  0  0  0  0  0  0  0  0  0  0  0
  150.9669  145.1619  159.5075 O   0  0  0  0  0  0  0  0  0  0  0  0
  147.8305  142.0344  154.5812 C   0  0  0  0  0  0  0  0  0  0  0  0
  146.9073  140.9652  153.9695 C   0  0  0  0  0  0  0  0  0  0  0  0
  142.8086  137.6141  154.0894 H   0  0  0  0  0  0  0  0  0  0  0  0
  144.0358  137.5504  155.3594 H   0  0  0  0  0  0  0  0  0  0  0  0
  143.9885  136.2995  154.1056 H   0  0  0  0  0  0  0  0  0  0  0  0
  144.3026  138.8392  152.8530 H   0  0  0  0  0  0  0  0  0  0  0  0
  147.4384  138.3897  151.8302 H   0  0  0  0  0  0  0  0  0  0  0  0
  146.0859  139.4945  151.9055 H   0  0  0  0  0  0  0  0  0  0  0  0
  148.1476  138.7546  154.8350 H   0  0  0  0  0  0  0  0  0  0  0  0
  149.2166  138.5727  153.4578 H   0  0  0  0  0  0  0  0  0  0  0  0
  150.3661  139.7840  155.2903 H   0  0  0  0  0  0  0  0  0  0  0  0
  150.2364  140.7630  153.8483 H   0  0  0  0  0  0  0  0  0  0  0  0
  148.4040  140.8817  156.2889 H   0  0  0  0  0  0  0  0  0  0  0  0
  149.6760  143.3166  155.8021 H   0  0  0  0  0  0  0  0  0  0  0  0
  152.4017  143.5370  156.7992 H   0  0  0  0  0  0  0  0  0  0  0  0
  150.9095  144.2302  157.3440 H   0  0  0  0  0  0  0  0  0  0  0  0
  153.0526  141.4801  158.3554 H   0  0  0  0  0  0  0  0  0  0  0  0
  153.9486  141.1084  160.6407 H   0  0  0  0  0  0  0  0  0  0  0  0
  153.3499  142.7886  162.4421 H   0  0  0  0  0  0  0  0  0  0  0  0
  151.9571  144.6892  161.9174 H   0  0  0  0  0  0  0  0  0  0  0  0
  147.2404  142.7369  155.1709 H   0  0  0  0  0  0  0  0  0  0  0  0
  148.2838  142.6121  153.7750 H   0  0  0  0  0  0  0  0  0  0  0  0
  146.1754  141.4741  153.3425 H   0  0  0  0  0  0  0  0  0  0  0  0
  146.3479  140.4530  154.7544 H   0  0  0  0  0  0  0  0  0  0  0  0
  1  2  1  0  0  0  0
  1 23  1  0  0  0  0
  1 24  1  0  0  0  0
  1 25  1  0  0  0  0
  2  3  1  0  0  0  0
  2 26  1  0  0  0  0
  3  4  2  0  0  0  0
  3  5  1  0  0  0  0
  5  6  1  0  0  0  0
  5 27  1  0  0  0  0
  5 28  1  0  0  0  0
  6 22  1  0  0  0  0
  6  7  1  0  0  0  0
  7  8  1  0  0  0  0
  7 29  1  0  0  0  0
  7 30  1  0  0  0  0
  8  9  1  0  0  0  0
  8 31  1  0  0  0  0
  8 32  1  0  0  0  0
  9 10  1  0  0  0  0
  9 21  1  0  0  0  0
  9 33  1  0  0  0  0
 10 11  1  0  0  0  0
 10 34  1  0  0  0  0
 11 12  2  0  0  0  0
 11 13  1  0  0  0  0
 13 14  1  0  0  0  0
 13 35  1  0  0  0  0
 13 36  1  0  0  0  0
 14 19  1  0  0  0  0
 14 15  1  0  0  0  0
 15 16  2  0  0  0  0
 15 37  1  0  0  0  0
 16 17  1  0  0  0  0
 16 38  1  0  0  0  0
 17 18  2  0  0  0  0
 17 39  1  0  0  0  0
 18 19  1  0  0  0  0
 18 40  1  0  0  0  0
 19 20  2  0  0  0  0
 21 22  1  0  0  0  0
 21 41  1  0  0  0  0
 21 42  1  0  0  0  0
 22 43  1  0  0  0  0
 22 44  1  0  0  0  0
M  END
> <s_m_source_file>
AV-unprocessed.smi

> <i_m_source_file_index>
1202

> <i_lp_mmshare_version>
43012

> <i_f3d_flags>
0

> <s_epik_input>
W0NIM11bTkhdQyg9TylbQ0gyXU4xW0NIMl1bQ0gyXVtDSF0oW0NIMl1bQ0gyXTEpW05IXUMoPU8pW0NIMl1uMltjSF1bY0hdW2NIXVtjSF1jMj1P

> <s_epik_cmdline>
J2VwaWtfcHl0aG9uJywgJy1waCcsICc3LjAnLCAnLXRuJywgJzgnLCAnLW1hJywgJzIwMCcsICctbWV0YWxfYmluZGluZycsICctaW1hZScsICc8aW5maWxlLm1hZT4nLCAnLW9tYWUnLCAnPG91dGZpbGUubWFlPic=

> <r_lp_tautomer_probability>
1

> <r_epik_Ionization_Penalty>
0.12485

> <r_epik_Ionization_Penalty_Charging>
3.59605e-07

> <r_epik_Ionization_Penalty_Neutral>
0.12485

> <r_epik_State_Penalty>
0.114323

> <r_epik_Charging_Adjusted_Penalty>
0.114323

> <i_epik_Tot_Q>
0

> <i_epik_Tot_abs_Q>
0

> <r_epik_Metal_State_Penalty>
0.117995

> <b_epik_Metal_Only>
0

> <s_lp_Force_Field>
OPLS_2005

> <r_lp_Energy>
24.2751

> <b_lp_Chiralities_Consistent>
1

> <s_lp_Variant>
AV-unprocessed.smi:1202-1

> <Gold.Version>
5.8.1

> <Gold.Id.Protein>
6NUR|6NUR_protein|mol2

> <Gold.PLP.Fitness>
50.2690

> <Gold.PLP.PLP>
-45.1112

> <Gold.PLP.part.hbond>
-2.0000

> <Gold.PLP.part.metal>
0.0000

> <Gold.PLP.part.buried>
-6.1712

> <Gold.PLP.part.nonpolar>
-40.0166

> <Gold.PLP.part.repulsive>
2.6329

> <Gold.PLP.ligand.clash>
0.0000

> <Gold.PLP.ligand.torsion>
0.4392

> <Gold.PLP.Chemscore.Hbond>
2.0000

> <Gold.PLP.Chemscore.CHOScore>
0.0000

> <Gold.PLP.Chemscore.Metal>
0.0000

> <Gold.Chemscore.Hbonds>
donor molecule, donor type, donor heavy atom, donor atom, acceptor molecule, acceptor atom, score
      L1  H     2    26       P1 10175  1.00
      L1  H    10    34       P1  8028  1.00

> <Gold.PLP.Chemscore.Internal.Correction>
0.0363

> <Gold.Rescore>
     Score         DG    S(hbond)    S(metal)    S(lipo)     H(rot)  DE(clash)    DE(int)     intcor
     14.57     -17.73       1.97        0.00      96.28       2.19       0.10       3.07       ----

> <Gold.Chemscore.Fitness>
14.5665

> <Gold.Chemscore.DG>
-17.7327

> <Gold.Chemscore.ZeroCoef>
-5.4800

> <Gold.Chemscore.Hbond>
1.9725

> <Gold.Chemscore.Metal>
0.0000

> <Gold.Chemscore.Lipo>
96.2835

> <Gold.Chemscore.Internal_Hbond>
0.0000

> <Gold.Chemscore.DEClash>
0.1002

> <Gold.Chemscore.DEInternal>
3.0660

> <Gold.Chemscore.Rot>
2.1877

> <Gold.Chemscore.Internal.Correction>
   9.000000E+99

> <Gold.Chemscore.Hbonds>
donor molecule, donor type, donor heavy atom, donor atom, acceptor molecule, acceptor atom, score
      L1  H     2    26       P1 10175  0.98
      L1  H    10    34       P1  8028  0.98

> <Gold.Chemscore.Hbond.Weighted>
-6.5880

> <Gold.Chemscore.Metal.Weighted>
-0.0000

> <Gold.Chemscore.Lipo.Weighted>
-11.2652

> <Gold.Chemscore.Internal_Hbond.Weighted>
0.0000

> <Gold.Chemscore.DEClash.Weighted>
0.1002

> <Gold.Chemscore.DEInternal.Weighted>
3.0660

> <Gold.Chemscore.Rot.Weighted>
5.6005

> <Gold.Chemscore.Internal.Correction.Weighted>
   9.000000E+99

> <Gold.Protein.RotatedTorsions>
[ 6907 6896 6895 6894 ] final  123.90 input  -60.11 | X-H torsion
[ 7974 7965 7964 7962 ] final -163.90 input  175.53 | X-H torsion
[ 8008 7997 7996 7995 ] final  147.61 input   59.86 | X-H torsion
[ 10167 10162 10161 10158 ] final -171.48 input  -65.29 | X-H torsion
[ 10718 10713 10712 10709 ] final   34.72 input   66.30 | X-H torsion
[ 10763 10752 10751 10750 ] final  133.63 input  -60.55 | X-H torsion
[ 11005 11000 10999 10996 ] final  -11.84 input  -57.11 | X-H torsion

> <Gold.Protein.ActiveResidues>
 VAL166  LYS551  ARG553  GLY616  TRP617  ASP618  TYR619  PRO620  LYS621  CYS622 
 ASP623  PHE694  ASN695  SER759  ASP760  ASP761  ALA762  ILE779  LEU786  VAL792 
 PHE793  MET794  SER795  GLU796  ALA797  LYS798  CYS799  TRP800  GLU811  SER814 

> <Gold.Protein.RotatedAtoms>
  152.4123  133.6983  159.6408 H   0  0  0  0  0  0  0  0  0  0  0  0  # atno 6907 bound_to 6896
  150.8003  133.8602  159.3238 H   0  0  0  0  0  0  0  0  0  0  0  0  # atno 6908 bound_to 6896
  151.6341  135.1021  160.0179 H   0  0  0  0  0  0  0  0  0  0  0  0  # atno 6909 bound_to 6896
  144.7312  140.3040  143.6199 H   0  0  0  0  0  0  0  0  0  0  0  0  # atno 7974 bound_to 7965
  156.2819  140.2151  156.5565 H   0  0  0  0  0  0  0  0  0  0  0  0  # atno 8008 bound_to 7997
  154.7248  140.0500  157.0695 H   0  0  0  0  0  0  0  0  0  0  0  0  # atno 8009 bound_to 7997
  155.0431  140.3148  155.4721 H   0  0  0  0  0  0  0  0  0  0  0  0  # atno 8010 bound_to 7997
  139.5800  144.1445  152.1502 H   0  0  0  0  0  0  0  0  0  0  0  0  # atno 10167 bound_to 10162
  157.3138  130.7413  149.6742 H   0  0  0  0  0  0  0  0  0  0  0  0  # atno 10718 bound_to 10713
  153.8103  135.3130  155.3400 H   0  0  0  0  0  0  0  0  0  0  0  0  # atno 10763 bound_to 10752
  154.8054  135.4701  154.0381 H   0  0  0  0  0  0  0  0  0  0  0  0  # atno 10764 bound_to 10752
  153.1758  135.6885  153.8634 H   0  0  0  0  0  0  0  0  0  0  0  0  # atno 10765 bound_to 10752
  140.7594  133.8527  155.9112 H   0  0  0  0  0  0  0  0  0  0  0  0  # atno 11005 bound_to 11000
  145.7732  139.1864  143.2200 LP  0  0  0  0  0  0  0  0  0  0  0  0  # atno 17320 bound_to 7965
  146.0894  140.7673  142.9602 LP  0  0  0  0  0  0  0  0  0  0  0  0  # atno 17321 bound_to 7965
  140.0996  144.5551  150.6998 LP  0  0  0  0  0  0  0  0  0  0  0  0  # atno 17342 bound_to 10162
  140.7079  143.2482  151.4671 LP  0  0  0  0  0  0  0  0  0  0  0  0  # atno 17343 bound_to 10162
  155.9680  130.4243  150.4603 LP  0  0  0  0  0  0  0  0  0  0  0  0  # atno 17370 bound_to 10713
  157.2606  131.0566  151.2322 LP  0  0  0  0  0  0  0  0  0  0  0  0  # atno 17371 bound_to 10713
  140.9677  134.1572  157.4602 LP  0  0  0  0  0  0  0  0  0  0  0  0  # atno 17394 bound_to 11000
  139.8773  134.9967  156.5810 LP  0  0  0  0  0  0  0  0  0  0  0  0  # atno 17395 bound_to 11000

$$$$
