AV-unprocessed.smi:2424|AV-procd|sdf|9572|dock8
  -GOLD-   2272013203D 1   1.00000     0.00000
 Structure written by MMmdl.
 49 50  0  0  0  0  0  0  0  0  2 V2000
  149.2038  137.7388  158.1069 C   0  0  0  0  0  0  0  0  0  0  0  0
  148.1691  137.5493  156.9843 C   0  0  0  0  0  0  0  0  0  0  0  0
  148.5406  138.1009  155.5860 C   0  0  0  0  0  0  0  0  0  0  0  0
  149.8314  137.3581  155.1350 C   0  0  0  0  0  0  0  0  0  0  0  0
  149.7563  135.8199  155.0868 C   0  0  0  0  0  0  0  0  0  0  0  0
  147.3982  138.1663  154.5262 C   0  0  2  0  0  0  0  0  0  0  0  0
  147.4299  137.1125  153.5173 N   0  0  0  0  0  0  0  0  0  0  0  0
  146.3948  136.3159  153.2205 C   0  0  0  0  0  0  0  0  0  0  0  0
  145.2984  136.4036  153.7726 O   0  0  0  0  0  0  0  0  0  0  0  0
  146.7311  135.4332  152.2635 N   0  0  0  0  0  0  0  0  0  0  0  0
  145.9452  134.4313  151.6799 C   0  0  0  0  0  0  0  0  0  0  0  0
  144.9571  134.7618  150.7747 C   0  0  0  0  0  0  0  0  0  0  0  0
  144.1052  133.9476  150.1149 N   0  5  0  0  0  0  0  0  0  0  0  0
  144.1942  132.6055  150.3410 C   0  0  0  0  0  0  0  0  0  0  0  0
  143.4510  131.8032  149.7773 O   0  0  0  0  0  0  0  0  0  0  0  0
  145.2125  132.1089  151.2886 C   0  0  0  0  0  0  0  0  0  0  0  0
  145.3105  130.6130  151.5363 C   0  0  0  0  0  0  0  0  0  0  0  0
  146.0335  132.9898  151.9135 C   0  0  0  0  0  0  0  0  0  0  0  0
  147.9664  139.4916  154.0086 C   0  0  1  0  0  0  0  0  0  0  0  0
  147.0015  140.5313  153.4530 C   0  0  0  0  0  0  0  0  0  0  0  0
  148.5354  139.6487  155.4281 C   0  0  2  0  0  0  0  0  0  0  0  0
  149.8279  140.2320  155.4829 O   0  0  0  0  0  0  0  0  0  0  0  0
  149.8100  141.6484  155.4734 C   0  0  0  0  0  0  0  0  0  0  0  0
  148.8728  137.2319  159.0134 H   0  0  0  0  0  0  0  0  0  0  0  0
  149.3328  138.7899  158.3645 H   0  0  0  0  0  0  0  0  0  0  0  0
  150.1775  137.3266  157.8455 H   0  0  0  0  0  0  0  0  0  0  0  0
  147.9756  136.4790  156.9090 H   0  0  0  0  0  0  0  0  0  0  0  0
  147.2340  137.9961  157.3249 H   0  0  0  0  0  0  0  0  0  0  0  0
  150.1276  137.7025  154.1437 H   0  0  0  0  0  0  0  0  0  0  0  0
  150.6658  137.6231  155.7840 H   0  0  0  0  0  0  0  0  0  0  0  0
  150.7328  135.4038  154.8383 H   0  0  0  0  0  0  0  0  0  0  0  0
  149.0614  135.4699  154.3239 H   0  0  0  0  0  0  0  0  0  0  0  0
  149.4549  135.3864  156.0386 H   0  0  0  0  0  0  0  0  0  0  0  0
  146.4041  138.3281  154.9452 H   0  0  0  0  0  0  0  0  0  0  0  0
  148.2975  136.9768  153.0195 H   0  0  0  0  0  0  0  0  0  0  0  0
  147.6758  135.4884  151.9119 H   0  0  0  0  0  0  0  0  0  0  0  0
  144.8316  135.8425  150.5477 H   0  0  0  0  0  0  0  0  0  0  0  0
  146.1014  130.3782  152.2494 H   0  0  0  0  0  0  0  0  0  0  0  0
  145.5284  130.0864  150.6066 H   0  0  0  0  0  0  0  0  0  0  0  0
  144.3710  130.2311  151.9370 H   0  0  0  0  0  0  0  0  0  0  0  0
  146.7641  132.5900  152.5976 H   0  0  0  0  0  0  0  0  0  0  0  0
  148.7788  139.3071  153.3032 H   0  0  0  0  0  0  0  0  0  0  0  0
  146.2374  140.7971  154.1838 H   0  0  0  0  0  0  0  0  0  0  0  0
  146.4912  140.1563  152.5659 H   0  0  0  0  0  0  0  0  0  0  0  0
  147.5194  141.4466  153.1688 H   0  0  0  0  0  0  0  0  0  0  0  0
  147.8321  140.1356  156.1061 H   0  0  0  0  0  0  0  0  0  0  0  0
  150.8276  142.0249  155.5770 H   0  0  0  0  0  0  0  0  0  0  0  0
  149.2202  142.0430  156.3017 H   0  0  0  0  0  0  0  0  0  0  0  0
  149.4069  142.0352  154.5382 H   0  0  0  0  0  0  0  0  0  0  0  0
  1  2  1  0  0  0  0
  1 24  1  0  0  0  0
  1 25  1  0  0  0  0
  1 26  1  0  0  0  0
  2  3  1  0  0  0  0
  2 27  1  0  0  0  0
  2 28  1  0  0  0  0
  3 21  1  0  0  0  0
  3  4  1  0  0  0  0
  3  6  1  0  0  0  0
  4  5  1  0  0  0  0
  4 29  1  0  0  0  0
  4 30  1  0  0  0  0
  5 31  1  0  0  0  0
  5 32  1  0  0  0  0
  5 33  1  0  0  0  0
  6  7  1  0  0  0  0
  6 19  1  0  0  0  0
  6 34  1  0  0  0  0
  7  8  1  0  0  0  0
  7 35  1  0  0  0  0
  8  9  2  0  0  0  0
  8 10  1  0  0  0  0
 10 11  1  0  0  0  0
 10 36  1  0  0  0  0
 11 18  1  0  0  0  0
 11 12  2  0  0  0  0
 12 13  1  0  0  0  0
 12 37  1  0  0  0  0
 13 14  1  0  0  0  0
 14 15  2  0  0  0  0
 14 16  1  0  0  0  0
 16 17  1  0  0  0  0
 16 18  2  0  0  0  0
 17 38  1  0  0  0  0
 17 39  1  0  0  0  0
 17 40  1  0  0  0  0
 18 41  1  0  0  0  0
 19 20  1  0  0  0  0
 19 21  1  0  0  0  0
 19 42  1  0  0  0  0
 20 43  1  0  0  0  0
 20 44  1  0  0  0  0
 20 45  1  0  0  0  0
 21 22  1  0  0  0  0
 21 46  1  0  0  0  0
 22 23  1  0  0  0  0
 23 47  1  0  0  0  0
 23 48  1  0  0  0  0
 23 49  1  0  0  0  0
M  CHG  1  13  -1
M  END
> <s_m_source_file>
AV-unprocessed.smi

> <i_m_source_file_index>
2424

> <i_lp_mmshare_version>
43012

> <i_f3d_flags>
0

> <s_epik_input>
W0NIM11PW0NAQEhdMVtDQEhdKFtDSDNdKVtDQEBIXShDMShbQ0gyXVtDSDNdKVtDSDJdW0NIM10pW05IXUMoPU8pW05IXWMyW2NIXVtuSF1jKD1PKWMoW0NIM10pW2NIXTI=

> <s_epik_cmdline>
J2VwaWtfcHl0aG9uJywgJy1waCcsICc3LjAnLCAnLXRuJywgJzgnLCAnLW1hJywgJzIwMCcsICctbWV0YWxfYmluZGluZycsICctaW1hZScsICc8aW5maWxlLm1hZT4nLCAnLW9tYWUnLCAnPG91dGZpbGUubWFlPic=

> <r_lp_tautomer_probability>
1

> <r_epik_Ionization_Penalty>
7.6122

> <r_epik_Ionization_Penalty_Charging>
1.53843

> <r_epik_Ionization_Penalty_Neutral>
6.07377

> <r_epik_State_Penalty>
6.07371

> <r_epik_Charging_Adjusted_Penalty>
7.61214

> <i_epik_Tot_Q>
-1

> <i_epik_Tot_abs_Q>
1

> <r_epik_Metal_State_Penalty>
2.02136

> <b_epik_Metal_Only>
1

> <s_lp_Force_Field>
OPLS_2005

> <r_lp_Energy>
40.6297

> <b_lp_Chiralities_Consistent>
1

> <s_lp_Variant>
AV-unprocessed.smi:2424-14

> <Gold.Version>
5.8.1

> <Gold.Id.Protein>
6NUR|6NUR_protein|mol2

> <Gold.PLP.Fitness>
33.9022

> <Gold.PLP.PLP>
-27.3770

> <Gold.PLP.part.hbond>
-2.1442

> <Gold.PLP.part.metal>
0.0000

> <Gold.PLP.part.buried>
-5.3886

> <Gold.PLP.part.nonpolar>
-22.7807

> <Gold.PLP.part.repulsive>
1.2871

> <Gold.PLP.ligand.clash>
0.0000

> <Gold.PLP.ligand.torsion>
1.0800

> <Gold.PLP.Chemscore.Hbond>
2.7085

> <Gold.PLP.Chemscore.CHOScore>
0.0000

> <Gold.PLP.Chemscore.Metal>
0.0000

> <Gold.Chemscore.Hbonds>
donor molecule, donor type, donor heavy atom, donor atom, acceptor molecule, acceptor atom, score
      L1  H     7    35       P1  7948  0.87
      L1  H    10    36       P1  7948  0.78
      P1  H 10785 10796       L1    15  1.00

> <Gold.PLP.Chemscore.Internal.Correction>
0.5597

> <Gold.Rescore>
     Score         DG    S(hbond)    S(metal)    S(lipo)     H(rot)  DE(clash)    DE(int)     intcor
     16.41     -18.62       2.73        0.00      67.49       1.52       1.09       1.11       ----

> <Gold.Chemscore.Fitness>
16.4084

> <Gold.Chemscore.DG>
-18.6156

> <Gold.Chemscore.ZeroCoef>
-5.4800

> <Gold.Chemscore.Hbond>
2.7341

> <Gold.Chemscore.Metal>
0.0000

> <Gold.Chemscore.Lipo>
67.4878

> <Gold.Chemscore.Internal_Hbond>
0.0000

> <Gold.Chemscore.DEClash>
1.0923

> <Gold.Chemscore.DEInternal>
1.1149

> <Gold.Chemscore.Rot>
1.5204

> <Gold.Chemscore.Internal.Correction>
   9.000000E+99

> <Gold.Chemscore.Hbonds>
donor molecule, donor type, donor heavy atom, donor atom, acceptor molecule, acceptor atom, score
      L1  H     7    35       P1  7948  0.81
      L1  H    10    36       P1  7948  0.72
      P1  H 10785 10796       L1    15  0.94

> <Gold.Chemscore.Hbond.Weighted>
-9.1318

> <Gold.Chemscore.Metal.Weighted>
-0.0000

> <Gold.Chemscore.Lipo.Weighted>
-7.8961

> <Gold.Chemscore.Internal_Hbond.Weighted>
0.0000

> <Gold.Chemscore.DEClash.Weighted>
1.0923

> <Gold.Chemscore.DEInternal.Weighted>
1.1149

> <Gold.Chemscore.Rot.Weighted>
3.8922

> <Gold.Chemscore.Internal.Correction.Weighted>
   9.000000E+99

> <Gold.Protein.RotatedTorsions>
[ 6907 6896 6895 6894 ] final  112.23 input  -60.11 | X-H torsion
[ 7974 7965 7964 7962 ] final  -93.27 input  175.53 | X-H torsion
[ 8008 7997 7996 7995 ] final  -26.18 input   59.86 | X-H torsion
[ 10167 10162 10161 10158 ] final -105.14 input  -65.29 | X-H torsion
[ 10718 10713 10712 10709 ] final -142.73 input   66.30 | X-H torsion
[ 10763 10752 10751 10750 ] final  -55.37 input  -60.55 | X-H torsion
[ 11005 11000 10999 10996 ] final   28.82 input  -57.11 | X-H torsion

> <Gold.Protein.ActiveResidues>
 VAL166  LYS551  ARG553  GLY616  TRP617  ASP618  TYR619  PRO620  LYS621  CYS622 
 ASP623  PHE694  ASN695  SER759  ASP760  ASP761  ALA762  ILE779  LEU786  VAL792 
 PHE793  MET794  SER795  GLU796  ALA797  LYS798  CYS799  TRP800  GLU811  SER814 

> <Gold.Protein.RotatedAtoms>
  152.4927  133.8545  159.7218 H   0  0  0  0  0  0  0  0  0  0  0  0  # atno 6907 bound_to 6896
  150.9073  133.7032  159.2870 H   0  0  0  0  0  0  0  0  0  0  0  0  # atno 6908 bound_to 6896
  151.4453  135.1028  159.9734 H   0  0  0  0  0  0  0  0  0  0  0  0  # atno 6909 bound_to 6896
  145.3887  140.9526  143.2352 H   0  0  0  0  0  0  0  0  0  0  0  0  # atno 7974 bound_to 7965
  154.4438  140.1906  156.0735 H   0  0  0  0  0  0  0  0  0  0  0  0  # atno 8008 bound_to 7997
  156.0493  140.3310  155.7305 H   0  0  0  0  0  0  0  0  0  0  0  0  # atno 8009 bound_to 7997
  155.5582  140.0601  157.2825 H   0  0  0  0  0  0  0  0  0  0  0  0  # atno 8010 bound_to 7997
  140.2018  143.3813  152.1123 H   0  0  0  0  0  0  0  0  0  0  0  0  # atno 10167 bound_to 10162
  156.3494  130.7680  151.1830 H   0  0  0  0  0  0  0  0  0  0  0  0  # atno 10718 bound_to 10713
  154.1898  135.6429  153.5057 H   0  0  0  0  0  0  0  0  0  0  0  0  # atno 10763 bound_to 10752
  153.0038  135.5426  154.6427 H   0  0  0  0  0  0  0  0  0  0  0  0  # atno 10764 bound_to 10752
  154.5813  135.2925  155.0702 H   0  0  0  0  0  0  0  0  0  0  0  0  # atno 10765 bound_to 10752
  140.3115  134.2645  155.7733 H   0  0  0  0  0  0  0  0  0  0  0  0  # atno 11005 bound_to 11000
  144.8455  139.5403  143.6880 LP  0  0  0  0  0  0  0  0  0  0  0  0  # atno 17320 bound_to 7965
  146.2808  139.6871  142.9230 LP  0  0  0  0  0  0  0  0  0  0  0  0  # atno 17321 bound_to 7965
  139.5214  144.7046  151.5393 LP  0  0  0  0  0  0  0  0  0  0  0  0  # atno 17342 bound_to 10162
  140.6385  143.8936  150.6670 LP  0  0  0  0  0  0  0  0  0  0  0  0  # atno 17343 bound_to 10162
  157.7459  131.0432  150.4731 LP  0  0  0  0  0  0  0  0  0  0  0  0  # atno 17370 bound_to 10713
  156.4924  130.4098  149.6399 LP  0  0  0  0  0  0  0  0  0  0  0  0  # atno 17371 bound_to 10713
  141.2107  133.7711  156.9914 LP  0  0  0  0  0  0  0  0  0  0  0  0  # atno 17394 bound_to 11000
  140.1021  134.9529  157.1938 LP  0  0  0  0  0  0  0  0  0  0  0  0  # atno 17395 bound_to 11000

$$$$
