AV-unprocessed.smi:2265|AV-procd|sdf|9145|dock7
  -GOLD-   2272012353D 1   1.00000     0.00000
 Structure written by MMmdl.
 36 37  0  0  0  0  0  0  0  0  1 V2000
  144.7796  144.1065  154.4454 C   0  0  0  0  0  0  0  0  0  0  0  0
  145.8697  143.3139  153.7162 C   0  0  0  0  0  0  0  0  0  0  0  0
  146.3627  142.1084  154.5274 C   0  0  0  0  0  0  0  0  0  0  0  0
  147.3091  141.2265  153.7325 C   0  0  2  0  0  0  0  0  0  0  0  0
  147.9705  140.0303  154.3637 C   0  0  0  0  0  0  0  0  0  0  0  0
  148.8069  141.2298  153.9658 C   0  0  2  0  0  0  0  0  0  0  0  0
  149.3528  142.0238  155.0262 N   0  0  0  0  0  0  0  0  0  0  0  0
  150.2037  141.6318  155.9911 C   0  0  0  0  0  0  0  0  0  0  0  0
  150.5813  140.4623  156.0605 O   0  0  0  0  0  0  0  0  0  0  0  0
  150.5413  142.6153  156.8546 N   0  0  0  0  0  0  0  0  0  0  0  0
  151.3724  142.5386  157.9790 C   0  0  0  0  0  0  0  0  0  0  0  0
  152.1592  141.5273  158.2202 N   0  0  0  0  0  0  0  0  0  0  0  0
  152.9744  141.4857  159.3514 C   0  0  0  0  0  0  0  0  0  0  0  0
  152.9780  142.4984  160.2368 C   0  0  0  0  0  0  0  0  0  0  0  0
  152.1614  143.6214  160.0432 N   0  0  0  0  0  0  0  0  0  0  0  0
  152.2016  144.6925  161.0392 C   0  0  0  0  0  0  0  0  0  0  0  0
  151.3427  143.7140  158.9602 C   0  0  0  0  0  0  0  0  0  0  0  0
  150.6033  144.6777  158.7501 O   0  0  0  0  0  0  0  0  0  0  0  0
  144.4471  144.9529  153.8442 H   0  0  0  0  0  0  0  0  0  0  0  0
  145.1455  144.4964  155.3956 H   0  0  0  0  0  0  0  0  0  0  0  0
  143.9098  143.4824  154.6513 H   0  0  0  0  0  0  0  0  0  0  0  0
  145.4849  142.9737  152.7542 H   0  0  0  0  0  0  0  0  0  0  0  0
  146.7084  143.9756  153.4967 H   0  0  0  0  0  0  0  0  0  0  0  0
  146.8818  142.4486  155.4240 H   0  0  0  0  0  0  0  0  0  0  0  0
  145.5080  141.5198  154.8629 H   0  0  0  0  0  0  0  0  0  0  0  0
  147.0083  141.1082  152.6931 H   0  0  0  0  0  0  0  0  0  0  0  0
  147.7973  139.8589  155.4247 H   0  0  0  0  0  0  0  0  0  0  0  0
  148.0606  139.1311  153.7580 H   0  0  0  0  0  0  0  0  0  0  0  0
  149.4365  141.0736  153.0908 H   0  0  0  0  0  0  0  0  0  0  0  0
  148.9959  142.9657  155.0970 H   0  0  0  0  0  0  0  0  0  0  0  0
  150.1266  143.5161  156.6658 H   0  0  0  0  0  0  0  0  0  0  0  0
  153.5920  140.6081  159.4736 H   0  0  0  0  0  0  0  0  0  0  0  0
  153.5903  142.5110  161.1267 H   0  0  0  0  0  0  0  0  0  0  0  0
  151.2458  144.7615  161.5601 H   0  0  0  0  0  0  0  0  0  0  0  0
  152.4013  145.6545  160.5651 H   0  0  0  0  0  0  0  0  0  0  0  0
  152.9765  144.5342  161.7900 H   0  0  0  0  0  0  0  0  0  0  0  0
  1  2  1  0  0  0  0
  1 19  1  0  0  0  0
  1 20  1  0  0  0  0
  1 21  1  0  0  0  0
  2  3  1  0  0  0  0
  2 22  1  0  0  0  0
  2 23  1  0  0  0  0
  3  4  1  0  0  0  0
  3 24  1  0  0  0  0
  3 25  1  0  0  0  0
  4  6  1  0  0  0  0
  4  5  1  0  0  0  0
  4 26  1  0  0  0  0
  5  6  1  0  0  0  0
  5 27  1  0  0  0  0
  5 28  1  0  0  0  0
  6  7  1  0  0  0  0
  6 29  1  0  0  0  0
  7  8  1  0  0  0  0
  7 30  1  0  0  0  0
  8  9  2  0  0  0  0
  8 10  1  0  0  0  0
 10 11  1  0  0  0  0
 10 31  1  0  0  0  0
 11 17  1  0  0  0  0
 11 12  2  0  0  0  0
 12 13  1  0  0  0  0
 13 14  2  0  0  0  0
 13 32  1  0  0  0  0
 14 15  1  0  0  0  0
 14 33  1  0  0  0  0
 15 16  1  0  0  0  0
 15 17  1  0  0  0  0
 16 34  1  0  0  0  0
 16 35  1  0  0  0  0
 16 36  1  0  0  0  0
 17 18  2  0  0  0  0
M  END
> <s_m_source_file>
AV-unprocessed.smi

> <i_m_source_file_index>
2265

> <i_lp_mmshare_version>
43012

> <i_f3d_flags>
0

> <s_epik_input>
W0NIM11bQ0gyXVtDSDJdW0NAQEhdMVtDSDJdW0NASF0xW05IXUMoPU8pW05IXWMybltjSF1bY0hdbihbQ0gzXSljMj1P

> <s_epik_cmdline>
J2VwaWtfcHl0aG9uJywgJy1waCcsICc3LjAnLCAnLXRuJywgJzgnLCAnLW1hJywgJzIwMCcsICctbWV0YWxfYmluZGluZycsICctaW1hZScsICc8aW5maWxlLm1hZT4nLCAnLW9tYWUnLCAnPG91dGZpbGUubWFlPic=

> <r_lp_tautomer_probability>
1

> <r_epik_Ionization_Penalty>
0.000728552

> <r_epik_Ionization_Penalty_Charging>
1.67739e-07

> <r_epik_Ionization_Penalty_Neutral>
0.000728385

> <r_epik_State_Penalty>
-0

> <r_epik_Charging_Adjusted_Penalty>
1.67739e-07

> <i_epik_Tot_Q>
0

> <i_epik_Tot_abs_Q>
0

> <r_epik_Metal_State_Penalty>
-0

> <b_epik_Metal_Only>
0

> <s_lp_Force_Field>
OPLS_2005

> <r_lp_Energy>
43.9494

> <b_lp_Chiralities_Consistent>
1

> <s_lp_Variant>
AV-unprocessed.smi:2265-3

> <Gold.Version>
5.8.1

> <Gold.Id.Protein>
6NUR|6NUR_protein|mol2

> <Gold.PLP.Fitness>
46.0989

> <Gold.PLP.PLP>
-40.3559

> <Gold.PLP.part.hbond>
-2.0000

> <Gold.PLP.part.metal>
0.0000

> <Gold.PLP.part.buried>
-5.9448

> <Gold.PLP.part.nonpolar>
-33.5076

> <Gold.PLP.part.repulsive>
0.4397

> <Gold.PLP.ligand.clash>
0.0000

> <Gold.PLP.ligand.torsion>
0.4121

> <Gold.PLP.Chemscore.Hbond>
2.0000

> <Gold.PLP.Chemscore.CHOScore>
0.0000

> <Gold.PLP.Chemscore.Metal>
0.0000

> <Gold.Chemscore.Hbonds>
donor molecule, donor type, donor heavy atom, donor atom, acceptor molecule, acceptor atom, score
      L1  H     7    30       P1  8028  1.00
      L1  H    10    31       P1  8028  1.00

> <Gold.PLP.Chemscore.Internal.Correction>
0.5672

> <Gold.Rescore>
     Score         DG    S(hbond)    S(metal)    S(lipo)     H(rot)  DE(clash)    DE(int)     intcor
     15.19     -17.01       1.96        0.00      74.39       1.46       0.11       1.70       ----

> <Gold.Chemscore.Fitness>
15.1928

> <Gold.Chemscore.DG>
-17.0059

> <Gold.Chemscore.ZeroCoef>
-5.4800

> <Gold.Chemscore.Hbond>
1.9644

> <Gold.Chemscore.Metal>
0.0000

> <Gold.Chemscore.Lipo>
74.3884

> <Gold.Chemscore.Internal_Hbond>
0.0000

> <Gold.Chemscore.DEClash>
0.1136

> <Gold.Chemscore.DEInternal>
1.6995

> <Gold.Chemscore.Rot>
1.4604

> <Gold.Chemscore.Internal.Correction>
   9.000000E+99

> <Gold.Chemscore.Hbonds>
donor molecule, donor type, donor heavy atom, donor atom, acceptor molecule, acceptor atom, score
      L1  H     7    30       P1  8028  0.99
      L1  H    10    31       P1  8028  0.94

> <Gold.Chemscore.Hbond.Weighted>
-6.5612

> <Gold.Chemscore.Metal.Weighted>
-0.0000

> <Gold.Chemscore.Lipo.Weighted>
-8.7034

> <Gold.Chemscore.Internal_Hbond.Weighted>
0.0000

> <Gold.Chemscore.DEClash.Weighted>
0.1136

> <Gold.Chemscore.DEInternal.Weighted>
1.6995

> <Gold.Chemscore.Rot.Weighted>
3.7387

> <Gold.Chemscore.Internal.Correction.Weighted>
   9.000000E+99

> <Gold.Protein.RotatedTorsions>
[ 6907 6896 6895 6894 ] final   72.87 input  -60.11 | X-H torsion
[ 7974 7965 7964 7962 ] final   11.32 input  175.53 | X-H torsion
[ 8008 7997 7996 7995 ] final -127.79 input   59.86 | X-H torsion
[ 10167 10162 10161 10158 ] final -100.58 input  -65.29 | X-H torsion
[ 10718 10713 10712 10709 ] final   95.86 input   66.30 | X-H torsion
[ 10763 10752 10751 10750 ] final  -93.02 input  -60.55 | X-H torsion
[ 11005 11000 10999 10996 ] final   81.16 input  -57.11 | X-H torsion

> <Gold.Protein.ActiveResidues>
 VAL166  LYS551  ARG553  GLY616  TRP617  ASP618  TYR619  PRO620  LYS621  CYS622 
 ASP623  PHE694  ASN695  SER759  ASP760  ASP761  ALA762  ILE779  LEU786  VAL792 
 PHE793  MET794  SER795  GLU796  ALA797  LYS798  CYS799  TRP800  GLU811  SER814 

> <Gold.Protein.RotatedAtoms>
  152.4892  134.4507  159.9573 H   0  0  0  0  0  0  0  0  0  0  0  0  # atno 6907 bound_to 6896
  151.4498  133.3614  159.2801 H   0  0  0  0  0  0  0  0  0  0  0  0  # atno 6908 bound_to 6896
  150.9030  134.8467  159.7433 H   0  0  0  0  0  0  0  0  0  0  0  0  # atno 6909 bound_to 6896
  146.2373  139.9502  142.8471 H   0  0  0  0  0  0  0  0  0  0  0  0  # atno 7974 bound_to 7965
  155.2520  140.0432  157.2988 H   0  0  0  0  0  0  0  0  0  0  0  0  # atno 8008 bound_to 7997
  154.5763  140.2388  155.8087 H   0  0  0  0  0  0  0  0  0  0  0  0  # atno 8009 bound_to 7997
  156.2160  140.2984  155.9849 H   0  0  0  0  0  0  0  0  0  0  0  0  # atno 8010 bound_to 7997
  140.2504  143.3476  152.0720 H   0  0  0  0  0  0  0  0  0  0  0  0  # atno 10167 bound_to 10162
  157.6934  131.0559  150.4404 H   0  0  0  0  0  0  0  0  0  0  0  0  # atno 10718 bound_to 10713
  154.6918  135.5210  153.8403 H   0  0  0  0  0  0  0  0  0  0  0  0  # atno 10763 bound_to 10752
  153.0638  135.6577  154.0412 H   0  0  0  0  0  0  0  0  0  0  0  0  # atno 10764 bound_to 10752
  154.0284  135.2987  155.3351 H   0  0  0  0  0  0  0  0  0  0  0  0  # atno 10765 bound_to 10752
  139.9108  134.7975  156.2004 H   0  0  0  0  0  0  0  0  0  0  0  0  # atno 11005 bound_to 11000
  145.1868  140.9793  143.4234 LP  0  0  0  0  0  0  0  0  0  0  0  0  # atno 17320 bound_to 7965
  144.9892  139.3706  143.6223 LP  0  0  0  0  0  0  0  0  0  0  0  0  # atno 17321 bound_to 7965
  139.5048  144.6783  151.6074 LP  0  0  0  0  0  0  0  0  0  0  0  0  # atno 17342 bound_to 10162
  140.6045  143.9549  150.6409 LP  0  0  0  0  0  0  0  0  0  0  0  0  # atno 17343 bound_to 10162
  156.4763  130.4064  149.6488 LP  0  0  0  0  0  0  0  0  0  0  0  0  # atno 17370 bound_to 10713
  156.3550  130.7452  151.2416 LP  0  0  0  0  0  0  0  0  0  0  0  0  # atno 17371 bound_to 10713
  141.0528  133.6880  156.1804 LP  0  0  0  0  0  0  0  0  0  0  0  0  # atno 17394 bound_to 11000
  140.6784  134.4794  157.5588 LP  0  0  0  0  0  0  0  0  0  0  0  0  # atno 17395 bound_to 11000

$$$$
