AV-unprocessed.smi:188|AV-procd|sdf|1473|dock9
  -GOLD-   2262019293D 1   1.00000     0.00000
 Structure written by MMmdl.
 48 52  0  0  0  0  0  0  0  0  2 V2000
  156.7610  138.1047  162.4079 O   0  0  0  0  0  0  0  0  0  0  0  0
  155.8426  137.9971  161.5985 C   0  0  0  0  0  0  0  0  0  0  0  0
  154.7464  137.2193  161.6834 N   0  5  0  0  0  0  0  0  0  0  0  0
  153.9613  137.3732  160.5953 C   0  0  0  0  0  0  0  0  0  0  0  0
  152.8879  136.8390  160.3193 O   0  0  0  0  0  0  0  0  0  0  0  0
  154.6497  138.3931  159.6718 C   0  0  0  0  0  0  0  0  0  0  0  0
  155.0609  137.7930  158.3067 C   0  0  0  0  0  0  0  0  0  0  0  0
  153.8628  137.6212  157.3550 C   0  0  0  0  0  0  0  0  0  0  0  0
  153.1181  138.8742  157.2161 N   0  0  0  0  0  0  0  0  0  0  0  0
  152.2349  138.9661  156.1892 C   0  0  0  0  0  0  0  0  0  0  0  0
  152.2046  138.0020  155.2300 N   0  0  0  0  0  0  0  0  0  0  0  0
  151.3279  138.0756  154.2248 C   0  0  0  0  0  0  0  0  0  0  0  0
  150.4101  139.0137  153.9858 N   0  0  0  0  0  0  0  0  0  0  0  0
  150.4429  139.9918  154.9349 C   0  0  0  0  0  0  0  0  0  0  0  0
  151.3134  140.0440  156.0608 C   0  0  0  0  0  0  0  0  0  0  0  0
  151.0576  141.1919  156.8019 N   0  0  0  0  0  0  0  0  0  0  0  0
  150.0848  141.7771  156.1587 C   0  0  0  0  0  0  0  0  0  0  0  0
  149.6606  141.1307  155.0192 N   0  0  0  0  0  0  0  0  0  0  0  0
  148.6022  141.5656  154.1199 C   0  0  0  0  0  0  0  0  0  0  0  0
  147.1756  141.2505  154.6175 C   0  0  0  0  0  0  0  0  0  0  0  0
  146.1724  142.3045  154.1162 C   0  0  0  0  0  0  0  0  0  0  0  0
  144.8874  142.0991  154.6682 O   0  0  0  0  0  0  0  0  0  0  0  0
  146.7058  139.7989  154.4414 C   0  0  0  0  0  0  0  0  0  0  0  0
  146.3011  139.7045  155.8231 O   0  0  0  0  0  0  0  0  0  0  0  0
  147.0523  140.9035  156.1077 C   0  0  0  0  0  0  0  0  0  0  0  0
  152.6470  139.4603  158.4710 C   0  0  0  0  0  0  0  0  0  0  0  0
  153.8131  139.6761  159.4537 C   0  0  0  0  0  0  0  0  0  0  0  0
  155.8266  138.6899  160.4615 N   0  0  0  0  0  0  0  0  0  0  0  0
  155.7948  138.4464  157.8327 H   0  0  0  0  0  0  0  0  0  0  0  0
  155.5575  136.8312  158.4437 H   0  0  0  0  0  0  0  0  0  0  0  0
  154.2261  137.2947  156.3796 H   0  0  0  0  0  0  0  0  0  0  0  0
  153.1952  136.8410  157.7216 H   0  0  0  0  0  0  0  0  0  0  0  0
  151.3683  137.2666  153.5104 H   0  0  0  0  0  0  0  0  0  0  0  0
  149.6529  142.7086  156.4950 H   0  0  0  0  0  0  0  0  0  0  0  0
  148.7235  142.6373  153.9574 H   0  0  0  0  0  0  0  0  0  0  0  0
  148.7737  141.1047  153.1463 H   0  0  0  0  0  0  0  0  0  0  0  0
  146.5039  143.3177  154.3439 H   0  0  0  0  0  0  0  0  0  0  0  0
  146.0792  142.2572  153.0307 H   0  0  0  0  0  0  0  0  0  0  0  0
  144.4143  141.4997  154.1112 H   0  0  0  0  0  0  0  0  0  0  0  0
  145.8731  139.6807  153.7472 H   0  0  0  0  0  0  0  0  0  0  0  0
  147.5052  139.0927  154.2137 H   0  0  0  0  0  0  0  0  0  0  0  0
  148.0051  140.6794  156.5904 H   0  0  0  0  0  0  0  0  0  0  0  0
  146.4823  141.6287  156.6897 H   0  0  0  0  0  0  0  0  0  0  0  0
  152.1471  140.4132  158.3006 H   0  0  0  0  0  0  0  0  0  0  0  0
  151.8986  138.7985  158.9078 H   0  0  0  0  0  0  0  0  0  0  0  0
  153.4248  140.0465  160.4037 H   0  0  0  0  0  0  0  0  0  0  0  0
  154.4581  140.4653  159.0646 H   0  0  0  0  0  0  0  0  0  0  0  0
  156.5407  139.3420  160.1732 H   0  0  0  0  0  0  0  0  0  0  0  0
  1  2  2  0  0  0  0
  2 28  1  0  0  0  0
  2  3  1  0  0  0  0
  3  4  1  0  0  0  0
  4  5  2  0  0  0  0
  4  6  1  0  0  0  0
  6 27  1  0  0  0  0
  6  7  1  0  0  0  0
  6 28  1  0  0  0  0
  7  8  1  0  0  0  0
  7 29  1  0  0  0  0
  7 30  1  0  0  0  0
  8  9  1  0  0  0  0
  8 31  1  0  0  0  0
  8 32  1  0  0  0  0
  9 10  1  0  0  0  0
  9 26  1  0  0  0  0
 10 15  1  0  0  0  0
 10 11  2  0  0  0  0
 11 12  1  0  0  0  0
 12 13  2  0  0  0  0
 12 33  1  0  0  0  0
 13 14  1  0  0  0  0
 14 18  1  0  0  0  0
 14 15  2  0  0  0  0
 15 16  1  0  0  0  0
 16 17  2  0  0  0  0
 17 18  1  0  0  0  0
 17 34  1  0  0  0  0
 18 19  1  0  0  0  0
 19 20  1  0  0  0  0
 19 35  1  0  0  0  0
 19 36  1  0  0  0  0
 20 25  1  0  0  0  0
 20 21  1  0  0  0  0
 20 23  1  0  0  0  0
 21 22  1  0  0  0  0
 21 37  1  0  0  0  0
 21 38  1  0  0  0  0
 22 39  1  0  0  0  0
 23 24  1  0  0  0  0
 23 40  1  0  0  0  0
 23 41  1  0  0  0  0
 24 25  1  0  0  0  0
 25 42  1  0  0  0  0
 25 43  1  0  0  0  0
 26 27  1  0  0  0  0
 26 44  1  0  0  0  0
 26 45  1  0  0  0  0
 27 46  1  0  0  0  0
 27 47  1  0  0  0  0
 28 48  1  0  0  0  0
M  CHG  1   3  -1
M  END
> <s_m_source_file>
AV-unprocessed.smi

> <i_m_source_file_index>
188

> <i_lp_mmshare_version>
43012

> <i_f3d_flags>
0

> <s_epik_input>
Tz1DKFtOSF0xKVtOSF1DKD1PKUMxMltDSDJdW0NIMl1OKFtDSDJdW0NIMl0yKWMobltjSF1uMyljKGMzNCluW2NIXW40W0NIMl1DNShbQ0gyXVtPSF0pW0NIMl1PW0NIMl01

> <s_epik_cmdline>
J2VwaWtfcHl0aG9uJywgJy1waCcsICc3LjAnLCAnLXRuJywgJzgnLCAnLW1hJywgJzIwMCcsICctbWV0YWxfYmluZGluZycsICctaW1hZScsICc8aW5maWxlLm1hZT4nLCAnLW9tYWUnLCAnPG91dGZpbGUubWFlPic=

> <r_lp_tautomer_probability>
1

> <r_epik_Ionization_Penalty>
2.63631

> <r_epik_Ionization_Penalty_Charging>
2.63472

> <r_epik_Ionization_Penalty_Neutral>
0.0015918

> <r_epik_State_Penalty>
2.63293

> <r_epik_Charging_Adjusted_Penalty>
5.26764

> <i_epik_Tot_Q>
-1

> <i_epik_Tot_abs_Q>
1

> <r_epik_Metal_State_Penalty>
0.446503

> <b_epik_Metal_Only>
1

> <s_lp_Force_Field>
OPLS_2005

> <r_lp_Energy>
37.7824

> <b_lp_Chiralities_Consistent>
1

> <s_lp_Variant>
AV-unprocessed.smi:188-2

> <Gold.Version>
5.8.1

> <Gold.Id.Protein>
6NUR|6NUR_protein|mol2

> <Gold.PLP.Fitness>
48.1085

> <Gold.PLP.PLP>
-35.2631

> <Gold.PLP.part.hbond>
-3.2875

> <Gold.PLP.part.metal>
0.0000

> <Gold.PLP.part.buried>
-2.5991

> <Gold.PLP.part.nonpolar>
-30.2330

> <Gold.PLP.part.repulsive>
0.3665

> <Gold.PLP.ligand.clash>
0.0000

> <Gold.PLP.ligand.torsion>
1.4303

> <Gold.PLP.Chemscore.Hbond>
3.0000

> <Gold.PLP.Chemscore.CHOScore>
2.0000

> <Gold.PLP.Chemscore.Metal>
0.0000

> <Gold.Chemscore.Hbonds>
donor molecule, donor type, donor heavy atom, donor atom, acceptor molecule, acceptor atom, score
      L1  H    22    39       P1 10175  1.00
      P1  H  6896  6909       L1     5  1.00
      P1  H  7997  8010       L1     9  1.00
      L1  C    12    33       P1  7949  1.00
      L1  C    17    34       P1  8028  1.00

> <Gold.PLP.Chemscore.Internal.Correction>
0.7059

> <Gold.Rescore>
     Score         DG    S(hbond)    S(metal)    S(lipo)     H(rot)  DE(clash)    DE(int)     intcor
      7.05     -10.75       1.91        0.00      52.85       2.84       0.06       3.64       ----

> <Gold.Chemscore.Fitness>
7.0524

> <Gold.Chemscore.DG>
-10.7473

> <Gold.Chemscore.ZeroCoef>
-5.4800

> <Gold.Chemscore.Hbond>
1.9064

> <Gold.Chemscore.Metal>
0.0000

> <Gold.Chemscore.Lipo>
52.8459

> <Gold.Chemscore.Internal_Hbond>
0.0000

> <Gold.Chemscore.DEClash>
0.0572

> <Gold.Chemscore.DEInternal>
3.6378

> <Gold.Chemscore.Rot>
2.8450

> <Gold.Chemscore.Internal.Correction>
   9.000000E+99

> <Gold.Chemscore.Hbonds>
donor molecule, donor type, donor heavy atom, donor atom, acceptor molecule, acceptor atom, score
      L1  H    22    39       P1 10175  0.24
      P1  H  6896  6909       L1     5  0.97
      P1  H  7997  8010       L1     9  0.05

> <Gold.Chemscore.Hbond.Weighted>
-6.3674

> <Gold.Chemscore.Metal.Weighted>
-0.0000

> <Gold.Chemscore.Lipo.Weighted>
-6.1830

> <Gold.Chemscore.Internal_Hbond.Weighted>
0.0000

> <Gold.Chemscore.DEClash.Weighted>
0.0572

> <Gold.Chemscore.DEInternal.Weighted>
3.6378

> <Gold.Chemscore.Rot.Weighted>
7.2831

> <Gold.Chemscore.Internal.Correction.Weighted>
   9.000000E+99

> <Gold.Protein.RotatedTorsions>
[ 6907 6896 6895 6894 ] final  144.10 input  -60.11 | X-H torsion
[ 7974 7965 7964 7962 ] final   91.90 input  175.53 | X-H torsion
[ 8008 7997 7996 7995 ] final   60.42 input   59.86 | X-H torsion
[ 10167 10162 10161 10158 ] final  -93.89 input  -65.29 | X-H torsion
[ 10718 10713 10712 10709 ] final    9.63 input   66.30 | X-H torsion
[ 10763 10752 10751 10750 ] final  137.45 input  -60.55 | X-H torsion
[ 11005 11000 10999 10996 ] final -143.35 input  -57.11 | X-H torsion

> <Gold.Protein.ActiveResidues>
 VAL166  LYS551  ARG553  GLY616  TRP617  ASP618  TYR619  PRO620  LYS621  CYS622 
 ASP623  PHE694  ASN695  SER759  ASP760  ASP761  ALA762  ILE779  LEU786  VAL792 
 PHE793  MET794  SER795  GLU796  ALA797  LYS798  CYS799  TRP800  GLU811  SER814 

> <Gold.Protein.RotatedAtoms>
  152.1979  133.4820  159.5042 H   0  0  0  0  0  0  0  0  0  0  0  0  # atno 6907 bound_to 6896
  150.6964  134.1628  159.4192 H   0  0  0  0  0  0  0  0  0  0  0  0  # atno 6908 bound_to 6896
  151.9545  135.0153  160.0594 H   0  0  0  0  0  0  0  0  0  0  0  0  # atno 6909 bound_to 6896
  145.4995  139.2276  143.2785 H   0  0  0  0  0  0  0  0  0  0  0  0  # atno 7974 bound_to 7965
  155.5820  140.3491  155.4543 H   0  0  0  0  0  0  0  0  0  0  0  0  # atno 8008 bound_to 7997
  156.0366  140.1286  157.0226 H   0  0  0  0  0  0  0  0  0  0  0  0  # atno 8009 bound_to 7997
  154.4374  140.1032  156.6162 H   0  0  0  0  0  0  0  0  0  0  0  0  # atno 8010 bound_to 7997
  140.3200  143.3054  152.0056 H   0  0  0  0  0  0  0  0  0  0  0  0  # atno 10167 bound_to 10162
  156.9691  130.5962  149.5667 H   0  0  0  0  0  0  0  0  0  0  0  0  # atno 10718 bound_to 10713
  153.8733  135.3053  155.3443 H   0  0  0  0  0  0  0  0  0  0  0  0  # atno 10763 bound_to 10752
  154.7795  135.4843  153.9818 H   0  0  0  0  0  0  0  0  0  0  0  0  # atno 10764 bound_to 10752
  153.1393  135.6821  153.9148 H   0  0  0  0  0  0  0  0  0  0  0  0  # atno 10765 bound_to 10752
  140.8134  134.2717  157.4931 H   0  0  0  0  0  0  0  0  0  0  0  0  # atno 11005 bound_to 11000
  146.2235  140.5795  142.9007 LP  0  0  0  0  0  0  0  0  0  0  0  0  # atno 17320 bound_to 7965
  144.7788  140.5797  143.6620 LP  0  0  0  0  0  0  0  0  0  0  0  0  # atno 17321 bound_to 7965
  139.4876  144.6318  151.7055 LP  0  0  0  0  0  0  0  0  0  0  0  0  # atno 17342 bound_to 10162
  140.5492  144.0454  150.6119 LP  0  0  0  0  0  0  0  0  0  0  0  0  # atno 17343 bound_to 10162
  156.0290  130.5382  150.8484 LP  0  0  0  0  0  0  0  0  0  0  0  0  # atno 17370 bound_to 10713
  157.5605  131.0946  150.9566 LP  0  0  0  0  0  0  0  0  0  0  0  0  # atno 17371 bound_to 10713
  139.8712  134.9495  156.4029 LP  0  0  0  0  0  0  0  0  0  0  0  0  # atno 17394 bound_to 11000
  140.9174  133.7669  155.9865 LP  0  0  0  0  0  0  0  0  0  0  0  0  # atno 17395 bound_to 11000

$$$$
