AV-unprocessed.smi:3135|AV-procd|sdf|11945|dock3
  -GOLD-   2272017333D 1   1.00000     0.00000
 Structure written by MMmdl.
 38 39  0  0  0  0  0  0  0  0  2 V2000
  147.1713  141.0929  153.6972 C   0  0  0  0  0  0  0  0  0  0  0  0
  148.4688  140.4637  154.1161 C   0  0  0  0  0  0  0  0  0  0  0  0
  149.5811  141.0923  154.7449 C   0  0  0  0  0  0  0  0  0  0  0  0
  150.5771  140.2550  154.9843 N   0  0  0  0  0  0  0  0  0  0  0  0
  150.1381  139.0655  154.5195 N   0  0  0  0  0  0  0  0  0  0  0  0
  150.9854  137.8893  154.6214 C   0  0  0  0  0  0  0  0  0  0  0  0
  150.2875  136.7386  155.3529 C   0  0  0  0  0  0  0  0  0  0  0  0
  150.5609  136.5059  156.5301 O   0  0  0  0  0  0  0  0  0  0  0  0
  149.4022  136.0140  154.6486 N   0  0  0  0  0  0  0  0  0  0  0  0
  148.6333  134.8951  155.1802 C   0  0  0  0  0  0  0  0  0  0  0  0
  147.2202  134.8403  154.5689 C   0  0  0  0  0  0  0  0  0  0  0  0
  147.2171  134.4126  153.1469 N   0  3  1  0  0  0  0  0  0  0  0  0
  148.0324  133.1917  152.9531 C   0  0  0  0  0  0  0  0  0  0  0  0
  145.8486  134.2457  152.5997 C   0  0  0  0  0  0  0  0  0  0  0  0
  145.7800  133.3762  151.3623 C   0  0  0  0  0  0  0  0  0  0  0  0
  145.6426  134.8745  151.2391 C   0  0  0  0  0  0  0  0  0  0  0  0
  148.8699  139.1643  153.9868 C   0  0  0  0  0  0  0  0  0  0  0  0
  146.8314  141.8352  154.4193 H   0  0  0  0  0  0  0  0  0  0  0  0
  146.3756  140.3541  153.5988 H   0  0  0  0  0  0  0  0  0  0  0  0
  147.2627  141.5973  152.7352 H   0  0  0  0  0  0  0  0  0  0  0  0
  149.6934  142.1273  155.0328 H   0  0  0  0  0  0  0  0  0  0  0  0
  151.2657  137.5651  153.6185 H   0  0  0  0  0  0  0  0  0  0  0  0
  151.9067  138.1606  155.1399 H   0  0  0  0  0  0  0  0  0  0  0  0
  149.2342  136.2727  153.6868 H   0  0  0  0  0  0  0  0  0  0  0  0
  149.1818  133.9711  154.9949 H   0  0  0  0  0  0  0  0  0  0  0  0
  148.5690  135.0090  156.2627 H   0  0  0  0  0  0  0  0  0  0  0  0
  146.6245  134.1369  155.1529 H   0  0  0  0  0  0  0  0  0  0  0  0
  146.7239  135.8084  154.6525 H   0  0  0  0  0  0  0  0  0  0  0  0
  147.6203  132.3549  153.5188 H   0  0  0  0  0  0  0  0  0  0  0  0
  149.0587  133.3553  153.2832 H   0  0  0  0  0  0  0  0  0  0  0  0
  148.0710  132.9046  151.9022 H   0  0  0  0  0  0  0  0  0  0  0  0
  145.0403  134.2098  153.3281 H   0  0  0  0  0  0  0  0  0  0  0  0
  146.6982  132.9293  150.9851 H   0  0  0  0  0  0  0  0  0  0  0  0
  144.8809  132.7808  151.2173 H   0  0  0  0  0  0  0  0  0  0  0  0
  144.6536  135.2688  151.0146 H   0  0  0  0  0  0  0  0  0  0  0  0
  146.4719  135.4156  150.7872 H   0  0  0  0  0  0  0  0  0  0  0  0
  148.3615  138.3096  153.5651 H   0  0  0  0  0  0  0  0  0  0  0  0
  147.6652  135.1448  152.6148 H   0  0  0  0  0  0  0  0  0  0  0  0
  1  2  1  0  0  0  0
  1 18  1  0  0  0  0
  1 19  1  0  0  0  0
  1 20  1  0  0  0  0
  2 17  2  0  0  0  0
  2  3  1  0  0  0  0
  3  4  2  0  0  0  0
  3 21  1  0  0  0  0
  4  5  1  0  0  0  0
  5  6  1  0  0  0  0
  5 17  1  0  0  0  0
  6  7  1  0  0  0  0
  6 22  1  0  0  0  0
  6 23  1  0  0  0  0
  7  8  2  0  0  0  0
  7  9  1  0  0  0  0
  9 10  1  0  0  0  0
  9 24  1  0  0  0  0
 10 11  1  0  0  0  0
 10 25  1  0  0  0  0
 10 26  1  0  0  0  0
 11 12  1  0  0  0  0
 11 27  1  0  0  0  0
 11 28  1  0  0  0  0
 12 13  1  0  0  0  0
 12 14  1  0  0  0  0
 12 38  1  0  0  0  0
 13 29  1  0  0  0  0
 13 30  1  0  0  0  0
 13 31  1  0  0  0  0
 14 16  1  0  0  0  0
 14 15  1  0  0  0  0
 14 32  1  0  0  0  0
 15 16  1  0  0  0  0
 15 33  1  0  0  0  0
 15 34  1  0  0  0  0
 16 35  1  0  0  0  0
 16 36  1  0  0  0  0
 17 37  1  0  0  0  0
M  CHG  1  12   1
M  END
> <s_m_source_file>
AV-unprocessed.smi

> <i_m_source_file_index>
3135

> <i_lp_mmshare_version>
43012

> <i_f3d_flags>
0

> <s_epik_input>
W0NIM11jMVtjSF1ubihbY0hdMSlbQ0gyXUMoPU8pW05IXVtDSDJdW0NIMl1OKFtDSDNdKVtDSF0yW0NIMl1bQ0gyXTI=

> <s_epik_cmdline>
J2VwaWtfcHl0aG9uJywgJy1waCcsICc3LjAnLCAnLXRuJywgJzgnLCAnLW1hJywgJzIwMCcsICctbWV0YWxfYmluZGluZycsICctaW1hZScsICc8aW5maWxlLm1hZT4nLCAnLW9tYWUnLCAnPG91dGZpbGUubWFlPic=

> <r_lp_tautomer_probability>
1

> <r_epik_Ionization_Penalty>
0.174318

> <r_epik_Ionization_Penalty_Charging>
0.174302

> <r_epik_Ionization_Penalty_Neutral>
1.62778e-05

> <r_epik_State_Penalty>
0.163722

> <r_epik_Charging_Adjusted_Penalty>
0.338024

> <i_epik_Tot_Q>
1

> <i_epik_Tot_abs_Q>
1

> <r_epik_Metal_State_Penalty>
0.163727

> <b_epik_Metal_Only>
0

> <s_lp_Force_Field>
OPLS_2005

> <r_lp_Energy>
17.6271

> <b_lp_Chiralities_Consistent>
1

> <s_lp_Variant>
AV-unprocessed.smi:3135-1

> <Gold.Version>
5.8.1

> <Gold.Id.Protein>
6NUR|6NUR_protein|mol2

> <Gold.PLP.Fitness>
47.0720

> <Gold.PLP.PLP>
-32.5249

> <Gold.PLP.part.hbond>
-3.1971

> <Gold.PLP.part.metal>
0.0000

> <Gold.PLP.part.buried>
-1.8850

> <Gold.PLP.part.nonpolar>
-26.6715

> <Gold.PLP.part.repulsive>
0.1313

> <Gold.PLP.ligand.clash>
0.0000

> <Gold.PLP.ligand.torsion>
1.3822

> <Gold.PLP.Chemscore.Hbond>
4.0000

> <Gold.PLP.Chemscore.CHOScore>
1.3316

> <Gold.PLP.Chemscore.Metal>
0.0000

> <Gold.Chemscore.Hbonds>
donor molecule, donor type, donor heavy atom, donor atom, acceptor molecule, acceptor atom, score
      L1  H     9    24       P1  7948  1.00
      L1  H    12    38       P1  7948  2.00
      P1  H  7989  7998       L1     4  0.70
      L1  C     3    21       P1  8028  0.38
      L1  C    17    37       P1  7948  0.49

> <Gold.PLP.Chemscore.Internal.Correction>
1.3169

> <Gold.Rescore>
     Score         DG    S(hbond)    S(metal)    S(lipo)     H(rot)  DE(clash)    DE(int)     intcor
     12.66     -14.03       1.90        0.00      61.54       1.96       0.02       1.35       ----

> <Gold.Chemscore.Fitness>
12.6575

> <Gold.Chemscore.DG>
-14.0261

> <Gold.Chemscore.ZeroCoef>
-5.4800

> <Gold.Chemscore.Hbond>
1.9018

> <Gold.Chemscore.Metal>
0.0000

> <Gold.Chemscore.Lipo>
61.5382

> <Gold.Chemscore.Internal_Hbond>
0.0000

> <Gold.Chemscore.DEClash>
0.0186

> <Gold.Chemscore.DEInternal>
1.3500

> <Gold.Chemscore.Rot>
1.9555

> <Gold.Chemscore.Internal.Correction>
   9.000000E+99

> <Gold.Chemscore.Hbonds>
donor molecule, donor type, donor heavy atom, donor atom, acceptor molecule, acceptor atom, score
      L1  H     9    24       P1  7948  0.90
      L1  H    12    38       P1  7948  0.99
      P1  H  7989  7998       L1     4  0.02

> <Gold.Chemscore.Hbond.Weighted>
-6.3521

> <Gold.Chemscore.Metal.Weighted>
-0.0000

> <Gold.Chemscore.Lipo.Weighted>
-7.2000

> <Gold.Chemscore.Internal_Hbond.Weighted>
0.0000

> <Gold.Chemscore.DEClash.Weighted>
0.0186

> <Gold.Chemscore.DEInternal.Weighted>
1.3500

> <Gold.Chemscore.Rot.Weighted>
5.0060

> <Gold.Chemscore.Internal.Correction.Weighted>
   9.000000E+99

> <Gold.Protein.RotatedTorsions>
[ 6907 6896 6895 6894 ] final  -88.91 input  -60.11 | X-H torsion
[ 7974 7965 7964 7962 ] final -130.44 input  175.53 | X-H torsion
[ 8008 7997 7996 7995 ] final  -75.90 input   59.86 | X-H torsion
[ 10167 10162 10161 10158 ] final  104.38 input  -65.29 | X-H torsion
[ 10718 10713 10712 10709 ] final -168.20 input   66.30 | X-H torsion
[ 10763 10752 10751 10750 ] final  137.06 input  -60.55 | X-H torsion
[ 11005 11000 10999 10996 ] final -149.31 input  -57.11 | X-H torsion

> <Gold.Protein.ActiveResidues>
 VAL166  LYS551  ARG553  GLY616  TRP617  ASP618  TYR619  PRO620  LYS621  CYS622 
 ASP623  PHE694  ASN695  SER759  ASP760  ASP761  ALA762  ILE779  LEU786  VAL792 
 PHE793  MET794  SER795  GLU796  ALA797  LYS798  CYS799  TRP800  GLU811  SER814 

> <Gold.Protein.RotatedAtoms>
  150.6871  134.2669  159.4572 H   0  0  0  0  0  0  0  0  0  0  0  0  # atno 6907 bound_to 6896
  152.0595  134.9601  160.0584 H   0  0  0  0  0  0  0  0  0  0  0  0  # atno 6908 bound_to 6896
  152.1033  133.4227  159.4634 H   0  0  0  0  0  0  0  0  0  0  0  0  # atno 6909 bound_to 6896
  144.9474  140.7307  143.4809 H   0  0  0  0  0  0  0  0  0  0  0  0  # atno 7974 bound_to 7965
  154.5457  140.0736  156.8585 H   0  0  0  0  0  0  0  0  0  0  0  0  # atno 8008 bound_to 7997
  155.3092  140.3389  155.4226 H   0  0  0  0  0  0  0  0  0  0  0  0  # atno 8009 bound_to 7997
  156.1916  140.1688  156.8067 H   0  0  0  0  0  0  0  0  0  0  0  0  # atno 8010 bound_to 7997
  139.7182  144.7064  151.0915 H   0  0  0  0  0  0  0  0  0  0  0  0  # atno 10167 bound_to 10162
  156.6934  130.9168  151.3071 H   0  0  0  0  0  0  0  0  0  0  0  0  # atno 10718 bound_to 10713
  153.8669  135.3060  155.3440 H   0  0  0  0  0  0  0  0  0  0  0  0  # atno 10763 bound_to 10752
  154.7823  135.4828  153.9875 H   0  0  0  0  0  0  0  0  0  0  0  0  # atno 10764 bound_to 10752
  153.1429  135.6828  153.9095 H   0  0  0  0  0  0  0  0  0  0  0  0  # atno 10765 bound_to 10752
  140.7521  134.3395  157.5123 H   0  0  0  0  0  0  0  0  0  0  0  0  # atno 11005 bound_to 11000
  145.2896  139.1888  143.4747 LP  0  0  0  0  0  0  0  0  0  0  0  0  # atno 17320 bound_to 7965
  146.3308  140.2871  142.8613 LP  0  0  0  0  0  0  0  0  0  0  0  0  # atno 17321 bound_to 7965
  140.7748  143.5201  150.9547 LP  0  0  0  0  0  0  0  0  0  0  0  0  # atno 17342 bound_to 10162
  139.8887  143.6980  152.3148 LP  0  0  0  0  0  0  0  0  0  0  0  0  # atno 17343 bound_to 10162
  157.7000  130.9323  150.0758 LP  0  0  0  0  0  0  0  0  0  0  0  0  # atno 17370 bound_to 10713
  156.1781  130.3649  149.9073 LP  0  0  0  0  0  0  0  0  0  0  0  0  # atno 17371 bound_to 10713
  139.8786  134.9148  156.3117 LP  0  0  0  0  0  0  0  0  0  0  0  0  # atno 17394 bound_to 11000
  140.9741  133.7308  156.0577 LP  0  0  0  0  0  0  0  0  0  0  0  0  # atno 17395 bound_to 11000

$$$$
