AV-unprocessed.smi:54|AV-procd|sdf|559|dock2
  -GOLD-   2262016463D 1   1.00000     0.00000
 Structure written by MMmdl.
 43 45  0  0  0  0  0  0  0  0  2 V2000
  145.5898  136.5661  161.4779 C   0  0  0  0  0  0  0  0  0  0  0  0
  146.6527  135.6609  160.8336 C   0  0  0  0  0  0  0  0  0  0  0  0
  146.8432  134.3640  161.6375 C   0  0  0  0  0  0  0  0  0  0  0  0
  147.9853  136.4086  160.6841 C   0  0  0  0  0  0  0  0  0  0  0  0
  148.5935  136.7596  161.6975 O   0  0  0  0  0  0  0  0  0  0  0  0
  148.3794  136.6349  159.4115 N   0  0  0  0  0  0  0  0  0  0  0  0
  149.5209  137.2962  158.9449 C   0  0  0  0  0  0  0  0  0  0  0  0
  149.2425  138.2983  158.1477 N   0  0  0  0  0  0  0  0  0  0  0  0
  150.3723  138.9391  157.6770 C   0  0  0  0  0  0  0  0  0  0  0  0
  151.6778  138.6294  157.9460 C   0  0  0  0  0  0  0  0  0  0  0  0
  152.5509  139.4894  157.2914 N   0  0  0  0  0  0  0  0  0  0  0  0
  151.7127  140.2962  156.6441 C   0  0  0  0  0  0  0  0  0  0  0  0
  150.4018  140.0358  156.8171 N   0  0  0  0  0  0  0  0  0  0  0  0
  149.2690  140.7942  156.1900 C   0  0  2  0  0  0  0  0  0  0  0  0
  148.0587  140.1610  156.4918 O   0  0  0  0  0  0  0  0  0  0  0  0
  147.4044  139.7324  155.2977 C   0  0  1  0  0  0  0  0  0  0  0  0
  145.8815  139.7666  155.4968 C   0  0  0  0  0  0  0  0  0  0  0  0
  145.2326  139.2166  154.3700 O   0  0  0  0  0  0  0  0  0  0  0  0
  147.9122  140.7366  154.2620 C   0  0  2  0  0  0  0  0  0  0  0  0
  147.7455  140.3003  152.9268 O   0  0  0  0  0  0  0  0  0  0  0  0
  149.3741  140.8927  154.6558 C   0  0  2  0  0  0  0  0  0  0  0  0
  150.2000  139.8947  154.0737 O   0  0  0  0  0  0  0  0  0  0  0  0
  151.9240  137.4762  158.8437 C   0  0  0  0  0  0  0  0  0  0  0  0
  153.0825  137.1608  159.1087 O   0  0  0  0  0  0  0  0  0  0  0  0
  150.8052  136.8452  159.3091 N   0  5  0  0  0  0  0  0  0  0  0  0
  149.2845  141.7695  156.6784 H   0  0  0  0  0  0  0  0  0  0  0  0
  147.7422  138.7307  155.0268 H   0  0  0  0  0  0  0  0  0  0  0  0
  147.3976  141.6900  154.3928 H   0  0  0  0  0  0  0  0  0  0  0  0
  149.7677  141.8706  154.3769 H   0  0  0  0  0  0  0  0  0  0  0  0
  145.4576  137.4877  160.9097 H   0  0  0  0  0  0  0  0  0  0  0  0
  145.8598  136.8399  162.4986 H   0  0  0  0  0  0  0  0  0  0  0  0
  144.6227  136.0643  161.5160 H   0  0  0  0  0  0  0  0  0  0  0  0
  146.2976  135.3864  159.8388 H   0  0  0  0  0  0  0  0  0  0  0  0
  147.6037  133.7260  161.1858 H   0  0  0  0  0  0  0  0  0  0  0  0
  145.9165  133.7910  161.6758 H   0  0  0  0  0  0  0  0  0  0  0  0
  147.1470  134.5688  162.6648 H   0  0  0  0  0  0  0  0  0  0  0  0
  147.7206  136.3398  158.7063 H   0  0  0  0  0  0  0  0  0  0  0  0
  152.0643  141.1026  156.0177 H   0  0  0  0  0  0  0  0  0  0  0  0
  145.5873  139.2364  156.4030 H   0  0  0  0  0  0  0  0  0  0  0  0
  145.5387  140.7965  155.5987 H   0  0  0  0  0  0  0  0  0  0  0  0
  144.6993  139.8881  153.9727 H   0  0  0  0  0  0  0  0  0  0  0  0
  148.5963  140.2894  152.5146 H   0  0  0  0  0  0  0  0  0  0  0  0
  149.6543  139.2983  153.5840 H   0  0  0  0  0  0  0  0  0  0  0  0
  1  2  1  0  0  0  0
  1 30  1  0  0  0  0
  1 31  1  0  0  0  0
  1 32  1  0  0  0  0
  2  3  1  0  0  0  0
  2  4  1  0  0  0  0
  2 33  1  0  0  0  0
  3 34  1  0  0  0  0
  3 35  1  0  0  0  0
  3 36  1  0  0  0  0
  4  5  2  0  0  0  0
  4  6  1  0  0  0  0
  6 37  1  0  0  0  0
  6  7  1  0  0  0  0
  7 25  1  0  0  0  0
  7  8  2  0  0  0  0
  8  9  1  0  0  0  0
  9 13  1  0  0  0  0
  9 10  2  0  0  0  0
 10 11  1  0  0  0  0
 10 23  1  0  0  0  0
 11 12  2  0  0  0  0
 12 13  1  0  0  0  0
 12 38  1  0  0  0  0
 13 14  1  0  0  0  0
 14 26  1  0  0  0  0
 14 21  1  0  0  0  0
 14 15  1  0  0  0  0
 15 16  1  0  0  0  0
 16 27  1  0  0  0  0
 16 17  1  0  0  0  0
 16 19  1  0  0  0  0
 17 18  1  0  0  0  0
 17 39  1  0  0  0  0
 17 40  1  0  0  0  0
 18 41  1  0  0  0  0
 19 28  1  0  0  0  0
 19 20  1  0  0  0  0
 19 21  1  0  0  0  0
 20 42  1  0  0  0  0
 21 29  1  0  0  0  0
 21 22  1  0  0  0  0
 22 43  1  0  0  0  0
 23 24  2  0  0  0  0
 23 25  1  0  0  0  0
M  CHG  1  25  -1
M  END
> <s_m_source_file>
AV-unprocessed.smi

> <i_m_source_file_index>
54

> <i_lp_mmshare_version>
43012

> <i_f3d_flags>
0

> <s_epik_input>
W0NIM11bQ0hdKFtDSDNdKUMoPU8pW05IXWMobjEpW25IXWMoPU8pYyhjMTIpbltjSF1uMltDQEBIXTNPW0NASF0oW0NIMl1bT0hdKVtDQEBIXShbT0hdKVtDQEhdM1tPSF0=

> <s_epik_cmdline>
J2VwaWtfcHl0aG9uJywgJy1waCcsICc3LjAnLCAnLXRuJywgJzgnLCAnLW1hJywgJzIwMCcsICctbWV0YWxfYmluZGluZycsICctaW1hZScsICc8aW5maWxlLm1hZT4nLCAnLW9tYWUnLCAnPG91dGZpbGUubWFlPic=

> <r_lp_tautomer_probability>
0.85571

> <r_epik_Ionization_Penalty>
1.75936

> <r_epik_Ionization_Penalty_Charging>
4.55893e-11

> <r_epik_Ionization_Penalty_Neutral>
1.75936

> <r_epik_State_Penalty>
1.72072

> <r_epik_Charging_Adjusted_Penalty>
1.72072

> <i_epik_Tot_Q>
-1

> <i_epik_Tot_abs_Q>
1

> <r_epik_Metal_State_Penalty>
0.400338

> <b_epik_Metal_Only>
1

> <s_epik_Chemistry_Notes>
This compound contains an acetal/aminal-like group ( X-CH(R)-Y where X, Y are N, S, or O) that may be acid/base labile, releasing an aldehyde.

> <s_lp_Force_Field>
OPLS_2005

> <r_lp_Energy>
68.2846

> <b_lp_Chiralities_Consistent>
1

> <s_lp_Variant>
AV-unprocessed.smi:54-31

> <Gold.Version>
5.8.1

> <Gold.Id.Protein>
6NUR|6NUR_protein|mol2

> <Gold.PLP.Fitness>
51.1100

> <Gold.PLP.PLP>
-31.6772

> <Gold.PLP.part.hbond>
-6.9197

> <Gold.PLP.part.metal>
0.0000

> <Gold.PLP.part.buried>
-7.1503

> <Gold.PLP.part.nonpolar>
-19.3287

> <Gold.PLP.part.repulsive>
0.1952

> <Gold.PLP.ligand.clash>
0.0000

> <Gold.PLP.ligand.torsion>
0.6776

> <Gold.PLP.Chemscore.Hbond>
6.9183

> <Gold.PLP.Chemscore.CHOScore>
0.0000

> <Gold.PLP.Chemscore.Metal>
0.0000

> <Gold.Chemscore.Hbonds>
donor molecule, donor type, donor heavy atom, donor atom, acceptor molecule, acceptor atom, score
      L1  H    18    41       P1 10175  0.98
      L1  H    20    42       P1  7957  1.00
      P1  H  6896  6909       L1    25  2.00
      P1  H  6931  6943       L1     5  1.00
      P1  H  7989  7998       L1    22  1.00
      P1  H  7997  8009       L1    11  1.00

> <Gold.PLP.Chemscore.Internal.Correction>
0.0331

> <Gold.Rescore>
     Score         DG    S(hbond)    S(metal)    S(lipo)     H(rot)  DE(clash)    DE(int)     intcor
     15.06     -18.48       5.62        0.00      38.63       4.02       0.04       3.38       ----

> <Gold.Chemscore.Fitness>
15.0649

> <Gold.Chemscore.DG>
-18.4784

> <Gold.Chemscore.ZeroCoef>
-5.4800

> <Gold.Chemscore.Hbond>
5.6193

> <Gold.Chemscore.Metal>
0.0000

> <Gold.Chemscore.Lipo>
38.6259

> <Gold.Chemscore.Internal_Hbond>
0.0000

> <Gold.Chemscore.DEClash>
0.0354

> <Gold.Chemscore.DEInternal>
3.3781

> <Gold.Chemscore.Rot>
4.0192

> <Gold.Chemscore.Internal.Correction>
   9.000000E+99

> <Gold.Chemscore.Hbonds>
donor molecule, donor type, donor heavy atom, donor atom, acceptor molecule, acceptor atom, score
      L1  H    18    41       P1 10175  0.93
      L1  H    20    42       P1  7957  0.95
      P1  H  6896  6909       L1    25  0.86
      P1  H  6931  6943       L1     5  0.95
      P1  H  7989  7998       L1    22  0.33
      P1  H  7997  8009       L1    11  0.32

> <Gold.Chemscore.Hbond.Weighted>
-18.7684

> <Gold.Chemscore.Metal.Weighted>
-0.0000

> <Gold.Chemscore.Lipo.Weighted>
-4.5192

> <Gold.Chemscore.Internal_Hbond.Weighted>
0.0000

> <Gold.Chemscore.DEClash.Weighted>
0.0354

> <Gold.Chemscore.DEInternal.Weighted>
3.3781

> <Gold.Chemscore.Rot.Weighted>
10.2893

> <Gold.Chemscore.Internal.Correction.Weighted>
   9.000000E+99

> <Gold.Protein.RotatedTorsions>
[ 6907 6896 6895 6894 ] final   81.31 input  -60.11 | X-H torsion
[ 7974 7965 7964 7962 ] final   65.06 input  175.53 | X-H torsion
[ 8008 7997 7996 7995 ] final -176.57 input   59.86 | X-H torsion
[ 10167 10162 10161 10158 ] final  145.60 input  -65.29 | X-H torsion
[ 10718 10713 10712 10709 ] final -164.25 input   66.30 | X-H torsion
[ 10763 10752 10751 10750 ] final  170.88 input  -60.55 | X-H torsion
[ 11005 11000 10999 10996 ] final  -53.84 input  -57.11 | X-H torsion

> <Gold.Protein.ActiveResidues>
 VAL166  LYS551  ARG553  GLY616  TRP617  ASP618  TYR619  PRO620  LYS621  CYS622 
 ASP623  PHE694  ASN695  SER759  ASP760  ASP761  ALA762  ILE779  LEU786  VAL792 
 PHE793  MET794  SER795  GLU796  ALA797  LYS798  CYS799  TRP800  GLU811  SER814 

> <Gold.Protein.RotatedAtoms>
  152.5264  134.3223  159.9152 H   0  0  0  0  0  0  0  0  0  0  0  0  # atno 6907 bound_to 6896
  151.3173  133.4048  159.2659 H   0  0  0  0  0  0  0  0  0  0  0  0  # atno 6908 bound_to 6896
  150.9989  134.9323  159.7999 H   0  0  0  0  0  0  0  0  0  0  0  0  # atno 6909 bound_to 6896
  145.8429  139.3206  143.0921 H   0  0  0  0  0  0  0  0  0  0  0  0  # atno 7974 bound_to 7965
  155.9964  140.1211  157.0589 H   0  0  0  0  0  0  0  0  0  0  0  0  # atno 8008 bound_to 7997
  154.4228  140.1115  156.5705 H   0  0  0  0  0  0  0  0  0  0  0  0  # atno 8009 bound_to 7997
  155.6273  140.3472  155.4673 H   0  0  0  0  0  0  0  0  0  0  0  0  # atno 8010 bound_to 7997
  139.4923  144.5890  151.6719 H   0  0  0  0  0  0  0  0  0  0  0  0  # atno 10167 bound_to 10162
  156.6363  130.8950  151.2987 H   0  0  0  0  0  0  0  0  0  0  0  0  # atno 10718 bound_to 10713
  154.4039  135.2755  155.2079 H   0  0  0  0  0  0  0  0  0  0  0  0  # atno 10763 bound_to 10752
  154.4094  135.6026  153.5947 H   0  0  0  0  0  0  0  0  0  0  0  0  # atno 10764 bound_to 10752
  152.9831  135.5945  154.4310 H   0  0  0  0  0  0  0  0  0  0  0  0  # atno 10765 bound_to 10752
  141.0996  133.6620  156.4232 H   0  0  0  0  0  0  0  0  0  0  0  0  # atno 11005 bound_to 11000
  145.9445  140.8955  143.0291 LP  0  0  0  0  0  0  0  0  0  0  0  0  # atno 17320 bound_to 7965
  144.6732  140.1594  143.7423 LP  0  0  0  0  0  0  0  0  0  0  0  0  # atno 17321 bound_to 7965
  140.5513  144.0421  150.6128 LP  0  0  0  0  0  0  0  0  0  0  0  0  # atno 17342 bound_to 10162
  140.3476  143.2982  152.0522 LP  0  0  0  0  0  0  0  0  0  0  0  0  # atno 17343 bound_to 10162
  157.7185  130.9527  150.1345 LP  0  0  0  0  0  0  0  0  0  0  0  0  # atno 17370 bound_to 10713
  156.2194  130.3673  149.8574 LP  0  0  0  0  0  0  0  0  0  0  0  0  # atno 17371 bound_to 10713
  140.5055  134.6445  157.5265 LP  0  0  0  0  0  0  0  0  0  0  0  0  # atno 17394 bound_to 11000
  139.9843  134.7086  155.9802 LP  0  0  0  0  0  0  0  0  0  0  0  0  # atno 17395 bound_to 11000

$$$$
