AV-unprocessed.smi:560|AV-procd|sdf|2931|dock6
  -GOLD-   2262023423D 1   1.00000     0.00000
 Structure written by MMmdl.
 42 43  0  0  0  0  0  0  0  0  2 V2000
  149.5563  139.7972  158.1531 C   0  0  0  0  0  0  0  0  0  0  0  0
  150.6011  140.3706  157.1741 C   0  0  1  0  0  0  0  0  0  0  0  0
  150.0773  140.4700  155.7321 C   0  0  0  0  0  0  0  0  0  0  0  0
  150.8548  140.4829  154.7772 O   0  0  0  0  0  0  0  0  0  0  0  0
  148.7441  140.5449  155.5896 N   0  0  0  0  0  0  0  0  0  0  0  0
  148.0311  140.6194  154.3153 C   0  0  2  0  0  0  0  0  0  0  0  0
  147.3973  142.0066  154.0895 C   0  0  0  0  0  0  0  0  0  0  0  0
  146.2090  142.2555  155.0341 C   0  0  0  0  0  0  0  0  0  0  0  0
  145.1843  141.1864  154.8961 N   0  3  2  0  0  0  0  0  0  0  0  0
  143.9521  141.4557  155.6815 C   0  0  0  0  0  0  0  0  0  0  0  0
  143.0448  140.2278  155.8121 C   0  0  0  0  0  0  0  0  0  0  0  0
  142.6085  139.6771  154.6770 N   0  0  0  0  0  0  0  0  0  0  0  0
  142.7292  139.7895  156.9167 O   0  0  0  0  0  0  0  0  0  0  0  0
  145.7544  139.8440  155.1772 C   0  0  0  0  0  0  0  0  0  0  0  0
  146.9420  139.5346  154.2465 C   0  0  0  0  0  0  0  0  0  0  0  0
  151.1187  141.6605  157.6172 N   0  0  0  0  0  0  0  0  0  0  0  0
  150.9467  142.8940  157.0221 C   0  0  0  0  0  0  0  0  0  0  0  0
  151.5752  143.8194  157.8049 C   0  0  0  0  0  0  0  0  0  0  0  0
  152.1034  143.0506  158.8787 C   0  0  0  0  0  0  0  0  0  0  0  0
  151.8220  141.7629  158.7690 N   0  0  0  0  0  0  0  0  0  0  0  0
  149.2251  138.8068  157.8389 H   0  0  0  0  0  0  0  0  0  0  0  0
  148.6721  140.4318  158.2284 H   0  0  0  0  0  0  0  0  0  0  0  0
  149.9761  139.6978  159.1543 H   0  0  0  0  0  0  0  0  0  0  0  0
  151.4419  139.6753  157.1615 H   0  0  0  0  0  0  0  0  0  0  0  0
  148.1813  140.5186  156.4273 H   0  0  0  0  0  0  0  0  0  0  0  0
  148.7513  140.4268  153.5178 H   0  0  0  0  0  0  0  0  0  0  0  0
  148.1406  142.7957  154.2078 H   0  0  0  0  0  0  0  0  0  0  0  0
  147.0497  142.0759  153.0579 H   0  0  0  0  0  0  0  0  0  0  0  0
  146.5521  142.3037  156.0687 H   0  0  0  0  0  0  0  0  0  0  0  0
  145.7718  143.2277  154.8048 H   0  0  0  0  0  0  0  0  0  0  0  0
  144.2206  141.7529  156.6961 H   0  0  0  0  0  0  0  0  0  0  0  0
  143.4050  142.2925  155.2439 H   0  0  0  0  0  0  0  0  0  0  0  0
  142.0110  138.8634  154.7021 H   0  0  0  0  0  0  0  0  0  0  0  0
  142.8825  140.0760  153.7901 H   0  0  0  0  0  0  0  0  0  0  0  0
  146.0639  139.7905  156.2222 H   0  0  0  0  0  0  0  0  0  0  0  0
  144.9868  139.0824  155.0364 H   0  0  0  0  0  0  0  0  0  0  0  0
  146.5779  139.4606  153.2207 H   0  0  0  0  0  0  0  0  0  0  0  0
  147.3644  138.5583  154.4879 H   0  0  0  0  0  0  0  0  0  0  0  0
  150.3969  143.0102  156.0999 H   0  0  0  0  0  0  0  0  0  0  0  0
  151.6444  144.8840  157.6382 H   0  0  0  0  0  0  0  0  0  0  0  0
  152.6745  143.3876  159.7311 H   0  0  0  0  0  0  0  0  0  0  0  0
  144.8990  141.1761  153.9267 H   0  0  0  0  0  0  0  0  0  0  0  0
  1  2  1  0  0  0  0
  1 21  1  0  0  0  0
  1 22  1  0  0  0  0
  1 23  1  0  0  0  0
  2  3  1  0  0  0  0
  2 16  1  0  0  0  0
  2 24  1  0  0  0  0
  3  4  2  0  0  0  0
  3  5  1  0  0  0  0
  5  6  1  0  0  0  0
  5 25  1  0  0  0  0
  6 15  1  0  0  0  0
  6  7  1  0  0  0  0
  6 26  1  0  0  0  0
  7  8  1  0  0  0  0
  7 27  1  0  0  0  0
  7 28  1  0  0  0  0
  8  9  1  0  0  0  0
  8 29  1  0  0  0  0
  8 30  1  0  0  0  0
  9 10  1  0  0  0  0
  9 14  1  0  0  0  0
  9 42  1  0  0  0  0
 10 11  1  0  0  0  0
 10 31  1  0  0  0  0
 10 32  1  0  0  0  0
 11 12  1  0  0  0  0
 11 13  2  0  0  0  0
 12 33  1  0  0  0  0
 12 34  1  0  0  0  0
 14 15  1  0  0  0  0
 14 35  1  0  0  0  0
 14 36  1  0  0  0  0
 15 37  1  0  0  0  0
 15 38  1  0  0  0  0
 16 20  1  0  0  0  0
 16 17  1  0  0  0  0
 17 18  2  0  0  0  0
 17 39  1  0  0  0  0
 18 19  1  0  0  0  0
 18 40  1  0  0  0  0
 19 20  2  0  0  0  0
 19 41  1  0  0  0  0
M  CHG  1   9   1
M  END
> <s_m_source_file>
AV-unprocessed.smi

> <i_m_source_file_index>
560

> <i_lp_mmshare_version>
43012

> <i_f3d_flags>
0

> <s_epik_input>
bjFbY0hdW2NIXVtjSF1uMVtDQEhdKFtDSDNdKUMoPU8pW05IXVtDSF0yW0NIMl1bQ0gyXU4oW0NIMl1bQ0gyXTIpW0NIMl1DKD1PKVtOSDJd

> <s_epik_cmdline>
J2VwaWtfcHl0aG9uJywgJy1waCcsICc3LjAnLCAnLXRuJywgJzgnLCAnLW1hJywgJzIwMCcsICctbWV0YWxfYmluZGluZycsICctaW1hZScsICc8aW5maWxlLm1hZT4nLCAnLW9tYWUnLCAnPG91dGZpbGUubWFlPic=

> <r_lp_tautomer_probability>
1

> <r_epik_Ionization_Penalty>
1.02943

> <r_epik_Ionization_Penalty_Charging>
1.02936

> <r_epik_Ionization_Penalty_Neutral>
7.4537e-05

> <r_epik_State_Penalty>
1.08036

> <r_epik_Charging_Adjusted_Penalty>
2.10972

> <i_epik_Tot_Q>
1

> <i_epik_Tot_abs_Q>
1

> <r_epik_Metal_State_Penalty>
1.09347

> <b_epik_Metal_Only>
0

> <s_lp_Force_Field>
OPLS_2005

> <r_lp_Energy>
15.8217

> <b_lp_Chiralities_Consistent>
1

> <s_lp_Variant>
AV-unprocessed.smi:560-6

> <Gold.Version>
5.8.1

> <Gold.Id.Protein>
6NUR|6NUR_protein|mol2

> <Gold.PLP.Fitness>
41.1627

> <Gold.PLP.PLP>
-28.3317

> <Gold.PLP.part.hbond>
-2.8239

> <Gold.PLP.part.metal>
0.0000

> <Gold.PLP.part.buried>
-3.6893

> <Gold.PLP.part.nonpolar>
-23.6173

> <Gold.PLP.part.repulsive>
0.1499

> <Gold.PLP.ligand.clash>
0.0000

> <Gold.PLP.ligand.torsion>
0.9608

> <Gold.PLP.Chemscore.Hbond>
3.9913

> <Gold.PLP.Chemscore.CHOScore>
0.8835

> <Gold.PLP.Chemscore.Metal>
0.0000

> <Gold.Chemscore.Hbonds>
donor molecule, donor type, donor heavy atom, donor atom, acceptor molecule, acceptor atom, score
      L1  H     9    42       P1 10175  1.98
      L1  H    12    34       P1 10175  0.99
      P1  H  7989  7998       L1     4  1.00
      L1  C    17    39       P1  8028  0.90

> <Gold.PLP.Chemscore.Internal.Correction>
0.1282

> <Gold.Rescore>
     Score         DG    S(hbond)    S(metal)    S(lipo)     H(rot)  DE(clash)    DE(int)     intcor
     15.36     -16.23       2.90        0.00      64.46       2.52       0.05       0.83       ----

> <Gold.Chemscore.Fitness>
15.3591

> <Gold.Chemscore.DG>
-16.2323

> <Gold.Chemscore.ZeroCoef>
-5.4800

> <Gold.Chemscore.Hbond>
2.8961

> <Gold.Chemscore.Metal>
0.0000

> <Gold.Chemscore.Lipo>
64.4576

> <Gold.Chemscore.Internal_Hbond>
0.0000

> <Gold.Chemscore.DEClash>
0.0457

> <Gold.Chemscore.DEInternal>
0.8275

> <Gold.Chemscore.Rot>
2.5243

> <Gold.Chemscore.Internal.Correction>
   9.000000E+99

> <Gold.Chemscore.Hbonds>
donor molecule, donor type, donor heavy atom, donor atom, acceptor molecule, acceptor atom, score
      L1  H     9    42       P1 10175  0.59
      L1  H    12    34       P1 10175  0.92
      P1  H  7989  7998       L1     4  0.92

> <Gold.Chemscore.Hbond.Weighted>
-9.6730

> <Gold.Chemscore.Metal.Weighted>
-0.0000

> <Gold.Chemscore.Lipo.Weighted>
-7.5415

> <Gold.Chemscore.Internal_Hbond.Weighted>
0.0000

> <Gold.Chemscore.DEClash.Weighted>
0.0457

> <Gold.Chemscore.DEInternal.Weighted>
0.8275

> <Gold.Chemscore.Rot.Weighted>
6.4622

> <Gold.Chemscore.Internal.Correction.Weighted>
   9.000000E+99

> <Gold.Protein.RotatedTorsions>
[ 6907 6896 6895 6894 ] final  -27.27 input  -60.11 | X-H torsion
[ 7974 7965 7964 7962 ] final  -33.79 input  175.53 | X-H torsion
[ 8008 7997 7996 7995 ] final   45.25 input   59.86 | X-H torsion
[ 10167 10162 10161 10158 ] final   49.62 input  -65.29 | X-H torsion
[ 10718 10713 10712 10709 ] final  -24.25 input   66.30 | X-H torsion
[ 10763 10752 10751 10750 ] final   88.87 input  -60.55 | X-H torsion
[ 11005 11000 10999 10996 ] final  123.37 input  -57.11 | X-H torsion

> <Gold.Protein.ActiveResidues>
 VAL166  LYS551  ARG553  GLY616  TRP617  ASP618  TYR619  PRO620  LYS621  CYS622 
 ASP623  PHE694  ASN695  SER759  ASP760  ASP761  ALA762  ILE779  LEU786  VAL792 
 PHE793  MET794  SER795  GLU796  ALA797  LYS798  CYS799  TRP800  GLU811  SER814 

> <Gold.Protein.RotatedAtoms>
  151.1493  135.0219  159.8660 H   0  0  0  0  0  0  0  0  0  0  0  0  # atno 6907 bound_to 6896
  152.5453  134.1407  159.8488 H   0  0  0  0  0  0  0  0  0  0  0  0  # atno 6908 bound_to 6896
  151.1491  133.4874  159.2628 H   0  0  0  0  0  0  0  0  0  0  0  0  # atno 6909 bound_to 6896
  146.0882  140.5959  142.8876 H   0  0  0  0  0  0  0  0  0  0  0  0  # atno 7974 bound_to 7965
  155.3327  140.3403  155.4239 H   0  0  0  0  0  0  0  0  0  0  0  0  # atno 8008 bound_to 7997
  156.1853  140.1678  156.8233 H   0  0  0  0  0  0  0  0  0  0  0  0  # atno 8009 bound_to 7997
  154.5379  140.0731  156.8443 H   0  0  0  0  0  0  0  0  0  0  0  0  # atno 8010 bound_to 7997
  140.2810  144.3157  150.6264 H   0  0  0  0  0  0  0  0  0  0  0  0  # atno 10167 bound_to 10162
  156.4802  130.4543  149.6816 H   0  0  0  0  0  0  0  0  0  0  0  0  # atno 10718 bound_to 10713
  153.1813  135.4491  155.0031 H   0  0  0  0  0  0  0  0  0  0  0  0  # atno 10763 bound_to 10752
  154.8032  135.3264  154.7501 H   0  0  0  0  0  0  0  0  0  0  0  0  # atno 10764 bound_to 10752
  153.7965  135.6966  153.4918 H   0  0  0  0  0  0  0  0  0  0  0  0  # atno 10765 bound_to 10752
  139.9309  134.9641  156.8249 H   0  0  0  0  0  0  0  0  0  0  0  0  # atno 11005 bound_to 11000
  144.7341  140.4757  143.6916 LP  0  0  0  0  0  0  0  0  0  0  0  0  # atno 17320 bound_to 7965
  145.6089  139.1511  143.3087 LP  0  0  0  0  0  0  0  0  0  0  0  0  # atno 17321 bound_to 7965
  140.5812  143.2172  151.7425 LP  0  0  0  0  0  0  0  0  0  0  0  0  # atno 17342 bound_to 10162
  139.4963  144.4078  152.0113 LP  0  0  0  0  0  0  0  0  0  0  0  0  # atno 17343 bound_to 10162
  156.3529  130.7441  151.2403 LP  0  0  0  0  0  0  0  0  0  0  0  0  # atno 17370 bound_to 10713
  157.7484  131.0372  150.4444 LP  0  0  0  0  0  0  0  0  0  0  0  0  # atno 17371 bound_to 10713
  140.6204  133.9999  155.7616 LP  0  0  0  0  0  0  0  0  0  0  0  0  # atno 17394 bound_to 11000
  141.0897  133.9935  157.3256 LP  0  0  0  0  0  0  0  0  0  0  0  0  # atno 17395 bound_to 11000

$$$$
