AV-unprocessed.smi:200|AV-procd|sdf|1577|dock8
  -GOLD-   2262019463D 1   1.00000     0.00000
 Structure written by MMmdl.
 56 59  0  0  0  0  0  0  0  0  1 V2000
  152.3236  138.4209  155.0296 C   0  0  0  0  0  0  0  0  0  0  0  0
  152.9948  138.8051  156.2161 O   0  0  0  0  0  0  0  0  0  0  0  0
  152.5264  138.1058  157.3572 C   0  0  0  0  0  0  0  0  0  0  0  0
  151.5320  138.9977  158.1131 C   0  0  0  0  0  0  0  0  0  0  0  0
  151.3254  140.2901  157.4582 N   0  0  0  0  0  0  0  0  0  0  0  0
  150.3782  140.2624  156.4922 C   0  0  0  0  0  0  0  0  0  0  0  0
  150.6880  140.6499  155.2272 N   0  0  0  0  0  0  0  0  0  0  0  0
  149.7515  140.6220  154.2741 C   0  0  0  0  0  0  0  0  0  0  0  0
  148.4723  140.2521  154.3703 N   0  0  0  0  0  0  0  0  0  0  0  0
  148.1593  139.8695  155.6417 C   0  0  0  0  0  0  0  0  0  0  0  0
  149.0452  139.8505  156.7545 C   0  0  0  0  0  0  0  0  0  0  0  0
  148.3779  139.4149  157.8915 N   0  0  0  0  0  0  0  0  0  0  0  0
  147.1624  139.1879  157.4743 C   0  0  0  0  0  0  0  0  0  0  0  0
  146.9455  139.4220  156.1341 N   0  0  0  0  0  0  0  0  0  0  0  0
  145.6922  139.2438  155.4166 C   0  0  0  0  0  0  0  0  0  0  0  0
  145.7658  138.2320  154.2534 C   0  0  0  0  0  0  0  0  0  0  0  0
  146.5237  138.8264  153.0528 C   0  0  0  0  0  0  0  0  0  0  0  0
  146.5614  137.9235  151.9661 O   0  0  0  0  0  0  0  0  0  0  0  0
  146.1867  136.8066  154.6370 C   0  0  0  0  0  0  0  0  0  0  0  0
  145.0544  136.2280  153.9548 O   0  0  0  0  0  0  0  0  0  0  0  0
  144.4479  137.5354  153.8853 C   0  0  0  0  0  0  0  0  0  0  0  0
  151.4304  141.5135  158.2674 C   0  0  1  0  0  0  0  0  0  0  0  0
  152.5225  141.5289  159.3485 C   0  0  0  0  0  0  0  0  0  0  0  0
  152.7005  143.0111  159.7060 C   0  0  0  0  0  0  0  0  0  0  0  0
  152.0442  143.8213  158.5700 C   0  0  1  0  0  0  0  0  0  0  0  0
  152.9008  144.9895  158.0644 C   0  0  0  0  0  0  0  0  0  0  0  0
  151.6984  142.7992  157.4801 C   0  0  0  0  0  0  0  0  0  0  0  0
  152.7183  138.9885  154.1868 H   0  0  0  0  0  0  0  0  0  0  0  0
  151.2535  138.6201  155.0990 H   0  0  0  0  0  0  0  0  0  0  0  0
  152.4706  137.3608  154.8197 H   0  0  0  0  0  0  0  0  0  0  0  0
  152.0198  137.1947  157.0366 H   0  0  0  0  0  0  0  0  0  0  0  0
  153.3552  137.8011  157.9963 H   0  0  0  0  0  0  0  0  0  0  0  0
  150.5864  138.4617  158.2133 H   0  0  0  0  0  0  0  0  0  0  0  0
  151.8944  139.1692  159.1268 H   0  0  0  0  0  0  0  0  0  0  0  0
  150.0734  140.9408  153.2937 H   0  0  0  0  0  0  0  0  0  0  0  0
  146.3861  138.8316  158.1358 H   0  0  0  0  0  0  0  0  0  0  0  0
  144.9304  138.9401  156.1355 H   0  0  0  0  0  0  0  0  0  0  0  0
  145.3743  140.2223  155.0547 H   0  0  0  0  0  0  0  0  0  0  0  0
  146.0378  139.7402  152.7092 H   0  0  0  0  0  0  0  0  0  0  0  0
  147.5419  139.1114  153.3188 H   0  0  0  0  0  0  0  0  0  0  0  0
  147.3315  137.3826  152.0525 H   0  0  0  0  0  0  0  0  0  0  0  0
  147.1399  136.4920  154.2104 H   0  0  0  0  0  0  0  0  0  0  0  0
  146.1572  136.6097  155.7101 H   0  0  0  0  0  0  0  0  0  0  0  0
  143.6585  137.6466  154.6297 H   0  0  0  0  0  0  0  0  0  0  0  0
  144.0791  137.7777  152.8880 H   0  0  0  0  0  0  0  0  0  0  0  0
  150.4805  141.6410  158.7859 H   0  0  0  0  0  0  0  0  0  0  0  0
  152.2599  140.9173  160.2122 H   0  0  0  0  0  0  0  0  0  0  0  0
  153.4737  141.1626  158.9625 H   0  0  0  0  0  0  0  0  0  0  0  0
  152.2172  143.2405  160.6565 H   0  0  0  0  0  0  0  0  0  0  0  0
  153.7592  143.2481  159.8194 H   0  0  0  0  0  0  0  0  0  0  0  0
  151.1056  144.2256  158.9521 H   0  0  0  0  0  0  0  0  0  0  0  0
  153.8561  144.6405  157.6714 H   0  0  0  0  0  0  0  0  0  0  0  0
  153.1089  145.6972  158.8671 H   0  0  0  0  0  0  0  0  0  0  0  0
  152.3903  145.5313  157.2680 H   0  0  0  0  0  0  0  0  0  0  0  0
  152.5484  142.6698  156.8099 H   0  0  0  0  0  0  0  0  0  0  0  0
  150.8441  143.1121  156.8794 H   0  0  0  0  0  0  0  0  0  0  0  0
  1  2  1  0  0  0  0
  1 28  1  0  0  0  0
  1 29  1  0  0  0  0
  1 30  1  0  0  0  0
  2  3  1  0  0  0  0
  3  4  1  0  0  0  0
  3 31  1  0  0  0  0
  3 32  1  0  0  0  0
  4  5  1  0  0  0  0
  4 33  1  0  0  0  0
  4 34  1  0  0  0  0
  5  6  1  0  0  0  0
  5 22  1  0  0  0  0
  6 11  1  0  0  0  0
  6  7  2  0  0  0  0
  7  8  1  0  0  0  0
  8  9  2  0  0  0  0
  8 35  1  0  0  0  0
  9 10  1  0  0  0  0
 10 14  1  0  0  0  0
 10 11  2  0  0  0  0
 11 12  1  0  0  0  0
 12 13  2  0  0  0  0
 13 14  1  0  0  0  0
 13 36  1  0  0  0  0
 14 15  1  0  0  0  0
 15 16  1  0  0  0  0
 15 37  1  0  0  0  0
 15 38  1  0  0  0  0
 16 21  1  0  0  0  0
 16 17  1  0  0  0  0
 16 19  1  0  0  0  0
 17 18  1  0  0  0  0
 17 39  1  0  0  0  0
 17 40  1  0  0  0  0
 18 41  1  0  0  0  0
 19 20  1  0  0  0  0
 19 42  1  0  0  0  0
 19 43  1  0  0  0  0
 20 21  1  0  0  0  0
 21 44  1  0  0  0  0
 21 45  1  0  0  0  0
 22 27  1  0  0  0  0
 22 23  1  0  0  0  0
 22 46  1  0  0  0  0
 23 24  1  0  0  0  0
 23 47  1  0  0  0  0
 23 48  1  0  0  0  0
 24 25  1  0  0  0  0
 24 49  1  0  0  0  0
 24 50  1  0  0  0  0
 25 26  1  0  0  0  0
 25 27  1  0  0  0  0
 25 51  1  0  0  0  0
 26 52  1  0  0  0  0
 26 53  1  0  0  0  0
 26 54  1  0  0  0  0
 27 55  1  0  0  0  0
 27 56  1  0  0  0  0
M  END
> <s_m_source_file>
AV-unprocessed.smi

> <i_m_source_file_index>
200

> <i_lp_mmshare_version>
43012

> <i_f3d_flags>
0

> <s_epik_input>
W0NIM11bQ0BASF0oW0NIMl0xKVtDSDJdW0NIMl1bQ0BIXTFOKFtDSDJdW0NIMl1PW0NIM10pYyhuW2NIXW4yKWMoYzIzKW5bY0hdbjNbQ0gyXUM0KFtDSDJdW09IXSlbQ0gyXU9bQ0gyXTQ=

> <s_epik_cmdline>
J2VwaWtfcHl0aG9uJywgJy1waCcsICc3LjAnLCAnLXRuJywgJzgnLCAnLW1hJywgJzIwMCcsICctbWV0YWxfYmluZGluZycsICctaW1hZScsICc8aW5maWxlLm1hZT4nLCAnLW9tYWUnLCAnPG91dGZpbGUubWFlPic=

> <r_lp_tautomer_probability>
1

> <r_epik_Ionization_Penalty>
0.00363087

> <r_epik_Ionization_Penalty_Charging>
0

> <r_epik_Ionization_Penalty_Neutral>
0.00363087

> <r_epik_State_Penalty>
0.0024341

> <r_epik_Charging_Adjusted_Penalty>
0.0024341

> <i_epik_Tot_Q>
0

> <i_epik_Tot_abs_Q>
0

> <r_epik_Metal_State_Penalty>
-0

> <b_epik_Metal_Only>
0

> <s_lp_Force_Field>
OPLS_2005

> <r_lp_Energy>
50.9431

> <b_lp_Chiralities_Consistent>
1

> <s_lp_Variant>
AV-unprocessed.smi:200-2

> <Gold.Version>
5.8.1

> <Gold.Id.Protein>
6NUR|6NUR_protein|mol2

> <Gold.PLP.Fitness>
43.6756

> <Gold.PLP.PLP>
-37.5528

> <Gold.PLP.part.hbond>
-3.0000

> <Gold.PLP.part.metal>
0.0000

> <Gold.PLP.part.buried>
-5.8304

> <Gold.PLP.part.nonpolar>
-29.3833

> <Gold.PLP.part.repulsive>
0.2191

> <Gold.PLP.ligand.clash>
0.0000

> <Gold.PLP.ligand.torsion>
2.0291

> <Gold.PLP.Chemscore.Hbond>
2.0000

> <Gold.PLP.Chemscore.CHOScore>
0.9273

> <Gold.PLP.Chemscore.Metal>
0.0000

> <Gold.Chemscore.Hbonds>
donor molecule, donor type, donor heavy atom, donor atom, acceptor molecule, acceptor atom, score
      L1  H    18    41       P1  7948  1.00
      P1  H  7997  8009       L1     2  1.00
      L1  C     8    35       P1  7957  1.00

> <Gold.PLP.Chemscore.Internal.Correction>
1.3991

> <Gold.Rescore>
     Score         DG    S(hbond)    S(metal)    S(lipo)     H(rot)  DE(clash)    DE(int)     intcor
      9.24     -14.66       1.91        0.00      95.68       3.28       0.22       5.20       ----

> <Gold.Chemscore.Fitness>
9.2383

> <Gold.Chemscore.DG>
-14.6585

> <Gold.Chemscore.ZeroCoef>
-5.4800

> <Gold.Chemscore.Hbond>
1.9074

> <Gold.Chemscore.Metal>
0.0000

> <Gold.Chemscore.Lipo>
95.6792

> <Gold.Chemscore.Internal_Hbond>
0.0000

> <Gold.Chemscore.DEClash>
0.2213

> <Gold.Chemscore.DEInternal>
5.1989

> <Gold.Chemscore.Rot>
3.2761

> <Gold.Chemscore.Internal.Correction>
   9.000000E+99

> <Gold.Chemscore.Hbonds>
donor molecule, donor type, donor heavy atom, donor atom, acceptor molecule, acceptor atom, score
      L1  H    18    41       P1  7948  0.98
      P1  H  7997  8009       L1     2  0.85

> <Gold.Chemscore.Hbond.Weighted>
-6.3709

> <Gold.Chemscore.Metal.Weighted>
-0.0000

> <Gold.Chemscore.Lipo.Weighted>
-11.1945

> <Gold.Chemscore.Internal_Hbond.Weighted>
0.0000

> <Gold.Chemscore.DEClash.Weighted>
0.2213

> <Gold.Chemscore.DEInternal.Weighted>
5.1989

> <Gold.Chemscore.Rot.Weighted>
8.3868

> <Gold.Chemscore.Internal.Correction.Weighted>
   9.000000E+99

> <Gold.Protein.RotatedTorsions>
[ 6907 6896 6895 6894 ] final -103.77 input  -60.11 | X-H torsion
[ 7974 7965 7964 7962 ] final  179.56 input  175.53 | X-H torsion
[ 8008 7997 7996 7995 ] final -178.54 input   59.86 | X-H torsion
[ 10167 10162 10161 10158 ] final   59.63 input  -65.29 | X-H torsion
[ 10718 10713 10712 10709 ] final   66.52 input   66.30 | X-H torsion
[ 10763 10752 10751 10750 ] final -159.13 input  -60.55 | X-H torsion
[ 11005 11000 10999 10996 ] final  -58.85 input  -57.11 | X-H torsion

> <Gold.Protein.ActiveResidues>
 VAL166  LYS551  ARG553  GLY616  TRP617  ASP618  TYR619  PRO620  LYS621  CYS622 
 ASP623  PHE694  ASN695  SER759  ASP760  ASP761  ALA762  ILE779  LEU786  VAL792 
 PHE793  MET794  SER795  GLU796  ALA797  LYS798  CYS799  TRP800  GLU811  SER814 

> <Gold.Protein.RotatedAtoms>
  150.7256  134.0378  159.3755 H   0  0  0  0  0  0  0  0  0  0  0  0  # atno 6907 bound_to 6896
  151.8350  135.0607  160.0451 H   0  0  0  0  0  0  0  0  0  0  0  0  # atno 6908 bound_to 6896
  152.2905  133.5520  159.5591 H   0  0  0  0  0  0  0  0  0  0  0  0  # atno 6909 bound_to 6896
  144.7144  140.0567  143.6434 H   0  0  0  0  0  0  0  0  0  0  0  0  # atno 7974 bound_to 7965
  156.0200  140.1259  157.0367 H   0  0  0  0  0  0  0  0  0  0  0  0  # atno 8008 bound_to 7997
  154.4308  140.1070  156.6020 H   0  0  0  0  0  0  0  0  0  0  0  0  # atno 8009 bound_to 7997
  155.5958  140.3470  155.4581 H   0  0  0  0  0  0  0  0  0  0  0  0  # atno 8010 bound_to 7997
  140.1743  144.4246  150.6646 H   0  0  0  0  0  0  0  0  0  0  0  0  # atno 10167 bound_to 10162
  157.6174  130.9272  150.0120 H   0  0  0  0  0  0  0  0  0  0  0  0  # atno 10718 bound_to 10713
  154.7500  135.3090  154.8575 H   0  0  0  0  0  0  0  0  0  0  0  0  # atno 10763 bound_to 10752
  153.9365  135.6779  153.4749 H   0  0  0  0  0  0  0  0  0  0  0  0  # atno 10764 bound_to 10752
  153.1096  135.4873  154.8939 H   0  0  0  0  0  0  0  0  0  0  0  0  # atno 10765 bound_to 10752
  141.1224  133.6614  156.4983 H   0  0  0  0  0  0  0  0  0  0  0  0  # atno 11005 bound_to 11000
  145.9898  139.3006  143.0991 LP  0  0  0  0  0  0  0  0  0  0  0  0  # atno 17320 bound_to 7965
  145.8915  140.9300  143.0549 LP  0  0  0  0  0  0  0  0  0  0  0  0  # atno 17321 bound_to 7965
  140.6562  143.2238  151.5964 LP  0  0  0  0  0  0  0  0  0  0  0  0  # atno 17342 bound_to 10162
  139.5324  144.2878  152.1177 LP  0  0  0  0  0  0  0  0  0  0  0  0  # atno 17343 bound_to 10162
  156.1303  130.3643  149.9743 LP  0  0  0  0  0  0  0  0  0  0  0  0  # atno 17370 bound_to 10713
  156.7805  130.9219  151.3646 LP  0  0  0  0  0  0  0  0  0  0  0  0  # atno 17371 bound_to 10713
  140.4467  134.6966  157.5019 LP  0  0  0  0  0  0  0  0  0  0  0  0  # atno 17394 bound_to 11000
  140.0193  134.6571  155.9263 LP  0  0  0  0  0  0  0  0  0  0  0  0  # atno 17395 bound_to 11000

$$$$
