AV-unprocessed.smi:1896|AV-procd|sdf|7683|dock4
  -GOLD-   22720 9423D 1   1.00000     0.00000
 Structure written by MMmdl.
 47 48  0  0  0  0  0  0  0  0  2 V2000
  153.5683  137.8618  156.4873 C   0  0  0  0  0  0  0  0  0  0  0  0
  152.4704  138.8416  156.1871 C   0  0  0  0  0  0  0  0  0  0  0  0
  152.3699  139.9366  156.9213 N   0  0  0  0  0  0  0  0  0  0  0  0
  151.3018  140.5898  156.4219 N   0  0  0  0  0  0  0  0  0  0  0  0
  150.9036  141.8548  157.0077 C   0  0  0  0  0  0  0  0  0  0  0  0
  150.7232  139.9036  155.3722 C   0  0  0  0  0  0  0  0  0  0  0  0
  149.5163  140.4188  154.6563 C   0  0  0  0  0  0  0  0  0  0  0  0
  151.4554  138.7607  155.1876 C   0  0  0  0  0  0  0  0  0  0  0  0
  151.2437  137.6620  154.1767 C   0  0  0  0  0  0  0  0  0  0  0  0
  150.9195  136.3578  154.9043 C   0  0  0  0  0  0  0  0  0  0  0  0
  151.5537  136.0375  155.9094 O   0  0  0  0  0  0  0  0  0  0  0  0
  149.9408  135.6061  154.3801 N   0  0  0  0  0  0  0  0  0  0  0  0
  149.5329  134.3070  154.9007 C   0  0  0  0  0  0  0  0  0  0  0  0
  149.0664  133.3482  153.7780 C   0  0  1  0  0  0  0  0  0  0  0  0
  148.7896  131.9349  154.3385 C   0  0  0  0  0  0  0  0  0  0  0  0
  147.8624  133.8785  153.0737 N   0  3  0  0  0  0  0  0  0  0  0  0
  147.4129  133.1082  151.8931 C   0  0  0  0  0  0  0  0  0  0  0  0
  145.9644  133.5287  151.6741 C   0  0  0  0  0  0  0  0  0  0  0  0
  145.4359  133.6914  153.0942 C   0  0  0  0  0  0  0  0  0  0  0  0
  146.6644  134.0773  153.9294 C   0  0  0  0  0  0  0  0  0  0  0  0
  153.2247  137.0988  157.1853 H   0  0  0  0  0  0  0  0  0  0  0  0
  154.4330  138.3539  156.9339 H   0  0  0  0  0  0  0  0  0  0  0  0
  153.9095  137.3581  155.5831 H   0  0  0  0  0  0  0  0  0  0  0  0
  150.8880  142.6266  156.2381 H   0  0  0  0  0  0  0  0  0  0  0  0
  151.6010  142.1539  157.7916 H   0  0  0  0  0  0  0  0  0  0  0  0
  149.9068  141.7607  157.4395 H   0  0  0  0  0  0  0  0  0  0  0  0
  149.1624  139.7077  153.9102 H   0  0  0  0  0  0  0  0  0  0  0  0
  149.7398  141.3563  154.1467 H   0  0  0  0  0  0  0  0  0  0  0  0
  148.6991  140.5992  155.3547 H   0  0  0  0  0  0  0  0  0  0  0  0
  150.4260  137.8965  153.4947 H   0  0  0  0  0  0  0  0  0  0  0  0
  152.1230  137.5228  153.5467 H   0  0  0  0  0  0  0  0  0  0  0  0
  149.4707  135.9430  153.5522 H   0  0  0  0  0  0  0  0  0  0  0  0
  150.3690  133.8666  155.4469 H   0  0  0  0  0  0  0  0  0  0  0  0
  148.7329  134.4763  155.6224 H   0  0  0  0  0  0  0  0  0  0  0  0
  149.8708  133.2718  153.0441 H   0  0  0  0  0  0  0  0  0  0  0  0
  149.6786  131.5043  154.7984 H   0  0  0  0  0  0  0  0  0  0  0  0
  148.4820  131.2346  153.5626 H   0  0  0  0  0  0  0  0  0  0  0  0
  148.0040  131.9572  155.0943 H   0  0  0  0  0  0  0  0  0  0  0  0
  148.0294  133.3058  151.0157 H   0  0  0  0  0  0  0  0  0  0  0  0
  147.4569  132.0395  152.1106 H   0  0  0  0  0  0  0  0  0  0  0  0
  145.9309  134.4867  151.1529 H   0  0  0  0  0  0  0  0  0  0  0  0
  145.3953  132.8057  151.0887 H   0  0  0  0  0  0  0  0  0  0  0  0
  144.6363  134.4302  153.1574 H   0  0  0  0  0  0  0  0  0  0  0  0
  145.0361  132.7401  153.4480 H   0  0  0  0  0  0  0  0  0  0  0  0
  146.7028  133.4600  154.8282 H   0  0  0  0  0  0  0  0  0  0  0  0
  146.6179  135.1204  154.2443 H   0  0  0  0  0  0  0  0  0  0  0  0
  148.1065  134.7938  152.7229 H   0  0  0  0  0  0  0  0  0  0  0  0
  1  2  1  0  0  0  0
  1 21  1  0  0  0  0
  1 22  1  0  0  0  0
  1 23  1  0  0  0  0
  2  8  1  0  0  0  0
  2  3  2  0  0  0  0
  3  4  1  0  0  0  0
  4  5  1  0  0  0  0
  4  6  1  0  0  0  0
  5 24  1  0  0  0  0
  5 25  1  0  0  0  0
  5 26  1  0  0  0  0
  6  7  1  0  0  0  0
  6  8  2  0  0  0  0
  7 27  1  0  0  0  0
  7 28  1  0  0  0  0
  7 29  1  0  0  0  0
  8  9  1  0  0  0  0
  9 10  1  0  0  0  0
  9 30  1  0  0  0  0
  9 31  1  0  0  0  0
 10 11  2  0  0  0  0
 10 12  1  0  0  0  0
 12 13  1  0  0  0  0
 12 32  1  0  0  0  0
 13 14  1  0  0  0  0
 13 33  1  0  0  0  0
 13 34  1  0  0  0  0
 14 15  1  0  0  0  0
 14 16  1  0  0  0  0
 14 35  1  0  0  0  0
 15 36  1  0  0  0  0
 15 37  1  0  0  0  0
 15 38  1  0  0  0  0
 16 20  1  0  0  0  0
 16 17  1  0  0  0  0
 16 47  1  0  0  0  0
 17 18  1  0  0  0  0
 17 39  1  0  0  0  0
 17 40  1  0  0  0  0
 18 19  1  0  0  0  0
 18 41  1  0  0  0  0
 18 42  1  0  0  0  0
 19 20  1  0  0  0  0
 19 43  1  0  0  0  0
 19 44  1  0  0  0  0
 20 45  1  0  0  0  0
 20 46  1  0  0  0  0
M  CHG  1  16   1
M  END
> <s_m_source_file>
AV-unprocessed.smi

> <i_m_source_file_index>
1896

> <i_lp_mmshare_version>
43012

> <i_f3d_flags>
0

> <s_epik_input>
W0NIM11jMW5uKFtDSDNdKWMoW0NIM10pYzFbQ0gyXUMoPU8pW05IXVtDSDJdW0NASF0oW0NIM10pTjJbQ0gyXVtDSDJdW0NIMl1bQ0gyXTI=

> <s_epik_cmdline>
J2VwaWtfcHl0aG9uJywgJy1waCcsICc3LjAnLCAnLXRuJywgJzgnLCAnLW1hJywgJzIwMCcsICctbWV0YWxfYmluZGluZycsICctaW1hZScsICc8aW5maWxlLm1hZT4nLCAnLW9tYWUnLCAnPG91dGZpbGUubWFlPic=

> <r_lp_tautomer_probability>
1

> <r_epik_Ionization_Penalty>
0.00723064

> <r_epik_Ionization_Penalty_Charging>
0.0050435

> <r_epik_Ionization_Penalty_Neutral>
0.00218714

> <r_epik_State_Penalty>
-0

> <r_epik_Charging_Adjusted_Penalty>
0.0050435

> <i_epik_Tot_Q>
1

> <i_epik_Tot_abs_Q>
1

> <r_epik_Metal_State_Penalty>
-0

> <b_epik_Metal_Only>
0

> <s_lp_Force_Field>
OPLS_2005

> <r_lp_Energy>
24.4883

> <b_lp_Chiralities_Consistent>
1

> <s_lp_Variant>
AV-unprocessed.smi:1896-2

> <Gold.Version>
5.8.1

> <Gold.Id.Protein>
6NUR|6NUR_protein|mol2

> <Gold.PLP.Fitness>
48.9193

> <Gold.PLP.PLP>
-36.4209

> <Gold.PLP.part.hbond>
-4.6548

> <Gold.PLP.part.metal>
0.0000

> <Gold.PLP.part.buried>
0.9830

> <Gold.PLP.part.nonpolar>
-33.1643

> <Gold.PLP.part.repulsive>
0.0964

> <Gold.PLP.ligand.clash>
0.0000

> <Gold.PLP.ligand.torsion>
0.4531

> <Gold.PLP.Chemscore.Hbond>
4.4500

> <Gold.PLP.Chemscore.CHOScore>
0.0000

> <Gold.PLP.Chemscore.Metal>
0.0000

> <Gold.Chemscore.Hbonds>
donor molecule, donor type, donor heavy atom, donor atom, acceptor molecule, acceptor atom, score
      L1  H    12    32       P1  7948  1.00
      L1  H    16    47       P1  7948  2.00
      P1  H  7997  8010       L1     3  0.29
      P1  H 10752 10764       L1    11  1.00

> <Gold.PLP.Chemscore.Internal.Correction>
0.0546

> <Gold.Rescore>
     Score         DG    S(hbond)    S(metal)    S(lipo)     H(rot)  DE(clash)    DE(int)     intcor
     16.54     -19.56       2.61        0.00      82.04       1.65       0.15       2.87       ----

> <Gold.Chemscore.Fitness>
16.5441

> <Gold.Chemscore.DG>
-19.5606

> <Gold.Chemscore.ZeroCoef>
-5.4800

> <Gold.Chemscore.Hbond>
2.6063

> <Gold.Chemscore.Metal>
0.0000

> <Gold.Chemscore.Lipo>
82.0378

> <Gold.Chemscore.Internal_Hbond>
0.0000

> <Gold.Chemscore.DEClash>
0.1452

> <Gold.Chemscore.DEInternal>
2.8713

> <Gold.Chemscore.Rot>
1.6495

> <Gold.Chemscore.Internal.Correction>
   9.000000E+99

> <Gold.Chemscore.Hbonds>
donor molecule, donor type, donor heavy atom, donor atom, acceptor molecule, acceptor atom, score
      L1  H    12    32       P1  7948  0.45
      L1  H    16    47       P1  7948  0.74
      P1  H 10752 10764       L1    11  0.34

> <Gold.Chemscore.Hbond.Weighted>
-8.7049

> <Gold.Chemscore.Metal.Weighted>
-0.0000

> <Gold.Chemscore.Lipo.Weighted>
-9.5984

> <Gold.Chemscore.Internal_Hbond.Weighted>
0.0000

> <Gold.Chemscore.DEClash.Weighted>
0.1452

> <Gold.Chemscore.DEInternal.Weighted>
2.8713

> <Gold.Chemscore.Rot.Weighted>
4.2227

> <Gold.Chemscore.Internal.Correction.Weighted>
   9.000000E+99

> <Gold.Protein.RotatedTorsions>
[ 6907 6896 6895 6894 ] final  -18.43 input  -60.11 | X-H torsion
[ 7974 7965 7964 7962 ] final  124.36 input  175.53 | X-H torsion
[ 8008 7997 7996 7995 ] final   54.46 input   59.86 | X-H torsion
[ 10167 10162 10161 10158 ] final   17.48 input  -65.29 | X-H torsion
[ 10718 10713 10712 10709 ] final  105.80 input   66.30 | X-H torsion
[ 10763 10752 10751 10750 ] final  -21.25 input  -60.55 | X-H torsion
[ 11005 11000 10999 10996 ] final   56.74 input  -57.11 | X-H torsion

> <Gold.Protein.ActiveResidues>
 VAL166  LYS551  ARG553  GLY616  TRP617  ASP618  TYR619  PRO620  LYS621  CYS622 
 ASP623  PHE694  ASN695  SER759  ASP760  ASP761  ALA762  ILE779  LEU786  VAL792 
 PHE793  MET794  SER795  GLU796  ALA797  LYS798  CYS799  TRP800  GLU811  SER814 

> <Gold.Protein.RotatedAtoms>
  151.2783  135.0706  159.9159 H   0  0  0  0  0  0  0  0  0  0  0  0  # atno 6907 bound_to 6896
  152.5338  134.0057  159.7925 H   0  0  0  0  0  0  0  0  0  0  0  0  # atno 6908 bound_to 6896
  151.0307  133.5742  159.2692 H   0  0  0  0  0  0  0  0  0  0  0  0  # atno 6909 bound_to 6896
  145.0853  139.3627  143.4888 H   0  0  0  0  0  0  0  0  0  0  0  0  # atno 7974 bound_to 7965
  155.4850  140.3469  155.4346 H   0  0  0  0  0  0  0  0  0  0  0  0  # atno 8008 bound_to 7997
  156.1014  140.1436  156.9491 H   0  0  0  0  0  0  0  0  0  0  0  0  # atno 8009 bound_to 7997
  154.4696  140.0905  156.7088 H   0  0  0  0  0  0  0  0  0  0  0  0  # atno 8010 bound_to 7997
  140.5723  143.9138  150.6722 H   0  0  0  0  0  0  0  0  0  0  0  0  # atno 10167 bound_to 10162
  157.6692  131.0836  150.5912 H   0  0  0  0  0  0  0  0  0  0  0  0  # atno 10718 bound_to 10713
  153.6332  135.6988  153.5268 H   0  0  0  0  0  0  0  0  0  0  0  0  # atno 10763 bound_to 10752
  153.2842  135.4176  155.1107 H   0  0  0  0  0  0  0  0  0  0  0  0  # atno 10764 bound_to 10752
  154.8517  135.3609  154.5875 H   0  0  0  0  0  0  0  0  0  0  0  0  # atno 10765 bound_to 10752
  140.0506  134.5743  155.9269 H   0  0  0  0  0  0  0  0  0  0  0  0  # atno 11005 bound_to 11000
  146.3531  140.0662  142.8626 LP  0  0  0  0  0  0  0  0  0  0  0  0  # atno 17320 bound_to 7965
  145.1130  140.9416  143.4645 LP  0  0  0  0  0  0  0  0  0  0  0  0  # atno 17321 bound_to 7965
  140.2617  143.3519  152.1317 LP  0  0  0  0  0  0  0  0  0  0  0  0  # atno 17342 bound_to 10162
  139.5124  144.6916  151.5745 LP  0  0  0  0  0  0  0  0  0  0  0  0  # atno 17343 bound_to 10162
  156.6212  130.4406  149.5821 LP  0  0  0  0  0  0  0  0  0  0  0  0  # atno 17370 bound_to 10713
  156.2354  130.6819  151.1504 LP  0  0  0  0  0  0  0  0  0  0  0  0  # atno 17371 bound_to 10713
  141.1928  133.6576  156.5520 LP  0  0  0  0  0  0  0  0  0  0  0  0  # atno 17394 bound_to 11000
  140.3924  134.7429  157.4729 LP  0  0  0  0  0  0  0  0  0  0  0  0  # atno 17395 bound_to 11000

$$$$
