AV-unprocessed.smi:630|AV-procd|sdf|3120|dock3
  -GOLD-   22720 0 43D 1   1.00000     0.00000
 Structure written by MMmdl.
 37 38  0  0  0  0  0  0  0  0  1 V2000
  148.8646  144.3954  159.1744 N   0  0  0  0  0  0  0  0  0  0  0  0
  150.0573  144.8522  159.5652 C   0  0  0  0  0  0  0  0  0  0  0  0
  150.1688  145.8029  160.3366 O   0  0  0  0  0  0  0  0  0  0  0  0
  151.3042  144.1373  159.0091 C   0  0  1  0  0  0  0  0  0  0  0  0
  152.5005  144.3060  159.9790 C   0  0  0  0  0  0  0  0  0  0  0  0
  152.6460  143.2412  161.0796 C   0  0  0  0  0  0  0  0  0  0  0  0
  153.4604  142.0234  160.6157 C   0  0  0  0  0  0  0  0  0  0  0  0
  152.7233  141.0953  159.6406 C   0  0  0  0  0  0  0  0  0  0  0  0
  152.1988  141.7702  158.3597 C   0  0  0  0  0  0  0  0  0  0  0  0
  150.9690  142.6716  158.6053 C   0  0  2  0  0  0  0  0  0  0  0  0
  150.1383  142.6859  157.3970 N   0  0  0  0  0  0  0  0  0  0  0  0
  149.7149  141.6122  156.7120 C   0  0  0  0  0  0  0  0  0  0  0  0
  149.9882  140.4521  157.0206 O   0  0  0  0  0  0  0  0  0  0  0  0
  148.9596  141.9772  155.6612 N   0  0  0  0  0  0  0  0  0  0  0  0
  148.3188  141.1428  154.7079 C   0  0  0  0  0  0  0  0  0  0  0  0
  148.7135  139.9007  154.4049 N   0  0  0  0  0  0  0  0  0  0  0  0
  147.8986  139.3133  153.4338 C   0  0  0  0  0  0  0  0  0  0  0  0
  146.8803  140.1282  153.0058 C   0  0  0  0  0  0  0  0  0  0  0  0
  146.9044  141.6749  153.8104 S   0  0  0  0  0  0  0  0  0  0  0  0
  148.0242  144.8372  159.5178 H   0  0  0  0  0  0  0  0  0  0  0  0
  148.8058  143.6125  158.5401 H   0  0  0  0  0  0  0  0  0  0  0  0
  151.5944  144.6675  158.0995 H   0  0  0  0  0  0  0  0  0  0  0  0
  153.4250  144.3560  159.4025 H   0  0  0  0  0  0  0  0  0  0  0  0
  152.4335  145.2839  160.4593 H   0  0  0  0  0  0  0  0  0  0  0  0
  153.1794  143.6941  161.9162 H   0  0  0  0  0  0  0  0  0  0  0  0
  151.6759  142.9392  161.4754 H   0  0  0  0  0  0  0  0  0  0  0  0
  154.3989  142.3548  160.1698 H   0  0  0  0  0  0  0  0  0  0  0  0
  153.7427  141.4396  161.4926 H   0  0  0  0  0  0  0  0  0  0  0  0
  153.4072  140.2954  159.3548 H   0  0  0  0  0  0  0  0  0  0  0  0
  151.8993  140.6025  160.1581 H   0  0  0  0  0  0  0  0  0  0  0  0
  152.9929  142.3210  157.8543 H   0  0  0  0  0  0  0  0  0  0  0  0
  151.9174  140.9670  157.6768 H   0  0  0  0  0  0  0  0  0  0  0  0
  150.3974  142.2138  159.4149 H   0  0  0  0  0  0  0  0  0  0  0  0
  149.8607  143.5952  157.0580 H   0  0  0  0  0  0  0  0  0  0  0  0
  148.8231  142.9685  155.5293 H   0  0  0  0  0  0  0  0  0  0  0  0
  148.1159  138.3080  153.1043 H   0  0  0  0  0  0  0  0  0  0  0  0
  146.1207  139.9126  152.2691 H   0  0  0  0  0  0  0  0  0  0  0  0
  1  2  1  0  0  0  0
  1 20  1  0  0  0  0
  1 21  1  0  0  0  0
  2  3  2  0  0  0  0
  2  4  1  0  0  0  0
  4 10  1  0  0  0  0
  4  5  1  0  0  0  0
  4 22  1  0  0  0  0
  5  6  1  0  0  0  0
  5 23  1  0  0  0  0
  5 24  1  0  0  0  0
  6  7  1  0  0  0  0
  6 25  1  0  0  0  0
  6 26  1  0  0  0  0
  7  8  1  0  0  0  0
  7 27  1  0  0  0  0
  7 28  1  0  0  0  0
  8  9  1  0  0  0  0
  8 29  1  0  0  0  0
  8 30  1  0  0  0  0
  9 10  1  0  0  0  0
  9 31  1  0  0  0  0
  9 32  1  0  0  0  0
 10 11  1  0  0  0  0
 10 33  1  0  0  0  0
 11 12  1  0  0  0  0
 11 34  1  0  0  0  0
 12 13  2  0  0  0  0
 12 14  1  0  0  0  0
 14 15  1  0  0  0  0
 14 35  1  0  0  0  0
 15 19  1  0  0  0  0
 15 16  2  0  0  0  0
 16 17  1  0  0  0  0
 17 18  2  0  0  0  0
 17 36  1  0  0  0  0
 18 19  1  0  0  0  0
 18 37  1  0  0  0  0
M  END
> <s_m_source_file>
AV-unprocessed.smi

> <i_m_source_file_index>
630

> <i_lp_mmshare_version>
43012

> <i_f3d_flags>
0

> <s_epik_input>
W05IMl1DKD1PKVtDQEBIXTFbQ0gyXVtDSDJdW0NIMl1bQ0gyXVtDSDJdW0NASF0xW05IXUMoPU8pW05IXWMybltjSF1bY0hdczI=

> <s_epik_cmdline>
J2VwaWtfcHl0aG9uJywgJy1waCcsICc3LjAnLCAnLXRuJywgJzgnLCAnLW1hJywgJzIwMCcsICctbWV0YWxfYmluZGluZycsICctaW1hZScsICc8aW5maWxlLm1hZT4nLCAnLW9tYWUnLCAnPG91dGZpbGUubWFlPic=

> <r_lp_tautomer_probability>
0.999

> <r_epik_Ionization_Penalty>
0.000342689

> <r_epik_Ionization_Penalty_Charging>
0

> <r_epik_Ionization_Penalty_Neutral>
0.000342689

> <r_epik_State_Penalty>
0.000177984

> <r_epik_Charging_Adjusted_Penalty>
0.000177984

> <i_epik_Tot_Q>
0

> <i_epik_Tot_abs_Q>
0

> <r_epik_Metal_State_Penalty>
0.00743087

> <b_epik_Metal_Only>
0

> <s_lp_Force_Field>
OPLS_2005

> <r_lp_Energy>
11.5905

> <b_lp_Chiralities_Consistent>
1

> <s_lp_Variant>
AV-unprocessed.smi:630-4

> <Gold.Version>
5.8.1

> <Gold.Id.Protein>
6NUR|6NUR_protein|mol2

> <Gold.PLP.Fitness>
46.7672

> <Gold.PLP.PLP>
-36.6935

> <Gold.PLP.part.hbond>
-4.0000

> <Gold.PLP.part.metal>
0.0000

> <Gold.PLP.part.buried>
-3.7625

> <Gold.PLP.part.nonpolar>
-30.3652

> <Gold.PLP.part.repulsive>
1.0011

> <Gold.PLP.ligand.clash>
0.0000

> <Gold.PLP.ligand.torsion>
0.8901

> <Gold.PLP.Chemscore.Hbond>
2.0000

> <Gold.PLP.Chemscore.CHOScore>
1.9152

> <Gold.PLP.Chemscore.Metal>
0.0000

> <Gold.Chemscore.Hbonds>
donor molecule, donor type, donor heavy atom, donor atom, acceptor molecule, acceptor atom, score
      L1  H    11    34       P1  8028  0.99
      L1  H    14    35       P1  8028  1.00
      L1  C    17    36       P1  7948  0.97
      L1  C    18    37       P1 10175  0.93

> <Gold.PLP.Chemscore.Internal.Correction>
0.1083

> <Gold.Rescore>
     Score         DG    S(hbond)    S(metal)    S(lipo)     H(rot)  DE(clash)    DE(int)     intcor
     13.02     -19.30       1.97        0.00      95.18       1.52       1.75       4.53       ----

> <Gold.Chemscore.Fitness>
13.0206

> <Gold.Chemscore.DG>
-19.3049

> <Gold.Chemscore.ZeroCoef>
-5.4800

> <Gold.Chemscore.Hbond>
1.9690

> <Gold.Chemscore.Metal>
0.0000

> <Gold.Chemscore.Lipo>
95.1767

> <Gold.Chemscore.Internal_Hbond>
0.0000

> <Gold.Chemscore.DEClash>
1.7508

> <Gold.Chemscore.DEInternal>
4.5334

> <Gold.Chemscore.Rot>
1.5184

> <Gold.Chemscore.Internal.Correction>
   9.000000E+99

> <Gold.Chemscore.Hbonds>
donor molecule, donor type, donor heavy atom, donor atom, acceptor molecule, acceptor atom, score
      L1  H    11    34       P1  8028  0.86
      L1  H    14    35       P1  8028  1.00

> <Gold.Chemscore.Hbond.Weighted>
-6.5764

> <Gold.Chemscore.Metal.Weighted>
-0.0000

> <Gold.Chemscore.Lipo.Weighted>
-11.1357

> <Gold.Chemscore.Internal_Hbond.Weighted>
0.0000

> <Gold.Chemscore.DEClash.Weighted>
1.7508

> <Gold.Chemscore.DEInternal.Weighted>
4.5334

> <Gold.Chemscore.Rot.Weighted>
3.8872

> <Gold.Chemscore.Internal.Correction.Weighted>
   9.000000E+99

> <Gold.Protein.RotatedTorsions>
[ 6907 6896 6895 6894 ] final -110.98 input  -60.11 | X-H torsion
[ 7974 7965 7964 7962 ] final -117.84 input  175.53 | X-H torsion
[ 8008 7997 7996 7995 ] final   75.68 input   59.86 | X-H torsion
[ 10167 10162 10161 10158 ] final  -50.66 input  -65.29 | X-H torsion
[ 10718 10713 10712 10709 ] final -178.27 input   66.30 | X-H torsion
[ 10763 10752 10751 10750 ] final -175.42 input  -60.55 | X-H torsion
[ 11005 11000 10999 10996 ] final -147.93 input  -57.11 | X-H torsion

> <Gold.Protein.ActiveResidues>
 VAL166  LYS551  ARG553  GLY616  TRP617  ASP618  TYR619  PRO620  LYS621  CYS622 
 ASP623  PHE694  ASN695  SER759  ASP760  ASP761  ALA762  ILE779  LEU786  VAL792 
 PHE793  MET794  SER795  GLU796  ALA797  LYS798  CYS799  TRP800  GLU811  SER814 

> <Gold.Protein.RotatedAtoms>
  150.7660  133.9303  159.3424 H   0  0  0  0  0  0  0  0  0  0  0  0  # atno 6907 bound_to 6896
  151.7200  135.0894  160.0292 H   0  0  0  0  0  0  0  0  0  0  0  0  # atno 6908 bound_to 6896
  152.3656  133.6314  159.6083 H   0  0  0  0  0  0  0  0  0  0  0  0  # atno 6909 bound_to 6896
  145.0806  140.8423  143.4041 H   0  0  0  0  0  0  0  0  0  0  0  0  # atno 7974 bound_to 7965
  155.8164  140.3471  155.5488 H   0  0  0  0  0  0  0  0  0  0  0  0  # atno 8008 bound_to 7997
  155.8388  140.0938  157.1767 H   0  0  0  0  0  0  0  0  0  0  0  0  # atno 8009 bound_to 7997
  154.4005  140.1398  156.3690 H   0  0  0  0  0  0  0  0  0  0  0  0  # atno 8010 bound_to 7997
  140.6626  143.2649  151.4392 H   0  0  0  0  0  0  0  0  0  0  0  0  # atno 10167 bound_to 10162
  156.8418  130.9689  151.3099 H   0  0  0  0  0  0  0  0  0  0  0  0  # atno 10718 bound_to 10713
  154.5846  135.2839  155.0698 H   0  0  0  0  0  0  0  0  0  0  0  0  # atno 10763 bound_to 10752
  154.2021  135.6422  153.5094 H   0  0  0  0  0  0  0  0  0  0  0  0  # atno 10764 bound_to 10752
  153.0100  135.5471  154.6512 H   0  0  0  0  0  0  0  0  0  0  0  0  # atno 10765 bound_to 10752
  140.7665  134.3238  157.5087 H   0  0  0  0  0  0  0  0  0  0  0  0  # atno 11005 bound_to 11000
  145.1183  139.2710  143.5601 LP  0  0  0  0  0  0  0  0  0  0  0  0  # atno 17320 bound_to 7965
  146.3531  140.0799  142.8618 LP  0  0  0  0  0  0  0  0  0  0  0  0  # atno 17321 bound_to 7965
  139.5865  144.1593  152.2035 LP  0  0  0  0  0  0  0  0  0  0  0  0  # atno 17342 bound_to 10162
  140.0934  144.5601  150.7039 LP  0  0  0  0  0  0  0  0  0  0  0  0  # atno 17343 bound_to 10162
  157.6352  130.8761  149.9345 LP  0  0  0  0  0  0  0  0  0  0  0  0  # atno 17370 bound_to 10713
  156.0877  130.3666  150.0456 LP  0  0  0  0  0  0  0  0  0  0  0  0  # atno 17371 bound_to 10713
  139.8762  134.9234  156.3325 LP  0  0  0  0  0  0  0  0  0  0  0  0  # atno 17394 bound_to 11000
  140.9614  133.7386  156.0406 LP  0  0  0  0  0  0  0  0  0  0  0  0  # atno 17395 bound_to 11000

$$$$
