AV-unprocessed.smi:24|AV-procd|sdf|177|dock1
  -GOLD-   2262015433D 1   1.00000     0.00000
 Structure written by MMmdl.
 61 65  0  0  0  0  0  0  0  0  1 V2000
  154.4848  134.2598  164.8036 C   0  0  0  0  0  0  0  0  0  0  0  0
  155.2585  135.4413  164.9519 O   0  0  0  0  0  0  0  0  0  0  0  0
  155.2586  136.3510  163.9162 C   0  0  0  0  0  0  0  0  0  0  0  0
  156.0337  137.5157  164.0863 C   0  0  0  0  0  0  0  0  0  0  0  0
  156.0924  138.4974  163.0794 C   0  0  0  0  0  0  0  0  0  0  0  0
  155.3651  138.3326  161.8803 C   0  0  0  0  0  0  0  0  0  0  0  0
  155.4164  139.3779  160.7665 C   0  0  2  0  0  0  0  0  0  0  0  0
  154.8832  140.7363  161.2301 C   0  0  0  0  0  0  0  0  0  0  0  0
  153.7808  140.9766  160.2540 C   0  0  0  0  0  0  0  0  0  0  0  0
  152.9362  142.1899  160.3170 C   0  0  0  0  0  0  0  0  0  0  0  0
  152.9318  142.9727  161.4943 C   0  0  0  0  0  0  0  0  0  0  0  0
  152.1238  144.1248  161.5570 C   0  0  0  0  0  0  0  0  0  0  0  0
  151.3270  144.4913  160.4543 C   0  0  0  0  0  0  0  0  0  0  0  0
  151.3346  143.7078  159.2833 C   0  0  0  0  0  0  0  0  0  0  0  0
  152.1392  142.5537  159.2081 C   0  0  0  0  0  0  0  0  0  0  0  0
  153.6476  140.0453  159.3840 N   0  0  0  0  0  0  0  0  0  0  0  0
  154.5771  139.0805  159.5978 N   0  0  0  0  0  0  0  0  0  0  0  0
  154.7632  138.0345  158.7623 C   0  0  0  0  0  0  0  0  0  0  0  0
  154.0090  137.8177  157.8122 O   0  0  0  0  0  0  0  0  0  0  0  0
  155.9567  137.0925  159.0277 C   0  0  0  0  0  0  0  0  0  0  0  0
  156.4281  136.3817  157.8188 N   0  0  0  0  0  0  0  0  0  0  0  0
  156.4300  134.9654  157.8275 C   0  0  0  0  0  0  0  0  0  0  0  0
  156.0624  134.3312  158.8179 O   0  0  0  0  0  0  0  0  0  0  0  0
  156.8886  134.3311  156.5983 C   0  0  0  0  0  0  0  0  0  0  0  0
  156.8725  132.9915  156.4944 F   0  0  0  0  0  0  0  0  0  0  0  0
  157.3128  135.0687  155.5519 C   0  0  0  0  0  0  0  0  0  0  0  0
  157.3632  136.4530  155.5750 N   0  0  0  0  0  0  0  0  0  0  0  0
  157.7775  137.2806  154.3669 C   0  0  1  0  0  0  0  0  0  0  0  0
  158.4706  136.4782  153.2581 C   0  0  0  0  0  0  0  0  0  0  0  0
  157.3333  136.1618  152.2904 C   0  0  0  0  0  0  0  0  0  0  0  0
  156.1010  136.8412  152.8978 C   0  0  0  0  0  0  0  0  0  0  0  0
  156.6324  137.8163  153.7845 O   0  0  0  0  0  0  0  0  0  0  0  0
  156.8781  137.1397  156.7114 C   0  0  0  0  0  0  0  0  0  0  0  0
  156.8547  138.3722  156.7391 O   0  0  0  0  0  0  0  0  0  0  0  0
  154.5939  137.1666  161.7006 C   0  0  0  0  0  0  0  0  0  0  0  0
  154.5371  136.1836  162.7078 C   0  0  0  0  0  0  0  0  0  0  0  0
  154.5840  133.6501  165.7016 H   0  0  0  0  0  0  0  0  0  0  0  0
  154.8291  133.6616  163.9590 H   0  0  0  0  0  0  0  0  0  0  0  0
  153.4261  134.4895  164.6768 H   0  0  0  0  0  0  0  0  0  0  0  0
  156.5921  137.6582  164.9999 H   0  0  0  0  0  0  0  0  0  0  0  0
  156.7004  139.3762  163.2358 H   0  0  0  0  0  0  0  0  0  0  0  0
  156.4486  139.4881  160.4281 H   0  0  0  0  0  0  0  0  0  0  0  0
  154.5002  140.7068  162.2512 H   0  0  0  0  0  0  0  0  0  0  0  0
  155.6491  141.5099  161.1646 H   0  0  0  0  0  0  0  0  0  0  0  0
  153.5357  142.7079  162.3503 H   0  0  0  0  0  0  0  0  0  0  0  0
  152.1148  144.7281  162.4528 H   0  0  0  0  0  0  0  0  0  0  0  0
  150.7084  145.3753  160.5066 H   0  0  0  0  0  0  0  0  0  0  0  0
  150.7211  143.9925  158.4412 H   0  0  0  0  0  0  0  0  0  0  0  0
  152.1265  141.9693  158.3001 H   0  0  0  0  0  0  0  0  0  0  0  0
  156.7733  137.6697  159.4649 H   0  0  0  0  0  0  0  0  0  0  0  0
  155.6764  136.3909  159.8150 H   0  0  0  0  0  0  0  0  0  0  0  0
  157.6111  134.5313  154.6659 H   0  0  0  0  0  0  0  0  0  0  0  0
  158.4316  138.0605  154.7600 H   0  0  0  0  0  0  0  0  0  0  0  0
  159.1939  137.1313  152.7691 H   0  0  0  0  0  0  0  0  0  0  0  0
  159.0134  135.6130  153.6379 H   0  0  0  0  0  0  0  0  0  0  0  0
  157.5543  136.5757  151.3062 H   0  0  0  0  0  0  0  0  0  0  0  0
  157.1776  135.0892  152.1722 H   0  0  0  0  0  0  0  0  0  0  0  0
  155.4619  137.2991  152.1428 H   0  0  0  0  0  0  0  0  0  0  0  0
  155.4976  136.1256  153.4578 H   0  0  0  0  0  0  0  0  0  0  0  0
  154.0388  137.0213  160.7855 H   0  0  0  0  0  0  0  0  0  0  0  0
  153.9316  135.3086  162.5281 H   0  0  0  0  0  0  0  0  0  0  0  0
  1  2  1  0  0  0  0
  1 37  1  0  0  0  0
  1 38  1  0  0  0  0
  1 39  1  0  0  0  0
  2  3  1  0  0  0  0
  3 36  1  0  0  0  0
  3  4  2  0  0  0  0
  4  5  1  0  0  0  0
  4 40  1  0  0  0  0
  5  6  2  0  0  0  0
  5 41  1  0  0  0  0
  6  7  1  0  0  0  0
  6 35  1  0  0  0  0
  7 17  1  0  0  0  0
  7  8  1  0  0  0  0
  7 42  1  0  0  0  0
  8  9  1  0  0  0  0
  8 43  1  0  0  0  0
  8 44  1  0  0  0  0
  9 10  1  0  0  0  0
  9 16  2  0  0  0  0
 10 15  1  0  0  0  0
 10 11  2  0  0  0  0
 11 12  1  0  0  0  0
 11 45  1  0  0  0  0
 12 13  2  0  0  0  0
 12 46  1  0  0  0  0
 13 14  1  0  0  0  0
 13 47  1  0  0  0  0
 14 15  2  0  0  0  0
 14 48  1  0  0  0  0
 15 49  1  0  0  0  0
 16 17  1  0  0  0  0
 17 18  1  0  0  0  0
 18 19  2  0  0  0  0
 18 20  1  0  0  0  0
 20 21  1  0  0  0  0
 20 50  1  0  0  0  0
 20 51  1  0  0  0  0
 21 33  1  0  0  0  0
 21 22  1  0  0  0  0
 22 23  2  0  0  0  0
 22 24  1  0  0  0  0
 24 25  1  0  0  0  0
 24 26  2  0  0  0  0
 26 27  1  0  0  0  0
 26 52  1  0  0  0  0
 27 28  1  0  0  0  0
 27 33  1  0  0  0  0
 28 32  1  0  0  0  0
 28 29  1  0  0  0  0
 28 53  1  0  0  0  0
 29 30  1  0  0  0  0
 29 54  1  0  0  0  0
 29 55  1  0  0  0  0
 30 31  1  0  0  0  0
 30 56  1  0  0  0  0
 30 57  1  0  0  0  0
 31 32  1  0  0  0  0
 31 58  1  0  0  0  0
 31 59  1  0  0  0  0
 33 34  2  0  0  0  0
 35 36  2  0  0  0  0
 35 60  1  0  0  0  0
 36 61  1  0  0  0  0
M  END
> <s_m_source_file>
AV-unprocessed.smi

> <i_m_source_file_index>
24

> <i_lp_mmshare_version>
43012

> <i_f3d_flags>
0

> <s_epik_input>
W0NIM11PYzFbY0hdW2NIXWMoW2NIXVtjSF0xKVtDQEBIXTJbQ0gyXUMoYzNbY0hdW2NIXVtjSF1bY0hdW2NIXTMpPU5OMkMoPU8pW0NIMl1uNGMoPU8pYyhGKVtjSF1uKGM0PU8pW0NAQEhdNVtDSDJdW0NIMl1bQ0gyXU81

> <s_epik_cmdline>
J2VwaWtfcHl0aG9uJywgJy1waCcsICc3LjAnLCAnLXRuJywgJzgnLCAnLW1hJywgJzIwMCcsICctbWV0YWxfYmluZGluZycsICctaW1hZScsICc8aW5maWxlLm1hZT4nLCAnLW9tYWUnLCAnPG91dGZpbGUubWFlPic=

> <r_lp_tautomer_probability>
1

> <r_epik_Ionization_Penalty>
1.46326e-08

> <r_epik_Ionization_Penalty_Charging>
4.53232e-09

> <r_epik_Ionization_Penalty_Neutral>
1.01002e-08

> <r_epik_State_Penalty>
-0

> <r_epik_Charging_Adjusted_Penalty>
4.53232e-09

> <i_epik_Tot_Q>
0

> <i_epik_Tot_abs_Q>
0

> <r_epik_Metal_State_Penalty>
-0

> <b_epik_Metal_Only>
0

> <s_epik_Chemistry_Notes>
This compound has an imine and may undergo hydrolysis. This compound contains an acetal/aminal-like group ( X-CH(R)-Y where X, Y are N, S, or O) that may be acid/base labile, releasing an aldehyde.

> <s_lp_Force_Field>
OPLS_2005

> <r_lp_Energy>
47.9394

> <b_lp_Chiralities_Consistent>
1

> <s_lp_Variant>
AV-unprocessed.smi:24-3

> <Gold.Version>
5.8.1

> <Gold.Id.Protein>
6NUR|6NUR_protein|mol2

> <Gold.PLP.Fitness>
60.7605

> <Gold.PLP.PLP>
-58.1663

> <Gold.PLP.part.hbond>
-2.2143

> <Gold.PLP.part.metal>
0.0000

> <Gold.PLP.part.buried>
-2.8827

> <Gold.PLP.part.nonpolar>
-53.8751

> <Gold.PLP.part.repulsive>
0.4388

> <Gold.PLP.ligand.clash>
0.0000

> <Gold.PLP.ligand.torsion>
0.7775

> <Gold.PLP.Chemscore.Hbond>
1.2760

> <Gold.PLP.Chemscore.CHOScore>
0.0000

> <Gold.PLP.Chemscore.Metal>
0.0000

> <Gold.Chemscore.Hbonds>
donor molecule, donor type, donor heavy atom, donor atom, acceptor molecule, acceptor atom, score
      P1  H  7997  8010       L1    34  0.56

> <Gold.PLP.Chemscore.Internal.Correction>
0.3212

> <Gold.Rescore>
     Score         DG    S(hbond)    S(metal)    S(lipo)     H(rot)  DE(clash)    DE(int)     intcor
     19.99     -22.26       0.64        0.00     168.36       1.98       0.22       2.04       ----

> <Gold.Chemscore.Fitness>
19.9911

> <Gold.Chemscore.DG>
-22.2560

> <Gold.Chemscore.ZeroCoef>
-5.4800

> <Gold.Chemscore.Hbond>
0.6388

> <Gold.Chemscore.Metal>
0.0000

> <Gold.Chemscore.Lipo>
168.3633

> <Gold.Chemscore.Internal_Hbond>
0.0000

> <Gold.Chemscore.DEClash>
0.2239

> <Gold.Chemscore.DEInternal>
2.0410

> <Gold.Chemscore.Rot>
1.9750

> <Gold.Chemscore.Internal.Correction>
   9.000000E+99

> <Gold.Chemscore.Hbonds>
donor molecule, donor type, donor heavy atom, donor atom, acceptor molecule, acceptor atom, score
      P1  H  7997  8010       L1    34  0.56

> <Gold.Chemscore.Hbond.Weighted>
-2.1336

> <Gold.Chemscore.Metal.Weighted>
-0.0000

> <Gold.Chemscore.Lipo.Weighted>
-19.6985

> <Gold.Chemscore.Internal_Hbond.Weighted>
0.0000

> <Gold.Chemscore.DEClash.Weighted>
0.2239

> <Gold.Chemscore.DEInternal.Weighted>
2.0410

> <Gold.Chemscore.Rot.Weighted>
5.0561

> <Gold.Chemscore.Internal.Correction.Weighted>
   9.000000E+99

> <Gold.Protein.RotatedTorsions>
[ 6907 6896 6895 6894 ] final -112.35 input  -60.11 | X-H torsion
[ 7974 7965 7964 7962 ] final   89.59 input  175.53 | X-H torsion
[ 8008 7997 7996 7995 ] final  -76.21 input   59.86 | X-H torsion
[ 10167 10162 10161 10158 ] final -139.55 input  -65.29 | X-H torsion
[ 10718 10713 10712 10709 ] final  -64.44 input   66.30 | X-H torsion
[ 10763 10752 10751 10750 ] final  -45.95 input  -60.55 | X-H torsion
[ 11005 11000 10999 10996 ] final  141.82 input  -57.11 | X-H torsion

> <Gold.Protein.ActiveResidues>
 VAL166  LYS551  ARG553  GLY616  TRP617  ASP618  TYR619  PRO620  LYS621  CYS622 
 ASP623  PHE694  ASN695  SER759  ASP760  ASP761  ALA762  ILE779  LEU786  VAL792 
 PHE793  MET794  SER795  GLU796  ALA797  LYS798  CYS799  TRP800  GLU811  SER814 

> <Gold.Protein.RotatedAtoms>
  150.7753  133.9102  159.3366 H   0  0  0  0  0  0  0  0  0  0  0  0  # atno 6907 bound_to 6896
  151.6978  135.0933  160.0255 H   0  0  0  0  0  0  0  0  0  0  0  0  # atno 6908 bound_to 6896
  152.3786  133.6477  159.6179 H   0  0  0  0  0  0  0  0  0  0  0  0  # atno 6909 bound_to 6896
  145.5304  139.2283  143.2622 H   0  0  0  0  0  0  0  0  0  0  0  0  # atno 7974 bound_to 7965
  154.5485  140.0731  156.8629 H   0  0  0  0  0  0  0  0  0  0  0  0  # atno 8008 bound_to 7997
  155.3039  140.3386  155.4228 H   0  0  0  0  0  0  0  0  0  0  0  0  # atno 8009 bound_to 7997
  156.1940  140.1696  156.8021 H   0  0  0  0  0  0  0  0  0  0  0  0  # atno 8010 bound_to 7997
  139.8368  143.7374  152.2664 H   0  0  0  0  0  0  0  0  0  0  0  0  # atno 10167 bound_to 10162
  156.0729  130.4233  150.1421 H   0  0  0  0  0  0  0  0  0  0  0  0  # atno 10718 bound_to 10713
  154.0369  135.6649  153.4786 H   0  0  0  0  0  0  0  0  0  0  0  0  # atno 10763 bound_to 10752
  153.0517  135.5080  154.7879 H   0  0  0  0  0  0  0  0  0  0  0  0  # atno 10764 bound_to 10752
  154.6843  135.3050  154.9535 H   0  0  0  0  0  0  0  0  0  0  0  0  # atno 10765 bound_to 10752
  140.0430  134.9295  157.0878 H   0  0  0  0  0  0  0  0  0  0  0  0  # atno 11005 bound_to 11000
  146.2048  140.6120  142.9086 LP  0  0  0  0  0  0  0  0  0  0  0  0  # atno 17320 bound_to 7965
  144.7629  140.5464  143.6723 LP  0  0  0  0  0  0  0  0  0  0  0  0  # atno 17321 bound_to 7965
  139.7599  144.7509  151.0380 LP  0  0  0  0  0  0  0  0  0  0  0  0  # atno 17342 bound_to 10162
  140.7802  143.4763  151.0078 LP  0  0  0  0  0  0  0  0  0  0  0  0  # atno 17343 bound_to 10162
  156.9468  130.9762  151.3506 LP  0  0  0  0  0  0  0  0  0  0  0  0  # atno 17370 bound_to 10713
  157.5809  130.8376  149.8521 LP  0  0  0  0  0  0  0  0  0  0  0  0  # atno 17371 bound_to 10713
  140.4038  134.2054  155.7163 LP  0  0  0  0  0  0  0  0  0  0  0  0  # atno 17394 bound_to 11000
  141.1893  133.8242  157.0963 LP  0  0  0  0  0  0  0  0  0  0  0  0  # atno 17395 bound_to 11000

$$$$
