AV-unprocessed.smi:2845|AV-procd|sdf|10950|dock10
  -GOLD-   2272015403D 1   1.00000     0.00000
 Structure written by MMmdl.
 43 45  0  0  0  0  0  0  0  0  2 V2000
  152.3470  143.6685  161.4018 C   0  0  0  0  0  0  0  0  0  0  0  0
  152.1345  142.9135  160.1006 C   0  0  0  0  0  0  0  0  0  0  0  0
  151.2351  143.4473  159.1502 C   0  0  0  0  0  0  0  0  0  0  0  0
  151.0657  142.7365  157.9680 C   0  0  0  0  0  0  0  0  0  0  0  0
  150.2687  142.9969  156.8512 N   0  3  0  0  0  0  0  0  0  0  0  0
  150.4393  142.0080  155.9307 C   0  0  0  0  0  0  0  0  0  0  0  0
  151.3323  141.1187  156.4435 N   0  0  0  0  0  0  0  0  0  0  0  0
  151.8619  139.8781  155.8586 C   0  0  0  0  0  0  0  0  0  0  0  0
  150.7958  139.0751  155.0880 C   0  0  1  0  0  0  0  0  0  0  0  0
  150.3895  139.7915  153.9371 O   0  0  0  0  0  0  0  0  0  0  0  0
  151.3121  137.6820  154.6799 C   0  0  0  0  0  0  0  0  0  0  0  0
  150.9300  136.6487  155.6257 N   0  0  0  0  0  0  0  0  0  0  0  0
  150.2896  136.7384  156.7950 C   0  0  0  0  0  0  0  0  0  0  0  0
  150.0976  135.5713  157.3959 N   0  0  0  0  0  0  0  0  0  0  0  0
  150.6874  134.7578  156.4730 C   0  0  0  0  0  0  0  0  0  0  0  0
  150.7645  132.9546  156.7096 S   0  0  2  0  0  0  0  0  0  0  0  0
  149.7132  132.5318  155.2413 C   0  0  0  0  0  0  0  0  0  0  0  0
  149.9311  132.6574  157.9581 O   0  0  0  0  0  0  0  0  0  0  0  0
  151.2052  135.3432  155.3948 N   0  0  0  0  0  0  0  0  0  0  0  0
  151.7513  141.5326  157.7139 C   0  0  0  0  0  0  0  0  0  0  0  0
  152.6402  140.9928  158.6405 C   0  0  0  0  0  0  0  0  0  0  0  0
  152.8280  141.7015  159.8486 C   0  0  0  0  0  0  0  0  0  0  0  0
  153.7961  141.1383  160.8751 C   0  0  0  0  0  0  0  0  0  0  0  0
  151.7617  144.5882  161.4300 H   0  0  0  0  0  0  0  0  0  0  0  0
  153.3966  143.9382  161.5217 H   0  0  0  0  0  0  0  0  0  0  0  0
  152.0465  143.0565  162.2525 H   0  0  0  0  0  0  0  0  0  0  0  0
  150.7043  144.3701  159.3343 H   0  0  0  0  0  0  0  0  0  0  0  0
  149.9542  141.9419  154.9674 H   0  0  0  0  0  0  0  0  0  0  0  0
  152.7168  140.1145  155.2247 H   0  0  0  0  0  0  0  0  0  0  0  0
  152.2515  139.2790  156.6826 H   0  0  0  0  0  0  0  0  0  0  0  0
  149.9193  138.9531  155.7257 H   0  0  0  0  0  0  0  0  0  0  0  0
  149.5184  139.5107  153.6997 H   0  0  0  0  0  0  0  0  0  0  0  0
  150.9436  137.4102  153.6893 H   0  0  0  0  0  0  0  0  0  0  0  0
  152.4008  137.6909  154.6153 H   0  0  0  0  0  0  0  0  0  0  0  0
  149.9543  137.6765  157.2127 H   0  0  0  0  0  0  0  0  0  0  0  0
  149.7989  133.2931  154.4657 H   0  0  0  0  0  0  0  0  0  0  0  0
  148.6668  132.4533  155.5365 H   0  0  0  0  0  0  0  0  0  0  0  0
  150.0269  131.5769  154.8201 H   0  0  0  0  0  0  0  0  0  0  0  0
  153.1753  140.0750  158.4465 H   0  0  0  0  0  0  0  0  0  0  0  0
  154.2017  140.1777  160.5557 H   0  0  0  0  0  0  0  0  0  0  0  0
  153.2973  140.9854  161.8323 H   0  0  0  0  0  0  0  0  0  0  0  0
  154.6328  141.8211  161.0245 H   0  0  0  0  0  0  0  0  0  0  0  0
  149.6546  143.7911  156.7232 H   0  0  0  0  0  0  0  0  0  0  0  0
  1  2  1  0  0  0  0
  1 24  1  0  0  0  0
  1 25  1  0  0  0  0
  1 26  1  0  0  0  0
  2 22  1  0  0  0  0
  2  3  2  0  0  0  0
  3  4  1  0  0  0  0
  3 27  1  0  0  0  0
  4 20  2  0  0  0  0
  4  5  1  0  0  0  0
  5  6  2  0  0  0  0
  5 43  1  0  0  0  0
  6  7  1  0  0  0  0
  6 28  1  0  0  0  0
  7  8  1  0  0  0  0
  7 20  1  0  0  0  0
  8  9  1  0  0  0  0
  8 29  1  0  0  0  0
  8 30  1  0  0  0  0
  9 10  1  0  0  0  0
  9 11  1  0  0  0  0
  9 31  1  0  0  0  0
 10 32  1  0  0  0  0
 11 12  1  0  0  0  0
 11 33  1  0  0  0  0
 11 34  1  0  0  0  0
 12 19  1  0  0  0  0
 12 13  1  0  0  0  0
 13 14  2  0  0  0  0
 13 35  1  0  0  0  0
 14 15  1  0  0  0  0
 15 16  1  0  0  0  0
 15 19  2  0  0  0  0
 16 17  1  0  0  0  0
 16 18  2  0  0  0  0
 17 36  1  0  0  0  0
 17 37  1  0  0  0  0
 17 38  1  0  0  0  0
 20 21  1  0  0  0  0
 21 22  2  0  0  0  0
 21 39  1  0  0  0  0
 22 23  1  0  0  0  0
 23 40  1  0  0  0  0
 23 41  1  0  0  0  0
 23 42  1  0  0  0  0
M  CHG  1   5   1
M  END
> <s_m_source_file>
AV-unprocessed.smi

> <i_m_source_file_index>
2845

> <i_lp_mmshare_version>
43012

> <i_f3d_flags>
0

> <s_epik_input>
W0NIM11jKFtjSF0xKWMoW0NIM10pW2NIXWMoYzEyKW4oW2NIXW4yKVtDSDJdW0NASF0oW09IXSlbQ0gyXW4zW2NIXW5jKG4zKVtTQF0oPU8pW0NIM10=

> <s_epik_cmdline>
J2VwaWtfcHl0aG9uJywgJy1waCcsICc3LjAnLCAnLXRuJywgJzgnLCAnLW1hJywgJzIwMCcsICctbWV0YWxfYmluZGluZycsICctaW1hZScsICc8aW5maWxlLm1hZT4nLCAnLW9tYWUnLCAnPG91dGZpbGUubWFlPic=

> <r_lp_tautomer_probability>
1

> <r_epik_Ionization_Penalty>
1.12076

> <r_epik_Ionization_Penalty_Charging>
1.12075

> <r_epik_Ionization_Penalty_Neutral>
1.54566e-06

> <r_epik_State_Penalty>
1.17957

> <r_epik_Charging_Adjusted_Penalty>
2.30033

> <i_epik_Tot_Q>
1

> <i_epik_Tot_abs_Q>
1

> <r_epik_Metal_State_Penalty>
1.26402

> <b_epik_Metal_Only>
0

> <s_lp_Force_Field>
OPLS_2005

> <r_lp_Energy>
14.8832

> <b_lp_Chiralities_Consistent>
1

> <s_lp_Variant>
AV-unprocessed.smi:2845-8

> <Gold.Version>
5.8.1

> <Gold.Id.Protein>
6NUR|6NUR_protein|mol2

> <Gold.PLP.Fitness>
59.3269

> <Gold.PLP.PLP>
-47.2035

> <Gold.PLP.part.hbond>
-5.4282

> <Gold.PLP.part.metal>
0.0000

> <Gold.PLP.part.buried>
-4.6117

> <Gold.PLP.part.nonpolar>
-36.7734

> <Gold.PLP.part.repulsive>
0.1187

> <Gold.PLP.ligand.clash>
0.6130

> <Gold.PLP.ligand.torsion>
1.4738

> <Gold.PLP.Chemscore.Hbond>
4.8880

> <Gold.PLP.Chemscore.CHOScore>
0.0000

> <Gold.PLP.Chemscore.Metal>
0.0000

> <Gold.Chemscore.Hbonds>
donor molecule, donor type, donor heavy atom, donor atom, acceptor molecule, acceptor atom, score
      L1  H     5    43       P1  8028  1.89
      P1  H  6896  6909       L1    18  0.95
      P1  H  7989  7998       L1    10  1.00
      P1  H 10752 10763       L1    19  1.00

> <Gold.PLP.Chemscore.Internal.Correction>
1.0200

> <Gold.Rescore>
     Score         DG    S(hbond)    S(metal)    S(lipo)     H(rot)  DE(clash)    DE(int)     intcor
     17.94     -20.78       3.07        0.00     103.63       2.77       0.17       2.67       ----

> <Gold.Chemscore.Fitness>
17.9434

> <Gold.Chemscore.DG>
-20.7811

> <Gold.Chemscore.ZeroCoef>
-5.4800

> <Gold.Chemscore.Hbond>
3.0728

> <Gold.Chemscore.Metal>
0.0000

> <Gold.Chemscore.Lipo>
103.6252

> <Gold.Chemscore.Internal_Hbond>
0.0000

> <Gold.Chemscore.DEClash>
0.1664

> <Gold.Chemscore.DEInternal>
2.6714

> <Gold.Chemscore.Rot>
2.7681

> <Gold.Chemscore.Internal.Correction>
   9.000000E+99

> <Gold.Chemscore.Hbonds>
donor molecule, donor type, donor heavy atom, donor atom, acceptor molecule, acceptor atom, score
      L1  H     5    43       P1  8028  0.88
      P1  H  6896  6909       L1    18  0.22
      P1  H  7989  7998       L1    10  0.72
      P1  H 10752 10763       L1    19  0.25

> <Gold.Chemscore.Hbond.Weighted>
-10.2632

> <Gold.Chemscore.Metal.Weighted>
-0.0000

> <Gold.Chemscore.Lipo.Weighted>
-12.1242

> <Gold.Chemscore.Internal_Hbond.Weighted>
0.0000

> <Gold.Chemscore.DEClash.Weighted>
0.1664

> <Gold.Chemscore.DEInternal.Weighted>
2.6714

> <Gold.Chemscore.Rot.Weighted>
7.0863

> <Gold.Chemscore.Internal.Correction.Weighted>
   9.000000E+99

> <Gold.Protein.RotatedTorsions>
[ 6907 6896 6895 6894 ] final  -14.82 input  -60.11 | X-H torsion
[ 7974 7965 7964 7962 ] final  131.98 input  175.53 | X-H torsion
[ 8008 7997 7996 7995 ] final  120.86 input   59.86 | X-H torsion
[ 10167 10162 10161 10158 ] final -147.41 input  -65.29 | X-H torsion
[ 10718 10713 10712 10709 ] final -146.80 input   66.30 | X-H torsion
[ 10763 10752 10751 10750 ] final   74.96 input  -60.55 | X-H torsion
[ 11005 11000 10999 10996 ] final   58.59 input  -57.11 | X-H torsion

> <Gold.Protein.ActiveResidues>
 VAL166  LYS551  ARG553  GLY616  TRP617  ASP618  TYR619  PRO620  LYS621  CYS622 
 ASP623  PHE694  ASN695  SER759  ASP760  ASP761  ALA762  ILE779  LEU786  VAL792 
 PHE793  MET794  SER795  GLU796  ALA797  LYS798  CYS799  TRP800  GLU811  SER814 

> <Gold.Protein.RotatedAtoms>
  151.3335  135.0847  159.9346 H   0  0  0  0  0  0  0  0  0  0  0  0  # atno 6907 bound_to 6896
  152.5229  133.9519  159.7686 H   0  0  0  0  0  0  0  0  0  0  0  0  # atno 6908 bound_to 6896
  150.9862  133.6142  159.2745 H   0  0  0  0  0  0  0  0  0  0  0  0  # atno 6909 bound_to 6896
  145.0017  139.4306  143.5289 H   0  0  0  0  0  0  0  0  0  0  0  0  # atno 7974 bound_to 7965
  156.2661  140.2821  156.1216 H   0  0  0  0  0  0  0  0  0  0  0  0  # atno 8008 bound_to 7997
  155.1149  140.0391  157.2752 H   0  0  0  0  0  0  0  0  0  0  0  0  # atno 8009 bound_to 7997
  154.6714  140.2588  155.7009 H   0  0  0  0  0  0  0  0  0  0  0  0  # atno 8010 bound_to 7997
  139.7624  143.8357  152.2610 H   0  0  0  0  0  0  0  0  0  0  0  0  # atno 10167 bound_to 10162
  156.3995  130.7927  151.2136 H   0  0  0  0  0  0  0  0  0  0  0  0  # atno 10718 bound_to 10713
  153.0622  135.5006  154.8120 H   0  0  0  0  0  0  0  0  0  0  0  0  # atno 10763 bound_to 10752
  154.6900  135.2983  154.9495 H   0  0  0  0  0  0  0  0  0  0  0  0  # atno 10764 bound_to 10752
  154.0253  135.6736  153.4828 H   0  0  0  0  0  0  0  0  0  0  0  0  # atno 10765 bound_to 10752
  140.0366  134.5934  155.9436 H   0  0  0  0  0  0  0  0  0  0  0  0  # atno 11005 bound_to 11000
  146.3453  139.9409  142.8741 LP  0  0  0  0  0  0  0  0  0  0  0  0  # atno 17320 bound_to 7965
  145.2145  140.9909  143.4081 LP  0  0  0  0  0  0  0  0  0  0  0  0  # atno 17321 bound_to 7965
  139.8367  144.7229  150.9382 LP  0  0  0  0  0  0  0  0  0  0  0  0  # atno 17342 bound_to 10162
  140.7808  143.4020  151.1133 LP  0  0  0  0  0  0  0  0  0  0  0  0  # atno 17343 bound_to 10162
  157.7503  131.0291  150.4078 LP  0  0  0  0  0  0  0  0  0  0  0  0  # atno 17370 bound_to 10713
  156.4355  130.3981  149.6732 LP  0  0  0  0  0  0  0  0  0  0  0  0  # atno 17371 bound_to 10713
  141.1861  133.6556  156.5224 LP  0  0  0  0  0  0  0  0  0  0  0  0  # atno 17394 bound_to 11000
  140.4137  134.7249  157.4850 LP  0  0  0  0  0  0  0  0  0  0  0  0  # atno 17395 bound_to 11000

$$$$
