AV-unprocessed.smi:1740|AV-procd|sdf|7015|dock2
  -GOLD-   22720 8233D 1   1.00000     0.00000
 Structure written by MMmdl.
 52 54  0  0  0  0  0  0  0  0  4 V2000
  143.6203  134.1120  147.8013 N   0  5  0  0  0  0  0  0  0  0  0  0
  143.4138  132.9360  148.4272 C   0  0  0  0  0  0  0  0  0  0  0  0
  142.7648  131.9718  148.0288 O   0  0  0  0  0  0  0  0  0  0  0  0
  144.1057  132.8727  149.7930 C   0  0  0  0  0  0  0  0  0  0  0  0
  143.8400  134.1054  150.5781 N   0  3  2  0  0  0  0  0  0  0  0  0
  144.9131  135.1274  150.4474 C   0  0  0  0  0  0  0  0  0  0  0  0
  144.5351  136.4323  151.1723 C   0  0  0  0  0  0  0  0  0  0  0  0
  144.1843  136.1920  152.6509 C   0  0  2  0  0  0  0  0  0  0  0  0
  145.3857  135.8542  153.4139 N   0  0  0  0  0  0  0  0  0  0  0  0
  146.4979  136.5998  153.4776 C   0  0  0  0  0  0  0  0  0  0  0  0
  146.6414  137.6655  152.8787 O   0  0  0  0  0  0  0  0  0  0  0  0
  147.4114  136.0475  154.2925 N   0  0  0  0  0  0  0  0  0  0  0  0
  148.6615  136.6040  154.6803 C   0  0  0  0  0  0  0  0  0  0  0  0
  148.9286  137.9829  154.4845 C   0  0  0  0  0  0  0  0  0  0  0  0
  150.1948  138.5059  154.8065 C   0  0  0  0  0  0  0  0  0  0  0  0
  151.1814  137.6380  155.3046 C   0  0  0  0  0  0  0  0  0  0  0  0
  150.9001  136.3289  155.4684 N   0  3  0  0  0  0  0  0  0  0  0  0
  149.6963  135.7674  155.1916 C   0  0  0  0  0  0  0  0  0  0  0  0
  149.5466  134.3812  155.4287 N   0  0  0  0  0  0  0  0  0  0  0  0
  149.1608  133.4851  154.3448 C   0  0  0  0  0  0  0  0  0  0  0  0
  149.4298  132.0803  154.8765 C   0  0  0  0  0  0  0  0  0  0  0  0
  150.6708  132.2878  155.7396 C   0  0  0  0  0  0  0  0  0  0  0  0
  150.4852  133.6966  156.3127 C   0  0  0  0  0  0  0  0  0  0  0  0
  143.1127  135.0884  152.7530 C   0  0  0  0  0  0  0  0  0  0  0  0
  143.5268  133.8122  151.9993 C   0  0  0  0  0  0  0  0  0  0  0  0
  144.5822  134.3772  147.5571 H   0  0  0  0  0  0  0  0  0  0  0  0
  143.7246  131.9961  150.3199 H   0  0  0  0  0  0  0  0  0  0  0  0
  145.1798  132.7207  149.6742 H   0  0  0  0  0  0  0  0  0  0  0  0
  145.8463  134.7287  150.8482 H   0  0  0  0  0  0  0  0  0  0  0  0
  145.0952  135.3483  149.3952 H   0  0  0  0  0  0  0  0  0  0  0  0
  145.3459  137.1570  151.0879 H   0  0  0  0  0  0  0  0  0  0  0  0
  143.6767  136.8799  150.6696 H   0  0  0  0  0  0  0  0  0  0  0  0
  143.7763  137.1194  153.0573 H   0  0  0  0  0  0  0  0  0  0  0  0
  145.3635  134.9894  153.9342 H   0  0  0  0  0  0  0  0  0  0  0  0
  147.1256  135.2175  154.7910 H   0  0  0  0  0  0  0  0  0  0  0  0
  148.1822  138.6442  154.0702 H   0  0  0  0  0  0  0  0  0  0  0  0
  150.4084  139.5547  154.6606 H   0  0  0  0  0  0  0  0  0  0  0  0
  152.1816  137.9470  155.5714 H   0  0  0  0  0  0  0  0  0  0  0  0
  148.1152  133.6200  154.0670 H   0  0  0  0  0  0  0  0  0  0  0  0
  149.7781  133.6675  153.4642 H   0  0  0  0  0  0  0  0  0  0  0  0
  148.5960  131.7483  155.4965 H   0  0  0  0  0  0  0  0  0  0  0  0
  149.5769  131.3465  154.0838 H   0  0  0  0  0  0  0  0  0  0  0  0
  150.7841  131.5277  156.5128 H   0  0  0  0  0  0  0  0  0  0  0  0
  151.5615  132.2619  155.1105 H   0  0  0  0  0  0  0  0  0  0  0  0
  151.4385  134.2213  156.3882 H   0  0  0  0  0  0  0  0  0  0  0  0
  150.0483  133.6377  157.3098 H   0  0  0  0  0  0  0  0  0  0  0  0
  142.8977  134.8537  153.7961 H   0  0  0  0  0  0  0  0  0  0  0  0
  142.1777  135.4602  152.3316 H   0  0  0  0  0  0  0  0  0  0  0  0
  142.7124  133.0887  152.0528 H   0  0  0  0  0  0  0  0  0  0  0  0
  144.3922  133.3500  152.4771 H   0  0  0  0  0  0  0  0  0  0  0  0
  143.0014  134.5010  150.1750 H   0  0  0  0  0  0  0  0  0  0  0  0
  151.6380  135.7251  155.8312 H   0  0  0  0  0  0  0  0  0  0  0  0
  1  2  1  0  0  0  0
  1 26  1  0  0  0  0
  2  3  2  0  0  0  0
  2  4  1  0  0  0  0
  4  5  1  0  0  0  0
  4 27  1  0  0  0  0
  4 28  1  0  0  0  0
  5 25  1  0  0  0  0
  5  6  1  0  0  0  0
  5 51  1  0  0  0  0
  6  7  1  0  0  0  0
  6 29  1  0  0  0  0
  6 30  1  0  0  0  0
  7  8  1  0  0  0  0
  7 31  1  0  0  0  0
  7 32  1  0  0  0  0
  8  9  1  0  0  0  0
  8 24  1  0  0  0  0
  8 33  1  0  0  0  0
  9 10  1  0  0  0  0
  9 34  1  0  0  0  0
 10 11  2  0  0  0  0
 10 12  1  0  0  0  0
 12 13  1  0  0  0  0
 12 35  1  0  0  0  0
 13 18  1  0  0  0  0
 13 14  2  0  0  0  0
 14 15  1  0  0  0  0
 14 36  1  0  0  0  0
 15 16  2  0  0  0  0
 15 37  1  0  0  0  0
 16 17  1  0  0  0  0
 16 38  1  0  0  0  0
 17 18  2  0  0  0  0
 17 52  1  0  0  0  0
 18 19  1  0  0  0  0
 19 23  1  0  0  0  0
 19 20  1  0  0  0  0
 20 21  1  0  0  0  0
 20 39  1  0  0  0  0
 20 40  1  0  0  0  0
 21 22  1  0  0  0  0
 21 41  1  0  0  0  0
 21 42  1  0  0  0  0
 22 23  1  0  0  0  0
 22 43  1  0  0  0  0
 22 44  1  0  0  0  0
 23 45  1  0  0  0  0
 23 46  1  0  0  0  0
 24 25  1  0  0  0  0
 24 47  1  0  0  0  0
 24 48  1  0  0  0  0
 25 49  1  0  0  0  0
 25 50  1  0  0  0  0
M  CHG  1   1  -1
M  CHG  1   5   1
M  CHG  1  17   1
M  END
> <s_m_source_file>
AV-unprocessed.smi

> <i_m_source_file_index>
1740

> <i_lp_mmshare_version>
43012

> <i_f3d_flags>
0

> <s_epik_input>
W05IMl1DKD1PKVtDSDJdTjFbQ0gyXVtDSDJdW0NIXShbQ0gyXVtDSDJdMSlbTkhdQyg9TylbTkhdYzJbY0hdW2NIXVtjSF1uYzJOM1tDSDJdW0NIMl1bQ0gyXVtDSDJdMw==

> <s_epik_cmdline>
J2VwaWtfcHl0aG9uJywgJy1waCcsICc3LjAnLCAnLXRuJywgJzgnLCAnLW1hJywgJzIwMCcsICctbWV0YWxfYmluZGluZycsICctaW1hZScsICc8aW5maWxlLm1hZT4nLCAnLW9tYWUnLCAnPG91dGZpbGUubWFlPic=

> <r_lp_tautomer_probability>
0.999994

> <r_epik_Ionization_Penalty>
6.97817

> <r_epik_Ionization_Penalty_Charging>
6.97815

> <r_epik_Ionization_Penalty_Neutral>
1.88285e-05

> <r_epik_State_Penalty>
7.80985

> <r_epik_Charging_Adjusted_Penalty>
14.788

> <i_epik_Tot_Q>
1

> <i_epik_Tot_abs_Q>
3

> <r_epik_Metal_State_Penalty>
3.85728

> <b_epik_Metal_Only>
1

> <s_lp_Force_Field>
OPLS_2005

> <r_lp_Energy>
44.1168

> <b_lp_Chiralities_Consistent>
1

> <s_lp_Variant>
AV-unprocessed.smi:1740-10

> <Gold.Version>
5.8.1

> <Gold.Id.Protein>
6NUR|6NUR_protein|mol2

> <Gold.PLP.Fitness>
46.3357

> <Gold.PLP.PLP>
-33.9966

> <Gold.PLP.part.hbond>
-6.8341

> <Gold.PLP.part.metal>
0.0000

> <Gold.PLP.part.buried>
0.0383

> <Gold.PLP.part.nonpolar>
-31.0497

> <Gold.PLP.part.repulsive>
2.2693

> <Gold.PLP.ligand.clash>
0.0000

> <Gold.PLP.ligand.torsion>
1.0327

> <Gold.PLP.Chemscore.Hbond>
4.6400

> <Gold.PLP.Chemscore.CHOScore>
0.0000

> <Gold.PLP.Chemscore.Metal>
0.0000

> <Gold.Chemscore.Hbonds>
donor molecule, donor type, donor heavy atom, donor atom, acceptor molecule, acceptor atom, score
      L1  H     1    26       P1  7921  1.00
      L1  H     5    51       P1 10186  1.72
      P1  H 10192 10197       L1     1  1.00
      P1  H 10785 10796       L1     3  0.66

> <Gold.PLP.Chemscore.Internal.Correction>
0.4844

> <Gold.Rescore>
     Score         DG    S(hbond)    S(metal)    S(lipo)     H(rot)  DE(clash)    DE(int)     intcor
     14.03     -19.82       3.35        0.00      74.73       2.18       2.38       3.41       ----

> <Gold.Chemscore.Fitness>
14.0284

> <Gold.Chemscore.DG>
-19.8177

> <Gold.Chemscore.ZeroCoef>
-5.4800

> <Gold.Chemscore.Hbond>
3.3483

> <Gold.Chemscore.Metal>
0.0000

> <Gold.Chemscore.Lipo>
74.7309

> <Gold.Chemscore.Internal_Hbond>
0.0000

> <Gold.Chemscore.DEClash>
2.3788

> <Gold.Chemscore.DEInternal>
3.4105

> <Gold.Chemscore.Rot>
2.1832

> <Gold.Chemscore.Internal.Correction>
   9.000000E+99

> <Gold.Chemscore.Hbonds>
donor molecule, donor type, donor heavy atom, donor atom, acceptor molecule, acceptor atom, score
      L1  H     1    26       P1  7921  0.97
      L1  H     5    51       P1 10186  0.64
      P1  H 10192 10197       L1     1  0.90
      P1  H 10785 10796       L1     3  0.62

> <Gold.Chemscore.Hbond.Weighted>
-11.1833

> <Gold.Chemscore.Metal.Weighted>
-0.0000

> <Gold.Chemscore.Lipo.Weighted>
-8.7435

> <Gold.Chemscore.Internal_Hbond.Weighted>
0.0000

> <Gold.Chemscore.DEClash.Weighted>
2.3788

> <Gold.Chemscore.DEInternal.Weighted>
3.4105

> <Gold.Chemscore.Rot.Weighted>
5.5891

> <Gold.Chemscore.Internal.Correction.Weighted>
   9.000000E+99

> <Gold.Protein.RotatedTorsions>
[ 6907 6896 6895 6894 ] final -150.99 input  -60.11 | X-H torsion
[ 7974 7965 7964 7962 ] final   39.62 input  175.53 | X-H torsion
[ 8008 7997 7996 7995 ] final -139.08 input   59.86 | X-H torsion
[ 10167 10162 10161 10158 ] final  117.43 input  -65.29 | X-H torsion
[ 10718 10713 10712 10709 ] final  136.04 input   66.30 | X-H torsion
[ 10763 10752 10751 10750 ] final  -81.09 input  -60.55 | X-H torsion
[ 11005 11000 10999 10996 ] final  145.75 input  -57.11 | X-H torsion

> <Gold.Protein.ActiveResidues>
 VAL166  LYS551  ARG553  GLY616  TRP617  ASP618  TYR619  PRO620  LYS621  CYS622 
 ASP623  PHE694  ASN695  SER759  ASP760  ASP761  ALA762  ILE779  LEU786  VAL792 
 PHE793  MET794  SER795  GLU796  ALA797  LYS798  CYS799  TRP800  GLU811  SER814 

> <Gold.Protein.RotatedAtoms>
  151.2066  133.4580  159.2597 H   0  0  0  0  0  0  0  0  0  0  0  0  # atno 6907 bound_to 6896
  151.1017  134.9976  159.8462 H   0  0  0  0  0  0  0  0  0  0  0  0  # atno 6908 bound_to 6896
  152.5444  134.1992  159.8758 H   0  0  0  0  0  0  0  0  0  0  0  0  # atno 6909 bound_to 6896
  146.0970  139.5630  142.9439 H   0  0  0  0  0  0  0  0  0  0  0  0  # atno 7974 bound_to 7965
  155.4389  140.0530  157.3012 H   0  0  0  0  0  0  0  0  0  0  0  0  # atno 8008 bound_to 7997
  154.4827  140.2088  155.9684 H   0  0  0  0  0  0  0  0  0  0  0  0  # atno 8009 bound_to 7997
  156.1229  140.3185  155.8239 H   0  0  0  0  0  0  0  0  0  0  0  0  # atno 8010 bound_to 7997
  139.6179  144.7095  151.2698 H   0  0  0  0  0  0  0  0  0  0  0  0  # atno 10167 bound_to 10162
  157.4507  131.1066  151.0036 H   0  0  0  0  0  0  0  0  0  0  0  0  # atno 10718 bound_to 10713
  154.5593  135.5638  153.6993 H   0  0  0  0  0  0  0  0  0  0  0  0  # atno 10763 bound_to 10752
  153.0013  135.6270  154.2266 H   0  0  0  0  0  0  0  0  0  0  0  0  # atno 10764 bound_to 10752
  154.2204  135.2870  155.2907 H   0  0  0  0  0  0  0  0  0  0  0  0  # atno 10765 bound_to 10752
  140.0737  134.9137  157.1387 H   0  0  0  0  0  0  0  0  0  0  0  0  # atno 11005 bound_to 11000
  145.5929  141.0367  143.2060 LP  0  0  0  0  0  0  0  0  0  0  0  0  # atno 17320 bound_to 7965
  144.7403  139.7468  143.7313 LP  0  0  0  0  0  0  0  0  0  0  0  0  # atno 17321 bound_to 7965
  140.7363  143.6711  150.8081 LP  0  0  0  0  0  0  0  0  0  0  0  0  # atno 17342 bound_to 10162
  140.0317  143.5436  152.2757 LP  0  0  0  0  0  0  0  0  0  0  0  0  # atno 17343 bound_to 10162
  157.0867  130.5925  149.5431 LP  0  0  0  0  0  0  0  0  0  0  0  0  # atno 17370 bound_to 10713
  155.9986  130.5060  150.7577 LP  0  0  0  0  0  0  0  0  0  0  0  0  # atno 17371 bound_to 10713
  140.3589  134.2516  155.7189 LP  0  0  0  0  0  0  0  0  0  0  0  0  # atno 17394 bound_to 11000
  141.2021  133.7945  157.0405 LP  0  0  0  0  0  0  0  0  0  0  0  0  # atno 17395 bound_to 11000

$$$$
