AV-unprocessed.smi:2213|AV-procd|sdf|8957|dock7
  -GOLD-   2272012173D 1   1.00000     0.00000
 Structure written by MMmdl.
 38 39  0  0  0  0  0  0  0  0  1 V2000
  146.2082  138.2738  157.5292 C   0  0  0  0  0  0  0  0  0  0  0  0
  147.4207  138.5701  156.6646 C   0  0  0  0  0  0  0  0  0  0  0  0
  148.4702  137.6516  156.7605 N   0  0  0  0  0  0  0  0  0  0  0  0
  149.5437  137.8237  156.0607 C   0  0  0  0  0  0  0  0  0  0  0  0
  149.6901  138.9169  155.1914 N   0  0  0  0  0  0  0  0  0  0  0  0
  150.9608  138.9964  154.4521 C   0  0  0  0  0  0  0  0  0  0  0  0
  152.1464  139.3702  155.3702 C   0  0  1  0  0  0  0  0  0  0  0  0
  153.1322  140.0725  154.6404 O   0  0  0  0  0  0  0  0  0  0  0  0
  151.7326  140.2504  156.5614 C   0  0  0  0  0  0  0  0  0  0  0  0
  152.7928  140.3044  157.5080 O   0  0  0  0  0  0  0  0  0  0  0  0
  152.7220  141.2318  158.5260 C   0  0  0  0  0  0  0  0  0  0  0  0
  151.9026  142.3888  158.4865 C   0  0  0  0  0  0  0  0  0  0  0  0
  151.8858  143.2903  159.5687 C   0  0  0  0  0  0  0  0  0  0  0  0
  150.8838  144.6934  159.5060 Cl  0  0  0  0  0  0  0  0  0  0  0  0
  152.6847  143.0483  160.7015 C   0  0  0  0  0  0  0  0  0  0  0  0
  153.5006  141.9035  160.7507 C   0  0  0  0  0  0  0  0  0  0  0  0
  153.5192  141.0010  159.6694 C   0  0  0  0  0  0  0  0  0  0  0  0
  154.5314  139.6037  159.7538 Cl  0  0  0  0  0  0  0  0  0  0  0  0
  148.7207  139.8661  155.0473 C   0  0  0  0  0  0  0  0  0  0  0  0
  148.8690  140.8330  154.2972 O   0  0  0  0  0  0  0  0  0  0  0  0
  147.5029  139.6547  155.8463 C   0  0  0  0  0  0  0  0  0  0  0  0
  146.3933  140.6889  155.7023 C   0  0  0  0  0  0  0  0  0  0  0  0
  145.3198  138.1427  156.9110 H   0  0  0  0  0  0  0  0  0  0  0  0
  146.0300  139.0913  158.2283 H   0  0  0  0  0  0  0  0  0  0  0  0
  146.3482  137.3618  158.1111 H   0  0  0  0  0  0  0  0  0  0  0  0
  150.3938  137.1406  156.1043 H   0  0  0  0  0  0  0  0  0  0  0  0
  151.1759  138.0765  153.9039 H   0  0  0  0  0  0  0  0  0  0  0  0
  150.8571  139.7530  153.6719 H   0  0  0  0  0  0  0  0  0  0  0  0
  152.6159  138.4700  155.7689 H   0  0  0  0  0  0  0  0  0  0  0  0
  153.0425  139.8496  153.7264 H   0  0  0  0  0  0  0  0  0  0  0  0
  151.5307  141.2583  156.1956 H   0  0  0  0  0  0  0  0  0  0  0  0
  150.8153  139.8723  157.0166 H   0  0  0  0  0  0  0  0  0  0  0  0
  151.2761  142.6070  157.6352 H   0  0  0  0  0  0  0  0  0  0  0  0
  152.6725  143.7386  161.5322 H   0  0  0  0  0  0  0  0  0  0  0  0
  154.1138  141.7181  161.6203 H   0  0  0  0  0  0  0  0  0  0  0  0
  146.7542  141.6719  156.0060 H   0  0  0  0  0  0  0  0  0  0  0  0
  145.5137  140.4619  156.3024 H   0  0  0  0  0  0  0  0  0  0  0  0
  146.0711  140.7530  154.6623 H   0  0  0  0  0  0  0  0  0  0  0  0
  1  2  1  0  0  0  0
  1 23  1  0  0  0  0
  1 24  1  0  0  0  0
  1 25  1  0  0  0  0
  2 21  2  0  0  0  0
  2  3  1  0  0  0  0
  3  4  2  0  0  0  0
  4  5  1  0  0  0  0
  4 26  1  0  0  0  0
  5  6  1  0  0  0  0
  5 19  1  0  0  0  0
  6  7  1  0  0  0  0
  6 27  1  0  0  0  0
  6 28  1  0  0  0  0
  7  8  1  0  0  0  0
  7  9  1  0  0  0  0
  7 29  1  0  0  0  0
  8 30  1  0  0  0  0
  9 10  1  0  0  0  0
  9 31  1  0  0  0  0
  9 32  1  0  0  0  0
 10 11  1  0  0  0  0
 11 17  1  0  0  0  0
 11 12  2  0  0  0  0
 12 13  1  0  0  0  0
 12 33  1  0  0  0  0
 13 14  1  0  0  0  0
 13 15  2  0  0  0  0
 15 16  1  0  0  0  0
 15 34  1  0  0  0  0
 16 17  2  0  0  0  0
 16 35  1  0  0  0  0
 17 18  1  0  0  0  0
 19 20  2  0  0  0  0
 19 21  1  0  0  0  0
 21 22  1  0  0  0  0
 22 36  1  0  0  0  0
 22 37  1  0  0  0  0
 22 38  1  0  0  0  0
M  END
> <s_m_source_file>
AV-unprocessed.smi

> <i_m_source_file_index>
2213

> <i_lp_mmshare_version>
43012

> <i_f3d_flags>
0

> <s_epik_input>
W0NIM11jMW5bY0hdbihjKD1PKWMxW0NIM10pW0NIMl1bQ0BIXShbT0hdKVtDSDJdT2MyW2NIXWMoQ2wpW2NIXVtjSF1jMkNs

> <s_epik_cmdline>
J2VwaWtfcHl0aG9uJywgJy1waCcsICc3LjAnLCAnLXRuJywgJzgnLCAnLW1hJywgJzIwMCcsICctbWV0YWxfYmluZGluZycsICctaW1hZScsICc8aW5maWxlLm1hZT4nLCAnLW9tYWUnLCAnPG91dGZpbGUubWFlPic=

> <r_lp_tautomer_probability>
1

> <r_epik_Ionization_Penalty>
3.50205e-05

> <r_epik_Ionization_Penalty_Charging>
7.87908e-08

> <r_epik_Ionization_Penalty_Neutral>
3.49418e-05

> <r_epik_State_Penalty>
-0

> <r_epik_Charging_Adjusted_Penalty>
7.87908e-08

> <i_epik_Tot_Q>
0

> <i_epik_Tot_abs_Q>
0

> <r_epik_Metal_State_Penalty>
-0

> <b_epik_Metal_Only>
0

> <s_lp_Force_Field>
OPLS_2005

> <r_lp_Energy>
23.8454

> <b_lp_Chiralities_Consistent>
1

> <s_lp_Variant>
AV-unprocessed.smi:2213-2

> <Gold.Version>
5.8.1

> <Gold.Id.Protein>
6NUR|6NUR_protein|mol2

> <Gold.PLP.Fitness>
48.7983

> <Gold.PLP.PLP>
-43.7673

> <Gold.PLP.part.hbond>
-4.7292

> <Gold.PLP.part.metal>
0.0000

> <Gold.PLP.part.buried>
-4.6771

> <Gold.PLP.part.nonpolar>
-34.7158

> <Gold.PLP.part.repulsive>
1.5643

> <Gold.PLP.ligand.clash>
0.0000

> <Gold.PLP.ligand.torsion>
0.8769

> <Gold.PLP.Chemscore.Hbond>
2.2495

> <Gold.PLP.Chemscore.CHOScore>
0.0000

> <Gold.PLP.Chemscore.Metal>
0.0000

> <Gold.Chemscore.Hbonds>
donor molecule, donor type, donor heavy atom, donor atom, acceptor molecule, acceptor atom, score
      P1  H  7997  8008       L1    10  0.83
      P1  H  7997  8009       L1     8  0.24

> <Gold.PLP.Chemscore.Internal.Correction>
0.0364

> <Gold.Rescore>
     Score         DG    S(hbond)    S(metal)    S(lipo)     H(rot)  DE(clash)    DE(int)     intcor
     17.70     -18.91       1.91        0.00     112.26       2.38       0.47       0.73       ----

> <Gold.Chemscore.Fitness>
17.6984

> <Gold.Chemscore.DG>
-18.9056

> <Gold.Chemscore.ZeroCoef>
-5.4800

> <Gold.Chemscore.Hbond>
1.9134

> <Gold.Chemscore.Metal>
0.0000

> <Gold.Chemscore.Lipo>
112.2597

> <Gold.Chemscore.Internal_Hbond>
0.0000

> <Gold.Chemscore.DEClash>
0.4749

> <Gold.Chemscore.DEInternal>
0.7323

> <Gold.Chemscore.Rot>
2.3826

> <Gold.Chemscore.Internal.Correction>
   9.000000E+99

> <Gold.Chemscore.Hbonds>
donor molecule, donor type, donor heavy atom, donor atom, acceptor molecule, acceptor atom, score
      P1  H  7997  8008       L1    10  0.62
      P1  H  7997  8009       L1     8  0.22

> <Gold.Chemscore.Hbond.Weighted>
-6.3908

> <Gold.Chemscore.Metal.Weighted>
-0.0000

> <Gold.Chemscore.Lipo.Weighted>
-13.1344

> <Gold.Chemscore.Internal_Hbond.Weighted>
0.0000

> <Gold.Chemscore.DEClash.Weighted>
0.4749

> <Gold.Chemscore.DEInternal.Weighted>
0.7323

> <Gold.Chemscore.Rot.Weighted>
6.0996

> <Gold.Chemscore.Internal.Correction.Weighted>
   9.000000E+99

> <Gold.Protein.RotatedTorsions>
[ 6907 6896 6895 6894 ] final  -27.21 input  -60.11 | X-H torsion
[ 7974 7965 7964 7962 ] final -178.25 input  175.53 | X-H torsion
[ 8008 7997 7996 7995 ] final  -81.75 input   59.86 | X-H torsion
[ 10167 10162 10161 10158 ] final  134.64 input  -65.29 | X-H torsion
[ 10718 10713 10712 10709 ] final   35.31 input   66.30 | X-H torsion
[ 10763 10752 10751 10750 ] final -116.06 input  -60.55 | X-H torsion
[ 11005 11000 10999 10996 ] final   45.41 input  -57.11 | X-H torsion

> <Gold.Protein.ActiveResidues>
 VAL166  LYS551  ARG553  GLY616  TRP617  ASP618  TYR619  PRO620  LYS621  CYS622 
 ASP623  PHE694  ASN695  SER759  ASP760  ASP761  ALA762  ILE779  LEU786  VAL792 
 PHE793  MET794  SER795  GLU796  ALA797  LYS798  CYS799  TRP800  GLU811  SER814 

> <Gold.Protein.RotatedAtoms>
  151.1500  135.0222  159.8663 H   0  0  0  0  0  0  0  0  0  0  0  0  # atno 6907 bound_to 6896
  152.5453  134.1399  159.8485 H   0  0  0  0  0  0  0  0  0  0  0  0  # atno 6908 bound_to 6896
  151.1484  133.4878  159.2628 H   0  0  0  0  0  0  0  0  0  0  0  0  # atno 6909 bound_to 6896
  144.7130  140.0897  143.6422 H   0  0  0  0  0  0  0  0  0  0  0  0  # atno 7974 bound_to 7965
  154.6015  140.0643  156.9375 H   0  0  0  0  0  0  0  0  0  0  0  0  # atno 8008 bound_to 7997
  155.2124  140.3323  155.4308 H   0  0  0  0  0  0  0  0  0  0  0  0  # atno 8009 bound_to 7997
  156.2321  140.1846  156.7199 H   0  0  0  0  0  0  0  0  0  0  0  0  # atno 8010 bound_to 7997
  139.5248  144.6557  151.5169 H   0  0  0  0  0  0  0  0  0  0  0  0  # atno 10167 bound_to 10162
  157.3211  130.7449  149.6786 H   0  0  0  0  0  0  0  0  0  0  0  0  # atno 10718 bound_to 10713
  154.8505  135.4359  154.1762 H   0  0  0  0  0  0  0  0  0  0  0  0  # atno 10763 bound_to 10752
  153.2863  135.6958  153.7342 H   0  0  0  0  0  0  0  0  0  0  0  0  # atno 10764 bound_to 10752
  153.6526  135.3449  155.3079 H   0  0  0  0  0  0  0  0  0  0  0  0  # atno 10765 bound_to 10752
  140.1462  134.4520  155.8414 H   0  0  0  0  0  0  0  0  0  0  0  0  # atno 11005 bound_to 11000
  145.9631  139.2815  143.1143 LP  0  0  0  0  0  0  0  0  0  0  0  0  # atno 17320 bound_to 7965
  145.9199  140.9122  143.0410 LP  0  0  0  0  0  0  0  0  0  0  0  0  # atno 17321 bound_to 7965
  140.6381  143.8943  150.6666 LP  0  0  0  0  0  0  0  0  0  0  0  0  # atno 17342 bound_to 10162
  140.2269  143.3766  152.1598 LP  0  0  0  0  0  0  0  0  0  0  0  0  # atno 17343 bound_to 10162
  155.9686  130.4223  150.4509 LP  0  0  0  0  0  0  0  0  0  0  0  0  # atno 17370 bound_to 10713
  157.2524  131.0549  151.2371 LP  0  0  0  0  0  0  0  0  0  0  0  0  # atno 17371 bound_to 10713
  141.2193  133.6853  156.7338 LP  0  0  0  0  0  0  0  0  0  0  0  0  # atno 17394 bound_to 11000
  140.2661  134.8429  157.3804 LP  0  0  0  0  0  0  0  0  0  0  0  0  # atno 17395 bound_to 11000

$$$$
