AV-unprocessed.smi:1967|AV-procd|sdf|7954|dock6
  -GOLD-   2272010123D 1   1.00000     0.00000
 Structure written by MMmdl.
 37 38  0  0  0  0  0  0  0  0  1 V2000
  151.3502  139.0980  158.8953 O   0  0  0  0  0  0  0  0  0  0  0  0
  152.4809  139.9539  158.5047 S   0  0  0  0  0  0  0  0  0  0  0  0
  153.8602  139.6007  158.8745 O   0  0  0  0  0  0  0  0  0  0  0  0
  152.4331  140.1833  156.7988 N   0  0  0  0  0  0  0  0  0  0  0  0
  151.2249  139.7893  156.0759 C   0  0  0  0  0  0  0  0  0  0  0  0
  150.4212  141.0239  155.6373 C   0  0  0  0  0  0  0  0  0  0  0  0
  149.1821  140.6748  154.8309 C   0  0  0  0  0  0  0  0  0  0  0  0
  148.2483  141.6716  154.4747 C   0  0  0  0  0  0  0  0  0  0  0  0
  147.1208  141.2958  153.7189 C   0  0  0  0  0  0  0  0  0  0  0  0
  146.9709  139.9449  153.3508 C   0  0  0  0  0  0  0  0  0  0  0  0
  147.9599  139.0262  153.7554 C   0  0  0  0  0  0  0  0  0  0  0  0
  149.0453  139.3764  154.4788 N   0  0  0  0  0  0  0  0  0  0  0  0
  152.1542  141.5752  159.0225 N   0  0  0  0  0  0  0  0  0  0  0  0
  153.1716  142.2318  159.8721 C   0  0  0  0  0  0  0  0  0  0  0  0
  152.6210  143.5032  160.5390 C   0  0  0  0  0  0  0  0  0  0  0  0
  152.0475  144.4695  159.4998 C   0  0  0  0  0  0  0  0  0  0  0  0
  150.9734  143.7471  158.6827 C   0  0  0  0  0  0  0  0  0  0  0  0
  151.5332  142.4732  158.0278 C   0  0  0  0  0  0  0  0  0  0  0  0
  153.2858  139.8531  156.3472 H   0  0  0  0  0  0  0  0  0  0  0  0
  151.5023  139.1834  155.2126 H   0  0  0  0  0  0  0  0  0  0  0  0
  150.6149  139.1617  156.7261 H   0  0  0  0  0  0  0  0  0  0  0  0
  150.1152  141.5889  156.5187 H   0  0  0  0  0  0  0  0  0  0  0  0
  151.0565  141.6941  155.0565 H   0  0  0  0  0  0  0  0  0  0  0  0
  148.3933  142.7007  154.7698 H   0  0  0  0  0  0  0  0  0  0  0  0
  146.3850  142.0305  153.4264 H   0  0  0  0  0  0  0  0  0  0  0  0
  146.1189  139.6195  152.7725 H   0  0  0  0  0  0  0  0  0  0  0  0
  147.8768  137.9825  153.4909 H   0  0  0  0  0  0  0  0  0  0  0  0
  153.5168  141.5428  160.6422 H   0  0  0  0  0  0  0  0  0  0  0  0
  154.0396  142.4745  159.2579 H   0  0  0  0  0  0  0  0  0  0  0  0
  151.8456  143.2331  161.2574 H   0  0  0  0  0  0  0  0  0  0  0  0
  153.4111  143.9948  161.1073 H   0  0  0  0  0  0  0  0  0  0  0  0
  151.6248  145.3466  159.9906 H   0  0  0  0  0  0  0  0  0  0  0  0
  152.8415  144.8264  158.8425 H   0  0  0  0  0  0  0  0  0  0  0  0
  150.1341  143.4863  159.3291 H   0  0  0  0  0  0  0  0  0  0  0  0
  150.5773  144.4143  157.9166 H   0  0  0  0  0  0  0  0  0  0  0  0
  152.2756  142.7294  157.2709 H   0  0  0  0  0  0  0  0  0  0  0  0
  150.7269  141.9495  157.5142 H   0  0  0  0  0  0  0  0  0  0  0  0
  1  2  2  0  0  0  0
  2  3  2  0  0  0  0
  2  4  1  0  0  0  0
  2 13  1  0  0  0  0
  4  5  1  0  0  0  0
  4 19  1  0  0  0  0
  5  6  1  0  0  0  0
  5 20  1  0  0  0  0
  5 21  1  0  0  0  0
  6  7  1  0  0  0  0
  6 22  1  0  0  0  0
  6 23  1  0  0  0  0
  7 12  1  0  0  0  0
  7  8  2  0  0  0  0
  8  9  1  0  0  0  0
  8 24  1  0  0  0  0
  9 10  2  0  0  0  0
  9 25  1  0  0  0  0
 10 11  1  0  0  0  0
 10 26  1  0  0  0  0
 11 12  2  0  0  0  0
 11 27  1  0  0  0  0
 13 18  1  0  0  0  0
 13 14  1  0  0  0  0
 14 15  1  0  0  0  0
 14 28  1  0  0  0  0
 14 29  1  0  0  0  0
 15 16  1  0  0  0  0
 15 30  1  0  0  0  0
 15 31  1  0  0  0  0
 16 17  1  0  0  0  0
 16 32  1  0  0  0  0
 16 33  1  0  0  0  0
 17 18  1  0  0  0  0
 17 34  1  0  0  0  0
 17 35  1  0  0  0  0
 18 36  1  0  0  0  0
 18 37  1  0  0  0  0
M  END
> <s_m_source_file>
AV-unprocessed.smi

> <i_m_source_file_index>
1967

> <i_lp_mmshare_version>
43012

> <i_f3d_flags>
0

> <s_epik_input>
W0NIMl0xW0NIMl1bQ0gyXVtDSDJdW0NIMl1OMVMoPU8pKD1PKVtOSF1bQ0gyXVtDSDJdYzJbY0hdW2NIXVtjSF1bY0hdbjI=

> <s_epik_cmdline>
J2VwaWtfcHl0aG9uJywgJy1waCcsICc3LjAnLCAnLXRuJywgJzgnLCAnLW1hJywgJzIwMCcsICctbWV0YWxfYmluZGluZycsICctaW1hZScsICc8aW5maWxlLm1hZT4nLCAnLW9tYWUnLCAnPG91dGZpbGUubWFlPic=

> <r_epik_Ionization_Penalty>
0.0252758

> <r_epik_Ionization_Penalty_Charging>
0

> <r_epik_Ionization_Penalty_Neutral>
0.0252758

> <r_epik_State_Penalty>
0.0138562

> <r_epik_Charging_Adjusted_Penalty>
0.0138562

> <i_epik_Tot_Q>
0

> <i_epik_Tot_abs_Q>
0

> <r_epik_Metal_State_Penalty>
0.204365

> <b_epik_Metal_Only>
0

> <s_lp_Force_Field>
OPLS_2005

> <r_lp_Energy>
9.86341

> <b_lp_Chiralities_Consistent>
1

> <s_lp_Variant>
AV-unprocessed.smi:1967-1

> <Gold.Version>
5.8.1

> <Gold.Id.Protein>
6NUR|6NUR_protein|mol2

> <Gold.PLP.Fitness>
42.6013

> <Gold.PLP.PLP>
-38.2042

> <Gold.PLP.part.hbond>
-2.0000

> <Gold.PLP.part.metal>
0.0000

> <Gold.PLP.part.buried>
-1.3314

> <Gold.PLP.part.nonpolar>
-33.3176

> <Gold.PLP.part.repulsive>
0.1403

> <Gold.PLP.ligand.clash>
0.0000

> <Gold.PLP.ligand.torsion>
1.1811

> <Gold.PLP.Chemscore.Hbond>
1.0000

> <Gold.PLP.Chemscore.CHOScore>
1.0000

> <Gold.PLP.Chemscore.Metal>
0.0000

> <Gold.Chemscore.Hbonds>
donor molecule, donor type, donor heavy atom, donor atom, acceptor molecule, acceptor atom, score
      P1  H  7997  8010       L1     3  1.00
      L1  C    11    27       P1  7948  0.79

> <Gold.PLP.Chemscore.Internal.Correction>
0.7593

> <Gold.Rescore>
     Score         DG    S(hbond)    S(metal)    S(lipo)     H(rot)  DE(clash)    DE(int)     intcor
     14.44     -15.64       0.82        0.00     100.35       1.69       0.12       1.08       ----

> <Gold.Chemscore.Fitness>
14.4417

> <Gold.Chemscore.DG>
-15.6389

> <Gold.Chemscore.ZeroCoef>
-5.4800

> <Gold.Chemscore.Hbond>
0.8211

> <Gold.Chemscore.Metal>
0.0000

> <Gold.Chemscore.Lipo>
100.3452

> <Gold.Chemscore.Internal_Hbond>
0.0000

> <Gold.Chemscore.DEClash>
0.1214

> <Gold.Chemscore.DEInternal>
1.0758

> <Gold.Chemscore.Rot>
1.6891

> <Gold.Chemscore.Internal.Correction>
   9.000000E+99

> <Gold.Chemscore.Hbonds>
donor molecule, donor type, donor heavy atom, donor atom, acceptor molecule, acceptor atom, score
      P1  H  7997  8010       L1     3  0.53

> <Gold.Chemscore.Hbond.Weighted>
-2.7426

> <Gold.Chemscore.Metal.Weighted>
-0.0000

> <Gold.Chemscore.Lipo.Weighted>
-11.7404

> <Gold.Chemscore.Internal_Hbond.Weighted>
0.0000

> <Gold.Chemscore.DEClash.Weighted>
0.1214

> <Gold.Chemscore.DEInternal.Weighted>
1.0758

> <Gold.Chemscore.Rot.Weighted>
4.3241

> <Gold.Chemscore.Internal.Correction.Weighted>
   9.000000E+99

> <Gold.Protein.RotatedTorsions>
[ 6907 6896 6895 6894 ] final  -11.42 input  -60.11 | X-H torsion
[ 7974 7965 7964 7962 ] final   66.47 input  175.53 | X-H torsion
[ 8008 7997 7996 7995 ] final    6.19 input   59.86 | X-H torsion
[ 10167 10162 10161 10158 ] final  165.96 input  -65.29 | X-H torsion
[ 10718 10713 10712 10709 ] final  134.72 input   66.30 | X-H torsion
[ 10763 10752 10751 10750 ] final -140.76 input  -60.55 | X-H torsion
[ 11005 11000 10999 10996 ] final -113.24 input  -57.11 | X-H torsion

> <Gold.Protein.ActiveResidues>
 VAL166  LYS551  ARG553  GLY616  TRP617  ASP618  TYR619  PRO620  LYS621  CYS622 
 ASP623  PHE694  ASN695  SER759  ASP760  ASP761  ALA762  ILE779  LEU786  VAL792 
 PHE793  MET794  SER795  GLU796  ALA797  LYS798  CYS799  TRP800  GLU811  SER814 

> <Gold.Protein.RotatedAtoms>
  151.3864  135.0948  159.9512 H   0  0  0  0  0  0  0  0  0  0  0  0  # atno 6907 bound_to 6896
  152.5093  133.9022  159.7457 H   0  0  0  0  0  0  0  0  0  0  0  0  # atno 6908 bound_to 6896
  150.9466  133.6540  159.2809 H   0  0  0  0  0  0  0  0  0  0  0  0  # atno 6909 bound_to 6896
  145.8262  139.3113  143.1014 H   0  0  0  0  0  0  0  0  0  0  0  0  # atno 7974 bound_to 7965
  154.7379  140.2743  155.6399 H   0  0  0  0  0  0  0  0  0  0  0  0  # atno 8008 bound_to 7997
  156.2866  140.2703  156.2024 H   0  0  0  0  0  0  0  0  0  0  0  0  # atno 8009 bound_to 7997
  155.0296  140.0371  157.2459 H   0  0  0  0  0  0  0  0  0  0  0  0  # atno 8010 bound_to 7997
  139.4915  144.4078  151.9335 H   0  0  0  0  0  0  0  0  0  0  0  0  # atno 10167 bound_to 10162
  157.4643  131.1076  150.9881 H   0  0  0  0  0  0  0  0  0  0  0  0  # atno 10718 bound_to 10713
  154.8568  135.3544  154.5760 H   0  0  0  0  0  0  0  0  0  0  0  0  # atno 10763 bound_to 10752
  153.6371  135.7000  153.5259 H   0  0  0  0  0  0  0  0  0  0  0  0  # atno 10764 bound_to 10752
  153.3001  135.4209  155.1204 H   0  0  0  0  0  0  0  0  0  0  0  0  # atno 10765 bound_to 10752
  141.0626  133.9511  157.2638 H   0  0  0  0  0  0  0  0  0  0  0  0  # atno 11005 bound_to 11000
  145.9621  140.8827  143.0205 LP  0  0  0  0  0  0  0  0  0  0  0  0  # atno 17320 bound_to 7965
  144.6743  140.1827  143.7404 LP  0  0  0  0  0  0  0  0  0  0  0  0  # atno 17321 bound_to 7965
  140.3518  144.3079  150.5948 LP  0  0  0  0  0  0  0  0  0  0  0  0  # atno 17342 bound_to 10162
  140.5478  143.2211  151.7977 LP  0  0  0  0  0  0  0  0  0  0  0  0  # atno 17343 bound_to 10162
  157.0667  130.5847  149.5395 LP  0  0  0  0  0  0  0  0  0  0  0  0  # atno 17370 bound_to 10713
  156.0043  130.5127  150.7775 LP  0  0  0  0  0  0  0  0  0  0  0  0  # atno 17371 bound_to 10713
  139.9447  135.0186  156.8815 LP  0  0  0  0  0  0  0  0  0  0  0  0  # atno 17394 bound_to 11000
  140.5838  134.0327  155.7474 LP  0  0  0  0  0  0  0  0  0  0  0  0  # atno 17395 bound_to 11000

$$$$
