AV-unprocessed.smi:2174|AV-procd|sdf|8842|dock4
  -GOLD-   2272012 33D 1   1.00000     0.00000
 Structure written by MMmdl.
 46 47  0  0  0  0  0  0  0  0  2 V2000
  149.1314  139.4741  154.1314 C   0  0  0  0  0  0  0  0  0  0  0  0
  150.5172  139.2914  154.6808 C   0  0  0  0  0  0  0  0  0  0  0  0
  151.2642  140.3515  154.9395 N   0  0  0  0  0  0  0  0  0  0  0  0
  152.4735  139.8567  155.4377 O   0  0  0  0  0  0  0  0  0  0  0  0
  152.4046  138.5017  155.4632 C   0  0  0  0  0  0  0  0  0  0  0  0
  153.6036  137.7776  155.9755 C   0  0  0  0  0  0  0  0  0  0  0  0
  151.1904  138.0768  154.9984 C   0  0  0  0  0  0  0  0  0  0  0  0
  150.6778  136.6638  154.8587 C   0  0  0  0  0  0  0  0  0  0  0  0
  149.2199  136.5495  155.3182 C   0  0  0  0  0  0  0  0  0  0  0  0
  148.9214  136.8325  156.4776 O   0  0  0  0  0  0  0  0  0  0  0  0
  148.3150  136.1630  154.4041 N   0  0  0  0  0  0  0  0  0  0  0  0
  146.8832  136.0137  154.6446 C   0  0  0  0  0  0  0  0  0  0  0  0
  146.0329  136.2932  153.3868 C   0  0  0  0  0  0  0  0  0  0  0  0
  146.3798  135.4266  152.2266 N   0  3  0  0  0  0  0  0  0  0  0  0
  145.5858  135.7578  151.0106 C   0  0  0  0  0  0  0  0  0  0  0  0
  144.2407  135.0152  150.8985 C   0  0  0  0  0  0  0  0  0  0  0  0
  144.3624  133.6834  150.1404 C   0  0  0  0  0  0  0  0  0  0  0  0
  145.1150  132.5883  150.9079 C   0  0  0  0  0  0  0  0  0  0  0  0
  146.5106  133.0051  151.4017 C   0  0  0  0  0  0  0  0  0  0  0  0
  146.4558  133.9828  152.5911 C   0  0  0  0  0  0  0  0  0  0  0  0
  148.9490  138.7972  153.2965 H   0  0  0  0  0  0  0  0  0  0  0  0
  148.9693  140.4911  153.7723 H   0  0  0  0  0  0  0  0  0  0  0  0
  148.3814  139.2677  154.8953 H   0  0  0  0  0  0  0  0  0  0  0  0
  153.3099  136.9640  156.6395 H   0  0  0  0  0  0  0  0  0  0  0  0
  154.2589  138.4474  156.5332 H   0  0  0  0  0  0  0  0  0  0  0  0
  154.1767  137.3518  155.1517 H   0  0  0  0  0  0  0  0  0  0  0  0
  150.7500  136.3253  153.8243 H   0  0  0  0  0  0  0  0  0  0  0  0
  151.2749  135.9655  155.4457 H   0  0  0  0  0  0  0  0  0  0  0  0
  148.6501  135.9347  153.4790 H   0  0  0  0  0  0  0  0  0  0  0  0
  146.7096  134.9957  154.9936 H   0  0  0  0  0  0  0  0  0  0  0  0
  146.5723  136.6667  155.4617 H   0  0  0  0  0  0  0  0  0  0  0  0
  144.9719  136.1956  153.6203 H   0  0  0  0  0  0  0  0  0  0  0  0
  146.1866  137.3371  153.1106 H   0  0  0  0  0  0  0  0  0  0  0  0
  145.4074  136.8331  150.9758 H   0  0  0  0  0  0  0  0  0  0  0  0
  146.1963  135.5555  150.1300 H   0  0  0  0  0  0  0  0  0  0  0  0
  143.7760  134.8760  151.8753 H   0  0  0  0  0  0  0  0  0  0  0  0
  143.5549  135.6483  150.3342 H   0  0  0  0  0  0  0  0  0  0  0  0
  143.3624  133.3165  149.9067 H   0  0  0  0  0  0  0  0  0  0  0  0
  144.8462  133.8532  149.1778 H   0  0  0  0  0  0  0  0  0  0  0  0
  144.5120  132.2524  151.7526 H   0  0  0  0  0  0  0  0  0  0  0  0
  145.2161  131.7204  150.2552 H   0  0  0  0  0  0  0  0  0  0  0  0
  147.0145  132.0997  151.7420 H   0  0  0  0  0  0  0  0  0  0  0  0
  147.1263  133.3924  150.5890 H   0  0  0  0  0  0  0  0  0  0  0  0
  147.3607  133.8442  153.1830 H   0  0  0  0  0  0  0  0  0  0  0  0
  145.6262  133.7176  153.2483 H   0  0  0  0  0  0  0  0  0  0  0  0
  147.3227  135.6930  151.9812 H   0  0  0  0  0  0  0  0  0  0  0  0
  1  2  1  0  0  0  0
  1 21  1  0  0  0  0
  1 22  1  0  0  0  0
  1 23  1  0  0  0  0
  2  7  1  0  0  0  0
  2  3  2  0  0  0  0
  3  4  1  0  0  0  0
  4  5  1  0  0  0  0
  5  6  1  0  0  0  0
  5  7  2  0  0  0  0
  6 24  1  0  0  0  0
  6 25  1  0  0  0  0
  6 26  1  0  0  0  0
  7  8  1  0  0  0  0
  8  9  1  0  0  0  0
  8 27  1  0  0  0  0
  8 28  1  0  0  0  0
  9 10  2  0  0  0  0
  9 11  1  0  0  0  0
 11 12  1  0  0  0  0
 11 29  1  0  0  0  0
 12 13  1  0  0  0  0
 12 30  1  0  0  0  0
 12 31  1  0  0  0  0
 13 14  1  0  0  0  0
 13 32  1  0  0  0  0
 13 33  1  0  0  0  0
 14 20  1  0  0  0  0
 14 15  1  0  0  0  0
 14 46  1  0  0  0  0
 15 16  1  0  0  0  0
 15 34  1  0  0  0  0
 15 35  1  0  0  0  0
 16 17  1  0  0  0  0
 16 36  1  0  0  0  0
 16 37  1  0  0  0  0
 17 18  1  0  0  0  0
 17 38  1  0  0  0  0
 17 39  1  0  0  0  0
 18 19  1  0  0  0  0
 18 40  1  0  0  0  0
 18 41  1  0  0  0  0
 19 20  1  0  0  0  0
 19 42  1  0  0  0  0
 19 43  1  0  0  0  0
 20 44  1  0  0  0  0
 20 45  1  0  0  0  0
M  CHG  1  14   1
M  END
> <s_m_source_file>
AV-unprocessed.smi

> <i_m_source_file_index>
2174

> <i_lp_mmshare_version>
43012

> <i_f3d_flags>
0

> <s_epik_input>
W0NIM11jMW5vYyhbQ0gzXSljMVtDSDJdQyg9TylbTkhdW0NIMl1bQ0gyXU4yW0NIMl1bQ0gyXVtDSDJdW0NIMl1bQ0gyXVtDSDJdMg==

> <s_epik_cmdline>
J2VwaWtfcHl0aG9uJywgJy1waCcsICc3LjAnLCAnLXRuJywgJzgnLCAnLW1hJywgJzIwMCcsICctbWV0YWxfYmluZGluZycsICctaW1hZScsICc8aW5maWxlLm1hZT4nLCAnLW9tYWUnLCAnPG91dGZpbGUubWFlPic=

> <r_epik_Ionization_Penalty>
0.0024041

> <r_epik_Ionization_Penalty_Charging>
0.00240401

> <r_epik_Ionization_Penalty_Neutral>
9.67143e-08

> <r_epik_State_Penalty>
0.00166275

> <r_epik_Charging_Adjusted_Penalty>
0.00406676

> <i_epik_Tot_Q>
1

> <i_epik_Tot_abs_Q>
1

> <r_epik_Metal_State_Penalty>
-0

> <b_epik_Metal_Only>
0

> <s_lp_Force_Field>
OPLS_2005

> <r_lp_Energy>
23.9456

> <b_lp_Chiralities_Consistent>
1

> <s_lp_Variant>
AV-unprocessed.smi:2174-1

> <Gold.Version>
5.8.1

> <Gold.Id.Protein>
6NUR|6NUR_protein|mol2

> <Gold.PLP.Fitness>
46.7297

> <Gold.PLP.PLP>
-32.6023

> <Gold.PLP.part.hbond>
-4.8069

> <Gold.PLP.part.metal>
0.0000

> <Gold.PLP.part.buried>
-0.2333

> <Gold.PLP.part.nonpolar>
-27.3672

> <Gold.PLP.part.repulsive>
0.0949

> <Gold.PLP.ligand.clash>
0.0000

> <Gold.PLP.ligand.torsion>
0.4659

> <Gold.PLP.Chemscore.Hbond>
5.0000

> <Gold.PLP.Chemscore.CHOScore>
0.0000

> <Gold.PLP.Chemscore.Metal>
0.0000

> <Gold.Chemscore.Hbonds>
donor molecule, donor type, donor heavy atom, donor atom, acceptor molecule, acceptor atom, score
      L1  H    11    29       P1  7948  1.00
      L1  H    14    46       P1  7948  2.00
      P1  H  7989  7998       L1     3  1.00
      P1  H  7997  8009       L1     4  1.00

> <Gold.PLP.Chemscore.Internal.Correction>
0.0591

> <Gold.Rescore>
     Score         DG    S(hbond)    S(metal)    S(lipo)     H(rot)  DE(clash)    DE(int)     intcor
     20.42     -22.33       3.45        0.00      82.35       1.69       1.44       0.47       ----

> <Gold.Chemscore.Fitness>
20.4197

> <Gold.Chemscore.DG>
-22.3293

> <Gold.Chemscore.ZeroCoef>
-5.4800

> <Gold.Chemscore.Hbond>
3.4526

> <Gold.Chemscore.Metal>
0.0000

> <Gold.Chemscore.Lipo>
82.3498

> <Gold.Chemscore.Internal_Hbond>
0.0000

> <Gold.Chemscore.DEClash>
1.4397

> <Gold.Chemscore.DEInternal>
0.4699

> <Gold.Chemscore.Rot>
1.6865

> <Gold.Chemscore.Internal.Correction>
   9.000000E+99

> <Gold.Chemscore.Hbonds>
donor molecule, donor type, donor heavy atom, donor atom, acceptor molecule, acceptor atom, score
      L1  H    11    29       P1  7948  0.98
      L1  H    14    46       P1  7948  1.00
      P1  H  7989  7998       L1     3  0.15
      P1  H  7997  8009       L1     4  0.28

> <Gold.Chemscore.Hbond.Weighted>
-11.5317

> <Gold.Chemscore.Metal.Weighted>
-0.0000

> <Gold.Chemscore.Lipo.Weighted>
-9.6349

> <Gold.Chemscore.Internal_Hbond.Weighted>
0.0000

> <Gold.Chemscore.DEClash.Weighted>
1.4397

> <Gold.Chemscore.DEInternal.Weighted>
0.4699

> <Gold.Chemscore.Rot.Weighted>
4.3174

> <Gold.Chemscore.Internal.Correction.Weighted>
   9.000000E+99

> <Gold.Protein.RotatedTorsions>
[ 6907 6896 6895 6894 ] final  -21.08 input  -60.11 | X-H torsion
[ 7974 7965 7964 7962 ] final -144.87 input  175.53 | X-H torsion
[ 8008 7997 7996 7995 ] final -148.39 input   59.86 | X-H torsion
[ 10167 10162 10161 10158 ] final  -94.59 input  -65.29 | X-H torsion
[ 10718 10713 10712 10709 ] final  -16.44 input   66.30 | X-H torsion
[ 10763 10752 10751 10750 ] final   54.99 input  -60.55 | X-H torsion
[ 11005 11000 10999 10996 ] final -153.91 input  -57.11 | X-H torsion

> <Gold.Protein.ActiveResidues>
 VAL166  LYS551  ARG553  GLY616  TRP617  ASP618  TYR619  PRO620  LYS621  CYS622 
 ASP623  PHE694  ASN695  SER759  ASP760  ASP761  ALA762  ILE779  LEU786  VAL792 
 PHE793  MET794  SER795  GLU796  ALA797  LYS798  CYS799  TRP800  GLU811  SER814 

> <Gold.Protein.RotatedAtoms>
  151.2386  135.0581  159.9015 H   0  0  0  0  0  0  0  0  0  0  0  0  # atno 6907 bound_to 6896
  152.5396  134.0458  159.8098 H   0  0  0  0  0  0  0  0  0  0  0  0  # atno 6908 bound_to 6896
  151.0649  133.5465  159.2663 H   0  0  0  0  0  0  0  0  0  0  0  0  # atno 6909 bound_to 6896
  144.8267  140.5656  143.5542 H   0  0  0  0  0  0  0  0  0  0  0  0  # atno 7974 bound_to 7965
  155.5909  140.0652  157.2759 H   0  0  0  0  0  0  0  0  0  0  0  0  # atno 8008 bound_to 7997
  154.4305  140.1835  156.1120 H   0  0  0  0  0  0  0  0  0  0  0  0  # atno 8009 bound_to 7997
  156.0233  140.3314  155.7066 H   0  0  0  0  0  0  0  0  0  0  0  0  # atno 8010 bound_to 7997
  140.3129  143.3094  152.0129 H   0  0  0  0  0  0  0  0  0  0  0  0  # atno 10167 bound_to 10162
  156.5876  130.4790  149.6293 H   0  0  0  0  0  0  0  0  0  0  0  0  # atno 10718 bound_to 10713
  152.9811  135.5726  154.4994 H   0  0  0  0  0  0  0  0  0  0  0  0  # atno 10763 bound_to 10752
  154.4516  135.2778  155.1779 H   0  0  0  0  0  0  0  0  0  0  0  0  # atno 10764 bound_to 10752
  154.3405  135.6230  153.5647 H   0  0  0  0  0  0  0  0  0  0  0  0  # atno 10765 bound_to 10752
  140.7031  134.3916  157.5207 H   0  0  0  0  0  0  0  0  0  0  0  0  # atno 11005 bound_to 11000
  145.4984  139.1484  143.3671 LP  0  0  0  0  0  0  0  0  0  0  0  0  # atno 17320 bound_to 7965
  146.2572  140.5124  142.8868 LP  0  0  0  0  0  0  0  0  0  0  0  0  # atno 17321 bound_to 7965
  139.4890  144.6371  151.6953 LP  0  0  0  0  0  0  0  0  0  0  0  0  # atno 17342 bound_to 10162
  140.5552  144.0359  150.6144 LP  0  0  0  0  0  0  0  0  0  0  0  0  # atno 17343 bound_to 10162
  156.2578  130.6944  151.1703 LP  0  0  0  0  0  0  0  0  0  0  0  0  # atno 17370 bound_to 10713
  157.7311  131.0610  150.5692 LP  0  0  0  0  0  0  0  0  0  0  0  0  # atno 17371 bound_to 10713
  139.8891  134.8838  156.2436 LP  0  0  0  0  0  0  0  0  0  0  0  0  # atno 17394 bound_to 11000
  141.0147  133.7075  156.1169 LP  0  0  0  0  0  0  0  0  0  0  0  0  # atno 17395 bound_to 11000

$$$$
