AV-unprocessed.smi:1643|AV-procd|sdf|6580|dock7
  -GOLD-   22720 7263D 1   1.00000     0.00000
 Structure written by MMmdl.
 55 57  0  0  0  0  0  0  0  0  3 V2000
  150.6536  140.8253  157.1961 C   0  0  0  0  0  0  0  0  0  0  0  0
  149.3394  140.0412  157.1471 C   0  0  0  0  0  0  0  0  0  0  0  0
  148.4030  140.4378  157.8409 O   0  0  0  0  0  0  0  0  0  0  0  0
  149.2459  138.9546  156.3416 N   0  0  0  0  0  0  0  0  0  0  0  0
  150.4146  138.4543  155.6016 C   0  0  0  0  0  0  0  0  0  0  0  0
  150.4091  138.9096  154.1261 C   0  0  0  0  0  0  0  0  0  0  0  0
  149.0409  139.3702  153.5780 C   0  0  0  0  0  0  0  0  0  0  0  0
  147.9910  138.3147  153.5581 N   0  3  2  0  0  0  0  0  0  0  0  0
  146.6763  138.8307  153.0899 C   0  0  0  0  0  0  0  0  0  0  0  0
  146.0135  137.8559  152.1007 C   0  0  1  0  0  0  0  0  0  0  0  0
  146.4730  138.1247  150.7902 O   0  0  0  0  0  0  0  0  0  0  0  0
  146.3186  136.3847  152.4457 C   0  0  0  0  0  0  0  0  0  0  0  0
  145.3897  135.4466  151.8016 N   0  0  0  0  0  0  0  0  0  0  0  0
  144.2774  135.6858  151.0543 C   0  0  0  0  0  0  0  0  0  0  0  0
  143.7626  134.4795  150.6871 N   0  3  0  0  0  0  0  0  0  0  0  0
  144.5583  133.4556  151.2054 C   0  0  0  0  0  0  0  0  0  0  0  0
  144.4457  132.0740  151.1045 C   0  0  0  0  0  0  0  0  0  0  0  0
  145.4316  131.2974  151.7544 C   0  0  0  0  0  0  0  0  0  0  0  0
  145.3402  129.7840  151.6611 C   0  0  0  0  0  0  0  0  0  0  0  0
  146.4861  131.9125  152.4780 C   0  0  0  0  0  0  0  0  0  0  0  0
  147.5406  131.0677  153.1727 C   0  0  0  0  0  0  0  0  0  0  0  0
  146.5830  133.3195  152.5688 C   0  0  0  0  0  0  0  0  0  0  0  0
  145.6041  134.0693  151.9214 C   0  0  0  0  0  0  0  0  0  0  0  0
  147.8816  137.4595  154.7764 C   0  0  0  0  0  0  0  0  0  0  0  0
  147.9858  138.2144  156.1289 C   0  0  0  0  0  0  0  0  0  0  0  0
  151.0103  141.0572  156.1922 H   0  0  0  0  0  0  0  0  0  0  0  0
  151.4213  140.2595  157.7238 H   0  0  0  0  0  0  0  0  0  0  0  0
  150.5151  141.7699  157.7231 H   0  0  0  0  0  0  0  0  0  0  0  0
  151.3540  138.7544  156.0689 H   0  0  0  0  0  0  0  0  0  0  0  0
  150.4408  137.3670  155.6665 H   0  0  0  0  0  0  0  0  0  0  0  0
  151.0995  139.7483  154.0286 H   0  0  0  0  0  0  0  0  0  0  0  0
  150.8190  138.1182  153.4976 H   0  0  0  0  0  0  0  0  0  0  0  0
  148.6867  140.2375  154.1377 H   0  0  0  0  0  0  0  0  0  0  0  0
  149.1779  139.7202  152.5541 H   0  0  0  0  0  0  0  0  0  0  0  0
  146.0117  139.0488  153.9277 H   0  0  0  0  0  0  0  0  0  0  0  0
  146.8175  139.7861  152.5818 H   0  0  0  0  0  0  0  0  0  0  0  0
  144.9338  138.0105  152.1207 H   0  0  0  0  0  0  0  0  0  0  0  0
  145.7421  138.4154  150.2657 H   0  0  0  0  0  0  0  0  0  0  0  0
  147.3280  136.1192  152.1280 H   0  0  0  0  0  0  0  0  0  0  0  0
  146.2811  136.2179  153.5229 H   0  0  0  0  0  0  0  0  0  0  0  0
  143.8740  136.6555  150.8006 H   0  0  0  0  0  0  0  0  0  0  0  0
  143.6398  131.6127  150.5522 H   0  0  0  0  0  0  0  0  0  0  0  0
  146.2375  129.3739  151.1971 H   0  0  0  0  0  0  0  0  0  0  0  0
  144.4839  129.4719  151.0625 H   0  0  0  0  0  0  0  0  0  0  0  0
  145.2310  129.3451  152.6531 H   0  0  0  0  0  0  0  0  0  0  0  0
  148.2653  131.6882  153.7007 H   0  0  0  0  0  0  0  0  0  0  0  0
  148.0853  130.4632  152.4471 H   0  0  0  0  0  0  0  0  0  0  0  0
  147.0797  130.4018  153.9028 H   0  0  0  0  0  0  0  0  0  0  0  0
  147.3864  133.7872  153.1182 H   0  0  0  0  0  0  0  0  0  0  0  0
  146.9397  136.9105  154.7487 H   0  0  0  0  0  0  0  0  0  0  0  0
  148.6352  136.6759  154.7096 H   0  0  0  0  0  0  0  0  0  0  0  0
  147.8689  137.5031  156.9474 H   0  0  0  0  0  0  0  0  0  0  0  0
  147.1304  138.8877  156.1833 H   0  0  0  0  0  0  0  0  0  0  0  0
  148.2813  137.6745  152.8325 H   0  0  0  0  0  0  0  0  0  0  0  0
  142.9298  134.3660  150.1231 H   0  0  0  0  0  0  0  0  0  0  0  0
  1  2  1  0  0  0  0
  1 26  1  0  0  0  0
  1 27  1  0  0  0  0
  1 28  1  0  0  0  0
  2  3  2  0  0  0  0
  2  4  1  0  0  0  0
  4 25  1  0  0  0  0
  4  5  1  0  0  0  0
  5  6  1  0  0  0  0
  5 29  1  0  0  0  0
  5 30  1  0  0  0  0
  6  7  1  0  0  0  0
  6 31  1  0  0  0  0
  6 32  1  0  0  0  0
  7  8  1  0  0  0  0
  7 33  1  0  0  0  0
  7 34  1  0  0  0  0
  8  9  1  0  0  0  0
  8 24  1  0  0  0  0
  8 54  1  0  0  0  0
  9 10  1  0  0  0  0
  9 35  1  0  0  0  0
  9 36  1  0  0  0  0
 10 11  1  0  0  0  0
 10 12  1  0  0  0  0
 10 37  1  0  0  0  0
 11 38  1  0  0  0  0
 12 13  1  0  0  0  0
 12 39  1  0  0  0  0
 12 40  1  0  0  0  0
 13 23  1  0  0  0  0
 13 14  1  0  0  0  0
 14 15  2  0  0  0  0
 14 41  1  0  0  0  0
 15 16  1  0  0  0  0
 15 55  1  0  0  0  0
 16 23  2  0  0  0  0
 16 17  1  0  0  0  0
 17 18  2  0  0  0  0
 17 42  1  0  0  0  0
 18 19  1  0  0  0  0
 18 20  1  0  0  0  0
 19 43  1  0  0  0  0
 19 44  1  0  0  0  0
 19 45  1  0  0  0  0
 20 21  1  0  0  0  0
 20 22  2  0  0  0  0
 21 46  1  0  0  0  0
 21 47  1  0  0  0  0
 21 48  1  0  0  0  0
 22 23  1  0  0  0  0
 22 49  1  0  0  0  0
 24 25  1  0  0  0  0
 24 50  1  0  0  0  0
 24 51  1  0  0  0  0
 25 52  1  0  0  0  0
 25 53  1  0  0  0  0
M  CHG  1   8   1
M  CHG  1  15   1
M  END
> <s_m_source_file>
AV-unprocessed.smi

> <i_m_source_file_index>
1643

> <i_lp_mmshare_version>
43012

> <i_f3d_flags>
0

> <s_epik_input>
W0NIM11DKD1PKU4xW0NIMl1bQ0gyXVtDSDJdTihbQ0gyXVtDSDJdMSlbQ0gyXVtDQEhdKFtPSF0pW0NIMl1uKFtjSF1uMiljKGMyMylbY0hdYyhbQ0gzXSljKFtjSF0zKVtDSDNd

> <s_epik_cmdline>
J2VwaWtfcHl0aG9uJywgJy1waCcsICc3LjAnLCAnLXRuJywgJzgnLCAnLW1hJywgJzIwMCcsICctbWV0YWxfYmluZGluZycsICctaW1hZScsICc8aW5maWxlLm1hZT4nLCAnLW9tYWUnLCAnPG91dGZpbGUubWFlPic=

> <r_epik_Ionization_Penalty>
1.2865

> <r_epik_Ionization_Penalty_Charging>
1.2865

> <r_epik_Ionization_Penalty_Neutral>
2.89706e-06

> <r_epik_State_Penalty>
1.3566

> <r_epik_Charging_Adjusted_Penalty>
2.6431

> <i_epik_Tot_Q>
2

> <i_epik_Tot_abs_Q>
2

> <r_epik_Metal_State_Penalty>
5.37339

> <b_epik_Metal_Only>
0

> <s_lp_Force_Field>
OPLS_2005

> <r_lp_Energy>
57.2213

> <b_lp_Chiralities_Consistent>
1

> <s_lp_Variant>
AV-unprocessed.smi:1643-9

> <Gold.Version>
5.8.1

> <Gold.Id.Protein>
6NUR|6NUR_protein|mol2

> <Gold.PLP.Fitness>
56.2743

> <Gold.PLP.PLP>
-37.1210

> <Gold.PLP.part.hbond>
-5.0283

> <Gold.PLP.part.metal>
0.0000

> <Gold.PLP.part.buried>
-0.8701

> <Gold.PLP.part.nonpolar>
-31.6664

> <Gold.PLP.part.repulsive>
0.0248

> <Gold.PLP.ligand.clash>
0.0000

> <Gold.PLP.ligand.torsion>
0.9730

> <Gold.PLP.Chemscore.Hbond>
6.0000

> <Gold.PLP.Chemscore.CHOScore>
1.0000

> <Gold.PLP.Chemscore.Metal>
0.0000

> <Gold.Chemscore.Hbonds>
donor molecule, donor type, donor heavy atom, donor atom, acceptor molecule, acceptor atom, score
      L1  H     8    54       P1  7948  2.00
      L1  H    11    38       P1 10171  1.00
      L1  H    15    55       P1 10186  2.00
      P1  H  7954  7966       L1    11  1.00
      L1  C    14    41       P1 10171  1.00

> <Gold.PLP.Chemscore.Internal.Correction>
0.0994

> <Gold.Rescore>
     Score         DG    S(hbond)    S(metal)    S(lipo)     H(rot)  DE(clash)    DE(int)     intcor
     20.53     -24.76       3.83        0.00     103.00       2.17       3.21       1.02       ----

> <Gold.Chemscore.Fitness>
20.5343

> <Gold.Chemscore.DG>
-24.7649

> <Gold.Chemscore.ZeroCoef>
-5.4800

> <Gold.Chemscore.Hbond>
3.8325

> <Gold.Chemscore.Metal>
0.0000

> <Gold.Chemscore.Lipo>
103.0005

> <Gold.Chemscore.Internal_Hbond>
0.0000

> <Gold.Chemscore.DEClash>
3.2060

> <Gold.Chemscore.DEInternal>
1.0246

> <Gold.Chemscore.Rot>
2.1744

> <Gold.Chemscore.Internal.Correction>
   9.000000E+99

> <Gold.Chemscore.Hbonds>
donor molecule, donor type, donor heavy atom, donor atom, acceptor molecule, acceptor atom, score
      L1  H     8    54       P1  7948  1.00
      L1  H    11    38       P1 10171  0.98
      L1  H    15    55       P1 10186  0.84
      P1  H  7954  7966       L1    11  0.90

> <Gold.Chemscore.Hbond.Weighted>
-12.8004

> <Gold.Chemscore.Metal.Weighted>
-0.0000

> <Gold.Chemscore.Lipo.Weighted>
-12.0511

> <Gold.Chemscore.Internal_Hbond.Weighted>
0.0000

> <Gold.Chemscore.DEClash.Weighted>
3.2060

> <Gold.Chemscore.DEInternal.Weighted>
1.0246

> <Gold.Chemscore.Rot.Weighted>
5.5666

> <Gold.Chemscore.Internal.Correction.Weighted>
   9.000000E+99

> <Gold.Protein.RotatedTorsions>
[ 6907 6896 6895 6894 ] final -129.90 input  -60.11 | X-H torsion
[ 7974 7965 7964 7962 ] final   29.25 input  175.53 | X-H torsion
[ 8008 7997 7996 7995 ] final  134.94 input   59.86 | X-H torsion
[ 10167 10162 10161 10158 ] final  -67.02 input  -65.29 | X-H torsion
[ 10718 10713 10712 10709 ] final   98.97 input   66.30 | X-H torsion
[ 10763 10752 10751 10750 ] final  171.82 input  -60.55 | X-H torsion
[ 11005 11000 10999 10996 ] final  -29.23 input  -57.11 | X-H torsion

> <Gold.Protein.ActiveResidues>
 VAL166  LYS551  ARG553  GLY616  TRP617  ASP618  TYR619  PRO620  LYS621  CYS622 
 ASP623  PHE694  ASN695  SER759  ASP760  ASP761  ALA762  ILE779  LEU786  VAL792 
 PHE793  MET794  SER795  GLU796  ALA797  LYS798  CYS799  TRP800  GLU811  SER814 

> <Gold.Protein.RotatedAtoms>
  150.9338  133.6735  159.2804 H   0  0  0  0  0  0  0  0  0  0  0  0  # atno 6907 bound_to 6896
  151.4148  135.0989  159.9606 H   0  0  0  0  0  0  0  0  0  0  0  0  # atno 6908 bound_to 6896
  152.5038  133.8803  159.7398 H   0  0  0  0  0  0  0  0  0  0  0  0  # atno 6909 bound_to 6896
  146.1682  139.6946  142.8986 H   0  0  0  0  0  0  0  0  0  0  0  0  # atno 7974 bound_to 7965
  156.3001  140.2483  156.3499 H   0  0  0  0  0  0  0  0  0  0  0  0  # atno 8008 bound_to 7997
  154.8975  140.0407  157.1893 H   0  0  0  0  0  0  0  0  0  0  0  0  # atno 8009 bound_to 7997
  154.8534  140.2909  155.5588 H   0  0  0  0  0  0  0  0  0  0  0  0  # atno 8010 bound_to 7997
  140.5613  143.2313  151.6721 H   0  0  0  0  0  0  0  0  0  0  0  0  # atno 10167 bound_to 10162
  157.6885  131.0656  150.4878 H   0  0  0  0  0  0  0  0  0  0  0  0  # atno 10718 bound_to 10713
  154.4174  135.2757  155.1998 H   0  0  0  0  0  0  0  0  0  0  0  0  # atno 10763 bound_to 10752
  154.3958  135.6056  153.5872 H   0  0  0  0  0  0  0  0  0  0  0  0  # atno 10764 bound_to 10752
  152.9832  135.5914  154.4464 H   0  0  0  0  0  0  0  0  0  0  0  0  # atno 10765 bound_to 10752
  140.9278  133.7357  156.0893 H   0  0  0  0  0  0  0  0  0  0  0  0  # atno 11005 bound_to 11000
  145.4411  141.0422  143.2857 LP  0  0  0  0  0  0  0  0  0  0  0  0  # atno 17320 bound_to 7965
  144.8124  139.5939  143.7024 LP  0  0  0  0  0  0  0  0  0  0  0  0  # atno 17321 bound_to 7965
  139.5072  144.3656  152.0520 LP  0  0  0  0  0  0  0  0  0  0  0  0  # atno 17342 bound_to 10162
  140.2783  144.3888  150.6127 LP  0  0  0  0  0  0  0  0  0  0  0  0  # atno 17343 bound_to 10162
  156.5206  130.4161  149.6252 LP  0  0  0  0  0  0  0  0  0  0  0  0  # atno 17370 bound_to 10713
  156.3158  130.7253  151.2155 LP  0  0  0  0  0  0  0  0  0  0  0  0  # atno 17371 bound_to 10713
  140.7903  134.3625  157.5466 LP  0  0  0  0  0  0  0  0  0  0  0  0  # atno 17394 bound_to 11000
  139.8789  134.9136  156.3087 LP  0  0  0  0  0  0  0  0  0  0  0  0  # atno 17395 bound_to 11000

$$$$
