AV-unprocessed.smi:21|AV-procd|sdf|157|dock2
  -GOLD-   2262015383D 1   1.00000     0.00000
 Structure written by MMmdl.
 61 64  0  0  0  0  0  0  0  0  1 V2000
  152.7455  143.5205  162.4722 C   0  0  0  0  0  0  0  0  0  0  0  0
  153.3062  142.2563  162.1559 O   0  0  0  0  0  0  0  0  0  0  0  0
  153.7166  142.1420  160.8000 C   0  0  1  0  0  0  0  0  0  0  0  0
  154.2309  140.7296  160.4719 C   0  0  0  0  0  0  0  0  0  0  0  0
  153.4624  140.3371  159.2055 C   0  0  1  0  0  0  0  0  0  0  0  0
  153.3830  138.8107  158.9919 C   0  0  0  0  0  0  0  0  0  0  0  0
  154.2225  138.3436  157.8888 N   0  0  0  0  0  0  0  0  0  0  0  0
  153.5673  137.6430  156.7870 C   0  0  0  0  0  0  0  0  0  0  0  0
  155.4564  137.9068  158.2508 C   0  0  0  0  0  0  0  0  0  0  0  0
  156.1056  138.5009  159.2880 N   0  0  0  0  0  0  0  0  0  0  0  0
  157.3256  138.0905  159.6456 C   0  0  0  0  0  0  0  0  0  0  0  0
  158.0656  137.1147  159.1169 N   0  0  0  0  0  0  0  0  0  0  0  0
  157.4177  136.5050  158.0835 C   0  0  0  0  0  0  0  0  0  0  0  0
  156.1257  136.8395  157.5870 C   0  0  0  0  0  0  0  0  0  0  0  0
  155.7983  136.0030  156.5279 N   0  0  0  0  0  0  0  0  0  0  0  0
  156.8383  135.2268  156.3985 C   0  0  0  0  0  0  0  0  0  0  0  0
  157.8526  135.4453  157.3039 N   0  0  0  0  0  0  0  0  0  0  0  0
  159.1163  134.7262  157.3921 C   0  0  0  0  0  0  0  0  0  0  0  0
  160.1463  135.0971  156.2893 C   0  0  1  0  0  0  0  0  0  0  0  0
  161.4805  134.3321  156.4554 C   0  0  0  0  0  0  0  0  0  0  0  0
  162.0388  134.5675  157.7310 O   0  0  0  0  0  0  0  0  0  0  0  0
  159.5708  134.9273  154.8582 C   0  0  2  0  0  0  0  0  0  0  0  0
  160.6105  134.7481  153.7640 C   0  0  0  0  0  0  0  0  0  0  0  0
  159.8296  135.0977  152.5006 C   0  0  0  0  0  0  0  0  0  0  0  0
  158.8291  136.0259  152.9037 O   0  0  0  0  0  0  0  0  0  0  0  0
  158.8357  136.1597  154.3201 C   0  0  0  0  0  0  0  0  0  0  0  0
  152.1753  140.9935  159.3599 N   0  0  0  0  0  0  0  0  0  0  0  0
  151.3962  141.0615  158.1307 C   0  0  0  0  0  0  0  0  0  0  0  0
  152.5044  142.3116  159.8741 C   0  0  0  0  0  0  0  0  0  0  0  0
  154.4604  142.9034  160.5592 H   0  0  0  0  0  0  0  0  0  0  0  0
  153.9714  140.7910  158.3541 H   0  0  0  0  0  0  0  0  0  0  0  0
  152.4390  143.5311  163.5178 H   0  0  0  0  0  0  0  0  0  0  0  0
  151.8638  143.7236  161.8631 H   0  0  0  0  0  0  0  0  0  0  0  0
  153.4641  144.3278  162.3274 H   0  0  0  0  0  0  0  0  0  0  0  0
  155.3117  140.6964  160.3327 H   0  0  0  0  0  0  0  0  0  0  0  0
  153.9760  140.0484  161.2836 H   0  0  0  0  0  0  0  0  0  0  0  0
  153.6293  138.3010  159.9237 H   0  0  0  0  0  0  0  0  0  0  0  0
  152.3575  138.5230  158.7604 H   0  0  0  0  0  0  0  0  0  0  0  0
  154.2708  137.4402  155.9786 H   0  0  0  0  0  0  0  0  0  0  0  0
  152.7589  138.2419  156.3694 H   0  0  0  0  0  0  0  0  0  0  0  0
  153.1476  136.6955  157.1267 H   0  0  0  0  0  0  0  0  0  0  0  0
  157.7735  138.6204  160.4732 H   0  0  0  0  0  0  0  0  0  0  0  0
  156.8869  134.4653  155.6352 H   0  0  0  0  0  0  0  0  0  0  0  0
  159.5375  134.9012  158.3821 H   0  0  0  0  0  0  0  0  0  0  0  0
  158.9017  133.6576  157.3566 H   0  0  0  0  0  0  0  0  0  0  0  0
  160.3707  136.1576  156.4147 H   0  0  0  0  0  0  0  0  0  0  0  0
  161.3479  133.2609  156.3039 H   0  0  0  0  0  0  0  0  0  0  0  0
  162.2170  134.6637  155.7245 H   0  0  0  0  0  0  0  0  0  0  0  0
  161.4542  135.1297  158.2162 H   0  0  0  0  0  0  0  0  0  0  0  0
  158.8972  134.0699  154.8268 H   0  0  0  0  0  0  0  0  0  0  0  0
  161.4323  135.4530  153.9002 H   0  0  0  0  0  0  0  0  0  0  0  0
  161.0285  133.7419  153.7231 H   0  0  0  0  0  0  0  0  0  0  0  0
  160.4687  135.5148  151.7220 H   0  0  0  0  0  0  0  0  0  0  0  0
  159.3375  134.2118  152.0977 H   0  0  0  0  0  0  0  0  0  0  0  0
  157.8209  136.2558  154.7043 H   0  0  0  0  0  0  0  0  0  0  0  0
  159.3765  137.0723  154.5745 H   0  0  0  0  0  0  0  0  0  0  0  0
  150.4700  141.6132  158.2945 H   0  0  0  0  0  0  0  0  0  0  0  0
  151.1268  140.0650  157.7818 H   0  0  0  0  0  0  0  0  0  0  0  0
  151.9526  141.5613  157.3368 H   0  0  0  0  0  0  0  0  0  0  0  0
  151.6508  142.7659  160.3782 H   0  0  0  0  0  0  0  0  0  0  0  0
  152.7844  142.9714  159.0512 H   0  0  0  0  0  0  0  0  0  0  0  0
  1  2  1  0  0  0  0
  1 32  1  0  0  0  0
  1 33  1  0  0  0  0
  1 34  1  0  0  0  0
  2  3  1  0  0  0  0
  3 30  1  0  0  0  0
  3 29  1  0  0  0  0
  3  4  1  0  0  0  0
  4  5  1  0  0  0  0
  4 35  1  0  0  0  0
  4 36  1  0  0  0  0
  5 31  1  0  0  0  0
  5  6  1  0  0  0  0
  5 27  1  0  0  0  0
  6  7  1  0  0  0  0
  6 37  1  0  0  0  0
  6 38  1  0  0  0  0
  7  8  1  0  0  0  0
  7  9  1  0  0  0  0
  8 39  1  0  0  0  0
  8 40  1  0  0  0  0
  8 41  1  0  0  0  0
  9 14  1  0  0  0  0
  9 10  2  0  0  0  0
 10 11  1  0  0  0  0
 11 12  2  0  0  0  0
 11 42  1  0  0  0  0
 12 13  1  0  0  0  0
 13 17  1  0  0  0  0
 13 14  2  0  0  0  0
 14 15  1  0  0  0  0
 15 16  2  0  0  0  0
 16 17  1  0  0  0  0
 16 43  1  0  0  0  0
 17 18  1  0  0  0  0
 18 19  1  0  0  0  0
 18 44  1  0  0  0  0
 18 45  1  0  0  0  0
 19 20  1  0  0  0  0
 19 22  1  0  0  0  0
 19 46  1  0  0  0  0
 20 21  1  0  0  0  0
 20 47  1  0  0  0  0
 20 48  1  0  0  0  0
 21 49  1  0  0  0  0
 22 26  1  0  0  0  0
 22 23  1  0  0  0  0
 22 50  1  0  0  0  0
 23 24  1  0  0  0  0
 23 51  1  0  0  0  0
 23 52  1  0  0  0  0
 24 25  1  0  0  0  0
 24 53  1  0  0  0  0
 24 54  1  0  0  0  0
 25 26  1  0  0  0  0
 26 55  1  0  0  0  0
 26 56  1  0  0  0  0
 27 28  1  0  0  0  0
 27 29  1  0  0  0  0
 28 57  1  0  0  0  0
 28 58  1  0  0  0  0
 28 59  1  0  0  0  0
 29 60  1  0  0  0  0
 29 61  1  0  0  0  0
M  END
> <s_m_source_file>
AV-unprocessed.smi

> <i_m_source_file_index>
21

> <i_lp_mmshare_version>
43012

> <i_f3d_flags>
0

> <s_epik_input>
W0NIM11PW0NASF0xW0NIMl1bQ0BIXShOKFtDSDNdKVtDSDJdMSlbQ0gyXU4oW0NIM10pYyhuW2NIXW4yKWMoYzIzKW5bY0hdbjNbQ0gyXVtDQEhdKFtDSDJdW09IXSlbQ0BASF00W0NIMl1bQ0gyXU9bQ0gyXTQ=

> <s_epik_cmdline>
J2VwaWtfcHl0aG9uJywgJy1waCcsICc3LjAnLCAnLXRuJywgJzgnLCAnLW1hJywgJzIwMCcsICctbWV0YWxfYmluZGluZycsICctaW1hZScsICc8aW5maWxlLm1hZT4nLCAnLW9tYWUnLCAnPG91dGZpbGUubWFlPic=

> <r_lp_tautomer_probability>
1

> <r_epik_Ionization_Penalty>
2.17574

> <r_epik_Ionization_Penalty_Charging>
0

> <r_epik_Ionization_Penalty_Neutral>
2.17574

> <r_epik_State_Penalty>
2.31336

> <r_epik_Charging_Adjusted_Penalty>
2.31336

> <i_epik_Tot_Q>
0

> <i_epik_Tot_abs_Q>
0

> <r_epik_Metal_State_Penalty>
2.31025

> <b_epik_Metal_Only>
0

> <s_lp_Force_Field>
OPLS_2005

> <r_lp_Energy>
71.0879

> <b_lp_Chiralities_Consistent>
1

> <s_lp_Variant>
AV-unprocessed.smi:21-37

> <Gold.Version>
5.8.1

> <Gold.Id.Protein>
6NUR|6NUR_protein|mol2

> <Gold.PLP.Fitness>
38.7607

> <Gold.PLP.PLP>
-36.6901

> <Gold.PLP.part.hbond>
-2.0000

> <Gold.PLP.part.metal>
0.0000

> <Gold.PLP.part.buried>
-5.6446

> <Gold.PLP.part.nonpolar>
-29.2174

> <Gold.PLP.part.repulsive>
0.3127

> <Gold.PLP.ligand.clash>
0.0000

> <Gold.PLP.ligand.torsion>
2.5461

> <Gold.PLP.Chemscore.Hbond>
1.8968

> <Gold.PLP.Chemscore.CHOScore>
0.0000

> <Gold.PLP.Chemscore.Metal>
0.0000

> <Gold.Chemscore.Hbonds>
donor molecule, donor type, donor heavy atom, donor atom, acceptor molecule, acceptor atom, score
      P1  H  7997  8008       L1     7  0.85
      P1  H 10752 10765       L1    15  0.95

> <Gold.PLP.Chemscore.Internal.Correction>
1.4725

> <Gold.Rescore>
     Score         DG    S(hbond)    S(metal)    S(lipo)     H(rot)  DE(clash)    DE(int)     intcor
      6.82     -11.08       0.82        0.00      95.77       3.26       0.17       4.09       ----

> <Gold.Chemscore.Fitness>
6.8246

> <Gold.Chemscore.DG>
-11.0814

> <Gold.Chemscore.ZeroCoef>
-5.4800

> <Gold.Chemscore.Hbond>
0.8190

> <Gold.Chemscore.Metal>
0.0000

> <Gold.Chemscore.Lipo>
95.7736

> <Gold.Chemscore.Internal_Hbond>
0.0000

> <Gold.Chemscore.DEClash>
0.1669

> <Gold.Chemscore.DEInternal>
4.0899

> <Gold.Chemscore.Rot>
3.2576

> <Gold.Chemscore.Internal.Correction>
   9.000000E+99

> <Gold.Chemscore.Hbonds>
donor molecule, donor type, donor heavy atom, donor atom, acceptor molecule, acceptor atom, score
      P1  H  7997  8008       L1     7  0.02
      P1  H 10752 10765       L1    15  0.21

> <Gold.Chemscore.Hbond.Weighted>
-2.7354

> <Gold.Chemscore.Metal.Weighted>
-0.0000

> <Gold.Chemscore.Lipo.Weighted>
-11.2055

> <Gold.Chemscore.Internal_Hbond.Weighted>
0.0000

> <Gold.Chemscore.DEClash.Weighted>
0.1669

> <Gold.Chemscore.DEInternal.Weighted>
4.0899

> <Gold.Chemscore.Rot.Weighted>
8.3395

> <Gold.Chemscore.Internal.Correction.Weighted>
   9.000000E+99

> <Gold.Protein.RotatedTorsions>
[ 6907 6896 6895 6894 ] final  -22.69 input  -60.11 | X-H torsion
[ 7974 7965 7964 7962 ] final -135.24 input  175.53 | X-H torsion
[ 8008 7997 7996 7995 ] final  -94.63 input   59.86 | X-H torsion
[ 10167 10162 10161 10158 ] final -100.44 input  -65.29 | X-H torsion
[ 10718 10713 10712 10709 ] final   90.16 input   66.30 | X-H torsion
[ 10763 10752 10751 10750 ] final  -47.97 input  -60.55 | X-H torsion
[ 11005 11000 10999 10996 ] final  112.97 input  -57.11 | X-H torsion

> <Gold.Protein.ActiveResidues>
 VAL166  LYS551  ARG553  GLY616  TRP617  ASP618  TYR619  PRO620  LYS621  CYS622 
 ASP623  PHE694  ASN695  SER759  ASP760  ASP761  ALA762  ILE779  LEU786  VAL792 
 PHE793  MET794  SER795  GLU796  ALA797  LYS798  CYS799  TRP800  GLU811  SER814 

> <Gold.Protein.RotatedAtoms>
  151.2150  135.0496  159.8926 H   0  0  0  0  0  0  0  0  0  0  0  0  # atno 6907 bound_to 6896
  152.5421  134.0703  159.8201 H   0  0  0  0  0  0  0  0  0  0  0  0  # atno 6908 bound_to 6896
  151.0862  133.5303  159.2649 H   0  0  0  0  0  0  0  0  0  0  0  0  # atno 6909 bound_to 6896
  144.9032  140.6798  143.5072 H   0  0  0  0  0  0  0  0  0  0  0  0  # atno 7974 bound_to 7965
  154.7510  140.0487  157.0893 H   0  0  0  0  0  0  0  0  0  0  0  0  # atno 8008 bound_to 7997
  155.0058  140.3130  155.4830 H   0  0  0  0  0  0  0  0  0  0  0  0  # atno 8009 bound_to 7997
  156.2885  140.2193  156.5170 H   0  0  0  0  0  0  0  0  0  0  0  0  # atno 8010 bound_to 7997
  140.2519  143.3466  152.0707 H   0  0  0  0  0  0  0  0  0  0  0  0  # atno 10167 bound_to 10162
  157.6958  131.0360  150.3535 H   0  0  0  0  0  0  0  0  0  0  0  0  # atno 10718 bound_to 10713
  154.0702  135.6606  153.4823 H   0  0  0  0  0  0  0  0  0  0  0  0  # atno 10763 bound_to 10752
  153.0394  135.5155  154.7574 H   0  0  0  0  0  0  0  0  0  0  0  0  # atno 10764 bound_to 10752
  154.6638  135.3019  154.9800 H   0  0  0  0  0  0  0  0  0  0  0  0  # atno 10765 bound_to 10752
  139.8941  134.9540  156.6667 H   0  0  0  0  0  0  0  0  0  0  0  0  # atno 11005 bound_to 11000
  145.3581  139.1689  143.4398 LP  0  0  0  0  0  0  0  0  0  0  0  0  # atno 17320 bound_to 7965
  146.3119  140.3640  142.8667 LP  0  0  0  0  0  0  0  0  0  0  0  0  # atno 17321 bound_to 7965
  139.5043  144.6774  151.6095 LP  0  0  0  0  0  0  0  0  0  0  0  0  # atno 17342 bound_to 10162
  140.6034  143.9569  150.6402 LP  0  0  0  0  0  0  0  0  0  0  0  0  # atno 17343 bound_to 10162
  156.3980  130.3910  149.6980 LP  0  0  0  0  0  0  0  0  0  0  0  0  # atno 17370 bound_to 10713
  156.4307  130.7814  151.2833 LP  0  0  0  0  0  0  0  0  0  0  0  0  # atno 17371 bound_to 10713
  140.7405  133.8982  155.8274 LP  0  0  0  0  0  0  0  0  0  0  0  0  # atno 17394 bound_to 11000
  141.0081  134.1057  157.4249 LP  0  0  0  0  0  0  0  0  0  0  0  0  # atno 17395 bound_to 11000

$$$$
