AV-unprocessed.smi:283|AV-procd|sdf|2154|dock3
  -GOLD-   2262021493D 1   1.00000     0.00000
 Structure written by MMmdl.
 48 51  0  0  0  0  0  0  0  0  1 V2000
  150.5904  142.6522  157.4280 C   0  0  0  0  0  0  0  0  0  0  0  0
  151.1623  141.2475  157.6618 C   0  0  1  0  0  0  0  0  0  0  0  0
  151.7325  140.7349  156.4177 N   0  0  0  0  0  0  0  0  0  0  0  0
  151.2826  139.5888  155.8599 C   0  0  0  0  0  0  0  0  0  0  0  0
  151.8501  139.2552  154.6767 N   0  0  0  0  0  0  0  0  0  0  0  0
  151.4889  138.1309  154.0530 C   0  0  0  0  0  0  0  0  0  0  0  0
  150.5935  137.2187  154.4327 N   0  0  0  0  0  0  0  0  0  0  0  0
  150.0042  137.5516  155.6174 C   0  0  0  0  0  0  0  0  0  0  0  0
  150.2852  138.7164  156.3887 C   0  0  0  0  0  0  0  0  0  0  0  0
  149.4757  138.7227  157.5185 N   0  0  0  0  0  0  0  0  0  0  0  0
  148.7778  137.6250  157.4259 C   0  0  0  0  0  0  0  0  0  0  0  0
  149.0301  136.8591  156.3114 N   0  0  0  0  0  0  0  0  0  0  0  0
  148.3823  135.5569  155.9454 C   0  0  2  0  0  0  0  0  0  0  0  0
  149.3673  134.6295  155.5932 O   0  0  0  0  0  0  0  0  0  0  0  0
  149.1518  134.1502  154.2668 C   0  0  1  0  0  0  0  0  0  0  0  0
  149.6366  132.6947  154.1736 C   0  0  0  0  0  0  0  0  0  0  0  0
  149.0039  131.8939  155.1489 O   0  0  0  0  0  0  0  0  0  0  0  0
  147.6484  134.3497  154.0543 C   0  0  2  0  0  0  0  0  0  0  0  0
  147.2623  134.3807  152.6936 O   0  0  0  0  0  0  0  0  0  0  0  0
  147.3974  135.6717  154.7658 C   0  0  2  0  0  0  0  0  0  0  0  0
  147.6361  136.7961  153.9321 O   0  0  0  0  0  0  0  0  0  0  0  0
  152.1259  141.2572  158.8523 C   0  0  0  0  0  0  0  0  0  0  0  0
  152.3948  142.4680  159.5327 C   0  0  0  0  0  0  0  0  0  0  0  0
  153.2813  142.4970  160.6253 C   0  0  0  0  0  0  0  0  0  0  0  0
  153.9040  141.3122  161.0564 C   0  0  0  0  0  0  0  0  0  0  0  0
  153.6323  140.0989  160.3978 C   0  0  0  0  0  0  0  0  0  0  0  0
  152.7445  140.0637  159.3038 C   0  0  0  0  0  0  0  0  0  0  0  0
  152.4362  138.5409  158.5444 Cl  0  0  0  0  0  0  0  0  0  0  0  0
  147.8999  135.2210  156.8642 H   0  0  0  0  0  0  0  0  0  0  0  0
  149.7183  134.7847  153.5832 H   0  0  0  0  0  0  0  0  0  0  0  0
  147.0969  133.5570  154.5624 H   0  0  0  0  0  0  0  0  0  0  0  0
  146.3780  135.7394  155.1467 H   0  0  0  0  0  0  0  0  0  0  0  0
  150.0813  143.0216  158.3188 H   0  0  0  0  0  0  0  0  0  0  0  0
  149.8654  142.6516  156.6135 H   0  0  0  0  0  0  0  0  0  0  0  0
  151.3763  143.3644  157.1747 H   0  0  0  0  0  0  0  0  0  0  0  0
  150.3178  140.6008  157.8935 H   0  0  0  0  0  0  0  0  0  0  0  0
  152.6338  141.1224  156.1789 H   0  0  0  0  0  0  0  0  0  0  0  0
  151.9901  137.9323  153.1171 H   0  0  0  0  0  0  0  0  0  0  0  0
  148.0515  137.3437  158.1744 H   0  0  0  0  0  0  0  0  0  0  0  0
  149.3938  132.2847  153.1929 H   0  0  0  0  0  0  0  0  0  0  0  0
  150.7190  132.6319  154.2895 H   0  0  0  0  0  0  0  0  0  0  0  0
  148.3260  132.4048  155.5641 H   0  0  0  0  0  0  0  0  0  0  0  0
  147.9280  134.8448  152.2087 H   0  0  0  0  0  0  0  0  0  0  0  0
  148.3572  136.5934  153.3560 H   0  0  0  0  0  0  0  0  0  0  0  0
  151.9234  143.3873  159.2175 H   0  0  0  0  0  0  0  0  0  0  0  0
  153.4829  143.4292  161.1325 H   0  0  0  0  0  0  0  0  0  0  0  0
  154.5852  141.3323  161.8943 H   0  0  0  0  0  0  0  0  0  0  0  0
  154.1067  139.1895  160.7363 H   0  0  0  0  0  0  0  0  0  0  0  0
  1  2  1  0  0  0  0
  1 33  1  0  0  0  0
  1 34  1  0  0  0  0
  1 35  1  0  0  0  0
  2  3  1  0  0  0  0
  2 22  1  0  0  0  0
  2 36  1  0  0  0  0
  3  4  1  0  0  0  0
  3 37  1  0  0  0  0
  4  9  1  0  0  0  0
  4  5  2  0  0  0  0
  5  6  1  0  0  0  0
  6  7  2  0  0  0  0
  6 38  1  0  0  0  0
  7  8  1  0  0  0  0
  8 12  1  0  0  0  0
  8  9  2  0  0  0  0
  9 10  1  0  0  0  0
 10 11  2  0  0  0  0
 11 12  1  0  0  0  0
 11 39  1  0  0  0  0
 12 13  1  0  0  0  0
 13 29  1  0  0  0  0
 13 20  1  0  0  0  0
 13 14  1  0  0  0  0
 14 15  1  0  0  0  0
 15 30  1  0  0  0  0
 15 16  1  0  0  0  0
 15 18  1  0  0  0  0
 16 17  1  0  0  0  0
 16 40  1  0  0  0  0
 16 41  1  0  0  0  0
 17 42  1  0  0  0  0
 18 31  1  0  0  0  0
 18 19  1  0  0  0  0
 18 20  1  0  0  0  0
 19 43  1  0  0  0  0
 20 32  1  0  0  0  0
 20 21  1  0  0  0  0
 21 44  1  0  0  0  0
 22 27  1  0  0  0  0
 22 23  2  0  0  0  0
 23 24  1  0  0  0  0
 23 45  1  0  0  0  0
 24 25  2  0  0  0  0
 24 46  1  0  0  0  0
 25 26  1  0  0  0  0
 25 47  1  0  0  0  0
 26 27  2  0  0  0  0
 26 48  1  0  0  0  0
 27 28  1  0  0  0  0
M  END
> <s_m_source_file>
AV-unprocessed.smi

> <i_m_source_file_index>
283

> <i_lp_mmshare_version>
43012

> <i_f3d_flags>
0

> <s_epik_input>
Q2xjMVtjSF1bY0hdW2NIXVtjSF1jMVtDQEhdKFtDSDNdKVtOSF1jKG5bY0hdbjIpYyhjMjMpbltjSF1uM1tDQEBIXTRPW0NASF0oW0NIMl1bT0hdKVtDQEBIXShbT0hdKVtDQEhdNFtPSF0=

> <s_epik_cmdline>
J2VwaWtfcHl0aG9uJywgJy1waCcsICc3LjAnLCAnLXRuJywgJzgnLCAnLW1hJywgJzIwMCcsICctbWV0YWxfYmluZGluZycsICctaW1hZScsICc8aW5maWxlLm1hZT4nLCAnLW9tYWUnLCAnPG91dGZpbGUubWFlPic=

> <r_lp_tautomer_probability>
1

> <r_epik_Ionization_Penalty>
0.000266407

> <r_epik_Ionization_Penalty_Charging>
0

> <r_epik_Ionization_Penalty_Neutral>
0.000266407

> <r_epik_State_Penalty>
-0

> <r_epik_Charging_Adjusted_Penalty>
0

> <i_epik_Tot_Q>
0

> <i_epik_Tot_abs_Q>
0

> <r_epik_Metal_State_Penalty>
-0

> <b_epik_Metal_Only>
0

> <s_epik_Chemistry_Notes>
This compound contains an acetal/aminal-like group ( X-CH(R)-Y where X, Y are N, S, or O) that may be acid/base labile, releasing an aldehyde.

> <s_lp_Force_Field>
OPLS_2005

> <r_lp_Energy>
52.4072

> <b_lp_Chiralities_Consistent>
1

> <s_lp_Variant>
AV-unprocessed.smi:283-30

> <Gold.Version>
5.8.1

> <Gold.Id.Protein>
6NUR|6NUR_protein|mol2

> <Gold.PLP.Fitness>
50.4093

> <Gold.PLP.PLP>
-39.8259

> <Gold.PLP.part.hbond>
-3.0000

> <Gold.PLP.part.metal>
0.0000

> <Gold.PLP.part.buried>
-5.4459

> <Gold.PLP.part.nonpolar>
-31.3024

> <Gold.PLP.part.repulsive>
0.4728

> <Gold.PLP.ligand.clash>
0.0000

> <Gold.PLP.ligand.torsion>
0.3014

> <Gold.PLP.Chemscore.Hbond>
2.9913

> <Gold.PLP.Chemscore.CHOScore>
0.6947

> <Gold.PLP.Chemscore.Metal>
0.0000

> <Gold.Chemscore.Hbonds>
donor molecule, donor type, donor heavy atom, donor atom, acceptor molecule, acceptor atom, score
      L1  H    19    43       P1  7948  1.00
      L1  H    21    44       P1  7948  1.00
      P1  H  7989  7998       L1     5  0.99
      L1  C     6    38       P1  7949  0.58

> <Gold.PLP.Chemscore.Internal.Correction>
0.1284

> <Gold.Rescore>
     Score         DG    S(hbond)    S(metal)    S(lipo)     H(rot)  DE(clash)    DE(int)     intcor
     11.18     -13.66       2.31        0.00      93.72       4.10       0.27       2.21       ----

> <Gold.Chemscore.Fitness>
11.1805

> <Gold.Chemscore.DG>
-13.6638

> <Gold.Chemscore.ZeroCoef>
-5.4800

> <Gold.Chemscore.Hbond>
2.3072

> <Gold.Chemscore.Metal>
0.0000

> <Gold.Chemscore.Lipo>
93.7226

> <Gold.Chemscore.Internal_Hbond>
0.0000

> <Gold.Chemscore.DEClash>
0.2684

> <Gold.Chemscore.DEInternal>
2.2149

> <Gold.Chemscore.Rot>
4.0968

> <Gold.Chemscore.Internal.Correction>
   9.000000E+99

> <Gold.Chemscore.Hbonds>
donor molecule, donor type, donor heavy atom, donor atom, acceptor molecule, acceptor atom, score
      L1  H    19    43       P1  7948  0.59
      L1  H    21    44       P1  7948  0.96
      P1  H  7989  7998       L1     5  0.45

> <Gold.Chemscore.Hbond.Weighted>
-7.7062

> <Gold.Chemscore.Metal.Weighted>
-0.0000

> <Gold.Chemscore.Lipo.Weighted>
-10.9655

> <Gold.Chemscore.Internal_Hbond.Weighted>
0.0000

> <Gold.Chemscore.DEClash.Weighted>
0.2684

> <Gold.Chemscore.DEInternal.Weighted>
2.2149

> <Gold.Chemscore.Rot.Weighted>
10.4879

> <Gold.Chemscore.Internal.Correction.Weighted>
   9.000000E+99

> <Gold.Protein.RotatedTorsions>
[ 6907 6896 6895 6894 ] final  -15.08 input  -60.11 | X-H torsion
[ 7974 7965 7964 7962 ] final  -59.81 input  175.53 | X-H torsion
[ 8008 7997 7996 7995 ] final  -35.26 input   59.86 | X-H torsion
[ 10167 10162 10161 10158 ] final -173.91 input  -65.29 | X-H torsion
[ 10718 10713 10712 10709 ] final -119.54 input   66.30 | X-H torsion
[ 10763 10752 10751 10750 ] final  -59.09 input  -60.55 | X-H torsion
[ 11005 11000 10999 10996 ] final -149.55 input  -57.11 | X-H torsion

> <Gold.Protein.ActiveResidues>
 VAL166  LYS551  ARG553  GLY616  TRP617  ASP618  TYR619  PRO620  LYS621  CYS622 
 ASP623  PHE694  ASN695  SER759  ASP760  ASP761  ALA762  ILE779  LEU786  VAL792 
 PHE793  MET794  SER795  GLU796  ALA797  LYS798  CYS799  TRP800  GLU811  SER814 

> <Gold.Protein.RotatedAtoms>
  151.3294  135.0838  159.9333 H   0  0  0  0  0  0  0  0  0  0  0  0  # atno 6907 bound_to 6896
  152.5238  133.9558  159.7704 H   0  0  0  0  0  0  0  0  0  0  0  0  # atno 6908 bound_to 6896
  150.9894  133.6112  159.2740 H   0  0  0  0  0  0  0  0  0  0  0  0  # atno 6909 bound_to 6896
  145.8230  140.8528  143.0122 H   0  0  0  0  0  0  0  0  0  0  0  0  # atno 7974 bound_to 7965
  154.4100  140.1662  156.2183 H   0  0  0  0  0  0  0  0  0  0  0  0  # atno 8008 bound_to 7997
  155.9385  140.3409  155.6285 H   0  0  0  0  0  0  0  0  0  0  0  0  # atno 8009 bound_to 7997
  155.7018  140.0746  157.2398 H   0  0  0  0  0  0  0  0  0  0  0  0  # atno 8010 bound_to 7997
  139.5662  144.1749  152.1316 H   0  0  0  0  0  0  0  0  0  0  0  0  # atno 10167 bound_to 10162
  156.1188  130.6307  150.9428 H   0  0  0  0  0  0  0  0  0  0  0  0  # atno 10718 bound_to 10713
  154.2483  135.6331  153.5231 H   0  0  0  0  0  0  0  0  0  0  0  0  # atno 10763 bound_to 10752
  152.9917  135.5558  154.5835 H   0  0  0  0  0  0  0  0  0  0  0  0  # atno 10764 bound_to 10752
  154.5357  135.2891  155.1115 H   0  0  0  0  0  0  0  0  0  0  0  0  # atno 10765 bound_to 10752
  140.7496  134.3422  157.5129 H   0  0  0  0  0  0  0  0  0  0  0  0  # atno 11005 bound_to 11000
  144.6746  140.0561  143.7477 LP  0  0  0  0  0  0  0  0  0  0  0  0  # atno 17320 bound_to 7965
  145.9654  139.2830  143.1131 LP  0  0  0  0  0  0  0  0  0  0  0  0  # atno 17321 bound_to 7965
  140.1272  144.5320  150.6825 LP  0  0  0  0  0  0  0  0  0  0  0  0  # atno 17342 bound_to 10162
  140.6946  143.2396  151.5037 LP  0  0  0  0  0  0  0  0  0  0  0  0  # atno 17343 bound_to 10162
  157.6372  131.0914  150.8325 LP  0  0  0  0  0  0  0  0  0  0  0  0  # atno 17370 bound_to 10713
  156.8424  130.5052  149.5320 LP  0  0  0  0  0  0  0  0  0  0  0  0  # atno 17371 bound_to 10713
  139.8790  134.9133  156.3081 LP  0  0  0  0  0  0  0  0  0  0  0  0  # atno 17394 bound_to 11000
  140.9763  133.7295  156.0606 LP  0  0  0  0  0  0  0  0  0  0  0  0  # atno 17395 bound_to 11000

$$$$
