AV-unprocessed.smi:276|AV-procd|sdf|2080|dock10
  -GOLD-   2262021353D 1   1.00000     0.00000
 Structure written by MMmdl.
 57 61  0  0  0  0  0  0  0  0  1 V2000
  151.6762  130.9321  156.9293 C   0  0  0  0  0  0  0  0  0  0  0  0
  150.5780  131.4431  156.1946 O   0  0  0  0  0  0  0  0  0  0  0  0
  150.9094  132.6080  155.4561 C   0  0  2  0  0  0  0  0  0  0  0  0
  151.1486  133.8552  156.3149 C   0  0  0  0  0  0  0  0  0  0  0  0
  150.4370  134.6512  155.2129 C   0  0  2  0  0  0  0  0  0  0  0  0
  149.6238  135.7523  155.7347 N   0  0  0  0  0  0  0  0  0  0  0  0
  149.1371  135.5981  157.0999 C   0  0  0  0  0  0  0  0  0  0  0  0
  150.1203  136.9977  155.5573 C   0  0  0  0  0  0  0  0  0  0  0  0
  150.1998  137.4497  154.2806 N   0  0  0  0  0  0  0  0  0  0  0  0
  150.6892  138.6676  154.0299 C   0  0  0  0  0  0  0  0  0  0  0  0
  151.1375  139.5814  154.8932 N   0  0  0  0  0  0  0  0  0  0  0  0
  151.0372  139.1388  156.1795 C   0  0  0  0  0  0  0  0  0  0  0  0
  150.5392  137.8732  156.6005 C   0  0  0  0  0  0  0  0  0  0  0  0
  150.5755  137.7911  157.9881 N   0  0  0  0  0  0  0  0  0  0  0  0
  151.0775  138.9356  158.3639 C   0  0  0  0  0  0  0  0  0  0  0  0
  151.3826  139.8044  157.3419 N   0  0  0  0  0  0  0  0  0  0  0  0
  151.9418  141.1381  157.4765 C   0  0  0  0  0  0  0  0  0  0  0  0
  150.8991  142.1683  157.9541 C   0  0  2  0  0  0  0  0  0  0  0  0
  150.0639  142.5261  156.8690 O   0  0  0  0  0  0  0  0  0  0  0  0
  151.5544  143.4417  158.5207 C   0  0  1  0  0  0  0  0  0  0  0  0
  150.5871  144.3881  159.2335 C   0  0  0  0  0  0  0  0  0  0  0  0
  151.5235  145.1611  160.1331 C   0  0  0  0  0  0  0  0  0  0  0  0
  152.5104  144.0798  160.5638 C   0  0  0  0  0  0  0  0  0  0  0  0
  152.5124  143.1062  159.5222 O   0  0  0  0  0  0  0  0  0  0  0  0
  149.6894  133.3370  154.8597 C   0  0  0  0  0  0  0  0  0  0  0  0
  149.2225  133.0301  153.4308 C   0  0  0  0  0  0  0  0  0  0  0  0
  147.7700  133.1398  153.9056 C   0  0  0  0  0  0  0  0  0  0  0  0
  148.2624  133.0181  155.3515 C   0  0  0  0  0  0  0  0  0  0  0  0
  151.3687  130.0385  157.4722 H   0  0  0  0  0  0  0  0  0  0  0  0
  152.0401  131.6583  157.6571 H   0  0  0  0  0  0  0  0  0  0  0  0
  152.4984  130.6577  156.2672 H   0  0  0  0  0  0  0  0  0  0  0  0
  151.6929  132.4462  154.7122 H   0  0  0  0  0  0  0  0  0  0  0  0
  150.6004  133.8306  157.2590 H   0  0  0  0  0  0  0  0  0  0  0  0
  152.1972  134.1141  156.4614 H   0  0  0  0  0  0  0  0  0  0  0  0
  151.1443  134.9450  154.4362 H   0  0  0  0  0  0  0  0  0  0  0  0
  149.9655  135.6103  157.8092 H   0  0  0  0  0  0  0  0  0  0  0  0
  148.6041  134.6546  157.2170 H   0  0  0  0  0  0  0  0  0  0  0  0
  148.4464  136.4000  157.3640 H   0  0  0  0  0  0  0  0  0  0  0  0
  150.7284  138.9495  152.9882 H   0  0  0  0  0  0  0  0  0  0  0  0
  151.2356  139.1813  159.4040 H   0  0  0  0  0  0  0  0  0  0  0  0
  152.7724  141.0856  158.1810 H   0  0  0  0  0  0  0  0  0  0  0  0
  152.3672  141.4391  156.5184 H   0  0  0  0  0  0  0  0  0  0  0  0
  150.2720  141.7146  158.7228 H   0  0  0  0  0  0  0  0  0  0  0  0
  149.9773  143.4672  156.8542 H   0  0  0  0  0  0  0  0  0  0  0  0
  152.0736  143.9870  157.7305 H   0  0  0  0  0  0  0  0  0  0  0  0
  150.0324  145.0277  158.5467 H   0  0  0  0  0  0  0  0  0  0  0  0
  149.8699  143.8270  159.8346 H   0  0  0  0  0  0  0  0  0  0  0  0
  152.0381  145.9336  159.5602 H   0  0  0  0  0  0  0  0  0  0  0  0
  151.0174  145.6373  160.9733 H   0  0  0  0  0  0  0  0  0  0  0  0
  153.5101  144.4798  160.7353 H   0  0  0  0  0  0  0  0  0  0  0  0
  152.1752  143.6004  161.4842 H   0  0  0  0  0  0  0  0  0  0  0  0
  149.5104  133.7712  152.6854 H   0  0  0  0  0  0  0  0  0  0  0  0
  149.4833  132.0197  153.1131 H   0  0  0  0  0  0  0  0  0  0  0  0
  147.3231  134.1091  153.6847 H   0  0  0  0  0  0  0  0  0  0  0  0
  147.1278  132.3217  153.5787 H   0  0  0  0  0  0  0  0  0  0  0  0
  148.1525  132.0017  155.7306 H   0  0  0  0  0  0  0  0  0  0  0  0
  147.8277  133.7400  156.0420 H   0  0  0  0  0  0  0  0  0  0  0  0
  1  2  1  0  0  0  0
  1 29  1  0  0  0  0
  1 30  1  0  0  0  0
  1 31  1  0  0  0  0
  2  3  1  0  0  0  0
  3 25  1  0  0  0  0
  3  4  1  0  0  0  0
  3 32  1  0  0  0  0
  4  5  1  0  0  0  0
  4 33  1  0  0  0  0
  4 34  1  0  0  0  0
  5  6  1  0  0  0  0
  5 25  1  0  0  0  0
  5 35  1  0  0  0  0
  6  7  1  0  0  0  0
  6  8  1  0  0  0  0
  7 36  1  0  0  0  0
  7 37  1  0  0  0  0
  7 38  1  0  0  0  0
  8 13  1  0  0  0  0
  8  9  2  0  0  0  0
  9 10  1  0  0  0  0
 10 11  2  0  0  0  0
 10 39  1  0  0  0  0
 11 12  1  0  0  0  0
 12 16  1  0  0  0  0
 12 13  2  0  0  0  0
 13 14  1  0  0  0  0
 14 15  2  0  0  0  0
 15 16  1  0  0  0  0
 15 40  1  0  0  0  0
 16 17  1  0  0  0  0
 17 18  1  0  0  0  0
 17 41  1  0  0  0  0
 17 42  1  0  0  0  0
 18 19  1  0  0  0  0
 18 20  1  0  0  0  0
 18 43  1  0  0  0  0
 19 44  1  0  0  0  0
 20 24  1  0  0  0  0
 20 21  1  0  0  0  0
 20 45  1  0  0  0  0
 21 22  1  0  0  0  0
 21 46  1  0  0  0  0
 21 47  1  0  0  0  0
 22 23  1  0  0  0  0
 22 48  1  0  0  0  0
 22 49  1  0  0  0  0
 23 24  1  0  0  0  0
 23 50  1  0  0  0  0
 23 51  1  0  0  0  0
 25 28  1  0  0  0  0
 25 26  1  0  0  0  0
 26 27  1  0  0  0  0
 26 52  1  0  0  0  0
 26 53  1  0  0  0  0
 27 28  1  0  0  0  0
 27 54  1  0  0  0  0
 27 55  1  0  0  0  0
 28 56  1  0  0  0  0
 28 57  1  0  0  0  0
M  END
> <s_m_source_file>
AV-unprocessed.smi

> <i_m_source_file_index>
276

> <i_lp_mmshare_version>
43012

> <i_f3d_flags>
0

> <s_epik_input>
W0NIMl0xW0NIMl1bQ0gyXUMxMltDQEhdKE9bQ0gzXSlbQ0gyXVtDQEhdMk4oW0NIM10pYyhuW2NIXW4zKWMoYzM0KW5bY0hdbjRbQ0gyXVtDQEhdKFtPSF0pW0NAQEhdNVtDSDJdW0NIMl1bQ0gyXU81

> <s_epik_cmdline>
J2VwaWtfcHl0aG9uJywgJy1waCcsICc3LjAnLCAnLXRuJywgJzgnLCAnLW1hJywgJzIwMCcsICctbWV0YWxfYmluZGluZycsICctaW1hZScsICc8aW5maWxlLm1hZT4nLCAnLW9tYWUnLCAnPG91dGZpbGUubWFlPic=

> <r_lp_tautomer_probability>
1

> <r_epik_Ionization_Penalty>
0.00204117

> <r_epik_Ionization_Penalty_Charging>
0

> <r_epik_Ionization_Penalty_Neutral>
0.00204117

> <r_epik_State_Penalty>
0.00127401

> <r_epik_Charging_Adjusted_Penalty>
0.00127401

> <i_epik_Tot_Q>
0

> <i_epik_Tot_abs_Q>
0

> <r_epik_Metal_State_Penalty>
-0

> <b_epik_Metal_Only>
0

> <s_lp_Force_Field>
OPLS_2005

> <r_lp_Energy>
54.5778

> <b_lp_Chiralities_Consistent>
1

> <s_lp_Variant>
AV-unprocessed.smi:276-11

> <Gold.Version>
5.8.1

> <Gold.Id.Protein>
6NUR|6NUR_protein|mol2

> <Gold.PLP.Fitness>
44.5412

> <Gold.PLP.PLP>
-40.2762

> <Gold.PLP.part.hbond>
-2.0000

> <Gold.PLP.part.metal>
0.0000

> <Gold.PLP.part.buried>
-10.0929

> <Gold.PLP.part.nonpolar>
-30.0664

> <Gold.PLP.part.repulsive>
1.3984

> <Gold.PLP.ligand.clash>
1.1295

> <Gold.PLP.ligand.torsion>
1.5480

> <Gold.PLP.Chemscore.Hbond>
1.5700

> <Gold.PLP.Chemscore.CHOScore>
1.0000

> <Gold.PLP.Chemscore.Metal>
0.0000

> <Gold.Chemscore.Hbonds>
donor molecule, donor type, donor heavy atom, donor atom, acceptor molecule, acceptor atom, score
      L1  H    19    44       P1  8028  0.64
      P1  H  7989  7998       L1    11  0.70
      L1  C    10    39       P1  7957  1.00

> <Gold.PLP.Chemscore.Internal.Correction>
0.7805

> <Gold.Rescore>
     Score         DG    S(hbond)    S(metal)    S(lipo)     H(rot)  DE(clash)    DE(int)     intcor
     11.71     -15.12       1.50        0.00      99.03       2.72       0.40       3.01       ----

> <Gold.Chemscore.Fitness>
11.7085

> <Gold.Chemscore.DG>
-15.1178

> <Gold.Chemscore.ZeroCoef>
-5.4800

> <Gold.Chemscore.Hbond>
1.4992

> <Gold.Chemscore.Metal>
0.0000

> <Gold.Chemscore.Lipo>
99.0291

> <Gold.Chemscore.Internal_Hbond>
0.0000

> <Gold.Chemscore.DEClash>
0.3983

> <Gold.Chemscore.DEInternal>
3.0111

> <Gold.Chemscore.Rot>
2.7172

> <Gold.Chemscore.Internal.Correction>
   9.000000E+99

> <Gold.Chemscore.Hbonds>
donor molecule, donor type, donor heavy atom, donor atom, acceptor molecule, acceptor atom, score
      L1  H    19    44       P1  8028  0.61
      P1  H  7989  7998       L1    11  0.07

> <Gold.Chemscore.Hbond.Weighted>
-5.0074

> <Gold.Chemscore.Metal.Weighted>
-0.0000

> <Gold.Chemscore.Lipo.Weighted>
-11.5864

> <Gold.Chemscore.Internal_Hbond.Weighted>
0.0000

> <Gold.Chemscore.DEClash.Weighted>
0.3983

> <Gold.Chemscore.DEInternal.Weighted>
3.0111

> <Gold.Chemscore.Rot.Weighted>
6.9560

> <Gold.Chemscore.Internal.Correction.Weighted>
   9.000000E+99

> <Gold.Protein.RotatedTorsions>
[ 6907 6896 6895 6894 ] final -178.10 input  -60.11 | X-H torsion
[ 7974 7965 7964 7962 ] final   63.49 input  175.53 | X-H torsion
[ 8008 7997 7996 7995 ] final -129.25 input   59.86 | X-H torsion
[ 10167 10162 10161 10158 ] final  -48.04 input  -65.29 | X-H torsion
[ 10718 10713 10712 10709 ] final -121.54 input   66.30 | X-H torsion
[ 10763 10752 10751 10750 ] final   51.63 input  -60.55 | X-H torsion
[ 11005 11000 10999 10996 ] final   68.44 input  -57.11 | X-H torsion

> <Gold.Protein.ActiveResidues>
 VAL166  LYS551  ARG553  GLY616  TRP617  ASP618  TYR619  PRO620  LYS621  CYS622 
 ASP623  PHE694  ASN695  SER759  ASP760  ASP761  ALA762  ILE779  LEU786  VAL792 
 PHE793  MET794  SER795  GLU796  ALA797  LYS798  CYS799  TRP800  GLU811  SER814 

> <Gold.Protein.RotatedAtoms>
  151.6318  133.3331  159.3110 H   0  0  0  0  0  0  0  0  0  0  0  0  # atno 6907 bound_to 6896
  150.8053  134.7177  159.6649 H   0  0  0  0  0  0  0  0  0  0  0  0  # atno 6908 bound_to 6896
  152.4148  134.6066  160.0066 H   0  0  0  0  0  0  0  0  0  0  0  0  # atno 6909 bound_to 6896
  145.8612  139.3316  143.0818 H   0  0  0  0  0  0  0  0  0  0  0  0  # atno 7974 bound_to 7965
  155.2761  140.0442  157.3011 H   0  0  0  0  0  0  0  0  0  0  0  0  # atno 8008 bound_to 7997
  154.5624  140.2350  155.8283 H   0  0  0  0  0  0  0  0  0  0  0  0  # atno 8009 bound_to 7997
  156.2058  140.3013  155.9631 H   0  0  0  0  0  0  0  0  0  0  0  0  # atno 8010 bound_to 7997
  140.6748  143.2757  151.4014 H   0  0  0  0  0  0  0  0  0  0  0  0  # atno 10167 bound_to 10162
  156.1346  130.6421  150.9675 H   0  0  0  0  0  0  0  0  0  0  0  0  # atno 10718 bound_to 10713
  152.9786  135.5839  154.4447 H   0  0  0  0  0  0  0  0  0  0  0  0  # atno 10763 bound_to 10752
  154.4044  135.2769  155.2078 H   0  0  0  0  0  0  0  0  0  0  0  0  # atno 10764 bound_to 10752
  154.3895  135.6128  153.5889 H   0  0  0  0  0  0  0  0  0  0  0  0  # atno 10765 bound_to 10752
  139.9711  134.6898  156.0444 H   0  0  0  0  0  0  0  0  0  0  0  0  # atno 11005 bound_to 11000
  145.9246  140.9091  143.0387 LP  0  0  0  0  0  0  0  0  0  0  0  0  # atno 17320 bound_to 7965
  144.6726  140.1335  143.7442 LP  0  0  0  0  0  0  0  0  0  0  0  0  # atno 17321 bound_to 7965
  139.6035  144.1245  152.2224 LP  0  0  0  0  0  0  0  0  0  0  0  0  # atno 17342 bound_to 10162
  140.0637  144.5836  150.7243 LP  0  0  0  0  0  0  0  0  0  0  0  0  # atno 17343 bound_to 10162
  157.6520  131.0895  150.8030 LP  0  0  0  0  0  0  0  0  0  0  0  0  # atno 17370 bound_to 10713
  156.8111  130.4953  149.5356 LP  0  0  0  0  0  0  0  0  0  0  0  0  # atno 17371 bound_to 10713
  141.1391  133.6568  156.3678 LP  0  0  0  0  0  0  0  0  0  0  0  0  # atno 17394 bound_to 11000
  140.5291  134.6230  157.5344 LP  0  0  0  0  0  0  0  0  0  0  0  0  # atno 17395 bound_to 11000

$$$$
