AV-unprocessed.smi:244|AV-procd|sdf|1872|dock8
  -GOLD-   2262020513D 1   1.00000     0.00000
 Structure written by MMmdl.
 56 60  0  0  0  0  0  0  0  0  1 V2000
  146.4592  130.8035  159.6064 C   0  0  0  0  0  0  0  0  0  0  0  0
  146.2260  132.1046  160.2170 N   0  0  0  0  0  0  0  0  0  0  0  0
  146.0454  131.9338  161.6602 C   0  0  0  0  0  0  0  0  0  0  0  0
  145.7680  133.2906  162.3309 C   0  0  0  0  0  0  0  0  0  0  0  0
  146.9173  134.2614  162.0446 C   0  0  2  0  0  0  0  0  0  0  0  0
  146.6401  135.5367  162.6106 O   0  0  0  0  0  0  0  0  0  0  0  0
  147.7312  136.4317  162.4243 C   0  0  0  0  0  0  0  0  0  0  0  0
  147.9802  136.6349  160.9208 C   0  0  0  0  0  0  0  0  0  0  0  0
  148.1761  135.3538  160.2458 N   0  0  0  0  0  0  0  0  0  0  0  0
  148.5410  135.5529  158.9558 C   0  0  0  0  0  0  0  0  0  0  0  0
  149.6687  134.9781  158.4588 N   0  0  0  0  0  0  0  0  0  0  0  0
  150.0056  135.1599  157.1782 C   0  0  0  0  0  0  0  0  0  0  0  0
  149.3644  135.8562  156.2368 N   0  0  0  0  0  0  0  0  0  0  0  0
  148.2260  136.4233  156.7299 C   0  0  0  0  0  0  0  0  0  0  0  0
  147.7448  136.3209  158.0647 C   0  0  0  0  0  0  0  0  0  0  0  0
  146.5552  137.0251  158.1992 N   0  0  0  0  0  0  0  0  0  0  0  0
  146.3437  137.5170  157.0088 C   0  0  0  0  0  0  0  0  0  0  0  0
  147.2999  137.2095  156.0668 N   0  0  0  0  0  0  0  0  0  0  0  0
  147.3112  137.6225  154.6720 C   0  0  0  0  0  0  0  0  0  0  0  0
  148.4048  138.6657  154.3350 C   0  0  0  0  0  0  0  0  0  0  0  0
  148.4472  138.8041  152.9247 O   0  0  0  0  0  0  0  0  0  0  0  0
  148.1163  140.0507  154.9545 C   0  0  0  0  0  0  0  0  0  0  0  0
  149.3023  141.0172  154.7878 C   0  0  0  0  0  0  0  0  0  0  0  0
  150.4841  140.4400  155.3298 O   0  0  0  0  0  0  0  0  0  0  0  0
  150.8734  139.2489  154.6566 C   0  0  0  0  0  0  0  0  0  0  0  0
  149.7844  138.1733  154.8167 C   0  0  0  0  0  0  0  0  0  0  0  0
  147.1004  134.3947  160.5192 C   0  0  1  0  0  0  0  0  0  0  0  0
  147.3627  132.9846  159.9344 C   0  0  0  0  0  0  0  0  0  0  0  0
  145.6178  130.1355  159.7937 H   0  0  0  0  0  0  0  0  0  0  0  0
  147.3623  130.3349  160.0007 H   0  0  0  0  0  0  0  0  0  0  0  0
  146.5692  130.9014  158.5260 H   0  0  0  0  0  0  0  0  0  0  0  0
  145.2095  131.2584  161.8463 H   0  0  0  0  0  0  0  0  0  0  0  0
  146.9333  131.4737  162.0969 H   0  0  0  0  0  0  0  0  0  0  0  0
  144.8280  133.7034  161.9622 H   0  0  0  0  0  0  0  0  0  0  0  0
  145.6507  133.1573  163.4065 H   0  0  0  0  0  0  0  0  0  0  0  0
  147.8284  133.8631  162.4967 H   0  0  0  0  0  0  0  0  0  0  0  0
  147.4943  137.3844  162.8977 H   0  0  0  0  0  0  0  0  0  0  0  0
  148.6248  136.0453  162.9174 H   0  0  0  0  0  0  0  0  0  0  0  0
  147.1287  137.1491  160.4727 H   0  0  0  0  0  0  0  0  0  0  0  0
  148.8506  137.2773  160.7809 H   0  0  0  0  0  0  0  0  0  0  0  0
  150.9178  134.6755  156.8625 H   0  0  0  0  0  0  0  0  0  0  0  0
  145.4799  138.1254  156.7833 H   0  0  0  0  0  0  0  0  0  0  0  0
  147.4427  136.7314  154.0569 H   0  0  0  0  0  0  0  0  0  0  0  0
  146.3237  138.0158  154.4261 H   0  0  0  0  0  0  0  0  0  0  0  0
  148.7964  138.0075  152.5551 H   0  0  0  0  0  0  0  0  0  0  0  0
  147.2195  140.4937  154.5198 H   0  0  0  0  0  0  0  0  0  0  0  0
  147.9139  139.9321  156.0197 H   0  0  0  0  0  0  0  0  0  0  0  0
  149.4570  141.2728  153.7383 H   0  0  0  0  0  0  0  0  0  0  0  0
  149.0969  141.9510  155.3114 H   0  0  0  0  0  0  0  0  0  0  0  0
  151.0690  139.4587  153.6039 H   0  0  0  0  0  0  0  0  0  0  0  0
  151.8107  138.8952  155.0862 H   0  0  0  0  0  0  0  0  0  0  0  0
  149.7219  137.9025  155.8716 H   0  0  0  0  0  0  0  0  0  0  0  0
  150.0746  137.2654  154.2859 H   0  0  0  0  0  0  0  0  0  0  0  0
  146.1776  134.7902  160.0906 H   0  0  0  0  0  0  0  0  0  0  0  0
  148.2800  132.5637  160.3501 H   0  0  0  0  0  0  0  0  0  0  0  0
  147.4976  133.0357  158.8541 H   0  0  0  0  0  0  0  0  0  0  0  0
  1  2  1  0  0  0  0
  1 29  1  0  0  0  0
  1 30  1  0  0  0  0
  1 31  1  0  0  0  0
  2 28  1  0  0  0  0
  2  3  1  0  0  0  0
  3  4  1  0  0  0  0
  3 32  1  0  0  0  0
  3 33  1  0  0  0  0
  4  5  1  0  0  0  0
  4 34  1  0  0  0  0
  4 35  1  0  0  0  0
  5 27  1  0  0  0  0
  5  6  1  0  0  0  0
  5 36  1  0  0  0  0
  6  7  1  0  0  0  0
  7  8  1  0  0  0  0
  7 37  1  0  0  0  0
  7 38  1  0  0  0  0
  8  9  1  0  0  0  0
  8 39  1  0  0  0  0
  8 40  1  0  0  0  0
  9 10  1  0  0  0  0
  9 27  1  0  0  0  0
 10 15  1  0  0  0  0
 10 11  2  0  0  0  0
 11 12  1  0  0  0  0
 12 13  2  0  0  0  0
 12 41  1  0  0  0  0
 13 14  1  0  0  0  0
 14 18  1  0  0  0  0
 14 15  2  0  0  0  0
 15 16  1  0  0  0  0
 16 17  2  0  0  0  0
 17 18  1  0  0  0  0
 17 42  1  0  0  0  0
 18 19  1  0  0  0  0
 19 20  1  0  0  0  0
 19 43  1  0  0  0  0
 19 44  1  0  0  0  0
 20 26  1  0  0  0  0
 20 21  1  0  0  0  0
 20 22  1  0  0  0  0
 21 45  1  0  0  0  0
 22 23  1  0  0  0  0
 22 46  1  0  0  0  0
 22 47  1  0  0  0  0
 23 24  1  0  0  0  0
 23 48  1  0  0  0  0
 23 49  1  0  0  0  0
 24 25  1  0  0  0  0
 25 26  1  0  0  0  0
 25 50  1  0  0  0  0
 25 51  1  0  0  0  0
 26 52  1  0  0  0  0
 26 53  1  0  0  0  0
 27 28  1  0  0  0  0
 27 54  1  0  0  0  0
 28 55  1  0  0  0  0
 28 56  1  0  0  0  0
M  END
> <s_m_source_file>
AV-unprocessed.smi

> <i_m_source_file_index>
244

> <i_lp_mmshare_version>
43012

> <i_f3d_flags>
0

> <s_epik_input>
W0NIMl0xW0NIMl1OKFtDSDNdKVtDSDJdW0NAQEhdKFtDQEhdMTIpTihbQ0gyXVtDSDJdTzIpYyhuW2NIXW4zKWMoYzM0KW5bY0hdbjRbQ0gyXUM1KFtPSF0pW0NIMl1bQ0gyXU9bQ0gyXVtDSDJdNQ==

> <s_epik_cmdline>
J2VwaWtfcHl0aG9uJywgJy1waCcsICc3LjAnLCAnLXRuJywgJzgnLCAnLW1hJywgJzIwMCcsICctbWV0YWxfYmluZGluZycsICctaW1hZScsICc8aW5maWxlLm1hZT4nLCAnLW9tYWUnLCAnPG91dGZpbGUubWFlPic=

> <r_lp_tautomer_probability>
1

> <r_epik_Ionization_Penalty>
2.27765

> <r_epik_Ionization_Penalty_Charging>
0

> <r_epik_Ionization_Penalty_Neutral>
2.27765

> <r_epik_State_Penalty>
2.4114

> <r_epik_Charging_Adjusted_Penalty>
2.4114

> <i_epik_Tot_Q>
0

> <i_epik_Tot_abs_Q>
0

> <r_epik_Metal_State_Penalty>
2.39769

> <b_epik_Metal_Only>
0

> <s_lp_Force_Field>
OPLS_2005

> <r_lp_Energy>
38.8348

> <b_lp_Chiralities_Consistent>
1

> <s_lp_Variant>
AV-unprocessed.smi:244-9

> <Gold.Version>
5.8.1

> <Gold.Id.Protein>
6NUR|6NUR_protein|mol2

> <Gold.PLP.Fitness>
39.0909

> <Gold.PLP.PLP>
-33.7778

> <Gold.PLP.part.hbond>
-3.7113

> <Gold.PLP.part.metal>
0.0000

> <Gold.PLP.part.buried>
-4.6614

> <Gold.PLP.part.nonpolar>
-25.5605

> <Gold.PLP.part.repulsive>
0.0820

> <Gold.PLP.ligand.clash>
0.0041

> <Gold.PLP.ligand.torsion>
0.4163

> <Gold.PLP.Chemscore.Hbond>
2.0000

> <Gold.PLP.Chemscore.CHOScore>
0.0000

> <Gold.PLP.Chemscore.Metal>
0.0000

> <Gold.Chemscore.Hbonds>
donor molecule, donor type, donor heavy atom, donor atom, acceptor molecule, acceptor atom, score
      L1  H    21    45       P1  7948  1.00
      P1  H  6896  6909       L1    11  0.98

> <Gold.PLP.Chemscore.Internal.Correction>
0.1497

> <Gold.Rescore>
     Score         DG    S(hbond)    S(metal)    S(lipo)     H(rot)  DE(clash)    DE(int)     intcor
     15.06     -15.69       1.95        0.00      76.70       2.06       0.02       0.61       ----

> <Gold.Chemscore.Fitness>
15.0644

> <Gold.Chemscore.DG>
-15.6903

> <Gold.Chemscore.ZeroCoef>
-5.4800

> <Gold.Chemscore.Hbond>
1.9499

> <Gold.Chemscore.Metal>
0.0000

> <Gold.Chemscore.Lipo>
76.7024

> <Gold.Chemscore.Internal_Hbond>
0.0000

> <Gold.Chemscore.DEClash>
0.0207

> <Gold.Chemscore.DEInternal>
0.6052

> <Gold.Chemscore.Rot>
2.0611

> <Gold.Chemscore.Internal.Correction>
   9.000000E+99

> <Gold.Chemscore.Hbonds>
donor molecule, donor type, donor heavy atom, donor atom, acceptor molecule, acceptor atom, score
      L1  H    21    45       P1  7948  1.00
      P1  H  6896  6909       L1    11  0.87

> <Gold.Chemscore.Hbond.Weighted>
-6.5126

> <Gold.Chemscore.Metal.Weighted>
-0.0000

> <Gold.Chemscore.Lipo.Weighted>
-8.9742

> <Gold.Chemscore.Internal_Hbond.Weighted>
0.0000

> <Gold.Chemscore.DEClash.Weighted>
0.0207

> <Gold.Chemscore.DEInternal.Weighted>
0.6052

> <Gold.Chemscore.Rot.Weighted>
5.2765

> <Gold.Chemscore.Internal.Correction.Weighted>
   9.000000E+99

> <Gold.Protein.RotatedTorsions>
[ 6907 6896 6895 6894 ] final   32.67 input  -60.11 | X-H torsion
[ 7974 7965 7964 7962 ] final  124.43 input  175.53 | X-H torsion
[ 8008 7997 7996 7995 ] final  -85.82 input   59.86 | X-H torsion
[ 10167 10162 10161 10158 ] final -118.30 input  -65.29 | X-H torsion
[ 10718 10713 10712 10709 ] final   71.69 input   66.30 | X-H torsion
[ 10763 10752 10751 10750 ] final -178.53 input  -60.55 | X-H torsion
[ 11005 11000 10999 10996 ] final   65.78 input  -57.11 | X-H torsion

> <Gold.Protein.ActiveResidues>
 VAL166  LYS551  ARG553  GLY616  TRP617  ASP618  TYR619  PRO620  LYS621  CYS622 
 ASP623  PHE694  ASN695  SER759  ASP760  ASP761  ALA762  ILE779  LEU786  VAL792 
 PHE793  MET794  SER795  GLU796  ALA797  LYS798  CYS799  TRP800  GLU811  SER814 

> <Gold.Protein.RotatedAtoms>
  152.0777  134.9491  160.0573 H   0  0  0  0  0  0  0  0  0  0  0  0  # atno 6907 bound_to 6896
  152.0792  133.4139  159.4502 H   0  0  0  0  0  0  0  0  0  0  0  0  # atno 6908 bound_to 6896
  150.6836  134.2921  159.4714 H   0  0  0  0  0  0  0  0  0  0  0  0  # atno 6909 bound_to 6896
  145.0845  139.3632  143.4892 H   0  0  0  0  0  0  0  0  0  0  0  0  # atno 7974 bound_to 7965
  154.6449  140.0586  156.9889 H   0  0  0  0  0  0  0  0  0  0  0  0  # atno 8008 bound_to 7997
  155.1459  140.3269  155.4423 H   0  0  0  0  0  0  0  0  0  0  0  0  # atno 8009 bound_to 7997
  156.2549  140.1956  156.6573 H   0  0  0  0  0  0  0  0  0  0  0  0  # atno 8010 bound_to 7997
  140.0590  143.4986  152.2042 H   0  0  0  0  0  0  0  0  0  0  0  0  # atno 10167 bound_to 10162
  157.6464  130.9541  150.0825 H   0  0  0  0  0  0  0  0  0  0  0  0  # atno 10718 bound_to 10713
  154.5465  135.2810  155.1048 H   0  0  0  0  0  0  0  0  0  0  0  0  # atno 10763 bound_to 10752
  154.2510  135.6339  153.5244 H   0  0  0  0  0  0  0  0  0  0  0  0  # atno 10764 bound_to 10752
  152.9992  135.5582  154.6019 H   0  0  0  0  0  0  0  0  0  0  0  0  # atno 10765 bound_to 10752
  139.9873  134.6647  156.0153 H   0  0  0  0  0  0  0  0  0  0  0  0  # atno 11005 bound_to 11000
  146.3531  140.0651  142.8627 LP  0  0  0  0  0  0  0  0  0  0  0  0  # atno 17320 bound_to 7965
  145.1139  140.9421  143.4640 LP  0  0  0  0  0  0  0  0  0  0  0  0  # atno 17321 bound_to 7965
  139.5906  144.7548  151.3411 LP  0  0  0  0  0  0  0  0  0  0  0  0  # atno 17342 bound_to 10162
  140.7181  143.7211  150.7695 LP  0  0  0  0  0  0  0  0  0  0  0  0  # atno 17343 bound_to 10162
  156.1797  130.3649  149.9052 LP  0  0  0  0  0  0  0  0  0  0  0  0  # atno 17370 bound_to 10713
  156.7007  130.8932  151.3599 LP  0  0  0  0  0  0  0  0  0  0  0  0  # atno 17371 bound_to 10713
  141.1536  133.6545  156.4089 LP  0  0  0  0  0  0  0  0  0  0  0  0  # atno 17394 bound_to 11000
  140.4977  134.6515  157.5236 LP  0  0  0  0  0  0  0  0  0  0  0  0  # atno 17395 bound_to 11000

$$$$
