AV-unprocessed.smi:1045|AV-procd|sdf|4544|dock6
  -GOLD-   22720 2573D 1   1.00000     0.00000
 Structure written by MMmdl.
 42 43  0  0  0  0  0  0  0  0  1 V2000
  149.9042  129.9833  154.4338 C   0  0  0  0  0  0  0  0  0  0  0  0
  148.9056  130.9732  154.2609 O   0  0  0  0  0  0  0  0  0  0  0  0
  149.4415  132.2856  154.2175 C   0  0  0  0  0  0  0  0  0  0  0  0
  148.2912  133.3059  154.1460 C   0  0  2  0  0  0  0  0  0  0  0  0
  147.3146  132.9931  153.0031 C   0  0  0  0  0  0  0  0  0  0  0  0
  148.8193  134.6551  153.9632 N   0  0  0  0  0  0  0  0  0  0  0  0
  149.2627  135.4560  154.9428 C   0  0  0  0  0  0  0  0  0  0  0  0
  149.2890  135.1277  156.1286 O   0  0  0  0  0  0  0  0  0  0  0  0
  149.6825  136.6336  154.4497 N   0  0  0  0  0  0  0  0  0  0  0  0
  150.1933  137.7619  155.1471 C   0  0  0  0  0  0  0  0  0  0  0  0
  150.7184  137.7245  156.4599 C   0  0  0  0  0  0  0  0  0  0  0  0
  151.1743  138.9205  157.0468 C   0  0  0  0  0  0  0  0  0  0  0  0
  151.0865  140.1275  156.3136 C   0  0  0  0  0  0  0  0  0  0  0  0
  151.5357  141.3446  156.8638 N   0  0  0  0  0  0  0  0  0  0  0  0
  150.9516  142.6203  156.4795 C   0  0  0  0  0  0  0  0  0  0  0  0
  151.6118  143.6415  157.4041 C   0  0  0  0  0  0  0  0  0  0  0  0
  151.8416  142.8463  158.6890 C   0  0  0  0  0  0  0  0  0  0  0  0
  152.1045  141.4162  158.2027 C   0  0  0  0  0  0  0  0  0  0  0  0
  150.5798  140.1611  155.0584 N   0  0  0  0  0  0  0  0  0  0  0  0
  150.1434  139.0128  154.5005 C   0  0  0  0  0  0  0  0  0  0  0  0
  149.4413  128.9969  154.4577 H   0  0  0  0  0  0  0  0  0  0  0  0
  150.4426  130.1252  155.3717 H   0  0  0  0  0  0  0  0  0  0  0  0
  150.6212  129.9987  153.6120 H   0  0  0  0  0  0  0  0  0  0  0  0
  150.0426  132.4562  155.1122 H   0  0  0  0  0  0  0  0  0  0  0  0
  150.1017  132.3971  153.3555 H   0  0  0  0  0  0  0  0  0  0  0  0
  147.7333  133.2709  155.0837 H   0  0  0  0  0  0  0  0  0  0  0  0
  146.8646  132.0077  153.1271 H   0  0  0  0  0  0  0  0  0  0  0  0
  147.8166  133.0093  152.0351 H   0  0  0  0  0  0  0  0  0  0  0  0
  146.5026  133.7204  152.9705 H   0  0  0  0  0  0  0  0  0  0  0  0
  148.8428  135.0064  153.0172 H   0  0  0  0  0  0  0  0  0  0  0  0
  149.6696  136.7203  153.4440 H   0  0  0  0  0  0  0  0  0  0  0  0
  150.7711  136.8128  157.0338 H   0  0  0  0  0  0  0  0  0  0  0  0
  151.5851  138.8942  158.0450 H   0  0  0  0  0  0  0  0  0  0  0  0
  151.1356  142.8487  155.4291 H   0  0  0  0  0  0  0  0  0  0  0  0
  149.8739  142.5920  156.6449 H   0  0  0  0  0  0  0  0  0  0  0  0
  152.5708  143.9528  156.9874 H   0  0  0  0  0  0  0  0  0  0  0  0
  151.0032  144.5334  157.5553 H   0  0  0  0  0  0  0  0  0  0  0  0
  152.6559  143.2432  159.2955 H   0  0  0  0  0  0  0  0  0  0  0  0
  150.9340  142.8649  159.2939 H   0  0  0  0  0  0  0  0  0  0  0  0
  151.6585  140.6876  158.8808 H   0  0  0  0  0  0  0  0  0  0  0  0
  153.1752  141.2188  158.1417 H   0  0  0  0  0  0  0  0  0  0  0  0
  149.7430  139.0977  153.5008 H   0  0  0  0  0  0  0  0  0  0  0  0
  1  2  1  0  0  0  0
  1 21  1  0  0  0  0
  1 22  1  0  0  0  0
  1 23  1  0  0  0  0
  2  3  1  0  0  0  0
  3  4  1  0  0  0  0
  3 24  1  0  0  0  0
  3 25  1  0  0  0  0
  4  5  1  0  0  0  0
  4  6  1  0  0  0  0
  4 26  1  0  0  0  0
  5 27  1  0  0  0  0
  5 28  1  0  0  0  0
  5 29  1  0  0  0  0
  6  7  1  0  0  0  0
  6 30  1  0  0  0  0
  7  8  2  0  0  0  0
  7  9  1  0  0  0  0
  9 10  1  0  0  0  0
  9 31  1  0  0  0  0
 10 20  1  0  0  0  0
 10 11  2  0  0  0  0
 11 12  1  0  0  0  0
 11 32  1  0  0  0  0
 12 13  2  0  0  0  0
 12 33  1  0  0  0  0
 13 14  1  0  0  0  0
 13 19  1  0  0  0  0
 14 18  1  0  0  0  0
 14 15  1  0  0  0  0
 15 16  1  0  0  0  0
 15 34  1  0  0  0  0
 15 35  1  0  0  0  0
 16 17  1  0  0  0  0
 16 36  1  0  0  0  0
 16 37  1  0  0  0  0
 17 18  1  0  0  0  0
 17 38  1  0  0  0  0
 17 39  1  0  0  0  0
 18 40  1  0  0  0  0
 18 41  1  0  0  0  0
 19 20  2  0  0  0  0
 20 42  1  0  0  0  0
M  END
> <s_m_source_file>
AV-unprocessed.smi

> <i_m_source_file_index>
1045

> <i_lp_mmshare_version>
43012

> <i_f3d_flags>
0

> <s_epik_input>
W0NIM11PW0NIMl1bQ0BIXShbQ0gzXSlbTkhdQyg9TylbTkhdYzFbY0hdW2NIXWMobltjSF0xKU4yW0NIMl1bQ0gyXVtDSDJdW0NIMl0y

> <s_epik_cmdline>
J2VwaWtfcHl0aG9uJywgJy1waCcsICc3LjAnLCAnLXRuJywgJzgnLCAnLW1hJywgJzIwMCcsICctbWV0YWxfYmluZGluZycsICctaW1hZScsICc8aW5maWxlLm1hZT4nLCAnLW9tYWUnLCAnPG91dGZpbGUubWFlPic=

> <r_lp_tautomer_probability>
1

> <r_epik_Ionization_Penalty>
0.10064

> <r_epik_Ionization_Penalty_Charging>
0

> <r_epik_Ionization_Penalty_Neutral>
0.10064

> <r_epik_State_Penalty>
0.0900987

> <r_epik_Charging_Adjusted_Penalty>
0.0900987

> <i_epik_Tot_Q>
0

> <i_epik_Tot_abs_Q>
0

> <r_epik_Metal_State_Penalty>
0.076945

> <b_epik_Metal_Only>
0

> <s_lp_Force_Field>
OPLS_2005

> <r_lp_Energy>
28.0744

> <b_lp_Chiralities_Consistent>
1

> <s_lp_Variant>
AV-unprocessed.smi:1045-1

> <Gold.Version>
5.8.1

> <Gold.Id.Protein>
6NUR|6NUR_protein|mol2

> <Gold.PLP.Fitness>
41.4746

> <Gold.PLP.PLP>
-30.7038

> <Gold.PLP.part.hbond>
-3.0000

> <Gold.PLP.part.metal>
0.0000

> <Gold.PLP.part.buried>
-2.8342

> <Gold.PLP.part.nonpolar>
-24.2319

> <Gold.PLP.part.repulsive>
0.1691

> <Gold.PLP.ligand.clash>
0.0000

> <Gold.PLP.ligand.torsion>
0.6419

> <Gold.PLP.Chemscore.Hbond>
2.9500

> <Gold.PLP.Chemscore.CHOScore>
1.0000

> <Gold.PLP.Chemscore.Metal>
0.0000

> <Gold.Chemscore.Hbonds>
donor molecule, donor type, donor heavy atom, donor atom, acceptor molecule, acceptor atom, score
      L1  H     6    30       P1  7948  1.00
      L1  H     9    31       P1  7948  1.00
      P1  H  7989  7998       L1    19  0.95
      L1  C    20    42       P1  7957  1.00

> <Gold.PLP.Chemscore.Internal.Correction>
0.2045

> <Gold.Rescore>
     Score         DG    S(hbond)    S(metal)    S(lipo)     H(rot)  DE(clash)    DE(int)     intcor
     15.64     -17.66       1.99        0.00      78.04       1.41       0.28       1.74       ----

> <Gold.Chemscore.Fitness>
15.6404

> <Gold.Chemscore.DG>
-17.6577

> <Gold.Chemscore.ZeroCoef>
-5.4800

> <Gold.Chemscore.Hbond>
1.9919

> <Gold.Chemscore.Metal>
0.0000

> <Gold.Chemscore.Lipo>
78.0413

> <Gold.Chemscore.Internal_Hbond>
0.0000

> <Gold.Chemscore.DEClash>
0.2768

> <Gold.Chemscore.DEInternal>
1.7404

> <Gold.Chemscore.Rot>
1.4086

> <Gold.Chemscore.Internal.Correction>
   9.000000E+99

> <Gold.Chemscore.Hbonds>
donor molecule, donor type, donor heavy atom, donor atom, acceptor molecule, acceptor atom, score
      L1  H     6    30       P1  7948  0.25
      L1  H     9    31       P1  7948  0.52
      P1  H  7989  7998       L1    19  0.20

> <Gold.Chemscore.Hbond.Weighted>
-6.6528

> <Gold.Chemscore.Metal.Weighted>
-0.0000

> <Gold.Chemscore.Lipo.Weighted>
-9.1308

> <Gold.Chemscore.Internal_Hbond.Weighted>
0.0000

> <Gold.Chemscore.DEClash.Weighted>
0.2768

> <Gold.Chemscore.DEInternal.Weighted>
1.7404

> <Gold.Chemscore.Rot.Weighted>
3.6060

> <Gold.Chemscore.Internal.Correction.Weighted>
   9.000000E+99

> <Gold.Protein.RotatedTorsions>
[ 6907 6896 6895 6894 ] final  171.71 input  -60.11 | X-H torsion
[ 7974 7965 7964 7962 ] final   78.66 input  175.53 | X-H torsion
[ 8008 7997 7996 7995 ] final  -68.50 input   59.86 | X-H torsion
[ 10167 10162 10161 10158 ] final  117.34 input  -65.29 | X-H torsion
[ 10718 10713 10712 10709 ] final   87.10 input   66.30 | X-H torsion
[ 10763 10752 10751 10750 ] final -103.26 input  -60.55 | X-H torsion
[ 11005 11000 10999 10996 ] final -126.96 input  -57.11 | X-H torsion

> <Gold.Protein.ActiveResidues>
 VAL166  LYS551  ARG553  GLY616  TRP617  ASP618  TYR619  PRO620  LYS621  CYS622 
 ASP623  PHE694  ASN695  SER759  ASP760  ASP761  ALA762  ILE779  LEU786  VAL792 
 PHE793  MET794  SER795  GLU796  ALA797  LYS798  CYS799  TRP800  GLU811  SER814 

> <Gold.Protein.RotatedAtoms>
  151.7958  133.3364  159.3512 H   0  0  0  0  0  0  0  0  0  0  0  0  # atno 6907 bound_to 6896
  150.7375  134.5799  159.5943 H   0  0  0  0  0  0  0  0  0  0  0  0  # atno 6908 bound_to 6896
  152.3178  134.7420  160.0372 H   0  0  0  0  0  0  0  0  0  0  0  0  # atno 6909 bound_to 6896
  145.6743  139.2505  143.1850 H   0  0  0  0  0  0  0  0  0  0  0  0  # atno 7974 bound_to 7965
  154.4873  140.0871  156.7514 H   0  0  0  0  0  0  0  0  0  0  0  0  # atno 8008 bound_to 7997
  155.4319  140.3450  155.4263 H   0  0  0  0  0  0  0  0  0  0  0  0  # atno 8009 bound_to 7997
  156.1279  140.1493  156.9097 H   0  0  0  0  0  0  0  0  0  0  0  0  # atno 8010 bound_to 7997
  139.6185  144.7096  151.2686 H   0  0  0  0  0  0  0  0  0  0  0  0  # atno 10167 bound_to 10162
  157.6936  131.0242  150.3073 H   0  0  0  0  0  0  0  0  0  0  0  0  # atno 10718 bound_to 10713
  154.7794  135.4830  153.9813 H   0  0  0  0  0  0  0  0  0  0  0  0  # atno 10763 bound_to 10752
  153.1473  135.6784  153.8942 H   0  0  0  0  0  0  0  0  0  0  0  0  # atno 10764 bound_to 10752
  153.8598  135.3157  155.3415 H   0  0  0  0  0  0  0  0  0  0  0  0  # atno 10765 bound_to 10752
  140.9638  134.0899  157.3941 H   0  0  0  0  0  0  0  0  0  0  0  0  # atno 11005 bound_to 11000
  146.1019  140.7534  142.9545 LP  0  0  0  0  0  0  0  0  0  0  0  0  # atno 17320 bound_to 7965
  144.7046  140.3800  143.7128 LP  0  0  0  0  0  0  0  0  0  0  0  0  # atno 17321 bound_to 7965
  140.7367  143.6700  150.8090 LP  0  0  0  0  0  0  0  0  0  0  0  0  # atno 17342 bound_to 10162
  140.0307  143.5446  152.2761 LP  0  0  0  0  0  0  0  0  0  0  0  0  # atno 17343 bound_to 10162
  156.3580  130.3842  149.7275 LP  0  0  0  0  0  0  0  0  0  0  0  0  # atno 17370 bound_to 10713
  156.4730  130.8005  151.3023 LP  0  0  0  0  0  0  0  0  0  0  0  0  # atno 17371 bound_to 10713
  139.8887  135.0100  156.6638 LP  0  0  0  0  0  0  0  0  0  0  0  0  # atno 17394 bound_to 11000
  140.7429  133.8963  155.8291 LP  0  0  0  0  0  0  0  0  0  0  0  0  # atno 17395 bound_to 11000

$$$$
