AV-unprocessed.smi:2159|AV-procd|sdf|8794|dock8
  -GOLD-   2272011573D 1   1.00000     0.00000
 Structure written by MMmdl.
 48 50  0  0  0  0  0  0  0  0  2 V2000
  149.1243  137.3414  154.9659 O   0  0  0  0  0  0  0  0  0  0  0  0
  150.2399  136.8354  155.0933 C   0  0  0  0  0  0  0  0  0  0  0  0
  151.4837  137.7174  155.2339 C   0  0  0  0  0  0  0  0  0  0  0  0
  151.2421  139.1714  154.7814 C   0  0  0  0  0  0  0  0  0  0  0  0
  151.3600  140.1049  155.9041 N   0  0  0  0  0  0  0  0  0  0  0  0
  152.2193  139.9530  156.9298 C   0  0  0  0  0  0  0  0  0  0  0  0
  153.0882  139.0901  157.0517 O   0  0  0  0  0  0  0  0  0  0  0  0
  151.9043  140.9943  157.9934 C   0  0  1  0  0  0  0  0  0  0  0  0
  152.9860  141.6404  158.8603 C   0  0  0  0  0  0  0  0  0  0  0  0
  152.2645  142.6278  159.8158 C   0  0  0  0  0  0  0  0  0  0  0  0
  151.2932  143.6102  159.0968 C   0  0  0  0  0  0  0  0  0  0  0  0
  150.3415  142.9253  158.0801 C   0  0  0  0  0  0  0  0  0  0  0  0
  151.2160  142.0637  157.1682 C   0  0  2  0  0  0  0  0  0  0  0  0
  150.6443  141.2395  156.0242 C   0  0  0  0  0  0  0  0  0  0  0  0
  149.7249  141.6204  155.3002 O   0  0  0  0  0  0  0  0  0  0  0  0
  150.4447  135.5092  155.1066 N   0  0  0  0  0  0  0  0  0  0  0  0
  149.3961  134.5038  154.9804 C   0  0  0  0  0  0  0  0  0  0  0  0
  149.7185  133.4863  153.8728 C   0  0  0  0  0  0  0  0  0  0  0  0
  148.4685  132.8679  153.2785 C   0  0  0  0  0  0  0  0  0  0  0  0
  148.0580  131.5527  153.5872 C   0  0  0  0  0  0  0  0  0  0  0  0
  146.8818  131.0427  152.9985 C   0  0  0  0  0  0  0  0  0  0  0  0
  146.1418  131.8571  152.1162 C   0  0  0  0  0  0  0  0  0  0  0  0
  146.5969  133.1637  151.8448 C   0  0  0  0  0  0  0  0  0  0  0  0
  147.7284  133.6162  152.4284 N   0  3  0  0  0  0  0  0  0  0  0  0
  151.8170  137.7080  156.2729 H   0  0  0  0  0  0  0  0  0  0  0  0
  152.2850  137.2711  154.6442 H   0  0  0  0  0  0  0  0  0  0  0  0
  151.9524  139.4505  154.0009 H   0  0  0  0  0  0  0  0  0  0  0  0
  150.2536  139.2628  154.3269 H   0  0  0  0  0  0  0  0  0  0  0  0
  151.1840  140.5125  158.6587 H   0  0  0  0  0  0  0  0  0  0  0  0
  153.5278  140.8859  159.4314 H   0  0  0  0  0  0  0  0  0  0  0  0
  153.7176  142.1640  158.2438 H   0  0  0  0  0  0  0  0  0  0  0  0
  151.6941  142.0515  160.5454 H   0  0  0  0  0  0  0  0  0  0  0  0
  153.0009  143.1906  160.3901 H   0  0  0  0  0  0  0  0  0  0  0  0
  150.7098  144.1603  159.8355 H   0  0  0  0  0  0  0  0  0  0  0  0
  151.8867  144.3576  158.5689 H   0  0  0  0  0  0  0  0  0  0  0  0
  149.5990  142.3156  158.5965 H   0  0  0  0  0  0  0  0  0  0  0  0
  149.7979  143.6744  157.5035 H   0  0  0  0  0  0  0  0  0  0  0  0
  151.9602  142.7152  156.7040 H   0  0  0  0  0  0  0  0  0  0  0  0
  151.3917  135.1750  155.2153 H   0  0  0  0  0  0  0  0  0  0  0  0
  149.2960  133.9920  155.9380 H   0  0  0  0  0  0  0  0  0  0  0  0
  148.4389  134.9917  154.7883 H   0  0  0  0  0  0  0  0  0  0  0  0
  150.2828  133.9636  153.0703 H   0  0  0  0  0  0  0  0  0  0  0  0
  150.3575  132.6950  154.2673 H   0  0  0  0  0  0  0  0  0  0  0  0
  148.6347  130.9410  154.2661 H   0  0  0  0  0  0  0  0  0  0  0  0
  146.5515  130.0386  153.2211 H   0  0  0  0  0  0  0  0  0  0  0  0
  145.2385  131.4850  151.6552 H   0  0  0  0  0  0  0  0  0  0  0  0
  146.0946  133.8550  151.1837 H   0  0  0  0  0  0  0  0  0  0  0  0
  148.0396  134.5651  152.2182 H   0  0  0  0  0  0  0  0  0  0  0  0
  1  2  2  0  0  0  0
  2  3  1  0  0  0  0
  2 16  1  0  0  0  0
  3  4  1  0  0  0  0
  3 25  1  0  0  0  0
  3 26  1  0  0  0  0
  4  5  1  0  0  0  0
  4 27  1  0  0  0  0
  4 28  1  0  0  0  0
  5 14  1  0  0  0  0
  5  6  1  0  0  0  0
  6  7  2  0  0  0  0
  6  8  1  0  0  0  0
  8 13  1  0  0  0  0
  8  9  1  0  0  0  0
  8 29  1  0  0  0  0
  9 10  1  0  0  0  0
  9 30  1  0  0  0  0
  9 31  1  0  0  0  0
 10 11  1  0  0  0  0
 10 32  1  0  0  0  0
 10 33  1  0  0  0  0
 11 12  1  0  0  0  0
 11 34  1  0  0  0  0
 11 35  1  0  0  0  0
 12 13  1  0  0  0  0
 12 36  1  0  0  0  0
 12 37  1  0  0  0  0
 13 14  1  0  0  0  0
 13 38  1  0  0  0  0
 14 15  2  0  0  0  0
 16 17  1  0  0  0  0
 16 39  1  0  0  0  0
 17 18  1  0  0  0  0
 17 40  1  0  0  0  0
 17 41  1  0  0  0  0
 18 19  1  0  0  0  0
 18 42  1  0  0  0  0
 18 43  1  0  0  0  0
 19 24  1  0  0  0  0
 19 20  2  0  0  0  0
 20 21  1  0  0  0  0
 20 44  1  0  0  0  0
 21 22  2  0  0  0  0
 21 45  1  0  0  0  0
 22 23  1  0  0  0  0
 22 46  1  0  0  0  0
 23 24  2  0  0  0  0
 23 47  1  0  0  0  0
 24 48  1  0  0  0  0
M  CHG  1  24   1
M  END
> <s_m_source_file>
AV-unprocessed.smi

> <i_m_source_file_index>
2159

> <i_lp_mmshare_version>
43012

> <i_f3d_flags>
0

> <s_epik_input>
bjFbY0hdW2NIXVtjSF1bY0hdYzFbQ0gyXVtDSDJdW05IXUMoPU8pW0NIMl1bQ0gyXU4oQzI9TylDKD1PKVtDQEhdKFtDQEBIXTIzKVtDSDJdW0NIMl1bQ0gyXVtDSDJdMw==

> <s_epik_cmdline>
J2VwaWtfcHl0aG9uJywgJy1waCcsICc3LjAnLCAnLXRuJywgJzgnLCAnLW1hJywgJzIwMCcsICctbWV0YWxfYmluZGluZycsICctaW1hZScsICc8aW5maWxlLm1hZT4nLCAnLW9tYWUnLCAnPG91dGZpbGUubWFlPic=

> <r_lp_tautomer_probability>
1

> <r_epik_Ionization_Penalty>
1.85146

> <r_epik_Ionization_Penalty_Charging>
1.85146

> <r_epik_Ionization_Penalty_Neutral>
2.95922e-08

> <r_epik_State_Penalty>
1.96899

> <r_epik_Charging_Adjusted_Penalty>
3.82044

> <i_epik_Tot_Q>
1

> <i_epik_Tot_abs_Q>
1

> <r_epik_Metal_State_Penalty>
1.99467

> <b_epik_Metal_Only>
0

> <s_lp_Force_Field>
OPLS_2005

> <r_lp_Energy>
36.2537

> <b_lp_Chiralities_Consistent>
1

> <s_lp_Variant>
AV-unprocessed.smi:2159-4

> <Gold.Version>
5.8.1

> <Gold.Id.Protein>
6NUR|6NUR_protein|mol2

> <Gold.PLP.Fitness>
51.8524

> <Gold.PLP.PLP>
-45.4915

> <Gold.PLP.part.hbond>
-2.2436

> <Gold.PLP.part.metal>
0.0000

> <Gold.PLP.part.buried>
-3.9410

> <Gold.PLP.part.nonpolar>
-38.2325

> <Gold.PLP.part.repulsive>
0.3829

> <Gold.PLP.ligand.clash>
0.0000

> <Gold.PLP.ligand.torsion>
1.3460

> <Gold.PLP.Chemscore.Hbond>
3.0000

> <Gold.PLP.Chemscore.CHOScore>
0.0000

> <Gold.PLP.Chemscore.Metal>
0.0000

> <Gold.Chemscore.Hbonds>
donor molecule, donor type, donor heavy atom, donor atom, acceptor molecule, acceptor atom, score
      L1  H    24    48       P1  7948  2.00
      P1  H  7997  8009       L1     7  0.99

> <Gold.PLP.Chemscore.Internal.Correction>
0.0530

> <Gold.Rescore>
     Score         DG    S(hbond)    S(metal)    S(lipo)     H(rot)  DE(clash)    DE(int)     intcor
     15.35     -18.08       1.80        0.00     102.23       2.10       0.13       2.60       ----

> <Gold.Chemscore.Fitness>
15.3471

> <Gold.Chemscore.DG>
-18.0756

> <Gold.Chemscore.ZeroCoef>
-5.4800

> <Gold.Chemscore.Hbond>
1.7966

> <Gold.Chemscore.Metal>
0.0000

> <Gold.Chemscore.Lipo>
102.2254

> <Gold.Chemscore.Internal_Hbond>
0.0000

> <Gold.Chemscore.DEClash>
0.1328

> <Gold.Chemscore.DEInternal>
2.5957

> <Gold.Chemscore.Rot>
2.0959

> <Gold.Chemscore.Internal.Correction>
   9.000000E+99

> <Gold.Chemscore.Hbonds>
donor molecule, donor type, donor heavy atom, donor atom, acceptor molecule, acceptor atom, score
      L1  H    24    48       P1  7948  0.26
      P1  H  7997  8009       L1     7  0.37

> <Gold.Chemscore.Hbond.Weighted>
-6.0007

> <Gold.Chemscore.Metal.Weighted>
-0.0000

> <Gold.Chemscore.Lipo.Weighted>
-11.9604

> <Gold.Chemscore.Internal_Hbond.Weighted>
0.0000

> <Gold.Chemscore.DEClash.Weighted>
0.1328

> <Gold.Chemscore.DEInternal.Weighted>
2.5957

> <Gold.Chemscore.Rot.Weighted>
5.3655

> <Gold.Chemscore.Internal.Correction.Weighted>
   9.000000E+99

> <Gold.Protein.RotatedTorsions>
[ 6907 6896 6895 6894 ] final  -28.64 input  -60.11 | X-H torsion
[ 7974 7965 7964 7962 ] final   63.44 input  175.53 | X-H torsion
[ 8008 7997 7996 7995 ] final  156.43 input   59.86 | X-H torsion
[ 10167 10162 10161 10158 ] final   40.77 input  -65.29 | X-H torsion
[ 10718 10713 10712 10709 ] final   -6.75 input   66.30 | X-H torsion
[ 10763 10752 10751 10750 ] final  -78.05 input  -60.55 | X-H torsion
[ 11005 11000 10999 10996 ] final -177.89 input  -57.11 | X-H torsion

> <Gold.Protein.ActiveResidues>
 VAL166  LYS551  ARG553  GLY616  TRP617  ASP618  TYR619  PRO620  LYS621  CYS622 
 ASP623  PHE694  ASN695  SER759  ASP760  ASP761  ALA762  ILE779  LEU786  VAL792 
 PHE793  MET794  SER795  GLU796  ALA797  LYS798  CYS799  TRP800  GLU811  SER814 

> <Gold.Protein.RotatedAtoms>
  151.1301  135.0126  159.8578 H   0  0  0  0  0  0  0  0  0  0  0  0  # atno 6907 bound_to 6896
  152.5450  134.1620  159.8572 H   0  0  0  0  0  0  0  0  0  0  0  0  # atno 6908 bound_to 6896
  151.1686  133.4753  159.2627 H   0  0  0  0  0  0  0  0  0  0  0  0  # atno 6909 bound_to 6896
  145.8618  139.3319  143.0815 H   0  0  0  0  0  0  0  0  0  0  0  0  # atno 7974 bound_to 7965
  156.2422  140.1912  156.6955 H   0  0  0  0  0  0  0  0  0  0  0  0  # atno 8008 bound_to 7997
  154.6220  140.0607  156.9653 H   0  0  0  0  0  0  0  0  0  0  0  0  # atno 8009 bound_to 7997
  155.1846  140.3279  155.4371 H   0  0  0  0  0  0  0  0  0  0  0  0  # atno 8010 bound_to 7997
  140.3709  144.2106  150.6133 H   0  0  0  0  0  0  0  0  0  0  0  0  # atno 10167 bound_to 10162
  156.7274  130.5169  149.5853 H   0  0  0  0  0  0  0  0  0  0  0  0  # atno 10718 bound_to 10713
  154.5209  135.5743  153.6680 H   0  0  0  0  0  0  0  0  0  0  0  0  # atno 10763 bound_to 10752
  152.9917  135.6181  154.2755 H   0  0  0  0  0  0  0  0  0  0  0  0  # atno 10764 bound_to 10752
  154.2676  135.2854  155.2731 H   0  0  0  0  0  0  0  0  0  0  0  0  # atno 10765 bound_to 10752
  140.4358  134.6477  157.4734 H   0  0  0  0  0  0  0  0  0  0  0  0  # atno 11005 bound_to 11000
  145.9240  140.9095  143.0390 LP  0  0  0  0  0  0  0  0  0  0  0  0  # atno 17320 bound_to 7965
  144.6726  140.1327  143.7442 LP  0  0  0  0  0  0  0  0  0  0  0  0  # atno 17321 bound_to 7965
  140.5034  143.2311  151.8645 LP  0  0  0  0  0  0  0  0  0  0  0  0  # atno 17342 bound_to 10162
  139.4804  144.5033  151.9031 LP  0  0  0  0  0  0  0  0  0  0  0  0  # atno 17343 bound_to 10162
  156.1553  130.6337  151.0648 LP  0  0  0  0  0  0  0  0  0  0  0  0  # atno 17370 bound_to 10713
  157.6873  131.0821  150.7207 LP  0  0  0  0  0  0  0  0  0  0  0  0  # atno 17371 bound_to 10713
  140.0103  134.6701  155.9391 LP  0  0  0  0  0  0  0  0  0  0  0  0  # atno 17394 bound_to 11000
  141.1726  133.6538  156.4709 LP  0  0  0  0  0  0  0  0  0  0  0  0  # atno 17395 bound_to 11000

$$$$
