AV-unprocessed.smi:1535|AV-procd|sdf|6183|dock7
  -GOLD-   22720 6343D 1   1.00000     0.00000
 Structure written by MMmdl.
 47 48  0  0  0  0  0  0  0  0  2 V2000
  153.0259  142.6686  161.0175 C   0  0  0  0  0  0  0  0  0  0  0  0
  152.3699  142.3230  159.6921 C   0  0  0  0  0  0  0  0  0  0  0  0
  152.7768  141.1558  159.0074 C   0  0  0  0  0  0  0  0  0  0  0  0
  152.1912  140.7991  157.7732 C   0  0  0  0  0  0  0  0  0  0  0  0
  152.4318  139.7180  156.9429 N   0  0  0  0  0  0  0  0  0  0  0  0
  151.5746  139.9438  155.9521 C   0  0  0  0  0  0  0  0  0  0  0  0
  150.7935  141.0371  156.0501 N   0  0  0  0  0  0  0  0  0  0  0  0
  149.7799  141.4782  155.1089 C   0  0  0  0  0  0  0  0  0  0  0  0
  148.8082  140.3478  154.7157 C   0  0  1  0  0  0  0  0  0  0  0  0
  147.7459  140.9209  153.9806 O   0  0  0  0  0  0  0  0  0  0  0  0
  149.4574  139.2336  153.8671 C   0  0  0  0  0  0  0  0  0  0  0  0
  149.0240  137.8846  154.3134 N   0  3  2  0  0  0  0  0  0  0  0  0
  147.5502  137.7714  154.4207 C   0  0  0  0  0  0  0  0  0  0  0  0
  149.7079  137.4245  155.5484 C   0  0  0  0  0  0  0  0  0  0  0  0
  149.4056  135.9485  155.8742 C   0  0  1  0  0  0  0  0  0  0  0  0
  150.2299  134.9998  154.9950 C   0  0  0  0  0  0  0  0  0  0  0  0
  149.6226  135.6600  157.3012 C   0  0  0  0  0  0  0  0  0  0  0  0
  149.7909  135.4294  158.4217 N   0  0  0  0  0  0  0  0  0  0  0  0
  151.1771  141.6472  157.2398 C   0  0  0  0  0  0  0  0  0  0  0  0
  150.7669  142.8133  157.9096 C   0  0  0  0  0  0  0  0  0  0  0  0
  151.3636  143.1561  159.1407 C   0  0  0  0  0  0  0  0  0  0  0  0
  150.9144  144.4183  159.8553 C   0  0  0  0  0  0  0  0  0  0  0  0
  153.7580  141.9144  161.3081 H   0  0  0  0  0  0  0  0  0  0  0  0
  152.2791  142.7316  161.8092 H   0  0  0  0  0  0  0  0  0  0  0  0
  153.5412  143.6268  160.9493 H   0  0  0  0  0  0  0  0  0  0  0  0
  153.5456  140.5227  159.4261 H   0  0  0  0  0  0  0  0  0  0  0  0
  151.5026  139.2688  155.1118 H   0  0  0  0  0  0  0  0  0  0  0  0
  149.2345  142.3077  155.5617 H   0  0  0  0  0  0  0  0  0  0  0  0
  150.2782  141.8762  154.2235 H   0  0  0  0  0  0  0  0  0  0  0  0
  148.3848  139.9222  155.6251 H   0  0  0  0  0  0  0  0  0  0  0  0
  147.4640  140.3059  153.3201 H   0  0  0  0  0  0  0  0  0  0  0  0
  149.2083  139.4024  152.8196 H   0  0  0  0  0  0  0  0  0  0  0  0
  150.5460  139.2793  153.9173 H   0  0  0  0  0  0  0  0  0  0  0  0
  147.1682  138.3990  155.2270 H   0  0  0  0  0  0  0  0  0  0  0  0
  147.2571  136.7408  154.6237 H   0  0  0  0  0  0  0  0  0  0  0  0
  147.0588  138.0726  153.4957 H   0  0  0  0  0  0  0  0  0  0  0  0
  150.7822  137.5916  155.4556 H   0  0  0  0  0  0  0  0  0  0  0  0
  149.3734  138.0316  156.3913 H   0  0  0  0  0  0  0  0  0  0  0  0
  148.3535  135.7385  155.6861 H   0  0  0  0  0  0  0  0  0  0  0  0
  149.9886  133.9588  155.2114 H   0  0  0  0  0  0  0  0  0  0  0  0
  151.2989  135.1344  155.1622 H   0  0  0  0  0  0  0  0  0  0  0  0
  150.0321  135.1716  153.9366 H   0  0  0  0  0  0  0  0  0  0  0  0
  150.0007  143.4411  157.4796 H   0  0  0  0  0  0  0  0  0  0  0  0
  150.1617  144.9557  159.2779 H   0  0  0  0  0  0  0  0  0  0  0  0
  151.7580  145.0911  160.0107 H   0  0  0  0  0  0  0  0  0  0  0  0
  150.4819  144.1744  160.8257 H   0  0  0  0  0  0  0  0  0  0  0  0
  149.3052  137.2416  153.5862 H   0  0  0  0  0  0  0  0  0  0  0  0
  1  2  1  0  0  0  0
  1 23  1  0  0  0  0
  1 24  1  0  0  0  0
  1 25  1  0  0  0  0
  2 21  1  0  0  0  0
  2  3  2  0  0  0  0
  3  4  1  0  0  0  0
  3 26  1  0  0  0  0
  4 19  2  0  0  0  0
  4  5  1  0  0  0  0
  5  6  2  0  0  0  0
  6  7  1  0  0  0  0
  6 27  1  0  0  0  0
  7  8  1  0  0  0  0
  7 19  1  0  0  0  0
  8  9  1  0  0  0  0
  8 28  1  0  0  0  0
  8 29  1  0  0  0  0
  9 10  1  0  0  0  0
  9 11  1  0  0  0  0
  9 30  1  0  0  0  0
 10 31  1  0  0  0  0
 11 12  1  0  0  0  0
 11 32  1  0  0  0  0
 11 33  1  0  0  0  0
 12 13  1  0  0  0  0
 12 14  1  0  0  0  0
 12 47  1  0  0  0  0
 13 34  1  0  0  0  0
 13 35  1  0  0  0  0
 13 36  1  0  0  0  0
 14 15  1  0  0  0  0
 14 37  1  0  0  0  0
 14 38  1  0  0  0  0
 15 16  1  0  0  0  0
 15 17  1  0  0  0  0
 15 39  1  0  0  0  0
 16 40  1  0  0  0  0
 16 41  1  0  0  0  0
 16 42  1  0  0  0  0
 17 18  3  0  0  0  0
 19 20  1  0  0  0  0
 20 21  2  0  0  0  0
 20 43  1  0  0  0  0
 21 22  1  0  0  0  0
 22 44  1  0  0  0  0
 22 45  1  0  0  0  0
 22 46  1  0  0  0  0
M  CHG  1  12   1
M  END
> <s_m_source_file>
AV-unprocessed.smi

> <i_m_source_file_index>
1535

> <i_lp_mmshare_version>
43012

> <i_f3d_flags>
0

> <s_epik_input>
W0NIM11jKFtjSF0xKWMoW0NIM10pW2NIXWMoYzEyKW4oW2NIXW4yKVtDSDJdW0NASF0oW09IXSlbQ0gyXU4oW0NIM10pW0NIMl1bQ0BIXShbQ0gzXSlDI04=

> <s_epik_cmdline>
J2VwaWtfcHl0aG9uJywgJy1waCcsICc3LjAnLCAnLXRuJywgJzgnLCAnLW1hJywgJzIwMCcsICctbWV0YWxfYmluZGluZycsICctaW1hZScsICc8aW5maWxlLm1hZT4nLCAnLW9tYWUnLCAnPG91dGZpbGUubWFlPic=

> <r_epik_Ionization_Penalty>
2.21058

> <r_epik_Ionization_Penalty_Charging>
2.12381

> <r_epik_Ionization_Penalty_Neutral>
0.0867699

> <r_epik_State_Penalty>
2.36208

> <r_epik_Charging_Adjusted_Penalty>
4.48589

> <i_epik_Tot_Q>
1

> <i_epik_Tot_abs_Q>
1

> <r_epik_Metal_State_Penalty>
2.2818

> <b_epik_Metal_Only>
0

> <s_lp_Force_Field>
OPLS_2005

> <r_lp_Energy>
13.4259

> <b_lp_Chiralities_Consistent>
1

> <s_lp_Variant>
AV-unprocessed.smi:1535-14

> <Gold.Version>
5.8.1

> <Gold.Id.Protein>
6NUR|6NUR_protein|mol2

> <Gold.PLP.Fitness>
49.5207

> <Gold.PLP.PLP>
-39.4959

> <Gold.PLP.part.hbond>
-3.0000

> <Gold.PLP.part.metal>
0.0000

> <Gold.PLP.part.buried>
-2.7542

> <Gold.PLP.part.nonpolar>
-34.2219

> <Gold.PLP.part.repulsive>
0.0005

> <Gold.PLP.ligand.clash>
0.0000

> <Gold.PLP.ligand.torsion>
1.0564

> <Gold.PLP.Chemscore.Hbond>
4.0000

> <Gold.PLP.Chemscore.CHOScore>
0.0000

> <Gold.PLP.Chemscore.Metal>
0.0000

> <Gold.Chemscore.Hbonds>
donor molecule, donor type, donor heavy atom, donor atom, acceptor molecule, acceptor atom, score
      L1  H    12    47       P1  7948  2.00
      P1  H  6896  6907       L1    18  1.00
      P1  H  7997  8008       L1     5  0.94

> <Gold.PLP.Chemscore.Internal.Correction>
0.1376

> <Gold.Rescore>
     Score         DG    S(hbond)    S(metal)    S(lipo)     H(rot)  DE(clash)    DE(int)     intcor
     17.81     -19.55       2.58        0.00     103.49       2.60       0.78       0.96       ----

> <Gold.Chemscore.Fitness>
17.8093

> <Gold.Chemscore.DG>
-19.5466

> <Gold.Chemscore.ZeroCoef>
-5.4800

> <Gold.Chemscore.Hbond>
2.5814

> <Gold.Chemscore.Metal>
0.0000

> <Gold.Chemscore.Lipo>
103.4934

> <Gold.Chemscore.Internal_Hbond>
0.0000

> <Gold.Chemscore.DEClash>
0.7812

> <Gold.Chemscore.DEInternal>
0.9561

> <Gold.Chemscore.Rot>
2.6031

> <Gold.Chemscore.Internal.Correction>
   9.000000E+99

> <Gold.Chemscore.Hbonds>
donor molecule, donor type, donor heavy atom, donor atom, acceptor molecule, acceptor atom, score
      L1  H    12    47       P1  7948  0.92
      P1  H  6896  6907       L1    18  0.97
      P1  H  7997  8008       L1     5  0.18

> <Gold.Chemscore.Hbond.Weighted>
-8.6219

> <Gold.Chemscore.Metal.Weighted>
-0.0000

> <Gold.Chemscore.Lipo.Weighted>
-12.1087

> <Gold.Chemscore.Internal_Hbond.Weighted>
0.0000

> <Gold.Chemscore.DEClash.Weighted>
0.7812

> <Gold.Chemscore.DEInternal.Weighted>
0.9561

> <Gold.Chemscore.Rot.Weighted>
6.6640

> <Gold.Chemscore.Internal.Correction.Weighted>
   9.000000E+99

> <Gold.Protein.RotatedTorsions>
[ 6907 6896 6895 6894 ] final  -79.20 input  -60.11 | X-H torsion
[ 7974 7965 7964 7962 ] final  178.46 input  175.53 | X-H torsion
[ 8008 7997 7996 7995 ] final  -39.43 input   59.86 | X-H torsion
[ 10167 10162 10161 10158 ] final  135.58 input  -65.29 | X-H torsion
[ 10718 10713 10712 10709 ] final -131.18 input   66.30 | X-H torsion
[ 10763 10752 10751 10750 ] final  -63.97 input  -60.55 | X-H torsion
[ 11005 11000 10999 10996 ] final   47.01 input  -57.11 | X-H torsion

> <Gold.Protein.ActiveResidues>
 VAL166  LYS551  ARG553  GLY616  TRP617  ASP618  TYR619  PRO620  LYS621  CYS622 
 ASP623  PHE694  ASN695  SER759  ASP760  ASP761  ALA762  ILE779  LEU786  VAL792 
 PHE793  MET794  SER795  GLU796  ALA797  LYS798  CYS799  TRP800  GLU811  SER814 

> <Gold.Protein.RotatedAtoms>
  150.6955  134.4157  159.5181 H   0  0  0  0  0  0  0  0  0  0  0  0  # atno 6907 bound_to 6896
  152.1908  134.8671  160.0527 H   0  0  0  0  0  0  0  0  0  0  0  0  # atno 6908 bound_to 6896
  151.9626  133.3665  159.4078 H   0  0  0  0  0  0  0  0  0  0  0  0  # atno 6909 bound_to 6896
  144.7156  140.0401  143.6437 H   0  0  0  0  0  0  0  0  0  0  0  0  # atno 7974 bound_to 7965
  154.4023  140.1552  156.2862 H   0  0  0  0  0  0  0  0  0  0  0  0  # atno 8008 bound_to 7997
  155.8826  140.3443  155.5876 H   0  0  0  0  0  0  0  0  0  0  0  0  # atno 8009 bound_to 7997
  155.7650  140.0822  157.2127 H   0  0  0  0  0  0  0  0  0  0  0  0  # atno 8010 bound_to 7997
  139.5211  144.6509  151.5304 H   0  0  0  0  0  0  0  0  0  0  0  0  # atno 10167 bound_to 10162
  156.2218  130.6983  151.0764 H   0  0  0  0  0  0  0  0  0  0  0  0  # atno 10718 bound_to 10713
  154.3230  135.6192  153.5516 H   0  0  0  0  0  0  0  0  0  0  0  0  # atno 10763 bound_to 10752
  152.9818  135.5728  154.5048 H   0  0  0  0  0  0  0  0  0  0  0  0  # atno 10764 bound_to 10752
  154.4720  135.2859  155.1612 H   0  0  0  0  0  0  0  0  0  0  0  0  # atno 10765 bound_to 10752
  140.1318  134.4696  155.8516 H   0  0  0  0  0  0  0  0  0  0  0  0  # atno 11005 bound_to 11000
  146.0031  139.3107  143.0916 LP  0  0  0  0  0  0  0  0  0  0  0  0  # atno 17320 bound_to 7965
  145.8770  140.9385  143.0621 LP  0  0  0  0  0  0  0  0  0  0  0  0  # atno 17321 bound_to 7965
  140.6314  143.9069  150.6608 LP  0  0  0  0  0  0  0  0  0  0  0  0  # atno 17342 bound_to 10162
  140.2374  143.3689  152.1515 LP  0  0  0  0  0  0  0  0  0  0  0  0  # atno 17343 bound_to 10162
  157.7091  131.0742  150.6564 LP  0  0  0  0  0  0  0  0  0  0  0  0  # atno 17370 bound_to 10713
  156.6627  130.4517  149.5682 LP  0  0  0  0  0  0  0  0  0  0  0  0  # atno 17371 bound_to 10713
  141.2171  133.6799  156.7083 LP  0  0  0  0  0  0  0  0  0  0  0  0  # atno 17394 bound_to 11000
  140.2833  134.8299  157.3952 LP  0  0  0  0  0  0  0  0  0  0  0  0  # atno 17395 bound_to 11000

$$$$
