AV-unprocessed.smi:3089|AV-procd|sdf|11773|dock9
  -GOLD-   2272017153D 1   1.00000     0.00000
 Structure written by MMmdl.
 24 24  0  0  0  0  0  0  0  0  1 V2000
  153.9376  140.0427  159.8416 C   0  0  0  0  0  0  0  0  0  0  0  0
  153.4318  141.3372  160.2447 N   0  0  0  0  0  0  0  0  0  0  0  0
  152.5225  142.1451  159.5975 C   0  0  0  0  0  0  0  0  0  0  0  0
  152.3566  143.2727  160.3538 C   0  0  0  0  0  0  0  0  0  0  0  0
  151.4700  144.4697  160.0808 C   0  0  2  0  0  0  0  0  0  0  0  0
  152.3397  145.7041  159.7843 C   0  0  0  0  0  0  0  0  0  0  0  0
  150.6854  144.8253  161.2034 O   0  0  0  0  0  0  0  0  0  0  0  0
  150.4973  144.2145  158.9080 C   0  0  0  0  0  0  0  0  0  0  0  0
  151.1613  144.1312  157.5958 N   0  0  0  0  0  0  0  0  0  0  0  0
  153.2219  143.0457  161.4646 C   0  0  0  0  0  0  0  0  0  0  0  0
  153.8632  141.8904  161.3957 N   0  0  0  0  0  0  0  0  0  0  0  0
  153.4980  139.7499  158.8879 H   0  0  0  0  0  0  0  0  0  0  0  0
  153.6826  139.2956  160.5936 H   0  0  0  0  0  0  0  0  0  0  0  0
  155.0216  140.0878  159.7324 H   0  0  0  0  0  0  0  0  0  0  0  0
  152.0722  141.8563  158.6593 H   0  0  0  0  0  0  0  0  0  0  0  0
  152.9637  145.5487  158.9034 H   0  0  0  0  0  0  0  0  0  0  0  0
  153.0036  145.9321  160.6193 H   0  0  0  0  0  0  0  0  0  0  0  0
  151.7290  146.5884  159.5976 H   0  0  0  0  0  0  0  0  0  0  0  0
  149.8493  144.3905  161.1345 H   0  0  0  0  0  0  0  0  0  0  0  0
  149.9238  143.3054  159.0926 H   0  0  0  0  0  0  0  0  0  0  0  0
  149.7670  145.0236  158.8720 H   0  0  0  0  0  0  0  0  0  0  0  0
  151.6484  143.2409  157.5019 H   0  0  0  0  0  0  0  0  0  0  0  0
  150.4748  144.1781  156.8444 H   0  0  0  0  0  0  0  0  0  0  0  0
  153.4027  143.6858  162.3157 H   0  0  0  0  0  0  0  0  0  0  0  0
  1  2  1  0  0  0  0
  1 12  1  0  0  0  0
  1 13  1  0  0  0  0
  1 14  1  0  0  0  0
  2 11  1  0  0  0  0
  2  3  1  0  0  0  0
  3  4  2  0  0  0  0
  3 15  1  0  0  0  0
  4  5  1  0  0  0  0
  4 10  1  0  0  0  0
  5  6  1  0  0  0  0
  5  7  1  0  0  0  0
  5  8  1  0  0  0  0
  6 16  1  0  0  0  0
  6 17  1  0  0  0  0
  6 18  1  0  0  0  0
  7 19  1  0  0  0  0
  8  9  1  0  0  0  0
  8 20  1  0  0  0  0
  8 21  1  0  0  0  0
  9 22  1  0  0  0  0
  9 23  1  0  0  0  0
 10 11  2  0  0  0  0
 10 24  1  0  0  0  0
M  END
> <s_m_source_file>
AV-unprocessed.smi

> <i_m_source_file_index>
3089

> <i_lp_mmshare_version>
43012

> <i_f3d_flags>
0

> <s_epik_input>
W0NIM11uMVtjSF1jKFtjSF1uMSlbQ0BAXShbQ0gzXSkoW09IXSlbQ0gyXVtOSDJd

> <s_epik_cmdline>
J2VwaWtfcHl0aG9uJywgJy1waCcsICc3LjAnLCAnLXRuJywgJzgnLCAnLW1hJywgJzIwMCcsICctbWV0YWxfYmluZGluZycsICctaW1hZScsICc8aW5maWxlLm1hZT4nLCAnLW9tYWUnLCAnPG91dGZpbGUubWFlPic=

> <r_lp_tautomer_probability>
1

> <r_epik_Ionization_Penalty>
2.22427

> <r_epik_Ionization_Penalty_Charging>
0

> <r_epik_Ionization_Penalty_Neutral>
2.22427

> <r_epik_State_Penalty>
2.36938

> <r_epik_Charging_Adjusted_Penalty>
2.36938

> <i_epik_Tot_Q>
0

> <i_epik_Tot_abs_Q>
0

> <r_epik_Metal_State_Penalty>
2.36933

> <b_epik_Metal_Only>
0

> <s_lp_Force_Field>
OPLS_2005

> <r_lp_Energy>
8.30456

> <b_lp_Chiralities_Consistent>
1

> <s_lp_Variant>
AV-unprocessed.smi:3089-4

> <Gold.Version>
5.8.1

> <Gold.Id.Protein>
6NUR|6NUR_protein|mol2

> <Gold.PLP.Fitness>
34.0563

> <Gold.PLP.PLP>
-31.7613

> <Gold.PLP.part.hbond>
-3.4271

> <Gold.PLP.part.metal>
0.0000

> <Gold.PLP.part.buried>
-5.6540

> <Gold.PLP.part.nonpolar>
-22.3278

> <Gold.PLP.part.repulsive>
0.0000

> <Gold.PLP.ligand.clash>
0.0000

> <Gold.PLP.ligand.torsion>
0.3628

> <Gold.PLP.Chemscore.Hbond>
1.0000

> <Gold.PLP.Chemscore.CHOScore>
0.0000

> <Gold.PLP.Chemscore.Metal>
0.0000

> <Gold.Chemscore.Hbonds>
donor molecule, donor type, donor heavy atom, donor atom, acceptor molecule, acceptor atom, score
      L1  H     9    23       P1  8028  1.00

> <Gold.PLP.Chemscore.Internal.Correction>
0.0207

> <Gold.Rescore>
     Score         DG    S(hbond)    S(metal)    S(lipo)     H(rot)  DE(clash)    DE(int)     intcor
     12.38     -12.52       0.99        0.00      72.19       1.84       0.04       0.10       ----

> <Gold.Chemscore.Fitness>
12.3763

> <Gold.Chemscore.DG>
-12.5155

> <Gold.Chemscore.ZeroCoef>
-5.4800

> <Gold.Chemscore.Hbond>
0.9868

> <Gold.Chemscore.Metal>
0.0000

> <Gold.Chemscore.Lipo>
72.1929

> <Gold.Chemscore.Internal_Hbond>
0.0000

> <Gold.Chemscore.DEClash>
0.0402

> <Gold.Chemscore.DEInternal>
0.0990

> <Gold.Chemscore.Rot>
1.8386

> <Gold.Chemscore.Internal.Correction>
   9.000000E+99

> <Gold.Chemscore.Hbonds>
donor molecule, donor type, donor heavy atom, donor atom, acceptor molecule, acceptor atom, score
      L1  H     9    23       P1  8028  0.92

> <Gold.Chemscore.Hbond.Weighted>
-3.2959

> <Gold.Chemscore.Metal.Weighted>
-0.0000

> <Gold.Chemscore.Lipo.Weighted>
-8.4466

> <Gold.Chemscore.Internal_Hbond.Weighted>
0.0000

> <Gold.Chemscore.DEClash.Weighted>
0.0402

> <Gold.Chemscore.DEInternal.Weighted>
0.0990

> <Gold.Chemscore.Rot.Weighted>
4.7069

> <Gold.Chemscore.Internal.Correction.Weighted>
   9.000000E+99

> <Gold.Protein.RotatedTorsions>
[ 6907 6896 6895 6894 ] final  163.30 input  -60.11 | X-H torsion
[ 7974 7965 7964 7962 ] final  150.06 input  175.53 | X-H torsion
[ 8008 7997 7996 7995 ] final   -9.89 input   59.86 | X-H torsion
[ 10167 10162 10161 10158 ] final   20.62 input  -65.29 | X-H torsion
[ 10718 10713 10712 10709 ] final  -44.82 input   66.30 | X-H torsion
[ 10763 10752 10751 10750 ] final   35.23 input  -60.55 | X-H torsion
[ 11005 11000 10999 10996 ] final  113.91 input  -57.11 | X-H torsion

> <Gold.Protein.ActiveResidues>
 VAL166  LYS551  ARG553  GLY616  TRP617  ASP618  TYR619  PRO620  LYS621  CYS622 
 ASP623  PHE694  ASN695  SER759  ASP760  ASP761  ALA762  ILE779  LEU786  VAL792 
 PHE793  MET794  SER795  GLU796  ALA797  LYS798  CYS799  TRP800  GLU811  SER814 

> <Gold.Protein.RotatedAtoms>
  151.9273  133.3601  159.3917 H   0  0  0  0  0  0  0  0  0  0  0  0  # atno 6907 bound_to 6896
  150.7024  134.4574  159.5374 H   0  0  0  0  0  0  0  0  0  0  0  0  # atno 6908 bound_to 6896
  152.2208  134.8415  160.0537 H   0  0  0  0  0  0  0  0  0  0  0  0  # atno 6909 bound_to 6896
  144.8392  139.6359  143.6024 H   0  0  0  0  0  0  0  0  0  0  0  0  # atno 7974 bound_to 7965
  154.5605  140.2343  155.8343 H   0  0  0  0  0  0  0  0  0  0  0  0  # atno 8008 bound_to 7997
  156.2025  140.3048  155.9516 H   0  0  0  0  0  0  0  0  0  0  0  0  # atno 8009 bound_to 7997
  155.2898  140.0426  157.3012 H   0  0  0  0  0  0  0  0  0  0  0  0  # atno 8010 bound_to 7997
  140.5489  143.9544  150.6565 H   0  0  0  0  0  0  0  0  0  0  0  0  # atno 10167 bound_to 10162
  156.2346  130.4175  149.8833 H   0  0  0  0  0  0  0  0  0  0  0  0  # atno 10718 bound_to 10713
  153.0128  135.6339  154.1794 H   0  0  0  0  0  0  0  0  0  0  0  0  # atno 10763 bound_to 10752
  154.1536  135.2827  155.3130 H   0  0  0  0  0  0  0  0  0  0  0  0  # atno 10764 bound_to 10752
  154.6035  135.5579  153.7459 H   0  0  0  0  0  0  0  0  0  0  0  0  # atno 10765 bound_to 10752
  139.8966  134.9558  156.6811 H   0  0  0  0  0  0  0  0  0  0  0  0  # atno 11005 bound_to 11000
  146.2687  139.6582  142.9311 LP  0  0  0  0  0  0  0  0  0  0  0  0  # atno 17320 bound_to 7965
  145.4729  141.0436  143.2688 LP  0  0  0  0  0  0  0  0  0  0  0  0  # atno 17321 bound_to 7965
  140.2964  143.3289  152.1013 LP  0  0  0  0  0  0  0  0  0  0  0  0  # atno 17342 bound_to 10162
  139.5019  144.6723  151.6212 LP  0  0  0  0  0  0  0  0  0  0  0  0  # atno 17343 bound_to 10162
  156.6435  130.8714  151.3518 LP  0  0  0  0  0  0  0  0  0  0  0  0  # atno 17370 bound_to 10713
  157.7149  130.9484  150.1218 LP  0  0  0  0  0  0  0  0  0  0  0  0  # atno 17371 bound_to 10713
  140.7299  133.9068  155.8204 LP  0  0  0  0  0  0  0  0  0  0  0  0  # atno 17394 bound_to 11000
  141.0162  134.0953  157.4170 LP  0  0  0  0  0  0  0  0  0  0  0  0  # atno 17395 bound_to 11000

$$$$
