AV-unprocessed.smi:3225|AV-procd|sdf|12311|dock6
  -GOLD-   2272018153D 1   1.00000     0.00000
 Structure written by MMmdl.
 41 42  0  0  0  0  0  0  0  0  2 V2000
  151.1256  140.0673  155.7901 C   0  0  0  0  0  0  0  0  0  0  0  0
  150.9466  141.5314  156.2258 C   0  0  2  0  0  0  0  0  0  0  0  0
  150.7162  141.6688  157.7490 C   0  0  0  0  0  0  0  0  0  0  0  0
  150.9702  143.0100  158.2433 N   0  0  0  0  0  0  0  0  0  0  0  0
  151.8812  143.9380  157.7837 C   0  0  0  0  0  0  0  0  0  0  0  0
  151.7628  145.0470  158.5712 C   0  0  0  0  0  0  0  0  0  0  0  0
  150.7455  144.6949  159.5015 C   0  0  0  0  0  0  0  0  0  0  0  0
  150.2757  143.4733  159.3048 N   0  0  0  0  0  0  0  0  0  0  0  0
  149.8315  142.1366  155.4637 N   0  3  0  0  0  0  0  0  0  0  0  0
  148.5505  141.4022  155.5302 C   0  0  0  0  0  0  0  0  0  0  0  0
  147.5616  141.9272  154.4820 C   0  0  0  0  0  0  0  0  0  0  0  0
  146.1448  142.1046  155.0536 C   0  0  0  0  0  0  0  0  0  0  0  0
  145.4357  143.2080  154.4111 N   0  0  0  0  0  0  0  0  0  0  0  0
  145.7011  143.5532  153.0245 C   0  0  0  0  0  0  0  0  0  0  0  0
  144.9293  144.8590  152.7861 C   0  0  0  0  0  0  0  0  0  0  0  0
  143.9559  144.9867  153.9629 C   0  0  0  0  0  0  0  0  0  0  0  0
  144.4709  143.9585  154.9560 C   0  0  0  0  0  0  0  0  0  0  0  0
  144.0342  143.8576  156.1016 O   0  0  0  0  0  0  0  0  0  0  0  0
  151.9984  139.6124  156.2592 H   0  0  0  0  0  0  0  0  0  0  0  0
  151.2675  139.9942  154.7112 H   0  0  0  0  0  0  0  0  0  0  0  0
  150.2552  139.4653  156.0530 H   0  0  0  0  0  0  0  0  0  0  0  0
  151.8611  142.0619  155.9555 H   0  0  0  0  0  0  0  0  0  0  0  0
  149.6919  141.4082  158.0157 H   0  0  0  0  0  0  0  0  0  0  0  0
  151.3630  140.9764  158.2897 H   0  0  0  0  0  0  0  0  0  0  0  0
  152.5293  143.7360  156.9434 H   0  0  0  0  0  0  0  0  0  0  0  0
  152.3198  145.9692  158.4964 H   0  0  0  0  0  0  0  0  0  0  0  0
  150.3385  145.2852  160.3093 H   0  0  0  0  0  0  0  0  0  0  0  0
  149.6655  143.0573  155.8448 H   0  0  0  0  0  0  0  0  0  0  0  0
  148.7215  140.3382  155.3682 H   0  0  0  0  0  0  0  0  0  0  0  0
  148.1254  141.5128  156.5287 H   0  0  0  0  0  0  0  0  0  0  0  0
  147.9227  142.8793  154.0906 H   0  0  0  0  0  0  0  0  0  0  0  0
  147.5276  141.2379  153.6371 H   0  0  0  0  0  0  0  0  0  0  0  0
  145.5727  141.1851  154.9216 H   0  0  0  0  0  0  0  0  0  0  0  0
  146.1915  142.2851  156.1286 H   0  0  0  0  0  0  0  0  0  0  0  0
  146.7694  143.6742  152.8407 H   0  0  0  0  0  0  0  0  0  0  0  0
  145.3298  142.7567  152.3783 H   0  0  0  0  0  0  0  0  0  0  0  0
  145.6178  145.7050  152.7824 H   0  0  0  0  0  0  0  0  0  0  0  0
  144.4125  144.8533  151.8259 H   0  0  0  0  0  0  0  0  0  0  0  0
  143.9527  145.9900  154.3900 H   0  0  0  0  0  0  0  0  0  0  0  0
  142.9389  144.7272  153.6677 H   0  0  0  0  0  0  0  0  0  0  0  0
  150.1111  142.2369  154.4984 H   0  0  0  0  0  0  0  0  0  0  0  0
  1  2  1  0  0  0  0
  1 19  1  0  0  0  0
  1 20  1  0  0  0  0
  1 21  1  0  0  0  0
  2  3  1  0  0  0  0
  2  9  1  0  0  0  0
  2 22  1  0  0  0  0
  3  4  1  0  0  0  0
  3 23  1  0  0  0  0
  3 24  1  0  0  0  0
  4  8  1  0  0  0  0
  4  5  1  0  0  0  0
  5  6  2  0  0  0  0
  5 25  1  0  0  0  0
  6  7  1  0  0  0  0
  6 26  1  0  0  0  0
  7  8  2  0  0  0  0
  7 27  1  0  0  0  0
  9 10  1  0  0  0  0
  9 28  1  0  0  0  0
  9 41  1  0  0  0  0
 10 11  1  0  0  0  0
 10 29  1  0  0  0  0
 10 30  1  0  0  0  0
 11 12  1  0  0  0  0
 11 31  1  0  0  0  0
 11 32  1  0  0  0  0
 12 13  1  0  0  0  0
 12 33  1  0  0  0  0
 12 34  1  0  0  0  0
 13 17  1  0  0  0  0
 13 14  1  0  0  0  0
 14 15  1  0  0  0  0
 14 35  1  0  0  0  0
 14 36  1  0  0  0  0
 15 16  1  0  0  0  0
 15 37  1  0  0  0  0
 15 38  1  0  0  0  0
 16 17  1  0  0  0  0
 16 39  1  0  0  0  0
 16 40  1  0  0  0  0
 17 18  2  0  0  0  0
M  CHG  1   9   1
M  END
> <s_m_source_file>
AV-unprocessed.smi

> <i_m_source_file_index>
3225

> <i_lp_mmshare_version>
43012

> <i_f3d_flags>
0

> <s_epik_input>
bjFbY0hdW2NIXVtjSF1uMVtDSDJdW0NAQEhdKFtDSDNdKVtOSF1bQ0gyXVtDSDJdW0NIMl1OMltDSDJdW0NIMl1bQ0gyXUMyPU8=

> <s_epik_cmdline>
J2VwaWtfcHl0aG9uJywgJy1waCcsICc3LjAnLCAnLXRuJywgJzgnLCAnLW1hJywgJzIwMCcsICctbWV0YWxfYmluZGluZycsICctaW1hZScsICc8aW5maWxlLm1hZT4nLCAnLW9tYWUnLCAnPG91dGZpbGUubWFlPic=

> <r_lp_tautomer_probability>
1

> <r_epik_Ionization_Penalty>
0.00490443

> <r_epik_Ionization_Penalty_Charging>
0.00490019

> <r_epik_Ionization_Penalty_Neutral>
4.24076e-06

> <r_epik_State_Penalty>
0.00355741

> <r_epik_Charging_Adjusted_Penalty>
0.0084576

> <i_epik_Tot_Q>
1

> <i_epik_Tot_abs_Q>
1

> <r_epik_Metal_State_Penalty>
-0

> <b_epik_Metal_Only>
0

> <s_lp_Force_Field>
OPLS_2005

> <r_lp_Energy>
20.009

> <b_lp_Chiralities_Consistent>
1

> <s_lp_Variant>
AV-unprocessed.smi:3225-1

> <Gold.Version>
5.8.1

> <Gold.Id.Protein>
6NUR|6NUR_protein|mol2

> <Gold.PLP.Fitness>
46.9763

> <Gold.PLP.PLP>
-44.4068

> <Gold.PLP.part.hbond>
-1.2237

> <Gold.PLP.part.metal>
0.0000

> <Gold.PLP.part.buried>
-6.1213

> <Gold.PLP.part.nonpolar>
-37.5111

> <Gold.PLP.part.repulsive>
0.3369

> <Gold.PLP.ligand.clash>
0.0000

> <Gold.PLP.ligand.torsion>
1.4781

> <Gold.PLP.Chemscore.Hbond>
1.8240

> <Gold.PLP.Chemscore.CHOScore>
0.0000

> <Gold.PLP.Chemscore.Metal>
0.0000

> <Gold.Chemscore.Hbonds>
donor molecule, donor type, donor heavy atom, donor atom, acceptor molecule, acceptor atom, score
      L1  H     9    28       P1  8028  1.92

> <Gold.PLP.Chemscore.Internal.Correction>
0.0538

> <Gold.Rescore>
     Score         DG    S(hbond)    S(metal)    S(lipo)     H(rot)  DE(clash)    DE(int)     intcor
     12.95     -14.31       0.91        0.00      97.44       2.19       0.09       1.28       ----

> <Gold.Chemscore.Fitness>
12.9475

> <Gold.Chemscore.DG>
-14.3149

> <Gold.Chemscore.ZeroCoef>
-5.4800

> <Gold.Chemscore.Hbond>
0.9091

> <Gold.Chemscore.Metal>
0.0000

> <Gold.Chemscore.Lipo>
97.4418

> <Gold.Chemscore.Internal_Hbond>
0.0000

> <Gold.Chemscore.DEClash>
0.0873

> <Gold.Chemscore.DEInternal>
1.2800

> <Gold.Chemscore.Rot>
2.1884

> <Gold.Chemscore.Internal.Correction>
   9.000000E+99

> <Gold.Chemscore.Hbonds>
donor molecule, donor type, donor heavy atom, donor atom, acceptor molecule, acceptor atom, score
      L1  H     9    28       P1  8028  0.92

> <Gold.Chemscore.Hbond.Weighted>
-3.0365

> <Gold.Chemscore.Metal.Weighted>
-0.0000

> <Gold.Chemscore.Lipo.Weighted>
-11.4007

> <Gold.Chemscore.Internal_Hbond.Weighted>
0.0000

> <Gold.Chemscore.DEClash.Weighted>
0.0873

> <Gold.Chemscore.DEInternal.Weighted>
1.2800

> <Gold.Chemscore.Rot.Weighted>
5.6023

> <Gold.Chemscore.Internal.Correction.Weighted>
   9.000000E+99

> <Gold.Protein.RotatedTorsions>
[ 6907 6896 6895 6894 ] final   -7.67 input  -60.11 | X-H torsion
[ 7974 7965 7964 7962 ] final -100.14 input  175.53 | X-H torsion
[ 8008 7997 7996 7995 ] final  -77.31 input   59.86 | X-H torsion
[ 10167 10162 10161 10158 ] final -179.96 input  -65.29 | X-H torsion
[ 10718 10713 10712 10709 ] final -153.53 input   66.30 | X-H torsion
[ 10763 10752 10751 10750 ] final -101.43 input  -60.55 | X-H torsion
[ 11005 11000 10999 10996 ] final   -0.08 input  -57.11 | X-H torsion

> <Gold.Protein.ActiveResidues>
 VAL166  LYS551  ARG553  GLY616  TRP617  ASP618  TYR619  PRO620  LYS621  CYS622 
 ASP623  PHE694  ASN695  SER759  ASP760  ASP761  ALA762  ILE779  LEU786  VAL792 
 PHE793  MET794  SER795  GLU796  ALA797  LYS798  CYS799  TRP800  GLU811  SER814 

> <Gold.Protein.RotatedAtoms>
  151.4459  135.1025  159.9683 H   0  0  0  0  0  0  0  0  0  0  0  0  # atno 6907 bound_to 6896
  152.4906  133.8485  159.7200 H   0  0  0  0  0  0  0  0  0  0  0  0  # atno 6908 bound_to 6896
  150.9056  133.7003  159.2895 H   0  0  0  0  0  0  0  0  0  0  0  0  # atno 6909 bound_to 6896
  145.2985  140.9371  143.2837 H   0  0  0  0  0  0  0  0  0  0  0  0  # atno 7974 bound_to 7965
  154.5584  140.0712  156.8780 H   0  0  0  0  0  0  0  0  0  0  0  0  # atno 8008 bound_to 7997
  155.2857  140.3374  155.4237 H   0  0  0  0  0  0  0  0  0  0  0  0  # atno 8009 bound_to 7997
  156.2022  140.1726  156.7862 H   0  0  0  0  0  0  0  0  0  0  0  0  # atno 8010 bound_to 7997
  139.5363  144.2489  152.0801 H   0  0  0  0  0  0  0  0  0  0  0  0  # atno 10167 bound_to 10162
  156.4871  130.8330  151.2555 H   0  0  0  0  0  0  0  0  0  0  0  0  # atno 10718 bound_to 10713
  154.7657  135.4898  153.9549 H   0  0  0  0  0  0  0  0  0  0  0  0  # atno 10763 bound_to 10752
  153.1305  135.6751  153.9194 H   0  0  0  0  0  0  0  0  0  0  0  0  # atno 10764 bound_to 10752
  153.8899  135.3122  155.3426 H   0  0  0  0  0  0  0  0  0  0  0  0  # atno 10765 bound_to 10752
  140.6323  133.9564  155.8281 H   0  0  0  0  0  0  0  0  0  0  0  0  # atno 11005 bound_to 11000
  144.9113  139.4525  143.6585 LP  0  0  0  0  0  0  0  0  0  0  0  0  # atno 17320 bound_to 7965
  146.3160  139.7923  142.8983 LP  0  0  0  0  0  0  0  0  0  0  0  0  # atno 17321 bound_to 7965
  140.1960  144.4705  150.6455 LP  0  0  0  0  0  0  0  0  0  0  0  0  # atno 17342 bound_to 10162
  140.6571  143.2241  151.5944 LP  0  0  0  0  0  0  0  0  0  0  0  0  # atno 17343 bound_to 10162
  157.7477  131.0026  150.3005 LP  0  0  0  0  0  0  0  0  0  0  0  0  # atno 17370 bound_to 10713
  156.3463  130.3823  149.7366 LP  0  0  0  0  0  0  0  0  0  0  0  0  # atno 17371 bound_to 10713
  141.0666  134.0267  157.3585 LP  0  0  0  0  0  0  0  0  0  0  0  0  # atno 17394 bound_to 11000
  139.9111  135.0190  156.7696 LP  0  0  0  0  0  0  0  0  0  0  0  0  # atno 17395 bound_to 11000

$$$$
