AV-unprocessed.smi:447|AV-procd|sdf|2599|dock7
  -GOLD-   2262022593D 1   1.00000     0.00000
 Structure written by MMmdl.
 45 47  0  0  0  0  0  0  0  0  1 V2000
  153.2459  131.4977  156.7791 C   0  0  0  0  0  0  0  0  0  0  0  0
  151.7225  131.5619  156.7377 C   0  0  0  0  0  0  0  0  0  0  0  0
  151.1209  132.3012  157.5156 O   0  0  0  0  0  0  0  0  0  0  0  0
  151.1119  130.7879  155.8265 N   0  0  0  0  0  0  0  0  0  0  0  0
  149.6674  130.7163  155.6075 C   0  0  2  0  0  0  0  0  0  0  0  0
  148.9438  130.4791  156.9392 C   0  0  0  0  0  0  0  0  0  0  0  0
  149.3725  129.6267  154.6049 C   0  0  0  0  0  0  0  0  0  0  0  0
  149.8630  128.3896  154.7281 N   0  0  0  0  0  0  0  0  0  0  0  0
  149.3470  127.7414  153.6246 C   0  0  0  0  0  0  0  0  0  0  0  0
  149.5102  126.4087  153.1839 C   0  0  0  0  0  0  0  0  0  0  0  0
  148.8736  125.9630  152.0071 C   0  0  0  0  0  0  0  0  0  0  0  0
  148.0668  126.8422  151.2561 C   0  0  0  0  0  0  0  0  0  0  0  0
  147.8904  128.1738  151.6789 C   0  0  0  0  0  0  0  0  0  0  0  0
  148.5282  128.6136  152.8545 C   0  0  0  0  0  0  0  0  0  0  0  0
  148.5630  129.8284  153.5330 N   0  0  0  0  0  0  0  0  0  0  0  0
  147.8607  131.0457  153.1478 C   0  0  0  0  0  0  0  0  0  0  0  0
  146.3290  130.8699  153.1230 C   0  0  1  0  0  0  0  0  0  0  0  0
  145.8099  130.9652  154.4351 O   0  0  0  0  0  0  0  0  0  0  0  0
  145.6752  131.8579  152.1705 C   0  0  0  0  0  0  0  0  0  0  0  0
  144.8326  131.4071  151.1304 C   0  0  0  0  0  0  0  0  0  0  0  0
  144.2258  132.3317  150.2578 C   0  0  0  0  0  0  0  0  0  0  0  0
  144.4557  133.7111  150.4219 C   0  0  0  0  0  0  0  0  0  0  0  0
  145.2912  134.1660  151.4600 C   0  0  0  0  0  0  0  0  0  0  0  0
  145.8982  133.2422  152.3327 C   0  0  0  0  0  0  0  0  0  0  0  0
  153.6436  130.8712  155.9799 H   0  0  0  0  0  0  0  0  0  0  0  0
  153.5787  131.0885  157.7332 H   0  0  0  0  0  0  0  0  0  0  0  0
  153.6675  132.4970  156.6698 H   0  0  0  0  0  0  0  0  0  0  0  0
  151.6901  130.2209  155.2236 H   0  0  0  0  0  0  0  0  0  0  0  0
  149.3410  131.6805  155.2185 H   0  0  0  0  0  0  0  0  0  0  0  0
  147.8633  130.4532  156.7950 H   0  0  0  0  0  0  0  0  0  0  0  0
  149.1624  131.2744  157.6522 H   0  0  0  0  0  0  0  0  0  0  0  0
  149.2415  129.5326  157.3914 H   0  0  0  0  0  0  0  0  0  0  0  0
  150.1270  125.7285  153.7523 H   0  0  0  0  0  0  0  0  0  0  0  0
  149.0063  124.9425  151.6788 H   0  0  0  0  0  0  0  0  0  0  0  0
  147.5843  126.4944  150.3544 H   0  0  0  0  0  0  0  0  0  0  0  0
  147.2766  128.8511  151.1039 H   0  0  0  0  0  0  0  0  0  0  0  0
  148.1379  131.8416  153.8400 H   0  0  0  0  0  0  0  0  0  0  0  0
  148.2258  131.3645  152.1711 H   0  0  0  0  0  0  0  0  0  0  0  0
  146.0917  129.8650  152.7758 H   0  0  0  0  0  0  0  0  0  0  0  0
  145.1938  130.2603  154.5640 H   0  0  0  0  0  0  0  0  0  0  0  0
  144.6476  130.3509  150.9996 H   0  0  0  0  0  0  0  0  0  0  0  0
  143.5831  131.9824  149.4631 H   0  0  0  0  0  0  0  0  0  0  0  0
  143.9902  134.4200  149.7530 H   0  0  0  0  0  0  0  0  0  0  0  0
  145.4661  135.2242  151.5876 H   0  0  0  0  0  0  0  0  0  0  0  0
  146.5358  133.6005  153.1280 H   0  0  0  0  0  0  0  0  0  0  0  0
  1  2  1  0  0  0  0
  1 25  1  0  0  0  0
  1 26  1  0  0  0  0
  1 27  1  0  0  0  0
  2  3  2  0  0  0  0
  2  4  1  0  0  0  0
  4  5  1  0  0  0  0
  4 28  1  0  0  0  0
  5  6  1  0  0  0  0
  5  7  1  0  0  0  0
  5 29  1  0  0  0  0
  6 30  1  0  0  0  0
  6 31  1  0  0  0  0
  6 32  1  0  0  0  0
  7 15  1  0  0  0  0
  7  8  2  0  0  0  0
  8  9  1  0  0  0  0
  9 14  2  0  0  0  0
  9 10  1  0  0  0  0
 10 11  2  0  0  0  0
 10 33  1  0  0  0  0
 11 12  1  0  0  0  0
 11 34  1  0  0  0  0
 12 13  2  0  0  0  0
 12 35  1  0  0  0  0
 13 14  1  0  0  0  0
 13 36  1  0  0  0  0
 14 15  1  0  0  0  0
 15 16  1  0  0  0  0
 16 17  1  0  0  0  0
 16 37  1  0  0  0  0
 16 38  1  0  0  0  0
 17 18  1  0  0  0  0
 17 19  1  0  0  0  0
 17 39  1  0  0  0  0
 18 40  1  0  0  0  0
 19 24  1  0  0  0  0
 19 20  2  0  0  0  0
 20 21  1  0  0  0  0
 20 41  1  0  0  0  0
 21 22  2  0  0  0  0
 21 42  1  0  0  0  0
 22 23  1  0  0  0  0
 22 43  1  0  0  0  0
 23 24  2  0  0  0  0
 23 44  1  0  0  0  0
 24 45  1  0  0  0  0
M  END
> <s_m_source_file>
AV-unprocessed.smi

> <i_m_source_file_index>
447

> <i_lp_mmshare_version>
43012

> <i_f3d_flags>
0

> <s_epik_input>
W0NIM11DKD1PKVtOSF1bQ0BIXShbQ0gzXSljKG4xKW4oYyhjMTIpW2NIXVtjSF1bY0hdW2NIXTIpW0NIMl1bQ0BIXShbT0hdKWMzW2NIXVtjSF1bY0hdW2NIXVtjSF0z

> <s_epik_cmdline>
J2VwaWtfcHl0aG9uJywgJy1waCcsICc3LjAnLCAnLXRuJywgJzgnLCAnLW1hJywgJzIwMCcsICctbWV0YWxfYmluZGluZycsICctaW1hZScsICc8aW5maWxlLm1hZT4nLCAnLW9tYWUnLCAnPG91dGZpbGUubWFlPic=

> <r_epik_Ionization_Penalty>
0.13301

> <r_epik_Ionization_Penalty_Charging>
0

> <r_epik_Ionization_Penalty_Neutral>
0.13301

> <r_epik_State_Penalty>
0.122384

> <r_epik_Charging_Adjusted_Penalty>
0.122384

> <i_epik_Tot_Q>
0

> <i_epik_Tot_abs_Q>
0

> <r_epik_Metal_State_Penalty>
0.0997374

> <b_epik_Metal_Only>
0

> <s_lp_Force_Field>
OPLS_2005

> <r_lp_Energy>
6.23771

> <b_lp_Chiralities_Consistent>
1

> <s_lp_Variant>
AV-unprocessed.smi:447-3

> <Gold.Version>
5.8.1

> <Gold.Id.Protein>
6NUR|6NUR_protein|mol2

> <Gold.PLP.Fitness>
44.1598

> <Gold.PLP.PLP>
-39.4879

> <Gold.PLP.part.hbond>
-2.6086

> <Gold.PLP.part.metal>
0.0000

> <Gold.PLP.part.buried>
-2.7592

> <Gold.PLP.part.nonpolar>
-34.6705

> <Gold.PLP.part.repulsive>
0.0613

> <Gold.PLP.ligand.clash>
0.0000

> <Gold.PLP.ligand.torsion>
0.6132

> <Gold.PLP.Chemscore.Hbond>
1.9500

> <Gold.PLP.Chemscore.CHOScore>
0.0000

> <Gold.PLP.Chemscore.Metal>
0.0000

> <Gold.Chemscore.Hbonds>
donor molecule, donor type, donor heavy atom, donor atom, acceptor molecule, acceptor atom, score
      L1  H    18    40       P1 10956  0.96
      P1  H  6896  6909       L1     3  0.99

> <Gold.PLP.Chemscore.Internal.Correction>
0.0482

> <Gold.Rescore>
     Score         DG    S(hbond)    S(metal)    S(lipo)     H(rot)  DE(clash)    DE(int)     intcor
     13.75     -15.73       1.35        0.00     100.60       2.35       0.11       1.87       ----

> <Gold.Chemscore.Fitness>
13.7482

> <Gold.Chemscore.DG>
-15.7316

> <Gold.Chemscore.ZeroCoef>
-5.4800

> <Gold.Chemscore.Hbond>
1.3486

> <Gold.Chemscore.Metal>
0.0000

> <Gold.Chemscore.Lipo>
100.6012

> <Gold.Chemscore.Internal_Hbond>
0.0000

> <Gold.Chemscore.DEClash>
0.1088

> <Gold.Chemscore.DEInternal>
1.8746

> <Gold.Chemscore.Rot>
2.3528

> <Gold.Chemscore.Internal.Correction>
   9.000000E+99

> <Gold.Chemscore.Hbonds>
donor molecule, donor type, donor heavy atom, donor atom, acceptor molecule, acceptor atom, score
      L1  H    18    40       P1 10956  0.30
      P1  H  6896  6909       L1     3  0.92

> <Gold.Chemscore.Hbond.Weighted>
-4.5044

> <Gold.Chemscore.Metal.Weighted>
-0.0000

> <Gold.Chemscore.Lipo.Weighted>
-11.7703

> <Gold.Chemscore.Internal_Hbond.Weighted>
0.0000

> <Gold.Chemscore.DEClash.Weighted>
0.1088

> <Gold.Chemscore.DEInternal.Weighted>
1.8746

> <Gold.Chemscore.Rot.Weighted>
6.0231

> <Gold.Chemscore.Internal.Correction.Weighted>
   9.000000E+99

> <Gold.Protein.RotatedTorsions>
[ 6907 6896 6895 6894 ] final  -52.70 input  -60.11 | X-H torsion
[ 7974 7965 7964 7962 ] final  -60.38 input  175.53 | X-H torsion
[ 8008 7997 7996 7995 ] final  156.42 input   59.86 | X-H torsion
[ 10167 10162 10161 10158 ] final  132.64 input  -65.29 | X-H torsion
[ 10718 10713 10712 10709 ] final -135.73 input   66.30 | X-H torsion
[ 10763 10752 10751 10750 ] final   17.48 input  -60.55 | X-H torsion
[ 11005 11000 10999 10996 ] final   10.86 input  -57.11 | X-H torsion

> <Gold.Protein.ActiveResidues>
 VAL166  LYS551  ARG553  GLY616  TRP617  ASP618  TYR619  PRO620  LYS621  CYS622 
 ASP623  PHE694  ASN695  SER759  ASP760  ASP761  ALA762  ILE779  LEU786  VAL792 
 PHE793  MET794  SER795  GLU796  ALA797  LYS798  CYS799  TRP800  GLU811  SER814 

> <Gold.Protein.RotatedAtoms>
  150.8494  134.7813  159.6995 H   0  0  0  0  0  0  0  0  0  0  0  0  # atno 6907 bound_to 6896
  152.4562  134.5282  159.9813 H   0  0  0  0  0  0  0  0  0  0  0  0  # atno 6908 bound_to 6896
  151.5406  133.3395  159.2970 H   0  0  0  0  0  0  0  0  0  0  0  0  # atno 6909 bound_to 6896
  145.8161  140.8569  143.0156 H   0  0  0  0  0  0  0  0  0  0  0  0  # atno 7974 bound_to 7965
  156.2423  140.1913  156.6953 H   0  0  0  0  0  0  0  0  0  0  0  0  # atno 8008 bound_to 7997
  154.6221  140.0607  156.9655 H   0  0  0  0  0  0  0  0  0  0  0  0  # atno 8009 bound_to 7997
  155.1844  140.3279  155.4372 H   0  0  0  0  0  0  0  0  0  0  0  0  # atno 8010 bound_to 7997
  139.5331  144.6653  151.4881 H   0  0  0  0  0  0  0  0  0  0  0  0  # atno 10167 bound_to 10162
  156.2694  130.7256  151.1218 H   0  0  0  0  0  0  0  0  0  0  0  0  # atno 10718 bound_to 10713
  153.1335  135.6745  153.9139 H   0  0  0  0  0  0  0  0  0  0  0  0  # atno 10763 bound_to 10752
  153.8618  135.3080  155.3439 H   0  0  0  0  0  0  0  0  0  0  0  0  # atno 10764 bound_to 10752
  154.7728  135.4930  153.9765 H   0  0  0  0  0  0  0  0  0  0  0  0  # atno 10765 bound_to 10752
  140.5097  134.0664  155.7815 H   0  0  0  0  0  0  0  0  0  0  0  0  # atno 11005 bound_to 11000
  144.6752  140.0466  143.7480 LP  0  0  0  0  0  0  0  0  0  0  0  0  # atno 17320 bound_to 7965
  145.9725  139.2880  143.1090 LP  0  0  0  0  0  0  0  0  0  0  0  0  # atno 17321 bound_to 7965
  140.6521  143.8674  150.6797 LP  0  0  0  0  0  0  0  0  0  0  0  0  # atno 17342 bound_to 10162
  140.2042  143.3934  152.1768 LP  0  0  0  0  0  0  0  0  0  0  0  0  # atno 17343 bound_to 10162
  157.7278  131.0636  150.5847 LP  0  0  0  0  0  0  0  0  0  0  0  0  # atno 17370 bound_to 10713
  156.5942  130.4337  149.5924 LP  0  0  0  0  0  0  0  0  0  0  0  0  # atno 17371 bound_to 10713
  141.1392  133.9168  157.2365 LP  0  0  0  0  0  0  0  0  0  0  0  0  # atno 17394 bound_to 11000
  139.9666  135.0140  156.9402 LP  0  0  0  0  0  0  0  0  0  0  0  0  # atno 17395 bound_to 11000

$$$$
