AV-unprocessed.smi:38|AV-procd|sdf|347|dock7
  -GOLD-   2262016183D 1   1.00000     0.00000
 Structure written by MMmdl.
 27 28  0  0  0  0  0  0  0  0  2 V2000
  153.5731  139.5624  159.4820 O   0  0  0  0  0  0  0  0  0  0  0  0
  152.9564  139.4423  158.4243 C   0  0  0  0  0  0  0  0  0  0  0  0
  153.3674  138.6159  157.4196 N   0  5  0  0  0  0  0  0  0  0  0  0
  152.6804  138.4822  156.2472 C   0  0  0  0  0  0  0  0  0  0  0  0
  153.0443  137.7384  155.3358 O   0  0  0  0  0  0  0  0  0  0  0  0
  151.4851  139.2295  156.0592 N   0  0  0  0  0  0  0  0  0  0  0  0
  150.7274  139.0756  154.7546 C   0  0  1  0  0  0  0  0  0  0  0  0
  149.5071  138.1546  154.9393 C   0  0  0  0  0  0  0  0  0  0  0  0
  148.3606  138.9706  154.3695 C   0  0  2  0  0  0  0  0  0  0  0  0
  148.1512  138.6563  153.0053 O   0  0  0  0  0  0  0  0  0  0  0  0
  148.8491  140.4105  154.5642 C   0  0  2  0  0  0  0  0  0  0  0  0
  148.2092  141.4904  153.6742 C   0  0  0  0  0  0  0  0  0  0  0  0
  148.7446  142.7613  153.9777 O   0  0  0  0  0  0  0  0  0  0  0  0
  150.2498  140.3207  154.3301 O   0  0  0  0  0  0  0  0  0  0  0  0
  151.0477  140.0811  157.0614 C   0  0  0  0  0  0  0  0  0  0  0  0
  151.7301  140.2099  158.2177 C   0  0  0  0  0  0  0  0  0  0  0  0
  151.2796  141.0439  159.1709 F   0  0  0  0  0  0  0  0  0  0  0  0
  151.4568  138.7085  154.0306 H   0  0  0  0  0  0  0  0  0  0  0  0
  147.4302  138.7871  154.9077 H   0  0  0  0  0  0  0  0  0  0  0  0
  148.7093  140.6839  155.6114 H   0  0  0  0  0  0  0  0  0  0  0  0
  149.6595  137.1954  154.4428 H   0  0  0  0  0  0  0  0  0  0  0  0
  149.3410  137.9710  156.0020 H   0  0  0  0  0  0  0  0  0  0  0  0
  148.4289  137.7651  152.8588 H   0  0  0  0  0  0  0  0  0  0  0  0
  148.4136  141.2735  152.6254 H   0  0  0  0  0  0  0  0  0  0  0  0
  147.1251  141.5117  153.7865 H   0  0  0  0  0  0  0  0  0  0  0  0
  148.6232  142.9254  154.9004 H   0  0  0  0  0  0  0  0  0  0  0  0
  150.1477  140.6624  156.9337 H   0  0  0  0  0  0  0  0  0  0  0  0
  1  2  2  0  0  0  0
  2 16  1  0  0  0  0
  2  3  1  0  0  0  0
  3  4  1  0  0  0  0
  4  5  2  0  0  0  0
  4  6  1  0  0  0  0
  6  7  1  0  0  0  0
  6 15  1  0  0  0  0
  7 18  1  0  0  0  0
  7 14  1  0  0  0  0
  7  8  1  0  0  0  0
  8  9  1  0  0  0  0
  8 21  1  0  0  0  0
  8 22  1  0  0  0  0
  9 19  1  0  0  0  0
  9 10  1  0  0  0  0
  9 11  1  0  0  0  0
 10 23  1  0  0  0  0
 11 20  1  0  0  0  0
 11 12  1  0  0  0  0
 11 14  1  0  0  0  0
 12 13  1  0  0  0  0
 12 24  1  0  0  0  0
 12 25  1  0  0  0  0
 13 26  1  0  0  0  0
 15 16  2  0  0  0  0
 15 27  1  0  0  0  0
 16 17  1  0  0  0  0
M  CHG  1   3  -1
M  END
> <s_m_source_file>
AV-unprocessed.smi

> <i_m_source_file_index>
38

> <i_lp_mmshare_version>
43012

> <i_f3d_flags>
0

> <s_epik_input>
Tz1jMVtuSF1jKD1PKW4oW2NIXWMxRilbQ0BIXTJbQ0gyXVtDQEhdKFtPSF0pW0NASF0oTzIpW0NIMl1bT0hd

> <s_epik_cmdline>
J2VwaWtfcHl0aG9uJywgJy1waCcsICc3LjAnLCAnLXRuJywgJzgnLCAnLW1hJywgJzIwMCcsICctbWV0YWxfYmluZGluZycsICctaW1hZScsICc8aW5maWxlLm1hZT4nLCAnLW9tYWUnLCAnPG91dGZpbGUubWFlPic=

> <r_epik_Ionization_Penalty>
1.68146

> <r_epik_Ionization_Penalty_Charging>
3.4211e-08

> <r_epik_Ionization_Penalty_Neutral>
1.68146

> <r_epik_State_Penalty>
1.78593

> <r_epik_Charging_Adjusted_Penalty>
1.78593

> <i_epik_Tot_Q>
-1

> <i_epik_Tot_abs_Q>
1

> <r_epik_Metal_State_Penalty>
0.0113696

> <b_epik_Metal_Only>
0

> <s_epik_Chemistry_Notes>
This compound contains an acetal/aminal-like group ( X-CH(R)-Y where X, Y are N, S, or O) that may be acid/base labile, releasing an aldehyde.

> <s_lp_Force_Field>
OPLS_2005

> <r_lp_Energy>
41.2479

> <b_lp_Chiralities_Consistent>
1

> <s_lp_Variant>
AV-unprocessed.smi:38-13

> <Gold.Version>
5.8.1

> <Gold.Id.Protein>
6NUR|6NUR_protein|mol2

> <Gold.PLP.Fitness>
38.6587

> <Gold.PLP.PLP>
-29.4859

> <Gold.PLP.part.hbond>
-7.6996

> <Gold.PLP.part.metal>
0.0000

> <Gold.PLP.part.buried>
-1.8304

> <Gold.PLP.part.nonpolar>
-19.7520

> <Gold.PLP.part.repulsive>
0.1515

> <Gold.PLP.ligand.clash>
0.0000

> <Gold.PLP.ligand.torsion>
0.5384

> <Gold.PLP.Chemscore.Hbond>
3.4154

> <Gold.PLP.Chemscore.CHOScore>
0.0000

> <Gold.PLP.Chemscore.Metal>
0.0000

> <Gold.Chemscore.Hbonds>
donor molecule, donor type, donor heavy atom, donor atom, acceptor molecule, acceptor atom, score
      L1  H    10    23       P1  7948  1.00
      L1  H    13    26       P1  8028  0.40
      P1  H  7989  7998       L1    14  0.99
      P1  H  7997  8008       L1     3  0.42
      P1  H  8022  8030       L1    13  0.50
      P1  H 10752 10764       L1     5  0.13

> <Gold.PLP.Chemscore.Internal.Correction>
0.0034

> <Gold.Rescore>
     Score         DG    S(hbond)    S(metal)    S(lipo)     H(rot)  DE(clash)    DE(int)     intcor
      8.55      -9.32       2.18        0.00      33.63       2.88       0.03       0.75       ----

> <Gold.Chemscore.Fitness>
8.5479

> <Gold.Chemscore.DG>
-9.3226

> <Gold.Chemscore.ZeroCoef>
-5.4800

> <Gold.Chemscore.Hbond>
2.1809

> <Gold.Chemscore.Metal>
0.0000

> <Gold.Chemscore.Lipo>
33.6331

> <Gold.Chemscore.Internal_Hbond>
0.0000

> <Gold.Chemscore.DEClash>
0.0272

> <Gold.Chemscore.DEInternal>
0.7475

> <Gold.Chemscore.Rot>
2.8815

> <Gold.Chemscore.Internal.Correction>
   9.000000E+99

> <Gold.Chemscore.Hbonds>
donor molecule, donor type, donor heavy atom, donor atom, acceptor molecule, acceptor atom, score
      L1  H    10    23       P1  7948  0.98
      L1  H    13    26       P1  8028  0.40
      P1  H  7989  7998       L1    14  0.24
      P1  H  8022  8030       L1    13  0.02
      P1  H 10752 10764       L1     5  0.13

> <Gold.Chemscore.Hbond.Weighted>
-7.2841

> <Gold.Chemscore.Metal.Weighted>
-0.0000

> <Gold.Chemscore.Lipo.Weighted>
-3.9351

> <Gold.Chemscore.Internal_Hbond.Weighted>
0.0000

> <Gold.Chemscore.DEClash.Weighted>
0.0272

> <Gold.Chemscore.DEInternal.Weighted>
0.7475

> <Gold.Chemscore.Rot.Weighted>
7.3765

> <Gold.Chemscore.Internal.Correction.Weighted>
   9.000000E+99

> <Gold.Protein.RotatedTorsions>
[ 6907 6896 6895 6894 ] final  116.79 input  -60.11 | X-H torsion
[ 7974 7965 7964 7962 ] final   89.99 input  175.53 | X-H torsion
[ 8008 7997 7996 7995 ] final  -56.63 input   59.86 | X-H torsion
[ 10167 10162 10161 10158 ] final  -19.01 input  -65.29 | X-H torsion
[ 10718 10713 10712 10709 ] final -124.64 input   66.30 | X-H torsion
[ 10763 10752 10751 10750 ] final  -63.37 input  -60.55 | X-H torsion
[ 11005 11000 10999 10996 ] final   29.27 input  -57.11 | X-H torsion

> <Gold.Protein.ActiveResidues>
 VAL166  LYS551  ARG553  GLY616  TRP617  ASP618  TYR619  PRO620  LYS621  CYS622 
 ASP623  PHE694  ASN695  SER759  ASP760  ASP761  ALA762  ILE779  LEU786  VAL792 
 PHE793  MET794  SER795  GLU796  ALA797  LYS798  CYS799  TRP800  GLU811  SER814 

> <Gold.Protein.RotatedAtoms>
  152.4655  133.7913  159.6903 H   0  0  0  0  0  0  0  0  0  0  0  0  # atno 6907 bound_to 6896
  150.8617  133.7624  159.2996 H   0  0  0  0  0  0  0  0  0  0  0  0  # atno 6908 bound_to 6896
  151.5187  135.1070  159.9925 H   0  0  0  0  0  0  0  0  0  0  0  0  # atno 6909 bound_to 6896
  145.5250  139.2281  143.2650 H   0  0  0  0  0  0  0  0  0  0  0  0  # atno 7974 bound_to 7965
  154.4237  140.1125  156.5668 H   0  0  0  0  0  0  0  0  0  0  0  0  # atno 8008 bound_to 7997
  155.6253  140.3495  155.4646 H   0  0  0  0  0  0  0  0  0  0  0  0  # atno 8009 bound_to 7997
  155.9991  140.1195  157.0554 H   0  0  0  0  0  0  0  0  0  0  0  0  # atno 8010 bound_to 7997
  140.7264  143.4860  151.0054 H   0  0  0  0  0  0  0  0  0  0  0  0  # atno 10167 bound_to 10162
  156.1605  130.6598  151.0043 H   0  0  0  0  0  0  0  0  0  0  0  0  # atno 10718 bound_to 10713
  154.3140  135.6210  153.5478 H   0  0  0  0  0  0  0  0  0  0  0  0  # atno 10763 bound_to 10752
  152.9826  135.5708  154.5145 H   0  0  0  0  0  0  0  0  0  0  0  0  # atno 10764 bound_to 10752
  154.4800  135.2863  155.1554 H   0  0  0  0  0  0  0  0  0  0  0  0  # atno 10765 bound_to 10752
  140.3067  134.2695  155.7742 H   0  0  0  0  0  0  0  0  0  0  0  0  # atno 11005 bound_to 11000
  146.2081  140.6064  142.9072 LP  0  0  0  0  0  0  0  0  0  0  0  0  # atno 17320 bound_to 7965
  144.7656  140.5522  143.6705 LP  0  0  0  0  0  0  0  0  0  0  0  0  # atno 17321 bound_to 7965
  139.8562  143.7374  152.3176 LP  0  0  0  0  0  0  0  0  0  0  0  0  # atno 17342 bound_to 10162
  139.7573  144.7517  151.0416 LP  0  0  0  0  0  0  0  0  0  0  0  0  # atno 17343 bound_to 10162
  157.6729  131.0857  150.7568 LP  0  0  0  0  0  0  0  0  0  0  0  0  # atno 17370 bound_to 10713
  156.7631  130.4805  149.5433 LP  0  0  0  0  0  0  0  0  0  0  0  0  # atno 17371 bound_to 10713
  141.2117  133.7682  156.9848 LP  0  0  0  0  0  0  0  0  0  0  0  0  # atno 17394 bound_to 11000
  140.1060  134.9506  157.1995 LP  0  0  0  0  0  0  0  0  0  0  0  0  # atno 17395 bound_to 11000

$$$$
