AV-unprocessed.smi:1380|AV-procd|sdf|5601|dock10
  -GOLD-   22720 5213D 1   1.00000     0.00000
 Structure written by MMmdl.
 34 35  0  0  0  0  0  0  0  0  2 V2000
  142.7956  136.0056  153.0597 O   0  0  0  0  0  0  0  0  0  0  0  0
  143.1644  137.1668  152.8851 C   0  0  0  0  0  0  0  0  0  0  0  0
  144.3237  137.5046  152.3034 N   0  0  0  0  0  0  0  0  0  0  0  0
  145.3116  136.5569  151.7949 C   0  0  0  0  0  0  0  0  0  0  0  0
  144.7942  135.7160  150.6099 C   0  0  0  0  0  0  0  0  0  0  0  0
  145.0662  134.2285  150.7538 C   0  0  0  0  0  0  0  0  0  0  0  0
  143.9980  133.3119  150.8667 C   0  0  0  0  0  0  0  0  0  0  0  0
  144.2784  131.9354  150.9955 C   0  0  0  0  0  0  0  0  0  0  0  0
  145.6217  131.5071  151.0089 C   0  0  0  0  0  0  0  0  0  0  0  0
  146.6179  132.4134  150.8988 N   0  3  0  0  0  0  0  0  0  0  0  0
  146.3910  133.7394  150.7746 C   0  0  0  0  0  0  0  0  0  0  0  0
  142.4659  138.2435  153.2694 N   0  0  0  0  0  0  0  0  0  0  0  0
  141.1883  138.1962  153.9683 C   0  0  0  0  0  0  0  0  0  0  0  0
  139.9889  137.9079  153.0853 C   0  0  0  0  0  0  0  0  0  0  0  0
  138.7669  138.7969  153.1097 C   0  0  0  0  0  0  0  0  0  0  0  0
  138.6989  137.4058  153.6905 C   0  0  0  0  0  0  0  0  0  0  0  0
  144.5376  138.4860  152.2012 H   0  0  0  0  0  0  0  0  0  0  0  0
  146.2247  137.0847  151.5149 H   0  0  0  0  0  0  0  0  0  0  0  0
  145.5800  135.8955  152.6189 H   0  0  0  0  0  0  0  0  0  0  0  0
  143.7208  135.8677  150.4885 H   0  0  0  0  0  0  0  0  0  0  0  0
  145.2495  136.0700  149.6844 H   0  0  0  0  0  0  0  0  0  0  0  0
  142.9748  133.6586  150.8533 H   0  0  0  0  0  0  0  0  0  0  0  0
  143.4744  131.2192  151.0829 H   0  0  0  0  0  0  0  0  0  0  0  0
  145.9271  130.4751  151.1034 H   0  0  0  0  0  0  0  0  0  0  0  0
  147.2692  134.3635  150.6904 H   0  0  0  0  0  0  0  0  0  0  0  0
  142.8479  139.1580  153.0772 H   0  0  0  0  0  0  0  0  0  0  0  0
  141.2526  137.4092  154.7199 H   0  0  0  0  0  0  0  0  0  0  0  0
  141.0273  139.1271  154.5149 H   0  0  0  0  0  0  0  0  0  0  0  0
  140.2499  137.4747  152.1214 H   0  0  0  0  0  0  0  0  0  0  0  0
  138.7595  139.6320  153.8072 H   0  0  0  0  0  0  0  0  0  0  0  0
  138.2577  138.9750  152.1649 H   0  0  0  0  0  0  0  0  0  0  0  0
  138.1404  136.6558  153.1342 H   0  0  0  0  0  0  0  0  0  0  0  0
  138.6459  137.3182  154.7740 H   0  0  0  0  0  0  0  0  0  0  0  0
  147.5830  132.0824  150.9107 H   0  0  0  0  0  0  0  0  0  0  0  0
  1  2  2  0  0  0  0
  2  3  1  0  0  0  0
  2 12  1  0  0  0  0
  3  4  1  0  0  0  0
  3 17  1  0  0  0  0
  4  5  1  0  0  0  0
  4 18  1  0  0  0  0
  4 19  1  0  0  0  0
  5  6  1  0  0  0  0
  5 20  1  0  0  0  0
  5 21  1  0  0  0  0
  6 11  1  0  0  0  0
  6  7  2  0  0  0  0
  7  8  1  0  0  0  0
  7 22  1  0  0  0  0
  8  9  2  0  0  0  0
  8 23  1  0  0  0  0
  9 10  1  0  0  0  0
  9 24  1  0  0  0  0
 10 11  2  0  0  0  0
 10 34  1  0  0  0  0
 11 25  1  0  0  0  0
 12 13  1  0  0  0  0
 12 26  1  0  0  0  0
 13 14  1  0  0  0  0
 13 27  1  0  0  0  0
 13 28  1  0  0  0  0
 14 16  1  0  0  0  0
 14 15  1  0  0  0  0
 14 29  1  0  0  0  0
 15 16  1  0  0  0  0
 15 30  1  0  0  0  0
 15 31  1  0  0  0  0
 16 32  1  0  0  0  0
 16 33  1  0  0  0  0
M  CHG  1  10   1
M  END
> <s_m_source_file>
AV-unprocessed.smi

> <i_m_source_file_index>
1380

> <i_lp_mmshare_version>
43012

> <i_f3d_flags>
0

> <s_epik_input>
W0NIMl0xW0NIMl1bQ0hdMVtDSDJdW05IXUMoPU8pW05IXVtDSDJdW0NIMl1jMltjSF1bY0hdW2NIXW5bY0hdMg==

> <s_epik_cmdline>
J2VwaWtfcHl0aG9uJywgJy1waCcsICc3LjAnLCAnLXRuJywgJzgnLCAnLW1hJywgJzIwMCcsICctbWV0YWxfYmluZGluZycsICctaW1hZScsICc8aW5maWxlLm1hZT4nLCAnLW9tYWUnLCAnPG91dGZpbGUubWFlPic=

> <r_epik_Ionization_Penalty>
2.21218

> <r_epik_Ionization_Penalty_Charging>
2.21212

> <r_epik_Ionization_Penalty_Neutral>
5.76468e-05

> <r_epik_State_Penalty>
2.35642

> <r_epik_Charging_Adjusted_Penalty>
4.56854

> <i_epik_Tot_Q>
1

> <i_epik_Tot_abs_Q>
1

> <r_epik_Metal_State_Penalty>
2.37048

> <b_epik_Metal_Only>
0

> <s_lp_Force_Field>
OPLS_2005

> <r_lp_Energy>
16.6962

> <b_lp_Chiralities_Consistent>
1

> <s_lp_Variant>
AV-unprocessed.smi:1380-2

> <Gold.Version>
5.8.1

> <Gold.Id.Protein>
6NUR|6NUR_protein|mol2

> <Gold.PLP.Fitness>
42.1830

> <Gold.PLP.PLP>
-35.7642

> <Gold.PLP.part.hbond>
-4.0000

> <Gold.PLP.part.metal>
0.0000

> <Gold.PLP.part.buried>
-5.3162

> <Gold.PLP.part.nonpolar>
-27.1051

> <Gold.PLP.part.repulsive>
0.2460

> <Gold.PLP.ligand.clash>
0.0000

> <Gold.PLP.ligand.torsion>
0.9435

> <Gold.PLP.Chemscore.Hbond>
2.5814

> <Gold.PLP.Chemscore.CHOScore>
0.0000

> <Gold.PLP.Chemscore.Metal>
0.0000

> <Gold.Chemscore.Hbonds>
donor molecule, donor type, donor heavy atom, donor atom, acceptor molecule, acceptor atom, score
      L1  H     3    17       P1 10175  0.57
      L1  H    10    34       P1 10747  1.00
      L1  H    12    26       P1 10175  1.00

> <Gold.PLP.Chemscore.Internal.Correction>
0.5617

> <Gold.Rescore>
     Score         DG    S(hbond)    S(metal)    S(lipo)     H(rot)  DE(clash)    DE(int)     intcor
     18.39     -20.03       2.75        0.00      85.32       1.80       0.76       0.89       ----

> <Gold.Chemscore.Fitness>
18.3866

> <Gold.Chemscore.DG>
-20.0270

> <Gold.Chemscore.ZeroCoef>
-5.4800

> <Gold.Chemscore.Hbond>
2.7500

> <Gold.Chemscore.Metal>
0.0000

> <Gold.Chemscore.Lipo>
85.3168

> <Gold.Chemscore.Internal_Hbond>
0.0000

> <Gold.Chemscore.DEClash>
0.7553

> <Gold.Chemscore.DEInternal>
0.8852

> <Gold.Chemscore.Rot>
1.8047

> <Gold.Chemscore.Internal.Correction>
   9.000000E+99

> <Gold.Chemscore.Hbonds>
donor molecule, donor type, donor heavy atom, donor atom, acceptor molecule, acceptor atom, score
      L1  H     3    17       P1 10175  0.56
      L1  H    10    34       P1 10747  0.94
      L1  H    12    26       P1 10175  0.99

> <Gold.Chemscore.Hbond.Weighted>
-9.1849

> <Gold.Chemscore.Metal.Weighted>
-0.0000

> <Gold.Chemscore.Lipo.Weighted>
-9.9821

> <Gold.Chemscore.Internal_Hbond.Weighted>
0.0000

> <Gold.Chemscore.DEClash.Weighted>
0.7553

> <Gold.Chemscore.DEInternal.Weighted>
0.8852

> <Gold.Chemscore.Rot.Weighted>
4.6199

> <Gold.Chemscore.Internal.Correction.Weighted>
   9.000000E+99

> <Gold.Protein.RotatedTorsions>
[ 6907 6896 6895 6894 ] final   46.41 input  -60.11 | X-H torsion
[ 7974 7965 7964 7962 ] final -166.92 input  175.53 | X-H torsion
[ 8008 7997 7996 7995 ] final  142.09 input   59.86 | X-H torsion
[ 10167 10162 10161 10158 ] final  -53.45 input  -65.29 | X-H torsion
[ 10718 10713 10712 10709 ] final  -69.66 input   66.30 | X-H torsion
[ 10763 10752 10751 10750 ] final -122.14 input  -60.55 | X-H torsion
[ 11005 11000 10999 10996 ] final  -49.86 input  -57.11 | X-H torsion

> <Gold.Protein.ActiveResidues>
 VAL166  LYS551  ARG553  GLY616  TRP617  ASP618  TYR619  PRO620  LYS621  CYS622 
 ASP623  PHE694  ASN695  SER759  ASP760  ASP761  ALA762  ILE779  LEU786  VAL792 
 PHE793  MET794  SER795  GLU796  ALA797  LYS798  CYS799  TRP800  GLU811  SER814 

> <Gold.Protein.RotatedAtoms>
  152.2561  134.8083  160.0438 H   0  0  0  0  0  0  0  0  0  0  0  0  # atno 6907 bound_to 6896
  151.8746  133.3477  159.3754 H   0  0  0  0  0  0  0  0  0  0  0  0  # atno 6908 bound_to 6896
  150.7100  134.5006  159.5604 H   0  0  0  0  0  0  0  0  0  0  0  0  # atno 6909 bound_to 6896
  144.7234  140.2595  143.6267 H   0  0  0  0  0  0  0  0  0  0  0  0  # atno 7974 bound_to 7965
  156.2955  140.2298  156.4672 H   0  0  0  0  0  0  0  0  0  0  0  0  # atno 8008 bound_to 7997
  154.7967  140.0451  157.1263 H   0  0  0  0  0  0  0  0  0  0  0  0  # atno 8009 bound_to 7997
  154.9581  140.3051  155.5047 H   0  0  0  0  0  0  0  0  0  0  0  0  # atno 8010 bound_to 7997
  140.6484  143.2550  151.4794 H   0  0  0  0  0  0  0  0  0  0  0  0  # atno 10167 bound_to 10162
  156.0444  130.4317  150.2181 H   0  0  0  0  0  0  0  0  0  0  0  0  # atno 10718 bound_to 10713
  154.8683  135.4143  154.2734 H   0  0  0  0  0  0  0  0  0  0  0  0  # atno 10763 bound_to 10752
  153.3640  135.7004  153.6696 H   0  0  0  0  0  0  0  0  0  0  0  0  # atno 10764 bound_to 10752
  153.5585  135.3614  155.2761 H   0  0  0  0  0  0  0  0  0  0  0  0  # atno 10765 bound_to 10752
  141.0783  133.6660  156.3647 H   0  0  0  0  0  0  0  0  0  0  0  0  # atno 11005 bound_to 11000
  145.8150  139.2019  143.1971 LP  0  0  0  0  0  0  0  0  0  0  0  0  # atno 17320 bound_to 7965
  146.0563  140.8017  142.9756 LP  0  0  0  0  0  0  0  0  0  0  0  0  # atno 17321 bound_to 7965
  139.5696  144.1959  152.1817 LP  0  0  0  0  0  0  0  0  0  0  0  0  # atno 17342 bound_to 10162
  140.1251  144.5338  150.6837 LP  0  0  0  0  0  0  0  0  0  0  0  0  # atno 17343 bound_to 10162
  157.0273  130.9997  151.3322 LP  0  0  0  0  0  0  0  0  0  0  0  0  # atno 17370 bound_to 10713
  157.5302  130.8054  149.7908 LP  0  0  0  0  0  0  0  0  0  0  0  0  # atno 17371 bound_to 10713
  140.5524  134.6014  157.5411 LP  0  0  0  0  0  0  0  0  0  0  0  0  # atno 17394 bound_to 11000
  139.9596  134.7475  156.0266 LP  0  0  0  0  0  0  0  0  0  0  0  0  # atno 17395 bound_to 11000

$$$$
