AV-unprocessed.smi:249|AV-procd|sdf|1927|dock8
  -GOLD-   2262021 43D 1   1.00000     0.00000
 Structure written by MMmdl.
 64 67  0  0  0  0  0  0  0  0  2 V2000
  143.4865  132.6836  147.8357 C   0  0  0  0  0  0  0  0  0  0  0  0
  143.6032  132.6589  149.3688 C   0  0  0  0  0  0  0  0  0  0  0  0
  144.7885  133.3997  149.8908 N   0  3  1  0  0  0  0  0  0  0  0  0
  144.3913  134.4910  150.8271 C   0  0  0  0  0  0  0  0  0  0  0  0
  145.5971  135.3122  151.3101 C   0  0  0  0  0  0  0  0  0  0  0  0
  146.6372  134.4242  152.0128 C   0  0  1  0  0  0  0  0  0  0  0  0
  146.1401  133.8836  153.2888 N   0  0  0  0  0  0  0  0  0  0  0  0
  146.0424  134.8082  154.4140 C   0  0  0  0  0  0  0  0  0  0  0  0
  146.7004  132.7191  153.6848 C   0  0  0  0  0  0  0  0  0  0  0  0
  145.9141  131.6150  153.6718 N   0  0  0  0  0  0  0  0  0  0  0  0
  146.4181  130.4344  154.0444 C   0  0  0  0  0  0  0  0  0  0  0  0
  147.6548  130.1469  154.4572 N   0  0  0  0  0  0  0  0  0  0  0  0
  148.4434  131.2599  154.4775 C   0  0  0  0  0  0  0  0  0  0  0  0
  148.0501  132.5771  154.1119 C   0  0  0  0  0  0  0  0  0  0  0  0
  149.1180  133.4530  154.2631 N   0  0  0  0  0  0  0  0  0  0  0  0
  150.0886  132.6963  154.6984 C   0  0  0  0  0  0  0  0  0  0  0  0
  149.7696  131.3668  154.8573 N   0  0  0  0  0  0  0  0  0  0  0  0
  150.6526  130.3144  155.3258 C   0  0  0  0  0  0  0  0  0  0  0  0
  152.1063  130.7948  155.5923 C   0  0  1  0  0  0  0  0  0  0  0  0
  152.4115  131.0338  157.0918 C   0  0  0  0  0  0  0  0  0  0  0  0
  151.7278  132.1610  157.6006 O   0  0  0  0  0  0  0  0  0  0  0  0
  153.1843  129.8655  154.9731 C   0  0  1  0  0  0  0  0  0  0  0  0
  154.6257  130.3719  154.9936 C   0  0  0  0  0  0  0  0  0  0  0  0
  155.4628  129.1030  155.1867 C   0  0  0  0  0  0  0  0  0  0  0  0
  154.5494  128.0222  155.0514 O   0  0  0  0  0  0  0  0  0  0  0  0
  153.3024  128.4593  155.5637 C   0  0  0  0  0  0  0  0  0  0  0  0
  147.0427  133.3384  150.9924 C   0  0  0  0  0  0  0  0  0  0  0  0
  145.8393  132.5099  150.4852 C   0  0  2  0  0  0  0  0  0  0  0  0
  146.3592  131.4434  149.4991 C   0  0  0  0  0  0  0  0  0  0  0  0
  142.7107  131.9936  147.5038 H   0  0  0  0  0  0  0  0  0  0  0  0
  144.4202  132.3800  147.3614 H   0  0  0  0  0  0  0  0  0  0  0  0
  143.2134  133.6679  147.4564 H   0  0  0  0  0  0  0  0  0  0  0  0
  142.6918  133.0477  149.8251 H   0  0  0  0  0  0  0  0  0  0  0  0
  143.6642  131.6085  149.6440 H   0  0  0  0  0  0  0  0  0  0  0  0
  143.7034  135.1796  150.3395 H   0  0  0  0  0  0  0  0  0  0  0  0
  143.8575  134.0655  151.6785 H   0  0  0  0  0  0  0  0  0  0  0  0
  146.0614  135.8008  150.4524 H   0  0  0  0  0  0  0  0  0  0  0  0
  145.2660  136.1223  151.9600 H   0  0  0  0  0  0  0  0  0  0  0  0
  147.5115  135.0375  152.2330 H   0  0  0  0  0  0  0  0  0  0  0  0
  145.9432  134.2850  155.3669 H   0  0  0  0  0  0  0  0  0  0  0  0
  145.1652  135.4455  154.3031 H   0  0  0  0  0  0  0  0  0  0  0  0
  146.9254  135.4462  154.4680 H   0  0  0  0  0  0  0  0  0  0  0  0
  145.7330  129.6004  154.0059 H   0  0  0  0  0  0  0  0  0  0  0  0
  151.0695  133.0896  154.9223 H   0  0  0  0  0  0  0  0  0  0  0  0
  150.2136  129.8821  156.2240 H   0  0  0  0  0  0  0  0  0  0  0  0
  150.6375  129.5297  154.5709 H   0  0  0  0  0  0  0  0  0  0  0  0
  152.2233  131.7548  155.0864 H   0  0  0  0  0  0  0  0  0  0  0  0
  152.1599  130.1533  157.6841 H   0  0  0  0  0  0  0  0  0  0  0  0
  153.4754  131.2196  157.2422 H   0  0  0  0  0  0  0  0  0  0  0  0
  151.5065  132.7291  156.8783 H   0  0  0  0  0  0  0  0  0  0  0  0
  152.9216  129.7182  153.9239 H   0  0  0  0  0  0  0  0  0  0  0  0
  154.8705  130.8735  154.0565 H   0  0  0  0  0  0  0  0  0  0  0  0
  154.8216  131.0768  155.8006 H   0  0  0  0  0  0  0  0  0  0  0  0
  156.2741  129.0223  154.4629 H   0  0  0  0  0  0  0  0  0  0  0  0
  155.8973  129.0813  156.1871 H   0  0  0  0  0  0  0  0  0  0  0  0
  153.3538  128.4585  156.6523 H   0  0  0  0  0  0  0  0  0  0  0  0
  152.4887  127.8025  155.2549 H   0  0  0  0  0  0  0  0  0  0  0  0
  147.5227  133.8223  150.1402 H   0  0  0  0  0  0  0  0  0  0  0  0
  147.8069  132.6817  151.4092 H   0  0  0  0  0  0  0  0  0  0  0  0
  145.3947  131.9891  151.3343 H   0  0  0  0  0  0  0  0  0  0  0  0
  147.2245  130.9224  149.9106 H   0  0  0  0  0  0  0  0  0  0  0  0
  146.6660  131.8902  148.5529 H   0  0  0  0  0  0  0  0  0  0  0  0
  145.6185  130.6722  149.2908 H   0  0  0  0  0  0  0  0  0  0  0  0
  145.2193  133.8478  149.0947 H   0  0  0  0  0  0  0  0  0  0  0  0
  1  2  1  0  0  0  0
  1 30  1  0  0  0  0
  1 31  1  0  0  0  0
  1 32  1  0  0  0  0
  2  3  1  0  0  0  0
  2 33  1  0  0  0  0
  2 34  1  0  0  0  0
  3 28  1  0  0  0  0
  3  4  1  0  0  0  0
  3 64  1  0  0  0  0
  4  5  1  0  0  0  0
  4 35  1  0  0  0  0
  4 36  1  0  0  0  0
  5  6  1  0  0  0  0
  5 37  1  0  0  0  0
  5 38  1  0  0  0  0
  6  7  1  0  0  0  0
  6 27  1  0  0  0  0
  6 39  1  0  0  0  0
  7  8  1  0  0  0  0
  7  9  1  0  0  0  0
  8 40  1  0  0  0  0
  8 41  1  0  0  0  0
  8 42  1  0  0  0  0
  9 14  1  0  0  0  0
  9 10  2  0  0  0  0
 10 11  1  0  0  0  0
 11 12  2  0  0  0  0
 11 43  1  0  0  0  0
 12 13  1  0  0  0  0
 13 17  1  0  0  0  0
 13 14  2  0  0  0  0
 14 15  1  0  0  0  0
 15 16  2  0  0  0  0
 16 17  1  0  0  0  0
 16 44  1  0  0  0  0
 17 18  1  0  0  0  0
 18 19  1  0  0  0  0
 18 45  1  0  0  0  0
 18 46  1  0  0  0  0
 19 20  1  0  0  0  0
 19 22  1  0  0  0  0
 19 47  1  0  0  0  0
 20 21  1  0  0  0  0
 20 48  1  0  0  0  0
 20 49  1  0  0  0  0
 21 50  1  0  0  0  0
 22 26  1  0  0  0  0
 22 23  1  0  0  0  0
 22 51  1  0  0  0  0
 23 24  1  0  0  0  0
 23 52  1  0  0  0  0
 23 53  1  0  0  0  0
 24 25  1  0  0  0  0
 24 54  1  0  0  0  0
 24 55  1  0  0  0  0
 25 26  1  0  0  0  0
 26 56  1  0  0  0  0
 26 57  1  0  0  0  0
 27 28  1  0  0  0  0
 27 58  1  0  0  0  0
 27 59  1  0  0  0  0
 28 29  1  0  0  0  0
 28 60  1  0  0  0  0
 29 61  1  0  0  0  0
 29 62  1  0  0  0  0
 29 63  1  0  0  0  0
M  CHG  1   3   1
M  END
> <s_m_source_file>
AV-unprocessed.smi

> <i_m_source_file_index>
249

> <i_lp_mmshare_version>
43012

> <i_f3d_flags>
0

> <s_epik_input>
W0NIM11bQ0gyXU4xW0NIMl1bQ0gyXVtDQEhdKFtDSDJdW0NASF0xW0NIM10pTihbQ0gzXSljKG5bY0hdbjIpYyhjMjMpbltjSF1uM1tDSDJdW0NASF0oW0NIMl1bT0hdKVtDQEBIXTRbQ0gyXVtDSDJdT1tDSDJdNA==

> <s_epik_cmdline>
J2VwaWtfcHl0aG9uJywgJy1waCcsICc3LjAnLCAnLXRuJywgJzgnLCAnLW1hJywgJzIwMCcsICctbWV0YWxfYmluZGluZycsICctaW1hZScsICc8aW5maWxlLm1hZT4nLCAnLW9tYWUnLCAnPG91dGZpbGUubWFlPic=

> <r_lp_tautomer_probability>
1

> <r_epik_Ionization_Penalty>
0.00294688

> <r_epik_Ionization_Penalty_Charging>
0.00169971

> <r_epik_Ionization_Penalty_Neutral>
0.00124717

> <r_epik_State_Penalty>
-0

> <r_epik_Charging_Adjusted_Penalty>
0.00169971

> <i_epik_Tot_Q>
1

> <i_epik_Tot_abs_Q>
1

> <r_epik_Metal_State_Penalty>
-0

> <b_epik_Metal_Only>
0

> <s_lp_Force_Field>
OPLS_2005

> <r_lp_Energy>
57.5801

> <b_lp_Chiralities_Consistent>
1

> <s_lp_Variant>
AV-unprocessed.smi:249-30

> <Gold.Version>
5.8.1

> <Gold.Id.Protein>
6NUR|6NUR_protein|mol2

> <Gold.PLP.Fitness>
45.1650

> <Gold.PLP.PLP>
-39.8977

> <Gold.PLP.part.hbond>
-2.0000

> <Gold.PLP.part.metal>
0.0000

> <Gold.PLP.part.buried>
2.2206

> <Gold.PLP.part.nonpolar>
-40.7933

> <Gold.PLP.part.repulsive>
0.5946

> <Gold.PLP.ligand.clash>
0.0000

> <Gold.PLP.ligand.torsion>
2.0301

> <Gold.PLP.Chemscore.Hbond>
1.9913

> <Gold.PLP.Chemscore.CHOScore>
0.8898

> <Gold.PLP.Chemscore.Metal>
0.0000

> <Gold.Chemscore.Hbonds>
donor molecule, donor type, donor heavy atom, donor atom, acceptor molecule, acceptor atom, score
      L1  H     3    64       P1  7921  1.00
      P1  H  6896  6909       L1    21  1.00
      L1  C    11    43       P1 10956  0.85

> <Gold.PLP.Chemscore.Internal.Correction>
0.6846

> <Gold.Rescore>
     Score         DG    S(hbond)    S(metal)    S(lipo)     H(rot)  DE(clash)    DE(int)     intcor
     13.09     -17.73       1.75        0.00     118.32       2.90       2.65       1.99       ----

> <Gold.Chemscore.Fitness>
13.0942

> <Gold.Chemscore.DG>
-17.7272

> <Gold.Chemscore.ZeroCoef>
-5.4800

> <Gold.Chemscore.Hbond>
1.7455

> <Gold.Chemscore.Metal>
0.0000

> <Gold.Chemscore.Lipo>
118.3167

> <Gold.Chemscore.Internal_Hbond>
0.0000

> <Gold.Chemscore.DEClash>
2.6460

> <Gold.Chemscore.DEInternal>
1.9870

> <Gold.Chemscore.Rot>
2.9006

> <Gold.Chemscore.Internal.Correction>
   9.000000E+99

> <Gold.Chemscore.Hbonds>
donor molecule, donor type, donor heavy atom, donor atom, acceptor molecule, acceptor atom, score
      L1  H     3    64       P1  7921  0.84
      P1  H  6896  6909       L1    21  0.53

> <Gold.Chemscore.Hbond.Weighted>
-5.8298

> <Gold.Chemscore.Metal.Weighted>
-0.0000

> <Gold.Chemscore.Lipo.Weighted>
-13.8431

> <Gold.Chemscore.Internal_Hbond.Weighted>
0.0000

> <Gold.Chemscore.DEClash.Weighted>
2.6460

> <Gold.Chemscore.DEInternal.Weighted>
1.9870

> <Gold.Chemscore.Rot.Weighted>
7.4256

> <Gold.Chemscore.Internal.Correction.Weighted>
   9.000000E+99

> <Gold.Protein.RotatedTorsions>
[ 6907 6896 6895 6894 ] final  -57.00 input  -60.11 | X-H torsion
[ 7974 7965 7964 7962 ] final -179.95 input  175.53 | X-H torsion
[ 8008 7997 7996 7995 ] final   24.26 input   59.86 | X-H torsion
[ 10167 10162 10161 10158 ] final   32.79 input  -65.29 | X-H torsion
[ 10718 10713 10712 10709 ] final  -12.76 input   66.30 | X-H torsion
[ 10763 10752 10751 10750 ] final   72.83 input  -60.55 | X-H torsion
[ 11005 11000 10999 10996 ] final   56.95 input  -57.11 | X-H torsion

> <Gold.Protein.ActiveResidues>
 VAL166  LYS551  ARG553  GLY616  TRP617  ASP618  TYR619  PRO620  LYS621  CYS622 
 ASP623  PHE694  ASN695  SER759  ASP760  ASP761  ALA762  ILE779  LEU786  VAL792 
 PHE793  MET794  SER795  GLU796  ALA797  LYS798  CYS799  TRP800  GLU811  SER814 

> <Gold.Protein.RotatedAtoms>
  150.8122  134.7283  159.6697 H   0  0  0  0  0  0  0  0  0  0  0  0  # atno 6907 bound_to 6896
  152.4241  134.5897  159.9980 H   0  0  0  0  0  0  0  0  0  0  0  0  # atno 6908 bound_to 6896
  151.6104  133.3310  159.3102 H   0  0  0  0  0  0  0  0  0  0  0  0  # atno 6909 bound_to 6896
  144.7140  140.0640  143.6431 H   0  0  0  0  0  0  0  0  0  0  0  0  # atno 7974 bound_to 7965
  154.9935  140.3116  155.4896 H   0  0  0  0  0  0  0  0  0  0  0  0  # atno 8008 bound_to 7997
  156.2936  140.2245  156.4981 H   0  0  0  0  0  0  0  0  0  0  0  0  # atno 8009 bound_to 7997
  154.7682  140.0454  157.1018 H   0  0  0  0  0  0  0  0  0  0  0  0  # atno 8010 bound_to 7997
  140.4466  144.1109  150.6183 H   0  0  0  0  0  0  0  0  0  0  0  0  # atno 10167 bound_to 10162
  156.6399  130.4925  149.6098 H   0  0  0  0  0  0  0  0  0  0  0  0  # atno 10718 bound_to 10713
  153.0483  135.5085  154.7802 H   0  0  0  0  0  0  0  0  0  0  0  0  # atno 10763 bound_to 10752
  154.6684  135.2949  154.9776 H   0  0  0  0  0  0  0  0  0  0  0  0  # atno 10764 bound_to 10752
  154.0603  135.6692  153.4863 H   0  0  0  0  0  0  0  0  0  0  0  0  # atno 10765 bound_to 10752
  140.0490  134.5764  155.9287 H   0  0  0  0  0  0  0  0  0  0  0  0  # atno 11005 bound_to 11000
  145.9840  139.2963  143.1025 LP  0  0  0  0  0  0  0  0  0  0  0  0  # atno 17320 bound_to 7965
  145.8978  140.9262  143.0518 LP  0  0  0  0  0  0  0  0  0  0  0  0  # atno 17321 bound_to 7965
  140.4256  143.2591  151.9661 LP  0  0  0  0  0  0  0  0  0  0  0  0  # atno 17342 bound_to 10162
  139.4793  144.5791  151.7962 LP  0  0  0  0  0  0  0  0  0  0  0  0  # atno 17343 bound_to 10162
  156.2167  130.6712  151.1326 LP  0  0  0  0  0  0  0  0  0  0  0  0  # atno 17370 bound_to 10713
  157.7174  131.0702  150.6273 LP  0  0  0  0  0  0  0  0  0  0  0  0  # atno 17371 bound_to 10713
  141.1921  133.6574  156.5486 LP  0  0  0  0  0  0  0  0  0  0  0  0  # atno 17394 bound_to 11000
  140.3948  134.7408  157.4744 LP  0  0  0  0  0  0  0  0  0  0  0  0  # atno 17395 bound_to 11000

$$$$
