AV-unprocessed.smi:155|AV-procd|sdf|1285|dock7
  -GOLD-   2262018563D 1   1.00000     0.00000
 Structure written by MMmdl.
 64 67  0  0  0  0  0  0  0  0  3 V2000
  146.3877  131.2066  152.2493 C   0  0  0  0  0  0  0  0  0  0  0  0
  146.4419  131.9515  150.9700 N   0  3  0  0  0  0  0  0  0  0  0  0
  145.1737  131.8291  150.2170 C   0  0  0  0  0  0  0  0  0  0  0  0
  146.8597  133.3677  151.1309 C   0  0  0  0  0  0  0  0  0  0  0  0
  146.4012  133.9770  152.4733 C   0  0  0  0  0  0  0  0  0  0  0  0
  147.5349  134.3897  153.3439 N   0  3  2  0  0  0  0  0  0  0  0  0
  148.3152  133.2313  153.8549 C   0  0  0  0  0  0  0  0  0  0  0  0
  149.8230  133.5262  153.7899 C   0  0  0  0  0  0  0  0  0  0  0  0
  150.3344  134.5050  154.8578 C   0  0  0  0  0  0  0  0  0  0  0  0
  149.5742  135.7564  154.8762 N   0  0  0  0  0  0  0  0  0  0  0  0
  150.2203  136.9502  154.9362 C   0  0  0  0  0  0  0  0  0  0  0  0
  151.4692  137.0666  154.4119 N   0  0  0  0  0  0  0  0  0  0  0  0
  152.1250  138.2292  154.4731 C   0  0  0  0  0  0  0  0  0  0  0  0
  151.7250  139.3850  155.0055 N   0  0  0  0  0  0  0  0  0  0  0  0
  150.4708  139.2783  155.5292 C   0  0  0  0  0  0  0  0  0  0  0  0
  149.6551  138.1113  155.5382 C   0  0  0  0  0  0  0  0  0  0  0  0
  148.4377  138.3935  156.1490 N   0  0  0  0  0  0  0  0  0  0  0  0
  148.5338  139.6498  156.4905 C   0  0  0  0  0  0  0  0  0  0  0  0
  149.7210  140.2580  156.1535 N   0  0  0  0  0  0  0  0  0  0  0  0
  150.0982  141.6383  156.4018 C   0  0  0  0  0  0  0  0  0  0  0  0
  151.0084  141.7844  157.6403 C   0  0  1  0  0  0  0  0  0  0  0  0
  152.1933  141.0481  157.4016 O   0  0  0  0  0  0  0  0  0  0  0  0
  151.4089  143.2452  157.9278 C   0  0  1  0  0  0  0  0  0  0  0  0
  150.3301  144.0803  158.6231 C   0  0  0  0  0  0  0  0  0  0  0  0
  151.1156  145.1541  159.3592 C   0  0  0  0  0  0  0  0  0  0  0  0
  152.5500  144.6224  159.3637 C   0  0  0  0  0  0  0  0  0  0  0  0
  152.4450  143.2850  158.8980 O   0  0  0  0  0  0  0  0  0  0  0  0
  148.2236  135.7038  155.4333 C   0  0  0  0  0  0  0  0  0  0  0  0
  147.1291  135.3561  154.4027 C   0  0  0  0  0  0  0  0  0  0  0  0
  145.6693  131.6572  152.9354 H   0  0  0  0  0  0  0  0  0  0  0  0
  147.3613  131.1832  152.7377 H   0  0  0  0  0  0  0  0  0  0  0  0
  146.0890  130.1717  152.0782 H   0  0  0  0  0  0  0  0  0  0  0  0
  144.3508  132.2987  150.7577 H   0  0  0  0  0  0  0  0  0  0  0  0
  144.9210  130.7806  150.0538 H   0  0  0  0  0  0  0  0  0  0  0  0
  145.2552  132.3030  149.2381 H   0  0  0  0  0  0  0  0  0  0  0  0
  147.9496  133.4077  151.0912 H   0  0  0  0  0  0  0  0  0  0  0  0
  146.4938  133.9532  150.2863 H   0  0  0  0  0  0  0  0  0  0  0  0
  145.7372  134.8273  152.3134 H   0  0  0  0  0  0  0  0  0  0  0  0
  145.8212  133.2182  153.0010 H   0  0  0  0  0  0  0  0  0  0  0  0
  147.9983  132.9484  154.8598 H   0  0  0  0  0  0  0  0  0  0  0  0
  148.1332  132.3542  153.2329 H   0  0  0  0  0  0  0  0  0  0  0  0
  150.3702  132.5895  153.9011 H   0  0  0  0  0  0  0  0  0  0  0  0
  150.0778  133.9017  152.7978 H   0  0  0  0  0  0  0  0  0  0  0  0
  150.2730  134.0426  155.8436 H   0  0  0  0  0  0  0  0  0  0  0  0
  151.3939  134.6783  154.6686 H   0  0  0  0  0  0  0  0  0  0  0  0
  153.1119  138.2337  154.0337 H   0  0  0  0  0  0  0  0  0  0  0  0
  147.7346  140.1733  156.9950 H   0  0  0  0  0  0  0  0  0  0  0  0
  150.5935  142.0327  155.5133 H   0  0  0  0  0  0  0  0  0  0  0  0
  149.1800  142.2130  156.5265 H   0  0  0  0  0  0  0  0  0  0  0  0
  150.5025  141.3650  158.5112 H   0  0  0  0  0  0  0  0  0  0  0  0
  152.0283  140.4329  156.7037 H   0  0  0  0  0  0  0  0  0  0  0  0
  151.7358  143.7506  157.0163 H   0  0  0  0  0  0  0  0  0  0  0  0
  149.6023  144.4951  157.9250 H   0  0  0  0  0  0  0  0  0  0  0  0
  149.7903  143.4679  159.3470 H   0  0  0  0  0  0  0  0  0  0  0  0
  151.0636  146.1140  158.8442 H   0  0  0  0  0  0  0  0  0  0  0  0
  150.7322  145.2923  160.3706 H   0  0  0  0  0  0  0  0  0  0  0  0
  153.1738  145.1949  158.6758 H   0  0  0  0  0  0  0  0  0  0  0  0
  153.0090  144.6591  160.3518 H   0  0  0  0  0  0  0  0  0  0  0  0
  148.2190  134.9442  156.2159 H   0  0  0  0  0  0  0  0  0  0  0  0
  147.9681  136.6322  155.9461 H   0  0  0  0  0  0  0  0  0  0  0  0
  146.8202  136.2797  153.9155 H   0  0  0  0  0  0  0  0  0  0  0  0
  146.2516  134.9811  154.9310 H   0  0  0  0  0  0  0  0  0  0  0  0
  147.1462  131.5023  150.4018 H   0  0  0  0  0  0  0  0  0  0  0  0
  148.1757  134.8868  152.7415 H   0  0  0  0  0  0  0  0  0  0  0  0
  1  2  1  0  0  0  0
  1 30  1  0  0  0  0
  1 31  1  0  0  0  0
  1 32  1  0  0  0  0
  2  3  1  0  0  0  0
  2  4  1  0  0  0  0
  2 63  1  0  0  0  0
  3 33  1  0  0  0  0
  3 34  1  0  0  0  0
  3 35  1  0  0  0  0
  4  5  1  0  0  0  0
  4 36  1  0  0  0  0
  4 37  1  0  0  0  0
  5  6  1  0  0  0  0
  5 38  1  0  0  0  0
  5 39  1  0  0  0  0
  6 29  1  0  0  0  0
  6  7  1  0  0  0  0
  6 64  1  0  0  0  0
  7  8  1  0  0  0  0
  7 40  1  0  0  0  0
  7 41  1  0  0  0  0
  8  9  1  0  0  0  0
  8 42  1  0  0  0  0
  8 43  1  0  0  0  0
  9 10  1  0  0  0  0
  9 44  1  0  0  0  0
  9 45  1  0  0  0  0
 10 11  1  0  0  0  0
 10 28  1  0  0  0  0
 11 16  1  0  0  0  0
 11 12  2  0  0  0  0
 12 13  1  0  0  0  0
 13 14  2  0  0  0  0
 13 46  1  0  0  0  0
 14 15  1  0  0  0  0
 15 19  1  0  0  0  0
 15 16  2  0  0  0  0
 16 17  1  0  0  0  0
 17 18  2  0  0  0  0
 18 19  1  0  0  0  0
 18 47  1  0  0  0  0
 19 20  1  0  0  0  0
 20 21  1  0  0  0  0
 20 48  1  0  0  0  0
 20 49  1  0  0  0  0
 21 22  1  0  0  0  0
 21 23  1  0  0  0  0
 21 50  1  0  0  0  0
 22 51  1  0  0  0  0
 23 27  1  0  0  0  0
 23 24  1  0  0  0  0
 23 52  1  0  0  0  0
 24 25  1  0  0  0  0
 24 53  1  0  0  0  0
 24 54  1  0  0  0  0
 25 26  1  0  0  0  0
 25 55  1  0  0  0  0
 25 56  1  0  0  0  0
 26 27  1  0  0  0  0
 26 57  1  0  0  0  0
 26 58  1  0  0  0  0
 28 29  1  0  0  0  0
 28 59  1  0  0  0  0
 28 60  1  0  0  0  0
 29 61  1  0  0  0  0
 29 62  1  0  0  0  0
M  CHG  1   2   1
M  CHG  1   6   1
M  END
> <s_m_source_file>
AV-unprocessed.smi

> <i_m_source_file_index>
155

> <i_lp_mmshare_version>
43012

> <i_f3d_flags>
0

> <s_epik_input>
W0NIM11OKFtDSDNdKVtDSDJdW0NIMl1OMVtDSDJdW0NIMl1bQ0gyXU4oW0NIMl1bQ0gyXTEpYyhuW2NIXW4yKWMoYzIzKW5bY0hdbjNbQ0gyXVtDQEhdKFtPSF0pW0NAQEhdNFtDSDJdW0NIMl1bQ0gyXU80

> <s_epik_cmdline>
J2VwaWtfcHl0aG9uJywgJy1waCcsICc3LjAnLCAnLXRuJywgJzgnLCAnLW1hJywgJzIwMCcsICctbWV0YWxfYmluZGluZycsICctaW1hZScsICc8aW5maWxlLm1hZT4nLCAnLW9tYWUnLCAnPG91dGZpbGUubWFlPic=

> <r_lp_tautomer_probability>
1

> <r_epik_Ionization_Penalty>
3.0333

> <r_epik_Ionization_Penalty_Charging>
3.03317

> <r_epik_Ionization_Penalty_Neutral>
0.000131872

> <r_epik_State_Penalty>
1.99939

> <r_epik_Charging_Adjusted_Penalty>
5.03256

> <i_epik_Tot_Q>
2

> <i_epik_Tot_abs_Q>
2

> <r_epik_Metal_State_Penalty>
2.00021

> <b_epik_Metal_Only>
0

> <s_lp_Force_Field>
OPLS_2005

> <r_lp_Energy>
63.1179

> <b_lp_Chiralities_Consistent>
1

> <s_lp_Variant>
AV-unprocessed.smi:155-19

> <Gold.Version>
5.8.1

> <Gold.Id.Protein>
6NUR|6NUR_protein|mol2

> <Gold.PLP.Fitness>
57.4479

> <Gold.PLP.PLP>
-46.5382

> <Gold.PLP.part.hbond>
-3.6236

> <Gold.PLP.part.metal>
0.0000

> <Gold.PLP.part.buried>
-7.2527

> <Gold.PLP.part.nonpolar>
-36.0718

> <Gold.PLP.part.repulsive>
0.2394

> <Gold.PLP.ligand.clash>
0.0000

> <Gold.PLP.ligand.torsion>
1.5634

> <Gold.PLP.Chemscore.Hbond>
4.5688

> <Gold.PLP.Chemscore.CHOScore>
0.0000

> <Gold.PLP.Chemscore.Metal>
0.0000

> <Gold.Chemscore.Hbonds>
donor molecule, donor type, donor heavy atom, donor atom, acceptor molecule, acceptor atom, score
      L1  H     2    63       P1 10747  0.96
      L1  H     6    64       P1  7948  2.00
      P1  H  7989  7998       L1    14  0.81
      P1  H 10752 10764       L1    12  0.99

> <Gold.PLP.Chemscore.Internal.Correction>
0.3302

> <Gold.Rescore>
     Score         DG    S(hbond)    S(metal)    S(lipo)     H(rot)  DE(clash)    DE(int)     intcor
     16.64     -19.88       2.60        0.00     109.15       2.75       0.21       3.04       ----

> <Gold.Chemscore.Fitness>
16.6437

> <Gold.Chemscore.DG>
-19.8847

> <Gold.Chemscore.ZeroCoef>
-5.4800

> <Gold.Chemscore.Hbond>
2.5964

> <Gold.Chemscore.Metal>
0.0000

> <Gold.Chemscore.Lipo>
109.1524

> <Gold.Chemscore.Internal_Hbond>
0.0000

> <Gold.Chemscore.DEClash>
0.2055

> <Gold.Chemscore.DEInternal>
3.0355

> <Gold.Chemscore.Rot>
2.7493

> <Gold.Chemscore.Internal.Correction>
   9.000000E+99

> <Gold.Chemscore.Hbonds>
donor molecule, donor type, donor heavy atom, donor atom, acceptor molecule, acceptor atom, score
      L1  H     2    63       P1 10747  0.91
      L1  H     6    64       P1  7948  0.74
      P1  H  7989  7998       L1    14  0.36
      P1  H 10752 10764       L1    12  0.46

> <Gold.Chemscore.Hbond.Weighted>
-8.6721

> <Gold.Chemscore.Metal.Weighted>
-0.0000

> <Gold.Chemscore.Lipo.Weighted>
-12.7708

> <Gold.Chemscore.Internal_Hbond.Weighted>
0.0000

> <Gold.Chemscore.DEClash.Weighted>
0.2055

> <Gold.Chemscore.DEInternal.Weighted>
3.0355

> <Gold.Chemscore.Rot.Weighted>
7.0383

> <Gold.Chemscore.Internal.Correction.Weighted>
   9.000000E+99

> <Gold.Protein.RotatedTorsions>
[ 6907 6896 6895 6894 ] final   24.98 input  -60.11 | X-H torsion
[ 7974 7965 7964 7962 ] final   69.34 input  175.53 | X-H torsion
[ 8008 7997 7996 7995 ] final  -53.31 input   59.86 | X-H torsion
[ 10167 10162 10161 10158 ] final -145.64 input  -65.29 | X-H torsion
[ 10718 10713 10712 10709 ] final -103.64 input   66.30 | X-H torsion
[ 10763 10752 10751 10750 ] final  -75.36 input  -60.55 | X-H torsion
[ 11005 11000 10999 10996 ] final   35.20 input  -57.11 | X-H torsion

> <Gold.Protein.ActiveResidues>
 VAL166  LYS551  ARG553  GLY616  TRP617  ASP618  TYR619  PRO620  LYS621  CYS622 
 ASP623  PHE694  ASN695  SER759  ASP760  ASP761  ALA762  ILE779  LEU786  VAL792 
 PHE793  MET794  SER795  GLU796  ALA797  LYS798  CYS799  TRP800  GLU811  SER814 

> <Gold.Protein.RotatedAtoms>
  151.9657  135.0101  160.0549 H   0  0  0  0  0  0  0  0  0  0  0  0  # atno 6907 bound_to 6896
  152.1828  133.4714  159.4975 H   0  0  0  0  0  0  0  0  0  0  0  0  # atno 6908 bound_to 6896
  150.6920  134.1729  159.4262 H   0  0  0  0  0  0  0  0  0  0  0  0  # atno 6909 bound_to 6896
  145.7916  139.2936  143.1207 H   0  0  0  0  0  0  0  0  0  0  0  0  # atno 7974 bound_to 7965
  154.4130  140.1203  156.5133 H   0  0  0  0  0  0  0  0  0  0  0  0  # atno 8008 bound_to 7997
  155.6777  140.3496  155.4823 H   0  0  0  0  0  0  0  0  0  0  0  0  # atno 8009 bound_to 7997
  155.9578  140.1117  157.0911 H   0  0  0  0  0  0  0  0  0  0  0  0  # atno 8010 bound_to 7997
  139.7787  143.8133  152.2635 H   0  0  0  0  0  0  0  0  0  0  0  0  # atno 10167 bound_to 10162
  156.0273  130.5477  150.7282 H   0  0  0  0  0  0  0  0  0  0  0  0  # atno 10718 bound_to 10713
  154.4854  135.5834  153.6420 H   0  0  0  0  0  0  0  0  0  0  0  0  # atno 10763 bound_to 10752
  152.9854  135.6100  154.3192 H   0  0  0  0  0  0  0  0  0  0  0  0  # atno 10764 bound_to 10752
  154.3087  135.2845  155.2555 H   0  0  0  0  0  0  0  0  0  0  0  0  # atno 10765 bound_to 10752
  140.2450  134.3370  155.7911 H   0  0  0  0  0  0  0  0  0  0  0  0  # atno 11005 bound_to 11000
  145.9971  140.8552  143.0037 LP  0  0  0  0  0  0  0  0  0  0  0  0  # atno 17320 bound_to 7965
  144.6781  140.2299  143.7356 LP  0  0  0  0  0  0  0  0  0  0  0  0  # atno 17321 bound_to 7965
  139.8189  144.7304  150.9599 LP  0  0  0  0  0  0  0  0  0  0  0  0  # atno 17342 bound_to 10162
  140.7817  143.4178  151.0889 LP  0  0  0  0  0  0  0  0  0  0  0  0  # atno 17343 bound_to 10162
  157.4881  131.0908  151.0459 LP  0  0  0  0  0  0  0  0  0  0  0  0  # atno 17370 bound_to 10713
  157.0873  130.5928  149.5432 LP  0  0  0  0  0  0  0  0  0  0  0  0  # atno 17371 bound_to 10713
  141.2207  133.7321  156.8946 LP  0  0  0  0  0  0  0  0  0  0  0  0  # atno 17394 bound_to 11000
  140.1615  134.9162  157.2720 LP  0  0  0  0  0  0  0  0  0  0  0  0  # atno 17395 bound_to 11000

$$$$
