AV-unprocessed.smi:73|AV-procd|sdf|760|dock9
  -GOLD-   2262017 93D 1   1.00000     0.00000
 Structure written by MMmdl.
 35 36  0  0  0  0  0  0  0  0  2 V2000
  151.9469  138.2871  158.5740 C   0  0  0  0  0  0  0  0  0  0  0  0
  150.9887  139.3116  157.9471 C   0  0  0  0  0  0  0  0  0  0  0  0
  150.4525  138.9926  156.6090 N   0  0  0  0  0  0  0  0  0  0  0  0
  149.7933  137.6724  156.5975 C   0  0  0  0  0  0  0  0  0  0  0  0
  148.8615  137.4201  157.7385 C   0  0  0  0  0  0  0  0  0  0  0  0
  147.8607  138.2004  158.1533 N   0  0  0  0  0  0  0  0  0  0  0  0
  147.2952  137.5456  159.2247 N   0  0  0  0  0  0  0  0  0  0  0  0
  147.9921  136.4160  159.3695 C   0  0  0  0  0  0  0  0  0  0  0  0
  147.7865  135.3473  160.3871 C   0  0  0  0  0  0  0  0  0  0  0  0
  148.9885  136.2745  158.4580 O   0  0  0  0  0  0  0  0  0  0  0  0
  149.5194  140.0480  156.1601 C   0  0  1  0  0  0  0  0  0  0  0  0
  150.0581  141.4972  156.2510 C   0  0  0  0  0  0  0  0  0  0  0  0
  149.5430  142.2528  155.0932 N   0  3  0  0  0  0  0  0  0  0  0  0
  148.6291  141.3795  154.3446 C   0  0  0  0  0  0  0  0  0  0  0  0
  149.0707  139.9588  154.6836 C   0  0  1  0  0  0  0  0  0  0  0  0
  150.1455  139.6144  153.8263 O   0  0  0  0  0  0  0  0  0  0  0  0
  148.2548  139.2509  154.5349 H   0  0  0  0  0  0  0  0  0  0  0  0
  152.4567  138.7233  159.4332 H   0  0  0  0  0  0  0  0  0  0  0  0
  152.7117  137.9716  157.8637 H   0  0  0  0  0  0  0  0  0  0  0  0
  151.4268  137.4027  158.9385 H   0  0  0  0  0  0  0  0  0  0  0  0
  150.1683  139.5114  158.6383 H   0  0  0  0  0  0  0  0  0  0  0  0
  151.5584  140.2380  157.9012 H   0  0  0  0  0  0  0  0  0  0  0  0
  149.2578  137.5261  155.6582 H   0  0  0  0  0  0  0  0  0  0  0  0
  150.5259  136.8700  156.6478 H   0  0  0  0  0  0  0  0  0  0  0  0
  147.0504  135.6636  161.1265 H   0  0  0  0  0  0  0  0  0  0  0  0
  148.7251  135.1314  160.8979 H   0  0  0  0  0  0  0  0  0  0  0  0
  147.4301  134.4371  159.9046 H   0  0  0  0  0  0  0  0  0  0  0  0
  148.6168  140.0017  156.7723 H   0  0  0  0  0  0  0  0  0  0  0  0
  149.7580  141.9775  157.1827 H   0  0  0  0  0  0  0  0  0  0  0  0
  151.1472  141.5216  156.1964 H   0  0  0  0  0  0  0  0  0  0  0  0
  149.0760  143.0999  155.3836 H   0  0  0  0  0  0  0  0  0  0  0  0
  147.6172  141.5494  154.7150 H   0  0  0  0  0  0  0  0  0  0  0  0
  148.6360  141.5984  153.2759 H   0  0  0  0  0  0  0  0  0  0  0  0
  149.8132  139.5333  152.9446 H   0  0  0  0  0  0  0  0  0  0  0  0
  150.3252  142.4822  154.4966 H   0  0  0  0  0  0  0  0  0  0  0  0
  1  2  1  0  0  0  0
  1 18  1  0  0  0  0
  1 19  1  0  0  0  0
  1 20  1  0  0  0  0
  2  3  1  0  0  0  0
  2 21  1  0  0  0  0
  2 22  1  0  0  0  0
  3  4  1  0  0  0  0
  3 11  1  0  0  0  0
  4  5  1  0  0  0  0
  4 23  1  0  0  0  0
  4 24  1  0  0  0  0
  5 10  1  0  0  0  0
  5  6  2  0  0  0  0
  6  7  1  0  0  0  0
  7  8  2  0  0  0  0
  8  9  1  0  0  0  0
  8 10  1  0  0  0  0
  9 25  1  0  0  0  0
  9 26  1  0  0  0  0
  9 27  1  0  0  0  0
 11 15  1  0  0  0  0
 11 12  1  0  0  0  0
 11 28  1  0  0  0  0
 12 13  1  0  0  0  0
 12 29  1  0  0  0  0
 12 30  1  0  0  0  0
 13 14  1  0  0  0  0
 13 31  1  0  0  0  0
 13 35  1  0  0  0  0
 14 15  1  0  0  0  0
 14 32  1  0  0  0  0
 14 33  1  0  0  0  0
 15 17  1  0  0  0  0
 15 16  1  0  0  0  0
 16 34  1  0  0  0  0
M  CHG  1  13   1
M  END
> <s_m_source_file>
AV-unprocessed.smi

> <i_m_source_file_index>
73

> <i_lp_mmshare_version>
43012

> <i_f3d_flags>
0

> <s_epik_input>
W09IXVtDQEBIXTFbQ0gyXVtOSF1bQ0gyXVtDQEhdMU4oW0NIMl1bQ0gzXSlbQ0gyXWMybm5jKG8yKVtDSDNd

> <s_epik_cmdline>
J2VwaWtfcHl0aG9uJywgJy1waCcsICc3LjAnLCAnLXRuJywgJzgnLCAnLW1hJywgJzIwMCcsICctbWV0YWxfYmluZGluZycsICctaW1hZScsICc8aW5maWxlLm1hZT4nLCAnLW9tYWUnLCAnPG91dGZpbGUubWFlPic=

> <r_lp_tautomer_probability>
1

> <r_epik_Ionization_Penalty>
0.00160433

> <r_epik_Ionization_Penalty_Charging>
0.000122314

> <r_epik_Ionization_Penalty_Neutral>
0.00148202

> <r_epik_State_Penalty>
-0

> <r_epik_Charging_Adjusted_Penalty>
0.000122314

> <i_epik_Tot_Q>
1

> <i_epik_Tot_abs_Q>
1

> <r_epik_Metal_State_Penalty>
-0

> <b_epik_Metal_Only>
0

> <s_lp_Force_Field>
OPLS_2005

> <r_lp_Energy>
44.8836

> <b_lp_Chiralities_Consistent>
1

> <s_lp_Variant>
AV-unprocessed.smi:73-2

> <Gold.Version>
5.8.1

> <Gold.Id.Protein>
6NUR|6NUR_protein|mol2

> <Gold.PLP.Fitness>
34.6795

> <Gold.PLP.PLP>
-21.3085

> <Gold.PLP.part.hbond>
-4.6563

> <Gold.PLP.part.metal>
0.0000

> <Gold.PLP.part.buried>
-4.0882

> <Gold.PLP.part.nonpolar>
-13.1444

> <Gold.PLP.part.repulsive>
0.2336

> <Gold.PLP.ligand.clash>
0.0000

> <Gold.PLP.ligand.torsion>
0.2612

> <Gold.PLP.Chemscore.Hbond>
4.6240

> <Gold.PLP.Chemscore.CHOScore>
0.0000

> <Gold.PLP.Chemscore.Metal>
0.0000

> <Gold.Chemscore.Hbonds>
donor molecule, donor type, donor heavy atom, donor atom, acceptor molecule, acceptor atom, score
      L1  H    13    31       P1  8028  2.00
      L1  H    16    34       P1  7957  1.00
      P1  H  6934  6947       L1     7  0.34
      P1  H  7989  7998       L1    16  0.85

> <Gold.PLP.Chemscore.Internal.Correction>
0.0214

> <Gold.Rescore>
     Score         DG    S(hbond)    S(metal)    S(lipo)     H(rot)  DE(clash)    DE(int)     intcor
     12.61     -12.82       2.65        0.00      42.04       2.51       0.01       0.20       ----

> <Gold.Chemscore.Fitness>
12.6141

> <Gold.Chemscore.DG>
-12.8237

> <Gold.Chemscore.ZeroCoef>
-5.4800

> <Gold.Chemscore.Hbond>
2.6462

> <Gold.Chemscore.Metal>
0.0000

> <Gold.Chemscore.Lipo>
42.0379

> <Gold.Chemscore.Internal_Hbond>
0.0000

> <Gold.Chemscore.DEClash>
0.0126

> <Gold.Chemscore.DEInternal>
0.1970

> <Gold.Chemscore.Rot>
2.5051

> <Gold.Chemscore.Internal.Correction>
   9.000000E+99

> <Gold.Chemscore.Hbonds>
donor molecule, donor type, donor heavy atom, donor atom, acceptor molecule, acceptor atom, score
      L1  H    13    31       P1  8028  0.99
      L1  H    16    34       P1  7957  0.98
      P1  H  6934  6947       L1     7  0.18
      P1  H  7989  7998       L1    16  0.16

> <Gold.Chemscore.Hbond.Weighted>
-8.8383

> <Gold.Chemscore.Metal.Weighted>
-0.0000

> <Gold.Chemscore.Lipo.Weighted>
-4.9184

> <Gold.Chemscore.Internal_Hbond.Weighted>
0.0000

> <Gold.Chemscore.DEClash.Weighted>
0.0126

> <Gold.Chemscore.DEInternal.Weighted>
0.1970

> <Gold.Chemscore.Rot.Weighted>
6.4131

> <Gold.Chemscore.Internal.Correction.Weighted>
   9.000000E+99

> <Gold.Protein.RotatedTorsions>
[ 6907 6896 6895 6894 ] final  -85.82 input  -60.11 | X-H torsion
[ 7974 7965 7964 7962 ] final  -45.17 input  175.53 | X-H torsion
[ 8008 7997 7996 7995 ] final  -70.42 input   59.86 | X-H torsion
[ 10167 10162 10161 10158 ] final  134.78 input  -65.29 | X-H torsion
[ 10718 10713 10712 10709 ] final   63.85 input   66.30 | X-H torsion
[ 10763 10752 10751 10750 ] final   11.88 input  -60.55 | X-H torsion
[ 11005 11000 10999 10996 ] final  -72.70 input  -57.11 | X-H torsion

> <Gold.Protein.ActiveResidues>
 VAL166  LYS551  ARG553  GLY616  TRP617  ASP618  TYR619  PRO620  LYS621  CYS622 
 ASP623  PHE694  ASN695  SER759  ASP760  ASP761  ALA762  ILE779  LEU786  VAL792 
 PHE793  MET794  SER795  GLU796  ALA797  LYS798  CYS799  TRP800  GLU811  SER814 

> <Gold.Protein.RotatedAtoms>
  150.6869  134.3146  159.4760 H   0  0  0  0  0  0  0  0  0  0  0  0  # atno 6907 bound_to 6896
  152.1028  134.9327  160.0578 H   0  0  0  0  0  0  0  0  0  0  0  0  # atno 6908 bound_to 6896
  152.0600  133.4023  159.4450 H   0  0  0  0  0  0  0  0  0  0  0  0  # atno 6909 bound_to 6896
  145.9847  140.7245  142.9346 H   0  0  0  0  0  0  0  0  0  0  0  0  # atno 7974 bound_to 7965
  154.5010  140.0835  156.7798 H   0  0  0  0  0  0  0  0  0  0  0  0  # atno 8008 bound_to 7997
  155.4002  140.3436  155.4238 H   0  0  0  0  0  0  0  0  0  0  0  0  # atno 8009 bound_to 7997
  156.1457  140.1543  156.8839 H   0  0  0  0  0  0  0  0  0  0  0  0  # atno 8010 bound_to 7997
  139.5243  144.6550  151.5189 H   0  0  0  0  0  0  0  0  0  0  0  0  # atno 10167 bound_to 10162
  157.5999  130.9128  149.9769 H   0  0  0  0  0  0  0  0  0  0  0  0  # atno 10718 bound_to 10713
  153.1880  135.6838  153.8390 H   0  0  0  0  0  0  0  0  0  0  0  0  # atno 10763 bound_to 10752
  153.7699  135.3197  155.3351 H   0  0  0  0  0  0  0  0  0  0  0  0  # atno 10764 bound_to 10752
  154.8100  135.4723  154.0589 H   0  0  0  0  0  0  0  0  0  0  0  0  # atno 10765 bound_to 10752
  141.1612  133.6855  156.7099 H   0  0  0  0  0  0  0  0  0  0  0  0  # atno 11005 bound_to 11000
  144.6871  140.2968  143.7269 LP  0  0  0  0  0  0  0  0  0  0  0  0  # atno 17320 bound_to 7965
  145.7718  139.1860  143.2208 LP  0  0  0  0  0  0  0  0  0  0  0  0  # atno 17321 bound_to 7965
  140.6372  143.8961  150.6658 LP  0  0  0  0  0  0  0  0  0  0  0  0  # atno 17342 bound_to 10162
  140.2284  143.3755  152.1586 LP  0  0  0  0  0  0  0  0  0  0  0  0  # atno 17343 bound_to 10162
  156.1070  130.3652  150.0116 LP  0  0  0  0  0  0  0  0  0  0  0  0  # atno 17370 bound_to 10713
  156.8221  130.9362  151.3641 LP  0  0  0  0  0  0  0  0  0  0  0  0  # atno 17371 bound_to 10713
  140.2895  134.8252  157.4004 LP  0  0  0  0  0  0  0  0  0  0  0  0  # atno 17394 bound_to 11000
  140.1360  134.5034  155.8068 LP  0  0  0  0  0  0  0  0  0  0  0  0  # atno 17395 bound_to 11000

$$$$
