AV-unprocessed.smi:2470|AV-procd|sdf|9736|dock4
  -GOLD-   2272013373D 1   1.00000     0.00000
 Structure written by MMmdl.
 33 34  0  0  0  0  0  0  0  0  1 V2000
  149.6105  129.0119  153.3613 C   0  0  0  0  0  0  0  0  0  0  0  0
  150.2861  129.5996  154.4673 O   0  0  0  0  0  0  0  0  0  0  0  0
  150.2113  130.9680  154.6239 C   0  0  0  0  0  0  0  0  0  0  0  0
  149.3413  131.7105  153.7997 C   0  0  0  0  0  0  0  0  0  0  0  0
  149.2929  133.1092  153.9940 C   0  0  0  0  0  0  0  0  0  0  0  0
  148.3991  133.8182  153.1484 N   0  0  0  0  0  0  0  0  0  0  0  0
  147.2018  133.4178  152.6858 C   0  0  0  0  0  0  0  0  0  0  0  0
  146.6573  132.3466  152.9541 O   0  0  0  0  0  0  0  0  0  0  0  0
  146.6582  134.3457  151.8839 N   0  0  0  0  0  0  0  0  0  0  0  0
  145.3696  134.2338  151.2070 C   0  0  1  0  0  0  0  0  0  0  0  0
  145.0096  135.5771  150.5530 C   0  0  0  0  0  0  0  0  0  0  0  0
  145.3477  133.1116  150.1866 C   0  0  0  0  0  0  0  0  0  0  0  0
  144.0517  132.6469  149.5669 C   0  0  0  0  0  0  0  0  0  0  0  0
  144.7927  131.7515  150.5347 C   0  0  0  0  0  0  0  0  0  0  0  0
  150.0681  133.6875  154.9446 N   0  0  0  0  0  0  0  0  0  0  0  0
  150.8592  132.8970  155.6722 C   0  0  0  0  0  0  0  0  0  0  0  0
  150.9739  131.5728  155.5666 N   0  0  0  0  0  0  0  0  0  0  0  0
  149.7570  127.9322  153.3816 H   0  0  0  0  0  0  0  0  0  0  0  0
  150.0030  129.3817  152.4130 H   0  0  0  0  0  0  0  0  0  0  0  0
  148.5367  129.2004  153.4023 H   0  0  0  0  0  0  0  0  0  0  0  0
  148.7360  131.2206  153.0510 H   0  0  0  0  0  0  0  0  0  0  0  0
  148.7116  134.7315  152.8541 H   0  0  0  0  0  0  0  0  0  0  0  0
  147.1790  135.1951  151.7222 H   0  0  0  0  0  0  0  0  0  0  0  0
  144.6032  134.0067  151.9510 H   0  0  0  0  0  0  0  0  0  0  0  0
  144.0383  135.5254  150.0600 H   0  0  0  0  0  0  0  0  0  0  0  0
  145.7475  135.8642  149.8032 H   0  0  0  0  0  0  0  0  0  0  0  0
  144.9569  136.3767  151.2925 H   0  0  0  0  0  0  0  0  0  0  0  0
  146.2083  133.1148  149.5198 H   0  0  0  0  0  0  0  0  0  0  0  0
  143.1286  133.1064  149.9148 H   0  0  0  0  0  0  0  0  0  0  0  0
  144.0689  132.3735  148.5138 H   0  0  0  0  0  0  0  0  0  0  0  0
  145.3032  130.8816  150.1265 H   0  0  0  0  0  0  0  0  0  0  0  0
  144.3612  131.6168  151.5247 H   0  0  0  0  0  0  0  0  0  0  0  0
  151.4681  133.3780  156.4234 H   0  0  0  0  0  0  0  0  0  0  0  0
  1  2  1  0  0  0  0
  1 18  1  0  0  0  0
  1 19  1  0  0  0  0
  1 20  1  0  0  0  0
  2  3  1  0  0  0  0
  3 17  1  0  0  0  0
  3  4  2  0  0  0  0
  4  5  1  0  0  0  0
  4 21  1  0  0  0  0
  5  6  1  0  0  0  0
  5 15  2  0  0  0  0
  6  7  1  0  0  0  0
  6 22  1  0  0  0  0
  7  8  2  0  0  0  0
  7  9  1  0  0  0  0
  9 10  1  0  0  0  0
  9 23  1  0  0  0  0
 10 11  1  0  0  0  0
 10 12  1  0  0  0  0
 10 24  1  0  0  0  0
 11 25  1  0  0  0  0
 11 26  1  0  0  0  0
 11 27  1  0  0  0  0
 12 14  1  0  0  0  0
 12 13  1  0  0  0  0
 12 28  1  0  0  0  0
 13 14  1  0  0  0  0
 13 29  1  0  0  0  0
 13 30  1  0  0  0  0
 14 31  1  0  0  0  0
 14 32  1  0  0  0  0
 15 16  1  0  0  0  0
 16 17  2  0  0  0  0
 16 33  1  0  0  0  0
M  END
> <s_m_source_file>
AV-unprocessed.smi

> <i_m_source_file_index>
2470

> <i_lp_mmshare_version>
43012

> <i_f3d_flags>
0

> <s_epik_input>
W0NIM11PYzFbY0hdYyhuW2NIXW4xKVtOSF1DKD1PKVtOSF1bQ0BIXShbQ0gzXSlbQ0hdMltDSDJdW0NIMl0y

> <s_epik_cmdline>
J2VwaWtfcHl0aG9uJywgJy1waCcsICc3LjAnLCAnLXRuJywgJzgnLCAnLW1hJywgJzIwMCcsICctbWV0YWxfYmluZGluZycsICctaW1hZScsICc8aW5maWxlLm1hZT4nLCAnLW9tYWUnLCAnPG91dGZpbGUubWFlPic=

> <r_lp_tautomer_probability>
1

> <r_epik_Ionization_Penalty>
2.81207e-05

> <r_epik_Ionization_Penalty_Charging>
0

> <r_epik_Ionization_Penalty_Neutral>
2.81207e-05

> <r_epik_State_Penalty>
-0

> <r_epik_Charging_Adjusted_Penalty>
0

> <i_epik_Tot_Q>
0

> <i_epik_Tot_abs_Q>
0

> <r_epik_Metal_State_Penalty>
-0

> <b_epik_Metal_Only>
0

> <s_lp_Force_Field>
OPLS_2005

> <r_lp_Energy>
11.1381

> <b_lp_Chiralities_Consistent>
1

> <s_lp_Variant>
AV-unprocessed.smi:2470-2

> <Gold.Version>
5.8.1

> <Gold.Id.Protein>
6NUR|6NUR_protein|mol2

> <Gold.PLP.Fitness>
36.4898

> <Gold.PLP.PLP>
-31.4257

> <Gold.PLP.part.hbond>
-2.0000

> <Gold.PLP.part.metal>
0.0000

> <Gold.PLP.part.buried>
-4.3063

> <Gold.PLP.part.nonpolar>
-24.7575

> <Gold.PLP.part.repulsive>
0.2854

> <Gold.PLP.ligand.clash>
0.1014

> <Gold.PLP.ligand.torsion>
0.9413

> <Gold.PLP.Chemscore.Hbond>
1.9920

> <Gold.PLP.Chemscore.CHOScore>
0.0000

> <Gold.PLP.Chemscore.Metal>
0.0000

> <Gold.Chemscore.Hbonds>
donor molecule, donor type, donor heavy atom, donor atom, acceptor molecule, acceptor atom, score
      L1  H     6    22       P1  7948  0.85
      L1  H     9    23       P1  7948  0.98

> <Gold.PLP.Chemscore.Internal.Correction>
1.0721

> <Gold.Rescore>
     Score         DG    S(hbond)    S(metal)    S(lipo)     H(rot)  DE(clash)    DE(int)     intcor
      9.86     -12.10       1.42        0.00      51.14       1.61       0.00       2.24       ----

> <Gold.Chemscore.Fitness>
9.8583

> <Gold.Chemscore.DG>
-12.0981

> <Gold.Chemscore.ZeroCoef>
-5.4800

> <Gold.Chemscore.Hbond>
1.4249

> <Gold.Chemscore.Metal>
0.0000

> <Gold.Chemscore.Lipo>
51.1356

> <Gold.Chemscore.Internal_Hbond>
0.0000

> <Gold.Chemscore.DEClash>
0.0000

> <Gold.Chemscore.DEInternal>
2.2398

> <Gold.Chemscore.Rot>
1.6109

> <Gold.Chemscore.Internal.Correction>
   9.000000E+99

> <Gold.Chemscore.Hbonds>
donor molecule, donor type, donor heavy atom, donor atom, acceptor molecule, acceptor atom, score
      L1  H     6    22       P1  7948  0.15
      L1  H     9    23       P1  7948  0.84

> <Gold.Chemscore.Hbond.Weighted>
-4.7592

> <Gold.Chemscore.Metal.Weighted>
-0.0000

> <Gold.Chemscore.Lipo.Weighted>
-5.9829

> <Gold.Chemscore.Internal_Hbond.Weighted>
0.0000

> <Gold.Chemscore.DEClash.Weighted>
0.0000

> <Gold.Chemscore.DEInternal.Weighted>
2.2398

> <Gold.Chemscore.Rot.Weighted>
4.1240

> <Gold.Chemscore.Internal.Correction.Weighted>
   9.000000E+99

> <Gold.Protein.RotatedTorsions>
[ 6907 6896 6895 6894 ] final  -56.59 input  -60.11 | X-H torsion
[ 7974 7965 7964 7962 ] final -121.29 input  175.53 | X-H torsion
[ 8008 7997 7996 7995 ] final -129.46 input   59.86 | X-H torsion
[ 10167 10162 10161 10158 ] final  120.94 input  -65.29 | X-H torsion
[ 10718 10713 10712 10709 ] final  125.22 input   66.30 | X-H torsion
[ 10763 10752 10751 10750 ] final  121.60 input  -60.55 | X-H torsion
[ 11005 11000 10999 10996 ] final  174.35 input  -57.11 | X-H torsion

> <Gold.Protein.ActiveResidues>
 VAL166  LYS551  ARG553  GLY616  TRP617  ASP618  TYR619  PRO620  LYS621  CYS622 
 ASP623  PHE694  ASN695  SER759  ASP760  ASP761  ALA762  ILE779  LEU786  VAL792 
 PHE793  MET794  SER795  GLU796  ALA797  LYS798  CYS799  TRP800  GLU811  SER814 

> <Gold.Protein.RotatedAtoms>
  150.8155  134.7334  159.6725 H   0  0  0  0  0  0  0  0  0  0  0  0  # atno 6907 bound_to 6896
  152.4274  134.5840  159.9965 H   0  0  0  0  0  0  0  0  0  0  0  0  # atno 6908 bound_to 6896
  151.6038  133.3316  159.3089 H   0  0  0  0  0  0  0  0  0  0  0  0  # atno 6909 bound_to 6896
  145.0420  140.8152  143.4261 H   0  0  0  0  0  0  0  0  0  0  0  0  # atno 7974 bound_to 7965
  155.2795  140.0443  157.3014 H   0  0  0  0  0  0  0  0  0  0  0  0  # atno 8008 bound_to 7997
  154.5605  140.2344  155.8311 H   0  0  0  0  0  0  0  0  0  0  0  0  # atno 8009 bound_to 7997
  156.2043  140.3017  155.9601 H   0  0  0  0  0  0  0  0  0  0  0  0  # atno 8010 bound_to 7997
  139.5950  144.7038  151.3197 H   0  0  0  0  0  0  0  0  0  0  0  0  # atno 10167 bound_to 10162
  157.5521  131.1093  150.8684 H   0  0  0  0  0  0  0  0  0  0  0  0  # atno 10718 bound_to 10713
  153.6167  135.3420  155.2997 H   0  0  0  0  0  0  0  0  0  0  0  0  # atno 10763 bound_to 10752
  154.8608  135.4263  154.2252 H   0  0  0  0  0  0  0  0  0  0  0  0  # atno 10764 bound_to 10752
  153.3115  135.7032  153.7184 H   0  0  0  0  0  0  0  0  0  0  0  0  # atno 10765 bound_to 10752
  140.3504  134.7200  157.4264 H   0  0  0  0  0  0  0  0  0  0  0  0  # atno 11005 bound_to 11000
  145.1636  139.2444  143.5379 LP  0  0  0  0  0  0  0  0  0  0  0  0  # atno 17320 bound_to 7965
  146.3510  140.1369  142.8595 LP  0  0  0  0  0  0  0  0  0  0  0  0  # atno 17321 bound_to 7965
  140.7205  143.7150  150.7740 LP  0  0  0  0  0  0  0  0  0  0  0  0  # atno 17342 bound_to 10162
  140.0714  143.5057  152.2578 LP  0  0  0  0  0  0  0  0  0  0  0  0  # atno 17343 bound_to 10162
  156.9206  130.5313  149.5279 LP  0  0  0  0  0  0  0  0  0  0  0  0  # atno 17370 bound_to 10713
  156.0586  130.5643  150.9144 LP  0  0  0  0  0  0  0  0  0  0  0  0  # atno 17371 bound_to 10713
  140.0708  134.5865  155.8644 LP  0  0  0  0  0  0  0  0  0  0  0  0  # atno 17394 bound_to 11000
  141.2014  133.6618  156.5947 LP  0  0  0  0  0  0  0  0  0  0  0  0  # atno 17395 bound_to 11000

$$$$
