AV-unprocessed.smi:2157|AV-procd|sdf|8786|dock9
  -GOLD-   2272011563D 1   1.00000     0.00000
 Structure written by MMmdl.
 41 42  0  0  0  0  0  0  0  0  1 V2000
  153.0971  142.0051  161.1644 C   0  0  0  0  0  0  0  0  0  0  0  0
  152.1972  142.8551  160.2565 C   0  0  1  0  0  0  0  0  0  0  0  0
  151.7896  144.1730  160.9426 C   0  0  0  0  0  0  0  0  0  0  0  0
  150.8899  145.0276  160.0360 C   0  0  0  0  0  0  0  0  0  0  0  0
  151.5624  145.3062  158.6806 C   0  0  0  0  0  0  0  0  0  0  0  0
  152.0000  144.0105  157.9705 C   0  0  2  0  0  0  0  0  0  0  0  0
  150.8296  143.2750  157.4942 N   0  0  0  0  0  0  0  0  0  0  0  0
  150.8137  141.9837  157.1315 C   0  0  0  0  0  0  0  0  0  0  0  0
  151.8088  141.2584  157.1696 O   0  0  0  0  0  0  0  0  0  0  0  0
  149.4545  141.4314  156.6816 C   0  0  0  0  0  0  0  0  0  0  0  0
  149.4842  139.9942  156.3810 N   0  0  0  0  0  0  0  0  0  0  0  0
  148.6029  139.1426  157.0220 C   0  0  0  0  0  0  0  0  0  0  0  0
  148.5739  137.8079  156.8159 C   0  0  0  0  0  0  0  0  0  0  0  0
  149.4927  137.1760  155.8773 C   0  0  0  0  0  0  0  0  0  0  0  0
  149.5176  135.9615  155.6738 O   0  0  0  0  0  0  0  0  0  0  0  0
  150.3720  138.0708  155.2227 N   0  0  0  0  0  0  0  0  0  0  0  0
  151.3302  137.5140  154.2901 C   0  0  0  0  0  0  0  0  0  0  0  0
  150.4115  139.4642  155.4581 C   0  0  0  0  0  0  0  0  0  0  0  0
  151.2232  140.2018  154.8936 O   0  0  0  0  0  0  0  0  0  0  0  0
  152.8750  143.1409  158.9000 C   0  0  0  0  0  0  0  0  0  0  0  0
  154.0285  142.5225  161.3965 H   0  0  0  0  0  0  0  0  0  0  0  0
  153.3520  141.0578  160.6883 H   0  0  0  0  0  0  0  0  0  0  0  0
  152.5993  141.7762  162.1070 H   0  0  0  0  0  0  0  0  0  0  0  0
  151.2900  142.2789  160.0687 H   0  0  0  0  0  0  0  0  0  0  0  0
  151.2694  143.9618  161.8776 H   0  0  0  0  0  0  0  0  0  0  0  0
  152.6816  144.7423  161.2080 H   0  0  0  0  0  0  0  0  0  0  0  0
  149.9386  144.5179  159.8795 H   0  0  0  0  0  0  0  0  0  0  0  0
  150.6541  145.9696  160.5314 H   0  0  0  0  0  0  0  0  0  0  0  0
  150.8919  145.8811  158.0404 H   0  0  0  0  0  0  0  0  0  0  0  0
  152.4382  145.9359  158.8430 H   0  0  0  0  0  0  0  0  0  0  0  0
  152.5946  144.2948  157.1003 H   0  0  0  0  0  0  0  0  0  0  0  0
  149.9638  143.7915  157.4363 H   0  0  0  0  0  0  0  0  0  0  0  0
  148.7297  141.6306  157.4721 H   0  0  0  0  0  0  0  0  0  0  0  0
  149.1002  141.9878  155.8117 H   0  0  0  0  0  0  0  0  0  0  0  0
  147.9044  139.5628  157.7309 H   0  0  0  0  0  0  0  0  0  0  0  0
  147.8634  137.1989  157.3552 H   0  0  0  0  0  0  0  0  0  0  0  0
  151.5564  138.2479  153.5155 H   0  0  0  0  0  0  0  0  0  0  0  0
  150.8995  136.6374  153.8044 H   0  0  0  0  0  0  0  0  0  0  0  0
  152.2193  137.2554  154.8671 H   0  0  0  0  0  0  0  0  0  0  0  0
  153.8205  143.6563  159.0751 H   0  0  0  0  0  0  0  0  0  0  0  0
  153.1341  142.2040  158.4052 H   0  0  0  0  0  0  0  0  0  0  0  0
  1  2  1  0  0  0  0
  1 21  1  0  0  0  0
  1 22  1  0  0  0  0
  1 23  1  0  0  0  0
  2 20  1  0  0  0  0
  2  3  1  0  0  0  0
  2 24  1  0  0  0  0
  3  4  1  0  0  0  0
  3 25  1  0  0  0  0
  3 26  1  0  0  0  0
  4  5  1  0  0  0  0
  4 27  1  0  0  0  0
  4 28  1  0  0  0  0
  5  6  1  0  0  0  0
  5 29  1  0  0  0  0
  5 30  1  0  0  0  0
  6  7  1  0  0  0  0
  6 20  1  0  0  0  0
  6 31  1  0  0  0  0
  7  8  1  0  0  0  0
  7 32  1  0  0  0  0
  8  9  2  0  0  0  0
  8 10  1  0  0  0  0
 10 11  1  0  0  0  0
 10 33  1  0  0  0  0
 10 34  1  0  0  0  0
 11 18  1  0  0  0  0
 11 12  1  0  0  0  0
 12 13  2  0  0  0  0
 12 35  1  0  0  0  0
 13 14  1  0  0  0  0
 13 36  1  0  0  0  0
 14 15  2  0  0  0  0
 14 16  1  0  0  0  0
 16 17  1  0  0  0  0
 16 18  1  0  0  0  0
 17 37  1  0  0  0  0
 17 38  1  0  0  0  0
 17 39  1  0  0  0  0
 18 19  2  0  0  0  0
 20 40  1  0  0  0  0
 20 41  1  0  0  0  0
M  END
> <s_m_source_file>
AV-unprocessed.smi

> <i_m_source_file_index>
2157

> <i_lp_mmshare_version>
43012

> <i_f3d_flags>
0

> <s_epik_input>
W0NIM11bQ0BASF0xW0NIMl1bQ0gyXVtDSDJdW0NASF0oW0NIMl0xKVtOSF1DKD1PKVtDSDJdbjJbY0hdW2NIXWMoPU8pbihbQ0gzXSljMj1P

> <s_epik_cmdline>
J2VwaWtfcHl0aG9uJywgJy1waCcsICc3LjAnLCAnLXRuJywgJzgnLCAnLW1hJywgJzIwMCcsICctbWV0YWxfYmluZGluZycsICctaW1hZScsICc8aW5maWxlLm1hZT4nLCAnLW9tYWUnLCAnPG91dGZpbGUubWFlPic=

> <r_lp_tautomer_probability>
1

> <r_epik_Ionization_Penalty>
3.1838e-08

> <r_epik_Ionization_Penalty_Charging>
1.27911e-08

> <r_epik_Ionization_Penalty_Neutral>
1.90469e-08

> <r_epik_State_Penalty>
-0

> <r_epik_Charging_Adjusted_Penalty>
1.27911e-08

> <i_epik_Tot_Q>
0

> <i_epik_Tot_abs_Q>
0

> <r_epik_Metal_State_Penalty>
-0

> <b_epik_Metal_Only>
0

> <s_lp_Force_Field>
OPLS_2005

> <r_lp_Energy>
16.1054

> <b_lp_Chiralities_Consistent>
1

> <s_lp_Variant>
AV-unprocessed.smi:2157-4

> <Gold.Version>
5.8.1

> <Gold.Id.Protein>
6NUR|6NUR_protein|mol2

> <Gold.PLP.Fitness>
42.9489

> <Gold.PLP.PLP>
-39.6910

> <Gold.PLP.part.hbond>
-2.0000

> <Gold.PLP.part.metal>
0.0000

> <Gold.PLP.part.buried>
-4.1376

> <Gold.PLP.part.nonpolar>
-33.9501

> <Gold.PLP.part.repulsive>
0.1576

> <Gold.PLP.ligand.clash>
0.0000

> <Gold.PLP.ligand.torsion>
0.2968

> <Gold.PLP.Chemscore.Hbond>
1.2808

> <Gold.PLP.Chemscore.CHOScore>
0.0000

> <Gold.PLP.Chemscore.Metal>
0.0000

> <Gold.Chemscore.Hbonds>
donor molecule, donor type, donor heavy atom, donor atom, acceptor molecule, acceptor atom, score
      L1  H     7    32       P1  8028  0.28
      P1  H  7989  7998       L1    19  1.00

> <Gold.PLP.Chemscore.Internal.Correction>
0.0091

> <Gold.Rescore>
     Score         DG    S(hbond)    S(metal)    S(lipo)     H(rot)  DE(clash)    DE(int)     intcor
     16.51     -19.19       1.88        0.00      96.93       1.52       0.66       2.02       ----

> <Gold.Chemscore.Fitness>
16.5092

> <Gold.Chemscore.DG>
-19.1949

> <Gold.Chemscore.ZeroCoef>
-5.4800

> <Gold.Chemscore.Hbond>
1.8789

> <Gold.Chemscore.Metal>
0.0000

> <Gold.Chemscore.Lipo>
96.9348

> <Gold.Chemscore.Internal_Hbond>
0.0000

> <Gold.Chemscore.DEClash>
0.6643

> <Gold.Chemscore.DEInternal>
2.0214

> <Gold.Chemscore.Rot>
1.5242

> <Gold.Chemscore.Internal.Correction>
   9.000000E+99

> <Gold.Chemscore.Hbonds>
donor molecule, donor type, donor heavy atom, donor atom, acceptor molecule, acceptor atom, score
      L1  H     7    32       P1  8028  0.22
      P1  H  7989  7998       L1    19  0.98

> <Gold.Chemscore.Hbond.Weighted>
-6.2754

> <Gold.Chemscore.Metal.Weighted>
-0.0000

> <Gold.Chemscore.Lipo.Weighted>
-11.3414

> <Gold.Chemscore.Internal_Hbond.Weighted>
0.0000

> <Gold.Chemscore.DEClash.Weighted>
0.6643

> <Gold.Chemscore.DEInternal.Weighted>
2.0214

> <Gold.Chemscore.Rot.Weighted>
3.9019

> <Gold.Chemscore.Internal.Correction.Weighted>
   9.000000E+99

> <Gold.Protein.RotatedTorsions>
[ 6907 6896 6895 6894 ] final -124.83 input  -60.11 | X-H torsion
[ 7974 7965 7964 7962 ] final  -44.33 input  175.53 | X-H torsion
[ 8008 7997 7996 7995 ] final   -7.43 input   59.86 | X-H torsion
[ 10167 10162 10161 10158 ] final -163.90 input  -65.29 | X-H torsion
[ 10718 10713 10712 10709 ] final   84.59 input   66.30 | X-H torsion
[ 10763 10752 10751 10750 ] final  -69.12 input  -60.55 | X-H torsion
[ 11005 11000 10999 10996 ] final -125.67 input  -57.11 | X-H torsion

> <Gold.Protein.ActiveResidues>
 VAL166  LYS551  ARG553  GLY616  TRP617  ASP618  TYR619  PRO620  LYS621  CYS622 
 ASP623  PHE694  ASN695  SER759  ASP760  ASP761  ALA762  ILE779  LEU786  VAL792 
 PHE793  MET794  SER795  GLU796  ALA797  LYS798  CYS799  TRP800  GLU811  SER814 

> <Gold.Protein.RotatedAtoms>
  150.8807  133.7376  159.2932 H   0  0  0  0  0  0  0  0  0  0  0  0  # atno 6907 bound_to 6896
  151.4958  135.1058  159.9825 H   0  0  0  0  0  0  0  0  0  0  0  0  # atno 6908 bound_to 6896
  152.4758  133.8089  159.7048 H   0  0  0  0  0  0  0  0  0  0  0  0  # atno 6909 bound_to 6896
  145.9931  140.7159  142.9307 H   0  0  0  0  0  0  0  0  0  0  0  0  # atno 7974 bound_to 7965
  154.5839  140.2407  155.8014 H   0  0  0  0  0  0  0  0  0  0  0  0  # atno 8008 bound_to 7997
  156.2199  140.3000  155.9884 H   0  0  0  0  0  0  0  0  0  0  0  0  # atno 8009 bound_to 7997
  155.2491  140.0410  157.2975 H   0  0  0  0  0  0  0  0  0  0  0  0  # atno 8010 bound_to 7997
  139.6288  144.0479  152.1998 H   0  0  0  0  0  0  0  0  0  0  0  0  # atno 10167 bound_to 10162
  157.6901  131.0139  150.2696 H   0  0  0  0  0  0  0  0  0  0  0  0  # atno 10718 bound_to 10713
  154.3989  135.6035  153.5885 H   0  0  0  0  0  0  0  0  0  0  0  0  # atno 10763 bound_to 10752
  152.9788  135.5901  154.4208 H   0  0  0  0  0  0  0  0  0  0  0  0  # atno 10764 bound_to 10752
  154.4004  135.2843  155.2078 H   0  0  0  0  0  0  0  0  0  0  0  0  # atno 10765 bound_to 10752
  140.9743  134.0762  157.3835 H   0  0  0  0  0  0  0  0  0  0  0  0  # atno 11005 bound_to 11000
  144.6895  140.3103  143.7249 LP  0  0  0  0  0  0  0  0  0  0  0  0  # atno 17320 bound_to 7965
  145.7601  139.1822  143.2272 LP  0  0  0  0  0  0  0  0  0  0  0  0  # atno 17321 bound_to 7965
  140.0140  144.6203  150.7623 LP  0  0  0  0  0  0  0  0  0  0  0  0  # atno 17342 bound_to 10162
  140.7427  143.2835  151.3529 LP  0  0  0  0  0  0  0  0  0  0  0  0  # atno 17343 bound_to 10162
  156.3261  130.3793  149.7532 LP  0  0  0  0  0  0  0  0  0  0  0  0  # atno 17370 bound_to 10713
  156.5087  130.8162  151.3160 LP  0  0  0  0  0  0  0  0  0  0  0  0  # atno 17371 bound_to 10713
  139.8924  135.0124  156.6845 LP  0  0  0  0  0  0  0  0  0  0  0  0  # atno 17394 bound_to 11000
  140.7282  133.9082  155.8193 LP  0  0  0  0  0  0  0  0  0  0  0  0  # atno 17395 bound_to 11000

$$$$
