AV-unprocessed.smi:3335|AV-procd|sdf|12848|dock3
  -GOLD-   2272019233D 1   1.00000     0.00000
 Structure written by MMmdl.
 46 47  0  0  0  0  0  0  0  0  1 V2000
  151.8748  145.6386  160.1668 C   0  0  0  0  0  0  0  0  0  0  0  0
  151.8390  144.4207  159.2895 C   0  0  0  0  0  0  0  0  0  0  0  0
  151.2432  144.2883  158.0034 C   0  0  0  0  0  0  0  0  0  0  0  0
  151.3876  143.0770  157.4920 N   0  0  0  0  0  0  0  0  0  0  0  0
  152.0776  142.3913  158.4311 N   0  0  0  0  0  0  0  0  0  0  0  0
  152.4361  140.9956  158.2093 C   0  0  1  0  0  0  0  0  0  0  0  0
  152.7047  140.2995  159.5576 C   0  0  0  0  0  0  0  0  0  0  0  0
  151.3773  140.2555  157.3467 C   0  0  1  0  0  0  0  0  0  0  0  0
  151.2901  140.7798  155.9007 C   0  0  0  0  0  0  0  0  0  0  0  0
  151.7266  138.8364  157.2677 N   0  0  0  0  0  0  0  0  0  0  0  0
  150.6797  137.9754  156.6864 C   0  0  2  0  0  0  0  0  0  0  0  0
  149.4739  137.9162  157.6360 C   0  0  0  0  0  0  0  0  0  0  0  0
  151.1769  136.5443  156.3805 C   0  0  0  0  0  0  0  0  0  0  0  0
  152.3034  136.2175  156.7584 O   0  0  0  0  0  0  0  0  0  0  0  0
  150.3765  135.6882  155.7085 N   0  0  0  0  0  0  0  0  0  0  0  0
  150.7083  134.3223  155.3035 C   0  0  0  0  0  0  0  0  0  0  0  0
  149.5842  133.8798  154.3667 C   0  0  0  0  0  0  0  0  0  0  0  0
  148.3946  134.7312  154.7848 C   0  0  0  0  0  0  0  0  0  0  0  0
  149.0252  136.0360  155.2715 C   0  0  0  0  0  0  0  0  0  0  0  0
  152.3628  143.1812  159.5254 C   0  0  0  0  0  0  0  0  0  0  0  0
  150.9449  145.7596  160.7224 H   0  0  0  0  0  0  0  0  0  0  0  0
  152.0244  146.5494  159.5866 H   0  0  0  0  0  0  0  0  0  0  0  0
  152.6823  145.5882  160.8975 H   0  0  0  0  0  0  0  0  0  0  0  0
  150.7132  145.0337  157.4289 H   0  0  0  0  0  0  0  0  0  0  0  0
  153.3760  141.0055  157.6547 H   0  0  0  0  0  0  0  0  0  0  0  0
  153.1329  139.3076  159.4151 H   0  0  0  0  0  0  0  0  0  0  0  0
  151.7895  140.1858  160.1392 H   0  0  0  0  0  0  0  0  0  0  0  0
  153.4127  140.8710  160.1588 H   0  0  0  0  0  0  0  0  0  0  0  0
  150.3987  140.3972  157.8074 H   0  0  0  0  0  0  0  0  0  0  0  0
  150.9468  141.8138  155.8678 H   0  0  0  0  0  0  0  0  0  0  0  0
  150.5853  140.1951  155.3088 H   0  0  0  0  0  0  0  0  0  0  0  0
  152.2592  140.7358  155.4025 H   0  0  0  0  0  0  0  0  0  0  0  0
  152.6049  138.7263  156.7811 H   0  0  0  0  0  0  0  0  0  0  0  0
  150.3465  138.4610  155.7712 H   0  0  0  0  0  0  0  0  0  0  0  0
  148.6631  137.3240  157.2099 H   0  0  0  0  0  0  0  0  0  0  0  0
  149.0805  138.9144  157.8300 H   0  0  0  0  0  0  0  0  0  0  0  0
  149.7405  137.4730  158.5964 H   0  0  0  0  0  0  0  0  0  0  0  0
  151.6762  134.2633  154.8039 H   0  0  0  0  0  0  0  0  0  0  0  0
  150.7382  133.6853  156.1889 H   0  0  0  0  0  0  0  0  0  0  0  0
  149.8544  134.1132  153.3360 H   0  0  0  0  0  0  0  0  0  0  0  0
  149.3812  132.8102  154.4247 H   0  0  0  0  0  0  0  0  0  0  0  0
  147.6768  134.8829  153.9782 H   0  0  0  0  0  0  0  0  0  0  0  0
  147.8721  134.2471  155.6109 H   0  0  0  0  0  0  0  0  0  0  0  0
  148.4365  136.4840  156.0738 H   0  0  0  0  0  0  0  0  0  0  0  0
  149.0907  136.7573  154.4555 H   0  0  0  0  0  0  0  0  0  0  0  0
  152.9128  142.8003  160.3735 H   0  0  0  0  0  0  0  0  0  0  0  0
  1  2  1  0  0  0  0
  1 21  1  0  0  0  0
  1 22  1  0  0  0  0
  1 23  1  0  0  0  0
  2 20  2  0  0  0  0
  2  3  1  0  0  0  0
  3  4  2  0  0  0  0
  3 24  1  0  0  0  0
  4  5  1  0  0  0  0
  5  6  1  0  0  0  0
  5 20  1  0  0  0  0
  6  7  1  0  0  0  0
  6  8  1  0  0  0  0
  6 25  1  0  0  0  0
  7 26  1  0  0  0  0
  7 27  1  0  0  0  0
  7 28  1  0  0  0  0
  8  9  1  0  0  0  0
  8 10  1  0  0  0  0
  8 29  1  0  0  0  0
  9 30  1  0  0  0  0
  9 31  1  0  0  0  0
  9 32  1  0  0  0  0
 10 11  1  0  0  0  0
 10 33  1  0  0  0  0
 11 12  1  0  0  0  0
 11 13  1  0  0  0  0
 11 34  1  0  0  0  0
 12 35  1  0  0  0  0
 12 36  1  0  0  0  0
 12 37  1  0  0  0  0
 13 14  2  0  0  0  0
 13 15  1  0  0  0  0
 15 19  1  0  0  0  0
 15 16  1  0  0  0  0
 16 17  1  0  0  0  0
 16 38  1  0  0  0  0
 16 39  1  0  0  0  0
 17 18  1  0  0  0  0
 17 40  1  0  0  0  0
 17 41  1  0  0  0  0
 18 19  1  0  0  0  0
 18 42  1  0  0  0  0
 18 43  1  0  0  0  0
 19 44  1  0  0  0  0
 19 45  1  0  0  0  0
 20 46  1  0  0  0  0
M  END
> <s_m_source_file>
AV-unprocessed.smi

> <i_m_source_file_index>
3335

> <i_lp_mmshare_version>
43012

> <i_f3d_flags>
0

> <s_epik_input>
W0NIM11jMVtjSF1ubihbY0hdMSlbQ0BIXShbQ0gzXSlbQ0BIXShbQ0gzXSlbTkhdW0NASF0oW0NIM10pQyg9TylOMltDSDJdW0NIMl1bQ0gyXVtDSDJdMg==

> <s_epik_cmdline>
J2VwaWtfcHl0aG9uJywgJy1waCcsICc3LjAnLCAnLXRuJywgJzgnLCAnLW1hJywgJzIwMCcsICctbWV0YWxfYmluZGluZycsICctaW1hZScsICc8aW5maWxlLm1hZT4nLCAnLW9tYWUnLCAnPG91dGZpbGUubWFlPic=

> <r_lp_tautomer_probability>
1

> <r_epik_Ionization_Penalty>
0.918803

> <r_epik_Ionization_Penalty_Charging>
0

> <r_epik_Ionization_Penalty_Neutral>
0.918803

> <r_epik_State_Penalty>
0.958258

> <r_epik_Charging_Adjusted_Penalty>
0.958258

> <i_epik_Tot_Q>
0

> <i_epik_Tot_abs_Q>
0

> <r_epik_Metal_State_Penalty>
0.956786

> <b_epik_Metal_Only>
0

> <s_lp_Force_Field>
OPLS_2005

> <r_lp_Energy>
37.1843

> <b_lp_Chiralities_Consistent>
1

> <s_lp_Variant>
AV-unprocessed.smi:3335-12

> <Gold.Version>
5.8.1

> <Gold.Id.Protein>
6NUR|6NUR_protein|mol2

> <Gold.PLP.Fitness>
41.0487

> <Gold.PLP.PLP>
-36.7927

> <Gold.PLP.part.hbond>
-1.0000

> <Gold.PLP.part.metal>
0.0000

> <Gold.PLP.part.buried>
-4.5420

> <Gold.PLP.part.nonpolar>
-29.8789

> <Gold.PLP.part.repulsive>
0.1037

> <Gold.PLP.ligand.clash>
0.0000

> <Gold.PLP.ligand.torsion>
0.9204

> <Gold.PLP.Chemscore.Hbond>
1.0000

> <Gold.PLP.Chemscore.CHOScore>
1.0000

> <Gold.PLP.Chemscore.Metal>
0.0000

> <Gold.Chemscore.Hbonds>
donor molecule, donor type, donor heavy atom, donor atom, acceptor molecule, acceptor atom, score
      P1  H 10752 10763       L1    14  1.00
      L1  C     3    24       P1  8028  1.00

> <Gold.PLP.Chemscore.Internal.Correction>
0.0968

> <Gold.Rescore>
     Score         DG    S(hbond)    S(metal)    S(lipo)     H(rot)  DE(clash)    DE(int)     intcor
     12.75     -15.89       0.99        0.00      96.08       1.62       0.06       3.08       ----

> <Gold.Chemscore.Fitness>
12.7542

> <Gold.Chemscore.DG>
-15.8892

> <Gold.Chemscore.ZeroCoef>
-5.4800

> <Gold.Chemscore.Hbond>
0.9927

> <Gold.Chemscore.Metal>
0.0000

> <Gold.Chemscore.Lipo>
96.0835

> <Gold.Chemscore.Internal_Hbond>
0.0000

> <Gold.Chemscore.DEClash>
0.0597

> <Gold.Chemscore.DEInternal>
3.0753

> <Gold.Chemscore.Rot>
1.6204

> <Gold.Chemscore.Internal.Correction>
   9.000000E+99

> <Gold.Chemscore.Hbonds>
donor molecule, donor type, donor heavy atom, donor atom, acceptor molecule, acceptor atom, score
      P1  H 10752 10763       L1    14  0.71

> <Gold.Chemscore.Hbond.Weighted>
-3.3156

> <Gold.Chemscore.Metal.Weighted>
-0.0000

> <Gold.Chemscore.Lipo.Weighted>
-11.2418

> <Gold.Chemscore.Internal_Hbond.Weighted>
0.0000

> <Gold.Chemscore.DEClash.Weighted>
0.0597

> <Gold.Chemscore.DEInternal.Weighted>
3.0753

> <Gold.Chemscore.Rot.Weighted>
4.1482

> <Gold.Chemscore.Internal.Correction.Weighted>
   9.000000E+99

> <Gold.Protein.RotatedTorsions>
[ 6907 6896 6895 6894 ] final  -94.28 input  -60.11 | X-H torsion
[ 7974 7965 7964 7962 ] final  -16.98 input  175.53 | X-H torsion
[ 8008 7997 7996 7995 ] final  -94.77 input   59.86 | X-H torsion
[ 10167 10162 10161 10158 ] final  120.32 input  -65.29 | X-H torsion
[ 10718 10713 10712 10709 ] final   19.51 input   66.30 | X-H torsion
[ 10763 10752 10751 10750 ] final  103.94 input  -60.55 | X-H torsion
[ 11005 11000 10999 10996 ] final -117.70 input  -57.11 | X-H torsion

> <Gold.Protein.ActiveResidues>
 VAL166  LYS551  ARG553  GLY616  TRP617  ASP618  TYR619  PRO620  LYS621  CYS622 
 ASP623  PHE694  ASN695  SER759  ASP760  ASP761  ALA762  ILE779  LEU786  VAL792 
 PHE793  MET794  SER795  GLU796  ALA797  LYS798  CYS799  TRP800  GLU811  SER814 

> <Gold.Protein.RotatedAtoms>
  150.6938  134.1837  159.4258 H   0  0  0  0  0  0  0  0  0  0  0  0  # atno 6907 bound_to 6896
  151.9810  135.0026  160.0566 H   0  0  0  0  0  0  0  0  0  0  0  0  # atno 6908 bound_to 6896
  152.1755  133.4637  159.4968 H   0  0  0  0  0  0  0  0  0  0  0  0  # atno 6909 bound_to 6896
  146.1962  140.3714  142.8440 H   0  0  0  0  0  0  0  0  0  0  0  0  # atno 7974 bound_to 7965
  154.7528  140.0486  157.0907 H   0  0  0  0  0  0  0  0  0  0  0  0  # atno 8008 bound_to 7997
  155.0036  140.3127  155.4838 H   0  0  0  0  0  0  0  0  0  0  0  0  # atno 8009 bound_to 7997
  156.2888  140.2197  156.5147 H   0  0  0  0  0  0  0  0  0  0  0  0  # atno 8010 bound_to 7997
  139.5989  144.7050  151.3109 H   0  0  0  0  0  0  0  0  0  0  0  0  # atno 10167 bound_to 10162
  157.1114  130.6510  149.5898 H   0  0  0  0  0  0  0  0  0  0  0  0  # atno 10718 bound_to 10713
  153.3593  135.3960  155.1706 H   0  0  0  0  0  0  0  0  0  0  0  0  # atno 10763 bound_to 10752
  154.8676  135.3675  154.5120 H   0  0  0  0  0  0  0  0  0  0  0  0  # atno 10764 bound_to 10752
  153.5578  135.7081  153.5622 H   0  0  0  0  0  0  0  0  0  0  0  0  # atno 10765 bound_to 10752
  141.0336  133.9943  157.3105 H   0  0  0  0  0  0  0  0  0  0  0  0  # atno 11005 bound_to 11000
  144.8586  140.7107  143.6122 LP  0  0  0  0  0  0  0  0  0  0  0  0  # atno 17320 bound_to 7965
  145.3634  139.1676  143.4371 LP  0  0  0  0  0  0  0  0  0  0  0  0  # atno 17321 bound_to 7965
  140.7234  143.7072  150.7798 LP  0  0  0  0  0  0  0  0  0  0  0  0  # atno 17342 bound_to 10162
  140.0644  143.5123  152.2611 LP  0  0  0  0  0  0  0  0  0  0  0  0  # atno 17343 bound_to 10162
  155.9849  130.4877  150.7008 LP  0  0  0  0  0  0  0  0  0  0  0  0  # atno 17370 bound_to 10713
  157.4556  131.0877  151.0800 LP  0  0  0  0  0  0  0  0  0  0  0  0  # atno 17371 bound_to 10713
  139.9225  135.0201  156.8116 LP  0  0  0  0  0  0  0  0  0  0  0  0  # atno 17394 bound_to 11000
  140.6362  133.9860  155.7685 LP  0  0  0  0  0  0  0  0  0  0  0  0  # atno 17395 bound_to 11000

$$$$
