AV-unprocessed.smi:275|AV-procd|sdf|2062|dock8
  -GOLD-   2262021313D 1   1.00000     0.00000
 Structure written by MMmdl.
 65 69  0  0  0  0  0  0  0  0  1 V2000
  154.7577  139.3358  160.2524 C   0  0  0  0  0  0  0  0  0  0  0  0
  154.2649  140.7976  160.2946 C   0  0  0  0  0  0  0  0  0  0  0  0
  154.5214  141.3973  161.6869 C   0  0  0  0  0  0  0  0  0  0  0  0
  152.8019  141.0394  159.8604 C   0  0  2  0  0  0  0  0  0  0  0  0
  152.4572  140.5118  158.5455 N   0  0  0  0  0  0  0  0  0  0  0  0
  151.9999  139.1675  158.5233 C   0  0  0  0  0  0  0  0  0  0  0  0
  151.8951  138.5492  159.7264 N   0  0  0  0  0  0  0  0  0  0  0  0
  151.4659  137.2877  159.8216 C   0  0  0  0  0  0  0  0  0  0  0  0
  151.0916  136.4597  158.8465 N   0  0  0  0  0  0  0  0  0  0  0  0
  151.1897  137.0646  157.6298 C   0  0  0  0  0  0  0  0  0  0  0  0
  151.6278  138.3971  157.3798 C   0  0  0  0  0  0  0  0  0  0  0  0
  151.5868  138.6501  156.0123 N   0  0  0  0  0  0  0  0  0  0  0  0
  151.1513  137.5374  155.4883 C   0  0  0  0  0  0  0  0  0  0  0  0
  150.8959  136.5295  156.3889 N   0  0  0  0  0  0  0  0  0  0  0  0
  150.4147  135.1921  156.0903 C   0  0  0  0  0  0  0  0  0  0  0  0
  149.3024  135.1721  155.0121 C   0  0  2  0  0  0  0  0  0  0  0  0
  148.1518  136.1600  155.3236 C   0  0  0  0  0  0  0  0  0  0  0  0
  147.3887  136.4455  154.1691 O   0  0  0  0  0  0  0  0  0  0  0  0
  148.7870  133.7346  154.7484 C   0  0  2  0  0  0  0  0  0  0  0  0
  149.8742  132.7052  154.4942 C   0  0  0  0  0  0  0  0  0  0  0  0
  149.0989  131.5742  153.8269 C   0  0  0  0  0  0  0  0  0  0  0  0
  148.0457  132.2019  153.1043 O   0  0  0  0  0  0  0  0  0  0  0  0
  147.9532  133.5743  153.4728 C   0  0  0  0  0  0  0  0  0  0  0  0
  151.4261  141.5254  158.3794 C   0  0  0  0  0  0  0  0  0  0  0  0
  152.2264  142.3910  159.3707 C   0  0  0  0  0  0  0  0  0  0  0  0
  151.4042  143.1439  160.4308 C   0  0  0  0  0  0  0  0  0  0  0  0
  150.6354  144.3473  159.8626 C   0  0  0  0  0  0  0  0  0  0  0  0
  151.5891  145.3415  159.1921 C   0  0  0  0  0  0  0  0  0  0  0  0
  152.4523  144.6409  158.1375 C   0  0  0  0  0  0  0  0  0  0  0  0
  153.1797  143.4176  158.7228 C   0  0  0  0  0  0  0  0  0  0  0  0
  154.1348  138.6766  160.8575 H   0  0  0  0  0  0  0  0  0  0  0  0
  155.7724  139.2638  160.6446 H   0  0  0  0  0  0  0  0  0  0  0  0
  154.7973  138.9362  159.2427 H   0  0  0  0  0  0  0  0  0  0  0  0
  154.9015  141.3577  159.6087 H   0  0  0  0  0  0  0  0  0  0  0  0
  153.9479  140.8781  162.4553 H   0  0  0  0  0  0  0  0  0  0  0  0
  154.2436  142.4511  161.7206 H   0  0  0  0  0  0  0  0  0  0  0  0
  155.5750  141.3293  161.9584 H   0  0  0  0  0  0  0  0  0  0  0  0
  152.1198  140.6504  160.6174 H   0  0  0  0  0  0  0  0  0  0  0  0
  151.4160  136.8851  160.8226 H   0  0  0  0  0  0  0  0  0  0  0  0
  151.0124  137.4172  154.4236 H   0  0  0  0  0  0  0  0  0  0  0  0
  151.2715  134.5990  155.7704 H   0  0  0  0  0  0  0  0  0  0  0  0
  150.0547  134.7388  157.0149 H   0  0  0  0  0  0  0  0  0  0  0  0
  149.7581  135.5214  154.0843 H   0  0  0  0  0  0  0  0  0  0  0  0
  147.4894  135.7608  156.0916 H   0  0  0  0  0  0  0  0  0  0  0  0
  148.5413  137.0954  155.7248 H   0  0  0  0  0  0  0  0  0  0  0  0
  147.9664  136.4534  153.4210 H   0  0  0  0  0  0  0  0  0  0  0  0
  148.1896  133.3983  155.5975 H   0  0  0  0  0  0  0  0  0  0  0  0
  150.6232  133.1016  153.8070 H   0  0  0  0  0  0  0  0  0  0  0  0
  150.3823  132.3798  155.4021 H   0  0  0  0  0  0  0  0  0  0  0  0
  149.7263  130.9678  153.1734 H   0  0  0  0  0  0  0  0  0  0  0  0
  148.6594  130.9185  154.5796 H   0  0  0  0  0  0  0  0  0  0  0  0
  146.9135  133.8710  153.6138 H   0  0  0  0  0  0  0  0  0  0  0  0
  148.3681  134.1738  152.6613 H   0  0  0  0  0  0  0  0  0  0  0  0
  151.3722  141.9260  157.3671 H   0  0  0  0  0  0  0  0  0  0  0  0
  150.4439  141.2337  158.7518 H   0  0  0  0  0  0  0  0  0  0  0  0
  150.6903  142.4690  160.9046 H   0  0  0  0  0  0  0  0  0  0  0  0
  152.0598  143.4843  161.2334 H   0  0  0  0  0  0  0  0  0  0  0  0
  149.8957  144.0020  159.1394 H   0  0  0  0  0  0  0  0  0  0  0  0
  150.0813  144.8451  160.6589 H   0  0  0  0  0  0  0  0  0  0  0  0
  151.0247  146.1552  158.7358 H   0  0  0  0  0  0  0  0  0  0  0  0
  152.2328  145.7945  159.9471 H   0  0  0  0  0  0  0  0  0  0  0  0
  151.8232  144.3274  157.3037 H   0  0  0  0  0  0  0  0  0  0  0  0
  153.1780  145.3432  157.7264 H   0  0  0  0  0  0  0  0  0  0  0  0
  153.9212  143.7521  159.4494 H   0  0  0  0  0  0  0  0  0  0  0  0
  153.7345  142.9564  157.9066 H   0  0  0  0  0  0  0  0  0  0  0  0
  1  2  1  0  0  0  0
  1 31  1  0  0  0  0
  1 32  1  0  0  0  0
  1 33  1  0  0  0  0
  2  3  1  0  0  0  0
  2  4  1  0  0  0  0
  2 34  1  0  0  0  0
  3 35  1  0  0  0  0
  3 36  1  0  0  0  0
  3 37  1  0  0  0  0
  4 25  1  0  0  0  0
  4  5  1  0  0  0  0
  4 38  1  0  0  0  0
  5  6  1  0  0  0  0
  5 24  1  0  0  0  0
  6 11  1  0  0  0  0
  6  7  2  0  0  0  0
  7  8  1  0  0  0  0
  8  9  2  0  0  0  0
  8 39  1  0  0  0  0
  9 10  1  0  0  0  0
 10 14  1  0  0  0  0
 10 11  2  0  0  0  0
 11 12  1  0  0  0  0
 12 13  2  0  0  0  0
 13 14  1  0  0  0  0
 13 40  1  0  0  0  0
 14 15  1  0  0  0  0
 15 16  1  0  0  0  0
 15 41  1  0  0  0  0
 15 42  1  0  0  0  0
 16 17  1  0  0  0  0
 16 19  1  0  0  0  0
 16 43  1  0  0  0  0
 17 18  1  0  0  0  0
 17 44  1  0  0  0  0
 17 45  1  0  0  0  0
 18 46  1  0  0  0  0
 19 23  1  0  0  0  0
 19 20  1  0  0  0  0
 19 47  1  0  0  0  0
 20 21  1  0  0  0  0
 20 48  1  0  0  0  0
 20 49  1  0  0  0  0
 21 22  1  0  0  0  0
 21 50  1  0  0  0  0
 21 51  1  0  0  0  0
 22 23  1  0  0  0  0
 23 52  1  0  0  0  0
 23 53  1  0  0  0  0
 24 25  1  0  0  0  0
 24 54  1  0  0  0  0
 24 55  1  0  0  0  0
 25 30  1  0  0  0  0
 25 26  1  0  0  0  0
 26 27  1  0  0  0  0
 26 56  1  0  0  0  0
 26 57  1  0  0  0  0
 27 28  1  0  0  0  0
 27 58  1  0  0  0  0
 27 59  1  0  0  0  0
 28 29  1  0  0  0  0
 28 60  1  0  0  0  0
 28 61  1  0  0  0  0
 29 30  1  0  0  0  0
 29 62  1  0  0  0  0
 29 63  1  0  0  0  0
 30 64  1  0  0  0  0
 30 65  1  0  0  0  0
M  END
> <s_m_source_file>
AV-unprocessed.smi

> <i_m_source_file_index>
275

> <i_lp_mmshare_version>
43012

> <i_f3d_flags>
0

> <s_epik_input>
W0NIMl0xW0NIMl1bQ0gyXVtDSDJdW0NIMl1DMTJbQ0BIXShbQ0hdKFtDSDNdKVtDSDNdKU4oW0NIMl0yKWMobltjSF1uMyljKGMzNCluW2NIXW40W0NIMl1bQ0BIXShbQ0gyXVtPSF0pW0NAQEhdNVtDSDJdW0NIMl1PW0NIMl01

> <s_epik_cmdline>
J2VwaWtfcHl0aG9uJywgJy1waCcsICc3LjAnLCAnLXRuJywgJzgnLCAnLW1hJywgJzIwMCcsICctbWV0YWxfYmluZGluZycsICctaW1hZScsICc8aW5maWxlLm1hZT4nLCAnLW9tYWUnLCAnPG91dGZpbGUubWFlPic=

> <r_lp_tautomer_probability>
1

> <r_epik_Ionization_Penalty>
0.00375122

> <r_epik_Ionization_Penalty_Charging>
0

> <r_epik_Ionization_Penalty_Neutral>
0.00375122

> <r_epik_State_Penalty>
0.00260593

> <r_epik_Charging_Adjusted_Penalty>
0.00260593

> <i_epik_Tot_Q>
0

> <i_epik_Tot_abs_Q>
0

> <r_epik_Metal_State_Penalty>
-0

> <b_epik_Metal_Only>
0

> <s_lp_Force_Field>
OPLS_2005

> <r_lp_Energy>
69.4255

> <b_lp_Chiralities_Consistent>
1

> <s_lp_Variant>
AV-unprocessed.smi:275-1

> <Gold.Version>
5.8.1

> <Gold.Id.Protein>
6NUR|6NUR_protein|mol2

> <Gold.PLP.Fitness>
49.7490

> <Gold.PLP.PLP>
-45.9928

> <Gold.PLP.part.hbond>
-2.4450

> <Gold.PLP.part.metal>
0.0000

> <Gold.PLP.part.buried>
-0.0484

> <Gold.PLP.part.nonpolar>
-44.1267

> <Gold.PLP.part.repulsive>
0.3140

> <Gold.PLP.ligand.clash>
0.0000

> <Gold.PLP.ligand.torsion>
0.8884

> <Gold.PLP.Chemscore.Hbond>
1.6560

> <Gold.PLP.Chemscore.CHOScore>
0.0000

> <Gold.PLP.Chemscore.Metal>
0.0000

> <Gold.Chemscore.Hbonds>
donor molecule, donor type, donor heavy atom, donor atom, acceptor molecule, acceptor atom, score
      L1  H    18    46       P1  7948  1.00
      P1  H  6896  6907       L1     9  0.45

> <Gold.PLP.Chemscore.Internal.Correction>
0.5649

> <Gold.Rescore>
     Score         DG    S(hbond)    S(metal)    S(lipo)     H(rot)  DE(clash)    DE(int)     intcor
     17.28     -19.94       1.34        0.00     140.73       2.54       0.78       1.88       ----

> <Gold.Chemscore.Fitness>
17.2809

> <Gold.Chemscore.DG>
-19.9376

> <Gold.Chemscore.ZeroCoef>
-5.4800

> <Gold.Chemscore.Hbond>
1.3439

> <Gold.Chemscore.Metal>
0.0000

> <Gold.Chemscore.Lipo>
140.7301

> <Gold.Chemscore.Internal_Hbond>
0.0000

> <Gold.Chemscore.DEClash>
0.7788

> <Gold.Chemscore.DEInternal>
1.8779

> <Gold.Chemscore.Rot>
2.5377

> <Gold.Chemscore.Internal.Correction>
   9.000000E+99

> <Gold.Chemscore.Hbonds>
donor molecule, donor type, donor heavy atom, donor atom, acceptor molecule, acceptor atom, score
      L1  H    18    46       P1  7948  1.00
      P1  H  6896  6907       L1     9  0.30

> <Gold.Chemscore.Hbond.Weighted>
-4.4887

> <Gold.Chemscore.Metal.Weighted>
-0.0000

> <Gold.Chemscore.Lipo.Weighted>
-16.4654

> <Gold.Chemscore.Internal_Hbond.Weighted>
0.0000

> <Gold.Chemscore.DEClash.Weighted>
0.7788

> <Gold.Chemscore.DEInternal.Weighted>
1.8779

> <Gold.Chemscore.Rot.Weighted>
6.4966

> <Gold.Chemscore.Internal.Correction.Weighted>
   9.000000E+99

> <Gold.Protein.RotatedTorsions>
[ 6907 6896 6895 6894 ] final  -59.95 input  -60.11 | X-H torsion
[ 7974 7965 7964 7962 ] final -156.88 input  175.53 | X-H torsion
[ 8008 7997 7996 7995 ] final   24.16 input   59.86 | X-H torsion
[ 10167 10162 10161 10158 ] final -170.18 input  -65.29 | X-H torsion
[ 10718 10713 10712 10709 ] final   45.69 input   66.30 | X-H torsion
[ 10763 10752 10751 10750 ] final  -68.25 input  -60.55 | X-H torsion
[ 11005 11000 10999 10996 ] final   85.16 input  -57.11 | X-H torsion

> <Gold.Protein.ActiveResidues>
 VAL166  LYS551  ARG553  GLY616  TRP617  ASP618  TYR619  PRO620  LYS621  CYS622 
 ASP623  PHE694  ASN695  SER759  ASP760  ASP761  ALA762  ILE779  LEU786  VAL792 
 PHE793  MET794  SER795  GLU796  ALA797  LYS798  CYS799  TRP800  GLU811  SER814 

> <Gold.Protein.RotatedAtoms>
  150.7892  134.6902  159.6492 H   0  0  0  0  0  0  0  0  0  0  0  0  # atno 6907 bound_to 6896
  152.3994  134.6307  160.0084 H   0  0  0  0  0  0  0  0  0  0  0  0  # atno 6908 bound_to 6896
  151.6583  133.3281  159.3204 H   0  0  0  0  0  0  0  0  0  0  0  0  # atno 6909 bound_to 6896
  144.7573  140.4047  143.6003 H   0  0  0  0  0  0  0  0  0  0  0  0  # atno 7974 bound_to 7965
  154.9920  140.3115  155.4902 H   0  0  0  0  0  0  0  0  0  0  0  0  # atno 8008 bound_to 7997
  156.2938  140.2247  156.4966 H   0  0  0  0  0  0  0  0  0  0  0  0  # atno 8009 bound_to 7997
  154.7694  140.0453  157.1027 H   0  0  0  0  0  0  0  0  0  0  0  0  # atno 8010 bound_to 7997
  139.5877  144.1281  152.1596 H   0  0  0  0  0  0  0  0  0  0  0  0  # atno 10167 bound_to 10162
  157.4402  130.8077  149.7687 H   0  0  0  0  0  0  0  0  0  0  0  0  # atno 10718 bound_to 10713
  154.3863  135.6063  153.5818 H   0  0  0  0  0  0  0  0  0  0  0  0  # atno 10763 bound_to 10752
  152.9787  135.5873  154.4351 H   0  0  0  0  0  0  0  0  0  0  0  0  # atno 10764 bound_to 10752
  154.4128  135.2844  155.2004 H   0  0  0  0  0  0  0  0  0  0  0  0  # atno 10765 bound_to 10752
  139.8979  134.8267  156.2544 H   0  0  0  0  0  0  0  0  0  0  0  0  # atno 11005 bound_to 11000
  145.6736  139.1604  143.2740 LP  0  0  0  0  0  0  0  0  0  0  0  0  # atno 17320 bound_to 7965
  146.1598  140.6805  142.9283 LP  0  0  0  0  0  0  0  0  0  0  0  0  # atno 17321 bound_to 7965
  140.0848  144.5670  150.7096 LP  0  0  0  0  0  0  0  0  0  0  0  0  # atno 17342 bound_to 10162
  140.7146  143.2533  151.4474 LP  0  0  0  0  0  0  0  0  0  0  0  0  # atno 17343 bound_to 10162
  155.9946  130.3917  150.2853 LP  0  0  0  0  0  0  0  0  0  0  0  0  # atno 17370 bound_to 10713
  157.1018  131.0197  151.3082 LP  0  0  0  0  0  0  0  0  0  0  0  0  # atno 17371 bound_to 10713
  141.0203  133.7045  156.1257 LP  0  0  0  0  0  0  0  0  0  0  0  0  # atno 17394 bound_to 11000
  140.7243  134.4324  157.5572 LP  0  0  0  0  0  0  0  0  0  0  0  0  # atno 17395 bound_to 11000

$$$$
