AV-unprocessed.smi:1586|AV-procd|sdf|6382|dock1
  -GOLD-   22720 7 13D 1   1.00000     0.00000
 Structure written by MMmdl.
 46 47  0  0  0  0  0  0  0  0  3 V2000
  143.9691  132.4582  150.3074 C   0  0  0  0  0  0  0  0  0  0  0  0
  144.1916  133.4290  151.4765 C   0  0  0  0  0  0  0  0  0  0  0  0
  145.2526  134.3971  151.1889 N   0  0  0  0  0  0  0  0  0  0  0  0
  145.5279  135.3507  152.2693 C   0  0  0  0  0  0  0  0  0  0  0  0
  146.2066  134.6840  153.4848 C   0  0  0  0  0  0  0  0  0  0  0  0
  147.4667  134.0158  153.0733 N   0  3  0  0  0  0  0  0  0  0  0  0
  148.2829  133.5195  154.2245 C   0  0  1  0  0  0  0  0  0  0  0  0
  149.3283  132.4539  153.8082 C   0  0  0  0  0  0  0  0  0  0  0  0
  148.8742  134.7112  155.0276 C   0  0  0  0  0  0  0  0  0  0  0  0
  147.9603  135.1405  156.0876 N   0  5  0  0  0  0  0  0  0  0  0  0
  148.2692  135.1762  157.4136 C   0  0  0  0  0  0  0  0  0  0  0  0
  149.2585  134.6811  157.9672 O   0  0  0  0  0  0  0  0  0  0  0  0
  147.3520  135.8479  158.1331 N   0  0  0  0  0  0  0  0  0  0  0  0
  147.3237  136.0927  159.5315 C   0  0  0  0  0  0  0  0  0  0  0  0
  147.0594  135.0385  160.4458 C   0  0  0  0  0  0  0  0  0  0  0  0
  147.1200  135.6603  161.6609 C   0  0  0  0  0  0  0  0  0  0  0  0
  146.9494  135.1709  163.0582 C   0  0  0  0  0  0  0  0  0  0  0  0
  147.3957  136.9833  161.5028 O   0  0  0  0  0  0  0  0  0  0  0  0
  147.5241  137.2546  160.1355 N   0  0  0  0  0  0  0  0  0  0  0  0
  147.1911  133.0416  151.9798 C   0  0  0  0  0  0  0  0  0  0  0  0
  146.5075  133.7522  150.7935 C   0  0  0  0  0  0  0  0  0  0  0  0
  143.2717  131.6710  150.5944 H   0  0  0  0  0  0  0  0  0  0  0  0
  144.9014  131.9781  150.0081 H   0  0  0  0  0  0  0  0  0  0  0  0
  143.5486  132.9566  149.4344 H   0  0  0  0  0  0  0  0  0  0  0  0
  143.2566  133.9215  151.7408 H   0  0  0  0  0  0  0  0  0  0  0  0
  144.4880  132.8420  152.3468 H   0  0  0  0  0  0  0  0  0  0  0  0
  146.1819  136.1308  151.8773 H   0  0  0  0  0  0  0  0  0  0  0  0
  144.6138  135.8572  152.5765 H   0  0  0  0  0  0  0  0  0  0  0  0
  146.4270  135.4561  154.2227 H   0  0  0  0  0  0  0  0  0  0  0  0
  145.5402  133.9714  153.9710 H   0  0  0  0  0  0  0  0  0  0  0  0
  147.5852  133.0218  154.8998 H   0  0  0  0  0  0  0  0  0  0  0  0
  149.7999  131.9890  154.6758 H   0  0  0  0  0  0  0  0  0  0  0  0
  150.1267  132.8649  153.1879 H   0  0  0  0  0  0  0  0  0  0  0  0
  148.8586  131.6478  153.2444 H   0  0  0  0  0  0  0  0  0  0  0  0
  149.8420  134.4181  155.4350 H   0  0  0  0  0  0  0  0  0  0  0  0
  149.0945  135.5267  154.3368 H   0  0  0  0  0  0  0  0  0  0  0  0
  146.5740  136.2214  157.6100 H   0  0  0  0  0  0  0  0  0  0  0  0
  146.8599  133.9965  160.2451 H   0  0  0  0  0  0  0  0  0  0  0  0
  146.2073  134.3736  163.1015 H   0  0  0  0  0  0  0  0  0  0  0  0
  146.6193  135.9744  163.7171 H   0  0  0  0  0  0  0  0  0  0  0  0
  147.8897  134.7792  163.4461 H   0  0  0  0  0  0  0  0  0  0  0  0
  148.1217  132.5939  151.6311 H   0  0  0  0  0  0  0  0  0  0  0  0
  146.5684  132.2222  152.3393 H   0  0  0  0  0  0  0  0  0  0  0  0
  146.3197  133.0451  149.9847 H   0  0  0  0  0  0  0  0  0  0  0  0
  147.1780  134.5106  150.3868 H   0  0  0  0  0  0  0  0  0  0  0  0
  148.0282  134.7469  152.6604 H   0  0  0  0  0  0  0  0  0  0  0  0
  1  2  1  0  0  0  0
  1 22  1  0  0  0  0
  1 23  1  0  0  0  0
  1 24  1  0  0  0  0
  2  3  1  0  0  0  0
  2 25  1  0  0  0  0
  2 26  1  0  0  0  0
  3 21  1  0  0  0  0
  3  4  1  0  0  0  0
  4  5  1  0  0  0  0
  4 27  1  0  0  0  0
  4 28  1  0  0  0  0
  5  6  1  0  0  0  0
  5 29  1  0  0  0  0
  5 30  1  0  0  0  0
  6  7  1  0  0  0  0
  6 20  1  0  0  0  0
  6 46  1  0  0  0  0
  7  8  1  0  0  0  0
  7  9  1  0  0  0  0
  7 31  1  0  0  0  0
  8 32  1  0  0  0  0
  8 33  1  0  0  0  0
  8 34  1  0  0  0  0
  9 10  1  0  0  0  0
  9 35  1  0  0  0  0
  9 36  1  0  0  0  0
 10 11  1  0  0  0  0
 11 12  2  0  0  0  0
 11 13  1  0  0  0  0
 13 14  1  0  0  0  0
 13 37  1  0  0  0  0
 14 19  2  0  0  0  0
 14 15  1  0  0  0  0
 15 16  2  0  0  0  0
 15 38  1  0  0  0  0
 16 17  1  0  0  0  0
 16 18  1  0  0  0  0
 17 39  1  0  0  0  0
 17 40  1  0  0  0  0
 17 41  1  0  0  0  0
 18 19  1  0  0  0  0
 20 21  1  0  0  0  0
 20 42  1  0  0  0  0
 20 43  1  0  0  0  0
 21 44  1  0  0  0  0
 21 45  1  0  0  0  0
M  CHG  1   6   1
M  CHG  1  10  -1
M  END
> <s_m_source_file>
AV-unprocessed.smi

> <i_m_source_file_index>
1586

> <i_lp_mmshare_version>
43012

> <i_f3d_flags>
0

> <s_epik_input>
W0NIM11bQ0gyXU4xW0NIMl1bQ0gyXU4oW0NIMl1bQ0gyXTEpW0NASF0oW0NIM10pW0NIMl1bTkhdQyg9TylbTkhdYzJbY0hdYyhbQ0gzXSlvbjI=

> <s_epik_cmdline>
J2VwaWtfcHl0aG9uJywgJy1waCcsICc3LjAnLCAnLXRuJywgJzgnLCAnLW1hJywgJzIwMCcsICctbWV0YWxfYmluZGluZycsICctaW1hZScsICc8aW5maWxlLm1hZT4nLCAnLW9tYWUnLCAnPG91dGZpbGUubWFlPic=

> <r_epik_Ionization_Penalty>
6.72969

> <r_epik_Ionization_Penalty_Charging>
6.72741

> <r_epik_Ionization_Penalty_Neutral>
0.00227419

> <r_epik_State_Penalty>
7.72748

> <r_epik_Charging_Adjusted_Penalty>
14.4549

> <i_epik_Tot_Q>
0

> <i_epik_Tot_abs_Q>
2

> <r_epik_Metal_State_Penalty>
3.65268

> <b_epik_Metal_Only>
1

> <s_lp_Force_Field>
OPLS_2005

> <r_lp_Energy>
18.4071

> <b_lp_Chiralities_Consistent>
1

> <s_lp_Variant>
AV-unprocessed.smi:1586-10

> <Gold.Version>
5.8.1

> <Gold.Id.Protein>
6NUR|6NUR_protein|mol2

> <Gold.PLP.Fitness>
45.3236

> <Gold.PLP.PLP>
-35.9359

> <Gold.PLP.part.hbond>
-6.0000

> <Gold.PLP.part.metal>
0.0000

> <Gold.PLP.part.buried>
-4.6801

> <Gold.PLP.part.nonpolar>
-26.2172

> <Gold.PLP.part.repulsive>
0.2023

> <Gold.PLP.ligand.clash>
0.0000

> <Gold.PLP.ligand.torsion>
1.5084

> <Gold.PLP.Chemscore.Hbond>
4.0000

> <Gold.PLP.Chemscore.CHOScore>
0.0000

> <Gold.PLP.Chemscore.Metal>
0.0000

> <Gold.Chemscore.Hbonds>
donor molecule, donor type, donor heavy atom, donor atom, acceptor molecule, acceptor atom, score
      L1  H     6    46       P1  7948  2.00
      P1  H  6896  6907       L1    12  0.89
      P1  H  6931  6943       L1    18  0.41

> <Gold.PLP.Chemscore.Internal.Correction>
0.4046

> <Gold.Rescore>
     Score         DG    S(hbond)    S(metal)    S(lipo)     H(rot)  DE(clash)    DE(int)     intcor
     15.51     -17.25       2.22        0.00      74.88       1.73       0.07       1.67       ----

> <Gold.Chemscore.Fitness>
15.5088

> <Gold.Chemscore.DG>
-17.2461

> <Gold.Chemscore.ZeroCoef>
-5.4800

> <Gold.Chemscore.Hbond>
2.2219

> <Gold.Chemscore.Metal>
0.0000

> <Gold.Chemscore.Lipo>
74.8798

> <Gold.Chemscore.Internal_Hbond>
0.0000

> <Gold.Chemscore.DEClash>
0.0663

> <Gold.Chemscore.DEInternal>
1.6709

> <Gold.Chemscore.Rot>
1.7250

> <Gold.Chemscore.Internal.Correction>
   9.000000E+99

> <Gold.Chemscore.Hbonds>
donor molecule, donor type, donor heavy atom, donor atom, acceptor molecule, acceptor atom, score
      L1  H     6    46       P1  7948  0.74
      P1  H  6896  6907       L1    12  0.84
      P1  H  6931  6943       L1    18  0.02

> <Gold.Chemscore.Hbond.Weighted>
-7.4212

> <Gold.Chemscore.Metal.Weighted>
-0.0000

> <Gold.Chemscore.Lipo.Weighted>
-8.7609

> <Gold.Chemscore.Internal_Hbond.Weighted>
0.0000

> <Gold.Chemscore.DEClash.Weighted>
0.0663

> <Gold.Chemscore.DEInternal.Weighted>
1.6709

> <Gold.Chemscore.Rot.Weighted>
4.4161

> <Gold.Chemscore.Internal.Correction.Weighted>
   9.000000E+99

> <Gold.Protein.RotatedTorsions>
[ 6907 6896 6895 6894 ] final -106.10 input  -60.11 | X-H torsion
[ 7974 7965 7964 7962 ] final   81.76 input  175.53 | X-H torsion
[ 8008 7997 7996 7995 ] final   27.62 input   59.86 | X-H torsion
[ 10167 10162 10161 10158 ] final  109.54 input  -65.29 | X-H torsion
[ 10718 10713 10712 10709 ] final   21.49 input   66.30 | X-H torsion
[ 10763 10752 10751 10750 ] final  -70.09 input  -60.55 | X-H torsion
[ 11005 11000 10999 10996 ] final  122.70 input  -57.11 | X-H torsion

> <Gold.Protein.ActiveResidues>
 VAL166  LYS551  ARG553  GLY616  TRP617  ASP618  TYR619  PRO620  LYS621  CYS622 
 ASP623  PHE694  ASN695  SER759  ASP760  ASP761  ALA762  ILE779  LEU786  VAL792 
 PHE793  MET794  SER795  GLU796  ALA797  LYS798  CYS799  TRP800  GLU811  SER814 

> <Gold.Protein.RotatedAtoms>
  150.7371  134.0026  159.3642 H   0  0  0  0  0  0  0  0  0  0  0  0  # atno 6907 bound_to 6896
  151.7981  135.0714  160.0406 H   0  0  0  0  0  0  0  0  0  0  0  0  # atno 6908 bound_to 6896
  152.3160  133.5766  159.5749 H   0  0  0  0  0  0  0  0  0  0  0  0  # atno 6909 bound_to 6896
  145.6340  139.2411  143.2068 H   0  0  0  0  0  0  0  0  0  0  0  0  # atno 7974 bound_to 7965
  155.0459  140.3174  155.4708 H   0  0  0  0  0  0  0  0  0  0  0  0  # atno 8008 bound_to 7997
  156.2845  140.2155  156.5527 H   0  0  0  0  0  0  0  0  0  0  0  0  # atno 8009 bound_to 7997
  154.7251  140.0486  157.0663 H   0  0  0  0  0  0  0  0  0  0  0  0  # atno 8010 bound_to 7997
  139.6758  144.7122  151.1604 H   0  0  0  0  0  0  0  0  0  0  0  0  # atno 10167 bound_to 10162
  157.1392  130.6625  149.5976 H   0  0  0  0  0  0  0  0  0  0  0  0  # atno 10718 bound_to 10713
  154.4127  135.6005  153.5962 H   0  0  0  0  0  0  0  0  0  0  0  0  # atno 10763 bound_to 10752
  152.9791  135.5933  154.4050 H   0  0  0  0  0  0  0  0  0  0  0  0  # atno 10764 bound_to 10752
  154.3865  135.2841  155.2159 H   0  0  0  0  0  0  0  0  0  0  0  0  # atno 10765 bound_to 10752
  139.9280  134.9641  156.8148 H   0  0  0  0  0  0  0  0  0  0  0  0  # atno 11005 bound_to 11000
  146.1334  140.7155  142.9401 LP  0  0  0  0  0  0  0  0  0  0  0  0  # atno 17320 bound_to 7965
  144.7183  140.4285  143.7028 LP  0  0  0  0  0  0  0  0  0  0  0  0  # atno 17321 bound_to 7965
  140.7635  143.5773  150.8932 LP  0  0  0  0  0  0  0  0  0  0  0  0  # atno 17342 bound_to 10162
  139.9442  143.6347  152.3046 LP  0  0  0  0  0  0  0  0  0  0  0  0  # atno 17343 bound_to 10162
  155.9792  130.4783  150.6700 LP  0  0  0  0  0  0  0  0  0  0  0  0  # atno 17370 bound_to 10713
  157.4322  131.0851  151.1027 LP  0  0  0  0  0  0  0  0  0  0  0  0  # atno 17371 bound_to 10713
  140.6282  133.9930  155.7650 LP  0  0  0  0  0  0  0  0  0  0  0  0  # atno 17394 bound_to 11000
  141.0850  134.0004  157.3327 LP  0  0  0  0  0  0  0  0  0  0  0  0  # atno 17395 bound_to 11000

$$$$
