AV-unprocessed.smi:409|AV-procd|sdf|2505|dock5
  -GOLD-   2262022453D 1   1.00000     0.00000
 Structure written by MMmdl.
 35 36  0  0  0  0  0  0  0  0  1 V2000
  150.1005  140.3645  157.8263 O   0  0  0  0  0  0  0  0  0  0  0  0
  150.8898  140.9760  157.1044 C   0  0  0  0  0  0  0  0  0  0  0  0
  151.2873  140.4222  155.7287 C   0  0  0  0  0  0  0  0  0  0  0  0
  150.1324  140.1656  154.8557 N   0  0  0  0  0  0  0  0  0  0  0  0
  149.2070  141.1690  154.6055 C   0  0  0  0  0  0  0  0  0  0  0  0
  148.1154  140.9982  153.8226 C   0  0  0  0  0  0  0  0  0  0  0  0
  147.8559  139.7106  153.1877 C   0  0  0  0  0  0  0  0  0  0  0  0
  146.8971  139.4584  152.4615 O   0  0  0  0  0  0  0  0  0  0  0  0
  148.8080  138.7264  153.4653 N   0  0  0  0  0  0  0  0  0  0  0  0
  149.9342  138.8951  154.2725 C   0  0  0  0  0  0  0  0  0  0  0  0
  150.7098  137.9576  154.4554 O   0  0  0  0  0  0  0  0  0  0  0  0
  151.4331  142.1551  157.4439 N   0  0  0  0  0  0  0  0  0  0  0  0
  151.1934  142.8665  158.6956 C   0  0  0  0  0  0  0  0  0  0  0  0
  150.9331  144.3642  158.4305 C   0  0  0  0  0  0  0  0  0  0  0  0
  150.7551  145.1447  159.7429 C   0  0  0  0  0  0  0  0  0  0  0  0
  151.9612  144.9520  160.6755 C   0  0  0  0  0  0  0  0  0  0  0  0
  152.2198  143.4615  160.9461 C   0  0  0  0  0  0  0  0  0  0  0  0
  152.4004  142.6799  159.6346 C   0  0  0  0  0  0  0  0  0  0  0  0
  148.6685  137.8169  153.0497 H   0  0  0  0  0  0  0  0  0  0  0  0
  151.9642  141.1374  155.2593 H   0  0  0  0  0  0  0  0  0  0  0  0
  151.8741  139.5096  155.8526 H   0  0  0  0  0  0  0  0  0  0  0  0
  149.3561  142.1388  155.0589 H   0  0  0  0  0  0  0  0  0  0  0  0
  147.4300  141.8188  153.6664 H   0  0  0  0  0  0  0  0  0  0  0  0
  152.0660  142.5899  156.7883 H   0  0  0  0  0  0  0  0  0  0  0  0
  150.3165  142.4372  159.1844 H   0  0  0  0  0  0  0  0  0  0  0  0
  151.7653  144.7897  157.8676 H   0  0  0  0  0  0  0  0  0  0  0  0
  150.0451  144.4896  157.8098 H   0  0  0  0  0  0  0  0  0  0  0  0
  150.6165  146.2048  159.5287 H   0  0  0  0  0  0  0  0  0  0  0  0
  149.8470  144.8097  160.2455 H   0  0  0  0  0  0  0  0  0  0  0  0
  152.8472  145.4011  160.2251 H   0  0  0  0  0  0  0  0  0  0  0  0
  151.7925  145.4774  161.6159 H   0  0  0  0  0  0  0  0  0  0  0  0
  153.1048  143.3459  161.5725 H   0  0  0  0  0  0  0  0  0  0  0  0
  151.3850  143.0421  161.5091 H   0  0  0  0  0  0  0  0  0  0  0  0
  152.5421  141.6214  159.8559 H   0  0  0  0  0  0  0  0  0  0  0  0
  153.3117  143.0165  159.1380 H   0  0  0  0  0  0  0  0  0  0  0  0
  1  2  2  0  0  0  0
  2  3  1  0  0  0  0
  2 12  1  0  0  0  0
  3  4  1  0  0  0  0
  3 20  1  0  0  0  0
  3 21  1  0  0  0  0
  4 10  1  0  0  0  0
  4  5  1  0  0  0  0
  5  6  2  0  0  0  0
  5 22  1  0  0  0  0
  6  7  1  0  0  0  0
  6 23  1  0  0  0  0
  7  8  2  0  0  0  0
  7  9  1  0  0  0  0
  9 19  1  0  0  0  0
  9 10  1  0  0  0  0
 10 11  2  0  0  0  0
 12 13  1  0  0  0  0
 12 24  1  0  0  0  0
 13 18  1  0  0  0  0
 13 14  1  0  0  0  0
 13 25  1  0  0  0  0
 14 15  1  0  0  0  0
 14 26  1  0  0  0  0
 14 27  1  0  0  0  0
 15 16  1  0  0  0  0
 15 28  1  0  0  0  0
 15 29  1  0  0  0  0
 16 17  1  0  0  0  0
 16 30  1  0  0  0  0
 16 31  1  0  0  0  0
 17 18  1  0  0  0  0
 17 32  1  0  0  0  0
 17 33  1  0  0  0  0
 18 34  1  0  0  0  0
 18 35  1  0  0  0  0
M  END
> <s_m_source_file>
AV-unprocessed.smi

> <i_m_source_file_index>
409

> <i_lp_mmshare_version>
43012

> <i_f3d_flags>
0

> <s_epik_input>
W0NIMl0xW0NIMl1bQ0gyXVtDSDJdW0NIMl1bQ0hdMVtOSF1DKD1PKVtDSDJdbjJbY0hdW2NIXWMoPU8pW25IXWMyPU8=

> <s_epik_cmdline>
J2VwaWtfcHl0aG9uJywgJy1waCcsICc3LjAnLCAnLXRuJywgJzgnLCAnLW1hJywgJzIwMCcsICctbWV0YWxfYmluZGluZycsICctaW1hZScsICc8aW5maWxlLm1hZT4nLCAnLW9tYWUnLCAnPG91dGZpbGUubWFlPic=

> <r_lp_tautomer_probability>
0.999537

> <r_epik_Ionization_Penalty>
0.00309578

> <r_epik_Ionization_Penalty_Charging>
0.00309576

> <r_epik_Ionization_Penalty_Neutral>
1.90469e-08

> <r_epik_State_Penalty>
0.00217825

> <r_epik_Charging_Adjusted_Penalty>
0.00527401

> <i_epik_Tot_Q>
0

> <i_epik_Tot_abs_Q>
0

> <r_epik_Metal_State_Penalty>
0.362603

> <b_epik_Metal_Only>
0

> <s_lp_Force_Field>
OPLS_2005

> <r_lp_Energy>
8.21917

> <b_lp_Chiralities_Consistent>
1

> <s_lp_Variant>
AV-unprocessed.smi:409-1

> <Gold.Version>
5.8.1

> <Gold.Id.Protein>
6NUR|6NUR_protein|mol2

> <Gold.PLP.Fitness>
43.5442

> <Gold.PLP.PLP>
-38.6153

> <Gold.PLP.part.hbond>
-2.0000

> <Gold.PLP.part.metal>
0.0000

> <Gold.PLP.part.buried>
-0.5070

> <Gold.PLP.part.nonpolar>
-36.7451

> <Gold.PLP.part.repulsive>
0.6195

> <Gold.PLP.ligand.clash>
0.0000

> <Gold.PLP.ligand.torsion>
0.2533

> <Gold.PLP.Chemscore.Hbond>
0.9913

> <Gold.PLP.Chemscore.CHOScore>
0.8187

> <Gold.PLP.Chemscore.Metal>
0.0000

> <Gold.Chemscore.Hbonds>
donor molecule, donor type, donor heavy atom, donor atom, acceptor molecule, acceptor atom, score
      L1  H     9    19       P1  7948  1.00
      L1  C     5    22       P1  8028  0.62

> <Gold.PLP.Chemscore.Internal.Correction>
0.0058

> <Gold.Rescore>
     Score         DG    S(hbond)    S(metal)    S(lipo)     H(rot)  DE(clash)    DE(int)     intcor
     14.05     -14.39       0.98        0.00      85.45       1.70       0.02       0.32       ----

> <Gold.Chemscore.Fitness>
14.0522

> <Gold.Chemscore.DG>
-14.3887

> <Gold.Chemscore.ZeroCoef>
-5.4800

> <Gold.Chemscore.Hbond>
0.9780

> <Gold.Chemscore.Metal>
0.0000

> <Gold.Chemscore.Lipo>
85.4528

> <Gold.Chemscore.Internal_Hbond>
0.0000

> <Gold.Chemscore.DEClash>
0.0208

> <Gold.Chemscore.DEInternal>
0.3157

> <Gold.Chemscore.Rot>
1.7015

> <Gold.Chemscore.Internal.Correction>
   9.000000E+99

> <Gold.Chemscore.Hbonds>
donor molecule, donor type, donor heavy atom, donor atom, acceptor molecule, acceptor atom, score
      L1  H     9    19       P1  7948  0.97

> <Gold.Chemscore.Hbond.Weighted>
-3.2667

> <Gold.Chemscore.Metal.Weighted>
-0.0000

> <Gold.Chemscore.Lipo.Weighted>
-9.9980

> <Gold.Chemscore.Internal_Hbond.Weighted>
0.0000

> <Gold.Chemscore.DEClash.Weighted>
0.0208

> <Gold.Chemscore.DEInternal.Weighted>
0.3157

> <Gold.Chemscore.Rot.Weighted>
4.3559

> <Gold.Chemscore.Internal.Correction.Weighted>
   9.000000E+99

> <Gold.Protein.RotatedTorsions>
[ 6907 6896 6895 6894 ] final  -59.11 input  -60.11 | X-H torsion
[ 7974 7965 7964 7962 ] final  -90.57 input  175.53 | X-H torsion
[ 8008 7997 7996 7995 ] final  -59.61 input   59.86 | X-H torsion
[ 10167 10162 10161 10158 ] final  -14.88 input  -65.29 | X-H torsion
[ 10718 10713 10712 10709 ] final  153.81 input   66.30 | X-H torsion
[ 10763 10752 10751 10750 ] final   -3.00 input  -60.55 | X-H torsion
[ 11005 11000 10999 10996 ] final -113.37 input  -57.11 | X-H torsion

> <Gold.Protein.ActiveResidues>
 VAL166  LYS551  ARG553  GLY616  TRP617  ASP618  TYR619  PRO620  LYS621  CYS622 
 ASP623  PHE694  ASN695  SER759  ASP760  ASP761  ALA762  ILE779  LEU786  VAL792 
 PHE793  MET794  SER795  GLU796  ALA797  LYS798  CYS799  TRP800  GLU811  SER814 

> <Gold.Protein.RotatedAtoms>
  150.7955  134.7011  159.6550 H   0  0  0  0  0  0  0  0  0  0  0  0  # atno 6907 bound_to 6896
  152.4066  134.6192  160.0056 H   0  0  0  0  0  0  0  0  0  0  0  0  # atno 6908 bound_to 6896
  151.6448  133.3287  159.3174 H   0  0  0  0  0  0  0  0  0  0  0  0  # atno 6909 bound_to 6896
  145.4247  140.9553  143.2161 H   0  0  0  0  0  0  0  0  0  0  0  0  # atno 7974 bound_to 7965
  154.4360  140.1058  156.6143 H   0  0  0  0  0  0  0  0  0  0  0  0  # atno 8008 bound_to 7997
  155.5776  140.3490  155.4513 H   0  0  0  0  0  0  0  0  0  0  0  0  # atno 8009 bound_to 7997
  156.0343  140.1267  157.0214 H   0  0  0  0  0  0  0  0  0  0  0  0  # atno 8010 bound_to 7997
  140.7209  143.5276  150.9558 H   0  0  0  0  0  0  0  0  0  0  0  0  # atno 10167 bound_to 10162
  157.2399  131.0757  151.1799 H   0  0  0  0  0  0  0  0  0  0  0  0  # atno 10718 bound_to 10713
  153.3654  135.6992  153.6679 H   0  0  0  0  0  0  0  0  0  0  0  0  # atno 10763 bound_to 10752
  153.5350  135.3584  155.2693 H   0  0  0  0  0  0  0  0  0  0  0  0  # atno 10764 bound_to 10752
  154.8674  135.4190  154.2921 H   0  0  0  0  0  0  0  0  0  0  0  0  # atno 10765 bound_to 10752
  141.0618  133.9523  157.2652 H   0  0  0  0  0  0  0  0  0  0  0  0  # atno 11005 bound_to 11000
  144.8222  139.5772  143.6982 LP  0  0  0  0  0  0  0  0  0  0  0  0  # atno 17320 bound_to 7965
  146.2638  139.6472  142.9343 LP  0  0  0  0  0  0  0  0  0  0  0  0  # atno 17321 bound_to 7965
  139.8995  143.6853  152.3133 LP  0  0  0  0  0  0  0  0  0  0  0  0  # atno 17342 bound_to 10162
  139.7198  144.7605  151.0974 LP  0  0  0  0  0  0  0  0  0  0  0  0  # atno 17343 bound_to 10162
  157.3390  130.7023  149.6370 LP  0  0  0  0  0  0  0  0  0  0  0  0  # atno 17370 bound_to 10713
  155.9670  130.4285  150.4793 LP  0  0  0  0  0  0  0  0  0  0  0  0  # atno 17371 bound_to 10713
  139.9440  135.0187  156.8795 LP  0  0  0  0  0  0  0  0  0  0  0  0  # atno 17394 bound_to 11000
  140.5853  134.0313  155.7479 LP  0  0  0  0  0  0  0  0  0  0  0  0  # atno 17395 bound_to 11000

$$$$
