AV-unprocessed.smi:1669|AV-procd|sdf|6685|dock8
  -GOLD-   22720 7403D 1   1.00000     0.00000
 Structure written by MMmdl.
 48 50  0  0  0  0  0  0  0  0  2 V2000
  149.1032  133.2026  154.2076 C   0  0  0  0  0  0  0  0  0  0  0  0
  148.5344  134.5441  154.4711 N   0  3  1  0  0  0  0  0  0  0  0  0
  147.0535  134.5114  154.5618 C   0  0  0  0  0  0  0  0  0  0  0  0
  146.4084  134.3189  153.1998 C   0  0  0  0  0  0  0  0  0  0  0  0
  145.6514  135.3622  152.6258 C   0  0  0  0  0  0  0  0  0  0  0  0
  145.0376  135.1843  151.3707 C   0  0  0  0  0  0  0  0  0  0  0  0
  145.1821  133.9644  150.6825 C   0  0  0  0  0  0  0  0  0  0  0  0
  145.9416  132.9229  151.2490 C   0  0  0  0  0  0  0  0  0  0  0  0
  146.5546  133.0994  152.5047 C   0  0  0  0  0  0  0  0  0  0  0  0
  149.1892  135.2300  155.6163 C   0  0  0  0  0  0  0  0  0  0  0  0
  148.9137  134.5073  156.9475 C   0  0  1  0  0  0  0  0  0  0  0  0
  149.9634  134.8092  157.8470 O   0  0  0  0  0  0  0  0  0  0  0  0
  147.5678  134.9360  157.5639 C   0  0  0  0  0  0  0  0  0  0  0  0
  147.7268  135.5496  158.8760 N   0  0  0  0  0  0  0  0  0  0  0  0
  148.0825  136.8245  159.1783 C   0  0  0  0  0  0  0  0  0  0  0  0
  148.3733  137.8481  158.1237 C   0  0  0  0  0  0  0  0  0  0  0  0
  148.6030  139.1322  158.6624 O   0  0  0  0  0  0  0  0  0  0  0  0
  148.1573  137.1121  160.4780 N   0  0  0  0  0  0  0  0  0  0  0  0
  147.8132  135.9156  161.0759 C   0  0  0  0  0  0  0  0  0  0  0  0
  147.7080  135.5672  162.4414 C   0  0  0  0  0  0  0  0  0  0  0  0
  147.3332  134.2607  162.8174 C   0  0  0  0  0  0  0  0  0  0  0  0
  147.0597  133.2859  161.8362 C   0  0  0  0  0  0  0  0  0  0  0  0
  147.1598  133.6117  160.4701 C   0  0  0  0  0  0  0  0  0  0  0  0
  147.5347  134.9171  160.1002 C   0  0  0  0  0  0  0  0  0  0  0  0
  148.8895  132.5198  155.0308 H   0  0  0  0  0  0  0  0  0  0  0  0
  150.1841  133.2499  154.0759 H   0  0  0  0  0  0  0  0  0  0  0  0
  148.6820  132.7783  153.2956 H   0  0  0  0  0  0  0  0  0  0  0  0
  146.7393  133.6790  155.1933 H   0  0  0  0  0  0  0  0  0  0  0  0
  146.6874  135.4215  155.0396 H   0  0  0  0  0  0  0  0  0  0  0  0
  145.5340  136.2998  153.1493 H   0  0  0  0  0  0  0  0  0  0  0  0
  144.4553  135.9834  150.9363 H   0  0  0  0  0  0  0  0  0  0  0  0
  144.7114  133.8278  149.7200 H   0  0  0  0  0  0  0  0  0  0  0  0
  146.0529  131.9877  150.7202 H   0  0  0  0  0  0  0  0  0  0  0  0
  147.1329  132.2938  152.9330 H   0  0  0  0  0  0  0  0  0  0  0  0
  150.2686  135.2834  155.4739 H   0  0  0  0  0  0  0  0  0  0  0  0
  148.8472  136.2652  155.6624 H   0  0  0  0  0  0  0  0  0  0  0  0
  148.9026  133.4282  156.7926 H   0  0  0  0  0  0  0  0  0  0  0  0
  150.3673  135.6204  157.5761 H   0  0  0  0  0  0  0  0  0  0  0  0
  147.0420  135.6207  156.8986 H   0  0  0  0  0  0  0  0  0  0  0  0
  146.9170  134.0679  157.6753 H   0  0  0  0  0  0  0  0  0  0  0  0
  149.2572  137.5448  157.5614 H   0  0  0  0  0  0  0  0  0  0  0  0
  147.5509  137.8930  157.4099 H   0  0  0  0  0  0  0  0  0  0  0  0
  149.5310  139.3070  158.6370 H   0  0  0  0  0  0  0  0  0  0  0  0
  147.9151  136.3068  163.2008 H   0  0  0  0  0  0  0  0  0  0  0  0
  147.2551  134.0054  163.8641 H   0  0  0  0  0  0  0  0  0  0  0  0
  146.7729  132.2877  162.1334 H   0  0  0  0  0  0  0  0  0  0  0  0
  146.9505  132.8669  159.7169 H   0  0  0  0  0  0  0  0  0  0  0  0
  148.7394  135.1074  153.6576 H   0  0  0  0  0  0  0  0  0  0  0  0
  1  2  1  0  0  0  0
  1 25  1  0  0  0  0
  1 26  1  0  0  0  0
  1 27  1  0  0  0  0
  2  3  1  0  0  0  0
  2 10  1  0  0  0  0
  2 48  1  0  0  0  0
  3  4  1  0  0  0  0
  3 28  1  0  0  0  0
  3 29  1  0  0  0  0
  4  9  1  0  0  0  0
  4  5  2  0  0  0  0
  5  6  1  0  0  0  0
  5 30  1  0  0  0  0
  6  7  2  0  0  0  0
  6 31  1  0  0  0  0
  7  8  1  0  0  0  0
  7 32  1  0  0  0  0
  8  9  2  0  0  0  0
  8 33  1  0  0  0  0
  9 34  1  0  0  0  0
 10 11  1  0  0  0  0
 10 35  1  0  0  0  0
 10 36  1  0  0  0  0
 11 12  1  0  0  0  0
 11 13  1  0  0  0  0
 11 37  1  0  0  0  0
 12 38  1  0  0  0  0
 13 14  1  0  0  0  0
 13 39  1  0  0  0  0
 13 40  1  0  0  0  0
 14 24  1  0  0  0  0
 14 15  1  0  0  0  0
 15 16  1  0  0  0  0
 15 18  2  0  0  0  0
 16 17  1  0  0  0  0
 16 41  1  0  0  0  0
 16 42  1  0  0  0  0
 17 43  1  0  0  0  0
 18 19  1  0  0  0  0
 19 24  2  0  0  0  0
 19 20  1  0  0  0  0
 20 21  2  0  0  0  0
 20 44  1  0  0  0  0
 21 22  1  0  0  0  0
 21 45  1  0  0  0  0
 22 23  2  0  0  0  0
 22 46  1  0  0  0  0
 23 24  1  0  0  0  0
 23 47  1  0  0  0  0
M  CHG  1   2   1
M  END
> <s_m_source_file>
AV-unprocessed.smi

> <i_m_source_file_index>
1669

> <i_lp_mmshare_version>
43012

> <i_f3d_flags>
0

> <s_epik_input>
W2NIXTFbY0hdW2NIXVtjSF1bY0hdYzFbQ0gyXU4oW0NIM10pW0NIMl1bQ0BIXShbT0hdKVtDSDJdbihjKG4yKVtDSDJdW09IXSljKGMyMylbY0hdW2NIXVtjSF1bY0hdMw==

> <s_epik_cmdline>
J2VwaWtfcHl0aG9uJywgJy1waCcsICc3LjAnLCAnLXRuJywgJzgnLCAnLW1hJywgJzIwMCcsICctbWV0YWxfYmluZGluZycsICctaW1hZScsICc8aW5maWxlLm1hZT4nLCAnLW9tYWUnLCAnPG91dGZpbGUubWFlPic=

> <r_epik_Ionization_Penalty>
0.0949884

> <r_epik_Ionization_Penalty_Charging>
0.0475377

> <r_epik_Ionization_Penalty_Neutral>
0.0474507

> <r_epik_State_Penalty>
0.078247

> <r_epik_Charging_Adjusted_Penalty>
0.125785

> <i_epik_Tot_Q>
1

> <i_epik_Tot_abs_Q>
1

> <r_epik_Metal_State_Penalty>
0.0403451

> <b_epik_Metal_Only>
0

> <s_lp_Force_Field>
OPLS_2005

> <r_lp_Energy>
15.7652

> <b_lp_Chiralities_Consistent>
1

> <s_lp_Variant>
AV-unprocessed.smi:1669-3

> <Gold.Version>
5.8.1

> <Gold.Id.Protein>
6NUR|6NUR_protein|mol2

> <Gold.PLP.Fitness>
49.9854

> <Gold.PLP.PLP>
-40.3176

> <Gold.PLP.part.hbond>
-5.0000

> <Gold.PLP.part.metal>
0.0000

> <Gold.PLP.part.buried>
-4.1228

> <Gold.PLP.part.nonpolar>
-31.7326

> <Gold.PLP.part.repulsive>
0.0000

> <Gold.PLP.ligand.clash>
0.0000

> <Gold.PLP.ligand.torsion>
1.5674

> <Gold.PLP.Chemscore.Hbond>
4.1483

> <Gold.PLP.Chemscore.CHOScore>
0.0000

> <Gold.PLP.Chemscore.Metal>
0.0000

> <Gold.Chemscore.Hbonds>
donor molecule, donor type, donor heavy atom, donor atom, acceptor molecule, acceptor atom, score
      L1  H     2    48       P1  7948  1.66
      P1  H  6896  6907       L1    12  0.85
      P1  H  6931  6943       L1    18  0.78
      P1  H  6934  6947       L1    18  0.43

> <Gold.PLP.Chemscore.Internal.Correction>
0.3576

> <Gold.Rescore>
     Score         DG    S(hbond)    S(metal)    S(lipo)     H(rot)  DE(clash)    DE(int)     intcor
     14.46     -17.33       2.77        0.00      91.78       3.17       0.05       2.83       ----

> <Gold.Chemscore.Fitness>
14.4573

> <Gold.Chemscore.DG>
-17.3331

> <Gold.Chemscore.ZeroCoef>
-5.4800

> <Gold.Chemscore.Hbond>
2.7660

> <Gold.Chemscore.Metal>
0.0000

> <Gold.Chemscore.Lipo>
91.7760

> <Gold.Chemscore.Internal_Hbond>
0.0000

> <Gold.Chemscore.DEClash>
0.0489

> <Gold.Chemscore.DEInternal>
2.8268

> <Gold.Chemscore.Rot>
3.1731

> <Gold.Chemscore.Internal.Correction>
   9.000000E+99

> <Gold.Chemscore.Hbonds>
donor molecule, donor type, donor heavy atom, donor atom, acceptor molecule, acceptor atom, score
      L1  H     2    48       P1  7948  0.60
      P1  H  6896  6907       L1    12  0.47
      P1  H  6931  6943       L1    18  0.48
      P1  H  6934  6947       L1    18  0.34

> <Gold.Chemscore.Hbond.Weighted>
-9.2383

> <Gold.Chemscore.Metal.Weighted>
-0.0000

> <Gold.Chemscore.Lipo.Weighted>
-10.7378

> <Gold.Chemscore.Internal_Hbond.Weighted>
0.0000

> <Gold.Chemscore.DEClash.Weighted>
0.0489

> <Gold.Chemscore.DEInternal.Weighted>
2.8268

> <Gold.Chemscore.Rot.Weighted>
8.1230

> <Gold.Chemscore.Internal.Correction.Weighted>
   9.000000E+99

> <Gold.Protein.RotatedTorsions>
[ 6907 6896 6895 6894 ] final  -79.74 input  -60.11 | X-H torsion
[ 7974 7965 7964 7962 ] final  101.47 input  175.53 | X-H torsion
[ 8008 7997 7996 7995 ] final  -43.39 input   59.86 | X-H torsion
[ 10167 10162 10161 10158 ] final  104.21 input  -65.29 | X-H torsion
[ 10718 10713 10712 10709 ] final  -48.97 input   66.30 | X-H torsion
[ 10763 10752 10751 10750 ] final   13.88 input  -60.55 | X-H torsion
[ 11005 11000 10999 10996 ] final   51.86 input  -57.11 | X-H torsion

> <Gold.Protein.ActiveResidues>
 VAL166  LYS551  ARG553  GLY616  TRP617  ASP618  TYR619  PRO620  LYS621  CYS622 
 ASP623  PHE694  ASN695  SER759  ASP760  ASP761  ALA762  ILE779  LEU786  VAL792 
 PHE793  MET794  SER795  GLU796  ALA797  LYS798  CYS799  TRP800  GLU811  SER814 

> <Gold.Protein.RotatedAtoms>
  150.6943  134.4076  159.5146 H   0  0  0  0  0  0  0  0  0  0  0  0  # atno 6907 bound_to 6896
  152.1840  134.8727  160.0533 H   0  0  0  0  0  0  0  0  0  0  0  0  # atno 6908 bound_to 6896
  151.9707  133.3690  159.4107 H   0  0  0  0  0  0  0  0  0  0  0  0  # atno 6909 bound_to 6896
  145.3719  139.2396  143.3450 H   0  0  0  0  0  0  0  0  0  0  0  0  # atno 7974 bound_to 7965
  154.3997  140.1449  156.3511 H   0  0  0  0  0  0  0  0  0  0  0  0  # atno 8008 bound_to 7997
  155.8268  140.3467  155.5527 H   0  0  0  0  0  0  0  0  0  0  0  0  # atno 8009 bound_to 7997
  155.8230  140.0901  157.1828 H   0  0  0  0  0  0  0  0  0  0  0  0  # atno 8010 bound_to 7997
  139.7196  144.7061  151.0894 H   0  0  0  0  0  0  0  0  0  0  0  0  # atno 10167 bound_to 10162
  156.1937  130.4153  149.9336 H   0  0  0  0  0  0  0  0  0  0  0  0  # atno 10718 bound_to 10713
  153.1677  135.6807  153.8652 H   0  0  0  0  0  0  0  0  0  0  0  0  # atno 10763 bound_to 10752
  153.8027  135.3153  155.3393 H   0  0  0  0  0  0  0  0  0  0  0  0  # atno 10764 bound_to 10752
  154.7976  135.4797  154.0290 H   0  0  0  0  0  0  0  0  0  0  0  0  # atno 10765 bound_to 10752
  140.0897  134.5225  155.8864 H   0  0  0  0  0  0  0  0  0  0  0  0  # atno 11005 bound_to 11000
  146.2881  140.4371  142.8750 LP  0  0  0  0  0  0  0  0  0  0  0  0  # atno 17320 bound_to 7965
  144.8570  140.7085  143.6131 LP  0  0  0  0  0  0  0  0  0  0  0  0  # atno 17321 bound_to 7965
  140.7751  143.5183  150.9567 LP  0  0  0  0  0  0  0  0  0  0  0  0  # atno 17342 bound_to 10162
  139.8870  143.7000  152.3150 LP  0  0  0  0  0  0  0  0  0  0  0  0  # atno 17343 bound_to 10162
  156.7068  130.8954  151.3605 LP  0  0  0  0  0  0  0  0  0  0  0  0  # atno 17370 bound_to 10713
  157.6945  130.9267  150.0605 LP  0  0  0  0  0  0  0  0  0  0  0  0  # atno 17371 bound_to 10713
  141.2074  133.6664  156.6303 LP  0  0  0  0  0  0  0  0  0  0  0  0  # atno 17394 bound_to 11000
  140.3369  134.7882  157.4368 LP  0  0  0  0  0  0  0  0  0  0  0  0  # atno 17395 bound_to 11000

$$$$
