AV-unprocessed.smi:1353|AV-procd|sdf|5532|dock8
  -GOLD-   22720 5123D 1   1.00000     0.00000
 Structure written by MMmdl.
 39 41  0  0  0  0  0  0  0  0  1 V2000
  152.4145  137.5926  154.1635 O   0  0  0  0  0  0  0  0  0  0  0  0
  152.6781  138.7770  154.8853 C   0  0  0  0  0  0  0  0  0  0  0  0
  151.4730  139.1799  155.7529 C   0  0  0  0  0  0  0  0  0  0  0  0
  151.8352  140.0897  156.8934 C   0  0  0  0  0  0  0  0  0  0  0  0
  152.7919  139.7591  157.7628 N   0  0  0  0  0  0  0  0  0  0  0  0
  152.8021  140.8313  158.6317 C   0  0  0  0  0  0  0  0  0  0  0  0
  153.5866  141.0727  159.7822 C   0  0  0  0  0  0  0  0  0  0  0  0
  153.4166  142.2586  160.5261 C   0  0  0  0  0  0  0  0  0  0  0  0
  152.4623  143.2180  160.1305 C   0  0  0  0  0  0  0  0  0  0  0  0
  151.6727  142.9979  158.9856 C   0  0  0  0  0  0  0  0  0  0  0  0
  151.8461  141.8122  158.2458 C   0  0  0  0  0  0  0  0  0  0  0  0
  151.2498  141.2995  157.0967 N   0  0  0  0  0  0  0  0  0  0  0  0
  150.2164  141.9611  156.3099 C   0  0  0  0  0  0  0  0  0  0  0  0
  148.8743  141.2183  156.3578 C   0  0  0  0  0  0  0  0  0  0  0  0
  148.2126  141.3608  155.1075 O   0  0  0  0  0  0  0  0  0  0  0  0
  147.0673  142.1247  155.0564 C   0  0  0  0  0  0  0  0  0  0  0  0
  146.7487  142.7150  153.8160 C   0  0  0  0  0  0  0  0  0  0  0  0
  145.5974  143.5130  153.6721 C   0  0  0  0  0  0  0  0  0  0  0  0
  144.7489  143.7284  154.7737 C   0  0  0  0  0  0  0  0  0  0  0  0
  145.0538  143.1436  156.0169 C   0  0  0  0  0  0  0  0  0  0  0  0
  146.2056  142.3454  156.1607 C   0  0  0  0  0  0  0  0  0  0  0  0
  152.2937  137.8156  153.2531 H   0  0  0  0  0  0  0  0  0  0  0  0
  153.5764  138.6499  155.4903 H   0  0  0  0  0  0  0  0  0  0  0  0
  152.8902  139.5659  154.1633 H   0  0  0  0  0  0  0  0  0  0  0  0
  150.7513  139.7094  155.1300 H   0  0  0  0  0  0  0  0  0  0  0  0
  150.9599  138.2870  156.1054 H   0  0  0  0  0  0  0  0  0  0  0  0
  154.3193  140.3431  160.0938 H   0  0  0  0  0  0  0  0  0  0  0  0
  154.0203  142.4325  161.4047 H   0  0  0  0  0  0  0  0  0  0  0  0
  152.3367  144.1232  160.7063 H   0  0  0  0  0  0  0  0  0  0  0  0
  150.9399  143.7308  158.6828 H   0  0  0  0  0  0  0  0  0  0  0  0
  150.0836  142.9716  156.6967 H   0  0  0  0  0  0  0  0  0  0  0  0
  150.5605  142.0818  155.2830 H   0  0  0  0  0  0  0  0  0  0  0  0
  149.0477  140.1633  156.5742 H   0  0  0  0  0  0  0  0  0  0  0  0
  148.2625  141.6244  157.1623 H   0  0  0  0  0  0  0  0  0  0  0  0
  147.3959  142.5557  152.9660 H   0  0  0  0  0  0  0  0  0  0  0  0
  145.3663  143.9601  152.7167 H   0  0  0  0  0  0  0  0  0  0  0  0
  143.8657  144.3405  154.6652 H   0  0  0  0  0  0  0  0  0  0  0  0
  144.4030  143.3074  156.8631 H   0  0  0  0  0  0  0  0  0  0  0  0
  146.4051  141.9126  157.1289 H   0  0  0  0  0  0  0  0  0  0  0  0
  1  2  1  0  0  0  0
  1 22  1  0  0  0  0
  2  3  1  0  0  0  0
  2 23  1  0  0  0  0
  2 24  1  0  0  0  0
  3  4  1  0  0  0  0
  3 25  1  0  0  0  0
  3 26  1  0  0  0  0
  4 12  1  0  0  0  0
  4  5  2  0  0  0  0
  5  6  1  0  0  0  0
  6 11  2  0  0  0  0
  6  7  1  0  0  0  0
  7  8  2  0  0  0  0
  7 27  1  0  0  0  0
  8  9  1  0  0  0  0
  8 28  1  0  0  0  0
  9 10  2  0  0  0  0
  9 29  1  0  0  0  0
 10 11  1  0  0  0  0
 10 30  1  0  0  0  0
 11 12  1  0  0  0  0
 12 13  1  0  0  0  0
 13 14  1  0  0  0  0
 13 31  1  0  0  0  0
 13 32  1  0  0  0  0
 14 15  1  0  0  0  0
 14 33  1  0  0  0  0
 14 34  1  0  0  0  0
 15 16  1  0  0  0  0
 16 21  1  0  0  0  0
 16 17  2  0  0  0  0
 17 18  1  0  0  0  0
 17 35  1  0  0  0  0
 18 19  2  0  0  0  0
 18 36  1  0  0  0  0
 19 20  1  0  0  0  0
 19 37  1  0  0  0  0
 20 21  2  0  0  0  0
 20 38  1  0  0  0  0
 21 39  1  0  0  0  0
M  END
> <s_m_source_file>
AV-unprocessed.smi

> <i_m_source_file_index>
1353

> <i_lp_mmshare_version>
43012

> <i_f3d_flags>
0

> <s_epik_input>
W2NIXTFbY0hdW2NIXVtjSF1jKGMxMiluKGMobjIpW0NIMl1bQ0gyXVtPSF0pW0NIMl1bQ0gyXU9jM1tjSF1bY0hdW2NIXVtjSF1bY0hdMw==

> <s_epik_cmdline>
J2VwaWtfcHl0aG9uJywgJy1waCcsICc3LjAnLCAnLXRuJywgJzgnLCAnLW1hJywgJzIwMCcsICctbWV0YWxfYmluZGluZycsICctaW1hZScsICc8aW5maWxlLm1hZT4nLCAnLW9tYWUnLCAnPG91dGZpbGUubWFlPic=

> <r_lp_tautomer_probability>
1

> <r_epik_Ionization_Penalty>
0.230562

> <r_epik_Ionization_Penalty_Charging>
0

> <r_epik_Ionization_Penalty_Neutral>
0.230562

> <r_epik_State_Penalty>
0.221203

> <r_epik_Charging_Adjusted_Penalty>
0.221203

> <i_epik_Tot_Q>
0

> <i_epik_Tot_abs_Q>
0

> <r_epik_Metal_State_Penalty>
0.000268091

> <b_epik_Metal_Only>
0

> <s_lp_Force_Field>
OPLS_2005

> <r_lp_Energy>
15.7907

> <b_lp_Chiralities_Consistent>
1

> <s_lp_Variant>
AV-unprocessed.smi:1353-1

> <Gold.Version>
5.8.1

> <Gold.Id.Protein>
6NUR|6NUR_protein|mol2

> <Gold.PLP.Fitness>
49.2634

> <Gold.PLP.PLP>
-46.3223

> <Gold.PLP.part.hbond>
-2.0000

> <Gold.PLP.part.metal>
0.0000

> <Gold.PLP.part.buried>
-5.7293

> <Gold.PLP.part.nonpolar>
-38.6531

> <Gold.PLP.part.repulsive>
0.1132

> <Gold.PLP.ligand.clash>
0.0000

> <Gold.PLP.ligand.torsion>
1.1124

> <Gold.PLP.Chemscore.Hbond>
1.7040

> <Gold.PLP.Chemscore.CHOScore>
0.0000

> <Gold.PLP.Chemscore.Metal>
0.0000

> <Gold.Chemscore.Hbonds>
donor molecule, donor type, donor heavy atom, donor atom, acceptor molecule, acceptor atom, score
      P1  H  7997  8008       L1     5  1.00
      P1  H 10752 10765       L1     1  0.70

> <Gold.PLP.Chemscore.Internal.Correction>
0.0538

> <Gold.Rescore>
     Score         DG    S(hbond)    S(metal)    S(lipo)     H(rot)  DE(clash)    DE(int)     intcor
     14.20     -15.52       0.61        0.00     119.00       2.31       0.29       1.02       ----

> <Gold.Chemscore.Fitness>
14.2025

> <Gold.Chemscore.DG>
-15.5182

> <Gold.Chemscore.ZeroCoef>
-5.4800

> <Gold.Chemscore.Hbond>
0.6073

> <Gold.Chemscore.Metal>
0.0000

> <Gold.Chemscore.Lipo>
118.9987

> <Gold.Chemscore.Internal_Hbond>
0.0000

> <Gold.Chemscore.DEClash>
0.2946

> <Gold.Chemscore.DEInternal>
1.0212

> <Gold.Chemscore.Rot>
2.3098

> <Gold.Chemscore.Internal.Correction>
   9.000000E+99

> <Gold.Chemscore.Hbonds>
donor molecule, donor type, donor heavy atom, donor atom, acceptor molecule, acceptor atom, score
      P1  H  7997  8008       L1     5  0.13
      P1  H 10752 10765       L1     1  0.34

> <Gold.Chemscore.Hbond.Weighted>
-2.0285

> <Gold.Chemscore.Metal.Weighted>
-0.0000

> <Gold.Chemscore.Lipo.Weighted>
-13.9229

> <Gold.Chemscore.Internal_Hbond.Weighted>
0.0000

> <Gold.Chemscore.DEClash.Weighted>
0.2946

> <Gold.Chemscore.DEInternal.Weighted>
1.0212

> <Gold.Chemscore.Rot.Weighted>
5.9131

> <Gold.Chemscore.Internal.Correction.Weighted>
   9.000000E+99

> <Gold.Protein.RotatedTorsions>
[ 6907 6896 6895 6894 ] final    7.62 input  -60.11 | X-H torsion
[ 7974 7965 7964 7962 ] final -171.97 input  175.53 | X-H torsion
[ 8008 7997 7996 7995 ] final  -71.12 input   59.86 | X-H torsion
[ 10167 10162 10161 10158 ] final  -73.31 input  -65.29 | X-H torsion
[ 10718 10713 10712 10709 ] final  -86.33 input   66.30 | X-H torsion
[ 10763 10752 10751 10750 ] final  154.01 input  -60.55 | X-H torsion
[ 11005 11000 10999 10996 ] final -152.31 input  -57.11 | X-H torsion

> <Gold.Protein.ActiveResidues>
 VAL166  LYS551  ARG553  GLY616  TRP617  ASP618  TYR619  PRO620  LYS621  CYS622 
 ASP623  PHE694  ASN695  SER759  ASP760  ASP761  ALA762  ILE779  LEU786  VAL792 
 PHE793  MET794  SER795  GLU796  ALA797  LYS798  CYS799  TRP800  GLU811  SER814 

> <Gold.Protein.RotatedAtoms>
  151.6929  135.0943  160.0236 H   0  0  0  0  0  0  0  0  0  0  0  0  # atno 6907 bound_to 6896
  152.3767  133.6487  159.6138 H   0  0  0  0  0  0  0  0  0  0  0  0  # atno 6908 bound_to 6896
  150.7715  133.9097  159.3407 H   0  0  0  0  0  0  0  0  0  0  0  0  # atno 6909 bound_to 6896
  144.7151  140.1842  143.6355 H   0  0  0  0  0  0  0  0  0  0  0  0  # atno 7974 bound_to 7965
  154.5064  140.0821  156.7902 H   0  0  0  0  0  0  0  0  0  0  0  0  # atno 8008 bound_to 7997
  155.3885  140.3431  155.4232 H   0  0  0  0  0  0  0  0  0  0  0  0  # atno 8009 bound_to 7997
  156.1520  140.1561  156.8741 H   0  0  0  0  0  0  0  0  0  0  0  0  # atno 8010 bound_to 7997
  140.5121  143.2343  151.7576 H   0  0  0  0  0  0  0  0  0  0  0  0  # atno 10167 bound_to 10162
  155.9990  130.4761  150.4698 H   0  0  0  0  0  0  0  0  0  0  0  0  # atno 10718 bound_to 10713
  154.1454  135.2818  155.3150 H   0  0  0  0  0  0  0  0  0  0  0  0  # atno 10763 bound_to 10752
  154.6256  135.5452  153.7627 H   0  0  0  0  0  0  0  0  0  0  0  0  # atno 10764 bound_to 10752
  153.0237  135.6450  154.1600 H   0  0  0  0  0  0  0  0  0  0  0  0  # atno 10765 bound_to 10752
  140.7202  134.3735  157.5184 H   0  0  0  0  0  0  0  0  0  0  0  0  # atno 11005 bound_to 11000
  145.8829  139.2332  143.1595 LP  0  0  0  0  0  0  0  0  0  0  0  0  # atno 17320 bound_to 7965
  145.9978  140.8547  143.0034 LP  0  0  0  0  0  0  0  0  0  0  0  0  # atno 17321 bound_to 7965
  139.4899  144.4376  151.9801 LP  0  0  0  0  0  0  0  0  0  0  0  0  # atno 17342 bound_to 10162
  140.3469  144.3136  150.5956 LP  0  0  0  0  0  0  0  0  0  0  0  0  # atno 17343 bound_to 10162
  157.2714  131.0588  151.2257 LP  0  0  0  0  0  0  0  0  0  0  0  0  # atno 17370 bound_to 10713
  157.3336  130.6997  149.6339 LP  0  0  0  0  0  0  0  0  0  0  0  0  # atno 17371 bound_to 10713
  139.8850  134.8950  156.2670 LP  0  0  0  0  0  0  0  0  0  0  0  0  # atno 17394 bound_to 11000
  141.0010  133.7151  156.0960 LP  0  0  0  0  0  0  0  0  0  0  0  0  # atno 17395 bound_to 11000

$$$$
