AV-unprocessed.smi:830|AV-procd|sdf|3871|dock9
  -GOLD-   22720 1323D 1   1.00000     0.00000
 Structure written by MMmdl.
 52 54  0  0  0  0  0  0  0  0  1 V2000
  145.0958  133.2985  150.5570 C   0  0  0  0  0  0  0  0  0  0  0  0
  146.4819  133.1079  151.1954 C   0  0  1  0  0  0  0  0  0  0  0  0
  146.8218  134.3314  151.9194 N   0  0  0  0  0  0  0  0  0  0  0  0
  146.0082  134.9735  152.7707 C   0  0  0  0  0  0  0  0  0  0  0  0
  144.8876  134.5645  153.0743 O   0  0  0  0  0  0  0  0  0  0  0  0
  146.5851  136.0930  153.2393 N   0  0  0  0  0  0  0  0  0  0  0  0
  146.0763  137.0443  154.1713 C   0  0  0  0  0  0  0  0  0  0  0  0
  144.7043  137.1032  154.5219 C   0  0  0  0  0  0  0  0  0  0  0  0
  144.2726  138.0497  155.4669 C   0  0  0  0  0  0  0  0  0  0  0  0
  145.2284  138.9110  156.0296 C   0  0  0  0  0  0  0  0  0  0  0  0
  146.5328  138.8835  155.6925 N   0  0  0  0  0  0  0  0  0  0  0  0
  146.9614  137.9862  154.7707 C   0  0  0  0  0  0  0  0  0  0  0  0
  148.3324  138.0249  154.4290 N   0  0  0  0  0  0  0  0  0  0  0  0
  148.8899  139.3157  154.0352 C   0  0  0  0  0  0  0  0  0  0  0  0
  150.3061  139.3729  154.6176 C   0  0  0  0  0  0  0  0  0  0  0  0
  150.6619  137.9068  154.8421 C   0  0  0  0  0  0  0  0  0  0  0  0
  149.3153  137.3028  155.2303 C   0  0  0  0  0  0  0  0  0  0  0  0
  146.4030  131.9241  152.1718 C   0  0  0  0  0  0  0  0  0  0  0  0
  145.6779  131.9802  153.1664 O   0  0  0  0  0  0  0  0  0  0  0  0
  147.1485  130.8520  151.8645 N   0  0  0  0  0  0  0  0  0  0  0  0
  147.2254  129.6274  152.6560 C   0  0  0  0  0  0  0  0  0  0  0  0
  148.6406  129.4371  153.2351 C   0  0  0  0  0  0  0  0  0  0  0  0
  149.0320  127.9904  152.9292 C   0  0  0  0  0  0  0  0  0  0  0  0
  148.2840  127.6625  151.6406 C   0  0  0  0  0  0  0  0  0  0  0  0
  146.9426  128.3797  151.7952 C   0  0  0  0  0  0  0  0  0  0  0  0
  144.7852  132.4061  150.0120 H   0  0  0  0  0  0  0  0  0  0  0  0
  145.1066  134.1245  149.8452 H   0  0  0  0  0  0  0  0  0  0  0  0
  144.3290  133.5171  151.3022 H   0  0  0  0  0  0  0  0  0  0  0  0
  147.2203  132.9128  150.4148 H   0  0  0  0  0  0  0  0  0  0  0  0
  147.7267  134.7355  151.7276 H   0  0  0  0  0  0  0  0  0  0  0  0
  147.5408  136.2471  152.9530 H   0  0  0  0  0  0  0  0  0  0  0  0
  143.9704  136.4478  154.0801 H   0  0  0  0  0  0  0  0  0  0  0  0
  143.2336  138.1114  155.7543 H   0  0  0  0  0  0  0  0  0  0  0  0
  144.9375  139.6480  156.7634 H   0  0  0  0  0  0  0  0  0  0  0  0
  148.9340  139.3609  152.9467 H   0  0  0  0  0  0  0  0  0  0  0  0
  148.2818  140.1517  154.3844 H   0  0  0  0  0  0  0  0  0  0  0  0
  151.0119  139.8893  153.9667 H   0  0  0  0  0  0  0  0  0  0  0  0
  150.2880  139.8952  155.5752 H   0  0  0  0  0  0  0  0  0  0  0  0
  151.0179  137.4624  153.9116 H   0  0  0  0  0  0  0  0  0  0  0  0
  151.4288  137.7636  155.6039 H   0  0  0  0  0  0  0  0  0  0  0  0
  149.1439  137.4600  156.2958 H   0  0  0  0  0  0  0  0  0  0  0  0
  149.2786  136.2313  155.0315 H   0  0  0  0  0  0  0  0  0  0  0  0
  147.7135  130.8918  151.0286 H   0  0  0  0  0  0  0  0  0  0  0  0
  146.5049  129.6745  153.4751 H   0  0  0  0  0  0  0  0  0  0  0  0
  149.3506  130.1069  152.7469 H   0  0  0  0  0  0  0  0  0  0  0  0
  148.6799  129.6521  154.3037 H   0  0  0  0  0  0  0  0  0  0  0  0
  150.1103  127.8573  152.8365 H   0  0  0  0  0  0  0  0  0  0  0  0
  148.6831  127.3381  153.7309 H   0  0  0  0  0  0  0  0  0  0  0  0
  148.8248  128.0734  150.7870 H   0  0  0  0  0  0  0  0  0  0  0  0
  148.1711  126.5898  151.4802 H   0  0  0  0  0  0  0  0  0  0  0  0
  146.2468  127.7293  152.3268 H   0  0  0  0  0  0  0  0  0  0  0  0
  146.4887  128.6093  150.8299 H   0  0  0  0  0  0  0  0  0  0  0  0
  1  2  1  0  0  0  0
  1 26  1  0  0  0  0
  1 27  1  0  0  0  0
  1 28  1  0  0  0  0
  2  3  1  0  0  0  0
  2 18  1  0  0  0  0
  2 29  1  0  0  0  0
  3  4  1  0  0  0  0
  3 30  1  0  0  0  0
  4  5  2  0  0  0  0
  4  6  1  0  0  0  0
  6  7  1  0  0  0  0
  6 31  1  0  0  0  0
  7 12  1  0  0  0  0
  7  8  2  0  0  0  0
  8  9  1  0  0  0  0
  8 32  1  0  0  0  0
  9 10  2  0  0  0  0
  9 33  1  0  0  0  0
 10 11  1  0  0  0  0
 10 34  1  0  0  0  0
 11 12  2  0  0  0  0
 12 13  1  0  0  0  0
 13 17  1  0  0  0  0
 13 14  1  0  0  0  0
 14 15  1  0  0  0  0
 14 35  1  0  0  0  0
 14 36  1  0  0  0  0
 15 16  1  0  0  0  0
 15 37  1  0  0  0  0
 15 38  1  0  0  0  0
 16 17  1  0  0  0  0
 16 39  1  0  0  0  0
 16 40  1  0  0  0  0
 17 41  1  0  0  0  0
 17 42  1  0  0  0  0
 18 19  2  0  0  0  0
 18 20  1  0  0  0  0
 20 21  1  0  0  0  0
 20 43  1  0  0  0  0
 21 25  1  0  0  0  0
 21 22  1  0  0  0  0
 21 44  1  0  0  0  0
 22 23  1  0  0  0  0
 22 45  1  0  0  0  0
 22 46  1  0  0  0  0
 23 24  1  0  0  0  0
 23 47  1  0  0  0  0
 23 48  1  0  0  0  0
 24 25  1  0  0  0  0
 24 49  1  0  0  0  0
 24 50  1  0  0  0  0
 25 51  1  0  0  0  0
 25 52  1  0  0  0  0
M  END
> <s_m_source_file>
AV-unprocessed.smi

> <i_m_source_file_index>
830

> <i_lp_mmshare_version>
43012

> <i_f3d_flags>
0

> <s_epik_input>
W0NIMl0xW0NIMl1bQ0gyXVtDSDJdW0NIXTFbTkhdQyg9TylbQ0BIXShbQ0gzXSlbTkhdQyg9TylbTkhdYzJbY0hdW2NIXVtjSF1uYzJOM1tDSDJdW0NIMl1bQ0gyXVtDSDJdMw==

> <s_epik_cmdline>
J2VwaWtfcHl0aG9uJywgJy1waCcsICc3LjAnLCAnLXRuJywgJzgnLCAnLW1hJywgJzIwMCcsICctbWV0YWxfYmluZGluZycsICctaW1hZScsICc8aW5maWxlLm1hZT4nLCAnLW9tYWUnLCAnPG91dGZpbGUubWFlPic=

> <r_lp_tautomer_probability>
1

> <r_epik_Ionization_Penalty>
0.0827694

> <r_epik_Ionization_Penalty_Charging>
0

> <r_epik_Ionization_Penalty_Neutral>
0.0827694

> <r_epik_State_Penalty>
0.0729202

> <r_epik_Charging_Adjusted_Penalty>
0.0729202

> <i_epik_Tot_Q>
0

> <i_epik_Tot_abs_Q>
0

> <r_epik_Metal_State_Penalty>
0.0639723

> <b_epik_Metal_Only>
0

> <s_lp_Force_Field>
OPLS_2005

> <r_lp_Energy>
46.8553

> <b_lp_Chiralities_Consistent>
1

> <s_lp_Variant>
AV-unprocessed.smi:830-2

> <Gold.Version>
5.8.1

> <Gold.Id.Protein>
6NUR|6NUR_protein|mol2

> <Gold.PLP.Fitness>
40.7920

> <Gold.PLP.PLP>
-32.8143

> <Gold.PLP.part.hbond>
-2.7911

> <Gold.PLP.part.metal>
0.0000

> <Gold.PLP.part.buried>
-4.4335

> <Gold.PLP.part.nonpolar>
-26.1480

> <Gold.PLP.part.repulsive>
0.4908

> <Gold.PLP.ligand.clash>
0.0000

> <Gold.PLP.ligand.torsion>
0.6761

> <Gold.PLP.Chemscore.Hbond>
3.0000

> <Gold.PLP.Chemscore.CHOScore>
0.0000

> <Gold.PLP.Chemscore.Metal>
0.0000

> <Gold.Chemscore.Hbonds>
donor molecule, donor type, donor heavy atom, donor atom, acceptor molecule, acceptor atom, score
      L1  H     3    30       P1  7948  1.00
      L1  H     6    31       P1  7948  1.00
      L1  H    20    43       P1 10747  0.84

> <Gold.PLP.Chemscore.Internal.Correction>
0.3300

> <Gold.Rescore>
     Score         DG    S(hbond)    S(metal)    S(lipo)     H(rot)  DE(clash)    DE(int)     intcor
     14.21     -18.90       2.65        0.00      74.84       1.64       0.04       4.65       ----

> <Gold.Chemscore.Fitness>
14.2088

> <Gold.Chemscore.DG>
-18.8998

> <Gold.Chemscore.ZeroCoef>
-5.4800

> <Gold.Chemscore.Hbond>
2.6519

> <Gold.Chemscore.Metal>
0.0000

> <Gold.Chemscore.Lipo>
74.8391

> <Gold.Chemscore.Internal_Hbond>
0.0000

> <Gold.Chemscore.DEClash>
0.0388

> <Gold.Chemscore.DEInternal>
4.6523

> <Gold.Chemscore.Rot>
1.6382

> <Gold.Chemscore.Internal.Correction>
   9.000000E+99

> <Gold.Chemscore.Hbonds>
donor molecule, donor type, donor heavy atom, donor atom, acceptor molecule, acceptor atom, score
      L1  H     3    30       P1  7948  0.33
      L1  H     6    31       P1  7948  0.99
      L1  H    20    43       P1 10747  0.81

> <Gold.Chemscore.Hbond.Weighted>
-8.8573

> <Gold.Chemscore.Metal.Weighted>
-0.0000

> <Gold.Chemscore.Lipo.Weighted>
-8.7562

> <Gold.Chemscore.Internal_Hbond.Weighted>
0.0000

> <Gold.Chemscore.DEClash.Weighted>
0.0388

> <Gold.Chemscore.DEInternal.Weighted>
4.6523

> <Gold.Chemscore.Rot.Weighted>
4.1937

> <Gold.Chemscore.Internal.Correction.Weighted>
   9.000000E+99

> <Gold.Protein.RotatedTorsions>
[ 6907 6896 6895 6894 ] final -165.61 input  -60.11 | X-H torsion
[ 7974 7965 7964 7962 ] final   75.26 input  175.53 | X-H torsion
[ 8008 7997 7996 7995 ] final -144.10 input   59.86 | X-H torsion
[ 10167 10162 10161 10158 ] final  -71.64 input  -65.29 | X-H torsion
[ 10718 10713 10712 10709 ] final  136.51 input   66.30 | X-H torsion
[ 10763 10752 10751 10750 ] final  -87.69 input  -60.55 | X-H torsion
[ 11005 11000 10999 10996 ] final  -76.12 input  -57.11 | X-H torsion

> <Gold.Protein.ActiveResidues>
 VAL166  LYS551  ARG553  GLY616  TRP617  ASP618  TYR619  PRO620  LYS621  CYS622 
 ASP623  PHE694  ASN695  SER759  ASP760  ASP761  ALA762  ILE779  LEU786  VAL792 
 PHE793  MET794  SER795  GLU796  ALA797  LYS798  CYS799  TRP800  GLU811  SER814 

> <Gold.Protein.RotatedAtoms>
  151.4305  133.3672  159.2767 H   0  0  0  0  0  0  0  0  0  0  0  0  # atno 6907 bound_to 6896
  150.9229  134.8647  159.7511 H   0  0  0  0  0  0  0  0  0  0  0  0  # atno 6908 bound_to 6896
  152.4990  134.4244  159.9543 H   0  0  0  0  0  0  0  0  0  0  0  0  # atno 6909 bound_to 6896
  145.7178  139.2637  143.1613 H   0  0  0  0  0  0  0  0  0  0  0  0  # atno 7974 bound_to 7965
  155.5214  140.0592  157.2906 H   0  0  0  0  0  0  0  0  0  0  0  0  # atno 8008 bound_to 7997
  154.4516  140.1952  156.0448 H   0  0  0  0  0  0  0  0  0  0  0  0  # atno 8009 bound_to 7997
  156.0716  140.3259  155.7586 H   0  0  0  0  0  0  0  0  0  0  0  0  # atno 8010 bound_to 7997
  140.5257  143.2326  151.7352 H   0  0  0  0  0  0  0  0  0  0  0  0  # atno 10167 bound_to 10162
  157.4459  131.1062  151.0090 H   0  0  0  0  0  0  0  0  0  0  0  0  # atno 10718 bound_to 10713
  154.6363  135.5404  153.7738 H   0  0  0  0  0  0  0  0  0  0  0  0  # atno 10763 bound_to 10752
  153.0310  135.6448  154.1226 H   0  0  0  0  0  0  0  0  0  0  0  0  # atno 10764 bound_to 10752
  154.1153  135.2924  155.3201 H   0  0  0  0  0  0  0  0  0  0  0  0  # atno 10765 bound_to 10752
  141.1651  133.6971  156.7620 H   0  0  0  0  0  0  0  0  0  0  0  0  # atno 11005 bound_to 11000
  146.0654  140.7926  142.9714 LP  0  0  0  0  0  0  0  0  0  0  0  0  # atno 17320 bound_to 7965
  144.6925  140.3260  143.7224 LP  0  0  0  0  0  0  0  0  0  0  0  0  # atno 17321 bound_to 7965
  139.4937  144.4189  151.9999 LP  0  0  0  0  0  0  0  0  0  0  0  0  # atno 17342 bound_to 10162
  140.3289  144.3340  150.5992 LP  0  0  0  0  0  0  0  0  0  0  0  0  # atno 17343 bound_to 10162
  157.0936  130.5952  149.5445 LP  0  0  0  0  0  0  0  0  0  0  0  0  # atno 17370 bound_to 10713
  155.9967  130.5037  150.7507 LP  0  0  0  0  0  0  0  0  0  0  0  0  # atno 17371 bound_to 10713
  140.2527  134.8528  157.3682 LP  0  0  0  0  0  0  0  0  0  0  0  0  # atno 17394 bound_to 11000
  140.1687  134.4636  155.7846 LP  0  0  0  0  0  0  0  0  0  0  0  0  # atno 17395 bound_to 11000

$$$$
