AV-unprocessed.smi:3048|AV-procd|sdf|11628|dock8
  -GOLD-   2272017 13D 1   1.00000     0.00000
 Structure written by MMmdl.
 37 38  0  0  0  0  0  0  0  0  1 V2000
  145.8978  143.1986  153.7630 C   0  0  0  0  0  0  0  0  0  0  0  0
  146.9460  142.2908  154.3391 C   0  0  0  0  0  0  0  0  0  0  0  0
  147.0325  141.7882  155.6687 C   0  0  0  0  0  0  0  0  0  0  0  0
  148.0865  141.0112  155.8578 N   0  0  0  0  0  0  0  0  0  0  0  0
  148.7086  140.9908  154.6601 N   0  0  0  0  0  0  0  0  0  0  0  0
  149.9316  140.2266  154.4941 C   0  0  0  0  0  0  0  0  0  0  0  0
  150.5567  139.8231  155.8393 C   0  0  0  0  0  0  0  0  0  0  0  0
  150.3802  140.8658  156.8463 N   0  0  0  0  0  0  0  0  0  0  0  0
  151.5984  141.1678  157.5899 C   0  0  0  0  0  0  0  0  0  0  0  0
  151.3370  142.2219  158.6763 C   0  0  1  0  0  0  0  0  0  0  0  0
  152.5307  142.3517  159.6424 C   0  0  0  0  0  0  0  0  0  0  0  0
  152.2826  143.4711  160.6605 C   0  0  0  0  0  0  0  0  0  0  0  0
  151.9274  144.7685  159.9265 C   0  0  0  0  0  0  0  0  0  0  0  0
  150.7764  144.5237  158.9382 C   0  0  0  0  0  0  0  0  0  0  0  0
  151.1282  143.4794  158.0358 O   0  0  0  0  0  0  0  0  0  0  0  0
  148.0412  141.7530  153.7249 C   0  0  0  0  0  0  0  0  0  0  0  0
  144.9372  143.0760  154.2638 H   0  0  0  0  0  0  0  0  0  0  0  0
  145.7337  143.0050  152.7028 H   0  0  0  0  0  0  0  0  0  0  0  0
  146.1797  144.2473  153.8594 H   0  0  0  0  0  0  0  0  0  0  0  0
  146.3638  141.9653  156.4983 H   0  0  0  0  0  0  0  0  0  0  0  0
  149.7020  139.3345  153.9095 H   0  0  0  0  0  0  0  0  0  0  0  0
  150.6371  140.8130  153.9036 H   0  0  0  0  0  0  0  0  0  0  0  0
  150.1131  138.8878  156.1828 H   0  0  0  0  0  0  0  0  0  0  0  0
  151.6199  139.6276  155.6963 H   0  0  0  0  0  0  0  0  0  0  0  0
  149.6459  140.5942  157.4926 H   0  0  0  0  0  0  0  0  0  0  0  0
  151.9622  140.2544  158.0626 H   0  0  0  0  0  0  0  0  0  0  0  0
  152.3873  141.5065  156.9172 H   0  0  0  0  0  0  0  0  0  0  0  0
  150.4456  141.9445  159.2427 H   0  0  0  0  0  0  0  0  0  0  0  0
  152.7005  141.4085  160.1629 H   0  0  0  0  0  0  0  0  0  0  0  0
  153.4394  142.5659  159.0783 H   0  0  0  0  0  0  0  0  0  0  0  0
  151.4644  143.1887  161.3241 H   0  0  0  0  0  0  0  0  0  0  0  0
  153.1616  143.6172  161.2891 H   0  0  0  0  0  0  0  0  0  0  0  0
  151.6548  145.5453  160.6415 H   0  0  0  0  0  0  0  0  0  0  0  0
  152.8001  145.1340  159.3840 H   0  0  0  0  0  0  0  0  0  0  0  0
  149.8562  144.2683  159.4661 H   0  0  0  0  0  0  0  0  0  0  0  0
  150.5736  145.4296  158.3670 H   0  0  0  0  0  0  0  0  0  0  0  0
  148.4005  141.8516  152.7110 H   0  0  0  0  0  0  0  0  0  0  0  0
  1  2  1  0  0  0  0
  1 17  1  0  0  0  0
  1 18  1  0  0  0  0
  1 19  1  0  0  0  0
  2 16  2  0  0  0  0
  2  3  1  0  0  0  0
  3  4  2  0  0  0  0
  3 20  1  0  0  0  0
  4  5  1  0  0  0  0
  5  6  1  0  0  0  0
  5 16  1  0  0  0  0
  6  7  1  0  0  0  0
  6 21  1  0  0  0  0
  6 22  1  0  0  0  0
  7  8  1  0  0  0  0
  7 23  1  0  0  0  0
  7 24  1  0  0  0  0
  8  9  1  0  0  0  0
  8 25  1  0  0  0  0
  9 10  1  0  0  0  0
  9 26  1  0  0  0  0
  9 27  1  0  0  0  0
 10 15  1  0  0  0  0
 10 11  1  0  0  0  0
 10 28  1  0  0  0  0
 11 12  1  0  0  0  0
 11 29  1  0  0  0  0
 11 30  1  0  0  0  0
 12 13  1  0  0  0  0
 12 31  1  0  0  0  0
 12 32  1  0  0  0  0
 13 14  1  0  0  0  0
 13 33  1  0  0  0  0
 13 34  1  0  0  0  0
 14 15  1  0  0  0  0
 14 35  1  0  0  0  0
 14 36  1  0  0  0  0
 16 37  1  0  0  0  0
M  END
> <s_m_source_file>
AV-unprocessed.smi

> <i_m_source_file_index>
3048

> <i_lp_mmshare_version>
43012

> <i_f3d_flags>
0

> <s_epik_input>
W0NIM11jMVtjSF1ubihbY0hdMSlbQ0gyXVtDSDJdW05IXVtDSDJdW0NAQEhdMltDSDJdW0NIMl1bQ0gyXVtDSDJdTzI=

> <s_epik_cmdline>
J2VwaWtfcHl0aG9uJywgJy1waCcsICc3LjAnLCAnLXRuJywgJzgnLCAnLW1hJywgJzIwMCcsICctbWV0YWxfYmluZGluZycsICctaW1hZScsICc8aW5maWxlLm1hZT4nLCAnLW9tYWUnLCAnPG91dGZpbGUubWFlPic=

> <r_lp_tautomer_probability>
1

> <r_epik_Ionization_Penalty>
2.52229

> <r_epik_Ionization_Penalty_Charging>
0

> <r_epik_Ionization_Penalty_Neutral>
2.52229

> <r_epik_State_Penalty>
2.68614

> <r_epik_Charging_Adjusted_Penalty>
2.68614

> <i_epik_Tot_Q>
0

> <i_epik_Tot_abs_Q>
0

> <r_epik_Metal_State_Penalty>
2.68365

> <b_epik_Metal_Only>
0

> <s_lp_Force_Field>
OPLS_2005

> <r_lp_Energy>
12.9812

> <b_lp_Chiralities_Consistent>
1

> <s_lp_Variant>
AV-unprocessed.smi:3048-4

> <Gold.Version>
5.8.1

> <Gold.Id.Protein>
6NUR|6NUR_protein|mol2

> <Gold.PLP.Fitness>
39.1989

> <Gold.PLP.PLP>
-37.6186

> <Gold.PLP.part.hbond>
0.0000

> <Gold.PLP.part.metal>
0.0000

> <Gold.PLP.part.buried>
-4.6858

> <Gold.PLP.part.nonpolar>
-32.7162

> <Gold.PLP.part.repulsive>
0.2055

> <Gold.PLP.ligand.clash>
0.0000

> <Gold.PLP.ligand.torsion>
0.7172

> <Gold.PLP.Chemscore.Hbond>
0.0000

> <Gold.PLP.Chemscore.CHOScore>
0.9956

> <Gold.PLP.Chemscore.Metal>
0.0000

> <Gold.Chemscore.Hbonds>
donor molecule, donor type, donor heavy atom, donor atom, acceptor molecule, acceptor atom, score
      L1  C    16    37       P1  7957  0.70

> <Gold.PLP.Chemscore.Internal.Correction>
0.0276

> <Gold.Rescore>
     Score         DG    S(hbond)    S(metal)    S(lipo)     H(rot)  DE(clash)    DE(int)     intcor
     13.10     -13.77       0.00        0.00     104.57       1.54       0.06       0.61       ----

> <Gold.Chemscore.Fitness>
13.0976

> <Gold.Chemscore.DG>
-13.7691

> <Gold.Chemscore.ZeroCoef>
-5.4800

> <Gold.Chemscore.Hbond>
0.0000

> <Gold.Chemscore.Metal>
0.0000

> <Gold.Chemscore.Lipo>
104.5668

> <Gold.Chemscore.Internal_Hbond>
0.0000

> <Gold.Chemscore.DEClash>
0.0588

> <Gold.Chemscore.DEInternal>
0.6127

> <Gold.Chemscore.Rot>
1.5411

> <Gold.Chemscore.Internal.Correction>
   9.000000E+99

> <Gold.Chemscore.Hbond.Weighted>
-0.0000

> <Gold.Chemscore.Metal.Weighted>
-0.0000

> <Gold.Chemscore.Lipo.Weighted>
-12.2343

> <Gold.Chemscore.Internal_Hbond.Weighted>
0.0000

> <Gold.Chemscore.DEClash.Weighted>
0.0588

> <Gold.Chemscore.DEInternal.Weighted>
0.6127

> <Gold.Chemscore.Rot.Weighted>
3.9452

> <Gold.Chemscore.Internal.Correction.Weighted>
   9.000000E+99

> <Gold.Protein.RotatedTorsions>
[ 6907 6896 6895 6894 ] final -127.23 input  -60.11 | X-H torsion
[ 7974 7965 7964 7962 ] final   34.33 input  175.53 | X-H torsion
[ 8008 7997 7996 7995 ] final -122.89 input   59.86 | X-H torsion
[ 10167 10162 10161 10158 ] final   30.54 input  -65.29 | X-H torsion
[ 10718 10713 10712 10709 ] final   -9.51 input   66.30 | X-H torsion
[ 10763 10752 10751 10750 ] final -117.35 input  -60.55 | X-H torsion
[ 11005 11000 10999 10996 ] final  -93.08 input  -57.11 | X-H torsion

> <Gold.Protein.ActiveResidues>
 VAL166  LYS551  ARG553  GLY616  TRP617  ASP618  TYR619  PRO620  LYS621  CYS622 
 ASP623  PHE694  ASN695  SER759  ASP760  ASP761  ALA762  ILE779  LEU786  VAL792 
 PHE793  MET794  SER795  GLU796  ALA797  LYS798  CYS799  TRP800  GLU811  SER814 

> <Gold.Protein.RotatedAtoms>
  150.9051  133.7068  159.2868 H   0  0  0  0  0  0  0  0  0  0  0  0  # atno 6907 bound_to 6896
  151.4574  135.1034  159.9725 H   0  0  0  0  0  0  0  0  0  0  0  0  # atno 6908 bound_to 6896
  152.4899  133.8422  159.7214 H   0  0  0  0  0  0  0  0  0  0  0  0  # atno 6909 bound_to 6896
  146.1360  139.6282  142.9195 H   0  0  0  0  0  0  0  0  0  0  0  0  # atno 7974 bound_to 7965
  155.1716  140.0408  157.2864 H   0  0  0  0  0  0  0  0  0  0  0  0  # atno 8008 bound_to 7997
  154.6265  140.2514  155.7458 H   0  0  0  0  0  0  0  0  0  0  0  0  # atno 8009 bound_to 7997
  156.2462  140.2884  156.0598 H   0  0  0  0  0  0  0  0  0  0  0  0  # atno 8010 bound_to 7997
  140.4668  144.0823  150.6226 H   0  0  0  0  0  0  0  0  0  0  0  0  # atno 10167 bound_to 10162
  156.6870  130.5054  149.5954 H   0  0  0  0  0  0  0  0  0  0  0  0  # atno 10718 bound_to 10713
  154.8552  135.4313  154.1965 H   0  0  0  0  0  0  0  0  0  0  0  0  # atno 10763 bound_to 10752
  153.3022  135.6969  153.7199 H   0  0  0  0  0  0  0  0  0  0  0  0  # atno 10764 bound_to 10752
  153.6324  135.3482  155.3020 H   0  0  0  0  0  0  0  0  0  0  0  0  # atno 10765 bound_to 10752
  141.1506  133.7863  157.0109 H   0  0  0  0  0  0  0  0  0  0  0  0  # atno 11005 bound_to 11000
  145.5155  141.0434  143.2464 LP  0  0  0  0  0  0  0  0  0  0  0  0  # atno 17320 bound_to 7965
  144.7740  139.6671  143.7182 LP  0  0  0  0  0  0  0  0  0  0  0  0  # atno 17321 bound_to 7965
  140.4026  143.2696  151.9929 LP  0  0  0  0  0  0  0  0  0  0  0  0  # atno 17342 bound_to 10162
  139.4813  144.5984  151.7648 LP  0  0  0  0  0  0  0  0  0  0  0  0  # atno 17343 bound_to 10162
  156.1826  130.6508  151.0969 LP  0  0  0  0  0  0  0  0  0  0  0  0  # atno 17370 bound_to 10713
  157.7023  131.0771  150.6781 LP  0  0  0  0  0  0  0  0  0  0  0  0  # atno 17371 bound_to 10713
  140.0878  134.9610  157.1728 LP  0  0  0  0  0  0  0  0  0  0  0  0  # atno 17394 bound_to 11000
  140.3487  134.2622  155.7201 LP  0  0  0  0  0  0  0  0  0  0  0  0  # atno 17395 bound_to 11000

$$$$
