AV-unprocessed.smi:2032|AV-procd|sdf|8248|dock7
  -GOLD-   2272010523D 1   1.00000     0.00000
 Structure written by MMmdl.
 41 42  0  0  0  0  0  0  0  0  2 V2000
  154.0381  140.9504  160.8729 C   0  0  0  0  0  0  0  0  0  0  0  0
  153.2950  141.5093  159.6551 C   0  0  1  0  0  0  0  0  0  0  0  0
  151.9602  140.7821  159.4033 C   0  0  0  0  0  0  0  0  0  0  0  0
  151.2025  141.3513  158.2838 N   0  0  0  0  0  0  0  0  0  0  0  0
  149.9089  140.6640  158.0568 C   0  0  1  0  0  0  0  0  0  0  0  0
  149.0286  141.3820  157.0020 C   0  0  0  0  0  0  0  0  0  0  0  0
  150.0680  139.1693  157.6497 C   0  0  0  0  0  0  0  0  0  0  0  0
  148.9337  138.3321  158.0335 N   0  0  0  0  0  0  0  0  0  0  0  0
  148.9771  137.2731  158.8546 C   0  0  0  0  0  0  0  0  0  0  0  0
  150.0495  136.9241  159.3534 O   0  0  0  0  0  0  0  0  0  0  0  0
  147.7732  136.6882  159.0493 N   0  5  0  0  0  0  0  0  0  0  0  0
  147.3762  136.3590  160.2893 C   0  0  0  0  0  0  0  0  0  0  0  0
  147.2578  137.2523  161.2786 N   0  0  0  0  0  0  0  0  0  0  0  0
  146.8434  136.6902  162.4874 C   0  0  0  0  0  0  0  0  0  0  0  0
  146.6502  135.3360  162.4195 C   0  0  0  0  0  0  0  0  0  0  0  0
  146.9833  134.7227  160.8247 S   0  0  0  0  0  0  0  0  0  0  0  0
  151.0370  142.7868  158.5362 C   0  0  0  0  0  0  0  0  0  0  0  0
  152.3727  143.5108  158.7919 C   0  0  1  0  0  0  0  0  0  0  0  0
  152.1716  144.9910  159.1336 C   0  0  0  0  0  0  0  0  0  0  0  0
  153.0404  142.8896  159.8827 O   0  0  0  0  0  0  0  0  0  0  0  0
  154.2681  139.8930  160.7401 H   0  0  0  0  0  0  0  0  0  0  0  0
  153.4419  141.0521  161.7801 H   0  0  0  0  0  0  0  0  0  0  0  0
  154.9792  141.4776  161.0312 H   0  0  0  0  0  0  0  0  0  0  0  0
  153.9368  141.4074  158.7782 H   0  0  0  0  0  0  0  0  0  0  0  0
  152.2023  139.7390  159.2104 H   0  0  0  0  0  0  0  0  0  0  0  0
  151.3526  140.8054  160.3095 H   0  0  0  0  0  0  0  0  0  0  0  0
  149.3542  140.6822  158.9961 H   0  0  0  0  0  0  0  0  0  0  0  0
  148.0969  140.8524  156.8068 H   0  0  0  0  0  0  0  0  0  0  0  0
  149.5546  141.4804  156.0521 H   0  0  0  0  0  0  0  0  0  0  0  0
  148.7229  142.3761  157.3239 H   0  0  0  0  0  0  0  0  0  0  0  0
  150.1930  139.0909  156.5693 H   0  0  0  0  0  0  0  0  0  0  0  0
  150.9527  138.7169  158.0957 H   0  0  0  0  0  0  0  0  0  0  0  0
  148.0345  138.5806  157.6485 H   0  0  0  0  0  0  0  0  0  0  0  0
  146.7138  137.3293  163.3482 H   0  0  0  0  0  0  0  0  0  0  0  0
  146.3356  134.6651  163.2047 H   0  0  0  0  0  0  0  0  0  0  0  0
  150.5694  143.2738  157.6827 H   0  0  0  0  0  0  0  0  0  0  0  0
  150.3725  142.9354  159.3888 H   0  0  0  0  0  0  0  0  0  0  0  0
  153.0023  143.4399  157.9031 H   0  0  0  0  0  0  0  0  0  0  0  0
  151.6687  145.5169  158.3218 H   0  0  0  0  0  0  0  0  0  0  0  0
  153.1285  145.4842  159.3066 H   0  0  0  0  0  0  0  0  0  0  0  0
  151.5683  145.1095  160.0343 H   0  0  0  0  0  0  0  0  0  0  0  0
  1  2  1  0  0  0  0
  1 21  1  0  0  0  0
  1 22  1  0  0  0  0
  1 23  1  0  0  0  0
  2 20  1  0  0  0  0
  2  3  1  0  0  0  0
  2 24  1  0  0  0  0
  3  4  1  0  0  0  0
  3 25  1  0  0  0  0
  3 26  1  0  0  0  0
  4  5  1  0  0  0  0
  4 17  1  0  0  0  0
  5  6  1  0  0  0  0
  5  7  1  0  0  0  0
  5 27  1  0  0  0  0
  6 28  1  0  0  0  0
  6 29  1  0  0  0  0
  6 30  1  0  0  0  0
  7  8  1  0  0  0  0
  7 31  1  0  0  0  0
  7 32  1  0  0  0  0
  8  9  1  0  0  0  0
  8 33  1  0  0  0  0
  9 10  2  0  0  0  0
  9 11  1  0  0  0  0
 11 12  1  0  0  0  0
 12 16  1  0  0  0  0
 12 13  2  0  0  0  0
 13 14  1  0  0  0  0
 14 15  2  0  0  0  0
 14 34  1  0  0  0  0
 15 16  1  0  0  0  0
 15 35  1  0  0  0  0
 17 18  1  0  0  0  0
 17 36  1  0  0  0  0
 17 37  1  0  0  0  0
 18 19  1  0  0  0  0
 18 20  1  0  0  0  0
 18 38  1  0  0  0  0
 19 39  1  0  0  0  0
 19 40  1  0  0  0  0
 19 41  1  0  0  0  0
M  CHG  1  11  -1
M  END
> <s_m_source_file>
AV-unprocessed.smi

> <i_m_source_file_index>
2032

> <i_lp_mmshare_version>
43012

> <i_f3d_flags>
0

> <s_epik_input>
W0NIM11bQ0BASF0xW0NIMl1OKFtDSDJdW0NASF0oTzEpW0NIM10pW0NASF0oW0NIM10pW0NIMl1bTkhdQyg9TylbTkhdYzJuW2NIXVtjSF1zMg==

> <s_epik_cmdline>
J2VwaWtfcHl0aG9uJywgJy1waCcsICc3LjAnLCAnLXRuJywgJzgnLCAnLW1hJywgJzIwMCcsICctbWV0YWxfYmluZGluZycsICctaW1hZScsICc8aW5maWxlLm1hZT4nLCAnLW9tYWUnLCAnPG91dGZpbGUubWFlPic=

> <r_lp_tautomer_probability>
0.999

> <r_epik_Ionization_Penalty>
7.22375

> <r_epik_Ionization_Penalty_Charging>
5.82415

> <r_epik_Ionization_Penalty_Neutral>
1.39959

> <r_epik_State_Penalty>
6.03347

> <r_epik_Charging_Adjusted_Penalty>
11.8576

> <i_epik_Tot_Q>
-1

> <i_epik_Tot_abs_Q>
1

> <r_epik_Metal_State_Penalty>
2.01024

> <b_epik_Metal_Only>
1

> <s_lp_Force_Field>
OPLS_2005

> <r_lp_Energy>
22.8045

> <b_lp_Chiralities_Consistent>
1

> <s_lp_Variant>
AV-unprocessed.smi:2032-18

> <Gold.Version>
5.8.1

> <Gold.Id.Protein>
6NUR|6NUR_protein|mol2

> <Gold.PLP.Fitness>
49.7687

> <Gold.PLP.PLP>
-44.0626

> <Gold.PLP.part.hbond>
-3.0000

> <Gold.PLP.part.metal>
0.0000

> <Gold.PLP.part.buried>
-5.8883

> <Gold.PLP.part.nonpolar>
-34.5839

> <Gold.PLP.part.repulsive>
0.1361

> <Gold.PLP.ligand.clash>
0.0000

> <Gold.PLP.ligand.torsion>
1.2669

> <Gold.PLP.Chemscore.Hbond>
2.7200

> <Gold.PLP.Chemscore.CHOScore>
0.0000

> <Gold.PLP.Chemscore.Metal>
0.0000

> <Gold.Chemscore.Hbonds>
donor molecule, donor type, donor heavy atom, donor atom, acceptor molecule, acceptor atom, score
      P1  H  6896  6909       L1    10  0.63
      P1  H  6931  6943       L1    13  0.62
      P1  H  6934  6947       L1    13  1.00

> <Gold.PLP.Chemscore.Internal.Correction>
0.0798

> <Gold.Rescore>
     Score         DG    S(hbond)    S(metal)    S(lipo)     H(rot)  DE(clash)    DE(int)     intcor
     20.03     -21.13       2.34        0.00     100.82       1.54       0.02       1.08       ----

> <Gold.Chemscore.Fitness>
20.0318

> <Gold.Chemscore.DG>
-21.1304

> <Gold.Chemscore.ZeroCoef>
-5.4800

> <Gold.Chemscore.Hbond>
2.3367

> <Gold.Chemscore.Metal>
0.0000

> <Gold.Chemscore.Lipo>
100.8208

> <Gold.Chemscore.Internal_Hbond>
0.0000

> <Gold.Chemscore.DEClash>
0.0162

> <Gold.Chemscore.DEInternal>
1.0824

> <Gold.Chemscore.Rot>
1.5431

> <Gold.Chemscore.Internal.Correction>
   9.000000E+99

> <Gold.Chemscore.Hbonds>
donor molecule, donor type, donor heavy atom, donor atom, acceptor molecule, acceptor atom, score
      P1  H  6896  6909       L1    10  0.63
      P1  H  6931  6943       L1    13  0.15
      P1  H  6934  6947       L1    13  0.94

> <Gold.Chemscore.Hbond.Weighted>
-7.8046

> <Gold.Chemscore.Metal.Weighted>
-0.0000

> <Gold.Chemscore.Lipo.Weighted>
-11.7960

> <Gold.Chemscore.Internal_Hbond.Weighted>
0.0000

> <Gold.Chemscore.DEClash.Weighted>
0.0162

> <Gold.Chemscore.DEInternal.Weighted>
1.0824

> <Gold.Chemscore.Rot.Weighted>
3.9503

> <Gold.Chemscore.Internal.Correction.Weighted>
   9.000000E+99

> <Gold.Protein.RotatedTorsions>
[ 6907 6896 6895 6894 ] final   85.14 input  -60.11 | X-H torsion
[ 7974 7965 7964 7962 ] final  156.36 input  175.53 | X-H torsion
[ 8008 7997 7996 7995 ] final   88.46 input   59.86 | X-H torsion
[ 10167 10162 10161 10158 ] final  102.28 input  -65.29 | X-H torsion
[ 10718 10713 10712 10709 ] final -169.94 input   66.30 | X-H torsion
[ 10763 10752 10751 10750 ] final   68.25 input  -60.55 | X-H torsion
[ 11005 11000 10999 10996 ] final  -68.95 input  -57.11 | X-H torsion

> <Gold.Protein.ActiveResidues>
 VAL166  LYS551  ARG553  GLY616  TRP617  ASP618  TYR619  PRO620  LYS621  CYS622 
 ASP623  PHE694  ASN695  SER759  ASP760  ASP761  ALA762  ILE779  LEU786  VAL792 
 PHE793  MET794  SER795  GLU796  ALA797  LYS798  CYS799  TRP800  GLU811  SER814 

> <Gold.Protein.RotatedAtoms>
  152.5368  134.2632  159.8942 H   0  0  0  0  0  0  0  0  0  0  0  0  # atno 6907 bound_to 6896
  151.2591  133.4304  159.2623 H   0  0  0  0  0  0  0  0  0  0  0  0  # atno 6908 bound_to 6896
  151.0469  134.9660  159.8247 H   0  0  0  0  0  0  0  0  0  0  0  0  # atno 6909 bound_to 6896
  144.7968  139.7193  143.6198 H   0  0  0  0  0  0  0  0  0  0  0  0  # atno 7974 bound_to 7965
  155.9880  140.3371  155.6725 H   0  0  0  0  0  0  0  0  0  0  0  0  # atno 8008 bound_to 7997
  155.6459  140.0700  157.2621 H   0  0  0  0  0  0  0  0  0  0  0  0  # atno 8009 bound_to 7997
  154.4211  140.1734  156.1611 H   0  0  0  0  0  0  0  0  0  0  0  0  # atno 8010 bound_to 7997
  139.7364  144.7023  151.0643 H   0  0  0  0  0  0  0  0  0  0  0  0  # atno 10167 bound_to 10162
  156.7189  130.9262  151.3096 H   0  0  0  0  0  0  0  0  0  0  0  0  # atno 10718 bound_to 10713
  153.0226  135.5254  154.7105 H   0  0  0  0  0  0  0  0  0  0  0  0  # atno 10763 bound_to 10752
  154.6189  135.2886  155.0351 H   0  0  0  0  0  0  0  0  0  0  0  0  # atno 10764 bound_to 10752
  154.1345  135.6588  153.4981 H   0  0  0  0  0  0  0  0  0  0  0  0  # atno 10765 bound_to 10752
  141.1543  133.6753  156.6524 H   0  0  0  0  0  0  0  0  0  0  0  0  # atno 11005 bound_to 11000
  146.2238  139.5685  142.9601 LP  0  0  0  0  0  0  0  0  0  0  0  0  # atno 17320 bound_to 7965
  145.5654  141.0400  143.2203 LP  0  0  0  0  0  0  0  0  0  0  0  0  # atno 17321 bound_to 7965
  140.7779  143.4979  150.9809 LP  0  0  0  0  0  0  0  0  0  0  0  0  # atno 17342 bound_to 10162
  139.8667  143.7244  152.3169 LP  0  0  0  0  0  0  0  0  0  0  0  0  # atno 17343 bound_to 10162
  157.6906  130.9230  150.0504 LP  0  0  0  0  0  0  0  0  0  0  0  0  # atno 17370 bound_to 10713
  156.1609  130.3644  149.9301 LP  0  0  0  0  0  0  0  0  0  0  0  0  # atno 17371 bound_to 10713
  140.3310  134.7929  157.4326 LP  0  0  0  0  0  0  0  0  0  0  0  0  # atno 17394 bound_to 11000
  140.1017  134.5464  155.8347 LP  0  0  0  0  0  0  0  0  0  0  0  0  # atno 17395 bound_to 11000

$$$$
