AV-unprocessed.smi:1561|AV-procd|sdf|6285|dock2
  -GOLD-   22720 6483D 1   1.00000     0.00000
 Structure written by MMmdl.
 33 34  0  0  0  0  0  0  0  0  1 V2000
  153.8759  141.7480  160.9935 C   0  0  0  0  0  0  0  0  0  0  0  0
  152.7790  141.3869  159.9706 C   0  0  2  0  0  0  0  0  0  0  0  0
  153.1721  140.2126  159.0608 C   0  0  0  0  0  0  0  0  0  0  0  0
  154.3348  139.8087  159.0165 O   0  0  0  0  0  0  0  0  0  0  0  0
  152.1848  139.6854  158.3202 N   0  0  0  0  0  0  0  0  0  0  0  0
  152.3542  138.6474  157.3106 C   0  0  0  0  0  0  0  0  0  0  0  0
  152.0317  139.1722  155.8982 C   0  0  1  0  0  0  0  0  0  0  0  0
  151.6764  138.0810  154.8950 C   0  0  0  0  0  0  0  0  0  0  0  0
  150.5481  138.6892  154.0543 C   0  0  0  0  0  0  0  0  0  0  0  0
  150.4645  140.0490  154.4572 O   0  0  0  0  0  0  0  0  0  0  0  0
  150.8237  140.1057  155.8263 C   0  0  0  0  0  0  0  0  0  0  0  0
  152.3784  142.5309  159.1585 N   0  0  0  0  0  0  0  0  0  0  0  0
  152.8376  143.8302  159.2399 C   0  0  0  0  0  0  0  0  0  0  0  0
  152.1454  144.5695  158.3245 C   0  0  0  0  0  0  0  0  0  0  0  0
  151.2613  143.6278  157.7291 C   0  0  0  0  0  0  0  0  0  0  0  0
  151.3957  142.4132  158.2350 N   0  0  0  0  0  0  0  0  0  0  0  0
  154.1135  140.8957  161.6308 H   0  0  0  0  0  0  0  0  0  0  0  0
  153.5474  142.5594  161.6438 H   0  0  0  0  0  0  0  0  0  0  0  0
  154.8006  142.0665  160.5107 H   0  0  0  0  0  0  0  0  0  0  0  0
  151.9013  141.0756  160.5395 H   0  0  0  0  0  0  0  0  0  0  0  0
  151.2576  140.0714  158.4246 H   0  0  0  0  0  0  0  0  0  0  0  0
  153.3699  138.2498  157.3460 H   0  0  0  0  0  0  0  0  0  0  0  0
  151.6899  137.8207  157.5641 H   0  0  0  0  0  0  0  0  0  0  0  0
  152.8950  139.7146  155.5085 H   0  0  0  0  0  0  0  0  0  0  0  0
  152.5407  137.8185  154.2837 H   0  0  0  0  0  0  0  0  0  0  0  0
  151.3297  137.1708  155.3866 H   0  0  0  0  0  0  0  0  0  0  0  0
  150.7349  138.6112  152.9831 H   0  0  0  0  0  0  0  0  0  0  0  0
  149.6008  138.1932  154.2706 H   0  0  0  0  0  0  0  0  0  0  0  0
  149.9983  139.7375  156.4380 H   0  0  0  0  0  0  0  0  0  0  0  0
  151.0583  141.1243  156.1374 H   0  0  0  0  0  0  0  0  0  0  0  0
  153.6097  144.1184  159.9381 H   0  0  0  0  0  0  0  0  0  0  0  0
  152.2501  145.6239  158.1159 H   0  0  0  0  0  0  0  0  0  0  0  0
  150.5273  143.7905  156.9538 H   0  0  0  0  0  0  0  0  0  0  0  0
  1  2  1  0  0  0  0
  1 17  1  0  0  0  0
  1 18  1  0  0  0  0
  1 19  1  0  0  0  0
  2  3  1  0  0  0  0
  2 12  1  0  0  0  0
  2 20  1  0  0  0  0
  3  4  2  0  0  0  0
  3  5  1  0  0  0  0
  5  6  1  0  0  0  0
  5 21  1  0  0  0  0
  6  7  1  0  0  0  0
  6 22  1  0  0  0  0
  6 23  1  0  0  0  0
  7 11  1  0  0  0  0
  7  8  1  0  0  0  0
  7 24  1  0  0  0  0
  8  9  1  0  0  0  0
  8 25  1  0  0  0  0
  8 26  1  0  0  0  0
  9 10  1  0  0  0  0
  9 27  1  0  0  0  0
  9 28  1  0  0  0  0
 10 11  1  0  0  0  0
 11 29  1  0  0  0  0
 11 30  1  0  0  0  0
 12 16  1  0  0  0  0
 12 13  1  0  0  0  0
 13 14  2  0  0  0  0
 13 31  1  0  0  0  0
 14 15  1  0  0  0  0
 14 32  1  0  0  0  0
 15 16  2  0  0  0  0
 15 33  1  0  0  0  0
M  END
> <s_m_source_file>
AV-unprocessed.smi

> <i_m_source_file_index>
1561

> <i_lp_mmshare_version>
43012

> <i_f3d_flags>
0

> <s_epik_input>
bjFbY0hdW2NIXVtjSF1uMVtDQEhdKFtDSDNdKUMoPU8pW05IXVtDSDJdW0NAQEhdMltDSDJdW0NIMl1PW0NIMl0y

> <s_epik_cmdline>
J2VwaWtfcHl0aG9uJywgJy1waCcsICc3LjAnLCAnLXRuJywgJzgnLCAnLW1hJywgJzIwMCcsICctbWV0YWxfYmluZGluZycsICctaW1hZScsICc8aW5maWxlLm1hZT4nLCAnLW9tYWUnLCAnPG91dGZpbGUubWFlPic=

> <r_lp_tautomer_probability>
1

> <r_epik_Ionization_Penalty>
3.82077e-05

> <r_epik_Ionization_Penalty_Charging>
0

> <r_epik_Ionization_Penalty_Neutral>
3.82077e-05

> <r_epik_State_Penalty>
-0

> <r_epik_Charging_Adjusted_Penalty>
0

> <i_epik_Tot_Q>
0

> <i_epik_Tot_abs_Q>
0

> <r_epik_Metal_State_Penalty>
-0

> <b_epik_Metal_Only>
0

> <s_lp_Force_Field>
OPLS_2005

> <r_lp_Energy>
22.0569

> <b_lp_Chiralities_Consistent>
1

> <s_lp_Variant>
AV-unprocessed.smi:1561-3

> <Gold.Version>
5.8.1

> <Gold.Id.Protein>
6NUR|6NUR_protein|mol2

> <Gold.PLP.Fitness>
46.9819

> <Gold.PLP.PLP>
-38.7435

> <Gold.PLP.part.hbond>
-2.0000

> <Gold.PLP.part.metal>
0.0000

> <Gold.PLP.part.buried>
-4.8954

> <Gold.PLP.part.nonpolar>
-32.7424

> <Gold.PLP.part.repulsive>
0.2240

> <Gold.PLP.ligand.clash>
0.0000

> <Gold.PLP.ligand.torsion>
0.4355

> <Gold.PLP.Chemscore.Hbond>
2.0000

> <Gold.PLP.Chemscore.CHOScore>
1.0000

> <Gold.PLP.Chemscore.Metal>
0.0000

> <Gold.Chemscore.Hbonds>
donor molecule, donor type, donor heavy atom, donor atom, acceptor molecule, acceptor atom, score
      P1  H  7989  7998       L1    10  1.00
      P1  H  7997  8008       L1     4  1.00
      L1  C    15    33       P1  8028  1.00

> <Gold.PLP.Chemscore.Internal.Correction>
0.1094

> <Gold.Rescore>
     Score         DG    S(hbond)    S(metal)    S(lipo)     H(rot)  DE(clash)    DE(int)     intcor
     15.61     -17.22       1.44        0.00      94.50       1.61       0.00       1.61       ----

> <Gold.Chemscore.Fitness>
15.6089

> <Gold.Chemscore.DG>
-17.2233

> <Gold.Chemscore.ZeroCoef>
-5.4800

> <Gold.Chemscore.Hbond>
1.4393

> <Gold.Chemscore.Metal>
0.0000

> <Gold.Chemscore.Lipo>
94.4959

> <Gold.Chemscore.Internal_Hbond>
0.0000

> <Gold.Chemscore.DEClash>
0.0048

> <Gold.Chemscore.DEInternal>
1.6096

> <Gold.Chemscore.Rot>
1.6094

> <Gold.Chemscore.Internal.Correction>
   9.000000E+99

> <Gold.Chemscore.Hbonds>
donor molecule, donor type, donor heavy atom, donor atom, acceptor molecule, acceptor atom, score
      P1  H  7989  7998       L1    10  0.39
      P1  H  7997  8008       L1     4  0.69

> <Gold.Chemscore.Hbond.Weighted>
-4.8073

> <Gold.Chemscore.Metal.Weighted>
-0.0000

> <Gold.Chemscore.Lipo.Weighted>
-11.0560

> <Gold.Chemscore.Internal_Hbond.Weighted>
0.0000

> <Gold.Chemscore.DEClash.Weighted>
0.0048

> <Gold.Chemscore.DEInternal.Weighted>
1.6096

> <Gold.Chemscore.Rot.Weighted>
4.1201

> <Gold.Chemscore.Internal.Correction.Weighted>
   9.000000E+99

> <Gold.Protein.RotatedTorsions>
[ 6907 6896 6895 6894 ] final   15.23 input  -60.11 | X-H torsion
[ 7974 7965 7964 7962 ] final   26.92 input  175.53 | X-H torsion
[ 8008 7997 7996 7995 ] final -112.47 input   59.86 | X-H torsion
[ 10167 10162 10161 10158 ] final  -66.25 input  -65.29 | X-H torsion
[ 10718 10713 10712 10709 ] final  -61.33 input   66.30 | X-H torsion
[ 10763 10752 10751 10750 ] final  147.58 input  -60.55 | X-H torsion
[ 11005 11000 10999 10996 ] final  173.98 input  -57.11 | X-H torsion

> <Gold.Protein.ActiveResidues>
 VAL166  LYS551  ARG553  GLY616  TRP617  ASP618  TYR619  PRO620  LYS621  CYS622 
 ASP623  PHE694  ASN695  SER759  ASP760  ASP761  ALA762  ILE779  LEU786  VAL792 
 PHE793  MET794  SER795  GLU796  ALA797  LYS798  CYS799  TRP800  GLU811  SER814 

> <Gold.Protein.RotatedAtoms>
  151.8148  135.0670  160.0417 H   0  0  0  0  0  0  0  0  0  0  0  0  # atno 6907 bound_to 6896
  152.2994  133.5636  159.5617 H   0  0  0  0  0  0  0  0  0  0  0  0  # atno 6908 bound_to 6896
  150.7266  134.0229  159.3749 H   0  0  0  0  0  0  0  0  0  0  0  0  # atno 6909 bound_to 6896
  146.1812  139.7262  142.8899 H   0  0  0  0  0  0  0  0  0  0  0  0  # atno 7974 bound_to 7965
  155.0058  140.0394  157.2379 H   0  0  0  0  0  0  0  0  0  0  0  0  # atno 8008 bound_to 7997
  154.7504  140.2766  155.6274 H   0  0  0  0  0  0  0  0  0  0  0  0  # atno 8009 bound_to 7997
  156.2884  140.2648  156.2256 H   0  0  0  0  0  0  0  0  0  0  0  0  # atno 8010 bound_to 7997
  140.5671  143.2315  151.6613 H   0  0  0  0  0  0  0  0  0  0  0  0  # atno 10167 bound_to 10162
  156.0929  130.4197  150.0979 H   0  0  0  0  0  0  0  0  0  0  0  0  # atno 10718 bound_to 10713
  154.0407  135.2890  155.3355 H   0  0  0  0  0  0  0  0  0  0  0  0  # atno 10763 bound_to 10752
  154.6931  135.5218  153.8423 H   0  0  0  0  0  0  0  0  0  0  0  0  # atno 10764 bound_to 10752
  153.0601  135.6610  154.0612 H   0  0  0  0  0  0  0  0  0  0  0  0  # atno 10765 bound_to 10752
  140.3464  134.7233  157.4238 H   0  0  0  0  0  0  0  0  0  0  0  0  # atno 11005 bound_to 11000
  145.4071  141.0392  143.3038 LP  0  0  0  0  0  0  0  0  0  0  0  0  # atno 17320 bound_to 7965
  144.8318  139.5615  143.6940 LP  0  0  0  0  0  0  0  0  0  0  0  0  # atno 17321 bound_to 7965
  139.5098  144.3563  152.0604 LP  0  0  0  0  0  0  0  0  0  0  0  0  # atno 17342 bound_to 10162
  140.2696  144.3978  150.6156 LP  0  0  0  0  0  0  0  0  0  0  0  0  # atno 17343 bound_to 10162
  156.8984  130.9612  151.3579 LP  0  0  0  0  0  0  0  0  0  0  0  0  # atno 17370 bound_to 10713
  157.6083  130.8564  149.8910 LP  0  0  0  0  0  0  0  0  0  0  0  0  # atno 17371 bound_to 10713
  140.0739  134.5824  155.8612 LP  0  0  0  0  0  0  0  0  0  0  0  0  # atno 17394 bound_to 11000
  141.2024  133.6625  156.6006 LP  0  0  0  0  0  0  0  0  0  0  0  0  # atno 17395 bound_to 11000

$$$$
