AV-unprocessed.smi:2510|AV-procd|sdf|9873|dock4
  -GOLD-   2272013503D 1   1.00000     0.00000
 Structure written by MMmdl.
 48 49  0  0  0  0  0  0  0  0  1 V2000
  152.2122  145.6407  159.2449 C   0  0  0  0  0  0  0  0  0  0  0  0
  152.2719  144.4990  158.2165 C   0  0  0  0  0  0  0  0  0  0  0  0
  151.1963  143.3990  158.3950 C   0  0  0  0  0  0  0  0  0  0  0  0
  149.8469  144.0632  158.7657 C   0  0  0  0  0  0  0  0  0  0  0  0
  149.6746  144.3995  160.2551 C   0  0  0  0  0  0  0  0  0  0  0  0
  151.2041  142.3418  157.2484 C   0  0  2  0  0  0  0  0  0  0  0  0
  149.9005  141.7260  157.0029 N   0  0  0  0  0  0  0  0  0  0  0  0
  149.5353  141.1364  155.8544 C   0  0  0  0  0  0  0  0  0  0  0  0
  150.2997  140.9724  154.9039 O   0  0  0  0  0  0  0  0  0  0  0  0
  148.0773  140.6836  155.7571 C   0  0  0  0  0  0  0  0  0  0  0  0
  147.8687  139.8896  154.4937 C   0  0  0  0  0  0  0  0  0  0  0  0
  146.9842  140.1795  153.4124 C   0  0  0  0  0  0  0  0  0  0  0  0
  147.2074  139.1747  152.5139 C   0  0  0  0  0  0  0  0  0  0  0  0
  146.6152  138.9004  151.1739 C   0  0  0  0  0  0  0  0  0  0  0  0
  148.1628  138.3608  153.0771 N   0  0  0  0  0  0  0  0  0  0  0  0
  148.5725  138.7850  154.2867 N   0  0  0  0  0  0  0  0  0  0  0  0
  152.1127  141.4389  158.1025 C   0  0  2  0  0  0  0  0  0  0  0  0
  151.9643  139.9200  158.0553 C   0  0  0  0  0  0  0  0  0  0  0  0
  151.6001  142.2230  159.3189 C   0  0  1  0  0  0  0  0  0  0  0  0
  152.5932  142.5837  160.2676 O   0  0  0  0  0  0  0  0  0  0  0  0
  153.3809  141.4866  160.6943 C   0  0  0  0  0  0  0  0  0  0  0  0
  148.5403  137.5251  152.6532 H   0  0  0  0  0  0  0  0  0  0  0  0
  152.9197  146.4272  158.9822 H   0  0  0  0  0  0  0  0  0  0  0  0
  152.4719  145.2988  160.2464 H   0  0  0  0  0  0  0  0  0  0  0  0
  151.2215  146.0925  159.2898 H   0  0  0  0  0  0  0  0  0  0  0  0
  152.1749  144.9508  157.2289 H   0  0  0  0  0  0  0  0  0  0  0  0
  153.2732  144.0692  158.2179 H   0  0  0  0  0  0  0  0  0  0  0  0
  149.6721  144.9556  158.1651 H   0  0  0  0  0  0  0  0  0  0  0  0
  149.0240  143.3951  158.5131 H   0  0  0  0  0  0  0  0  0  0  0  0
  148.6583  144.7402  160.4529 H   0  0  0  0  0  0  0  0  0  0  0  0
  150.3465  145.1952  160.5745 H   0  0  0  0  0  0  0  0  0  0  0  0
  149.8574  143.5273  160.8830 H   0  0  0  0  0  0  0  0  0  0  0  0
  151.7049  142.6744  156.3380 H   0  0  0  0  0  0  0  0  0  0  0  0
  149.2087  141.8142  157.7331 H   0  0  0  0  0  0  0  0  0  0  0  0
  147.8168  140.0916  156.6357 H   0  0  0  0  0  0  0  0  0  0  0  0
  147.4298  141.5610  155.7683 H   0  0  0  0  0  0  0  0  0  0  0  0
  146.3000  141.0088  153.3084 H   0  0  0  0  0  0  0  0  0  0  0  0
  146.0230  139.7485  150.8296 H   0  0  0  0  0  0  0  0  0  0  0  0
  145.9641  138.0269  151.2099 H   0  0  0  0  0  0  0  0  0  0  0  0
  147.3951  138.7133  150.4355 H   0  0  0  0  0  0  0  0  0  0  0  0
  153.1499  141.7172  157.9076 H   0  0  0  0  0  0  0  0  0  0  0  0
  150.9888  139.5973  158.4198 H   0  0  0  0  0  0  0  0  0  0  0  0
  152.7194  139.4290  158.6686 H   0  0  0  0  0  0  0  0  0  0  0  0
  152.0777  139.5457  157.0378 H   0  0  0  0  0  0  0  0  0  0  0  0
  150.7279  141.7533  159.7796 H   0  0  0  0  0  0  0  0  0  0  0  0
  154.0921  141.8210  161.4492 H   0  0  0  0  0  0  0  0  0  0  0  0
  153.9491  141.0596  159.8682 H   0  0  0  0  0  0  0  0  0  0  0  0
  152.7628  140.7049  161.1375 H   0  0  0  0  0  0  0  0  0  0  0  0
  1  2  1  0  0  0  0
  1 23  1  0  0  0  0
  1 24  1  0  0  0  0
  1 25  1  0  0  0  0
  2  3  1  0  0  0  0
  2 26  1  0  0  0  0
  2 27  1  0  0  0  0
  3 19  1  0  0  0  0
  3  4  1  0  0  0  0
  3  6  1  0  0  0  0
  4  5  1  0  0  0  0
  4 28  1  0  0  0  0
  4 29  1  0  0  0  0
  5 30  1  0  0  0  0
  5 31  1  0  0  0  0
  5 32  1  0  0  0  0
  6  7  1  0  0  0  0
  6 17  1  0  0  0  0
  6 33  1  0  0  0  0
  7  8  1  0  0  0  0
  7 34  1  0  0  0  0
  8  9  2  0  0  0  0
  8 10  1  0  0  0  0
 10 11  1  0  0  0  0
 10 35  1  0  0  0  0
 10 36  1  0  0  0  0
 11 16  2  0  0  0  0
 11 12  1  0  0  0  0
 12 13  2  0  0  0  0
 12 37  1  0  0  0  0
 13 14  1  0  0  0  0
 13 15  1  0  0  0  0
 14 38  1  0  0  0  0
 14 39  1  0  0  0  0
 14 40  1  0  0  0  0
 15 22  1  0  0  0  0
 15 16  1  0  0  0  0
 17 18  1  0  0  0  0
 17 19  1  0  0  0  0
 17 41  1  0  0  0  0
 18 42  1  0  0  0  0
 18 43  1  0  0  0  0
 18 44  1  0  0  0  0
 19 20  1  0  0  0  0
 19 45  1  0  0  0  0
 20 21  1  0  0  0  0
 21 46  1  0  0  0  0
 21 47  1  0  0  0  0
 21 48  1  0  0  0  0
M  END
> <s_m_source_file>
AV-unprocessed.smi

> <i_m_source_file_index>
2510

> <i_lp_mmshare_version>
43012

> <i_f3d_flags>
0

> <s_epik_input>
W0NIM11PW0NAQEhdMVtDQEhdKFtDSDNdKVtDQEBIXShDMShbQ0gyXVtDSDNdKVtDSDJdW0NIM10pW05IXUMoPU8pW0NIMl1jMltjSF1jKFtDSDNdKVtuSF1uMg==

> <s_epik_cmdline>
J2VwaWtfcHl0aG9uJywgJy1waCcsICc3LjAnLCAnLXRuJywgJzgnLCAnLW1hJywgJzIwMCcsICctbWV0YWxfYmluZGluZycsICctaW1hZScsICc8aW5maWxlLm1hZT4nLCAnLW9tYWUnLCAnPG91dGZpbGUubWFlPic=

> <r_lp_tautomer_probability>
0.5

> <r_epik_Ionization_Penalty>
9.73156e-05

> <r_epik_Ionization_Penalty_Charging>
0

> <r_epik_Ionization_Penalty_Neutral>
9.73156e-05

> <r_epik_State_Penalty>
0.41068

> <r_epik_Charging_Adjusted_Penalty>
0.41068

> <i_epik_Tot_Q>
0

> <i_epik_Tot_abs_Q>
0

> <r_epik_Metal_State_Penalty>
0.410699

> <b_epik_Metal_Only>
0

> <s_lp_Force_Field>
OPLS_2005

> <r_lp_Energy>
25.1692

> <b_lp_Chiralities_Consistent>
1

> <s_lp_Variant>
AV-unprocessed.smi:2510-4

> <Gold.Version>
5.8.1

> <Gold.Id.Protein>
6NUR|6NUR_protein|mol2

> <Gold.PLP.Fitness>
40.9113

> <Gold.PLP.PLP>
-37.2903

> <Gold.PLP.part.hbond>
-2.5792

> <Gold.PLP.part.metal>
0.0000

> <Gold.PLP.part.buried>
-1.8366

> <Gold.PLP.part.nonpolar>
-33.9994

> <Gold.PLP.part.repulsive>
0.3226

> <Gold.PLP.ligand.clash>
0.0000

> <Gold.PLP.ligand.torsion>
1.1662

> <Gold.PLP.Chemscore.Hbond>
1.7840

> <Gold.PLP.Chemscore.CHOScore>
0.0000

> <Gold.PLP.Chemscore.Metal>
0.0000

> <Gold.Chemscore.Hbonds>
donor molecule, donor type, donor heavy atom, donor atom, acceptor molecule, acceptor atom, score
      L1  H    15    22       P1  7948  1.00
      P1  H  7989  7998       L1     9  0.72

> <Gold.PLP.Chemscore.Internal.Correction>
0.6015

> <Gold.Rescore>
     Score         DG    S(hbond)    S(metal)    S(lipo)     H(rot)  DE(clash)    DE(int)     intcor
     17.57     -21.47       1.76        0.00     126.15       1.81       0.71       3.19       ----

> <Gold.Chemscore.Fitness>
17.5690

> <Gold.Chemscore.DG>
-21.4720

> <Gold.Chemscore.ZeroCoef>
-5.4800

> <Gold.Chemscore.Hbond>
1.7564

> <Gold.Chemscore.Metal>
0.0000

> <Gold.Chemscore.Lipo>
126.1509

> <Gold.Chemscore.Internal_Hbond>
0.0000

> <Gold.Chemscore.DEClash>
0.7126

> <Gold.Chemscore.DEInternal>
3.1904

> <Gold.Chemscore.Rot>
1.8102

> <Gold.Chemscore.Internal.Correction>
   9.000000E+99

> <Gold.Chemscore.Hbonds>
donor molecule, donor type, donor heavy atom, donor atom, acceptor molecule, acceptor atom, score
      L1  H    15    22       P1  7948  0.95
      P1  H  7989  7998       L1     9  0.72

> <Gold.Chemscore.Hbond.Weighted>
-5.8664

> <Gold.Chemscore.Metal.Weighted>
-0.0000

> <Gold.Chemscore.Lipo.Weighted>
-14.7597

> <Gold.Chemscore.Internal_Hbond.Weighted>
0.0000

> <Gold.Chemscore.DEClash.Weighted>
0.7126

> <Gold.Chemscore.DEInternal.Weighted>
3.1904

> <Gold.Chemscore.Rot.Weighted>
4.6341

> <Gold.Chemscore.Internal.Correction.Weighted>
   9.000000E+99

> <Gold.Protein.RotatedTorsions>
[ 6907 6896 6895 6894 ] final   85.18 input  -60.11 | X-H torsion
[ 7974 7965 7964 7962 ] final    8.82 input  175.53 | X-H torsion
[ 8008 7997 7996 7995 ] final   18.24 input   59.86 | X-H torsion
[ 10167 10162 10161 10158 ] final    6.32 input  -65.29 | X-H torsion
[ 10718 10713 10712 10709 ] final  -31.48 input   66.30 | X-H torsion
[ 10763 10752 10751 10750 ] final  -66.48 input  -60.55 | X-H torsion
[ 11005 11000 10999 10996 ] final  111.63 input  -57.11 | X-H torsion

> <Gold.Protein.ActiveResidues>
 VAL166  LYS551  ARG553  GLY616  TRP617  ASP618  TYR619  PRO620  LYS621  CYS622 
 ASP623  PHE694  ASN695  SER759  ASP760  ASP761  ALA762  ILE779  LEU786  VAL792 
 PHE793  MET794  SER795  GLU796  ALA797  LYS798  CYS799  TRP800  GLU811  SER814 

> <Gold.Protein.RotatedAtoms>
  152.5369  134.2626  159.8940 H   0  0  0  0  0  0  0  0  0  0  0  0  # atno 6907 bound_to 6896
  151.2586  133.4307  159.2622 H   0  0  0  0  0  0  0  0  0  0  0  0  # atno 6908 bound_to 6896
  151.0474  134.9664  159.8250 H   0  0  0  0  0  0  0  0  0  0  0  0  # atno 6909 bound_to 6896
  146.2411  139.9875  142.8429 H   0  0  0  0  0  0  0  0  0  0  0  0  # atno 7974 bound_to 7965
  154.9031  140.3003  155.5307 H   0  0  0  0  0  0  0  0  0  0  0  0  # atno 8008 bound_to 7997
  156.3018  140.2403  156.3996 H   0  0  0  0  0  0  0  0  0  0  0  0  # atno 8009 bound_to 7997
  154.8501  140.0410  157.1587 H   0  0  0  0  0  0  0  0  0  0  0  0  # atno 8010 bound_to 7997
  140.6434  143.7719  150.7462 H   0  0  0  0  0  0  0  0  0  0  0  0  # atno 10167 bound_to 10162
  156.3867  130.4365  149.7426 H   0  0  0  0  0  0  0  0  0  0  0  0  # atno 10718 bound_to 10713
  154.3604  135.6117  153.5688 H   0  0  0  0  0  0  0  0  0  0  0  0  # atno 10763 bound_to 10752
  152.9794  135.5814  154.4640 H   0  0  0  0  0  0  0  0  0  0  0  0  # atno 10764 bound_to 10752
  154.4376  135.2849  155.1847 H   0  0  0  0  0  0  0  0  0  0  0  0  # atno 10765 bound_to 10752
  139.8908  134.9512  156.6461 H   0  0  0  0  0  0  0  0  0  0  0  0  # atno 11005 bound_to 11000
  145.1534  140.9635  143.4419 LP  0  0  0  0  0  0  0  0  0  0  0  0  # atno 17320 bound_to 7965
  145.0184  139.3446  143.6085 LP  0  0  0  0  0  0  0  0  0  0  0  0  # atno 17321 bound_to 7965
  140.1356  143.4487  152.2227 LP  0  0  0  0  0  0  0  0  0  0  0  0  # atno 17342 bound_to 10162
  139.5644  144.7426  151.4064 LP  0  0  0  0  0  0  0  0  0  0  0  0  # atno 17343 bound_to 10162
  156.4495  130.7900  151.2921 LP  0  0  0  0  0  0  0  0  0  0  0  0  # atno 17370 bound_to 10713
  157.7496  131.0100  150.3288 LP  0  0  0  0  0  0  0  0  0  0  0  0  # atno 17371 bound_to 10713
  140.7556  133.8860  155.8380 LP  0  0  0  0  0  0  0  0  0  0  0  0  # atno 17394 bound_to 11000
  140.9964  134.1209  157.4359 LP  0  0  0  0  0  0  0  0  0  0  0  0  # atno 17395 bound_to 11000

$$$$
