AV-unprocessed.smi:2083|AV-procd|sdf|8499|dock9
  -GOLD-   2272011213D 1   1.00000     0.00000
 Structure written by MMmdl.
 44 45  0  0  0  0  0  0  0  0  3 V2000
  147.1928  135.3360  162.7963 C   0  0  0  0  0  0  0  0  0  0  0  0
  147.6189  135.5054  161.3782 C   0  0  0  0  0  0  0  0  0  0  0  0
  148.4369  136.4057  160.7562 C   0  0  0  0  0  0  0  0  0  0  0  0
  148.3970  135.9947  159.3959 C   0  0  0  0  0  0  0  0  0  0  0  0
  149.0567  136.5685  158.3780 N   0  5  0  0  0  0  0  0  0  0  0  0
  150.1796  137.2843  158.6124 C   0  0  0  0  0  0  0  0  0  0  0  0
  151.1624  136.9152  159.2597 O   0  0  0  0  0  0  0  0  0  0  0  0
  150.1666  138.5039  158.0558 N   0  0  0  0  0  0  0  0  0  0  0  0
  151.2461  139.4842  158.1265 C   0  0  0  0  0  0  0  0  0  0  0  0
  150.8512  140.8615  157.5229 C   0  0  1  0  0  0  0  0  0  0  0  0
  149.3488  141.1371  157.7585 C   0  0  0  0  0  0  0  0  0  0  0  0
  151.6652  142.0150  158.0306 N   0  3  1  0  0  0  0  0  0  0  0  0
  151.3154  143.3558  157.4769 C   0  0  0  0  0  0  0  0  0  0  0  0
  152.2868  144.4430  157.9665 C   0  0  0  0  0  0  0  0  0  0  0  0
  152.3463  144.4917  159.4956 C   0  0  0  0  0  0  0  0  0  0  0  0
  152.7024  143.1040  160.0477 C   0  0  1  0  0  0  0  0  0  0  0  0
  152.7563  143.1093  161.5820 C   0  0  0  0  0  0  0  0  0  0  0  0
  151.7028  142.0558  159.5215 C   0  0  0  0  0  0  0  0  0  0  0  0
  147.6367  134.9285  159.2117 N   0  0  0  0  0  0  0  0  0  0  0  0
  147.1295  134.6117  160.4775 O   0  0  0  0  0  0  0  0  0  0  0  0
  148.0334  135.0239  163.4157 H   0  0  0  0  0  0  0  0  0  0  0  0
  146.4097  134.5825  162.8846 H   0  0  0  0  0  0  0  0  0  0  0  0
  146.8054  136.2729  163.1966 H   0  0  0  0  0  0  0  0  0  0  0  0
  148.9744  137.2293  161.2014 H   0  0  0  0  0  0  0  0  0  0  0  0
  149.3398  138.7678  157.5398 H   0  0  0  0  0  0  0  0  0  0  0  0
  151.5228  139.5975  159.1751 H   0  0  0  0  0  0  0  0  0  0  0  0
  152.1091  139.0541  157.6165 H   0  0  0  0  0  0  0  0  0  0  0  0
  151.0205  140.7969  156.4468 H   0  0  0  0  0  0  0  0  0  0  0  0
  148.7229  140.3523  157.3333 H   0  0  0  0  0  0  0  0  0  0  0  0
  149.0152  142.0676  157.3028 H   0  0  0  0  0  0  0  0  0  0  0  0
  149.1241  141.1947  158.8239 H   0  0  0  0  0  0  0  0  0  0  0  0
  151.3718  143.3539  156.3892 H   0  0  0  0  0  0  0  0  0  0  0  0
  150.2904  143.6103  157.7516 H   0  0  0  0  0  0  0  0  0  0  0  0
  153.2834  144.2488  157.5678 H   0  0  0  0  0  0  0  0  0  0  0  0
  151.9835  145.4151  157.5762 H   0  0  0  0  0  0  0  0  0  0  0  0
  153.0827  145.2298  159.8155 H   0  0  0  0  0  0  0  0  0  0  0  0
  151.3830  144.8171  159.8914 H   0  0  0  0  0  0  0  0  0  0  0  0
  153.6964  142.8369  159.6855 H   0  0  0  0  0  0  0  0  0  0  0  0
  151.7880  143.3666  162.0127 H   0  0  0  0  0  0  0  0  0  0  0  0
  153.4854  143.8333  161.9468 H   0  0  0  0  0  0  0  0  0  0  0  0
  153.0432  142.1312  161.9690 H   0  0  0  0  0  0  0  0  0  0  0  0
  150.7018  142.2714  159.9000 H   0  0  0  0  0  0  0  0  0  0  0  0
  151.9795  141.0828  159.9238 H   0  0  0  0  0  0  0  0  0  0  0  0
  152.6098  141.8375  157.7206 H   0  0  0  0  0  0  0  0  0  0  0  0
  1  2  1  0  0  0  0
  1 21  1  0  0  0  0
  1 22  1  0  0  0  0
  1 23  1  0  0  0  0
  2 20  1  0  0  0  0
  2  3  2  0  0  0  0
  3  4  1  0  0  0  0
  3 24  1  0  0  0  0
  4  5  1  0  0  0  0
  4 19  2  0  0  0  0
  5  6  1  0  0  0  0
  6  7  2  0  0  0  0
  6  8  1  0  0  0  0
  8  9  1  0  0  0  0
  8 25  1  0  0  0  0
  9 10  1  0  0  0  0
  9 26  1  0  0  0  0
  9 27  1  0  0  0  0
 10 11  1  0  0  0  0
 10 12  1  0  0  0  0
 10 28  1  0  0  0  0
 11 29  1  0  0  0  0
 11 30  1  0  0  0  0
 11 31  1  0  0  0  0
 12 18  1  0  0  0  0
 12 13  1  0  0  0  0
 12 44  1  0  0  0  0
 13 14  1  0  0  0  0
 13 32  1  0  0  0  0
 13 33  1  0  0  0  0
 14 15  1  0  0  0  0
 14 34  1  0  0  0  0
 14 35  1  0  0  0  0
 15 16  1  0  0  0  0
 15 36  1  0  0  0  0
 15 37  1  0  0  0  0
 16 17  1  0  0  0  0
 16 18  1  0  0  0  0
 16 38  1  0  0  0  0
 17 39  1  0  0  0  0
 17 40  1  0  0  0  0
 17 41  1  0  0  0  0
 18 42  1  0  0  0  0
 18 43  1  0  0  0  0
 19 20  1  0  0  0  0
M  CHG  1   5  -1
M  CHG  1  12   1
M  END
> <s_m_source_file>
AV-unprocessed.smi

> <i_m_source_file_index>
2083

> <i_lp_mmshare_version>
43012

> <i_f3d_flags>
0

> <s_epik_input>
W0NIM11jMVtjSF1jKG5vMSlbTkhdQyg9TylbTkhdW0NIMl1bQ0BIXShbQ0gzXSlOMltDSDJdW0NIMl1bQ0gyXVtDQEBIXShbQ0gzXSlbQ0gyXTI=

> <s_epik_cmdline>
J2VwaWtfcHl0aG9uJywgJy1waCcsICc3LjAnLCAnLXRuJywgJzgnLCAnLW1hJywgJzIwMCcsICctbWV0YWxfYmluZGluZycsICctaW1hZScsICc8aW5maWxlLm1hZT4nLCAnLW9tYWUnLCAnPG91dGZpbGUubWFlPic=

> <r_epik_Ionization_Penalty>
6.22434

> <r_epik_Ionization_Penalty_Charging>
6.22425

> <r_epik_Ionization_Penalty_Neutral>
9.62407e-05

> <r_epik_State_Penalty>
6.22423

> <r_epik_Charging_Adjusted_Penalty>
12.4485

> <i_epik_Tot_Q>
0

> <i_epik_Tot_abs_Q>
2

> <r_epik_Metal_State_Penalty>
2.16764

> <b_epik_Metal_Only>
1

> <s_lp_Force_Field>
OPLS_2005

> <r_lp_Energy>
9.18004

> <b_lp_Chiralities_Consistent>
1

> <s_lp_Variant>
AV-unprocessed.smi:2083-10

> <Gold.Version>
5.8.1

> <Gold.Id.Protein>
6NUR|6NUR_protein|mol2

> <Gold.PLP.Fitness>
42.2948

> <Gold.PLP.PLP>
-41.1049

> <Gold.PLP.part.hbond>
-1.0000

> <Gold.PLP.part.metal>
0.0000

> <Gold.PLP.part.buried>
-5.6097

> <Gold.PLP.part.nonpolar>
-34.9478

> <Gold.PLP.part.repulsive>
0.1541

> <Gold.PLP.ligand.clash>
0.0000

> <Gold.PLP.ligand.torsion>
0.9504

> <Gold.PLP.Chemscore.Hbond>
1.0000

> <Gold.PLP.Chemscore.CHOScore>
0.0000

> <Gold.PLP.Chemscore.Metal>
0.0000

> <Gold.Chemscore.Hbonds>
donor molecule, donor type, donor heavy atom, donor atom, acceptor molecule, acceptor atom, score
      P1  H  6896  6907       L1     7  1.00

> <Gold.PLP.Chemscore.Internal.Correction>
0.0907

> <Gold.Rescore>
     Score         DG    S(hbond)    S(metal)    S(lipo)     H(rot)  DE(clash)    DE(int)     intcor
     16.80     -17.70       0.98        0.00     109.76       1.52       0.04       0.86       ----

> <Gold.Chemscore.Fitness>
16.7971

> <Gold.Chemscore.DG>
-17.7007

> <Gold.Chemscore.ZeroCoef>
-5.4800

> <Gold.Chemscore.Hbond>
0.9782

> <Gold.Chemscore.Metal>
0.0000

> <Gold.Chemscore.Lipo>
109.7634

> <Gold.Chemscore.Internal_Hbond>
0.0000

> <Gold.Chemscore.DEClash>
0.0412

> <Gold.Chemscore.DEInternal>
0.8625

> <Gold.Chemscore.Rot>
1.5190

> <Gold.Chemscore.Internal.Correction>
   9.000000E+99

> <Gold.Chemscore.Hbonds>
donor molecule, donor type, donor heavy atom, donor atom, acceptor molecule, acceptor atom, score
      P1  H  6896  6907       L1     7  0.93

> <Gold.Chemscore.Hbond.Weighted>
-3.2671

> <Gold.Chemscore.Metal.Weighted>
-0.0000

> <Gold.Chemscore.Lipo.Weighted>
-12.8423

> <Gold.Chemscore.Internal_Hbond.Weighted>
0.0000

> <Gold.Chemscore.DEClash.Weighted>
0.0412

> <Gold.Chemscore.DEInternal.Weighted>
0.8625

> <Gold.Chemscore.Rot.Weighted>
3.8886

> <Gold.Chemscore.Internal.Correction.Weighted>
   9.000000E+99

> <Gold.Protein.RotatedTorsions>
[ 6907 6896 6895 6894 ] final  -25.25 input  -60.11 | X-H torsion
[ 7974 7965 7964 7962 ] final  162.65 input  175.53 | X-H torsion
[ 8008 7997 7996 7995 ] final -136.90 input   59.86 | X-H torsion
[ 10167 10162 10161 10158 ] final -127.09 input  -65.29 | X-H torsion
[ 10718 10713 10712 10709 ] final -145.56 input   66.30 | X-H torsion
[ 10763 10752 10751 10750 ] final  112.57 input  -60.55 | X-H torsion
[ 11005 11000 10999 10996 ] final  -24.64 input  -57.11 | X-H torsion

> <Gold.Protein.ActiveResidues>
 VAL166  LYS551  ARG553  GLY616  TRP617  ASP618  TYR619  PRO620  LYS621  CYS622 
 ASP623  PHE694  ASN695  SER759  ASP760  ASP761  ALA762  ILE779  LEU786  VAL792 
 PHE793  MET794  SER795  GLU796  ALA797  LYS798  CYS799  TRP800  GLU811  SER814 

> <Gold.Protein.RotatedAtoms>
  151.1779  135.0347  159.8779 H   0  0  0  0  0  0  0  0  0  0  0  0  # atno 6907 bound_to 6896
  152.5446  134.1096  159.8363 H   0  0  0  0  0  0  0  0  0  0  0  0  # atno 6908 bound_to 6896
  151.1210  133.5057  159.2634 H   0  0  0  0  0  0  0  0  0  0  0  0  # atno 6909 bound_to 6896
  144.7626  139.8070  143.6327 H   0  0  0  0  0  0  0  0  0  0  0  0  # atno 7974 bound_to 7965
  155.4028  140.0507  157.3036 H   0  0  0  0  0  0  0  0  0  0  0  0  # atno 8008 bound_to 7997
  154.4982  140.2147  155.9362 H   0  0  0  0  0  0  0  0  0  0  0  0  # atno 8009 bound_to 7997
  156.1434  140.3150  155.8536 H   0  0  0  0  0  0  0  0  0  0  0  0  # atno 8010 bound_to 7997
  139.9646  143.5913  152.2434 H   0  0  0  0  0  0  0  0  0  0  0  0  # atno 10167 bound_to 10162
  156.3839  130.7851  151.2046 H   0  0  0  0  0  0  0  0  0  0  0  0  # atno 10718 bound_to 10713
  153.4798  135.3682  155.2436 H   0  0  0  0  0  0  0  0  0  0  0  0  # atno 10763 bound_to 10752
  154.8755  135.3951  154.3713 H   0  0  0  0  0  0  0  0  0  0  0  0  # atno 10764 bound_to 10752
  153.4315  135.7082  153.6292 H   0  0  0  0  0  0  0  0  0  0  0  0  # atno 10765 bound_to 10752
  140.8864  133.7618  156.0366 H   0  0  0  0  0  0  0  0  0  0  0  0  # atno 11005 bound_to 11000
  146.1704  139.4853  142.9931 LP  0  0  0  0  0  0  0  0  0  0  0  0  # atno 17320 bound_to 7965
  145.6570  141.0250  143.1730 LP  0  0  0  0  0  0  0  0  0  0  0  0  # atno 17321 bound_to 7965
  139.6528  144.7661  151.2115 LP  0  0  0  0  0  0  0  0  0  0  0  0  # atno 17342 bound_to 10162
  140.7542  143.6134  150.8583 LP  0  0  0  0  0  0  0  0  0  0  0  0  # atno 17343 bound_to 10162
  157.7494  131.0336  150.4278 LP  0  0  0  0  0  0  0  0  0  0  0  0  # atno 17370 bound_to 10713
  156.4527  130.4015  149.6626 LP  0  0  0  0  0  0  0  0  0  0  0  0  # atno 17371 bound_to 10713
  140.8399  134.3078  157.5317 LP  0  0  0  0  0  0  0  0  0  0  0  0  # atno 17394 bound_to 11000
  139.8725  134.9410  156.3786 LP  0  0  0  0  0  0  0  0  0  0  0  0  # atno 17395 bound_to 11000

$$$$
