AV-unprocessed.smi:203|AV-procd|sdf|1584|dock1
  -GOLD-   2262019473D 1   1.00000     0.00000
 Structure written by MMmdl.
 57 61  0  0  0  0  0  0  0  0  1 V2000
  149.5984  141.6059  153.7208 O   0  0  0  0  0  0  0  0  0  0  0  0
  149.5597  141.6028  154.9488 C   0  0  0  0  0  0  0  0  0  0  0  0
  150.0976  140.4664  155.8006 C   0  0  0  0  0  0  0  0  0  0  0  0
  150.0236  141.0204  157.2368 C   0  0  1  0  0  0  0  0  0  0  0  0
  151.4185  141.2547  157.8994 C   0  0  1  0  0  0  0  0  0  0  0  0
  151.3712  142.2909  159.0530 C   0  0  0  0  0  0  0  0  0  0  0  0
  152.7569  142.5089  159.6755 C   0  0  0  0  0  0  0  0  0  0  0  0
  153.3361  141.1699  160.1448 C   0  0  0  0  0  0  0  0  0  0  0  0
  153.3723  140.1665  158.9844 C   0  0  0  0  0  0  0  0  0  0  0  0
  152.0522  140.0111  158.3750 N   0  0  0  0  0  0  0  0  0  0  0  0
  152.0489  138.9671  157.5166 C   0  0  0  0  0  0  0  0  0  0  0  0
  153.0266  138.9346  156.5786 N   0  0  0  0  0  0  0  0  0  0  0  0
  153.0978  137.9079  155.7261 C   0  0  0  0  0  0  0  0  0  0  0  0
  152.3118  136.8316  155.6472 N   0  0  0  0  0  0  0  0  0  0  0  0
  151.3227  136.8690  156.5857 C   0  0  0  0  0  0  0  0  0  0  0  0
  151.1094  137.8988  157.5434 C   0  0  0  0  0  0  0  0  0  0  0  0
  149.9977  137.6019  158.3222 N   0  0  0  0  0  0  0  0  0  0  0  0
  149.5899  136.4499  157.8655 C   0  0  0  0  0  0  0  0  0  0  0  0
  150.3460  135.9233  156.8427 N   0  0  0  0  0  0  0  0  0  0  0  0
  150.1416  134.6483  156.1790 C   0  0  0  0  0  0  0  0  0  0  0  0
  149.6364  134.7866  154.7231 C   0  0  2  0  0  0  0  0  0  0  0  0
  149.0813  136.0754  154.5613 O   0  0  0  0  0  0  0  0  0  0  0  0
  148.6122  133.7374  154.2258 C   0  0  2  0  0  0  0  0  0  0  0  0
  149.1445  132.3286  153.9542 C   0  0  0  0  0  0  0  0  0  0  0  0
  148.0787  131.7835  153.0300 C   0  0  0  0  0  0  0  0  0  0  0  0
  147.7297  133.0079  152.1877 C   0  0  0  0  0  0  0  0  0  0  0  0
  147.9684  134.1408  153.0193 O   0  0  0  0  0  0  0  0  0  0  0  0
  149.1526  142.2924  157.1335 C   0  0  0  0  0  0  0  0  0  0  0  0
  149.0490  142.5651  155.7136 N   0  0  0  0  0  0  0  0  0  0  0  0
  149.4498  139.5975  155.6812 H   0  0  0  0  0  0  0  0  0  0  0  0
  151.1038  140.1771  155.4979 H   0  0  0  0  0  0  0  0  0  0  0  0
  149.4730  140.2815  157.8187 H   0  0  0  0  0  0  0  0  0  0  0  0
  152.0732  141.6698  157.1327 H   0  0  0  0  0  0  0  0  0  0  0  0
  150.9909  143.2489  158.7003 H   0  0  0  0  0  0  0  0  0  0  0  0
  150.6851  141.9602  159.8328 H   0  0  0  0  0  0  0  0  0  0  0  0
  153.4239  142.9648  158.9427 H   0  0  0  0  0  0  0  0  0  0  0  0
  152.6882  143.2035  160.5130 H   0  0  0  0  0  0  0  0  0  0  0  0
  154.3394  141.3137  160.5462 H   0  0  0  0  0  0  0  0  0  0  0  0
  152.7285  140.7699  160.9575 H   0  0  0  0  0  0  0  0  0  0  0  0
  154.0819  140.5043  158.2275 H   0  0  0  0  0  0  0  0  0  0  0  0
  153.7315  139.2027  159.3490 H   0  0  0  0  0  0  0  0  0  0  0  0
  153.9052  137.9506  155.0102 H   0  0  0  0  0  0  0  0  0  0  0  0
  148.7330  135.9402  158.2811 H   0  0  0  0  0  0  0  0  0  0  0  0
  151.0813  134.0947  156.2034 H   0  0  0  0  0  0  0  0  0  0  0  0
  149.4305  134.0693  156.7690 H   0  0  0  0  0  0  0  0  0  0  0  0
  150.4980  134.7437  154.0566 H   0  0  0  0  0  0  0  0  0  0  0  0
  149.1520  136.3204  153.6514 H   0  0  0  0  0  0  0  0  0  0  0  0
  147.8120  133.6584  154.9642 H   0  0  0  0  0  0  0  0  0  0  0  0
  150.1008  132.3518  153.4338 H   0  0  0  0  0  0  0  0  0  0  0  0
  149.2650  131.7378  154.8625 H   0  0  0  0  0  0  0  0  0  0  0  0
  148.4184  130.9381  152.4315 H   0  0  0  0  0  0  0  0  0  0  0  0
  147.2099  131.4662  153.6084 H   0  0  0  0  0  0  0  0  0  0  0  0
  148.3852  133.0708  151.3188 H   0  0  0  0  0  0  0  0  0  0  0  0
  146.7001  132.9869  151.8303 H   0  0  0  0  0  0  0  0  0  0  0  0
  148.1547  142.1122  157.5353 H   0  0  0  0  0  0  0  0  0  0  0  0
  149.5709  143.1471  157.6653 H   0  0  0  0  0  0  0  0  0  0  0  0
  148.6348  143.4124  155.3528 H   0  0  0  0  0  0  0  0  0  0  0  0
  1  2  2  0  0  0  0
  2 29  1  0  0  0  0
  2  3  1  0  0  0  0
  3  4  1  0  0  0  0
  3 30  1  0  0  0  0
  3 31  1  0  0  0  0
  4  5  1  0  0  0  0
  4 28  1  0  0  0  0
  4 32  1  0  0  0  0
  5 10  1  0  0  0  0
  5  6  1  0  0  0  0
  5 33  1  0  0  0  0
  6  7  1  0  0  0  0
  6 34  1  0  0  0  0
  6 35  1  0  0  0  0
  7  8  1  0  0  0  0
  7 36  1  0  0  0  0
  7 37  1  0  0  0  0
  8  9  1  0  0  0  0
  8 38  1  0  0  0  0
  8 39  1  0  0  0  0
  9 10  1  0  0  0  0
  9 40  1  0  0  0  0
  9 41  1  0  0  0  0
 10 11  1  0  0  0  0
 11 16  1  0  0  0  0
 11 12  2  0  0  0  0
 12 13  1  0  0  0  0
 13 14  2  0  0  0  0
 13 42  1  0  0  0  0
 14 15  1  0  0  0  0
 15 19  1  0  0  0  0
 15 16  2  0  0  0  0
 16 17  1  0  0  0  0
 17 18  2  0  0  0  0
 18 19  1  0  0  0  0
 18 43  1  0  0  0  0
 19 20  1  0  0  0  0
 20 21  1  0  0  0  0
 20 44  1  0  0  0  0
 20 45  1  0  0  0  0
 21 22  1  0  0  0  0
 21 23  1  0  0  0  0
 21 46  1  0  0  0  0
 22 47  1  0  0  0  0
 23 27  1  0  0  0  0
 23 24  1  0  0  0  0
 23 48  1  0  0  0  0
 24 25  1  0  0  0  0
 24 49  1  0  0  0  0
 24 50  1  0  0  0  0
 25 26  1  0  0  0  0
 25 51  1  0  0  0  0
 25 52  1  0  0  0  0
 26 27  1  0  0  0  0
 26 53  1  0  0  0  0
 26 54  1  0  0  0  0
 28 29  1  0  0  0  0
 28 55  1  0  0  0  0
 28 56  1  0  0  0  0
 29 57  1  0  0  0  0
M  END
> <s_m_source_file>
AV-unprocessed.smi

> <i_m_source_file_index>
203

> <i_lp_mmshare_version>
43012

> <i_f3d_flags>
0

> <s_epik_input>
Tz1DMVtDSDJdW0NASF0oW0NIMl1bTkhdMSlbQ0BASF0yW0NIMl1bQ0gyXVtDSDJdW0NIMl1OMmMobltjSF1uMyljKGMzNCluW2NIXW40W0NIMl1bQ0BIXShbT0hdKVtDQEBIXTVbQ0gyXVtDSDJdW0NIMl1PNQ==

> <s_epik_cmdline>
J2VwaWtfcHl0aG9uJywgJy1waCcsICc3LjAnLCAnLXRuJywgJzgnLCAnLW1hJywgJzIwMCcsICctbWV0YWxfYmluZGluZycsICctaW1hZScsICc8aW5maWxlLm1hZT4nLCAnLW9tYWUnLCAnPG91dGZpbGUubWFlPic=

> <r_lp_tautomer_probability>
1

> <r_epik_Ionization_Penalty>
0.00175146

> <r_epik_Ionization_Penalty_Charging>
0

> <r_epik_Ionization_Penalty_Neutral>
0.00175146

> <r_epik_State_Penalty>
0.00109045

> <r_epik_Charging_Adjusted_Penalty>
0.00109045

> <i_epik_Tot_Q>
0

> <i_epik_Tot_abs_Q>
0

> <r_epik_Metal_State_Penalty>
-0

> <b_epik_Metal_Only>
0

> <s_lp_Force_Field>
OPLS_2005

> <r_lp_Energy>
54.964

> <b_lp_Chiralities_Consistent>
1

> <s_lp_Variant>
AV-unprocessed.smi:203-3

> <Gold.Version>
5.8.1

> <Gold.Id.Protein>
6NUR|6NUR_protein|mol2

> <Gold.PLP.Fitness>
49.5290

> <Gold.PLP.PLP>
-39.8145

> <Gold.PLP.part.hbond>
-5.3798

> <Gold.PLP.part.metal>
0.0000

> <Gold.PLP.part.buried>
-3.0172

> <Gold.PLP.part.nonpolar>
-34.1865

> <Gold.PLP.part.repulsive>
1.9594

> <Gold.PLP.ligand.clash>
0.0000

> <Gold.PLP.ligand.torsion>
1.6446

> <Gold.PLP.Chemscore.Hbond>
4.2240

> <Gold.PLP.Chemscore.CHOScore>
0.0000

> <Gold.PLP.Chemscore.Metal>
0.0000

> <Gold.Chemscore.Hbonds>
donor molecule, donor type, donor heavy atom, donor atom, acceptor molecule, acceptor atom, score
      L1  H    22    47       P1  7948  1.00
      L1  H    29    57       P1  8028  0.35
      P1  H  7989  7998       L1     1  0.07
      P1  H  7997  8009       L1    12  1.00
      P1  H  8011  8017       L1     1  0.70
      P1  H 10752 10765       L1    14  0.94

> <Gold.PLP.Chemscore.Internal.Correction>
0.3317

> <Gold.Rescore>
     Score         DG    S(hbond)    S(metal)    S(lipo)     H(rot)  DE(clash)    DE(int)     intcor
     18.46     -21.38       3.81        0.00      86.67       2.72       0.35       2.57       ----

> <Gold.Chemscore.Fitness>
18.4643

> <Gold.Chemscore.DG>
-21.3817

> <Gold.Chemscore.ZeroCoef>
-5.4800

> <Gold.Chemscore.Hbond>
3.8076

> <Gold.Chemscore.Metal>
0.0000

> <Gold.Chemscore.Lipo>
86.6670

> <Gold.Chemscore.Internal_Hbond>
0.0000

> <Gold.Chemscore.DEClash>
0.3459

> <Gold.Chemscore.DEInternal>
2.5715

> <Gold.Chemscore.Rot>
2.7171

> <Gold.Chemscore.Internal.Correction>
   9.000000E+99

> <Gold.Chemscore.Hbonds>
donor molecule, donor type, donor heavy atom, donor atom, acceptor molecule, acceptor atom, score
      L1  H    22    47       P1  7948  0.95
      L1  H    29    57       P1  8028  0.35
      P1  H  7989  7998       L1     1  0.02
      P1  H  7997  8009       L1    12  0.90
      P1  H  8011  8017       L1     1  0.69
      P1  H 10752 10765       L1    14  0.78

> <Gold.Chemscore.Hbond.Weighted>
-12.7174

> <Gold.Chemscore.Metal.Weighted>
-0.0000

> <Gold.Chemscore.Lipo.Weighted>
-10.1400

> <Gold.Chemscore.Internal_Hbond.Weighted>
0.0000

> <Gold.Chemscore.DEClash.Weighted>
0.3459

> <Gold.Chemscore.DEInternal.Weighted>
2.5715

> <Gold.Chemscore.Rot.Weighted>
6.9557

> <Gold.Chemscore.Internal.Correction.Weighted>
   9.000000E+99

> <Gold.Protein.RotatedTorsions>
[ 6907 6896 6895 6894 ] final  145.99 input  -60.11 | X-H torsion
[ 7974 7965 7964 7962 ] final  -40.44 input  175.53 | X-H torsion
[ 8008 7997 7996 7995 ] final -168.87 input   59.86 | X-H torsion
[ 10167 10162 10161 10158 ] final -179.96 input  -65.29 | X-H torsion
[ 10718 10713 10712 10709 ] final   67.88 input   66.30 | X-H torsion
[ 10763 10752 10751 10750 ] final -164.06 input  -60.55 | X-H torsion
[ 11005 11000 10999 10996 ] final  -87.25 input  -57.11 | X-H torsion

> <Gold.Protein.ActiveResidues>
 VAL166  LYS551  ARG553  GLY616  TRP617  ASP618  TYR619  PRO620  LYS621  CYS622 
 ASP623  PHE694  ASN695  SER759  ASP760  ASP761  ALA762  ILE779  LEU786  VAL792 
 PHE793  MET794  SER795  GLU796  ALA797  LYS798  CYS799  TRP800  GLU811  SER814 

> <Gold.Protein.RotatedAtoms>
  152.1737  133.4661  159.4922 H   0  0  0  0  0  0  0  0  0  0  0  0  # atno 6907 bound_to 6896
  150.6923  134.1920  159.4298 H   0  0  0  0  0  0  0  0  0  0  0  0  # atno 6908 bound_to 6896
  151.9828  135.0019  160.0609 H   0  0  0  0  0  0  0  0  0  0  0  0  # atno 6909 bound_to 6896
  146.0304  140.6739  142.9135 H   0  0  0  0  0  0  0  0  0  0  0  0  # atno 7974 bound_to 7965
  155.8973  140.1035  157.1375 H   0  0  0  0  0  0  0  0  0  0  0  0  # atno 8008 bound_to 7997
  154.4022  140.1299  156.4456 H   0  0  0  0  0  0  0  0  0  0  0  0  # atno 8009 bound_to 7997
  155.7463  140.3466  155.5131 H   0  0  0  0  0  0  0  0  0  0  0  0  # atno 8010 bound_to 7997
  139.5363  144.2489  152.0800 H   0  0  0  0  0  0  0  0  0  0  0  0  # atno 10167 bound_to 10162
  157.6256  130.9344  150.0302 H   0  0  0  0  0  0  0  0  0  0  0  0  # atno 10718 bound_to 10713
  154.7064  135.2997  154.9264 H   0  0  0  0  0  0  0  0  0  0  0  0  # atno 10763 bound_to 10752
  154.0180  135.6686  153.4774 H   0  0  0  0  0  0  0  0  0  0  0  0  # atno 10764 bound_to 10752
  153.0720  135.5055  154.8237 H   0  0  0  0  0  0  0  0  0  0  0  0  # atno 10765 bound_to 10752
  141.1619  133.7500  156.9279 H   0  0  0  0  0  0  0  0  0  0  0  0  # atno 11005 bound_to 11000
  144.7028  140.3725  143.7142 LP  0  0  0  0  0  0  0  0  0  0  0  0  # atno 17320 bound_to 7965
  145.7050  139.1670  143.2571 LP  0  0  0  0  0  0  0  0  0  0  0  0  # atno 17321 bound_to 7965
  140.1960  144.4705  150.6455 LP  0  0  0  0  0  0  0  0  0  0  0  0  # atno 17342 bound_to 10162
  140.6571  143.2241  151.5944 LP  0  0  0  0  0  0  0  0  0  0  0  0  # atno 17343 bound_to 10162
  156.1427  130.3642  149.9558 LP  0  0  0  0  0  0  0  0  0  0  0  0  # atno 17370 bound_to 10713
  156.7595  130.9145  151.3641 LP  0  0  0  0  0  0  0  0  0  0  0  0  # atno 17371 bound_to 10713
  140.1406  134.9296  157.2462 LP  0  0  0  0  0  0  0  0  0  0  0  0  # atno 17394 bound_to 11000
  140.2841  134.3316  155.7334 LP  0  0  0  0  0  0  0  0  0  0  0  0  # atno 17395 bound_to 11000

$$$$
