AV-unprocessed.smi:2356|AV-procd|sdf|9398|dock9
  -GOLD-   2272013 33D 1   1.00000     0.00000
 Structure written by MMmdl.
 54 57  0  0  0  0  0  0  0  0  2 V2000
  147.6484  141.8556  153.7881 C   0  0  0  0  0  0  0  0  0  0  0  0
  148.4350  141.1743  154.8963 C   0  0  0  0  0  0  0  0  0  0  0  0
  149.0652  141.9909  155.7702 N   0  3  0  0  0  0  0  0  0  0  0  0
  149.8022  141.5511  156.8120 C   0  0  0  0  0  0  0  0  0  0  0  0
  150.3944  142.5238  157.6294 N   0  0  0  0  0  0  0  0  0  0  0  0
  151.2689  143.4565  156.9383 C   0  0  0  0  0  0  0  0  0  0  0  0
  152.1077  144.1220  158.0327 C   0  0  0  0  0  0  0  0  0  0  0  0
  152.0353  143.1610  159.2253 C   0  0  0  0  0  0  0  0  0  0  0  0
  151.1705  141.9954  158.7386 C   0  0  0  0  0  0  0  0  0  0  0  0
  149.9276  140.1604  157.0249 C   0  0  0  0  0  0  0  0  0  0  0  0
  149.2905  139.2661  156.1422 C   0  0  0  0  0  0  0  0  0  0  0  0
  148.5421  139.7679  155.0470 C   0  0  0  0  0  0  0  0  0  0  0  0
  147.8627  138.9215  154.1269 N   0  0  0  0  0  0  0  0  0  0  0  0
  147.1685  137.7920  154.3686 C   0  0  0  0  0  0  0  0  0  0  0  0
  147.0242  137.2846  155.4785 O   0  0  0  0  0  0  0  0  0  0  0  0
  146.6336  137.2270  153.2710 N   0  0  0  0  0  0  0  0  0  0  0  0
  145.8286  136.0071  153.1741 C   0  0  1  0  0  0  0  0  0  0  0  0
  144.3687  136.3233  153.5322 C   0  0  0  0  0  0  0  0  0  0  0  0
  143.4725  135.0956  153.3039 C   0  0  0  0  0  0  0  0  0  0  0  0
  143.5938  134.6483  151.9577 O   0  0  0  0  0  0  0  0  0  0  0  0
  144.9121  134.2242  151.6250 C   0  0  1  0  0  0  0  0  0  0  0  0
  144.8894  133.6677  150.2154 C   0  0  0  0  0  0  0  0  0  0  0  0
  144.0647  132.4476  149.8784 C   0  0  0  0  0  0  0  0  0  0  0  0
  145.5717  132.3584  149.8932 C   0  0  0  0  0  0  0  0  0  0  0  0
  145.8808  135.4139  151.7546 C   0  0  0  0  0  0  0  0  0  0  0  0
  147.1264  141.1543  153.1380 H   0  0  0  0  0  0  0  0  0  0  0  0
  148.3189  142.4503  153.1672 H   0  0  0  0  0  0  0  0  0  0  0  0
  146.9031  142.5257  154.2172 H   0  0  0  0  0  0  0  0  0  0  0  0
  151.9181  142.9301  156.2376 H   0  0  0  0  0  0  0  0  0  0  0  0
  150.6919  144.1901  156.3743 H   0  0  0  0  0  0  0  0  0  0  0  0
  153.1320  144.2959  157.7013 H   0  0  0  0  0  0  0  0  0  0  0  0
  151.6793  145.0871  158.3065 H   0  0  0  0  0  0  0  0  0  0  0  0
  153.0203  142.8228  159.5477 H   0  0  0  0  0  0  0  0  0  0  0  0
  151.5604  143.6572  160.0725 H   0  0  0  0  0  0  0  0  0  0  0  0
  150.5198  141.6213  159.5296 H   0  0  0  0  0  0  0  0  0  0  0  0
  151.8039  141.1720  158.4060 H   0  0  0  0  0  0  0  0  0  0  0  0
  150.4992  139.7754  157.8566 H   0  0  0  0  0  0  0  0  0  0  0  0
  149.3783  138.2084  156.3347 H   0  0  0  0  0  0  0  0  0  0  0  0
  147.9669  139.1701  153.1539 H   0  0  0  0  0  0  0  0  0  0  0  0
  146.7890  137.7139  152.4000 H   0  0  0  0  0  0  0  0  0  0  0  0
  146.1968  135.2681  153.8883 H   0  0  0  0  0  0  0  0  0  0  0  0
  144.2948  136.6513  154.5697 H   0  0  0  0  0  0  0  0  0  0  0  0
  144.0056  137.1480  152.9169 H   0  0  0  0  0  0  0  0  0  0  0  0
  143.7330  134.2897  153.9917 H   0  0  0  0  0  0  0  0  0  0  0  0
  142.4305  135.3522  153.4964 H   0  0  0  0  0  0  0  0  0  0  0  0
  145.2154  133.4275  152.3071 H   0  0  0  0  0  0  0  0  0  0  0  0
  144.9436  134.4316  149.4418 H   0  0  0  0  0  0  0  0  0  0  0  0
  143.5245  131.9613  150.6882 H   0  0  0  0  0  0  0  0  0  0  0  0
  143.5680  132.4308  148.9105 H   0  0  0  0  0  0  0  0  0  0  0  0
  146.0814  132.2806  148.9351 H   0  0  0  0  0  0  0  0  0  0  0  0
  146.0340  131.8122  150.7132 H   0  0  0  0  0  0  0  0  0  0  0  0
  145.6149  136.1804  151.0248 H   0  0  0  0  0  0  0  0  0  0  0  0
  146.8935  135.0915  151.5112 H   0  0  0  0  0  0  0  0  0  0  0  0
  148.9786  142.9984  155.6350 H   0  0  0  0  0  0  0  0  0  0  0  0
  1  2  1  0  0  0  0
  1 26  1  0  0  0  0
  1 27  1  0  0  0  0
  1 28  1  0  0  0  0
  2 12  1  0  0  0  0
  2  3  2  0  0  0  0
  3  4  1  0  0  0  0
  3 54  1  0  0  0  0
  4  5  1  0  0  0  0
  4 10  2  0  0  0  0
  5  9  1  0  0  0  0
  5  6  1  0  0  0  0
  6  7  1  0  0  0  0
  6 29  1  0  0  0  0
  6 30  1  0  0  0  0
  7  8  1  0  0  0  0
  7 31  1  0  0  0  0
  7 32  1  0  0  0  0
  8  9  1  0  0  0  0
  8 33  1  0  0  0  0
  8 34  1  0  0  0  0
  9 35  1  0  0  0  0
  9 36  1  0  0  0  0
 10 11  1  0  0  0  0
 10 37  1  0  0  0  0
 11 12  2  0  0  0  0
 11 38  1  0  0  0  0
 12 13  1  0  0  0  0
 13 14  1  0  0  0  0
 13 39  1  0  0  0  0
 14 15  2  0  0  0  0
 14 16  1  0  0  0  0
 16 17  1  0  0  0  0
 16 40  1  0  0  0  0
 17 25  1  0  0  0  0
 17 18  1  0  0  0  0
 17 41  1  0  0  0  0
 18 19  1  0  0  0  0
 18 42  1  0  0  0  0
 18 43  1  0  0  0  0
 19 20  1  0  0  0  0
 19 44  1  0  0  0  0
 19 45  1  0  0  0  0
 20 21  1  0  0  0  0
 21 22  1  0  0  0  0
 21 25  1  0  0  0  0
 21 46  1  0  0  0  0
 22 24  1  0  0  0  0
 22 23  1  0  0  0  0
 22 47  1  0  0  0  0
 23 24  1  0  0  0  0
 23 48  1  0  0  0  0
 23 49  1  0  0  0  0
 24 50  1  0  0  0  0
 24 51  1  0  0  0  0
 25 52  1  0  0  0  0
 25 53  1  0  0  0  0
M  CHG  1   3   1
M  END
> <s_m_source_file>
AV-unprocessed.smi

> <i_m_source_file_index>
2356

> <i_lp_mmshare_version>
43012

> <i_f3d_flags>
0

> <s_epik_input>
W0NIMl0xW0NIMl1bQ0gyXVtDSDJdTjFjKG5jMltDSDNdKVtjSF1bY0hdYzJbTkhdQyg9TylbTkhdW0NAQEhdM1tDSDJdW0NIMl1PW0NASF0oW0NIMl0zKVtDSF00W0NIMl1bQ0gyXTQ=

> <s_epik_cmdline>
J2VwaWtfcHl0aG9uJywgJy1waCcsICc3LjAnLCAnLXRuJywgJzgnLCAnLW1hJywgJzIwMCcsICctbWV0YWxfYmluZGluZycsICctaW1hZScsICc8aW5maWxlLm1hZT4nLCAnLW9tYWUnLCAnPG91dGZpbGUubWFlPic=

> <r_lp_tautomer_probability>
0.999994

> <r_epik_Ionization_Penalty>
0.534681

> <r_epik_Ionization_Penalty_Charging>
0.534661

> <r_epik_Ionization_Penalty_Neutral>
1.99132e-05

> <r_epik_State_Penalty>
0.543738

> <r_epik_Charging_Adjusted_Penalty>
1.0784

> <i_epik_Tot_Q>
1

> <i_epik_Tot_abs_Q>
1

> <r_epik_Metal_State_Penalty>
0.74699

> <b_epik_Metal_Only>
0

> <s_lp_Force_Field>
OPLS_2005

> <r_lp_Energy>
63.5996

> <b_lp_Chiralities_Consistent>
1

> <s_lp_Variant>
AV-unprocessed.smi:2356-6

> <Gold.Version>
5.8.1

> <Gold.Id.Protein>
6NUR|6NUR_protein|mol2

> <Gold.PLP.Fitness>
42.4951

> <Gold.PLP.PLP>
-38.0048

> <Gold.PLP.part.hbond>
-2.0000

> <Gold.PLP.part.metal>
0.0000

> <Gold.PLP.part.buried>
-4.4929

> <Gold.PLP.part.nonpolar>
-31.3998

> <Gold.PLP.part.repulsive>
0.4708

> <Gold.PLP.ligand.clash>
0.0000

> <Gold.PLP.ligand.torsion>
1.2993

> <Gold.PLP.Chemscore.Hbond>
2.0000

> <Gold.PLP.Chemscore.CHOScore>
0.0000

> <Gold.PLP.Chemscore.Metal>
0.0000

> <Gold.Chemscore.Hbonds>
donor molecule, donor type, donor heavy atom, donor atom, acceptor molecule, acceptor atom, score
      L1  H     3    54       P1  8028  2.00

> <Gold.PLP.Chemscore.Internal.Correction>
1.0890

> <Gold.Rescore>
     Score         DG    S(hbond)    S(metal)    S(lipo)     H(rot)  DE(clash)    DE(int)     intcor
     16.60     -18.94       1.00        0.00     115.08       1.31       0.44       1.90       ----

> <Gold.Chemscore.Fitness>
16.6022

> <Gold.Chemscore.DG>
-18.9407

> <Gold.Chemscore.ZeroCoef>
-5.4800

> <Gold.Chemscore.Hbond>
1.0000

> <Gold.Chemscore.Metal>
0.0000

> <Gold.Chemscore.Lipo>
115.0770

> <Gold.Chemscore.Internal_Hbond>
0.0000

> <Gold.Chemscore.DEClash>
0.4415

> <Gold.Chemscore.DEInternal>
1.8970

> <Gold.Chemscore.Rot>
1.3060

> <Gold.Chemscore.Internal.Correction>
   9.000000E+99

> <Gold.Chemscore.Hbonds>
donor molecule, donor type, donor heavy atom, donor atom, acceptor molecule, acceptor atom, score
      L1  H     3    54       P1  8028  1.00

> <Gold.Chemscore.Hbond.Weighted>
-3.3400

> <Gold.Chemscore.Metal.Weighted>
-0.0000

> <Gold.Chemscore.Lipo.Weighted>
-13.4640

> <Gold.Chemscore.Internal_Hbond.Weighted>
0.0000

> <Gold.Chemscore.DEClash.Weighted>
0.4415

> <Gold.Chemscore.DEInternal.Weighted>
1.8970

> <Gold.Chemscore.Rot.Weighted>
3.3433

> <Gold.Chemscore.Internal.Correction.Weighted>
   9.000000E+99

> <Gold.Protein.RotatedTorsions>
[ 6907 6896 6895 6894 ] final   86.99 input  -60.11 | X-H torsion
[ 7974 7965 7964 7962 ] final   44.06 input  175.53 | X-H torsion
[ 8008 7997 7996 7995 ] final  -92.02 input   59.86 | X-H torsion
[ 10167 10162 10161 10158 ] final  -98.44 input  -65.29 | X-H torsion
[ 10718 10713 10712 10709 ] final  147.59 input   66.30 | X-H torsion
[ 10763 10752 10751 10750 ] final -138.00 input  -60.55 | X-H torsion
[ 11005 11000 10999 10996 ] final  -43.25 input  -57.11 | X-H torsion

> <Gold.Protein.ActiveResidues>
 VAL166  LYS551  ARG553  GLY616  TRP617  ASP618  TYR619  PRO620  LYS621  CYS622 
 ASP623  PHE694  ASN695  SER759  ASP760  ASP761  ALA762  ILE779  LEU786  VAL792 
 PHE793  MET794  SER795  GLU796  ALA797  LYS798  CYS799  TRP800  GLU811  SER814 

> <Gold.Protein.RotatedAtoms>
  152.5404  134.2346  159.8837 H   0  0  0  0  0  0  0  0  0  0  0  0  # atno 6907 bound_to 6896
  151.2316  133.4440  159.2611 H   0  0  0  0  0  0  0  0  0  0  0  0  # atno 6908 bound_to 6896
  151.0710  134.9812  159.8364 H   0  0  0  0  0  0  0  0  0  0  0  0  # atno 6909 bound_to 6896
  146.0602  139.5117  142.9663 H   0  0  0  0  0  0  0  0  0  0  0  0  # atno 7974 bound_to 7965
  154.7179  140.0513  157.0612 H   0  0  0  0  0  0  0  0  0  0  0  0  # atno 8008 bound_to 7997
  155.0467  140.3174  155.4687 H   0  0  0  0  0  0  0  0  0  0  0  0  # atno 8009 bound_to 7997
  156.2808  140.2123  156.5592 H   0  0  0  0  0  0  0  0  0  0  0  0  # atno 8010 bound_to 7997
  140.2729  143.3332  152.0517 H   0  0  0  0  0  0  0  0  0  0  0  0  # atno 10167 bound_to 10162
  157.3191  131.0901  151.1255 H   0  0  0  0  0  0  0  0  0  0  0  0  # atno 10718 bound_to 10713
  154.8648  135.3625  154.5314 H   0  0  0  0  0  0  0  0  0  0  0  0  # atno 10763 bound_to 10752
  153.5940  135.7014  153.5416 H   0  0  0  0  0  0  0  0  0  0  0  0  # atno 10764 bound_to 10752
  153.3349  135.4114  155.1487 H   0  0  0  0  0  0  0  0  0  0  0  0  # atno 10765 bound_to 10752
  141.0371  133.6795  156.2707 H   0  0  0  0  0  0  0  0  0  0  0  0  # atno 11005 bound_to 11000
  145.6574  141.0249  143.1727 LP  0  0  0  0  0  0  0  0  0  0  0  0  # atno 17320 bound_to 7965
  144.7170  139.8161  143.7395 LP  0  0  0  0  0  0  0  0  0  0  0  0  # atno 17321 bound_to 7965
  139.4984  144.6644  151.6390 LP  0  0  0  0  0  0  0  0  0  0  0  0  # atno 17342 bound_to 10162
  140.5875  143.9838  150.6304 LP  0  0  0  0  0  0  0  0  0  0  0  0  # atno 17343 bound_to 10162
  157.2547  130.6630  149.5947 LP  0  0  0  0  0  0  0  0  0  0  0  0  # atno 17370 bound_to 10713
  155.9684  130.4527  150.5785 LP  0  0  0  0  0  0  0  0  0  0  0  0  # atno 17371 bound_to 10713
  140.6302  134.5272  157.5558 LP  0  0  0  0  0  0  0  0  0  0  0  0  # atno 17394 bound_to 11000
  139.9249  134.8076  156.1100 LP  0  0  0  0  0  0  0  0  0  0  0  0  # atno 17395 bound_to 11000

$$$$
