AV-unprocessed.smi:1474|AV-procd|sdf|5975|dock1
  -GOLD-   22720 6 63D 1   1.00000     0.00000
 Structure written by MMmdl.
 43 44  0  0  0  0  0  0  0  0  1 V2000
  151.7557  143.9211  161.3349 C   0  0  0  0  0  0  0  0  0  0  0  0
  152.0298  142.6773  161.9555 O   0  0  0  0  0  0  0  0  0  0  0  0
  153.1028  141.9871  161.3367 C   0  0  0  0  0  0  0  0  0  0  0  0
  152.7494  141.7148  159.8717 C   0  0  0  0  0  0  0  0  0  0  0  0
  152.9333  140.3273  159.6073 O   0  0  0  0  0  0  0  0  0  0  0  0
  152.3533  139.7886  158.4774 C   0  0  0  0  0  0  0  0  0  0  0  0
  151.5460  140.6193  157.6748 C   0  0  0  0  0  0  0  0  0  0  0  0
  150.9472  140.0756  156.5226 C   0  0  0  0  0  0  0  0  0  0  0  0
  151.1703  138.7166  156.2118 C   0  0  0  0  0  0  0  0  0  0  0  0
  150.5618  138.0613  154.9800 C   0  0  0  0  0  0  0  0  0  0  0  0
  149.2061  138.5056  154.6721 N   0  0  0  0  0  0  0  0  0  0  0  0
  148.1559  138.3982  155.5012 C   0  0  0  0  0  0  0  0  0  0  0  0
  148.2402  137.9032  156.6255 O   0  0  0  0  0  0  0  0  0  0  0  0
  146.8159  138.9534  154.9820 C   0  0  1  0  0  0  0  0  0  0  0  0
  145.6410  138.6247  155.9218 C   0  0  0  0  0  0  0  0  0  0  0  0
  145.6826  139.4124  157.2451 C   0  0  0  0  0  0  0  0  0  0  0  0
  146.0546  140.8929  157.0726 C   0  0  0  0  0  0  0  0  0  0  0  0
  145.8372  141.6805  157.9905 O   0  0  0  0  0  0  0  0  0  0  0  0
  146.6507  141.2889  155.9342 N   0  0  0  0  0  0  0  0  0  0  0  0
  146.8573  140.4781  154.7324 C   0  0  0  0  0  0  0  0  0  0  0  0
  151.9996  137.9703  157.0747 C   0  0  0  0  0  0  0  0  0  0  0  0
  152.5783  138.4844  158.1807 N   0  0  0  0  0  0  0  0  0  0  0  0
  150.9285  144.4122  161.8476 H   0  0  0  0  0  0  0  0  0  0  0  0
  151.4724  143.7874  160.2901 H   0  0  0  0  0  0  0  0  0  0  0  0
  152.6208  144.5837  161.3813 H   0  0  0  0  0  0  0  0  0  0  0  0
  154.0013  142.6039  161.3858 H   0  0  0  0  0  0  0  0  0  0  0  0
  153.3184  141.0519  161.8558 H   0  0  0  0  0  0  0  0  0  0  0  0
  151.7235  142.0247  159.6655 H   0  0  0  0  0  0  0  0  0  0  0  0
  153.4123  142.2993  159.2318 H   0  0  0  0  0  0  0  0  0  0  0  0
  151.3908  141.6552  157.9380 H   0  0  0  0  0  0  0  0  0  0  0  0
  150.3289  140.6974  155.8923 H   0  0  0  0  0  0  0  0  0  0  0  0
  151.1966  138.2903  154.1241 H   0  0  0  0  0  0  0  0  0  0  0  0
  150.5758  136.9756  155.0913 H   0  0  0  0  0  0  0  0  0  0  0  0
  149.0568  138.9250  153.7659 H   0  0  0  0  0  0  0  0  0  0  0  0
  146.6235  138.4723  154.0214 H   0  0  0  0  0  0  0  0  0  0  0  0
  144.7046  138.8455  155.4076 H   0  0  0  0  0  0  0  0  0  0  0  0
  145.6160  137.5550  156.1340 H   0  0  0  0  0  0  0  0  0  0  0  0
  144.7191  139.3383  157.7501 H   0  0  0  0  0  0  0  0  0  0  0  0
  146.4151  138.9647  157.9173 H   0  0  0  0  0  0  0  0  0  0  0  0
  146.9234  142.2592  155.8711 H   0  0  0  0  0  0  0  0  0  0  0  0
  147.8027  140.7691  154.2722 H   0  0  0  0  0  0  0  0  0  0  0  0
  146.0789  140.7476  154.0176 H   0  0  0  0  0  0  0  0  0  0  0  0
  152.2049  136.9289  156.8747 H   0  0  0  0  0  0  0  0  0  0  0  0
  1  2  1  0  0  0  0
  1 23  1  0  0  0  0
  1 24  1  0  0  0  0
  1 25  1  0  0  0  0
  2  3  1  0  0  0  0
  3  4  1  0  0  0  0
  3 26  1  0  0  0  0
  3 27  1  0  0  0  0
  4  5  1  0  0  0  0
  4 28  1  0  0  0  0
  4 29  1  0  0  0  0
  5  6  1  0  0  0  0
  6 22  1  0  0  0  0
  6  7  2  0  0  0  0
  7  8  1  0  0  0  0
  7 30  1  0  0  0  0
  8  9  2  0  0  0  0
  8 31  1  0  0  0  0
  9 10  1  0  0  0  0
  9 21  1  0  0  0  0
 10 11  1  0  0  0  0
 10 32  1  0  0  0  0
 10 33  1  0  0  0  0
 11 12  1  0  0  0  0
 11 34  1  0  0  0  0
 12 13  2  0  0  0  0
 12 14  1  0  0  0  0
 14 20  1  0  0  0  0
 14 15  1  0  0  0  0
 14 35  1  0  0  0  0
 15 16  1  0  0  0  0
 15 36  1  0  0  0  0
 15 37  1  0  0  0  0
 16 17  1  0  0  0  0
 16 38  1  0  0  0  0
 16 39  1  0  0  0  0
 17 18  2  0  0  0  0
 17 19  1  0  0  0  0
 19 20  1  0  0  0  0
 19 40  1  0  0  0  0
 20 41  1  0  0  0  0
 20 42  1  0  0  0  0
 21 22  2  0  0  0  0
 21 43  1  0  0  0  0
M  END
> <s_m_source_file>
AV-unprocessed.smi

> <i_m_source_file_index>
1474

> <i_lp_mmshare_version>
43012

> <i_f3d_flags>
0

> <s_epik_input>
W0NIM11PW0NIMl1bQ0gyXU9jMVtjSF1bY0hdYyhbY0hdbjEpW0NIMl1bTkhdQyg9TylbQ0BASF0yW0NIMl1bQ0gyXUMoPU8pW05IXVtDSDJdMg==

> <s_epik_cmdline>
J2VwaWtfcHl0aG9uJywgJy1waCcsICc3LjAnLCAnLXRuJywgJzgnLCAnLW1hJywgJzIwMCcsICctbWV0YWxfYmluZGluZycsICctaW1hZScsICc8aW5maWxlLm1hZT4nLCAnLW9tYWUnLCAnPG91dGZpbGUubWFlPic=

> <r_lp_tautomer_probability>
1

> <r_epik_Ionization_Penalty>
6.19599e-05

> <r_epik_Ionization_Penalty_Charging>
0

> <r_epik_Ionization_Penalty_Neutral>
6.19599e-05

> <r_epik_State_Penalty>
-0

> <r_epik_Charging_Adjusted_Penalty>
0

> <i_epik_Tot_Q>
0

> <i_epik_Tot_abs_Q>
0

> <r_epik_Metal_State_Penalty>
-0

> <b_epik_Metal_Only>
0

> <s_lp_Force_Field>
OPLS_2005

> <r_lp_Energy>
8.64292

> <b_lp_Chiralities_Consistent>
1

> <s_lp_Variant>
AV-unprocessed.smi:1474-2

> <Gold.Version>
5.8.1

> <Gold.Id.Protein>
6NUR|6NUR_protein|mol2

> <Gold.PLP.Fitness>
41.5334

> <Gold.PLP.PLP>
-35.8821

> <Gold.PLP.part.hbond>
-3.0000

> <Gold.PLP.part.metal>
0.0000

> <Gold.PLP.part.buried>
-7.2437

> <Gold.PLP.part.nonpolar>
-26.9025

> <Gold.PLP.part.repulsive>
0.5759

> <Gold.PLP.ligand.clash>
0.5793

> <Gold.PLP.ligand.torsion>
0.8354

> <Gold.PLP.Chemscore.Hbond>
2.5330

> <Gold.PLP.Chemscore.CHOScore>
0.0000

> <Gold.PLP.Chemscore.Metal>
0.0000

> <Gold.Chemscore.Hbonds>
donor molecule, donor type, donor heavy atom, donor atom, acceptor molecule, acceptor atom, score
      P1  H  6933  6945       L1     2  0.50

> <Gold.PLP.Chemscore.Internal.Correction>
0.3024

> <Gold.Rescore>
     Score         DG    S(hbond)    S(metal)    S(lipo)     H(rot)  DE(clash)    DE(int)     intcor
     16.12     -17.65       2.59        0.00      85.24       2.52       0.08       1.45       ----

> <Gold.Chemscore.Fitness>
16.1247

> <Gold.Chemscore.DG>
-17.6506

> <Gold.Chemscore.ZeroCoef>
-5.4800

> <Gold.Chemscore.Hbond>
2.5896

> <Gold.Chemscore.Metal>
0.0000

> <Gold.Chemscore.Lipo>
85.2370

> <Gold.Chemscore.Internal_Hbond>
0.0000

> <Gold.Chemscore.DEClash>
0.0753

> <Gold.Chemscore.DEInternal>
1.4505

> <Gold.Chemscore.Rot>
2.5201

> <Gold.Chemscore.Internal.Correction>
   9.000000E+99

> <Gold.Chemscore.Hbonds>
donor molecule, donor type, donor heavy atom, donor atom, acceptor molecule, acceptor atom, score
      P1  H  6933  6945       L1     2  0.22

> <Gold.Chemscore.Hbond.Weighted>
-8.6492

> <Gold.Chemscore.Metal.Weighted>
-0.0000

> <Gold.Chemscore.Lipo.Weighted>
-9.9727

> <Gold.Chemscore.Internal_Hbond.Weighted>
0.0000

> <Gold.Chemscore.DEClash.Weighted>
0.0753

> <Gold.Chemscore.DEInternal.Weighted>
1.4505

> <Gold.Chemscore.Rot.Weighted>
6.4514

> <Gold.Chemscore.Internal.Correction.Weighted>
   9.000000E+99

> <Gold.Protein.RotatedTorsions>
[ 6907 6896 6895 6894 ] final  -91.20 input  -60.11 | X-H torsion
[ 7974 7965 7964 7962 ] final   83.78 input  175.53 | X-H torsion
[ 8008 7997 7996 7995 ] final   80.05 input   59.86 | X-H torsion
[ 10167 10162 10161 10158 ] final   90.54 input  -65.29 | X-H torsion
[ 10718 10713 10712 10709 ] final  138.96 input   66.30 | X-H torsion
[ 10763 10752 10751 10750 ] final -121.98 input  -60.55 | X-H torsion
[ 11005 11000 10999 10996 ] final -175.69 input  -57.11 | X-H torsion

> <Gold.Protein.ActiveResidues>
 VAL166  LYS551  ARG553  GLY616  TRP617  ASP618  TYR619  PRO620  LYS621  CYS622 
 ASP623  PHE694  ASN695  SER759  ASP760  ASP761  ALA762  ILE779  LEU786  VAL792 
 PHE793  MET794  SER795  GLU796  ALA797  LYS798  CYS799  TRP800  GLU811  SER814 

> <Gold.Protein.RotatedAtoms>
  150.6890  134.2314  159.4435 H   0  0  0  0  0  0  0  0  0  0  0  0  # atno 6907 bound_to 6896
  152.0264  134.9791  160.0581 H   0  0  0  0  0  0  0  0  0  0  0  0  # atno 6908 bound_to 6896
  152.1347  133.4394  159.4775 H   0  0  0  0  0  0  0  0  0  0  0  0  # atno 6909 bound_to 6896
  145.6074  139.2362  143.2211 H   0  0  0  0  0  0  0  0  0  0  0  0  # atno 7974 bound_to 7965
  155.8781  140.3445  155.5868 H   0  0  0  0  0  0  0  0  0  0  0  0  # atno 8008 bound_to 7997
  155.7751  140.0850  157.2107 H   0  0  0  0  0  0  0  0  0  0  0  0  # atno 8009 bound_to 7997
  154.4022  140.1511  156.2974 H   0  0  0  0  0  0  0  0  0  0  0  0  # atno 8010 bound_to 7997
  139.8463  144.6616  150.9223 H   0  0  0  0  0  0  0  0  0  0  0  0  # atno 10167 bound_to 10162
  157.4196  131.1037  151.0368 H   0  0  0  0  0  0  0  0  0  0  0  0  # atno 10718 bound_to 10713
  154.8680  135.4149  154.2708 H   0  0  0  0  0  0  0  0  0  0  0  0  # atno 10763 bound_to 10752
  153.3618  135.7003  153.6712 H   0  0  0  0  0  0  0  0  0  0  0  0  # atno 10764 bound_to 10752
  153.5609  135.3610  155.2771 H   0  0  0  0  0  0  0  0  0  0  0  0  # atno 10765 bound_to 10752
  140.4605  134.6259  157.4840 H   0  0  0  0  0  0  0  0  0  0  0  0  # atno 11005 bound_to 11000
  146.1530  140.6898  142.9313 LP  0  0  0  0  0  0  0  0  0  0  0  0  # atno 17320 bound_to 7965
  144.7284  140.4596  143.6956 LP  0  0  0  0  0  0  0  0  0  0  0  0  # atno 17321 bound_to 7965
  140.7792  143.3867  151.1381 LP  0  0  0  0  0  0  0  0  0  0  0  0  # atno 17342 bound_to 10162
  139.7509  143.8780  152.3076 LP  0  0  0  0  0  0  0  0  0  0  0  0  # atno 17343 bound_to 10162
  157.1303  130.6099  149.5528 LP  0  0  0  0  0  0  0  0  0  0  0  0  # atno 17370 bound_to 10713
  155.9876  130.4916  150.7133 LP  0  0  0  0  0  0  0  0  0  0  0  0  # atno 17371 bound_to 10713
  139.9948  134.6928  155.9627 LP  0  0  0  0  0  0  0  0  0  0  0  0  # atno 17394 bound_to 11000
  141.1623  133.6538  156.4361 LP  0  0  0  0  0  0  0  0  0  0  0  0  # atno 17395 bound_to 11000

$$$$
