AV-unprocessed.smi:3025|AV-procd|sdf|11510|dock8
  -GOLD-   2272016443D 1   1.00000     0.00000
 Structure written by MMmdl.
 42 43  0  0  0  0  0  0  0  0  2 V2000
  145.5864  131.8434  149.8770 C   0  0  0  0  0  0  0  0  0  0  0  0
  144.1620  132.3677  149.6654 C   0  0  0  0  0  0  0  0  0  0  0  0
  144.0665  133.8934  149.8348 C   0  0  0  0  0  0  0  0  0  0  0  0
  144.3898  134.3938  151.2581 C   0  0  2  0  0  0  0  0  0  0  0  0
  143.8702  135.8241  151.5177 C   0  0  0  0  0  0  0  0  0  0  0  0
  144.2212  136.3117  152.9341 C   0  0  0  0  0  0  0  0  0  0  0  0
  145.7353  136.2368  153.2244 C   0  0  2  0  0  0  0  0  0  0  0  0
  146.5100  137.2379  152.4540 N   0  3  0  0  0  0  0  0  0  0  0  0
  146.7633  138.5175  153.1490 C   0  0  0  0  0  0  0  0  0  0  0  0
  147.6735  138.3116  154.3670 C   0  0  0  0  0  0  0  0  0  0  0  0
  148.6823  139.4032  154.5131 C   0  0  0  0  0  0  0  0  0  0  0  0
  150.0055  139.2109  154.5706 N   0  0  0  0  0  0  0  0  0  0  0  0
  150.5607  140.4755  154.6864 N   0  0  0  0  0  0  0  0  0  0  0  0
  149.5185  141.3079  154.6855 C   0  0  0  0  0  0  0  0  0  0  0  0
  148.3325  140.6970  154.5780 N   0  0  0  0  0  0  0  0  0  0  0  0
  146.2625  134.8177  152.9424 C   0  0  0  0  0  0  0  0  0  0  0  0
  145.9068  134.3310  151.5265 C   0  0  0  0  0  0  0  0  0  0  0  0
  147.4111  141.1094  154.5539 H   0  0  0  0  0  0  0  0  0  0  0  0
  145.6255  130.7617  149.7465 H   0  0  0  0  0  0  0  0  0  0  0  0
  145.9456  132.0699  150.8814 H   0  0  0  0  0  0  0  0  0  0  0  0
  146.2804  132.2896  149.1641 H   0  0  0  0  0  0  0  0  0  0  0  0
  143.8284  132.0767  148.6697 H   0  0  0  0  0  0  0  0  0  0  0  0
  143.4923  131.8773  150.3727 H   0  0  0  0  0  0  0  0  0  0  0  0
  144.7630  134.3561  149.1340 H   0  0  0  0  0  0  0  0  0  0  0  0
  143.0735  134.2351  149.5401 H   0  0  0  0  0  0  0  0  0  0  0  0
  143.9033  133.7215  151.9668 H   0  0  0  0  0  0  0  0  0  0  0  0
  144.2861  136.5100  150.7785 H   0  0  0  0  0  0  0  0  0  0  0  0
  142.7882  135.8632  151.3958 H   0  0  0  0  0  0  0  0  0  0  0  0
  143.8386  137.3203  153.0881 H   0  0  0  0  0  0  0  0  0  0  0  0
  143.6946  135.6868  153.6569 H   0  0  0  0  0  0  0  0  0  0  0  0
  145.8997  136.4442  154.2827 H   0  0  0  0  0  0  0  0  0  0  0  0
  147.4088  136.8281  152.2433 H   0  0  0  0  0  0  0  0  0  0  0  0
  147.2273  139.2246  152.4613 H   0  0  0  0  0  0  0  0  0  0  0  0
  145.8149  138.9512  153.4684 H   0  0  0  0  0  0  0  0  0  0  0  0
  147.0764  138.2564  155.2784 H   0  0  0  0  0  0  0  0  0  0  0  0
  148.2035  137.3617  154.2837 H   0  0  0  0  0  0  0  0  0  0  0  0
  149.6237  142.3802  154.7622 H   0  0  0  0  0  0  0  0  0  0  0  0
  147.3424  134.7786  153.0909 H   0  0  0  0  0  0  0  0  0  0  0  0
  145.8335  134.1272  153.6697 H   0  0  0  0  0  0  0  0  0  0  0  0
  146.2641  133.3084  151.3998 H   0  0  0  0  0  0  0  0  0  0  0  0
  146.4377  134.9314  150.7864 H   0  0  0  0  0  0  0  0  0  0  0  0
  146.0308  137.4208  151.5838 H   0  0  0  0  0  0  0  0  0  0  0  0
  1  2  1  0  0  0  0
  1 19  1  0  0  0  0
  1 20  1  0  0  0  0
  1 21  1  0  0  0  0
  2  3  1  0  0  0  0
  2 22  1  0  0  0  0
  2 23  1  0  0  0  0
  3  4  1  0  0  0  0
  3 24  1  0  0  0  0
  3 25  1  0  0  0  0
  4 17  1  0  0  0  0
  4  5  1  0  0  0  0
  4 26  1  0  0  0  0
  5  6  1  0  0  0  0
  5 27  1  0  0  0  0
  5 28  1  0  0  0  0
  6  7  1  0  0  0  0
  6 29  1  0  0  0  0
  6 30  1  0  0  0  0
  7  8  1  0  0  0  0
  7 16  1  0  0  0  0
  7 31  1  0  0  0  0
  8  9  1  0  0  0  0
  8 32  1  0  0  0  0
  8 42  1  0  0  0  0
  9 10  1  0  0  0  0
  9 33  1  0  0  0  0
  9 34  1  0  0  0  0
 10 11  1  0  0  0  0
 10 35  1  0  0  0  0
 10 36  1  0  0  0  0
 11 15  1  0  0  0  0
 11 12  2  0  0  0  0
 12 13  1  0  0  0  0
 13 14  2  0  0  0  0
 14 15  1  0  0  0  0
 14 37  1  0  0  0  0
 15 18  1  0  0  0  0
 16 17  1  0  0  0  0
 16 38  1  0  0  0  0
 16 39  1  0  0  0  0
 17 40  1  0  0  0  0
 17 41  1  0  0  0  0
M  CHG  1   8   1
M  END
> <s_m_source_file>
AV-unprocessed.smi

> <i_m_source_file_index>
3025

> <i_lp_mmshare_version>
43012

> <i_f3d_flags>
0

> <s_epik_input>
W0NIM11bQ0gyXVtDSDJdW0NAQEhdMVtDSDJdW0NIMl1bQ0BIXShbQ0gyXVtDSDJdMSlbTkhdW0NIMl1bQ0gyXWMybm5bY0hdW25IXTI=

> <s_epik_cmdline>
J2VwaWtfcHl0aG9uJywgJy1waCcsICc3LjAnLCAnLXRuJywgJzgnLCAnLW1hJywgJzIwMCcsICctbWV0YWxfYmluZGluZycsICctaW1hZScsICc8aW5maWxlLm1hZT4nLCAnLW9tYWUnLCAnPG91dGZpbGUubWFlPic=

> <r_lp_tautomer_probability>
0.0517155

> <r_epik_Ionization_Penalty>
0.0349397

> <r_epik_Ionization_Penalty_Charging>
0.000546397

> <r_epik_Ionization_Penalty_Neutral>
0.0343933

> <r_epik_State_Penalty>
2.24019

> <r_epik_Charging_Adjusted_Penalty>
2.24074

> <i_epik_Tot_Q>
1

> <i_epik_Tot_abs_Q>
1

> <r_epik_Metal_State_Penalty>
2.47389

> <b_epik_Metal_Only>
0

> <s_lp_Force_Field>
OPLS_2005

> <r_lp_Energy>
17.8014

> <b_lp_Chiralities_Consistent>
1

> <s_lp_Variant>
AV-unprocessed.smi:3025-6

> <Gold.Version>
5.8.1

> <Gold.Id.Protein>
6NUR|6NUR_protein|mol2

> <Gold.PLP.Fitness>
37.4917

> <Gold.PLP.PLP>
-27.3258

> <Gold.PLP.part.hbond>
-2.0000

> <Gold.PLP.part.metal>
0.0000

> <Gold.PLP.part.buried>
-2.4400

> <Gold.PLP.part.nonpolar>
-23.0514

> <Gold.PLP.part.repulsive>
0.3673

> <Gold.PLP.ligand.clash>
0.0000

> <Gold.PLP.ligand.torsion>
0.9225

> <Gold.PLP.Chemscore.Hbond>
3.0000

> <Gold.PLP.Chemscore.CHOScore>
0.9958

> <Gold.PLP.Chemscore.Metal>
0.0000

> <Gold.Chemscore.Hbonds>
donor molecule, donor type, donor heavy atom, donor atom, acceptor molecule, acceptor atom, score
      L1  H     8    32       P1  7948  2.00
      P1  H  7989  7998       L1    13  1.00
      L1  C    14    37       P1  8028  0.82

> <Gold.PLP.Chemscore.Internal.Correction>
0.0237

> <Gold.Rescore>
     Score         DG    S(hbond)    S(metal)    S(lipo)     H(rot)  DE(clash)    DE(int)     intcor
     11.54     -12.73       1.89        0.00      63.95       2.56       0.13       1.06       ----

> <Gold.Chemscore.Fitness>
11.5380

> <Gold.Chemscore.DG>
-12.7298

> <Gold.Chemscore.ZeroCoef>
-5.4800

> <Gold.Chemscore.Hbond>
1.8927

> <Gold.Chemscore.Metal>
0.0000

> <Gold.Chemscore.Lipo>
63.9522

> <Gold.Chemscore.Internal_Hbond>
0.0000

> <Gold.Chemscore.DEClash>
0.1341

> <Gold.Chemscore.DEInternal>
1.0577

> <Gold.Chemscore.Rot>
2.5602

> <Gold.Chemscore.Internal.Correction>
   9.000000E+99

> <Gold.Chemscore.Hbonds>
donor molecule, donor type, donor heavy atom, donor atom, acceptor molecule, acceptor atom, score
      L1  H     8    32       P1  7948  1.00
      P1  H  7989  7998       L1    13  0.65

> <Gold.Chemscore.Hbond.Weighted>
-6.3216

> <Gold.Chemscore.Metal.Weighted>
-0.0000

> <Gold.Chemscore.Lipo.Weighted>
-7.4824

> <Gold.Chemscore.Internal_Hbond.Weighted>
0.0000

> <Gold.Chemscore.DEClash.Weighted>
0.1341

> <Gold.Chemscore.DEInternal.Weighted>
1.0577

> <Gold.Chemscore.Rot.Weighted>
6.5542

> <Gold.Chemscore.Internal.Correction.Weighted>
   9.000000E+99

> <Gold.Protein.RotatedTorsions>
[ 6907 6896 6895 6894 ] final  -17.44 input  -60.11 | X-H torsion
[ 7974 7965 7964 7962 ] final  -30.17 input  175.53 | X-H torsion
[ 8008 7997 7996 7995 ] final  129.79 input   59.86 | X-H torsion
[ 10167 10162 10161 10158 ] final  -23.43 input  -65.29 | X-H torsion
[ 10718 10713 10712 10709 ] final  117.41 input   66.30 | X-H torsion
[ 10763 10752 10751 10750 ] final -169.90 input  -60.55 | X-H torsion
[ 11005 11000 10999 10996 ] final  -47.65 input  -57.11 | X-H torsion

> <Gold.Protein.ActiveResidues>
 VAL166  LYS551  ARG553  GLY616  TRP617  ASP618  TYR619  PRO620  LYS621  CYS622 
 ASP623  PHE694  ASN695  SER759  ASP760  ASP761  ALA762  ILE779  LEU786  VAL792 
 PHE793  MET794  SER795  GLU796  ALA797  LYS798  CYS799  TRP800  GLU811  SER814 

> <Gold.Protein.RotatedAtoms>
  151.2933  135.0748  159.9211 H   0  0  0  0  0  0  0  0  0  0  0  0  # atno 6907 bound_to 6896
  152.5312  133.9909  159.7860 H   0  0  0  0  0  0  0  0  0  0  0  0  # atno 6908 bound_to 6896
  151.0183  133.5850  159.2705 H   0  0  0  0  0  0  0  0  0  0  0  0  # atno 6909 bound_to 6896
  146.1163  140.5506  142.8755 H   0  0  0  0  0  0  0  0  0  0  0  0  # atno 7974 bound_to 7965
  156.2943  140.2612  156.2656 H   0  0  0  0  0  0  0  0  0  0  0  0  # atno 8008 bound_to 7997
  154.9746  140.0390  157.2268 H   0  0  0  0  0  0  0  0  0  0  0  0  # atno 8009 bound_to 7997
  154.7828  140.2798  155.6055 H   0  0  0  0  0  0  0  0  0  0  0  0  # atno 8010 bound_to 7997
  140.7288  143.4444  151.0609 H   0  0  0  0  0  0  0  0  0  0  0  0  # atno 10167 bound_to 10162
  157.6098  131.1037  150.7611 H   0  0  0  0  0  0  0  0  0  0  0  0  # atno 10718 bound_to 10713
  154.6473  135.2906  155.0030 H   0  0  0  0  0  0  0  0  0  0  0  0  # atno 10763 bound_to 10752
  154.1136  135.6559  153.4893 H   0  0  0  0  0  0  0  0  0  0  0  0  # atno 10764 bound_to 10752
  153.0357  135.5271  154.7365 H   0  0  0  0  0  0  0  0  0  0  0  0  # atno 10765 bound_to 10752
  141.0654  133.6695  156.3328 H   0  0  0  0  0  0  0  0  0  0  0  0  # atno 11005 bound_to 11000
  144.7556  140.5298  143.6771 LP  0  0  0  0  0  0  0  0  0  0  0  0  # atno 17320 bound_to 7965
  145.5561  139.1478  143.3367 LP  0  0  0  0  0  0  0  0  0  0  0  0  # atno 17321 bound_to 7965
  139.8114  143.7946  152.3171 LP  0  0  0  0  0  0  0  0  0  0  0  0  # atno 17342 bound_to 10162
  139.7997  144.7379  150.9842 LP  0  0  0  0  0  0  0  0  0  0  0  0  # atno 17343 bound_to 10162
  156.7991  130.4915  149.5372 LP  0  0  0  0  0  0  0  0  0  0  0  0  # atno 17370 bound_to 10713
  156.1197  130.6101  151.0174 LP  0  0  0  0  0  0  0  0  0  0  0  0  # atno 17371 bound_to 10713
  140.5785  134.5770  157.5474 LP  0  0  0  0  0  0  0  0  0  0  0  0  # atno 17394 bound_to 11000
  139.9471  134.7683  156.0536 LP  0  0  0  0  0  0  0  0  0  0  0  0  # atno 17395 bound_to 11000

$$$$
