AV-unprocessed.smi:1868|AV-procd|sdf|7590|dock5
  -GOLD-   22720 9303D 1   1.00000     0.00000
 Structure written by MMmdl.
 48 50  0  0  0  0  0  0  0  0  3 V2000
  146.5778  142.4015  153.6733 C   0  0  0  0  0  0  0  0  0  0  0  0
  147.8086  141.7217  154.1719 C   0  0  0  0  0  0  0  0  0  0  0  0
  148.6954  142.2315  155.0725 N   0  3  0  0  0  0  0  0  0  0  0  0
  149.7194  141.3110  155.3003 C   0  0  0  0  0  0  0  0  0  0  0  0
  150.8371  141.3762  156.1268 C   0  0  0  0  0  0  0  0  0  0  0  0
  151.6906  140.2536  156.1265 C   0  0  0  0  0  0  0  0  0  0  0  0
  151.4188  139.1244  155.3266 C   0  0  0  0  0  0  0  0  0  0  0  0
  150.2824  139.0697  154.4923 C   0  0  0  0  0  0  0  0  0  0  0  0
  149.4443  140.1843  154.4984 C   0  0  0  0  0  0  0  0  0  0  0  0
  148.2589  140.4835  153.8175 N   0  0  0  0  0  0  0  0  0  0  0  0
  147.6955  139.4950  152.8844 C   0  0  0  0  0  0  0  0  0  0  0  0
  146.8051  138.4453  153.5805 C   0  0  2  0  0  0  0  0  0  0  0  0
  147.6250  137.4099  154.0888 O   0  0  0  0  0  0  0  0  0  0  0  0
  145.7769  137.8437  152.5997 C   0  0  0  0  0  0  0  0  0  0  0  0
  146.0212  136.4094  152.2947 N   0  3  2  0  0  0  0  0  0  0  0  0
  145.5924  136.0545  150.9168 C   0  0  0  0  0  0  0  0  0  0  0  0
  145.9708  134.6042  150.5655 C   0  0  0  0  0  0  0  0  0  0  0  0
  145.4123  133.5929  151.5826 C   0  0  2  0  0  0  0  0  0  0  0  0
  143.8954  133.3767  151.4376 C   0  0  0  0  0  0  0  0  0  0  0  0
  145.8189  134.0220  153.0038 C   0  0  0  0  0  0  0  0  0  0  0  0
  145.4383  135.4833  153.3027 C   0  0  0  0  0  0  0  0  0  0  0  0
  146.4746  143.3882  154.1256 H   0  0  0  0  0  0  0  0  0  0  0  0
  145.6951  141.8123  153.9223 H   0  0  0  0  0  0  0  0  0  0  0  0
  146.6246  142.5207  152.5910 H   0  0  0  0  0  0  0  0  0  0  0  0
  151.0470  142.2396  156.7412 H   0  0  0  0  0  0  0  0  0  0  0  0
  152.5709  140.2584  156.7531 H   0  0  0  0  0  0  0  0  0  0  0  0
  152.0961  138.2830  155.3544 H   0  0  0  0  0  0  0  0  0  0  0  0
  150.0830  138.1998  153.8847 H   0  0  0  0  0  0  0  0  0  0  0  0
  147.1387  140.0300  152.1142 H   0  0  0  0  0  0  0  0  0  0  0  0
  148.5281  139.0079  152.3751 H   0  0  0  0  0  0  0  0  0  0  0  0
  146.3029  138.9226  154.4205 H   0  0  0  0  0  0  0  0  0  0  0  0
  147.2501  137.0860  154.8933 H   0  0  0  0  0  0  0  0  0  0  0  0
  144.7656  137.9540  152.9940 H   0  0  0  0  0  0  0  0  0  0  0  0
  145.8053  138.4253  151.6769 H   0  0  0  0  0  0  0  0  0  0  0  0
  144.5167  136.2049  150.8174 H   0  0  0  0  0  0  0  0  0  0  0  0
  146.0693  136.7249  150.2008 H   0  0  0  0  0  0  0  0  0  0  0  0
  145.6246  134.3601  149.5605 H   0  0  0  0  0  0  0  0  0  0  0  0
  147.0583  134.5201  150.5378 H   0  0  0  0  0  0  0  0  0  0  0  0
  145.8814  132.6287  151.3815 H   0  0  0  0  0  0  0  0  0  0  0  0
  143.3294  134.2919  151.6093 H   0  0  0  0  0  0  0  0  0  0  0  0
  143.5386  132.6309  152.1487 H   0  0  0  0  0  0  0  0  0  0  0  0
  143.6453  133.0188  150.4384 H   0  0  0  0  0  0  0  0  0  0  0  0
  145.3674  133.3584  153.7422 H   0  0  0  0  0  0  0  0  0  0  0  0
  146.8979  133.9079  153.1169 H   0  0  0  0  0  0  0  0  0  0  0  0
  145.7940  135.7341  154.3009 H   0  0  0  0  0  0  0  0  0  0  0  0
  144.3538  135.5978  153.3230 H   0  0  0  0  0  0  0  0  0  0  0  0
  147.0222  136.2783  152.3152 H   0  0  0  0  0  0  0  0  0  0  0  0
  148.6034  143.1438  155.5010 H   0  0  0  0  0  0  0  0  0  0  0  0
  1  2  1  0  0  0  0
  1 22  1  0  0  0  0
  1 23  1  0  0  0  0
  1 24  1  0  0  0  0
  2 10  1  0  0  0  0
  2  3  2  0  0  0  0
  3  4  1  0  0  0  0
  3 48  1  0  0  0  0
  4  9  2  0  0  0  0
  4  5  1  0  0  0  0
  5  6  2  0  0  0  0
  5 25  1  0  0  0  0
  6  7  1  0  0  0  0
  6 26  1  0  0  0  0
  7  8  2  0  0  0  0
  7 27  1  0  0  0  0
  8  9  1  0  0  0  0
  8 28  1  0  0  0  0
  9 10  1  0  0  0  0
 10 11  1  0  0  0  0
 11 12  1  0  0  0  0
 11 29  1  0  0  0  0
 11 30  1  0  0  0  0
 12 13  1  0  0  0  0
 12 14  1  0  0  0  0
 12 31  1  0  0  0  0
 13 32  1  0  0  0  0
 14 15  1  0  0  0  0
 14 33  1  0  0  0  0
 14 34  1  0  0  0  0
 15 21  1  0  0  0  0
 15 16  1  0  0  0  0
 15 47  1  0  0  0  0
 16 17  1  0  0  0  0
 16 35  1  0  0  0  0
 16 36  1  0  0  0  0
 17 18  1  0  0  0  0
 17 37  1  0  0  0  0
 17 38  1  0  0  0  0
 18 19  1  0  0  0  0
 18 20  1  0  0  0  0
 18 39  1  0  0  0  0
 19 40  1  0  0  0  0
 19 41  1  0  0  0  0
 19 42  1  0  0  0  0
 20 21  1  0  0  0  0
 20 43  1  0  0  0  0
 20 44  1  0  0  0  0
 21 45  1  0  0  0  0
 21 46  1  0  0  0  0
M  CHG  1   3   1
M  CHG  1  15   1
M  END
> <s_m_source_file>
AV-unprocessed.smi

> <i_m_source_file_index>
1868

> <i_lp_mmshare_version>
43012

> <i_f3d_flags>
0

> <s_epik_input>
W2NIXTFbY0hdW2NIXVtjSF1jKGMxMiluKGMobjIpW0NIM10pW0NIMl1bQ0BIXShbT0hdKVtDSDJdTjNbQ0gyXVtDSDJdW0NIXShbQ0gzXSlbQ0gyXVtDSDJdMw==

> <s_epik_cmdline>
J2VwaWtfcHl0aG9uJywgJy1waCcsICc3LjAnLCAnLXRuJywgJzgnLCAnLW1hJywgJzIwMCcsICctbWV0YWxfYmluZGluZycsICctaW1hZScsICc8aW5maWxlLm1hZT4nLCAnLW9tYWUnLCAnPG91dGZpbGUubWFlPic=

> <r_epik_Ionization_Penalty>
1.10901

> <r_epik_Ionization_Penalty_Charging>
1.10901

> <r_epik_Ionization_Penalty_Neutral>
6.90208e-07

> <r_epik_State_Penalty>
1.18788

> <r_epik_Charging_Adjusted_Penalty>
2.29689

> <i_epik_Tot_Q>
2

> <i_epik_Tot_abs_Q>
2

> <r_epik_Metal_State_Penalty>
5.19353

> <b_epik_Metal_Only>
0

> <s_lp_Force_Field>
OPLS_2005

> <r_lp_Energy>
32.3741

> <b_lp_Chiralities_Consistent>
1

> <s_lp_Variant>
AV-unprocessed.smi:1868-7

> <Gold.Version>
5.8.1

> <Gold.Id.Protein>
6NUR|6NUR_protein|mol2

> <Gold.PLP.Fitness>
51.2884

> <Gold.PLP.PLP>
-42.5969

> <Gold.PLP.part.hbond>
-3.0000

> <Gold.PLP.part.metal>
0.0000

> <Gold.PLP.part.buried>
-0.0095

> <Gold.PLP.part.nonpolar>
-37.9394

> <Gold.PLP.part.repulsive>
0.2013

> <Gold.PLP.ligand.clash>
0.0000

> <Gold.PLP.ligand.torsion>
1.6722

> <Gold.PLP.Chemscore.Hbond>
4.0000

> <Gold.PLP.Chemscore.CHOScore>
0.0000

> <Gold.PLP.Chemscore.Metal>
0.0000

> <Gold.Chemscore.Hbonds>
donor molecule, donor type, donor heavy atom, donor atom, acceptor molecule, acceptor atom, score
      L1  H     3    48       P1  8028  2.00
      L1  H    15    47       P1  7948  2.00

> <Gold.PLP.Chemscore.Internal.Correction>
0.0359

> <Gold.Rescore>
     Score         DG    S(hbond)    S(metal)    S(lipo)     H(rot)  DE(clash)    DE(int)     intcor
     15.18     -18.29       1.96        0.00      97.11       1.99       1.36       1.76       ----

> <Gold.Chemscore.Fitness>
15.1751

> <Gold.Chemscore.DG>
-18.2898

> <Gold.Chemscore.ZeroCoef>
-5.4800

> <Gold.Chemscore.Hbond>
1.9558

> <Gold.Chemscore.Metal>
0.0000

> <Gold.Chemscore.Lipo>
97.1138

> <Gold.Chemscore.Internal_Hbond>
0.0000

> <Gold.Chemscore.DEClash>
1.3557

> <Gold.Chemscore.DEInternal>
1.7589

> <Gold.Chemscore.Rot>
1.9863

> <Gold.Chemscore.Internal.Correction>
   9.000000E+99

> <Gold.Chemscore.Hbonds>
donor molecule, donor type, donor heavy atom, donor atom, acceptor molecule, acceptor atom, score
      L1  H     3    48       P1  8028  0.96
      L1  H    15    47       P1  7948  0.98

> <Gold.Chemscore.Hbond.Weighted>
-6.5325

> <Gold.Chemscore.Metal.Weighted>
-0.0000

> <Gold.Chemscore.Lipo.Weighted>
-11.3623

> <Gold.Chemscore.Internal_Hbond.Weighted>
0.0000

> <Gold.Chemscore.DEClash.Weighted>
1.3557

> <Gold.Chemscore.DEInternal.Weighted>
1.7589

> <Gold.Chemscore.Rot.Weighted>
5.0850

> <Gold.Chemscore.Internal.Correction.Weighted>
   9.000000E+99

> <Gold.Protein.RotatedTorsions>
[ 6907 6896 6895 6894 ] final -140.38 input  -60.11 | X-H torsion
[ 7974 7965 7964 7962 ] final  -64.44 input  175.53 | X-H torsion
[ 8008 7997 7996 7995 ] final -126.19 input   59.86 | X-H torsion
[ 10167 10162 10161 10158 ] final  -91.28 input  -65.29 | X-H torsion
[ 10718 10713 10712 10709 ] final   56.82 input   66.30 | X-H torsion
[ 10763 10752 10751 10750 ] final  125.65 input  -60.55 | X-H torsion
[ 11005 11000 10999 10996 ] final   26.86 input  -57.11 | X-H torsion

> <Gold.Protein.ActiveResidues>
 VAL166  LYS551  ARG553  GLY616  TRP617  ASP618  TYR619  PRO620  LYS621  CYS622 
 ASP623  PHE694  ASN695  SER759  ASP760  ASP761  ALA762  ILE779  LEU786  VAL792 
 PHE793  MET794  SER795  GLU796  ALA797  LYS798  CYS799  TRP800  GLU811  SER814 

> <Gold.Protein.RotatedAtoms>
  151.0599  133.5552  159.2634 H   0  0  0  0  0  0  0  0  0  0  0  0  # atno 6907 bound_to 6896
  151.2531  135.0628  159.9079 H   0  0  0  0  0  0  0  0  0  0  0  0  # atno 6908 bound_to 6896
  152.5396  134.0357  159.8098 H   0  0  0  0  0  0  0  0  0  0  0  0  # atno 6909 bound_to 6896
  145.7667  140.8834  143.0401 H   0  0  0  0  0  0  0  0  0  0  0  0  # atno 7974 bound_to 7965
  155.2257  140.0423  157.2955 H   0  0  0  0  0  0  0  0  0  0  0  0  # atno 8008 bound_to 7997
  154.5921  140.2429  155.7877 H   0  0  0  0  0  0  0  0  0  0  0  0  # atno 8009 bound_to 7997
  156.2266  140.2952  156.0091 H   0  0  0  0  0  0  0  0  0  0  0  0  # atno 8010 bound_to 7997
  140.3464  143.2914  151.9776 H   0  0  0  0  0  0  0  0  0  0  0  0  # atno 10167 bound_to 10162
  157.5463  130.8733  149.8896 H   0  0  0  0  0  0  0  0  0  0  0  0  # atno 10718 bound_to 10713
  153.6808  135.3315  155.3177 H   0  0  0  0  0  0  0  0  0  0  0  0  # atno 10763 bound_to 10752
  154.8466  135.4408  154.1608 H   0  0  0  0  0  0  0  0  0  0  0  0  # atno 10764 bound_to 10752
  153.2624  135.6992  153.7641 H   0  0  0  0  0  0  0  0  0  0  0  0  # atno 10765 bound_to 10752
  140.3325  134.2422  155.7700 H   0  0  0  0  0  0  0  0  0  0  0  0  # atno 11005 bound_to 11000
  144.6820  139.9798  143.7483 LP  0  0  0  0  0  0  0  0  0  0  0  0  # atno 17320 bound_to 7965
  146.0210  139.3251  143.0812 LP  0  0  0  0  0  0  0  0  0  0  0  0  # atno 17321 bound_to 7965
  139.4832  144.6113  151.7428 LP  0  0  0  0  0  0  0  0  0  0  0  0  # atno 17342 bound_to 10162
  140.5260  144.0805  150.6038 LP  0  0  0  0  0  0  0  0  0  0  0  0  # atno 17343 bound_to 10162
  156.0538  130.3712  150.1139 LP  0  0  0  0  0  0  0  0  0  0  0  0  # atno 17370 bound_to 10713
  156.9315  130.9715  151.3532 LP  0  0  0  0  0  0  0  0  0  0  0  0  # atno 17371 bound_to 10713
  141.2060  133.7846  157.0203 LP  0  0  0  0  0  0  0  0  0  0  0  0  # atno 17394 bound_to 11000
  140.0849  134.9627  157.1683 LP  0  0  0  0  0  0  0  0  0  0  0  0  # atno 17395 bound_to 11000

$$$$
