AV-unprocessed.smi:265|AV-procd|sdf|2029|dock4
  -GOLD-   2262021233D 1   1.00000     0.00000
 Structure written by MMmdl.
 52 56  0  0  0  0  0  0  0  0  1 V2000
  147.6480  142.1521  156.8704 C   0  0  0  0  0  0  0  0  0  0  0  0
  148.2147  141.0003  156.0258 C   0  0  2  0  0  0  0  0  0  0  0  0
  149.3739  140.4323  156.6336 O   0  0  0  0  0  0  0  0  0  0  0  0
  150.3965  140.2304  155.6648 C   0  0  0  0  0  0  0  0  0  0  0  0
  149.6949  140.3113  154.3129 C   0  0  0  0  0  0  0  0  0  0  0  0
  148.6014  141.3395  154.5685 C   0  0  2  0  0  0  0  0  0  0  0  0
  149.1773  142.6334  154.4996 O   0  0  0  0  0  0  0  0  0  0  0  0
  147.4360  141.3340  153.5451 C   0  0  0  0  0  0  0  0  0  0  0  0
  147.0991  140.0269  153.0027 N   0  0  0  0  0  0  0  0  0  0  0  0
  147.1758  139.6337  151.6845 C   0  0  0  0  0  0  0  0  0  0  0  0
  146.8131  138.4025  151.4466 N   0  0  0  0  0  0  0  0  0  0  0  0
  146.4401  137.9174  152.6931 C   0  0  0  0  0  0  0  0  0  0  0  0
  145.9482  136.6711  153.1593 C   0  0  0  0  0  0  0  0  0  0  0  0
  145.7524  135.6251  152.3297 N   0  0  0  0  0  0  0  0  0  0  0  0
  144.4668  135.6632  151.6313 C   0  0  0  0  0  0  0  0  0  0  0  0
  144.3867  134.5620  150.5568 C   0  0  0  0  0  0  0  0  0  0  0  0
  144.6893  133.1962  151.1887 C   0  0  1  0  0  0  0  0  0  0  0  0
  144.7354  132.1590  150.2205 O   0  0  0  0  0  0  0  0  0  0  0  0
  144.8582  130.8517  150.7925 C   0  0  0  0  0  0  0  0  0  0  0  0
  145.9435  130.7756  151.8881 C   0  0  0  0  0  0  0  0  0  0  0  0
  146.3259  129.6810  152.2954 O   0  0  0  0  0  0  0  0  0  0  0  0
  146.4119  131.9265  152.3984 N   0  0  0  0  0  0  0  0  0  0  0  0
  146.0740  133.2351  151.8551 C   0  0  2  0  0  0  0  0  0  0  0  0
  146.1092  134.3378  152.9253 C   0  0  0  0  0  0  0  0  0  0  0  0
  145.6746  136.5468  154.4845 N   0  0  0  0  0  0  0  0  0  0  0  0
  145.8710  137.5845  155.3042 C   0  0  0  0  0  0  0  0  0  0  0  0
  146.3256  138.8056  155.0119 N   0  0  0  0  0  0  0  0  0  0  0  0
  146.6030  138.9273  153.6814 C   0  0  0  0  0  0  0  0  0  0  0  0
  143.9140  132.9707  151.9243 H   0  0  0  0  0  0  0  0  0  0  0  0
  146.8262  133.4635  151.0976 H   0  0  0  0  0  0  0  0  0  0  0  0
  146.7640  142.5831  156.4002 H   0  0  0  0  0  0  0  0  0  0  0  0
  148.3794  142.9484  157.0087 H   0  0  0  0  0  0  0  0  0  0  0  0
  147.3576  141.7986  157.8597 H   0  0  0  0  0  0  0  0  0  0  0  0
  147.4862  140.1911  156.0254 H   0  0  0  0  0  0  0  0  0  0  0  0
  151.1335  141.0284  155.7624 H   0  0  0  0  0  0  0  0  0  0  0  0
  150.9069  139.2789  155.8159 H   0  0  0  0  0  0  0  0  0  0  0  0
  150.3667  140.5784  153.4963 H   0  0  0  0  0  0  0  0  0  0  0  0
  149.2693  139.3340  154.0884 H   0  0  0  0  0  0  0  0  0  0  0  0
  148.7545  143.1856  155.1392 H   0  0  0  0  0  0  0  0  0  0  0  0
  146.5374  141.7474  154.0059 H   0  0  0  0  0  0  0  0  0  0  0  0
  147.6736  141.9913  152.7075 H   0  0  0  0  0  0  0  0  0  0  0  0
  147.5190  140.2921  150.8996 H   0  0  0  0  0  0  0  0  0  0  0  0
  143.6584  135.5328  152.3524 H   0  0  0  0  0  0  0  0  0  0  0  0
  144.3278  136.6415  151.1691 H   0  0  0  0  0  0  0  0  0  0  0  0
  143.3984  134.5564  150.0965 H   0  0  0  0  0  0  0  0  0  0  0  0
  145.1031  134.7707  149.7612 H   0  0  0  0  0  0  0  0  0  0  0  0
  143.9019  130.5594  151.2280 H   0  0  0  0  0  0  0  0  0  0  0  0
  145.0828  130.1372  150.0003 H   0  0  0  0  0  0  0  0  0  0  0  0
  147.0953  131.8870  153.1406 H   0  0  0  0  0  0  0  0  0  0  0  0
  147.1060  134.4003  153.3646 H   0  0  0  0  0  0  0  0  0  0  0  0
  145.4142  134.1014  153.7326 H   0  0  0  0  0  0  0  0  0  0  0  0
  145.6312  137.4119  156.3430 H   0  0  0  0  0  0  0  0  0  0  0  0
  1  2  1  0  0  0  0
  1 31  1  0  0  0  0
  1 32  1  0  0  0  0
  1 33  1  0  0  0  0
  2  6  1  0  0  0  0
  2  3  1  0  0  0  0
  2 34  1  0  0  0  0
  3  4  1  0  0  0  0
  4  5  1  0  0  0  0
  4 35  1  0  0  0  0
  4 36  1  0  0  0  0
  5  6  1  0  0  0  0
  5 37  1  0  0  0  0
  5 38  1  0  0  0  0
  6  7  1  0  0  0  0
  6  8  1  0  0  0  0
  7 39  1  0  0  0  0
  8  9  1  0  0  0  0
  8 40  1  0  0  0  0
  8 41  1  0  0  0  0
  9 28  1  0  0  0  0
  9 10  1  0  0  0  0
 10 11  2  0  0  0  0
 10 42  1  0  0  0  0
 11 12  1  0  0  0  0
 12 28  2  0  0  0  0
 12 13  1  0  0  0  0
 13 14  1  0  0  0  0
 13 25  2  0  0  0  0
 14 24  1  0  0  0  0
 14 15  1  0  0  0  0
 15 16  1  0  0  0  0
 15 43  1  0  0  0  0
 15 44  1  0  0  0  0
 16 17  1  0  0  0  0
 16 45  1  0  0  0  0
 16 46  1  0  0  0  0
 17 29  1  0  0  0  0
 17 23  1  0  0  0  0
 17 18  1  0  0  0  0
 18 19  1  0  0  0  0
 19 20  1  0  0  0  0
 19 47  1  0  0  0  0
 19 48  1  0  0  0  0
 20 21  2  0  0  0  0
 20 22  1  0  0  0  0
 22 23  1  0  0  0  0
 22 49  1  0  0  0  0
 23 30  1  0  0  0  0
 23 24  1  0  0  0  0
 24 50  1  0  0  0  0
 24 51  1  0  0  0  0
 25 26  1  0  0  0  0
 26 27  2  0  0  0  0
 26 52  1  0  0  0  0
 27 28  1  0  0  0  0
M  END
> <s_m_source_file>
AV-unprocessed.smi

> <i_m_source_file_index>
265

> <i_lp_mmshare_version>
43012

> <i_f3d_flags>
0

> <s_epik_input>
W0NIMl0xW0NIMl1PW0NAQEhdKFtDSDNdKVtDQEBdMShbT0hdKVtDSDJdbihbY0hdbjIpYyhjMjMpbltjSF1uYzNOKFtDSDJdW0NIMl00KVtDSDJdW0NAQEhdKFtDQEhdNDUpW05IXUMoPU8pW0NIMl1PNQ==

> <s_epik_cmdline>
J2VwaWtfcHl0aG9uJywgJy1waCcsICc3LjAnLCAnLXRuJywgJzgnLCAnLW1hJywgJzIwMCcsICctbWV0YWxfYmluZGluZycsICctaW1hZScsICc8aW5maWxlLm1hZT4nLCAnLW9tYWUnLCAnPG91dGZpbGUubWFlPic=

> <r_lp_tautomer_probability>
1

> <r_epik_Ionization_Penalty>
0.00221504

> <r_epik_Ionization_Penalty_Charging>
0

> <r_epik_Ionization_Penalty_Neutral>
0.00221504

> <r_epik_State_Penalty>
-0

> <r_epik_Charging_Adjusted_Penalty>
0

> <i_epik_Tot_Q>
0

> <i_epik_Tot_abs_Q>
0

> <r_epik_Metal_State_Penalty>
-0

> <b_epik_Metal_Only>
0

> <s_lp_Force_Field>
OPLS_2005

> <r_lp_Energy>
49.142

> <b_lp_Chiralities_Consistent>
1

> <s_lp_Variant>
AV-unprocessed.smi:265-15

> <Gold.Version>
5.8.1

> <Gold.Id.Protein>
6NUR|6NUR_protein|mol2

> <Gold.PLP.Fitness>
38.2380

> <Gold.PLP.PLP>
-34.8294

> <Gold.PLP.part.hbond>
-2.0662

> <Gold.PLP.part.metal>
0.0000

> <Gold.PLP.part.buried>
0.6846

> <Gold.PLP.part.nonpolar>
-33.1670

> <Gold.PLP.part.repulsive>
1.4313

> <Gold.PLP.ligand.clash>
0.0000

> <Gold.PLP.ligand.torsion>
1.0907

> <Gold.PLP.Chemscore.Hbond>
1.3492

> <Gold.PLP.Chemscore.CHOScore>
0.4403

> <Gold.PLP.Chemscore.Metal>
0.0000

> <Gold.Chemscore.Hbonds>
donor molecule, donor type, donor heavy atom, donor atom, acceptor molecule, acceptor atom, score
      L1  H     7    39       P1  8028  0.74
      P1  H  7954  7966       L1    11  0.76
      P1  H  8011  8017       L1     7  0.02
      L1  C    10    42       P1  7957  0.40

> <Gold.PLP.Chemscore.Internal.Correction>
0.2217

> <Gold.Rescore>
     Score         DG    S(hbond)    S(metal)    S(lipo)     H(rot)  DE(clash)    DE(int)     intcor
      8.79     -11.69       0.85        0.00      77.91       2.25       1.97       0.93       ----

> <Gold.Chemscore.Fitness>
8.7922

> <Gold.Chemscore.DG>
-11.6929

> <Gold.Chemscore.ZeroCoef>
-5.4800

> <Gold.Chemscore.Hbond>
0.8518

> <Gold.Chemscore.Metal>
0.0000

> <Gold.Chemscore.Lipo>
77.9134

> <Gold.Chemscore.Internal_Hbond>
0.0000

> <Gold.Chemscore.DEClash>
1.9687

> <Gold.Chemscore.DEInternal>
0.9319

> <Gold.Chemscore.Rot>
2.2453

> <Gold.Chemscore.Internal.Correction>
   9.000000E+99

> <Gold.Chemscore.Hbonds>
donor molecule, donor type, donor heavy atom, donor atom, acceptor molecule, acceptor atom, score
      L1  H     7    39       P1  8028  0.73
      P1  H  7954  7966       L1    11  0.23

> <Gold.Chemscore.Hbond.Weighted>
-2.8449

> <Gold.Chemscore.Metal.Weighted>
-0.0000

> <Gold.Chemscore.Lipo.Weighted>
-9.1159

> <Gold.Chemscore.Internal_Hbond.Weighted>
0.0000

> <Gold.Chemscore.DEClash.Weighted>
1.9687

> <Gold.Chemscore.DEInternal.Weighted>
0.9319

> <Gold.Chemscore.Rot.Weighted>
5.7479

> <Gold.Chemscore.Internal.Correction.Weighted>
   9.000000E+99

> <Gold.Protein.RotatedTorsions>
[ 6907 6896 6895 6894 ] final  142.71 input  -60.11 | X-H torsion
[ 7974 7965 7964 7962 ] final   69.62 input  175.53 | X-H torsion
[ 8008 7997 7996 7995 ] final   51.10 input   59.86 | X-H torsion
[ 10167 10162 10161 10158 ] final   41.46 input  -65.29 | X-H torsion
[ 10718 10713 10712 10709 ] final   86.66 input   66.30 | X-H torsion
[ 10763 10752 10751 10750 ] final  -34.38 input  -60.55 | X-H torsion
[ 11005 11000 10999 10996 ] final  -62.29 input  -57.11 | X-H torsion

> <Gold.Protein.ActiveResidues>
 VAL166  LYS551  ARG553  GLY616  TRP617  ASP618  TYR619  PRO620  LYS621  CYS622 
 ASP623  PHE694  ASN695  SER759  ASP760  ASP761  ALA762  ILE779  LEU786  VAL792 
 PHE793  MET794  SER795  GLU796  ALA797  LYS798  CYS799  TRP800  GLU811  SER814 

> <Gold.Protein.RotatedAtoms>
  152.2154  133.4942  159.5132 H   0  0  0  0  0  0  0  0  0  0  0  0  # atno 6907 bound_to 6896
  150.7000  134.1413  159.4115 H   0  0  0  0  0  0  0  0  0  0  0  0  # atno 6908 bound_to 6896
  151.9333  135.0246  160.0581 H   0  0  0  0  0  0  0  0  0  0  0  0  # atno 6909 bound_to 6896
  145.7882  139.2921  143.1226 H   0  0  0  0  0  0  0  0  0  0  0  0  # atno 7974 bound_to 7965
  155.4297  140.3450  155.4279 H   0  0  0  0  0  0  0  0  0  0  0  0  # atno 8008 bound_to 7997
  156.1344  140.1523  156.9048 H   0  0  0  0  0  0  0  0  0  0  0  0  # atno 8009 bound_to 7997
  154.4920  140.0838  156.7595 H   0  0  0  0  0  0  0  0  0  0  0  0  # atno 8010 bound_to 7997
  140.3640  144.2191  150.6136 H   0  0  0  0  0  0  0  0  0  0  0  0  # atno 10167 bound_to 10162
  157.6931  131.0224  150.3006 H   0  0  0  0  0  0  0  0  0  0  0  0  # atno 10718 bound_to 10713
  153.8458  135.6853  153.4798 H   0  0  0  0  0  0  0  0  0  0  0  0  # atno 10763 bound_to 10752
  153.1426  135.4651  154.9517 H   0  0  0  0  0  0  0  0  0  0  0  0  # atno 10764 bound_to 10752
  154.7824  135.3273  154.7907 H   0  0  0  0  0  0  0  0  0  0  0  0  # atno 10765 bound_to 10752
  141.1354  133.6638  156.5505 H   0  0  0  0  0  0  0  0  0  0  0  0  # atno 11005 bound_to 11000
  146.0004  140.8525  143.0021 LP  0  0  0  0  0  0  0  0  0  0  0  0  # atno 17320 bound_to 7965
  144.6786  140.2344  143.7351 LP  0  0  0  0  0  0  0  0  0  0  0  0  # atno 17321 bound_to 7965
  140.5099  143.2294  151.8552 LP  0  0  0  0  0  0  0  0  0  0  0  0  # atno 17342 bound_to 10162
  139.4811  144.4962  151.9120 LP  0  0  0  0  0  0  0  0  0  0  0  0  # atno 17343 bound_to 10162
  156.3523  130.3833  149.7319 LP  0  0  0  0  0  0  0  0  0  0  0  0  # atno 17370 bound_to 10713
  156.4793  130.8033  151.3048 LP  0  0  0  0  0  0  0  0  0  0  0  0  # atno 17371 bound_to 10713
  140.4068  134.7308  157.4812 LP  0  0  0  0  0  0  0  0  0  0  0  0  # atno 17394 bound_to 11000
  140.0456  134.6204  155.8925 LP  0  0  0  0  0  0  0  0  0  0  0  0  # atno 17395 bound_to 11000

$$$$
