AV-unprocessed.smi:753|AV-procd|sdf|3606|dock9
  -GOLD-   22720 1 03D 1   1.00000     0.00000
 Structure written by MMmdl.
 44 46  0  0  0  0  0  0  0  0  2 V2000
  143.7870  144.4958  156.7310 C   0  0  0  0  0  0  0  0  0  0  0  0
  144.7007  143.7412  155.7887 C   0  0  0  0  0  0  0  0  0  0  0  0
  144.9819  144.1975  154.4830 C   0  0  0  0  0  0  0  0  0  0  0  0
  145.8418  143.4414  153.6598 C   0  0  0  0  0  0  0  0  0  0  0  0
  146.4042  142.2460  154.1588 C   0  0  0  0  0  0  0  0  0  0  0  0
  147.3280  141.4106  153.2955 C   0  0  0  0  0  0  0  0  0  0  0  0
  148.5293  140.8717  154.0885 C   0  0  0  0  0  0  0  0  0  0  0  0
  149.1086  141.9021  154.9407 N   0  0  0  0  0  0  0  0  0  0  0  0
  150.1089  141.7039  155.8155 C   0  0  0  0  0  0  0  0  0  0  0  0
  150.6362  140.6090  156.0029 O   0  0  0  0  0  0  0  0  0  0  0  0
  150.5015  142.8051  156.4799 N   0  0  0  0  0  0  0  0  0  0  0  0
  151.5558  142.9217  157.4905 C   0  0  1  0  0  0  0  0  0  0  0  0
  152.0204  144.3845  157.6650 C   0  0  0  0  0  0  0  0  0  0  0  0
  151.7818  144.6456  159.1638 C   0  0  2  0  0  0  0  0  0  0  0  0
  152.7843  143.8238  159.9974 C   0  0  0  0  0  0  0  0  0  0  0  0
  152.2629  142.3823  159.8362 C   0  0  0  0  0  0  0  0  0  0  0  0
  151.0477  142.5674  158.9090 C   0  0  1  0  0  0  0  0  0  0  0  0
  150.4810  143.8934  159.4074 C   0  0  0  0  0  0  0  0  0  0  0  0
  146.0864  141.8384  155.4720 C   0  0  0  0  0  0  0  0  0  0  0  0
  145.2571  142.5901  156.2286 N   0  3  0  0  0  0  0  0  0  0  0  0
  143.4426  145.4281  156.2825 H   0  0  0  0  0  0  0  0  0  0  0  0
  144.3108  144.7367  157.6567 H   0  0  0  0  0  0  0  0  0  0  0  0
  142.9128  143.8922  156.9763 H   0  0  0  0  0  0  0  0  0  0  0  0
  144.5460  145.1142  154.1133 H   0  0  0  0  0  0  0  0  0  0  0  0
  146.0645  143.7763  152.6570 H   0  0  0  0  0  0  0  0  0  0  0  0
  146.7578  140.5866  152.8640 H   0  0  0  0  0  0  0  0  0  0  0  0
  147.6743  142.0162  152.4570 H   0  0  0  0  0  0  0  0  0  0  0  0
  148.2162  140.0431  154.7239 H   0  0  0  0  0  0  0  0  0  0  0  0
  149.2889  140.4757  153.4123 H   0  0  0  0  0  0  0  0  0  0  0  0
  148.7315  142.8349  154.8547 H   0  0  0  0  0  0  0  0  0  0  0  0
  150.0009  143.6567  156.2711 H   0  0  0  0  0  0  0  0  0  0  0  0
  152.4019  142.2939  157.2050 H   0  0  0  0  0  0  0  0  0  0  0  0
  153.0652  144.5228  157.3845 H   0  0  0  0  0  0  0  0  0  0  0  0
  151.4244  145.0709  157.0611 H   0  0  0  0  0  0  0  0  0  0  0  0
  151.7583  145.7041  159.4249 H   0  0  0  0  0  0  0  0  0  0  0  0
  153.8091  143.9391  159.6426 H   0  0  0  0  0  0  0  0  0  0  0  0
  152.7568  144.1248  161.0454 H   0  0  0  0  0  0  0  0  0  0  0  0
  153.0121  141.7107  159.4153 H   0  0  0  0  0  0  0  0  0  0  0  0
  151.9552  141.9774  160.8012 H   0  0  0  0  0  0  0  0  0  0  0  0
  150.3512  141.7291  158.9439 H   0  0  0  0  0  0  0  0  0  0  0  0
  150.1834  143.8711  160.4574 H   0  0  0  0  0  0  0  0  0  0  0  0
  149.6479  144.2631  158.8074 H   0  0  0  0  0  0  0  0  0  0  0  0
  146.4645  140.9394  155.9365 H   0  0  0  0  0  0  0  0  0  0  0  0
  145.0407  142.2744  157.1744 H   0  0  0  0  0  0  0  0  0  0  0  0
  1  2  1  0  0  0  0
  1 21  1  0  0  0  0
  1 22  1  0  0  0  0
  1 23  1  0  0  0  0
  2 20  1  0  0  0  0
  2  3  2  0  0  0  0
  3  4  1  0  0  0  0
  3 24  1  0  0  0  0
  4  5  2  0  0  0  0
  4 25  1  0  0  0  0
  5  6  1  0  0  0  0
  5 19  1  0  0  0  0
  6  7  1  0  0  0  0
  6 26  1  0  0  0  0
  6 27  1  0  0  0  0
  7  8  1  0  0  0  0
  7 28  1  0  0  0  0
  7 29  1  0  0  0  0
  8  9  1  0  0  0  0
  8 30  1  0  0  0  0
  9 10  2  0  0  0  0
  9 11  1  0  0  0  0
 11 12  1  0  0  0  0
 11 31  1  0  0  0  0
 12 17  1  0  0  0  0
 12 13  1  0  0  0  0
 12 32  1  0  0  0  0
 13 14  1  0  0  0  0
 13 33  1  0  0  0  0
 13 34  1  0  0  0  0
 14 18  1  0  0  0  0
 14 15  1  0  0  0  0
 14 35  1  0  0  0  0
 15 16  1  0  0  0  0
 15 36  1  0  0  0  0
 15 37  1  0  0  0  0
 16 17  1  0  0  0  0
 16 38  1  0  0  0  0
 16 39  1  0  0  0  0
 17 18  1  0  0  0  0
 17 40  1  0  0  0  0
 18 41  1  0  0  0  0
 18 42  1  0  0  0  0
 19 20  2  0  0  0  0
 19 43  1  0  0  0  0
 20 44  1  0  0  0  0
M  CHG  1  20   1
M  END
> <s_m_source_file>
AV-unprocessed.smi

> <i_m_source_file_index>
753

> <i_lp_mmshare_version>
43012

> <i_f3d_flags>
0

> <s_epik_input>
W0NIM11jMVtjSF1bY0hdYyhbY0hdbjEpW0NIMl1bQ0gyXVtOSF1DKD1PKVtOSF1bQ0BIXShbQ0gyXVtDQEBIXTIzKVtDQEBIXShbQ0gyXTMpW0NIMl1bQ0gyXTI=

> <s_epik_cmdline>
J2VwaWtfcHl0aG9uJywgJy1waCcsICc3LjAnLCAnLXRuJywgJzgnLCAnLW1hJywgJzIwMCcsICctbWV0YWxfYmluZGluZycsICctaW1hZScsICc8aW5maWxlLm1hZT4nLCAnLW9tYWUnLCAnPG91dGZpbGUubWFlPic=

> <r_epik_Ionization_Penalty>
1.41708

> <r_epik_Ionization_Penalty_Charging>
1.41702

> <r_epik_Ionization_Penalty_Neutral>
5.73163e-05

> <r_epik_State_Penalty>
1.50048

> <r_epik_Charging_Adjusted_Penalty>
2.9175

> <i_epik_Tot_Q>
1

> <i_epik_Tot_abs_Q>
1

> <r_epik_Metal_State_Penalty>
1.55295

> <b_epik_Metal_Only>
0

> <s_lp_Force_Field>
OPLS_2005

> <r_lp_Energy>
57.1024

> <b_lp_Chiralities_Consistent>
1

> <s_lp_Variant>
AV-unprocessed.smi:753-8

> <Gold.Version>
5.8.1

> <Gold.Id.Protein>
6NUR|6NUR_protein|mol2

> <Gold.PLP.Fitness>
50.2652

> <Gold.PLP.PLP>
-45.9413

> <Gold.PLP.part.hbond>
-2.0000

> <Gold.PLP.part.metal>
0.0000

> <Gold.PLP.part.buried>
-8.4542

> <Gold.PLP.part.nonpolar>
-34.9715

> <Gold.PLP.part.repulsive>
0.3067

> <Gold.PLP.ligand.clash>
0.0000

> <Gold.PLP.ligand.torsion>
0.6361

> <Gold.PLP.Chemscore.Hbond>
1.8564

> <Gold.PLP.Chemscore.CHOScore>
0.0000

> <Gold.PLP.Chemscore.Metal>
0.0000

> <Gold.Chemscore.Hbonds>
donor molecule, donor type, donor heavy atom, donor atom, acceptor molecule, acceptor atom, score
      L1  H     8    30       P1  8028  0.86
      L1  H    11    31       P1  8028  1.00

> <Gold.PLP.Chemscore.Internal.Correction>
0.0267

> <Gold.Rescore>
     Score         DG    S(hbond)    S(metal)    S(lipo)     H(rot)  DE(clash)    DE(int)     intcor
     20.76     -21.64       1.76        0.00     120.77       1.50       0.36       0.52       ----

> <Gold.Chemscore.Fitness>
20.7627

> <Gold.Chemscore.DG>
-21.6434

> <Gold.Chemscore.ZeroCoef>
-5.4800

> <Gold.Chemscore.Hbond>
1.7605

> <Gold.Chemscore.Metal>
0.0000

> <Gold.Chemscore.Lipo>
120.7688

> <Gold.Chemscore.Internal_Hbond>
0.0000

> <Gold.Chemscore.DEClash>
0.3645

> <Gold.Chemscore.DEInternal>
0.5161

> <Gold.Chemscore.Rot>
1.5027

> <Gold.Chemscore.Internal.Correction>
   9.000000E+99

> <Gold.Chemscore.Hbonds>
donor molecule, donor type, donor heavy atom, donor atom, acceptor molecule, acceptor atom, score
      L1  H     8    30       P1  8028  0.78
      L1  H    11    31       P1  8028  1.00

> <Gold.Chemscore.Hbond.Weighted>
-5.8802

> <Gold.Chemscore.Metal.Weighted>
-0.0000

> <Gold.Chemscore.Lipo.Weighted>
-14.1300

> <Gold.Chemscore.Internal_Hbond.Weighted>
0.0000

> <Gold.Chemscore.DEClash.Weighted>
0.3645

> <Gold.Chemscore.DEInternal.Weighted>
0.5161

> <Gold.Chemscore.Rot.Weighted>
3.8468

> <Gold.Chemscore.Internal.Correction.Weighted>
   9.000000E+99

> <Gold.Protein.RotatedTorsions>
[ 6907 6896 6895 6894 ] final  -89.02 input  -60.11 | X-H torsion
[ 7974 7965 7964 7962 ] final   -7.83 input  175.53 | X-H torsion
[ 8008 7997 7996 7995 ] final   47.35 input   59.86 | X-H torsion
[ 10167 10162 10161 10158 ] final  139.35 input  -65.29 | X-H torsion
[ 10718 10713 10712 10709 ] final  -62.98 input   66.30 | X-H torsion
[ 10763 10752 10751 10750 ] final  -20.75 input  -60.55 | X-H torsion
[ 11005 11000 10999 10996 ] final  125.52 input  -57.11 | X-H torsion

> <Gold.Protein.ActiveResidues>
 VAL166  LYS551  ARG553  GLY616  TRP617  ASP618  TYR619  PRO620  LYS621  CYS622 
 ASP623  PHE694  ASN695  SER759  ASP760  ASP761  ALA762  ILE779  LEU786  VAL792 
 PHE793  MET794  SER795  GLU796  ALA797  LYS798  CYS799  TRP800  GLU811  SER814 

> <Gold.Protein.RotatedAtoms>
  150.6871  134.2651  159.4564 H   0  0  0  0  0  0  0  0  0  0  0  0  # atno 6907 bound_to 6896
  152.0578  134.9611  160.0584 H   0  0  0  0  0  0  0  0  0  0  0  0  # atno 6908 bound_to 6896
  152.1050  133.4235  159.4641 H   0  0  0  0  0  0  0  0  0  0  0  0  # atno 6909 bound_to 6896
  146.2297  140.2377  142.8342 H   0  0  0  0  0  0  0  0  0  0  0  0  # atno 7974 bound_to 7965
  155.3676  140.3422  155.4242 H   0  0  0  0  0  0  0  0  0  0  0  0  # atno 8008 bound_to 7997
  156.1680  140.1622  156.8532 H   0  0  0  0  0  0  0  0  0  0  0  0  # atno 8009 bound_to 7997
  154.5204  140.0768  156.8143 H   0  0  0  0  0  0  0  0  0  0  0  0  # atno 8010 bound_to 7997
  139.5081  144.6299  151.5843 H   0  0  0  0  0  0  0  0  0  0  0  0  # atno 10167 bound_to 10162
  156.0820  130.4215  150.1212 H   0  0  0  0  0  0  0  0  0  0  0  0  # atno 10718 bound_to 10713
  153.6253  135.6991  153.5295 H   0  0  0  0  0  0  0  0  0  0  0  0  # atno 10763 bound_to 10752
  153.2903  135.4159  155.1160 H   0  0  0  0  0  0  0  0  0  0  0  0  # atno 10764 bound_to 10752
  154.8534  135.3624  154.5795 H   0  0  0  0  0  0  0  0  0  0  0  0  # atno 10765 bound_to 10752
  139.9410  134.9635  156.8571 H   0  0  0  0  0  0  0  0  0  0  0  0  # atno 11005 bound_to 11000
  144.9509  140.8177  143.5573 LP  0  0  0  0  0  0  0  0  0  0  0  0  # atno 17320 bound_to 7965
  145.2338  139.2103  143.5029 LP  0  0  0  0  0  0  0  0  0  0  0  0  # atno 17321 bound_to 7965
  140.6029  143.9577  150.6398 LP  0  0  0  0  0  0  0  0  0  0  0  0  # atno 17342 bound_to 10162
  140.2795  143.3399  152.1164 LP  0  0  0  0  0  0  0  0  0  0  0  0  # atno 17343 bound_to 10162
  156.9241  130.9692  151.3544 LP  0  0  0  0  0  0  0  0  0  0  0  0  # atno 17370 bound_to 10713
  157.5940  130.8464  149.8702 LP  0  0  0  0  0  0  0  0  0  0  0  0  # atno 17371 bound_to 10713
  140.5951  134.0225  155.7515 LP  0  0  0  0  0  0  0  0  0  0  0  0  # atno 17394 bound_to 11000
  141.1045  133.9716  157.3021 LP  0  0  0  0  0  0  0  0  0  0  0  0  # atno 17395 bound_to 11000

$$$$
