AV-unprocessed.smi:1699|AV-procd|sdf|6818|dock10
  -GOLD-   22720 7593D 1   1.00000     0.00000
 Structure written by MMmdl.
 37 38  0  0  0  0  0  0  0  0  1 V2000
  151.2625  143.7355  159.0382 C   0  0  0  0  0  0  0  0  0  0  0  0
  152.1537  142.6081  159.5343 C   0  0  0  0  0  0  0  0  0  0  0  0
  153.0465  142.8520  160.5994 C   0  0  0  0  0  0  0  0  0  0  0  0
  153.8700  141.8093  161.0569 C   0  0  0  0  0  0  0  0  0  0  0  0
  153.7639  140.5577  160.4266 C   0  0  0  0  0  0  0  0  0  0  0  0
  152.9135  140.3159  159.4084 N   0  0  0  0  0  0  0  0  0  0  0  0
  152.1120  141.3118  158.9539 C   0  0  0  0  0  0  0  0  0  0  0  0
  151.1927  141.1294  157.8822 N   0  0  0  0  0  0  0  0  0  0  0  0
  151.4026  140.5459  156.6890 C   0  0  0  0  0  0  0  0  0  0  0  0
  152.4629  140.0407  156.3194 O   0  0  0  0  0  0  0  0  0  0  0  0
  150.2957  140.5851  155.9319 N   0  0  0  0  0  0  0  0  0  0  0  0
  150.1619  140.0443  154.5798 C   0  0  1  0  0  0  0  0  0  0  0  0
  150.4626  138.5388  154.6201 C   0  0  0  0  0  0  0  0  0  0  0  0
  148.7547  140.3328  154.0157 C   0  0  1  0  0  0  0  0  0  0  0  0
  147.5930  139.8760  154.9017 C   0  0  0  0  0  0  0  0  0  0  0  0
  146.4764  140.7793  154.4333 C   0  0  0  0  0  0  0  0  0  0  0  0
  147.2172  142.0929  154.2055 C   0  0  0  0  0  0  0  0  0  0  0  0
  148.5544  141.7369  153.8625 O   0  0  0  0  0  0  0  0  0  0  0  0
  151.4334  144.6537  159.6010 H   0  0  0  0  0  0  0  0  0  0  0  0
  150.2114  143.4665  159.1466 H   0  0  0  0  0  0  0  0  0  0  0  0
  151.4607  143.9456  157.9868 H   0  0  0  0  0  0  0  0  0  0  0  0
  153.1020  143.8261  161.0626 H   0  0  0  0  0  0  0  0  0  0  0  0
  154.5640  141.9643  161.8697 H   0  0  0  0  0  0  0  0  0  0  0  0
  154.3768  139.7287  160.7478 H   0  0  0  0  0  0  0  0  0  0  0  0
  150.2654  141.4929  158.0434 H   0  0  0  0  0  0  0  0  0  0  0  0
  149.4743  141.0238  156.3213 H   0  0  0  0  0  0  0  0  0  0  0  0
  150.8991  140.5076  153.9214 H   0  0  0  0  0  0  0  0  0  0  0  0
  150.4100  138.0997  153.6235 H   0  0  0  0  0  0  0  0  0  0  0  0
  149.7525  138.0078  155.2549 H   0  0  0  0  0  0  0  0  0  0  0  0
  151.4639  138.3487  155.0078 H   0  0  0  0  0  0  0  0  0  0  0  0
  148.6456  139.8760  153.0305 H   0  0  0  0  0  0  0  0  0  0  0  0
  147.3608  138.8166  154.7892 H   0  0  0  0  0  0  0  0  0  0  0  0
  147.8103  140.0697  155.9532 H   0  0  0  0  0  0  0  0  0  0  0  0
  146.0652  140.4096  153.4931 H   0  0  0  0  0  0  0  0  0  0  0  0
  145.6625  140.8674  155.1536 H   0  0  0  0  0  0  0  0  0  0  0  0
  146.7543  142.7003  153.4276 H   0  0  0  0  0  0  0  0  0  0  0  0
  147.2420  142.6805  155.1239 H   0  0  0  0  0  0  0  0  0  0  0  0
  1  2  1  0  0  0  0
  1 19  1  0  0  0  0
  1 20  1  0  0  0  0
  1 21  1  0  0  0  0
  2  7  1  0  0  0  0
  2  3  2  0  0  0  0
  3  4  1  0  0  0  0
  3 22  1  0  0  0  0
  4  5  2  0  0  0  0
  4 23  1  0  0  0  0
  5  6  1  0  0  0  0
  5 24  1  0  0  0  0
  6  7  2  0  0  0  0
  7  8  1  0  0  0  0
  8  9  1  0  0  0  0
  8 25  1  0  0  0  0
  9 10  2  0  0  0  0
  9 11  1  0  0  0  0
 11 12  1  0  0  0  0
 11 26  1  0  0  0  0
 12 13  1  0  0  0  0
 12 14  1  0  0  0  0
 12 27  1  0  0  0  0
 13 28  1  0  0  0  0
 13 29  1  0  0  0  0
 13 30  1  0  0  0  0
 14 18  1  0  0  0  0
 14 15  1  0  0  0  0
 14 31  1  0  0  0  0
 15 16  1  0  0  0  0
 15 32  1  0  0  0  0
 15 33  1  0  0  0  0
 16 17  1  0  0  0  0
 16 34  1  0  0  0  0
 16 35  1  0  0  0  0
 17 18  1  0  0  0  0
 17 36  1  0  0  0  0
 17 37  1  0  0  0  0
M  END
> <s_m_source_file>
AV-unprocessed.smi

> <i_m_source_file_index>
1699

> <i_lp_mmshare_version>
43012

> <i_f3d_flags>
0

> <s_epik_input>
W0NIM11jMVtjSF1bY0hdW2NIXW5jMVtOSF1DKD1PKVtOSF1bQ0BIXShbQ0gzXSlbQ0BASF0yW0NIMl1bQ0gyXVtDSDJdTzI=

> <s_epik_cmdline>
J2VwaWtfcHl0aG9uJywgJy1waCcsICc3LjAnLCAnLXRuJywgJzgnLCAnLW1hJywgJzIwMCcsICctbWV0YWxfYmluZGluZycsICctaW1hZScsICc8aW5maWxlLm1hZT4nLCAnLW9tYWUnLCAnPG91dGZpbGUubWFlPic=

> <r_lp_tautomer_probability>
1

> <r_epik_Ionization_Penalty>
5.52788e-05

> <r_epik_Ionization_Penalty_Charging>
0

> <r_epik_Ionization_Penalty_Neutral>
5.52788e-05

> <r_epik_State_Penalty>
-0

> <r_epik_Charging_Adjusted_Penalty>
0

> <i_epik_Tot_Q>
0

> <i_epik_Tot_abs_Q>
0

> <r_epik_Metal_State_Penalty>
-0

> <b_epik_Metal_Only>
0

> <s_lp_Force_Field>
OPLS_2005

> <r_lp_Energy>
20.3495

> <b_lp_Chiralities_Consistent>
1

> <s_lp_Variant>
AV-unprocessed.smi:1699-4

> <Gold.Version>
5.8.1

> <Gold.Id.Protein>
6NUR|6NUR_protein|mol2

> <Gold.PLP.Fitness>
39.8363

> <Gold.PLP.PLP>
-35.8896

> <Gold.PLP.part.hbond>
-2.0000

> <Gold.PLP.part.metal>
0.0000

> <Gold.PLP.part.buried>
-2.5890

> <Gold.PLP.part.nonpolar>
-31.2259

> <Gold.PLP.part.repulsive>
0.3327

> <Gold.PLP.ligand.clash>
0.0000

> <Gold.PLP.ligand.torsion>
0.4433

> <Gold.PLP.Chemscore.Hbond>
1.6080

> <Gold.PLP.Chemscore.CHOScore>
0.0000

> <Gold.PLP.Chemscore.Metal>
0.0000

> <Gold.Chemscore.Hbonds>
donor molecule, donor type, donor heavy atom, donor atom, acceptor molecule, acceptor atom, score
      P1  H  7997  8009       L1    10  1.00
      P1  H  8011  8017       L1    18  0.49

> <Gold.PLP.Chemscore.Internal.Correction>
0.0092

> <Gold.Rescore>
     Score         DG    S(hbond)    S(metal)    S(lipo)     H(rot)  DE(clash)    DE(int)     intcor
     17.74     -18.52       1.62        0.00      91.83       1.22       0.11       0.67       ----

> <Gold.Chemscore.Fitness>
17.7392

> <Gold.Chemscore.DG>
-18.5213

> <Gold.Chemscore.ZeroCoef>
-5.4800

> <Gold.Chemscore.Hbond>
1.6230

> <Gold.Chemscore.Metal>
0.0000

> <Gold.Chemscore.Lipo>
91.8252

> <Gold.Chemscore.Internal_Hbond>
0.0000

> <Gold.Chemscore.DEClash>
0.1099

> <Gold.Chemscore.DEInternal>
0.6721

> <Gold.Chemscore.Rot>
1.2200

> <Gold.Chemscore.Internal.Correction>
   9.000000E+99

> <Gold.Chemscore.Hbonds>
donor molecule, donor type, donor heavy atom, donor atom, acceptor molecule, acceptor atom, score
      P1  H  7997  8009       L1    10  0.97
      P1  H  8011  8017       L1    18  0.34

> <Gold.Chemscore.Hbond.Weighted>
-5.4209

> <Gold.Chemscore.Metal.Weighted>
-0.0000

> <Gold.Chemscore.Lipo.Weighted>
-10.7435

> <Gold.Chemscore.Internal_Hbond.Weighted>
0.0000

> <Gold.Chemscore.DEClash.Weighted>
0.1099

> <Gold.Chemscore.DEInternal.Weighted>
0.6721

> <Gold.Chemscore.Rot.Weighted>
3.1232

> <Gold.Chemscore.Internal.Correction.Weighted>
   9.000000E+99

> <Gold.Protein.RotatedTorsions>
[ 6907 6896 6895 6894 ] final   75.90 input  -60.11 | X-H torsion
[ 7974 7965 7964 7962 ] final  -24.43 input  175.53 | X-H torsion
[ 8008 7997 7996 7995 ] final -175.58 input   59.86 | X-H torsion
[ 10167 10162 10161 10158 ] final   90.68 input  -65.29 | X-H torsion
[ 10718 10713 10712 10709 ] final  -94.98 input   66.30 | X-H torsion
[ 10763 10752 10751 10750 ] final    2.27 input  -60.55 | X-H torsion
[ 11005 11000 10999 10996 ] final  114.68 input  -57.11 | X-H torsion

> <Gold.Protein.ActiveResidues>
 VAL166  LYS551  ARG553  GLY616  TRP617  ASP618  TYR619  PRO620  LYS621  CYS622 
 ASP623  PHE694  ASN695  SER759  ASP760  ASP761  ALA762  ILE779  LEU786  VAL792 
 PHE793  MET794  SER795  GLU796  ALA797  LYS798  CYS799  TRP800  GLU811  SER814 

> <Gold.Protein.RotatedAtoms>
  152.5048  134.4051  159.9429 H   0  0  0  0  0  0  0  0  0  0  0  0  # atno 6907 bound_to 6896
  151.4016  133.3749  159.2740 H   0  0  0  0  0  0  0  0  0  0  0  0  # atno 6908 bound_to 6896
  150.9357  134.8791  159.7639 H   0  0  0  0  0  0  0  0  0  0  0  0  # atno 6909 bound_to 6896
  146.1555  140.4751  142.8593 H   0  0  0  0  0  0  0  0  0  0  0  0  # atno 7974 bound_to 7965
  155.9844  140.1188  157.0697 H   0  0  0  0  0  0  0  0  0  0  0  0  # atno 8008 bound_to 7997
  154.4192  140.1138  156.5547 H   0  0  0  0  0  0  0  0  0  0  0  0  # atno 8009 bound_to 7997
  155.6428  140.3473  155.4723 H   0  0  0  0  0  0  0  0  0  0  0  0  # atno 8010 bound_to 7997
  139.8449  144.6623  150.9239 H   0  0  0  0  0  0  0  0  0  0  0  0  # atno 10167 bound_to 10162
  156.0036  130.5090  150.6008 H   0  0  0  0  0  0  0  0  0  0  0  0  # atno 10718 bound_to 10713
  153.2977  135.6953  153.7233 H   0  0  0  0  0  0  0  0  0  0  0  0  # atno 10763 bound_to 10752
  153.6159  135.3436  155.2995 H   0  0  0  0  0  0  0  0  0  0  0  0  # atno 10764 bound_to 10752
  154.8542  135.4374  154.2079 H   0  0  0  0  0  0  0  0  0  0  0  0  # atno 10765 bound_to 10752
  139.8987  134.9572  156.6929 H   0  0  0  0  0  0  0  0  0  0  0  0  # atno 11005 bound_to 11000
  144.7958  140.6119  143.6511 LP  0  0  0  0  0  0  0  0  0  0  0  0  # atno 17320 bound_to 7965
  145.4719  139.1502  143.3809 LP  0  0  0  0  0  0  0  0  0  0  0  0  # atno 17321 bound_to 7965
  140.7794  143.3879  151.1361 LP  0  0  0  0  0  0  0  0  0  0  0  0  # atno 17342 bound_to 10162
  139.7522  143.8761  152.3080 LP  0  0  0  0  0  0  0  0  0  0  0  0  # atno 17343 bound_to 10162
  157.3857  131.0788  151.1438 LP  0  0  0  0  0  0  0  0  0  0  0  0  # atno 17370 bound_to 10713
  157.2146  130.6453  149.5787 LP  0  0  0  0  0  0  0  0  0  0  0  0  # atno 17371 bound_to 10713
  140.7211  133.9140  155.8147 LP  0  0  0  0  0  0  0  0  0  0  0  0  # atno 17394 bound_to 11000
  141.0227  134.0867  157.4103 LP  0  0  0  0  0  0  0  0  0  0  0  0  # atno 17395 bound_to 11000

$$$$
