AV-unprocessed.smi:2509|AV-procd|sdf|9867|dock7
  -GOLD-   2272013493D 1   1.00000     0.00000
 Structure written by MMmdl.
 45 46  0  0  0  0  0  0  0  0  1 V2000
  151.3421  144.1507  160.5073 C   0  0  0  0  0  0  0  0  0  0  0  0
  151.9575  143.6008  159.1989 C   0  0  0  0  0  0  0  0  0  0  0  0
  152.4288  144.8362  158.3964 C   0  0  0  0  0  0  0  0  0  0  0  0
  153.1679  142.7101  159.5344 C   0  0  0  0  0  0  0  0  0  0  0  0
  150.9260  142.7846  158.4003 C   0  0  0  0  0  0  0  0  0  0  0  0
  151.2830  142.3801  157.1746 N   0  0  0  0  0  0  0  0  0  0  0  0
  150.3444  141.7755  156.4167 C   0  0  0  0  0  0  0  0  0  0  0  0
  149.0199  141.5980  156.8643 C   0  0  0  0  0  0  0  0  0  0  0  0
  148.0917  140.9521  156.0017 N   0  0  0  0  0  0  0  0  0  0  0  0
  148.2452  140.5674  154.7232 C   0  0  0  0  0  0  0  0  0  0  0  0
  149.2647  140.7094  154.0496 O   0  0  0  0  0  0  0  0  0  0  0  0
  147.1261  139.9983  154.2536 N   0  0  0  0  0  0  0  0  0  0  0  0
  146.9507  139.4871  152.8979 C   0  0  0  0  0  0  0  0  0  0  0  0
  146.4591  138.0240  152.8877 C   0  0  1  0  0  0  0  0  0  0  0  0
  144.9452  137.8637  153.0716 C   0  0  0  0  0  0  0  0  0  0  0  0
  144.5943  136.4901  152.4778 C   0  0  0  0  0  0  0  0  0  0  0  0
  145.8538  135.9907  151.7517 C   0  0  0  0  0  0  0  0  0  0  0  0
  146.7733  137.2085  151.6234 C   0  0  1  0  0  0  0  0  0  0  0  0
  146.4320  137.9199  150.4476 O   0  0  0  0  0  0  0  0  0  0  0  0
  148.7392  142.0997  158.1586 C   0  0  0  0  0  0  0  0  0  0  0  0
  149.6886  142.7021  158.9062 N   0  0  0  0  0  0  0  0  0  0  0  0
  152.0575  144.7661  161.0541 H   0  0  0  0  0  0  0  0  0  0  0  0
  151.0350  143.3516  161.1827 H   0  0  0  0  0  0  0  0  0  0  0  0
  150.4659  144.7681  160.3054 H   0  0  0  0  0  0  0  0  0  0  0  0
  151.5887  145.4750  158.1208 H   0  0  0  0  0  0  0  0  0  0  0  0
  152.9455  144.5551  157.4781 H   0  0  0  0  0  0  0  0  0  0  0  0
  153.1257  145.4434  158.9751 H   0  0  0  0  0  0  0  0  0  0  0  0
  153.9184  143.2566  160.1061 H   0  0  0  0  0  0  0  0  0  0  0  0
  153.6495  142.3398  158.6286 H   0  0  0  0  0  0  0  0  0  0  0  0
  152.8700  141.8435  160.1256 H   0  0  0  0  0  0  0  0  0  0  0  0
  150.6551  141.4359  155.4395 H   0  0  0  0  0  0  0  0  0  0  0  0
  147.1896  140.7596  156.4120 H   0  0  0  0  0  0  0  0  0  0  0  0
  146.3324  139.9227  154.8728 H   0  0  0  0  0  0  0  0  0  0  0  0
  146.2514  140.1216  152.3513 H   0  0  0  0  0  0  0  0  0  0  0  0
  147.9051  139.5722  152.3778 H   0  0  0  0  0  0  0  0  0  0  0  0
  146.9326  137.5064  153.7240 H   0  0  0  0  0  0  0  0  0  0  0  0
  144.6518  137.9477  154.1186 H   0  0  0  0  0  0  0  0  0  0  0  0
  144.4150  138.6427  152.5220 H   0  0  0  0  0  0  0  0  0  0  0  0
  144.2939  135.7858  153.2545 H   0  0  0  0  0  0  0  0  0  0  0  0
  143.7585  136.5839  151.7837 H   0  0  0  0  0  0  0  0  0  0  0  0
  146.3451  135.2396  152.3717 H   0  0  0  0  0  0  0  0  0  0  0  0
  145.6308  135.5188  150.7938 H   0  0  0  0  0  0  0  0  0  0  0  0
  147.8239  136.9208  151.5707 H   0  0  0  0  0  0  0  0  0  0  0  0
  145.4956  138.0472  150.4362 H   0  0  0  0  0  0  0  0  0  0  0  0
  147.7666  142.0399  158.6190 H   0  0  0  0  0  0  0  0  0  0  0  0
  1  2  1  0  0  0  0
  1 22  1  0  0  0  0
  1 23  1  0  0  0  0
  1 24  1  0  0  0  0
  2  3  1  0  0  0  0
  2  4  1  0  0  0  0
  2  5  1  0  0  0  0
  3 25  1  0  0  0  0
  3 26  1  0  0  0  0
  3 27  1  0  0  0  0
  4 28  1  0  0  0  0
  4 29  1  0  0  0  0
  4 30  1  0  0  0  0
  5 21  1  0  0  0  0
  5  6  2  0  0  0  0
  6  7  1  0  0  0  0
  7  8  2  0  0  0  0
  7 31  1  0  0  0  0
  8  9  1  0  0  0  0
  8 20  1  0  0  0  0
  9 10  1  0  0  0  0
  9 32  1  0  0  0  0
 10 11  2  0  0  0  0
 10 12  1  0  0  0  0
 12 13  1  0  0  0  0
 12 33  1  0  0  0  0
 13 14  1  0  0  0  0
 13 34  1  0  0  0  0
 13 35  1  0  0  0  0
 14 18  1  0  0  0  0
 14 15  1  0  0  0  0
 14 36  1  0  0  0  0
 15 16  1  0  0  0  0
 15 37  1  0  0  0  0
 15 38  1  0  0  0  0
 16 17  1  0  0  0  0
 16 39  1  0  0  0  0
 16 40  1  0  0  0  0
 17 18  1  0  0  0  0
 17 41  1  0  0  0  0
 17 42  1  0  0  0  0
 18 19  1  0  0  0  0
 18 43  1  0  0  0  0
 19 44  1  0  0  0  0
 20 21  2  0  0  0  0
 20 45  1  0  0  0  0
M  END
> <s_m_source_file>
AV-unprocessed.smi

> <i_m_source_file_index>
2509

> <i_lp_mmshare_version>
43012

> <i_f3d_flags>
0

> <s_epik_input>
W0NIM11DKFtDSDNdKShbQ0gzXSljMW5bY0hdYyhbY0hdbjEpW05IXUMoPU8pW05IXVtDSDJdW0NAQEhdMltDSDJdW0NIMl1bQ0gyXVtDQEhdMltPSF0=

> <s_epik_cmdline>
J2VwaWtfcHl0aG9uJywgJy1waCcsICc3LjAnLCAnLXRuJywgJzgnLCAnLW1hJywgJzIwMCcsICctbWV0YWxfYmluZGluZycsICctaW1hZScsICc8aW5maWxlLm1hZT4nLCAnLW9tYWUnLCAnPG91dGZpbGUubWFlPic=

> <r_lp_tautomer_probability>
1

> <r_epik_Ionization_Penalty>
2.77586e-05

> <r_epik_Ionization_Penalty_Charging>
0

> <r_epik_Ionization_Penalty_Neutral>
2.77586e-05

> <r_epik_State_Penalty>
-0

> <r_epik_Charging_Adjusted_Penalty>
0

> <i_epik_Tot_Q>
0

> <i_epik_Tot_abs_Q>
0

> <r_epik_Metal_State_Penalty>
-0

> <b_epik_Metal_Only>
0

> <s_lp_Force_Field>
OPLS_2005

> <r_lp_Energy>
25.7942

> <b_lp_Chiralities_Consistent>
1

> <s_lp_Variant>
AV-unprocessed.smi:2509-2

> <Gold.Version>
5.8.1

> <Gold.Id.Protein>
6NUR|6NUR_protein|mol2

> <Gold.PLP.Fitness>
39.6210

> <Gold.PLP.PLP>
-34.1997

> <Gold.PLP.part.hbond>
-3.4253

> <Gold.PLP.part.metal>
0.0000

> <Gold.PLP.part.buried>
1.8309

> <Gold.PLP.part.nonpolar>
-33.6562

> <Gold.PLP.part.repulsive>
1.1117

> <Gold.PLP.ligand.clash>
0.0000

> <Gold.PLP.ligand.torsion>
0.3504

> <Gold.PLP.Chemscore.Hbond>
1.9934

> <Gold.PLP.Chemscore.CHOScore>
0.0000

> <Gold.PLP.Chemscore.Metal>
0.0000

> <Gold.Chemscore.Hbonds>
donor molecule, donor type, donor heavy atom, donor atom, acceptor molecule, acceptor atom, score
      L1  H    19    44       P1 10171  1.00
      P1  H  7954  7966       L1    19  0.49
      P1  H  7989  7998       L1    11  0.03

> <Gold.PLP.Chemscore.Internal.Correction>
0.1418

> <Gold.Rescore>
     Score         DG    S(hbond)    S(metal)    S(lipo)     H(rot)  DE(clash)    DE(int)     intcor
     12.96     -18.22       1.94        0.00      95.31       1.91       3.28       1.98       ----

> <Gold.Chemscore.Fitness>
12.9591

> <Gold.Chemscore.DG>
-18.2165

> <Gold.Chemscore.ZeroCoef>
-5.4800

> <Gold.Chemscore.Hbond>
1.9396

> <Gold.Chemscore.Metal>
0.0000

> <Gold.Chemscore.Lipo>
95.3141

> <Gold.Chemscore.Internal_Hbond>
0.0000

> <Gold.Chemscore.DEClash>
3.2811

> <Gold.Chemscore.DEInternal>
1.9763

> <Gold.Chemscore.Rot>
1.9116

> <Gold.Chemscore.Internal.Correction>
   9.000000E+99

> <Gold.Chemscore.Hbonds>
donor molecule, donor type, donor heavy atom, donor atom, acceptor molecule, acceptor atom, score
      L1  H    19    44       P1 10171  0.99
      P1  H  7954  7966       L1    19  0.03
      P1  H  7989  7998       L1    11  0.05
      P1  H  8011  8017       L1    11  0.02

> <Gold.Chemscore.Hbond.Weighted>
-6.4783

> <Gold.Chemscore.Metal.Weighted>
-0.0000

> <Gold.Chemscore.Lipo.Weighted>
-11.1517

> <Gold.Chemscore.Internal_Hbond.Weighted>
0.0000

> <Gold.Chemscore.DEClash.Weighted>
3.2811

> <Gold.Chemscore.DEInternal.Weighted>
1.9763

> <Gold.Chemscore.Rot.Weighted>
4.8936

> <Gold.Chemscore.Internal.Correction.Weighted>
   9.000000E+99

> <Gold.Protein.RotatedTorsions>
[ 6907 6896 6895 6894 ] final -102.76 input  -60.11 | X-H torsion
[ 7974 7965 7964 7962 ] final -124.33 input  175.53 | X-H torsion
[ 8008 7997 7996 7995 ] final   38.57 input   59.86 | X-H torsion
[ 10167 10162 10161 10158 ] final -163.52 input  -65.29 | X-H torsion
[ 10718 10713 10712 10709 ] final   46.25 input   66.30 | X-H torsion
[ 10763 10752 10751 10750 ] final   -5.82 input  -60.55 | X-H torsion
[ 11005 11000 10999 10996 ] final   54.80 input  -57.11 | X-H torsion

> <Gold.Protein.ActiveResidues>
 VAL166  LYS551  ARG553  GLY616  TRP617  ASP618  TYR619  PRO620  LYS621  CYS622 
 ASP623  PHE694  ASN695  SER759  ASP760  ASP761  ALA762  ILE779  LEU786  VAL792 
 PHE793  MET794  SER795  GLU796  ALA797  LYS798  CYS799  TRP800  GLU811  SER814 

> <Gold.Protein.RotatedAtoms>
  150.7210  134.0533  159.3805 H   0  0  0  0  0  0  0  0  0  0  0  0  # atno 6907 bound_to 6896
  151.8510  135.0555  160.0468 H   0  0  0  0  0  0  0  0  0  0  0  0  # atno 6908 bound_to 6896
  152.2790  133.5417  159.5522 H   0  0  0  0  0  0  0  0  0  0  0  0  # atno 6909 bound_to 6896
  145.0092  140.7891  143.4449 H   0  0  0  0  0  0  0  0  0  0  0  0  # atno 7974 bound_to 7965
  155.2223  140.3332  155.4314 H   0  0  0  0  0  0  0  0  0  0  0  0  # atno 8008 bound_to 7997
  156.2328  140.1858  156.7245 H   0  0  0  0  0  0  0  0  0  0  0  0  # atno 8009 bound_to 7997
  154.6007  140.0623  156.9350 H   0  0  0  0  0  0  0  0  0  0  0  0  # atno 8010 bound_to 7997
  139.6315  144.0431  152.2019 H   0  0  0  0  0  0  0  0  0  0  0  0  # atno 10167 bound_to 10162
  157.4462  130.8110  149.7742 H   0  0  0  0  0  0  0  0  0  0  0  0  # atno 10718 bound_to 10713
  153.4038  135.7005  153.6407 H   0  0  0  0  0  0  0  0  0  0  0  0  # atno 10763 bound_to 10752
  153.4929  135.3669  155.2501 H   0  0  0  0  0  0  0  0  0  0  0  0  # atno 10764 bound_to 10752
  154.8712  135.4093  154.3378 H   0  0  0  0  0  0  0  0  0  0  0  0  # atno 10765 bound_to 10752
  140.0657  134.5540  155.9102 H   0  0  0  0  0  0  0  0  0  0  0  0  # atno 11005 bound_to 11000
  145.2046  139.2235  143.5175 LP  0  0  0  0  0  0  0  0  0  0  0  0  # atno 17320 bound_to 7965
  146.3467  140.1871  142.8589 LP  0  0  0  0  0  0  0  0  0  0  0  0  # atno 17321 bound_to 7965
  140.0098  144.6232  150.7657 LP  0  0  0  0  0  0  0  0  0  0  0  0  # atno 17342 bound_to 10162
  140.7441  143.2856  151.3472 LP  0  0  0  0  0  0  0  0  0  0  0  0  # atno 17343 bound_to 10162
  155.9968  130.3903  150.2764 LP  0  0  0  0  0  0  0  0  0  0  0  0  # atno 17370 bound_to 10713
  157.0933  131.0175  151.3113 LP  0  0  0  0  0  0  0  0  0  0  0  0  # atno 17371 bound_to 10713
  141.1992  133.6605  156.5830 LP  0  0  0  0  0  0  0  0  0  0  0  0  # atno 17394 bound_to 11000
  140.3702  134.7612  157.4593 LP  0  0  0  0  0  0  0  0  0  0  0  0  # atno 17395 bound_to 11000

$$$$
