AV-unprocessed.smi:21|AV-procd|sdf|137|dock5
  -GOLD-   2262015333D 1   1.00000     0.00000
 Structure written by MMmdl.
 62 65  0  0  0  0  0  0  0  0  2 V2000
  144.1440  132.3446  150.6856 C   0  0  0  0  0  0  0  0  0  0  0  0
  143.7307  133.4850  151.4206 O   0  0  0  0  0  0  0  0  0  0  0  0
  144.7013  134.5208  151.4566 C   0  0  1  0  0  0  0  0  0  0  0  0
  144.2203  135.7716  152.1847 C   0  0  0  0  0  0  0  0  0  0  0  0
  145.5200  136.4606  152.6254 C   0  0  1  0  0  0  0  0  0  0  0  0
  145.3474  137.3889  153.8531 C   0  0  0  0  0  0  0  0  0  0  0  0
  146.2762  138.5228  153.8330 N   0  0  0  0  0  0  0  0  0  0  0  0
  146.5725  139.1384  152.5452 C   0  0  0  0  0  0  0  0  0  0  0  0
  146.6409  139.1478  154.9908 C   0  0  0  0  0  0  0  0  0  0  0  0
  145.8333  139.0110  156.0765 N   0  0  0  0  0  0  0  0  0  0  0  0
  146.1328  139.6002  157.2360 C   0  0  0  0  0  0  0  0  0  0  0  0
  147.1829  140.3633  157.5324 N   0  0  0  0  0  0  0  0  0  0  0  0
  148.0092  140.5081  156.4592 C   0  0  0  0  0  0  0  0  0  0  0  0
  147.8151  139.9471  155.1616 C   0  0  0  0  0  0  0  0  0  0  0  0
  148.8590  140.3439  154.3316 N   0  0  0  0  0  0  0  0  0  0  0  0
  149.6229  141.0788  155.0906 C   0  0  0  0  0  0  0  0  0  0  0  0
  149.1978  141.2162  156.3914 N   0  0  0  0  0  0  0  0  0  0  0  0
  149.8624  141.9736  157.4434 C   0  0  0  0  0  0  0  0  0  0  0  0
  151.3974  141.7441  157.5293 C   0  0  2  0  0  0  0  0  0  0  0  0
  151.7563  140.3454  158.0855 C   0  0  0  0  0  0  0  0  0  0  0  0
  153.1369  140.0810  157.9450 O   0  0  0  0  0  0  0  0  0  0  0  0
  152.1150  142.8664  158.3240 C   0  0  2  0  0  0  0  0  0  0  0  0
  151.8257  142.8702  159.8164 C   0  0  0  0  0  0  0  0  0  0  0  0
  152.2662  144.2703  160.2272 C   0  0  0  0  0  0  0  0  0  0  0  0
  152.0026  145.0990  159.1009 O   0  0  0  0  0  0  0  0  0  0  0  0
  151.6803  144.2936  157.9719 C   0  0  0  0  0  0  0  0  0  0  0  0
  146.5255  135.3659  152.7710 N   0  3  1  0  0  0  0  0  0  0  0  0
  147.2173  135.2299  154.0747 C   0  0  0  0  0  0  0  0  0  0  0  0
  145.8977  134.1066  152.3099 C   0  0  0  0  0  0  0  0  0  0  0  0
  145.0434  134.7732  150.4511 H   0  0  0  0  0  0  0  0  0  0  0  0
  145.8781  137.0627  151.7890 H   0  0  0  0  0  0  0  0  0  0  0  0
  143.3694  131.5793  150.7367 H   0  0  0  0  0  0  0  0  0  0  0  0
  145.0614  131.9209  151.0955 H   0  0  0  0  0  0  0  0  0  0  0  0
  144.3070  132.5822  149.6341 H   0  0  0  0  0  0  0  0  0  0  0  0
  143.5948  136.4130  151.5628 H   0  0  0  0  0  0  0  0  0  0  0  0
  143.6360  135.4775  153.0577 H   0  0  0  0  0  0  0  0  0  0  0  0
  144.3120  137.7145  153.9473 H   0  0  0  0  0  0  0  0  0  0  0  0
  145.5561  136.8293  154.7650 H   0  0  0  0  0  0  0  0  0  0  0  0
  145.9569  140.0247  152.3900 H   0  0  0  0  0  0  0  0  0  0  0  0
  146.3718  138.4464  151.7272 H   0  0  0  0  0  0  0  0  0  0  0  0
  147.6238  139.4212  152.4825 H   0  0  0  0  0  0  0  0  0  0  0  0
  145.4315  139.4359  158.0411 H   0  0  0  0  0  0  0  0  0  0  0  0
  150.5284  141.5378  154.7207 H   0  0  0  0  0  0  0  0  0  0  0  0
  149.6600  143.0309  157.2686 H   0  0  0  0  0  0  0  0  0  0  0  0
  149.3808  141.7435  158.3935 H   0  0  0  0  0  0  0  0  0  0  0  0
  151.7789  141.7859  156.5079 H   0  0  0  0  0  0  0  0  0  0  0  0
  151.5289  140.2799  159.1489 H   0  0  0  0  0  0  0  0  0  0  0  0
  151.1805  139.5606  157.5945 H   0  0  0  0  0  0  0  0  0  0  0  0
  153.3351  139.2728  158.3935 H   0  0  0  0  0  0  0  0  0  0  0  0
  153.1927  142.7955  158.1712 H   0  0  0  0  0  0  0  0  0  0  0  0
  150.7564  142.7495  159.9969 H   0  0  0  0  0  0  0  0  0  0  0  0
  152.3494  142.0934  160.3719 H   0  0  0  0  0  0  0  0  0  0  0  0
  151.7473  144.6263  161.1173 H   0  0  0  0  0  0  0  0  0  0  0  0
  153.3380  144.2874  160.4286 H   0  0  0  0  0  0  0  0  0  0  0  0
  152.1693  144.6718  157.0741 H   0  0  0  0  0  0  0  0  0  0  0  0
  150.6017  144.3416  157.8154 H   0  0  0  0  0  0  0  0  0  0  0  0
  146.5137  135.0273  154.8831 H   0  0  0  0  0  0  0  0  0  0  0  0
  147.7837  136.1292  154.3161 H   0  0  0  0  0  0  0  0  0  0  0  0
  147.9275  134.4030  154.0351 H   0  0  0  0  0  0  0  0  0  0  0  0
  145.5450  133.5393  153.1734 H   0  0  0  0  0  0  0  0  0  0  0  0
  146.6039  133.4791  151.7655 H   0  0  0  0  0  0  0  0  0  0  0  0
  147.2460  135.5796  152.0960 H   0  0  0  0  0  0  0  0  0  0  0  0
  1  2  1  0  0  0  0
  1 32  1  0  0  0  0
  1 33  1  0  0  0  0
  1 34  1  0  0  0  0
  2  3  1  0  0  0  0
  3 30  1  0  0  0  0
  3 29  1  0  0  0  0
  3  4  1  0  0  0  0
  4  5  1  0  0  0  0
  4 35  1  0  0  0  0
  4 36  1  0  0  0  0
  5 31  1  0  0  0  0
  5  6  1  0  0  0  0
  5 27  1  0  0  0  0
  6  7  1  0  0  0  0
  6 37  1  0  0  0  0
  6 38  1  0  0  0  0
  7  8  1  0  0  0  0
  7  9  1  0  0  0  0
  8 39  1  0  0  0  0
  8 40  1  0  0  0  0
  8 41  1  0  0  0  0
  9 14  1  0  0  0  0
  9 10  2  0  0  0  0
 10 11  1  0  0  0  0
 11 12  2  0  0  0  0
 11 42  1  0  0  0  0
 12 13  1  0  0  0  0
 13 17  1  0  0  0  0
 13 14  2  0  0  0  0
 14 15  1  0  0  0  0
 15 16  2  0  0  0  0
 16 17  1  0  0  0  0
 16 43  1  0  0  0  0
 17 18  1  0  0  0  0
 18 19  1  0  0  0  0
 18 44  1  0  0  0  0
 18 45  1  0  0  0  0
 19 20  1  0  0  0  0
 19 22  1  0  0  0  0
 19 46  1  0  0  0  0
 20 21  1  0  0  0  0
 20 47  1  0  0  0  0
 20 48  1  0  0  0  0
 21 49  1  0  0  0  0
 22 26  1  0  0  0  0
 22 23  1  0  0  0  0
 22 50  1  0  0  0  0
 23 24  1  0  0  0  0
 23 51  1  0  0  0  0
 23 52  1  0  0  0  0
 24 25  1  0  0  0  0
 24 53  1  0  0  0  0
 24 54  1  0  0  0  0
 25 26  1  0  0  0  0
 26 55  1  0  0  0  0
 26 56  1  0  0  0  0
 27 28  1  0  0  0  0
 27 29  1  0  0  0  0
 27 62  1  0  0  0  0
 28 57  1  0  0  0  0
 28 58  1  0  0  0  0
 28 59  1  0  0  0  0
 29 60  1  0  0  0  0
 29 61  1  0  0  0  0
M  CHG  1  27   1
M  END
> <s_m_source_file>
AV-unprocessed.smi

> <i_m_source_file_index>
21

> <i_lp_mmshare_version>
43012

> <i_f3d_flags>
0

> <s_epik_input>
W0NIM11PW0NASF0xW0NIMl1bQ0BIXShOKFtDSDNdKVtDSDJdMSlbQ0gyXU4oW0NIM10pYyhuW2NIXW4yKWMoYzIzKW5bY0hdbjNbQ0gyXVtDQEhdKFtDSDJdW09IXSlbQ0BASF00W0NIMl1bQ0gyXU9bQ0gyXTQ=

> <s_epik_cmdline>
J2VwaWtfcHl0aG9uJywgJy1waCcsICc3LjAnLCAnLXRuJywgJzgnLCAnLW1hJywgJzIwMCcsICctbWV0YWxfYmluZGluZycsICctaW1hZScsICc8aW5maWxlLm1hZT4nLCAnLW9tYWUnLCAnPG91dGZpbGUubWFlPic=

> <r_lp_tautomer_probability>
1

> <r_epik_Ionization_Penalty>
0.0157465

> <r_epik_Ionization_Penalty_Charging>
0.015354

> <r_epik_Ionization_Penalty_Neutral>
0.000392529

> <r_epik_State_Penalty>
0.0120612

> <r_epik_Charging_Adjusted_Penalty>
0.0274152

> <i_epik_Tot_Q>
1

> <i_epik_Tot_abs_Q>
1

> <r_epik_Metal_State_Penalty>
0.0121253

> <b_epik_Metal_Only>
0

> <s_lp_Force_Field>
OPLS_2005

> <r_lp_Energy>
60.1072

> <b_lp_Chiralities_Consistent>
1

> <s_lp_Variant>
AV-unprocessed.smi:21-17

> <Gold.Version>
5.8.1

> <Gold.Id.Protein>
6NUR|6NUR_protein|mol2

> <Gold.PLP.Fitness>
49.5366

> <Gold.PLP.PLP>
-43.0733

> <Gold.PLP.part.hbond>
-2.0000

> <Gold.PLP.part.metal>
0.0000

> <Gold.PLP.part.buried>
-6.5783

> <Gold.PLP.part.nonpolar>
-35.2257

> <Gold.PLP.part.repulsive>
0.4320

> <Gold.PLP.ligand.clash>
0.0000

> <Gold.PLP.ligand.torsion>
1.4818

> <Gold.PLP.Chemscore.Hbond>
3.0000

> <Gold.PLP.Chemscore.CHOScore>
0.0000

> <Gold.PLP.Chemscore.Metal>
0.0000

> <Gold.Chemscore.Hbonds>
donor molecule, donor type, donor heavy atom, donor atom, acceptor molecule, acceptor atom, score
      L1  H    27    62       P1  7948  1.86
      P1  H  7997  8008       L1    21  0.80

> <Gold.PLP.Chemscore.Internal.Correction>
0.4268

> <Gold.Rescore>
     Score         DG    S(hbond)    S(metal)    S(lipo)     H(rot)  DE(clash)    DE(int)     intcor
     14.54     -16.20       1.88        0.00     105.27       3.08       0.16       1.50       ----

> <Gold.Chemscore.Fitness>
14.5448

> <Gold.Chemscore.DG>
-16.2024

> <Gold.Chemscore.ZeroCoef>
-5.4800

> <Gold.Chemscore.Hbond>
1.8802

> <Gold.Chemscore.Metal>
0.0000

> <Gold.Chemscore.Lipo>
105.2716

> <Gold.Chemscore.Internal_Hbond>
0.0000

> <Gold.Chemscore.DEClash>
0.1581

> <Gold.Chemscore.DEInternal>
1.4995

> <Gold.Chemscore.Rot>
3.0758

> <Gold.Chemscore.Internal.Correction>
   9.000000E+99

> <Gold.Chemscore.Hbonds>
donor molecule, donor type, donor heavy atom, donor atom, acceptor molecule, acceptor atom, score
      L1  H    27    62       P1  7948  0.91
      P1  H  7997  8008       L1    21  0.11

> <Gold.Chemscore.Hbond.Weighted>
-6.2798

> <Gold.Chemscore.Metal.Weighted>
-0.0000

> <Gold.Chemscore.Lipo.Weighted>
-12.3168

> <Gold.Chemscore.Internal_Hbond.Weighted>
0.0000

> <Gold.Chemscore.DEClash.Weighted>
0.1581

> <Gold.Chemscore.DEInternal.Weighted>
1.4995

> <Gold.Chemscore.Rot.Weighted>
7.8741

> <Gold.Chemscore.Internal.Correction.Weighted>
   9.000000E+99

> <Gold.Protein.RotatedTorsions>
[ 6907 6896 6895 6894 ] final -144.23 input  -60.11 | X-H torsion
[ 7974 7965 7964 7962 ] final  -25.88 input  175.53 | X-H torsion
[ 8008 7997 7996 7995 ] final  -79.96 input   59.86 | X-H torsion
[ 10167 10162 10161 10158 ] final   12.52 input  -65.29 | X-H torsion
[ 10718 10713 10712 10709 ] final  -77.46 input   66.30 | X-H torsion
[ 10763 10752 10751 10750 ] final  -31.47 input  -60.55 | X-H torsion
[ 11005 11000 10999 10996 ] final -138.67 input  -57.11 | X-H torsion

> <Gold.Protein.ActiveResidues>
 VAL166  LYS551  ARG553  GLY616  TRP617  ASP618  TYR619  PRO620  LYS621  CYS622 
 ASP623  PHE694  ASN695  SER759  ASP760  ASP761  ALA762  ILE779  LEU786  VAL792 
 PHE793  MET794  SER795  GLU796  ALA797  LYS798  CYS799  TRP800  GLU811  SER814 

> <Gold.Protein.RotatedAtoms>
  151.1112  133.5172  159.2605 H   0  0  0  0  0  0  0  0  0  0  0  0  # atno 6907 bound_to 6896
  151.1965  135.0424  159.8864 H   0  0  0  0  0  0  0  0  0  0  0  0  # atno 6908 bound_to 6896
  152.5450  134.0945  159.8345 H   0  0  0  0  0  0  0  0  0  0  0  0  # atno 6909 bound_to 6896
  146.1462  140.4946  142.8631 H   0  0  0  0  0  0  0  0  0  0  0  0  # atno 7974 bound_to 7965
  154.5836  140.0670  156.9139 H   0  0  0  0  0  0  0  0  0  0  0  0  # atno 8008 bound_to 7997
  155.2419  140.3345  155.4273 H   0  0  0  0  0  0  0  0  0  0  0  0  # atno 8009 bound_to 7997
  156.2207  140.1797  156.7469 H   0  0  0  0  0  0  0  0  0  0  0  0  # atno 8010 bound_to 7997
  140.6062  143.8502  150.7016 H   0  0  0  0  0  0  0  0  0  0  0  0  # atno 10167 bound_to 10162
  156.0144  130.4492  150.3348 H   0  0  0  0  0  0  0  0  0  0  0  0  # atno 10718 bound_to 10713
  153.7978  135.6892  153.4860 H   0  0  0  0  0  0  0  0  0  0  0  0  # atno 10763 bound_to 10752
  153.1708  135.4543  154.9898 H   0  0  0  0  0  0  0  0  0  0  0  0  # atno 10764 bound_to 10752
  154.8019  135.3341  154.7469 H   0  0  0  0  0  0  0  0  0  0  0  0  # atno 10765 bound_to 10752
  140.8593  134.2188  157.4716 H   0  0  0  0  0  0  0  0  0  0  0  0  # atno 11005 bound_to 11000
  144.7849  140.5916  143.6580 LP  0  0  0  0  0  0  0  0  0  0  0  0  # atno 17320 bound_to 7965
  145.4932  139.1487  143.3698 LP  0  0  0  0  0  0  0  0  0  0  0  0  # atno 17321 bound_to 7965
  140.2060  143.3921  152.1755 LP  0  0  0  0  0  0  0  0  0  0  0  0  # atno 17342 bound_to 10162
  139.5327  144.7176  151.5000 LP  0  0  0  0  0  0  0  0  0  0  0  0  # atno 17343 bound_to 10162
  157.1445  131.0305  151.2913 LP  0  0  0  0  0  0  0  0  0  0  0  0  # atno 17370 bound_to 10713
  157.4444  130.7562  149.7096 LP  0  0  0  0  0  0  0  0  0  0  0  0  # atno 17371 bound_to 10713
  139.8706  134.9722  156.4763 LP  0  0  0  0  0  0  0  0  0  0  0  0  # atno 17394 bound_to 11000
  140.8701  133.7995  155.9355 LP  0  0  0  0  0  0  0  0  0  0  0  0  # atno 17395 bound_to 11000

$$$$
