AV-unprocessed.smi:1824|AV-procd|sdf|7399|dock10
  -GOLD-   22720 9 73D 1   1.00000     0.00000
 Structure written by MMmdl.
 45 47  0  0  0  0  0  0  0  0  2 V2000
  147.3611  140.8258  153.0849 C   0  0  0  0  0  0  0  0  0  0  0  0
  147.5464  141.5684  154.4128 C   0  0  2  0  0  0  0  0  0  0  0  0
  148.9785  141.4265  154.9588 C   0  0  0  0  0  0  0  0  0  0  0  0
  149.0948  142.0816  156.2819 N   0  3  2  0  0  0  0  0  0  0  0  0
  150.4857  142.0745  156.8027 C   0  0  0  0  0  0  0  0  0  0  0  0
  150.6197  142.8281  158.1407 C   0  0  2  0  0  0  0  0  0  0  0  0
  149.9819  144.0860  158.0211 O   0  0  0  0  0  0  0  0  0  0  0  0
  152.0957  143.0348  158.5325 C   0  0  0  0  0  0  0  0  0  0  0  0
  152.2730  143.2250  159.9614 N   0  0  0  0  0  0  0  0  0  0  0  0
  151.7620  144.2171  160.7160 C   0  0  0  0  0  0  0  0  0  0  0  0
  152.0487  144.2049  162.0145 N   0  0  0  0  0  0  0  0  0  0  0  0
  152.8368  143.0714  162.1167 C   0  0  0  0  0  0  0  0  0  0  0  0
  153.4686  142.4913  163.2400 C   0  0  0  0  0  0  0  0  0  0  0  0
  154.2341  141.3146  163.1018 C   0  0  0  0  0  0  0  0  0  0  0  0
  154.8318  140.7713  164.1887 F   0  0  0  0  0  0  0  0  0  0  0  0
  154.3799  140.7016  161.8394 C   0  0  0  0  0  0  0  0  0  0  0  0
  155.1163  139.5721  161.7147 F   0  0  0  0  0  0  0  0  0  0  0  0
  153.7605  141.2617  160.7057 C   0  0  0  0  0  0  0  0  0  0  0  0
  152.9964  142.4348  160.8487 C   0  0  0  0  0  0  0  0  0  0  0  0
  148.1024  141.5121  157.2265 C   0  0  0  0  0  0  0  0  0  0  0  0
  146.6746  141.6082  156.6543 C   0  0  1  0  0  0  0  0  0  0  0  0
  146.0989  143.0354  156.6762 C   0  0  0  0  0  0  0  0  0  0  0  0
  146.6244  141.0228  155.3531 O   0  0  0  0  0  0  0  0  0  0  0  0
  148.0366  141.2112  152.3206 H   0  0  0  0  0  0  0  0  0  0  0  0
  146.3420  140.9395  152.7144 H   0  0  0  0  0  0  0  0  0  0  0  0
  147.5565  139.7588  153.1974 H   0  0  0  0  0  0  0  0  0  0  0  0
  147.3212  142.6218  154.2442 H   0  0  0  0  0  0  0  0  0  0  0  0
  149.2508  140.3733  155.0480 H   0  0  0  0  0  0  0  0  0  0  0  0
  149.6810  141.8811  154.2589 H   0  0  0  0  0  0  0  0  0  0  0  0
  150.8242  141.0425  156.9074 H   0  0  0  0  0  0  0  0  0  0  0  0
  151.1537  142.5395  156.0758 H   0  0  0  0  0  0  0  0  0  0  0  0
  150.1263  142.2741  158.9389 H   0  0  0  0  0  0  0  0  0  0  0  0
  149.5065  144.1094  157.2043 H   0  0  0  0  0  0  0  0  0  0  0  0
  152.6890  142.1713  158.2289 H   0  0  0  0  0  0  0  0  0  0  0  0
  152.5139  143.8965  158.0106 H   0  0  0  0  0  0  0  0  0  0  0  0
  151.1449  144.9934  160.2872 H   0  0  0  0  0  0  0  0  0  0  0  0
  153.3646  142.9518  164.2113 H   0  0  0  0  0  0  0  0  0  0  0  0
  153.8725  140.7937  159.7394 H   0  0  0  0  0  0  0  0  0  0  0  0
  148.3496  140.4658  157.4133 H   0  0  0  0  0  0  0  0  0  0  0  0
  148.1442  142.0193  158.1898 H   0  0  0  0  0  0  0  0  0  0  0  0
  146.0248  140.9986  157.2831 H   0  0  0  0  0  0  0  0  0  0  0  0
  146.0292  143.4078  157.6986 H   0  0  0  0  0  0  0  0  0  0  0  0
  145.0953  143.0558  156.2505 H   0  0  0  0  0  0  0  0  0  0  0  0
  146.7140  143.7405  156.1177 H   0  0  0  0  0  0  0  0  0  0  0  0
  148.8497  143.0515  156.1406 H   0  0  0  0  0  0  0  0  0  0  0  0
  1  2  1  0  0  0  0
  1 24  1  0  0  0  0
  1 25  1  0  0  0  0
  1 26  1  0  0  0  0
  2 23  1  0  0  0  0
  2  3  1  0  0  0  0
  2 27  1  0  0  0  0
  3  4  1  0  0  0  0
  3 28  1  0  0  0  0
  3 29  1  0  0  0  0
  4  5  1  0  0  0  0
  4 20  1  0  0  0  0
  4 45  1  0  0  0  0
  5  6  1  0  0  0  0
  5 30  1  0  0  0  0
  5 31  1  0  0  0  0
  6  7  1  0  0  0  0
  6  8  1  0  0  0  0
  6 32  1  0  0  0  0
  7 33  1  0  0  0  0
  8  9  1  0  0  0  0
  8 34  1  0  0  0  0
  8 35  1  0  0  0  0
  9 19  1  0  0  0  0
  9 10  1  0  0  0  0
 10 11  2  0  0  0  0
 10 36  1  0  0  0  0
 11 12  1  0  0  0  0
 12 19  2  0  0  0  0
 12 13  1  0  0  0  0
 13 14  2  0  0  0  0
 13 37  1  0  0  0  0
 14 15  1  0  0  0  0
 14 16  1  0  0  0  0
 16 17  1  0  0  0  0
 16 18  2  0  0  0  0
 18 19  1  0  0  0  0
 18 38  1  0  0  0  0
 20 21  1  0  0  0  0
 20 39  1  0  0  0  0
 20 40  1  0  0  0  0
 21 22  1  0  0  0  0
 21 23  1  0  0  0  0
 21 41  1  0  0  0  0
 22 42  1  0  0  0  0
 22 43  1  0  0  0  0
 22 44  1  0  0  0  0
M  CHG  1   4   1
M  END
> <s_m_source_file>
AV-unprocessed.smi

> <i_m_source_file_index>
1824

> <i_lp_mmshare_version>
43012

> <i_f3d_flags>
0

> <s_epik_input>
W0NIM11bQ0BASF0xW0NIMl1OKFtDSDJdW0NASF0oTzEpW0NIM10pW0NIMl1bQ0BIXShbT0hdKVtDSDJdbihbY0hdbjIpYyhjMjMpW2NIXWMoRiljKEYpW2NIXTM=

> <s_epik_cmdline>
J2VwaWtfcHl0aG9uJywgJy1waCcsICc3LjAnLCAnLXRuJywgJzgnLCAnLW1hJywgJzIwMCcsICctbWV0YWxfYmluZGluZycsICctaW1hZScsICc8aW5maWxlLm1hZT4nLCAnLW9tYWUnLCAnPG91dGZpbGUubWFlPic=

> <r_epik_Ionization_Penalty>
0.61967

> <r_epik_Ionization_Penalty_Charging>
0.608065

> <r_epik_Ionization_Penalty_Neutral>
0.0116057

> <r_epik_State_Penalty>
0.664205

> <r_epik_Charging_Adjusted_Penalty>
1.27227

> <i_epik_Tot_Q>
1

> <i_epik_Tot_abs_Q>
1

> <r_epik_Metal_State_Penalty>
0.654947

> <b_epik_Metal_Only>
0

> <s_lp_Force_Field>
OPLS_2005

> <r_lp_Energy>
23.0723

> <b_lp_Chiralities_Consistent>
1

> <s_lp_Variant>
AV-unprocessed.smi:1824-7

> <Gold.Version>
5.8.1

> <Gold.Id.Protein>
6NUR|6NUR_protein|mol2

> <Gold.PLP.Fitness>
56.8773

> <Gold.PLP.PLP>
-48.4593

> <Gold.PLP.part.hbond>
-3.0000

> <Gold.PLP.part.metal>
0.0000

> <Gold.PLP.part.buried>
-0.4284

> <Gold.PLP.part.nonpolar>
-44.5834

> <Gold.PLP.part.repulsive>
0.4311

> <Gold.PLP.ligand.clash>
0.0000

> <Gold.PLP.ligand.torsion>
0.3107

> <Gold.PLP.Chemscore.Hbond>
3.0000

> <Gold.PLP.Chemscore.CHOScore>
0.0000

> <Gold.PLP.Chemscore.Metal>
0.0000

> <Gold.Chemscore.Hbonds>
donor molecule, donor type, donor heavy atom, donor atom, acceptor molecule, acceptor atom, score
      L1  H     4    45       P1  8028  2.00
      L1  H     7    33       P1  8028  1.00

> <Gold.PLP.Chemscore.Internal.Correction>
0.0394

> <Gold.Rescore>
     Score         DG    S(hbond)    S(metal)    S(lipo)     H(rot)  DE(clash)    DE(int)     intcor
     14.32     -18.10       1.33        0.00     120.67       2.33       3.45       0.33       ----

> <Gold.Chemscore.Fitness>
14.3221

> <Gold.Chemscore.DG>
-18.0994

> <Gold.Chemscore.ZeroCoef>
-5.4800

> <Gold.Chemscore.Hbond>
1.3335

> <Gold.Chemscore.Metal>
0.0000

> <Gold.Chemscore.Lipo>
120.6651

> <Gold.Chemscore.Internal_Hbond>
0.0000

> <Gold.Chemscore.DEClash>
3.4516

> <Gold.Chemscore.DEInternal>
0.3256

> <Gold.Chemscore.Rot>
2.3251

> <Gold.Chemscore.Internal.Correction>
   9.000000E+99

> <Gold.Chemscore.Hbonds>
donor molecule, donor type, donor heavy atom, donor atom, acceptor molecule, acceptor atom, score
      L1  H     4    45       P1  8028  1.00
      L1  H     7    33       P1  8028  0.39

> <Gold.Chemscore.Hbond.Weighted>
-4.4539

> <Gold.Chemscore.Metal.Weighted>
-0.0000

> <Gold.Chemscore.Lipo.Weighted>
-14.1178

> <Gold.Chemscore.Internal_Hbond.Weighted>
0.0000

> <Gold.Chemscore.DEClash.Weighted>
3.4516

> <Gold.Chemscore.DEInternal.Weighted>
0.3256

> <Gold.Chemscore.Rot.Weighted>
5.9523

> <Gold.Chemscore.Internal.Correction.Weighted>
   9.000000E+99

> <Gold.Protein.RotatedTorsions>
[ 6907 6896 6895 6894 ] final -173.24 input  -60.11 | X-H torsion
[ 7974 7965 7964 7962 ] final  -75.20 input  175.53 | X-H torsion
[ 8008 7997 7996 7995 ] final   38.51 input   59.86 | X-H torsion
[ 10167 10162 10161 10158 ] final -116.88 input  -65.29 | X-H torsion
[ 10718 10713 10712 10709 ] final  159.03 input   66.30 | X-H torsion
[ 10763 10752 10751 10750 ] final  -31.67 input  -60.55 | X-H torsion
[ 11005 11000 10999 10996 ] final  164.79 input  -57.11 | X-H torsion

> <Gold.Protein.ActiveResidues>
 VAL166  LYS551  ARG553  GLY616  TRP617  ASP618  TYR619  PRO620  LYS621  CYS622 
 ASP623  PHE694  ASN695  SER759  ASP760  ASP761  ALA762  ILE779  LEU786  VAL792 
 PHE793  MET794  SER795  GLU796  ALA797  LYS798  CYS799  TRP800  GLU811  SER814 

> <Gold.Protein.RotatedAtoms>
  151.5530  133.3414  159.2956 H   0  0  0  0  0  0  0  0  0  0  0  0  # atno 6907 bound_to 6896
  150.8467  134.7781  159.6987 H   0  0  0  0  0  0  0  0  0  0  0  0  # atno 6908 bound_to 6896
  152.4523  134.5374  159.9880 H   0  0  0  0  0  0  0  0  0  0  0  0  # atno 6909 bound_to 6896
  145.6291  140.9343  143.1097 H   0  0  0  0  0  0  0  0  0  0  0  0  # atno 7974 bound_to 7965
  155.2214  140.3331  155.4315 H   0  0  0  0  0  0  0  0  0  0  0  0  # atno 8008 bound_to 7997
  156.2331  140.1860  156.7237 H   0  0  0  0  0  0  0  0  0  0  0  0  # atno 8009 bound_to 7997
  154.6013  140.0623  156.9357 H   0  0  0  0  0  0  0  0  0  0  0  0  # atno 8010 bound_to 7997
  140.0744  143.4847  152.1962 H   0  0  0  0  0  0  0  0  0  0  0  0  # atno 10167 bound_to 10162
  157.1698  131.0607  151.2189 H   0  0  0  0  0  0  0  0  0  0  0  0  # atno 10718 bound_to 10713
  153.8012  135.6890  153.4855 H   0  0  0  0  0  0  0  0  0  0  0  0  # atno 10763 bound_to 10752
  153.1687  135.4551  154.9872 H   0  0  0  0  0  0  0  0  0  0  0  0  # atno 10764 bound_to 10752
  154.8006  135.3336  154.7500 H   0  0  0  0  0  0  0  0  0  0  0  0  # atno 10765 bound_to 10752
  140.2495  134.7988  157.3488 H   0  0  0  0  0  0  0  0  0  0  0  0  # atno 11005 bound_to 11000
  144.7201  139.8061  143.7385 LP  0  0  0  0  0  0  0  0  0  0  0  0  # atno 17320 bound_to 7965
  146.1371  139.4419  143.0132 LP  0  0  0  0  0  0  0  0  0  0  0  0  # atno 17321 bound_to 7965
  139.5817  144.7513  151.3624 LP  0  0  0  0  0  0  0  0  0  0  0  0  # atno 17342 bound_to 10162
  140.7109  143.7392  150.7566 LP  0  0  0  0  0  0  0  0  0  0  0  0  # atno 17343 bound_to 10162
  157.4054  130.7356  149.6799 LP  0  0  0  0  0  0  0  0  0  0  0  0  # atno 17370 bound_to 10713
  155.9740  130.4109  150.3956 LP  0  0  0  0  0  0  0  0  0  0  0  0  # atno 17371 bound_to 10713
  140.1572  134.4775  155.7920 LP  0  0  0  0  0  0  0  0  0  0  0  0  # atno 17394 bound_to 11000
  141.2203  133.6886  156.7481 LP  0  0  0  0  0  0  0  0  0  0  0  0  # atno 17395 bound_to 11000

$$$$
