AV-unprocessed.smi:686|AV-procd|sdf|3344|dock3
  -GOLD-   22720 0313D 1   1.00000     0.00000
 Structure written by MMmdl.
 41 42  0  0  0  0  0  0  0  0  2 V2000
  147.7872  137.7826  154.4319 C   0  0  0  0  0  0  0  0  0  0  0  0
  147.2731  136.5571  155.2052 C   0  0  1  0  0  0  0  0  0  0  0  0
  146.8248  135.4373  154.2635 C   0  0  0  0  0  0  0  0  0  0  0  0
  148.0412  134.6521  153.9637 N   0  3  2  0  0  0  0  0  0  0  0  0
  147.8080  133.2680  153.4626 C   0  0  0  0  0  0  0  0  0  0  0  0
  149.1009  132.4323  153.5187 C   0  0  0  0  0  0  0  0  0  0  0  0
  147.2571  133.2668  152.0237 C   0  0  0  0  0  0  0  0  0  0  0  0
  148.9201  134.7520  155.1539 C   0  0  0  0  0  0  0  0  0  0  0  0
  148.3756  135.8902  156.0385 C   0  0  2  0  0  0  0  0  0  0  0  0
  147.8054  135.3592  157.2812 N   0  0  0  0  0  0  0  0  0  0  0  0
  148.8871  134.7704  158.4902 S   0  0  0  0  0  0  0  0  0  0  0  0
  149.6087  133.6193  157.9259 O   0  0  0  0  0  0  0  0  0  0  0  0
  149.6373  135.9247  159.0074 O   0  0  0  0  0  0  0  0  0  0  0  0
  147.7385  134.1622  159.7954 C   0  0  0  0  0  0  0  0  0  0  0  0
  147.6559  135.1757  160.9005 C   0  0  0  0  0  0  0  0  0  0  0  0
  147.7717  134.9664  162.3025 C   0  0  0  0  0  0  0  0  0  0  0  0
  147.6169  136.2179  162.8252 C   0  0  0  0  0  0  0  0  0  0  0  0
  147.4254  137.1259  161.8352 O   0  0  0  0  0  0  0  0  0  0  0  0
  147.4531  136.4510  160.6095 N   0  0  0  0  0  0  0  0  0  0  0  0
  148.6241  137.5262  153.7813 H   0  0  0  0  0  0  0  0  0  0  0  0
  148.1252  138.5616  155.1159 H   0  0  0  0  0  0  0  0  0  0  0  0
  147.0011  138.2118  153.8100 H   0  0  0  0  0  0  0  0  0  0  0  0
  146.4394  136.8840  155.8291 H   0  0  0  0  0  0  0  0  0  0  0  0
  146.1032  134.8003  154.7782 H   0  0  0  0  0  0  0  0  0  0  0  0
  146.3492  135.8174  153.3587 H   0  0  0  0  0  0  0  0  0  0  0  0
  147.0658  132.7945  154.1074 H   0  0  0  0  0  0  0  0  0  0  0  0
  148.9323  131.4264  153.1332 H   0  0  0  0  0  0  0  0  0  0  0  0
  149.4761  132.3210  154.5358 H   0  0  0  0  0  0  0  0  0  0  0  0
  149.8914  132.8857  152.9198 H   0  0  0  0  0  0  0  0  0  0  0  0
  147.1398  132.2483  151.6525 H   0  0  0  0  0  0  0  0  0  0  0  0
  147.9273  133.7910  151.3413 H   0  0  0  0  0  0  0  0  0  0  0  0
  146.2762  133.7381  151.9599 H   0  0  0  0  0  0  0  0  0  0  0  0
  148.9434  133.8086  155.7019 H   0  0  0  0  0  0  0  0  0  0  0  0
  149.9394  134.9617  154.8282 H   0  0  0  0  0  0  0  0  0  0  0  0
  149.1596  136.6043  156.2963 H   0  0  0  0  0  0  0  0  0  0  0  0
  147.1374  136.0162  157.6846 H   0  0  0  0  0  0  0  0  0  0  0  0
  146.7604  133.9919  159.3460 H   0  0  0  0  0  0  0  0  0  0  0  0
  148.1094  133.2042  160.1611 H   0  0  0  0  0  0  0  0  0  0  0  0
  147.9375  134.0441  162.8393 H   0  0  0  0  0  0  0  0  0  0  0  0
  147.6179  136.6070  163.8326 H   0  0  0  0  0  0  0  0  0  0  0  0
  148.5156  135.1563  153.2284 H   0  0  0  0  0  0  0  0  0  0  0  0
  1  2  1  0  0  0  0
  1 20  1  0  0  0  0
  1 21  1  0  0  0  0
  1 22  1  0  0  0  0
  2  9  1  0  0  0  0
  2  3  1  0  0  0  0
  2 23  1  0  0  0  0
  3  4  1  0  0  0  0
  3 24  1  0  0  0  0
  3 25  1  0  0  0  0
  4  5  1  0  0  0  0
  4  8  1  0  0  0  0
  4 41  1  0  0  0  0
  5  6  1  0  0  0  0
  5  7  1  0  0  0  0
  5 26  1  0  0  0  0
  6 27  1  0  0  0  0
  6 28  1  0  0  0  0
  6 29  1  0  0  0  0
  7 30  1  0  0  0  0
  7 31  1  0  0  0  0
  7 32  1  0  0  0  0
  8  9  1  0  0  0  0
  8 33  1  0  0  0  0
  8 34  1  0  0  0  0
  9 10  1  0  0  0  0
  9 35  1  0  0  0  0
 10 11  1  0  0  0  0
 10 36  1  0  0  0  0
 11 12  2  0  0  0  0
 11 13  2  0  0  0  0
 11 14  1  0  0  0  0
 14 15  1  0  0  0  0
 14 37  1  0  0  0  0
 14 38  1  0  0  0  0
 15 19  2  0  0  0  0
 15 16  1  0  0  0  0
 16 17  2  0  0  0  0
 16 39  1  0  0  0  0
 17 18  1  0  0  0  0
 17 40  1  0  0  0  0
 18 19  1  0  0  0  0
M  CHG  1   4   1
M  END
> <s_m_source_file>
AV-unprocessed.smi

> <i_m_source_file_index>
686

> <i_lp_mmshare_version>
43012

> <i_f3d_flags>
0

> <s_epik_input>
W0NIM11bQ0BASF0xW0NIMl1OKFtDSF0oW0NIM10pW0NIM10pW0NIMl1bQ0BIXTFbTkhdUyg9TykoPU8pW0NIMl1jMltjSF1bY0hdb24y

> <s_epik_cmdline>
J2VwaWtfcHl0aG9uJywgJy1waCcsICc3LjAnLCAnLXRuJywgJzgnLCAnLW1hJywgJzIwMCcsICctbWV0YWxfYmluZGluZycsICctaW1hZScsICc8aW5maWxlLm1hZT4nLCAnLW9tYWUnLCAnPG91dGZpbGUubWFlPic=

> <r_epik_Ionization_Penalty>
0.00200818

> <r_epik_Ionization_Penalty_Charging>
0.000701289

> <r_epik_Ionization_Penalty_Neutral>
0.00130689

> <r_epik_State_Penalty>
0.00131314

> <r_epik_Charging_Adjusted_Penalty>
0.00201443

> <i_epik_Tot_Q>
1

> <i_epik_Tot_abs_Q>
1

> <r_epik_Metal_State_Penalty>
0.310831

> <b_epik_Metal_Only>
0

> <s_lp_Force_Field>
OPLS_2005

> <r_lp_Energy>
21.6188

> <b_lp_Chiralities_Consistent>
1

> <s_lp_Variant>
AV-unprocessed.smi:686-8

> <Gold.Version>
5.8.1

> <Gold.Id.Protein>
6NUR|6NUR_protein|mol2

> <Gold.PLP.Fitness>
40.6748

> <Gold.PLP.PLP>
-27.7321

> <Gold.PLP.part.hbond>
-5.0000

> <Gold.PLP.part.metal>
0.0000

> <Gold.PLP.part.buried>
-1.9700

> <Gold.PLP.part.nonpolar>
-19.8949

> <Gold.PLP.part.repulsive>
0.0000

> <Gold.PLP.ligand.clash>
0.0000

> <Gold.PLP.ligand.torsion>
0.8309

> <Gold.PLP.Chemscore.Hbond>
4.8143

> <Gold.PLP.Chemscore.CHOScore>
0.0000

> <Gold.PLP.Chemscore.Metal>
0.0000

> <Gold.Chemscore.Hbonds>
donor molecule, donor type, donor heavy atom, donor atom, acceptor molecule, acceptor atom, score
      L1  H     4    41       P1  7948  2.00
      P1  H  6896  6907       L1    12  0.44
      P1  H  6896  6908       L1    13  0.85
      P1  H  6931  6943       L1    18  0.96
      P1  H  6934  6947       L1    18  0.45

> <Gold.PLP.Chemscore.Internal.Correction>
0.1615

> <Gold.Rescore>
     Score         DG    S(hbond)    S(metal)    S(lipo)     H(rot)  DE(clash)    DE(int)     intcor
     13.50     -16.34       2.78        0.00      55.35       1.91       0.05       2.79       ----

> <Gold.Chemscore.Fitness>
13.4955

> <Gold.Chemscore.DG>
-16.3428

> <Gold.Chemscore.ZeroCoef>
-5.4800

> <Gold.Chemscore.Hbond>
2.7786

> <Gold.Chemscore.Metal>
0.0000

> <Gold.Chemscore.Lipo>
55.3496

> <Gold.Chemscore.Internal_Hbond>
0.0000

> <Gold.Chemscore.DEClash>
0.0540

> <Gold.Chemscore.DEInternal>
2.7933

> <Gold.Chemscore.Rot>
1.9115

> <Gold.Chemscore.Internal.Correction>
   9.000000E+99

> <Gold.Chemscore.Hbonds>
donor molecule, donor type, donor heavy atom, donor atom, acceptor molecule, acceptor atom, score
      L1  H     4    41       P1  7948  0.85
      P1  H  6896  6907       L1    12  0.15
      P1  H  6896  6908       L1    13  0.14
      P1  H  6931  6943       L1    18  0.27
      P1  H  6934  6947       L1    18  0.05

> <Gold.Chemscore.Hbond.Weighted>
-9.2804

> <Gold.Chemscore.Metal.Weighted>
-0.0000

> <Gold.Chemscore.Lipo.Weighted>
-6.4759

> <Gold.Chemscore.Internal_Hbond.Weighted>
0.0000

> <Gold.Chemscore.DEClash.Weighted>
0.0540

> <Gold.Chemscore.DEInternal.Weighted>
2.7933

> <Gold.Chemscore.Rot.Weighted>
4.8935

> <Gold.Chemscore.Internal.Correction.Weighted>
   9.000000E+99

> <Gold.Protein.RotatedTorsions>
[ 6907 6896 6895 6894 ] final -155.94 input  -60.11 | X-H torsion
[ 7974 7965 7964 7962 ] final   16.68 input  175.53 | X-H torsion
[ 8008 7997 7996 7995 ] final   62.28 input   59.86 | X-H torsion
[ 10167 10162 10161 10158 ] final  130.45 input  -65.29 | X-H torsion
[ 10718 10713 10712 10709 ] final  -72.95 input   66.30 | X-H torsion
[ 10763 10752 10751 10750 ] final  -63.67 input  -60.55 | X-H torsion
[ 11005 11000 10999 10996 ] final  -46.37 input  -57.11 | X-H torsion

> <Gold.Protein.ActiveResidues>
 VAL166  LYS551  ARG553  GLY616  TRP617  ASP618  TYR619  PRO620  LYS621  CYS622 
 ASP623  PHE694  ASN695  SER759  ASP760  ASP761  ALA762  ILE779  LEU786  VAL792 
 PHE793  MET794  SER795  GLU796  ALA797  LYS798  CYS799  TRP800  GLU811  SER814 

> <Gold.Protein.RotatedAtoms>
  151.2801  133.4213  159.2626 H   0  0  0  0  0  0  0  0  0  0  0  0  # atno 6907 bound_to 6896
  151.0368  134.9579  159.8151 H   0  0  0  0  0  0  0  0  0  0  0  0  # atno 6908 bound_to 6896
  152.5357  134.2761  159.9042 H   0  0  0  0  0  0  0  0  0  0  0  0  # atno 6909 bound_to 6896
  146.2242  139.8712  142.8587 H   0  0  0  0  0  0  0  0  0  0  0  0  # atno 7974 bound_to 7965
  155.6118  140.3495  155.4625 H   0  0  0  0  0  0  0  0  0  0  0  0  # atno 8008 bound_to 7997
  156.0148  140.1241  157.0442 H   0  0  0  0  0  0  0  0  0  0  0  0  # atno 8009 bound_to 7997
  154.4293  140.1074  156.5866 H   0  0  0  0  0  0  0  0  0  0  0  0  # atno 8010 bound_to 7997
  139.5429  144.6747  151.4565 H   0  0  0  0  0  0  0  0  0  0  0  0  # atno 10167 bound_to 10162
  156.0300  130.4383  150.2669 H   0  0  0  0  0  0  0  0  0  0  0  0  # atno 10718 bound_to 10713
  154.3185  135.6201  153.5497 H   0  0  0  0  0  0  0  0  0  0  0  0  # atno 10763 bound_to 10752
  152.9822  135.5718  154.5096 H   0  0  0  0  0  0  0  0  0  0  0  0  # atno 10764 bound_to 10752
  154.4760  135.2861  155.1583 H   0  0  0  0  0  0  0  0  0  0  0  0  # atno 10765 bound_to 10752
  141.0574  133.6721  156.3145 H   0  0  0  0  0  0  0  0  0  0  0  0  # atno 11005 bound_to 11000
  145.2606  141.0076  143.3828 LP  0  0  0  0  0  0  0  0  0  0  0  0  # atno 17320 bound_to 7965
  144.9301  139.4308  143.6499 LP  0  0  0  0  0  0  0  0  0  0  0  0  # atno 17321 bound_to 7965
  140.6667  143.8383  150.6950 LP  0  0  0  0  0  0  0  0  0  0  0  0  # atno 17342 bound_to 10162
  140.1794  143.4127  152.1943 LP  0  0  0  0  0  0  0  0  0  0  0  0  # atno 17343 bound_to 10162
  157.0771  131.0133  151.3170 LP  0  0  0  0  0  0  0  0  0  0  0  0  # atno 17370 bound_to 10713
  157.4955  130.7848  149.7551 LP  0  0  0  0  0  0  0  0  0  0  0  0  # atno 17371 bound_to 10713
  140.5936  134.5626  157.5504 LP  0  0  0  0  0  0  0  0  0  0  0  0  # atno 17394 bound_to 11000
  139.9402  134.7800  156.0697 LP  0  0  0  0  0  0  0  0  0  0  0  0  # atno 17395 bound_to 11000

$$$$
