AV-unprocessed.smi:1535|AV-procd|sdf|6179|dock9
  -GOLD-   22720 6333D 1   1.00000     0.00000
 Structure written by MMmdl.
 47 48  0  0  0  0  0  0  0  0  2 V2000
  153.5495  142.2638  161.6645 C   0  0  0  0  0  0  0  0  0  0  0  0
  152.8857  142.0797  160.3111 C   0  0  0  0  0  0  0  0  0  0  0  0
  153.1657  140.9148  159.5616 C   0  0  0  0  0  0  0  0  0  0  0  0
  152.5677  140.7044  158.2999 C   0  0  0  0  0  0  0  0  0  0  0  0
  152.6941  139.6529  157.4085 N   0  0  0  0  0  0  0  0  0  0  0  0
  151.8928  140.0407  156.4206 C   0  0  0  0  0  0  0  0  0  0  0  0
  151.2631  141.2228  156.5658 N   0  0  0  0  0  0  0  0  0  0  0  0
  150.3534  141.8569  155.6286 C   0  0  0  0  0  0  0  0  0  0  0  0
  149.4463  140.8362  154.9156 C   0  0  1  0  0  0  0  0  0  0  0  0
  150.1834  140.1884  153.8958 O   0  0  0  0  0  0  0  0  0  0  0  0
  148.9010  139.7706  155.8865 C   0  0  0  0  0  0  0  0  0  0  0  0
  148.0368  140.3605  156.9435 N   0  3  2  0  0  0  0  0  0  0  0  0
  147.2301  139.3385  157.6547 C   0  0  0  0  0  0  0  0  0  0  0  0
  147.2118  141.4910  156.4400 C   0  0  0  0  0  0  0  0  0  0  0  0
  146.1134  141.9237  157.4311 C   0  0  2  0  0  0  0  0  0  0  0  0
  145.2545  143.0570  156.8555 C   0  0  0  0  0  0  0  0  0  0  0  0
  146.6880  142.3145  158.7289 C   0  0  0  0  0  0  0  0  0  0  0  0
  147.1380  142.6256  159.7476 N   0  0  0  0  0  0  0  0  0  0  0  0
  151.6775  141.7010  157.8035 C   0  0  0  0  0  0  0  0  0  0  0  0
  151.3912  142.8643  158.5391 C   0  0  0  0  0  0  0  0  0  0  0  0
  151.9942  143.0568  159.7997 C   0  0  0  0  0  0  0  0  0  0  0  0
  151.6747  144.3136  160.5896 C   0  0  0  0  0  0  0  0  0  0  0  0
  154.2338  141.4445  161.8868 H   0  0  0  0  0  0  0  0  0  0  0  0
  152.7996  142.2981  162.4550 H   0  0  0  0  0  0  0  0  0  0  0  0
  154.1214  143.1916  161.6884 H   0  0  0  0  0  0  0  0  0  0  0  0
  153.8440  140.1701  159.9512 H   0  0  0  0  0  0  0  0  0  0  0  0
  151.7606  139.4329  155.5373 H   0  0  0  0  0  0  0  0  0  0  0  0
  149.7563  142.5969  156.1638 H   0  0  0  0  0  0  0  0  0  0  0  0
  150.9494  142.4062  154.8987 H   0  0  0  0  0  0  0  0  0  0  0  0
  148.6245  141.3757  154.4456 H   0  0  0  0  0  0  0  0  0  0  0  0
  149.7075  140.2614  153.0822 H   0  0  0  0  0  0  0  0  0  0  0  0
  148.3452  139.0351  155.3031 H   0  0  0  0  0  0  0  0  0  0  0  0
  149.7196  139.2230  156.3567 H   0  0  0  0  0  0  0  0  0  0  0  0
  146.4821  138.9012  156.9924 H   0  0  0  0  0  0  0  0  0  0  0  0
  146.7147  139.7665  158.5132 H   0  0  0  0  0  0  0  0  0  0  0  0
  147.8522  138.5302  158.0368 H   0  0  0  0  0  0  0  0  0  0  0  0
  147.8519  142.3561  156.2603 H   0  0  0  0  0  0  0  0  0  0  0  0
  146.7768  141.2234  155.4758 H   0  0  0  0  0  0  0  0  0  0  0  0
  145.4488  141.0846  157.6327 H   0  0  0  0  0  0  0  0  0  0  0  0
  144.4631  143.3382  157.5508 H   0  0  0  0  0  0  0  0  0  0  0  0
  144.7808  142.7571  155.9205 H   0  0  0  0  0  0  0  0  0  0  0  0
  145.8534  143.9466  156.6576 H   0  0  0  0  0  0  0  0  0  0  0  0
  150.7116  143.6009  158.1371 H   0  0  0  0  0  0  0  0  0  0  0  0
  150.9468  144.9369  160.0693 H   0  0  0  0  0  0  0  0  0  0  0  0
  152.5759  144.9075  160.7425 H   0  0  0  0  0  0  0  0  0  0  0  0
  151.2587  144.0572  161.5643 H   0  0  0  0  0  0  0  0  0  0  0  0
  148.6743  140.7602  157.6184 H   0  0  0  0  0  0  0  0  0  0  0  0
  1  2  1  0  0  0  0
  1 23  1  0  0  0  0
  1 24  1  0  0  0  0
  1 25  1  0  0  0  0
  2 21  1  0  0  0  0
  2  3  2  0  0  0  0
  3  4  1  0  0  0  0
  3 26  1  0  0  0  0
  4 19  2  0  0  0  0
  4  5  1  0  0  0  0
  5  6  2  0  0  0  0
  6  7  1  0  0  0  0
  6 27  1  0  0  0  0
  7  8  1  0  0  0  0
  7 19  1  0  0  0  0
  8  9  1  0  0  0  0
  8 28  1  0  0  0  0
  8 29  1  0  0  0  0
  9 10  1  0  0  0  0
  9 11  1  0  0  0  0
  9 30  1  0  0  0  0
 10 31  1  0  0  0  0
 11 12  1  0  0  0  0
 11 32  1  0  0  0  0
 11 33  1  0  0  0  0
 12 13  1  0  0  0  0
 12 14  1  0  0  0  0
 12 47  1  0  0  0  0
 13 34  1  0  0  0  0
 13 35  1  0  0  0  0
 13 36  1  0  0  0  0
 14 15  1  0  0  0  0
 14 37  1  0  0  0  0
 14 38  1  0  0  0  0
 15 16  1  0  0  0  0
 15 17  1  0  0  0  0
 15 39  1  0  0  0  0
 16 40  1  0  0  0  0
 16 41  1  0  0  0  0
 16 42  1  0  0  0  0
 17 18  3  0  0  0  0
 19 20  1  0  0  0  0
 20 21  2  0  0  0  0
 20 43  1  0  0  0  0
 21 22  1  0  0  0  0
 22 44  1  0  0  0  0
 22 45  1  0  0  0  0
 22 46  1  0  0  0  0
M  CHG  1  12   1
M  END
> <s_m_source_file>
AV-unprocessed.smi

> <i_m_source_file_index>
1535

> <i_lp_mmshare_version>
43012

> <i_f3d_flags>
0

> <s_epik_input>
W0NIM11jKFtjSF0xKWMoW0NIM10pW2NIXWMoYzEyKW4oW2NIXW4yKVtDSDJdW0NASF0oW09IXSlbQ0gyXU4oW0NIM10pW0NIMl1bQ0BIXShbQ0gzXSlDI04=

> <s_epik_cmdline>
J2VwaWtfcHl0aG9uJywgJy1waCcsICc3LjAnLCAnLXRuJywgJzgnLCAnLW1hJywgJzIwMCcsICctbWV0YWxfYmluZGluZycsICctaW1hZScsICc8aW5maWxlLm1hZT4nLCAnLW9tYWUnLCAnPG91dGZpbGUubWFlPic=

> <r_epik_Ionization_Penalty>
2.21058

> <r_epik_Ionization_Penalty_Charging>
2.12381

> <r_epik_Ionization_Penalty_Neutral>
0.0867699

> <r_epik_State_Penalty>
2.36208

> <r_epik_Charging_Adjusted_Penalty>
4.48589

> <i_epik_Tot_Q>
1

> <i_epik_Tot_abs_Q>
1

> <r_epik_Metal_State_Penalty>
2.2818

> <b_epik_Metal_Only>
0

> <s_lp_Force_Field>
OPLS_2005

> <r_lp_Energy>
14.9944

> <b_lp_Chiralities_Consistent>
1

> <s_lp_Variant>
AV-unprocessed.smi:1535-10

> <Gold.Version>
5.8.1

> <Gold.Id.Protein>
6NUR|6NUR_protein|mol2

> <Gold.PLP.Fitness>
50.9077

> <Gold.PLP.PLP>
-40.3105

> <Gold.PLP.part.hbond>
-4.9345

> <Gold.PLP.part.metal>
0.0000

> <Gold.PLP.part.buried>
-5.3862

> <Gold.PLP.part.nonpolar>
-30.9252

> <Gold.PLP.part.repulsive>
0.0897

> <Gold.PLP.ligand.clash>
0.0000

> <Gold.PLP.ligand.torsion>
0.7862

> <Gold.PLP.Chemscore.Hbond>
4.0139

> <Gold.PLP.Chemscore.CHOScore>
0.0000

> <Gold.PLP.Chemscore.Metal>
0.0000

> <Gold.Chemscore.Hbonds>
donor molecule, donor type, donor heavy atom, donor atom, acceptor molecule, acceptor atom, score
      L1  H    10    31       P1  7957  1.00
      P1  H  6933  6944       L1    18  0.44
      P1  H  6934  6946       L1    18  0.76
      P1  H  7989  7998       L1    10  0.86
      P1  H  7997  8008       L1     5  0.95

> <Gold.PLP.Chemscore.Internal.Correction>
0.1280

> <Gold.Rescore>
     Score         DG    S(hbond)    S(metal)    S(lipo)     H(rot)  DE(clash)    DE(int)     intcor
     18.00     -19.96       2.94        0.00      96.86       2.60       0.13       1.83       ----

> <Gold.Chemscore.Fitness>
18.0016

> <Gold.Chemscore.DG>
-19.9579

> <Gold.Chemscore.ZeroCoef>
-5.4800

> <Gold.Chemscore.Hbond>
2.9371

> <Gold.Chemscore.Metal>
0.0000

> <Gold.Chemscore.Lipo>
96.8553

> <Gold.Chemscore.Internal_Hbond>
0.0000

> <Gold.Chemscore.DEClash>
0.1296

> <Gold.Chemscore.DEInternal>
1.8266

> <Gold.Chemscore.Rot>
2.6031

> <Gold.Chemscore.Internal.Correction>
   9.000000E+99

> <Gold.Chemscore.Hbonds>
donor molecule, donor type, donor heavy atom, donor atom, acceptor molecule, acceptor atom, score
      L1  H    10    31       P1  7957  0.94
      P1  H  6933  6944       L1    18  0.43
      P1  H  6934  6946       L1    18  0.16
      P1  H  7989  7998       L1    10  0.20
      P1  H  7997  8008       L1     5  0.06

> <Gold.Chemscore.Hbond.Weighted>
-9.8097

> <Gold.Chemscore.Metal.Weighted>
-0.0000

> <Gold.Chemscore.Lipo.Weighted>
-11.3321

> <Gold.Chemscore.Internal_Hbond.Weighted>
0.0000

> <Gold.Chemscore.DEClash.Weighted>
0.1296

> <Gold.Chemscore.DEInternal.Weighted>
1.8266

> <Gold.Chemscore.Rot.Weighted>
6.6640

> <Gold.Chemscore.Internal.Correction.Weighted>
   9.000000E+99

> <Gold.Protein.RotatedTorsions>
[ 6907 6896 6895 6894 ] final   63.76 input  -60.11 | X-H torsion
[ 7974 7965 7964 7962 ] final -142.76 input  175.53 | X-H torsion
[ 8008 7997 7996 7995 ] final  -61.67 input   59.86 | X-H torsion
[ 10167 10162 10161 10158 ] final    4.41 input  -65.29 | X-H torsion
[ 10718 10713 10712 10709 ] final -129.22 input   66.30 | X-H torsion
[ 10763 10752 10751 10750 ] final  119.78 input  -60.55 | X-H torsion
[ 11005 11000 10999 10996 ] final  -45.65 input  -57.11 | X-H torsion

> <Gold.Protein.ActiveResidues>
 VAL166  LYS551  ARG553  GLY616  TRP617  ASP618  TYR619  PRO620  LYS621  CYS622 
 ASP623  PHE694  ASN695  SER759  ASP760  ASP761  ALA762  ILE779  LEU786  VAL792 
 PHE793  MET794  SER795  GLU796  ALA797  LYS798  CYS799  TRP800  GLU811  SER814 

> <Gold.Protein.RotatedAtoms>
  152.4279  134.5834  159.9953 H   0  0  0  0  0  0  0  0  0  0  0  0  # atno 6907 bound_to 6896
  151.5965  133.3355  159.3046 H   0  0  0  0  0  0  0  0  0  0  0  0  # atno 6908 bound_to 6896
  150.8169  134.7393  159.6803 H   0  0  0  0  0  0  0  0  0  0  0  0  # atno 6909 bound_to 6896
  144.8419  140.5918  143.5446 H   0  0  0  0  0  0  0  0  0  0  0  0  # atno 7974 bound_to 7965
  154.4460  140.1012  156.6467 H   0  0  0  0  0  0  0  0  0  0  0  0  # atno 8008 bound_to 7997
  155.5442  140.3484  155.4435 H   0  0  0  0  0  0  0  0  0  0  0  0  # atno 8009 bound_to 7997
  156.0575  140.1318  156.9968 H   0  0  0  0  0  0  0  0  0  0  0  0  # atno 8010 bound_to 7997
  140.6536  143.7483  150.7616 H   0  0  0  0  0  0  0  0  0  0  0  0  # atno 10167 bound_to 10162
  156.2026  130.6867  151.0557 H   0  0  0  0  0  0  0  0  0  0  0  0  # atno 10718 bound_to 10713
  153.5883  135.3470  155.2901 H   0  0  0  0  0  0  0  0  0  0  0  0  # atno 10763 bound_to 10752
  154.8657  135.4198  154.2544 H   0  0  0  0  0  0  0  0  0  0  0  0  # atno 10764 bound_to 10752
  153.3346  135.7046  153.6989 H   0  0  0  0  0  0  0  0  0  0  0  0  # atno 10765 bound_to 10752
  141.0529  133.6736  156.3043 H   0  0  0  0  0  0  0  0  0  0  0  0  # atno 11005 bound_to 11000
  145.4676  139.1506  143.3832 LP  0  0  0  0  0  0  0  0  0  0  0  0  # atno 17320 bound_to 7965
  146.2710  140.4808  142.8814 LP  0  0  0  0  0  0  0  0  0  0  0  0  # atno 17321 bound_to 7965
  140.1139  143.4674  152.2354 LP  0  0  0  0  0  0  0  0  0  0  0  0  # atno 17342 bound_to 10162
  139.5755  144.7485  151.3777 LP  0  0  0  0  0  0  0  0  0  0  0  0  # atno 17343 bound_to 10162
  157.6994  131.0782  150.6868 LP  0  0  0  0  0  0  0  0  0  0  0  0  # atno 17370 bound_to 10713
  156.6925  130.4599  149.5595 LP  0  0  0  0  0  0  0  0  0  0  0  0  # atno 17371 bound_to 10713
  140.6020  134.5545  157.5519 LP  0  0  0  0  0  0  0  0  0  0  0  0  # atno 17394 bound_to 11000
  139.9365  134.7865  156.0788 LP  0  0  0  0  0  0  0  0  0  0  0  0  # atno 17395 bound_to 11000

$$$$
