AV-unprocessed.smi:3274|AV-procd|sdf|12527|dock2
  -GOLD-   2272018443D 1   1.00000     0.00000
 Structure written by MMmdl.
 43 44  0  0  0  0  0  0  0  0  2 V2000
  151.2510  145.4881  159.2062 C   0  0  0  0  0  0  0  0  0  0  0  0
  151.8270  144.2430  159.8601 C   0  0  0  0  0  0  0  0  0  0  0  0
  152.2852  144.3016  161.1252 C   0  0  0  0  0  0  0  0  0  0  0  0
  152.9402  143.1472  161.8486 C   0  0  0  0  0  0  0  0  0  0  0  0
  153.4673  142.1054  160.8587 C   0  0  0  0  0  0  0  0  0  0  0  0
  152.3956  141.7191  159.8262 C   0  0  2  0  0  0  0  0  0  0  0  0
  152.9413  140.6034  158.9129 C   0  0  0  0  0  0  0  0  0  0  0  0
  151.8787  142.9508  159.0200 C   0  0  1  0  0  0  0  0  0  0  0  0
  150.5196  142.6169  158.3519 C   0  0  0  0  0  0  0  0  0  0  0  0
  150.5954  142.5978  156.8737 N   0  3  0  0  0  0  0  0  0  0  0  0
  150.3668  141.2796  156.2370 C   0  0  1  0  0  0  0  0  0  0  0  0
  149.5214  141.4776  154.9717 C   0  0  0  0  0  0  0  0  0  0  0  0
  151.6968  140.5725  155.8900 C   0  0  0  0  0  0  0  0  0  0  0  0
  151.5208  139.2506  155.3173 N   0  0  0  0  0  0  0  0  0  0  0  0
  152.4210  138.3608  154.8953 C   0  0  0  0  0  0  0  0  0  0  0  0
  151.8875  137.2424  154.4252 N   0  0  0  0  0  0  0  0  0  0  0  0
  150.5625  137.5368  154.5816 C   0  0  0  0  0  0  0  0  0  0  0  0
  150.2884  138.7302  155.1087 N   0  0  0  0  0  0  0  0  0  0  0  0
  151.7227  145.6649  158.2395 H   0  0  0  0  0  0  0  0  0  0  0  0
  151.4182  146.3728  159.8218 H   0  0  0  0  0  0  0  0  0  0  0  0
  150.1749  145.3908  159.0644 H   0  0  0  0  0  0  0  0  0  0  0  0
  152.2077  145.2225  161.6851 H   0  0  0  0  0  0  0  0  0  0  0  0
  153.7617  143.5257  162.4575 H   0  0  0  0  0  0  0  0  0  0  0  0
  152.2136  142.7033  162.5297 H   0  0  0  0  0  0  0  0  0  0  0  0
  154.3435  142.5031  160.3442 H   0  0  0  0  0  0  0  0  0  0  0  0
  153.8052  141.2252  161.4074 H   0  0  0  0  0  0  0  0  0  0  0  0
  151.5552  141.3056  160.3863 H   0  0  0  0  0  0  0  0  0  0  0  0
  153.7743  140.9608  158.3065 H   0  0  0  0  0  0  0  0  0  0  0  0
  152.1851  140.2097  158.2356 H   0  0  0  0  0  0  0  0  0  0  0  0
  153.3043  139.7609  159.5024 H   0  0  0  0  0  0  0  0  0  0  0  0
  152.6077  143.1468  158.2320 H   0  0  0  0  0  0  0  0  0  0  0  0
  150.1623  141.6456  158.6808 H   0  0  0  0  0  0  0  0  0  0  0  0
  149.7664  143.3383  158.6714 H   0  0  0  0  0  0  0  0  0  0  0  0
  149.8747  143.2221  156.5403 H   0  0  0  0  0  0  0  0  0  0  0  0
  149.7842  140.6516  156.9131 H   0  0  0  0  0  0  0  0  0  0  0  0
  149.2977  140.5228  154.4946 H   0  0  0  0  0  0  0  0  0  0  0  0
  150.0377  142.1012  154.2407 H   0  0  0  0  0  0  0  0  0  0  0  0
  148.5698  141.9562  155.2054 H   0  0  0  0  0  0  0  0  0  0  0  0
  152.2590  141.1687  155.1699 H   0  0  0  0  0  0  0  0  0  0  0  0
  152.3257  140.4872  156.7773 H   0  0  0  0  0  0  0  0  0  0  0  0
  153.4870  138.5293  154.9405 H   0  0  0  0  0  0  0  0  0  0  0  0
  149.7772  136.8508  154.3000 H   0  0  0  0  0  0  0  0  0  0  0  0
  151.4900  142.9589  156.5748 H   0  0  0  0  0  0  0  0  0  0  0  0
  1  2  1  0  0  0  0
  1 19  1  0  0  0  0
  1 20  1  0  0  0  0
  1 21  1  0  0  0  0
  2  8  1  0  0  0  0
  2  3  2  0  0  0  0
  3  4  1  0  0  0  0
  3 22  1  0  0  0  0
  4  5  1  0  0  0  0
  4 23  1  0  0  0  0
  4 24  1  0  0  0  0
  5  6  1  0  0  0  0
  5 25  1  0  0  0  0
  5 26  1  0  0  0  0
  6  7  1  0  0  0  0
  6  8  1  0  0  0  0
  6 27  1  0  0  0  0
  7 28  1  0  0  0  0
  7 29  1  0  0  0  0
  7 30  1  0  0  0  0
  8  9  1  0  0  0  0
  8 31  1  0  0  0  0
  9 10  1  0  0  0  0
  9 32  1  0  0  0  0
  9 33  1  0  0  0  0
 10 11  1  0  0  0  0
 10 34  1  0  0  0  0
 10 43  1  0  0  0  0
 11 12  1  0  0  0  0
 11 13  1  0  0  0  0
 11 35  1  0  0  0  0
 12 36  1  0  0  0  0
 12 37  1  0  0  0  0
 12 38  1  0  0  0  0
 13 14  1  0  0  0  0
 13 39  1  0  0  0  0
 13 40  1  0  0  0  0
 14 18  1  0  0  0  0
 14 15  1  0  0  0  0
 15 16  2  0  0  0  0
 15 41  1  0  0  0  0
 16 17  1  0  0  0  0
 17 18  2  0  0  0  0
 17 42  1  0  0  0  0
M  CHG  1  10   1
M  END
> <s_m_source_file>
AV-unprocessed.smi

> <i_m_source_file_index>
3274

> <i_lp_mmshare_version>
43012

> <i_f3d_flags>
0

> <s_epik_input>
W0NIM11DMT1bQ0hdW0NIMl1bQ0gyXVtDQEBIXShbQ0gzXSlbQ0BIXTFbQ0gyXVtOSF1bQ0BIXShbQ0gzXSlbQ0gyXW4yW2NIXW5bY0hdbjI=

> <s_epik_cmdline>
J2VwaWtfcHl0aG9uJywgJy1waCcsICc3LjAnLCAnLXRuJywgJzgnLCAnLW1hJywgJzIwMCcsICctbWV0YWxfYmluZGluZycsICctaW1hZScsICc8aW5maWxlLm1hZT4nLCAnLW9tYWUnLCAnPG91dGZpbGUubWFlPic=

> <r_lp_tautomer_probability>
1

> <r_epik_Ionization_Penalty>
0.0017527

> <r_epik_Ionization_Penalty_Charging>
0.00175191

> <r_epik_Ionization_Penalty_Neutral>
7.94565e-07

> <r_epik_State_Penalty>
0.00118605

> <r_epik_Charging_Adjusted_Penalty>
0.00293796

> <i_epik_Tot_Q>
1

> <i_epik_Tot_abs_Q>
1

> <r_epik_Metal_State_Penalty>
-0

> <b_epik_Metal_Only>
0

> <s_lp_Force_Field>
OPLS_2005

> <r_lp_Energy>
18.4066

> <b_lp_Chiralities_Consistent>
1

> <s_lp_Variant>
AV-unprocessed.smi:3274-6

> <Gold.Version>
5.8.1

> <Gold.Id.Protein>
6NUR|6NUR_protein|mol2

> <Gold.PLP.Fitness>
56.3762

> <Gold.PLP.PLP>
-47.6624

> <Gold.PLP.part.hbond>
-2.0000

> <Gold.PLP.part.metal>
0.0000

> <Gold.PLP.part.buried>
-5.4388

> <Gold.PLP.part.nonpolar>
-41.0730

> <Gold.PLP.part.repulsive>
0.3047

> <Gold.PLP.ligand.clash>
0.0000

> <Gold.PLP.ligand.torsion>
1.6546

> <Gold.PLP.Chemscore.Hbond>
2.9600

> <Gold.PLP.Chemscore.CHOScore>
1.0000

> <Gold.PLP.Chemscore.Metal>
0.0000

> <Gold.Chemscore.Hbonds>
donor molecule, donor type, donor heavy atom, donor atom, acceptor molecule, acceptor atom, score
      L1  H    10    34       P1  8028  2.00
      P1  H 10752 10764       L1    16  0.99
      L1  C    17    42       P1  7948  0.74

> <Gold.PLP.Chemscore.Internal.Correction>
0.1430

> <Gold.Rescore>
     Score         DG    S(hbond)    S(metal)    S(lipo)     H(rot)  DE(clash)    DE(int)     intcor
     17.32     -19.27       1.91        0.00     114.95       2.36       0.17       1.78       ----

> <Gold.Chemscore.Fitness>
17.3247

> <Gold.Chemscore.DG>
-19.2732

> <Gold.Chemscore.ZeroCoef>
-5.4800

> <Gold.Chemscore.Hbond>
1.9130

> <Gold.Chemscore.Metal>
0.0000

> <Gold.Chemscore.Lipo>
114.9503

> <Gold.Chemscore.Internal_Hbond>
0.0000

> <Gold.Chemscore.DEClash>
0.1664

> <Gold.Chemscore.DEInternal>
1.7822

> <Gold.Chemscore.Rot>
2.3615

> <Gold.Chemscore.Internal.Correction>
   9.000000E+99

> <Gold.Chemscore.Hbonds>
donor molecule, donor type, donor heavy atom, donor atom, acceptor molecule, acceptor atom, score
      L1  H    10    34       P1  8028  0.97
      P1  H 10752 10764       L1    16  0.92

> <Gold.Chemscore.Hbond.Weighted>
-6.3894

> <Gold.Chemscore.Metal.Weighted>
-0.0000

> <Gold.Chemscore.Lipo.Weighted>
-13.4492

> <Gold.Chemscore.Internal_Hbond.Weighted>
0.0000

> <Gold.Chemscore.DEClash.Weighted>
0.1664

> <Gold.Chemscore.DEInternal.Weighted>
1.7822

> <Gold.Chemscore.Rot.Weighted>
6.0454

> <Gold.Chemscore.Internal.Correction.Weighted>
   9.000000E+99

> <Gold.Protein.RotatedTorsions>
[ 6907 6896 6895 6894 ] final   29.66 input  -60.11 | X-H torsion
[ 7974 7965 7964 7962 ] final  129.04 input  175.53 | X-H torsion
[ 8008 7997 7996 7995 ] final   49.17 input   59.86 | X-H torsion
[ 10167 10162 10161 10158 ] final -178.62 input  -65.29 | X-H torsion
[ 10718 10713 10712 10709 ] final  149.96 input   66.30 | X-H torsion
[ 10763 10752 10751 10750 ] final  -79.17 input  -60.55 | X-H torsion
[ 11005 11000 10999 10996 ] final -146.26 input  -57.11 | X-H torsion

> <Gold.Protein.ActiveResidues>
 VAL166  LYS551  ARG553  GLY616  TRP617  ASP618  TYR619  PRO620  LYS621  CYS622 
 ASP623  PHE694  ASN695  SER759  ASP760  ASP761  ALA762  ILE779  LEU786  VAL792 
 PHE793  MET794  SER795  GLU796  ALA797  LYS798  CYS799  TRP800  GLU811  SER814 

> <Gold.Protein.RotatedAtoms>
  152.0347  134.9747  160.0572 H   0  0  0  0  0  0  0  0  0  0  0  0  # atno 6907 bound_to 6896
  152.1209  133.4348  159.4683 H   0  0  0  0  0  0  0  0  0  0  0  0  # atno 6908 bound_to 6896
  150.6849  134.2454  159.4532 H   0  0  0  0  0  0  0  0  0  0  0  0  # atno 6909 bound_to 6896
  145.0330  139.4030  143.5140 H   0  0  0  0  0  0  0  0  0  0  0  0  # atno 7974 bound_to 7965
  155.3978  140.3436  155.4255 H   0  0  0  0  0  0  0  0  0  0  0  0  # atno 8008 bound_to 7997
  156.1521  140.1574  156.8785 H   0  0  0  0  0  0  0  0  0  0  0  0  # atno 8009 bound_to 7997
  154.5061  140.0802  156.7879 H   0  0  0  0  0  0  0  0  0  0  0  0  # atno 8010 bound_to 7997
  139.5424  144.2328  152.0921 H   0  0  0  0  0  0  0  0  0  0  0  0  # atno 10167 bound_to 10162
  157.2895  131.0850  151.1472 H   0  0  0  0  0  0  0  0  0  0  0  0  # atno 10718 bound_to 10713
  154.5352  135.5705  153.6792 H   0  0  0  0  0  0  0  0  0  0  0  0  # atno 10763 bound_to 10752
  152.9949  135.6214  154.2576 H   0  0  0  0  0  0  0  0  0  0  0  0  # atno 10764 bound_to 10752
  154.2504  135.2859  155.2798 H   0  0  0  0  0  0  0  0  0  0  0  0  # atno 10765 bound_to 10752
  140.7838  134.3048  157.5036 H   0  0  0  0  0  0  0  0  0  0  0  0  # atno 11005 bound_to 11000
  146.3501  139.9889  142.8688 LP  0  0  0  0  0  0  0  0  0  0  0  0  # atno 17320 bound_to 7965
  145.1746  140.9738  143.4301 LP  0  0  0  0  0  0  0  0  0  0  0  0  # atno 17321 bound_to 7965
  140.1808  144.4846  150.6529 LP  0  0  0  0  0  0  0  0  0  0  0  0  # atno 17342 bound_to 10162
  140.6659  143.2268  151.5745 LP  0  0  0  0  0  0  0  0  0  0  0  0  # atno 17343 bound_to 10162
  157.2875  130.6780  149.6097 LP  0  0  0  0  0  0  0  0  0  0  0  0  # atno 17370 bound_to 10713
  155.9666  130.4431  150.5407 LP  0  0  0  0  0  0  0  0  0  0  0  0  # atno 17371 bound_to 10713
  139.8739  134.9334  156.3580 LP  0  0  0  0  0  0  0  0  0  0  0  0  # atno 17394 bound_to 11000
  140.9456  133.7485  156.0204 LP  0  0  0  0  0  0  0  0  0  0  0  0  # atno 17395 bound_to 11000

$$$$
