AV-unprocessed.smi:2001|AV-procd|sdf|8102|dock5
  -GOLD-   2272010323D 1   1.00000     0.00000
 Structure written by MMmdl.
 50 51  0  0  0  0  0  0  0  0  1 V2000
  150.3508  136.5852  155.1997 C   0  0  0  0  0  0  0  0  0  0  0  0
  151.5451  136.7355  154.4523 O   0  0  0  0  0  0  0  0  0  0  0  0
  151.8137  138.0877  154.1234 C   0  0  0  0  0  0  0  0  0  0  0  0
  152.4752  138.7685  155.3311 C   0  0  0  0  0  0  0  0  0  0  0  0
  151.6585  139.8739  155.8420 N   0  0  0  0  0  0  0  0  0  0  0  0
  150.5944  140.2147  155.0232 N   0  0  0  0  0  0  0  0  0  0  0  0
  149.7998  141.1799  155.3576 C   0  0  0  0  0  0  0  0  0  0  0  0
  148.6499  141.5833  154.5017 C   0  0  0  0  0  0  0  0  0  0  0  0
  148.5485  141.2113  153.3313 O   0  0  0  0  0  0  0  0  0  0  0  0
  147.7368  142.3715  155.0969 N   0  0  0  0  0  0  0  0  0  0  0  0
  146.5208  142.8711  154.4678 C   0  0  0  0  0  0  0  0  0  0  0  0
  145.2714  142.4192  155.2456 C   0  0  0  0  0  0  0  0  0  0  0  0
  144.4270  143.5029  155.7448 N   0  0  0  0  0  0  0  0  0  0  0  0
  144.1288  144.5025  154.7221 C   0  0  0  0  0  0  0  0  0  0  0  0
  143.2561  145.6468  155.2727 C   0  0  2  0  0  0  0  0  0  0  0  0
  143.0052  146.7401  154.2289 C   0  0  0  0  0  0  0  0  0  0  0  0
  143.9131  146.2376  156.3904 O   0  0  0  0  0  0  0  0  0  0  0  0
  144.1837  145.3110  157.4383 C   0  0  2  0  0  0  0  0  0  0  0  0
  144.8772  146.0639  158.5787 C   0  0  0  0  0  0  0  0  0  0  0  0
  145.0521  144.1651  156.8844 C   0  0  0  0  0  0  0  0  0  0  0  0
  150.0035  141.9168  156.5936 C   0  0  0  0  0  0  0  0  0  0  0  0
  151.0405  141.5670  157.3859 C   0  0  0  0  0  0  0  0  0  0  0  0
  151.9534  140.4792  157.0316 C   0  0  0  0  0  0  0  0  0  0  0  0
  152.8997  140.1372  157.7401 O   0  0  0  0  0  0  0  0  0  0  0  0
  150.1953  135.5320  155.4334 H   0  0  0  0  0  0  0  0  0  0  0  0
  149.4857  136.9356  154.6351 H   0  0  0  0  0  0  0  0  0  0  0  0
  150.4017  137.1346  156.1407 H   0  0  0  0  0  0  0  0  0  0  0  0
  152.4751  138.1363  153.2568 H   0  0  0  0  0  0  0  0  0  0  0  0
  150.8853  138.5970  153.8597 H   0  0  0  0  0  0  0  0  0  0  0  0
  152.6616  138.0358  156.1185 H   0  0  0  0  0  0  0  0  0  0  0  0
  153.4605  139.1390  155.0418 H   0  0  0  0  0  0  0  0  0  0  0  0
  147.8940  142.6339  156.0596 H   0  0  0  0  0  0  0  0  0  0  0  0
  146.5914  143.9580  154.4455 H   0  0  0  0  0  0  0  0  0  0  0  0
  146.4665  142.5397  153.4294 H   0  0  0  0  0  0  0  0  0  0  0  0
  144.6738  141.7936  154.5810 H   0  0  0  0  0  0  0  0  0  0  0  0
  145.5711  141.7742  156.0733 H   0  0  0  0  0  0  0  0  0  0  0  0
  145.0587  144.9119  154.3242 H   0  0  0  0  0  0  0  0  0  0  0  0
  143.6065  144.0406  153.8850 H   0  0  0  0  0  0  0  0  0  0  0  0
  142.2943  145.2470  155.5987 H   0  0  0  0  0  0  0  0  0  0  0  0
  142.4988  146.3369  153.3515 H   0  0  0  0  0  0  0  0  0  0  0  0
  143.9407  147.1919  153.8982 H   0  0  0  0  0  0  0  0  0  0  0  0
  142.3789  147.5328  154.6387 H   0  0  0  0  0  0  0  0  0  0  0  0
  143.2389  144.9080  157.8071 H   0  0  0  0  0  0  0  0  0  0  0  0
  145.0934  145.3976  159.4142 H   0  0  0  0  0  0  0  0  0  0  0  0
  144.2472  146.8714  158.9523 H   0  0  0  0  0  0  0  0  0  0  0  0
  145.8189  146.5022  158.2467 H   0  0  0  0  0  0  0  0  0  0  0  0
  145.2353  143.4383  157.6770 H   0  0  0  0  0  0  0  0  0  0  0  0
  146.0273  144.5582  156.5919 H   0  0  0  0  0  0  0  0  0  0  0  0
  149.3453  142.7240  156.8805 H   0  0  0  0  0  0  0  0  0  0  0  0
  151.2023  142.1049  158.3086 H   0  0  0  0  0  0  0  0  0  0  0  0
  1  2  1  0  0  0  0
  1 25  1  0  0  0  0
  1 26  1  0  0  0  0
  1 27  1  0  0  0  0
  2  3  1  0  0  0  0
  3  4  1  0  0  0  0
  3 28  1  0  0  0  0
  3 29  1  0  0  0  0
  4  5  1  0  0  0  0
  4 30  1  0  0  0  0
  4 31  1  0  0  0  0
  5 23  1  0  0  0  0
  5  6  1  0  0  0  0
  6  7  2  0  0  0  0
  7  8  1  0  0  0  0
  7 21  1  0  0  0  0
  8  9  2  0  0  0  0
  8 10  1  0  0  0  0
 10 11  1  0  0  0  0
 10 32  1  0  0  0  0
 11 12  1  0  0  0  0
 11 33  1  0  0  0  0
 11 34  1  0  0  0  0
 12 13  1  0  0  0  0
 12 35  1  0  0  0  0
 12 36  1  0  0  0  0
 13 20  1  0  0  0  0
 13 14  1  0  0  0  0
 14 15  1  0  0  0  0
 14 37  1  0  0  0  0
 14 38  1  0  0  0  0
 15 16  1  0  0  0  0
 15 17  1  0  0  0  0
 15 39  1  0  0  0  0
 16 40  1  0  0  0  0
 16 41  1  0  0  0  0
 16 42  1  0  0  0  0
 17 18  1  0  0  0  0
 18 19  1  0  0  0  0
 18 20  1  0  0  0  0
 18 43  1  0  0  0  0
 19 44  1  0  0  0  0
 19 45  1  0  0  0  0
 19 46  1  0  0  0  0
 20 47  1  0  0  0  0
 20 48  1  0  0  0  0
 21 22  2  0  0  0  0
 21 49  1  0  0  0  0
 22 23  1  0  0  0  0
 22 50  1  0  0  0  0
 23 24  2  0  0  0  0
M  END
> <s_m_source_file>
AV-unprocessed.smi

> <i_m_source_file_index>
2001

> <i_lp_mmshare_version>
43012

> <i_f3d_flags>
0

> <s_epik_input>
W0NIM11PW0NIMl1bQ0gyXW4xbmMoW2NIXVtjSF1jMT1PKUMoPU8pW05IXVtDSDJdW0NIMl1OMltDSDJdW0NAQEhdKFtDSDNdKU9bQ0BASF0oW0NIM10pW0NIMl0y

> <s_epik_cmdline>
J2VwaWtfcHl0aG9uJywgJy1waCcsICc3LjAnLCAnLXRuJywgJzgnLCAnLW1hJywgJzIwMCcsICctbWV0YWxfYmluZGluZycsICctaW1hZScsICc8aW5maWxlLm1hZT4nLCAnLW9tYWUnLCAnPG91dGZpbGUubWFlPic=

> <r_lp_tautomer_probability>
1

> <r_epik_Ionization_Penalty>
0.206669

> <r_epik_Ionization_Penalty_Charging>
5.55992e-09

> <r_epik_Ionization_Penalty_Neutral>
0.206669

> <r_epik_State_Penalty>
0.196651

> <r_epik_Charging_Adjusted_Penalty>
0.196651

> <i_epik_Tot_Q>
0

> <i_epik_Tot_abs_Q>
0

> <r_epik_Metal_State_Penalty>
0.198372

> <b_epik_Metal_Only>
0

> <s_lp_Force_Field>
OPLS_2005

> <r_lp_Energy>
38.6275

> <b_lp_Chiralities_Consistent>
1

> <s_lp_Variant>
AV-unprocessed.smi:2001-1

> <Gold.Version>
5.8.1

> <Gold.Id.Protein>
6NUR|6NUR_protein|mol2

> <Gold.PLP.Fitness>
49.7641

> <Gold.PLP.PLP>
-40.1438

> <Gold.PLP.part.hbond>
-5.0000

> <Gold.PLP.part.metal>
0.0000

> <Gold.PLP.part.buried>
-5.5701

> <Gold.PLP.part.nonpolar>
-33.2584

> <Gold.PLP.part.repulsive>
3.6431

> <Gold.PLP.ligand.clash>
0.0000

> <Gold.PLP.ligand.torsion>
1.1277

> <Gold.PLP.Chemscore.Hbond>
3.9440

> <Gold.PLP.Chemscore.CHOScore>
0.0000

> <Gold.PLP.Chemscore.Metal>
0.0000

> <Gold.Chemscore.Hbonds>
donor molecule, donor type, donor heavy atom, donor atom, acceptor molecule, acceptor atom, score
      P1  H  7989  7998       L1     6  0.90
      P1  H  7997  8009       L1    24  1.00
      P1  H  8011  8017       L1     9  0.91
      P1  H 10752 10764       L1     2  1.00

> <Gold.PLP.Chemscore.Internal.Correction>
0.0437

> <Gold.Rescore>
     Score         DG    S(hbond)    S(metal)    S(lipo)     H(rot)  DE(clash)    DE(int)     intcor
     15.28     -18.12       2.51        0.00      80.28       2.00       1.59       1.26       ----

> <Gold.Chemscore.Fitness>
15.2801

> <Gold.Chemscore.DG>
-18.1246

> <Gold.Chemscore.ZeroCoef>
-5.4800

> <Gold.Chemscore.Hbond>
2.5082

> <Gold.Chemscore.Metal>
0.0000

> <Gold.Chemscore.Lipo>
80.2758

> <Gold.Chemscore.Internal_Hbond>
0.0000

> <Gold.Chemscore.DEClash>
1.5857

> <Gold.Chemscore.DEInternal>
1.2588

> <Gold.Chemscore.Rot>
2.0020

> <Gold.Chemscore.Internal.Correction>
   9.000000E+99

> <Gold.Chemscore.Hbonds>
donor molecule, donor type, donor heavy atom, donor atom, acceptor molecule, acceptor atom, score
      L1  H    10    32       P1  8028  0.01
      P1  H  7989  7998       L1     6  0.10
      P1  H  7997  8009       L1    24  0.88
      P1  H  8011  8017       L1     9  0.38
      P1  H 10752 10764       L1     2  0.91

> <Gold.Chemscore.Hbond.Weighted>
-8.3775

> <Gold.Chemscore.Metal.Weighted>
-0.0000

> <Gold.Chemscore.Lipo.Weighted>
-9.3923

> <Gold.Chemscore.Internal_Hbond.Weighted>
0.0000

> <Gold.Chemscore.DEClash.Weighted>
1.5857

> <Gold.Chemscore.DEInternal.Weighted>
1.2588

> <Gold.Chemscore.Rot.Weighted>
5.1252

> <Gold.Chemscore.Internal.Correction.Weighted>
   9.000000E+99

> <Gold.Protein.RotatedTorsions>
[ 6907 6896 6895 6894 ] final  -41.89 input  -60.11 | X-H torsion
[ 7974 7965 7964 7962 ] final   92.94 input  175.53 | X-H torsion
[ 8008 7997 7996 7995 ] final  160.97 input   59.86 | X-H torsion
[ 10167 10162 10161 10158 ] final  -86.63 input  -65.29 | X-H torsion
[ 10718 10713 10712 10709 ] final   -1.38 input   66.30 | X-H torsion
[ 10763 10752 10751 10750 ] final  -74.47 input  -60.55 | X-H torsion
[ 11005 11000 10999 10996 ] final  -63.77 input  -57.11 | X-H torsion

> <Gold.Protein.ActiveResidues>
 VAL166  LYS551  ARG553  GLY616  TRP617  ASP618  TYR619  PRO620  LYS621  CYS622 
 ASP623  PHE694  ASN695  SER759  ASP760  ASP761  ALA762  ILE779  LEU786  VAL792 
 PHE793  MET794  SER795  GLU796  ALA797  LYS798  CYS799  TRP800  GLU811  SER814 

> <Gold.Protein.RotatedAtoms>
  150.9615  134.9002  159.7733 H   0  0  0  0  0  0  0  0  0  0  0  0  # atno 6907 bound_to 6896
  152.5158  134.3666  159.9313 H   0  0  0  0  0  0  0  0  0  0  0  0  # atno 6908 bound_to 6896
  151.3678  133.3825  159.2731 H   0  0  0  0  0  0  0  0  0  0  0  0  # atno 6909 bound_to 6896
  145.4856  139.2277  143.2858 H   0  0  0  0  0  0  0  0  0  0  0  0  # atno 7974 bound_to 7965
  156.2136  140.1790  156.7640 H   0  0  0  0  0  0  0  0  0  0  0  0  # atno 8008 bound_to 7997
  154.5758  140.0674  156.9061 H   0  0  0  0  0  0  0  0  0  0  0  0  # atno 8009 bound_to 7997
  155.2590  140.3334  155.4277 H   0  0  0  0  0  0  0  0  0  0  0  0  # atno 8010 bound_to 7997
  140.3923  143.2699  151.9248 H   0  0  0  0  0  0  0  0  0  0  0  0  # atno 10167 bound_to 10162
  156.8065  130.5410  149.5714 H   0  0  0  0  0  0  0  0  0  0  0  0  # atno 10718 bound_to 10713
  154.4735  135.5863  153.6339 H   0  0  0  0  0  0  0  0  0  0  0  0  # atno 10763 bound_to 10752
  152.9838  135.6072  154.3336 H   0  0  0  0  0  0  0  0  0  0  0  0  # atno 10764 bound_to 10752
  154.3220  135.2843  155.2494 H   0  0  0  0  0  0  0  0  0  0  0  0  # atno 10765 bound_to 10752
  141.1404  133.6656  156.5731 H   0  0  0  0  0  0  0  0  0  0  0  0  # atno 11005 bound_to 11000
  146.2315  140.5646  142.8973 LP  0  0  0  0  0  0  0  0  0  0  0  0  # atno 17320 bound_to 7965
  144.7863  140.5944  143.6571 LP  0  0  0  0  0  0  0  0  0  0  0  0  # atno 17321 bound_to 7965
  139.4788  144.5715  151.8080 LP  0  0  0  0  0  0  0  0  0  0  0  0  # atno 17342 bound_to 10162
  140.4827  144.1427  150.5935 LP  0  0  0  0  0  0  0  0  0  0  0  0  # atno 17343 bound_to 10162
  156.1070  130.6011  150.9986 LP  0  0  0  0  0  0  0  0  0  0  0  0  # atno 17370 bound_to 10713
  157.6527  131.0894  150.8015 LP  0  0  0  0  0  0  0  0  0  0  0  0  # atno 17371 bound_to 10713
  140.3897  134.7451  157.4713 LP  0  0  0  0  0  0  0  0  0  0  0  0  # atno 17394 bound_to 11000
  140.0576  134.6042  155.8787 LP  0  0  0  0  0  0  0  0  0  0  0  0  # atno 17395 bound_to 11000

$$$$
