AV-unprocessed.smi:2458|AV-procd|sdf|9709|dock3
  -GOLD-   2272013343D 1   1.00000     0.00000
 Structure written by MMmdl.
 47 48  0  0  0  0  0  0  0  0  1 V2000
  152.6054  144.3686  159.0434 C   0  0  0  0  0  0  0  0  0  0  0  0
  151.9336  143.2164  159.8153 C   0  0  0  0  0  0  0  0  0  0  0  0
  152.9752  142.5764  160.7537 C   0  0  0  0  0  0  0  0  0  0  0  0
  151.2526  142.1779  158.8757 C   0  0  1  0  0  0  0  0  0  0  0  0
  150.4063  142.8526  157.7678 C   0  0  0  0  0  0  0  0  0  0  0  0
  149.7457  141.8322  156.8268 C   0  0  0  0  0  0  0  0  0  0  0  0
  150.7922  140.9083  156.1782 C   0  0  2  0  0  0  0  0  0  0  0  0
  150.1347  139.8813  155.2474 C   0  0  0  0  0  0  0  0  0  0  0  0
  150.7898  139.3347  154.3594 O   0  0  0  0  0  0  0  0  0  0  0  0
  148.8299  139.6439  155.4486 N   0  0  0  0  0  0  0  0  0  0  0  0
  147.9997  138.7679  154.6273 C   0  0  0  0  0  0  0  0  0  0  0  0
  147.0259  139.5451  153.7124 C   0  0  1  0  0  0  0  0  0  0  0  0
  147.6706  140.7224  153.2722 O   0  0  0  0  0  0  0  0  0  0  0  0
  146.5045  138.7090  152.5511 C   0  0  0  0  0  0  0  0  0  0  0  0
  145.7792  137.5218  152.7868 C   0  0  0  0  0  0  0  0  0  0  0  0
  145.3368  136.7638  151.6861 C   0  0  0  0  0  0  0  0  0  0  0  0
  145.6376  137.2262  150.3898 C   0  0  0  0  0  0  0  0  0  0  0  0
  146.3307  138.3598  150.1497 N   0  0  0  0  0  0  0  0  0  0  0  0
  146.7522  139.0803  151.2112 C   0  0  0  0  0  0  0  0  0  0  0  0
  151.6090  140.2032  157.2755 C   0  0  0  0  0  0  0  0  0  0  0  0
  152.2747  141.2173  158.2189 C   0  0  0  0  0  0  0  0  0  0  0  0
  150.5770  141.5734  159.4834 H   0  0  0  0  0  0  0  0  0  0  0  0
  151.4717  141.5246  155.5864 H   0  0  0  0  0  0  0  0  0  0  0  0
  153.3227  143.9922  158.3135 H   0  0  0  0  0  0  0  0  0  0  0  0
  153.1420  145.0347  159.7196 H   0  0  0  0  0  0  0  0  0  0  0  0
  151.8792  144.9871  158.5174 H   0  0  0  0  0  0  0  0  0  0  0  0
  151.1614  143.6598  160.4454 H   0  0  0  0  0  0  0  0  0  0  0  0
  153.7283  142.0230  160.1921 H   0  0  0  0  0  0  0  0  0  0  0  0
  152.5173  141.8944  161.4693 H   0  0  0  0  0  0  0  0  0  0  0  0
  153.4937  143.3343  161.3416 H   0  0  0  0  0  0  0  0  0  0  0  0
  149.6146  143.4608  158.2035 H   0  0  0  0  0  0  0  0  0  0  0  0
  151.0334  143.5302  157.1866 H   0  0  0  0  0  0  0  0  0  0  0  0
  149.0192  141.2450  157.3908 H   0  0  0  0  0  0  0  0  0  0  0  0
  149.1830  142.3604  156.0558 H   0  0  0  0  0  0  0  0  0  0  0  0
  148.3682  140.1359  156.1999 H   0  0  0  0  0  0  0  0  0  0  0  0
  148.6243  138.0908  154.0424 H   0  0  0  0  0  0  0  0  0  0  0  0
  147.4322  138.1427  155.3177 H   0  0  0  0  0  0  0  0  0  0  0  0
  146.1702  139.8644  154.3087 H   0  0  0  0  0  0  0  0  0  0  0  0
  148.3156  140.4861  152.6232 H   0  0  0  0  0  0  0  0  0  0  0  0
  145.5726  137.1895  153.7938 H   0  0  0  0  0  0  0  0  0  0  0  0
  144.7825  135.8485  151.8319 H   0  0  0  0  0  0  0  0  0  0  0  0
  145.3144  136.6693  149.5227 H   0  0  0  0  0  0  0  0  0  0  0  0
  147.3107  139.9764  150.9835 H   0  0  0  0  0  0  0  0  0  0  0  0
  150.9668  139.5391  157.8566 H   0  0  0  0  0  0  0  0  0  0  0  0
  152.3759  139.5720  156.8244 H   0  0  0  0  0  0  0  0  0  0  0  0
  153.0192  141.7930  157.6672 H   0  0  0  0  0  0  0  0  0  0  0  0
  152.8182  140.6544  158.9766 H   0  0  0  0  0  0  0  0  0  0  0  0
  1  2  1  0  0  0  0
  1 24  1  0  0  0  0
  1 25  1  0  0  0  0
  1 26  1  0  0  0  0
  2  3  1  0  0  0  0
  2  4  1  0  0  0  0
  2 27  1  0  0  0  0
  3 28  1  0  0  0  0
  3 29  1  0  0  0  0
  3 30  1  0  0  0  0
  4 22  1  0  0  0  0
  4 21  1  0  0  0  0
  4  5  1  0  0  0  0
  5  6  1  0  0  0  0
  5 31  1  0  0  0  0
  5 32  1  0  0  0  0
  6  7  1  0  0  0  0
  6 33  1  0  0  0  0
  6 34  1  0  0  0  0
  7 23  1  0  0  0  0
  7  8  1  0  0  0  0
  7 20  1  0  0  0  0
  8  9  2  0  0  0  0
  8 10  1  0  0  0  0
 10 11  1  0  0  0  0
 10 35  1  0  0  0  0
 11 12  1  0  0  0  0
 11 36  1  0  0  0  0
 11 37  1  0  0  0  0
 12 13  1  0  0  0  0
 12 14  1  0  0  0  0
 12 38  1  0  0  0  0
 13 39  1  0  0  0  0
 14 19  1  0  0  0  0
 14 15  2  0  0  0  0
 15 16  1  0  0  0  0
 15 40  1  0  0  0  0
 16 17  2  0  0  0  0
 16 41  1  0  0  0  0
 17 18  1  0  0  0  0
 17 42  1  0  0  0  0
 18 19  2  0  0  0  0
 19 43  1  0  0  0  0
 20 21  1  0  0  0  0
 20 44  1  0  0  0  0
 20 45  1  0  0  0  0
 21 46  1  0  0  0  0
 21 47  1  0  0  0  0
M  END
> <s_m_source_file>
AV-unprocessed.smi

> <i_m_source_file_index>
2458

> <i_lp_mmshare_version>
43012

> <i_f3d_flags>
0

> <s_epik_input>
W0NIM11bQ0hdKFtDSDNdKVtDQEhdMVtDSDJdW0NIMl1bQ0BASF0oW0NIMl1bQ0gyXTEpQyg9TylbTkhdW0NIMl1bQ0BIXShbT0hdKWMyW2NIXVtjSF1bY0hdbltjSF0y

> <s_epik_cmdline>
J2VwaWtfcHl0aG9uJywgJy1waCcsICc3LjAnLCAnLXRuJywgJzgnLCAnLW1hJywgJzIwMCcsICctbWV0YWxfYmluZGluZycsICctaW1hZScsICc8aW5maWxlLm1hZT4nLCAnLW9tYWUnLCAnPG91dGZpbGUubWFlPic=

> <r_epik_Ionization_Penalty>
0.00169206

> <r_epik_Ionization_Penalty_Charging>
0

> <r_epik_Ionization_Penalty_Neutral>
0.00169206

> <r_epik_State_Penalty>
0.0011427

> <r_epik_Charging_Adjusted_Penalty>
0.0011427

> <i_epik_Tot_Q>
0

> <i_epik_Tot_abs_Q>
0

> <r_epik_Metal_State_Penalty>
-0

> <b_epik_Metal_Only>
0

> <s_lp_Force_Field>
OPLS_2005

> <r_lp_Energy>
14.1606

> <b_lp_Chiralities_Consistent>
1

> <s_lp_Variant>
AV-unprocessed.smi:2458-2

> <Gold.Version>
5.8.1

> <Gold.Id.Protein>
6NUR|6NUR_protein|mol2

> <Gold.PLP.Fitness>
46.2952

> <Gold.PLP.PLP>
-36.0868

> <Gold.PLP.part.hbond>
-2.9864

> <Gold.PLP.part.metal>
0.0000

> <Gold.PLP.part.buried>
2.0988

> <Gold.PLP.part.nonpolar>
-39.9356

> <Gold.PLP.part.repulsive>
3.2780

> <Gold.PLP.ligand.clash>
0.2360

> <Gold.PLP.ligand.torsion>
1.0656

> <Gold.PLP.Chemscore.Hbond>
2.2576

> <Gold.PLP.Chemscore.CHOScore>
1.9141

> <Gold.PLP.Chemscore.Metal>
0.0000

> <Gold.Chemscore.Hbonds>
donor molecule, donor type, donor heavy atom, donor atom, acceptor molecule, acceptor atom, score
      L1  H    13    39       P1  7957  1.00
      P1  H  7954  7966       L1    18  0.26
      P1  H  7989  7998       L1     9  1.00
      L1  C    17    42       P1  7921  0.46
      L1  C    19    43       P1  7957  0.84

> <Gold.PLP.Chemscore.Internal.Correction>
0.0605

> <Gold.Rescore>
     Score         DG    S(hbond)    S(metal)    S(lipo)     H(rot)  DE(clash)    DE(int)     intcor
     16.05     -20.26       1.69        0.00     123.01       2.06       3.33       0.87       ----

> <Gold.Chemscore.Fitness>
16.0537

> <Gold.Chemscore.DG>
-20.2585

> <Gold.Chemscore.ZeroCoef>
-5.4800

> <Gold.Chemscore.Hbond>
1.6938

> <Gold.Chemscore.Metal>
0.0000

> <Gold.Chemscore.Lipo>
123.0065

> <Gold.Chemscore.Internal_Hbond>
0.0000

> <Gold.Chemscore.DEClash>
3.3336

> <Gold.Chemscore.DEInternal>
0.8712

> <Gold.Chemscore.Rot>
2.0588

> <Gold.Chemscore.Internal.Correction>
   9.000000E+99

> <Gold.Chemscore.Hbonds>
donor molecule, donor type, donor heavy atom, donor atom, acceptor molecule, acceptor atom, score
      L1  H    13    39       P1  7957  0.97
      P1  H  7989  7998       L1     9  0.34

> <Gold.Chemscore.Hbond.Weighted>
-5.6573

> <Gold.Chemscore.Metal.Weighted>
-0.0000

> <Gold.Chemscore.Lipo.Weighted>
-14.3918

> <Gold.Chemscore.Internal_Hbond.Weighted>
0.0000

> <Gold.Chemscore.DEClash.Weighted>
3.3336

> <Gold.Chemscore.DEInternal.Weighted>
0.8712

> <Gold.Chemscore.Rot.Weighted>
5.2705

> <Gold.Chemscore.Internal.Correction.Weighted>
   9.000000E+99

> <Gold.Protein.RotatedTorsions>
[ 6907 6896 6895 6894 ] final   24.03 input  -60.11 | X-H torsion
[ 7974 7965 7964 7962 ] final   16.25 input  175.53 | X-H torsion
[ 8008 7997 7996 7995 ] final  104.70 input   59.86 | X-H torsion
[ 10167 10162 10161 10158 ] final  -75.12 input  -65.29 | X-H torsion
[ 10718 10713 10712 10709 ] final    3.30 input   66.30 | X-H torsion
[ 10763 10752 10751 10750 ] final -148.85 input  -60.55 | X-H torsion
[ 11005 11000 10999 10996 ] final -140.80 input  -57.11 | X-H torsion

> <Gold.Protein.ActiveResidues>
 VAL166  LYS551  ARG553  GLY616  TRP617  ASP618  TYR619  PRO620  LYS621  CYS622 
 ASP623  PHE694  ASN695  SER759  ASP760  ASP761  ALA762  ILE779  LEU786  VAL792 
 PHE793  MET794  SER795  GLU796  ALA797  LYS798  CYS799  TRP800  GLU811  SER814 

> <Gold.Protein.RotatedAtoms>
  151.9513  135.0168  160.0541 H   0  0  0  0  0  0  0  0  0  0  0  0  # atno 6907 bound_to 6896
  152.1951  133.4796  159.5037 H   0  0  0  0  0  0  0  0  0  0  0  0  # atno 6908 bound_to 6896
  150.6943  134.1580  159.4208 H   0  0  0  0  0  0  0  0  0  0  0  0  # atno 6909 bound_to 6896
  146.2255  139.8775  142.8576 H   0  0  0  0  0  0  0  0  0  0  0  0  # atno 7974 bound_to 7965
  156.1596  140.3143  155.8784 H   0  0  0  0  0  0  0  0  0  0  0  0  # atno 8008 bound_to 7997
  155.3809  140.0487  157.3060 H   0  0  0  0  0  0  0  0  0  0  0  0  # atno 8009 bound_to 7997
  154.5134  140.2172  155.9124 H   0  0  0  0  0  0  0  0  0  0  0  0  # atno 8010 bound_to 7997
  140.4969  143.2369  151.7816 H   0  0  0  0  0  0  0  0  0  0  0  0  # atno 10167 bound_to 10162
  156.8757  130.5636  149.5655 H   0  0  0  0  0  0  0  0  0  0  0  0  # atno 10718 bound_to 10713
  154.8210  135.3324  154.7038 H   0  0  0  0  0  0  0  0  0  0  0  0  # atno 10763 bound_to 10752
  153.7671  135.6928  153.4918 H   0  0  0  0  0  0  0  0  0  0  0  0  # atno 10764 bound_to 10752
  153.2070  135.4495  155.0284 H   0  0  0  0  0  0  0  0  0  0  0  0  # atno 10765 bound_to 10752
  140.8387  134.2429  157.4821 H   0  0  0  0  0  0  0  0  0  0  0  0  # atno 11005 bound_to 11000
  145.2545  141.0056  143.3862 LP  0  0  0  0  0  0  0  0  0  0  0  0  # atno 17320 bound_to 7965
  144.9347  139.4257  143.6478 LP  0  0  0  0  0  0  0  0  0  0  0  0  # atno 17321 bound_to 7965
  139.4863  144.4574  151.9581 LP  0  0  0  0  0  0  0  0  0  0  0  0  # atno 17342 bound_to 10162
  140.3662  144.2912  150.5926 LP  0  0  0  0  0  0  0  0  0  0  0  0  # atno 17343 bound_to 10162
  156.0703  130.5737  150.9370 LP  0  0  0  0  0  0  0  0  0  0  0  0  # atno 17370 bound_to 10713
  157.6169  131.0932  150.8693 LP  0  0  0  0  0  0  0  0  0  0  0  0  # atno 17371 bound_to 10713
  139.8703  134.9624  156.4427 LP  0  0  0  0  0  0  0  0  0  0  0  0  # atno 17394 bound_to 11000
  140.8919  133.7842  155.9582 LP  0  0  0  0  0  0  0  0  0  0  0  0  # atno 17395 bound_to 11000

$$$$
