AV-unprocessed.smi:95|AV-procd|sdf|857|dock5
  -GOLD-   2262017303D 1   1.00000     0.00000
 Structure written by MMmdl.
 42 45  0  0  0  0  0  0  0  0  2 V2000
  147.8689  142.6466  153.7632 O   0  0  0  0  0  0  0  0  0  0  0  0
  147.2225  142.2606  154.7385 C   0  0  0  0  0  0  0  0  0  0  0  0
  145.8557  142.6892  155.0159 C   0  0  0  0  0  0  0  0  0  0  0  0
  145.2542  143.5650  154.1934 F   0  0  0  0  0  0  0  0  0  0  0  0
  145.1799  142.2144  156.0843 C   0  0  0  0  0  0  0  0  0  0  0  0
  145.7201  141.3050  156.9771 N   0  0  0  0  0  0  0  0  0  0  0  0
  144.9065  140.8011  158.1456 C   0  0  2  0  0  0  0  0  0  0  0  0
  143.4986  141.4105  158.1222 C   0  0  0  0  0  0  0  0  0  0  0  0
  143.5922  142.4824  159.1884 C   0  0  0  0  0  0  0  0  0  0  0  0
  144.5884  141.8651  160.1619 C   0  0  0  0  0  0  0  0  0  0  0  0
  145.5325  141.2026  159.3293 O   0  0  0  0  0  0  0  0  0  0  0  0
  147.0327  140.8238  156.7810 C   0  0  0  0  0  0  0  0  0  0  0  0
  147.5213  139.9764  157.5321 O   0  0  0  0  0  0  0  0  0  0  0  0
  147.7505  141.3378  155.6755 N   0  0  0  0  0  0  0  0  0  0  0  0
  149.1035  140.8475  155.4662 C   0  0  0  0  0  0  0  0  0  0  0  0
  150.1095  141.1673  156.5657 C   0  0  0  0  0  0  0  0  0  0  0  0
  150.7528  140.1876  157.3580 C   0  0  0  0  0  0  0  0  0  0  0  0
  151.6696  140.5924  158.3496 C   0  0  0  0  0  0  0  0  0  0  0  0
  151.9278  141.9674  158.5308 C   0  0  0  0  0  0  0  0  0  0  0  0
  152.8374  142.4135  159.5116 C   0  0  0  0  0  0  0  0  0  0  0  0
  153.0783  143.7929  159.6710 C   0  0  0  0  0  0  0  0  0  0  0  0
  152.4133  144.7286  158.8532 C   0  0  0  0  0  0  0  0  0  0  0  0
  151.5028  144.2894  157.8715 C   0  0  0  0  0  0  0  0  0  0  0  0
  151.2600  142.9110  157.7110 C   0  0  0  0  0  0  0  0  0  0  0  0
  150.3896  142.4737  156.7744 N   0  3  0  0  0  0  0  0  0  0  0  0
  144.1694  142.5627  156.2382 H   0  0  0  0  0  0  0  0  0  0  0  0
  144.9089  139.7117  158.0948 H   0  0  0  0  0  0  0  0  0  0  0  0
  143.2254  141.7890  157.1363 H   0  0  0  0  0  0  0  0  0  0  0  0
  142.7831  140.6413  158.4155 H   0  0  0  0  0  0  0  0  0  0  0  0
  143.9964  143.4029  158.7658 H   0  0  0  0  0  0  0  0  0  0  0  0
  142.6315  142.7119  159.6501 H   0  0  0  0  0  0  0  0  0  0  0  0
  145.0681  142.6052  160.8025 H   0  0  0  0  0  0  0  0  0  0  0  0
  144.0956  141.1283  160.7979 H   0  0  0  0  0  0  0  0  0  0  0  0
  149.0554  139.7697  155.3057 H   0  0  0  0  0  0  0  0  0  0  0  0
  149.4449  141.2480  154.5096 H   0  0  0  0  0  0  0  0  0  0  0  0
  150.5545  139.1356  157.2165 H   0  0  0  0  0  0  0  0  0  0  0  0
  152.1668  139.8526  158.9601 H   0  0  0  0  0  0  0  0  0  0  0  0
  153.3525  141.7044  160.1433 H   0  0  0  0  0  0  0  0  0  0  0  0
  153.7756  144.1348  160.4220 H   0  0  0  0  0  0  0  0  0  0  0  0
  152.6027  145.7846  158.9791 H   0  0  0  0  0  0  0  0  0  0  0  0
  150.9974  145.0126  157.2478 H   0  0  0  0  0  0  0  0  0  0  0  0
  149.9181  143.1665  156.1932 H   0  0  0  0  0  0  0  0  0  0  0  0
  1  2  2  0  0  0  0
  2 14  1  0  0  0  0
  2  3  1  0  0  0  0
  3  4  1  0  0  0  0
  3  5  2  0  0  0  0
  5  6  1  0  0  0  0
  5 26  1  0  0  0  0
  6  7  1  0  0  0  0
  6 12  1  0  0  0  0
  7 11  1  0  0  0  0
  7  8  1  0  0  0  0
  7 27  1  0  0  0  0
  8  9  1  0  0  0  0
  8 28  1  0  0  0  0
  8 29  1  0  0  0  0
  9 10  1  0  0  0  0
  9 30  1  0  0  0  0
  9 31  1  0  0  0  0
 10 11  1  0  0  0  0
 10 32  1  0  0  0  0
 10 33  1  0  0  0  0
 12 13  2  0  0  0  0
 12 14  1  0  0  0  0
 14 15  1  0  0  0  0
 15 16  1  0  0  0  0
 15 34  1  0  0  0  0
 15 35  1  0  0  0  0
 16 25  1  0  0  0  0
 16 17  2  0  0  0  0
 17 18  1  0  0  0  0
 17 36  1  0  0  0  0
 18 19  2  0  0  0  0
 18 37  1  0  0  0  0
 19 24  1  0  0  0  0
 19 20  1  0  0  0  0
 20 21  2  0  0  0  0
 20 38  1  0  0  0  0
 21 22  1  0  0  0  0
 21 39  1  0  0  0  0
 22 23  2  0  0  0  0
 22 40  1  0  0  0  0
 23 24  1  0  0  0  0
 23 41  1  0  0  0  0
 24 25  2  0  0  0  0
 25 42  1  0  0  0  0
M  CHG  1  25   1
M  END
> <s_m_source_file>
AV-unprocessed.smi

> <i_m_source_file_index>
95

> <i_lp_mmshare_version>
43012

> <i_f3d_flags>
0

> <s_epik_input>
TzFbQ0gyXVtDSDJdW0NIMl1bQ0BIXTFuKFtjSF1jKEYpYzI9TyljKD1PKW4yW0NIMl1jKFtjSF1bY0hdMyluYyhjMzQpW2NIXVtjSF1bY0hdW2NIXTQ=

> <s_epik_cmdline>
J2VwaWtfcHl0aG9uJywgJy1waCcsICc3LjAnLCAnLXRuJywgJzgnLCAnLW1hJywgJzIwMCcsICctbWV0YWxfYmluZGluZycsICctaW1hZScsICc8aW5maWxlLm1hZT4nLCAnLW9tYWUnLCAnPG91dGZpbGUubWFlPic=

> <r_lp_tautomer_probability>
1

> <r_epik_Ionization_Penalty>
1.83445

> <r_epik_Ionization_Penalty_Charging>
1.83445

> <r_epik_Ionization_Penalty_Neutral>
6.33322e-12

> <r_epik_State_Penalty>
1.95069

> <r_epik_Charging_Adjusted_Penalty>
3.78513

> <i_epik_Tot_Q>
1

> <i_epik_Tot_abs_Q>
1

> <r_epik_Metal_State_Penalty>
6.02102

> <b_epik_Metal_Only>
0

> <s_epik_Chemistry_Notes>
This compound contains an acetal/aminal-like group ( X-CH(R)-Y where X, Y are N, S, or O) that may be acid/base labile, releasing an aldehyde.

> <s_lp_Force_Field>
OPLS_2005

> <r_lp_Energy>
36.4977

> <b_lp_Chiralities_Consistent>
1

> <s_lp_Variant>
AV-unprocessed.smi:95-3

> <Gold.Version>
5.8.1

> <Gold.Id.Protein>
6NUR|6NUR_protein|mol2

> <Gold.PLP.Fitness>
50.2434

> <Gold.PLP.PLP>
-40.4811

> <Gold.PLP.part.hbond>
-3.9780

> <Gold.PLP.part.metal>
0.0000

> <Gold.PLP.part.buried>
-2.1515

> <Gold.PLP.part.nonpolar>
-35.1706

> <Gold.PLP.part.repulsive>
1.3212

> <Gold.PLP.ligand.clash>
0.0000

> <Gold.PLP.ligand.torsion>
0.0402

> <Gold.PLP.Chemscore.Hbond>
3.2782

> <Gold.PLP.Chemscore.CHOScore>
0.0000

> <Gold.PLP.Chemscore.Metal>
0.0000

> <Gold.Chemscore.Hbonds>
donor molecule, donor type, donor heavy atom, donor atom, acceptor molecule, acceptor atom, score
      L1  H    25    42       P1  8028  2.00
      P1  H  6934  6946       L1    11  0.72
      P1  H  8011  8017       L1     1  0.01
      P1  H  8022  8030       L1     1  0.37

> <Gold.PLP.Chemscore.Internal.Correction>
0.0080

> <Gold.Rescore>
     Score         DG    S(hbond)    S(metal)    S(lipo)     H(rot)  DE(clash)    DE(int)     intcor
     17.65     -19.79       1.84        0.00     103.62       1.54       0.12       2.02       ----

> <Gold.Chemscore.Fitness>
17.6497

> <Gold.Chemscore.DG>
-19.7880

> <Gold.Chemscore.ZeroCoef>
-5.4800

> <Gold.Chemscore.Hbond>
1.8350

> <Gold.Chemscore.Metal>
0.0000

> <Gold.Chemscore.Lipo>
103.6169

> <Gold.Chemscore.Internal_Hbond>
0.0000

> <Gold.Chemscore.DEClash>
0.1157

> <Gold.Chemscore.DEInternal>
2.0225

> <Gold.Chemscore.Rot>
1.5407

> <Gold.Chemscore.Internal.Correction>
   9.000000E+99

> <Gold.Chemscore.Hbonds>
donor molecule, donor type, donor heavy atom, donor atom, acceptor molecule, acceptor atom, score
      L1  H    25    42       P1  8028  0.99
      P1  H  6934  6946       L1    11  0.14
      P1  H  8011  8017       L1     1  0.01
      P1  H  8022  8030       L1     1  0.36

> <Gold.Chemscore.Hbond.Weighted>
-6.1291

> <Gold.Chemscore.Metal.Weighted>
-0.0000

> <Gold.Chemscore.Lipo.Weighted>
-12.1232

> <Gold.Chemscore.Internal_Hbond.Weighted>
0.0000

> <Gold.Chemscore.DEClash.Weighted>
0.1157

> <Gold.Chemscore.DEInternal.Weighted>
2.0225

> <Gold.Chemscore.Rot.Weighted>
3.9443

> <Gold.Chemscore.Internal.Correction.Weighted>
   9.000000E+99

> <Gold.Protein.RotatedTorsions>
[ 6907 6896 6895 6894 ] final  141.57 input  -60.11 | X-H torsion
[ 7974 7965 7964 7962 ] final -100.55 input  175.53 | X-H torsion
[ 8008 7997 7996 7995 ] final  104.34 input   59.86 | X-H torsion
[ 10167 10162 10161 10158 ] final  -70.84 input  -65.29 | X-H torsion
[ 10718 10713 10712 10709 ] final   51.76 input   66.30 | X-H torsion
[ 10763 10752 10751 10750 ] final -127.90 input  -60.55 | X-H torsion
[ 11005 11000 10999 10996 ] final    4.44 input  -57.11 | X-H torsion

> <Gold.Protein.ActiveResidues>
 VAL166  LYS551  ARG553  GLY616  TRP617  ASP618  TYR619  PRO620  LYS621  CYS622 
 ASP623  PHE694  ASN695  SER759  ASP760  ASP761  ALA762  ILE779  LEU786  VAL792 
 PHE793  MET794  SER795  GLU796  ALA797  LYS798  CYS799  TRP800  GLU811  SER814 

> <Gold.Protein.RotatedAtoms>
  152.2293  133.5045  159.5206 H   0  0  0  0  0  0  0  0  0  0  0  0  # atno 6907 bound_to 6896
  150.7033  134.1237  159.4053 H   0  0  0  0  0  0  0  0  0  0  0  0  # atno 6908 bound_to 6896
  151.9158  135.0319  160.0569 H   0  0  0  0  0  0  0  0  0  0  0  0  # atno 6909 bound_to 6896
  145.2930  140.9358  143.2867 H   0  0  0  0  0  0  0  0  0  0  0  0  # atno 7974 bound_to 7965
  156.1564  140.3149  155.8732 H   0  0  0  0  0  0  0  0  0  0  0  0  # atno 8008 bound_to 7997
  155.3870  140.0491  157.3059 H   0  0  0  0  0  0  0  0  0  0  0  0  # atno 8009 bound_to 7997
  154.5105  140.2163  155.9177 H   0  0  0  0  0  0  0  0  0  0  0  0  # atno 8010 bound_to 7997
  140.5320  143.2321  151.7244 H   0  0  0  0  0  0  0  0  0  0  0  0  # atno 10167 bound_to 10162
  157.5011  130.8438  149.8317 H   0  0  0  0  0  0  0  0  0  0  0  0  # atno 10718 bound_to 10713
  154.8754  135.3946  154.3669 H   0  0  0  0  0  0  0  0  0  0  0  0  # atno 10763 bound_to 10752
  153.4433  135.7027  153.6160 H   0  0  0  0  0  0  0  0  0  0  0  0  # atno 10764 bound_to 10752
  153.4731  135.3786  155.2371 H   0  0  0  0  0  0  0  0  0  0  0  0  # atno 10765 bound_to 10752
  140.5819  134.0005  155.8051 H   0  0  0  0  0  0  0  0  0  0  0  0  # atno 11005 bound_to 11000
  144.9156  139.4474  143.6566 LP  0  0  0  0  0  0  0  0  0  0  0  0  # atno 17320 bound_to 7965
  146.3178  139.7989  142.8969 LP  0  0  0  0  0  0  0  0  0  0  0  0  # atno 17321 bound_to 7965
  139.4957  144.4099  152.0091 LP  0  0  0  0  0  0  0  0  0  0  0  0  # atno 17342 bound_to 10162
  140.3202  144.3436  150.6011 LP  0  0  0  0  0  0  0  0  0  0  0  0  # atno 17343 bound_to 10162
  156.0230  130.3789  150.1906 LP  0  0  0  0  0  0  0  0  0  0  0  0  # atno 17370 bound_to 10713
  157.0096  130.9947  151.3369 LP  0  0  0  0  0  0  0  0  0  0  0  0  # atno 17371 bound_to 10713
  141.0991  133.9797  157.3110 LP  0  0  0  0  0  0  0  0  0  0  0  0  # atno 17394 bound_to 11000
  139.9313  135.0199  156.8410 LP  0  0  0  0  0  0  0  0  0  0  0  0  # atno 17395 bound_to 11000

$$$$
