AV-unprocessed.smi:1073|AV-procd|sdf|4690|dock9
  -GOLD-   22720 3213D 1   1.00000     0.00000
 Structure written by MMmdl.
 44 44  0  0  0  0  0  0  0  0  1 V2000
  148.1936  135.3189  154.8305 C   0  0  0  0  0  0  0  0  0  0  0  0
  148.2680  136.6592  154.2700 N   0  0  0  0  0  0  0  0  0  0  0  0
  148.1590  137.7856  154.9888 C   0  0  0  0  0  0  0  0  0  0  0  0
  147.9738  137.7908  156.2070 O   0  0  0  0  0  0  0  0  0  0  0  0
  148.2579  139.1053  154.2044 C   0  0  1  0  0  0  0  0  0  0  0  0
  147.0605  139.9948  154.6167 C   0  0  0  0  0  0  0  0  0  0  0  0
  147.0970  141.4453  154.0817 C   0  0  0  0  0  0  0  0  0  0  0  0
  145.9433  142.2669  154.6767 C   0  0  0  0  0  0  0  0  0  0  0  0
  147.0640  141.5099  152.5457 C   0  0  0  0  0  0  0  0  0  0  0  0
  149.5004  139.8009  154.5406 N   0  0  0  0  0  0  0  0  0  0  0  0
  149.8924  140.1319  155.7807 C   0  0  0  0  0  0  0  0  0  0  0  0
  149.2208  139.8922  156.7852 O   0  0  0  0  0  0  0  0  0  0  0  0
  151.2435  140.8536  155.8856 C   0  0  0  0  0  0  0  0  0  0  0  0
  151.6346  141.1673  157.2704 N   0  0  0  0  0  0  0  0  0  0  0  0
  151.5419  142.5142  157.6732 C   0  0  0  0  0  0  0  0  0  0  0  0
  151.8766  142.9344  158.9084 C   0  0  0  0  0  0  0  0  0  0  0  0
  151.7112  144.3847  159.3354 C   0  0  0  0  0  0  0  0  0  0  0  0
  152.4217  145.1976  158.5532 F   0  0  0  0  0  0  0  0  0  0  0  0
  150.4301  144.7392  159.2455 F   0  0  0  0  0  0  0  0  0  0  0  0
  152.1054  144.5666  160.5963 F   0  0  0  0  0  0  0  0  0  0  0  0
  152.3149  141.9139  159.8401 C   0  0  0  0  0  0  0  0  0  0  0  0
  152.3979  140.6197  159.4748 C   0  0  0  0  0  0  0  0  0  0  0  0
  152.0504  140.1815  158.1210 C   0  0  0  0  0  0  0  0  0  0  0  0
  152.1264  139.0026  157.7739 O   0  0  0  0  0  0  0  0  0  0  0  0
  148.3440  134.5787  154.0449 H   0  0  0  0  0  0  0  0  0  0  0  0
  147.2174  135.1419  155.2834 H   0  0  0  0  0  0  0  0  0  0  0  0
  148.9626  135.1712  155.5897 H   0  0  0  0  0  0  0  0  0  0  0  0
  148.4190  136.7372  153.2746 H   0  0  0  0  0  0  0  0  0  0  0  0
  148.2229  138.8945  153.1342 H   0  0  0  0  0  0  0  0  0  0  0  0
  146.1317  139.5266  154.2855 H   0  0  0  0  0  0  0  0  0  0  0  0
  147.0007  140.0290  155.7064 H   0  0  0  0  0  0  0  0  0  0  0  0
  148.0228  141.9165  154.4133 H   0  0  0  0  0  0  0  0  0  0  0  0
  144.9746  141.8596  154.3852 H   0  0  0  0  0  0  0  0  0  0  0  0
  145.9829  143.3035  154.3405 H   0  0  0  0  0  0  0  0  0  0  0  0
  145.9863  142.2751  155.7662 H   0  0  0  0  0  0  0  0  0  0  0  0
  146.1818  141.0089  152.1460 H   0  0  0  0  0  0  0  0  0  0  0  0
  147.9444  141.0434  152.1043 H   0  0  0  0  0  0  0  0  0  0  0  0
  147.0443  142.5434  152.1986 H   0  0  0  0  0  0  0  0  0  0  0  0
  150.1042  140.0480  153.7701 H   0  0  0  0  0  0  0  0  0  0  0  0
  152.0136  140.2445  155.4086 H   0  0  0  0  0  0  0  0  0  0  0  0
  151.1897  141.7638  155.2869 H   0  0  0  0  0  0  0  0  0  0  0  0
  151.1706  143.1857  156.9127 H   0  0  0  0  0  0  0  0  0  0  0  0
  152.5836  142.1923  160.8485 H   0  0  0  0  0  0  0  0  0  0  0  0
  152.7287  139.8867  160.1960 H   0  0  0  0  0  0  0  0  0  0  0  0
  1  2  1  0  0  0  0
  1 25  1  0  0  0  0
  1 26  1  0  0  0  0
  1 27  1  0  0  0  0
  2  3  1  0  0  0  0
  2 28  1  0  0  0  0
  3  4  2  0  0  0  0
  3  5  1  0  0  0  0
  5  6  1  0  0  0  0
  5 10  1  0  0  0  0
  5 29  1  0  0  0  0
  6  7  1  0  0  0  0
  6 30  1  0  0  0  0
  6 31  1  0  0  0  0
  7  8  1  0  0  0  0
  7  9  1  0  0  0  0
  7 32  1  0  0  0  0
  8 33  1  0  0  0  0
  8 34  1  0  0  0  0
  8 35  1  0  0  0  0
  9 36  1  0  0  0  0
  9 37  1  0  0  0  0
  9 38  1  0  0  0  0
 10 11  1  0  0  0  0
 10 39  1  0  0  0  0
 11 12  2  0  0  0  0
 11 13  1  0  0  0  0
 13 14  1  0  0  0  0
 13 40  1  0  0  0  0
 13 41  1  0  0  0  0
 14 23  1  0  0  0  0
 14 15  1  0  0  0  0
 15 16  2  0  0  0  0
 15 42  1  0  0  0  0
 16 17  1  0  0  0  0
 16 21  1  0  0  0  0
 17 18  1  0  0  0  0
 17 19  1  0  0  0  0
 17 20  1  0  0  0  0
 21 22  2  0  0  0  0
 21 43  1  0  0  0  0
 22 23  1  0  0  0  0
 22 44  1  0  0  0  0
 23 24  2  0  0  0  0
M  END
> <s_m_source_file>
AV-unprocessed.smi

> <i_m_source_file_index>
1073

> <i_lp_mmshare_version>
43012

> <i_f3d_flags>
0

> <s_epik_input>
W0NIM11bTkhdQyg9TylbQ0BIXShbQ0gyXVtDSF0oW0NIM10pW0NIM10pW05IXUMoPU8pW0NIMl1uMVtjSF1jKEMoRikoRilGKVtjSF1bY0hdYzE9Tw==

> <s_epik_cmdline>
J2VwaWtfcHl0aG9uJywgJy1waCcsICc3LjAnLCAnLXRuJywgJzgnLCAnLW1hJywgJzIwMCcsICctbWV0YWxfYmluZGluZycsICctaW1hZScsICc8aW5maWxlLm1hZT4nLCAnLW9tYWUnLCAnPG91dGZpbGUubWFlPic=

> <r_lp_tautomer_probability>
1

> <r_epik_Ionization_Penalty>
7.02352e-08

> <r_epik_Ionization_Penalty_Charging>
1.57869e-08

> <r_epik_Ionization_Penalty_Neutral>
5.44484e-08

> <r_epik_State_Penalty>
-0

> <r_epik_Charging_Adjusted_Penalty>
1.57869e-08

> <i_epik_Tot_Q>
0

> <i_epik_Tot_abs_Q>
0

> <r_epik_Metal_State_Penalty>
-0

> <b_epik_Metal_Only>
0

> <s_lp_Force_Field>
OPLS_2005

> <r_lp_Energy>
17.6469

> <b_lp_Chiralities_Consistent>
1

> <s_lp_Variant>
AV-unprocessed.smi:1073-2

> <Gold.Version>
5.8.1

> <Gold.Id.Protein>
6NUR|6NUR_protein|mol2

> <Gold.PLP.Fitness>
42.8256

> <Gold.PLP.PLP>
-40.5992

> <Gold.PLP.part.hbond>
-0.9958

> <Gold.PLP.part.metal>
0.0000

> <Gold.PLP.part.buried>
-6.1517

> <Gold.PLP.part.nonpolar>
-31.3430

> <Gold.PLP.part.repulsive>
0.1211

> <Gold.PLP.ligand.clash>
0.0000

> <Gold.PLP.ligand.torsion>
0.4439

> <Gold.PLP.Chemscore.Hbond>
1.0000

> <Gold.PLP.Chemscore.CHOScore>
0.0000

> <Gold.PLP.Chemscore.Metal>
0.0000

> <Gold.Chemscore.Hbonds>
donor molecule, donor type, donor heavy atom, donor atom, acceptor molecule, acceptor atom, score
      L1  H     2    28       P1  7948  1.00

> <Gold.PLP.Chemscore.Internal.Correction>
0.1141

> <Gold.Rescore>
     Score         DG    S(hbond)    S(metal)    S(lipo)     H(rot)  DE(clash)    DE(int)     intcor
      6.51     -12.45       1.00        0.00      86.15       2.51       1.57       4.37       ----

> <Gold.Chemscore.Fitness>
6.5148

> <Gold.Chemscore.DG>
-12.4505

> <Gold.Chemscore.ZeroCoef>
-5.4800

> <Gold.Chemscore.Hbond>
0.9968

> <Gold.Chemscore.Metal>
0.0000

> <Gold.Chemscore.Lipo>
86.1475

> <Gold.Chemscore.Internal_Hbond>
0.0000

> <Gold.Chemscore.DEClash>
1.5685

> <Gold.Chemscore.DEInternal>
4.3672

> <Gold.Chemscore.Rot>
2.5149

> <Gold.Chemscore.Internal.Correction>
   9.000000E+99

> <Gold.Chemscore.Hbonds>
donor molecule, donor type, donor heavy atom, donor atom, acceptor molecule, acceptor atom, score
      L1  H     2    28       P1  7948  0.96

> <Gold.Chemscore.Hbond.Weighted>
-3.3294

> <Gold.Chemscore.Metal.Weighted>
-0.0000

> <Gold.Chemscore.Lipo.Weighted>
-10.0793

> <Gold.Chemscore.Internal_Hbond.Weighted>
0.0000

> <Gold.Chemscore.DEClash.Weighted>
1.5685

> <Gold.Chemscore.DEInternal.Weighted>
4.3672

> <Gold.Chemscore.Rot.Weighted>
6.4381

> <Gold.Chemscore.Internal.Correction.Weighted>
   9.000000E+99

> <Gold.Protein.RotatedTorsions>
[ 6907 6896 6895 6894 ] final   21.06 input  -60.11 | X-H torsion
[ 7974 7965 7964 7962 ] final  122.48 input  175.53 | X-H torsion
[ 8008 7997 7996 7995 ] final  156.79 input   59.86 | X-H torsion
[ 10167 10162 10161 10158 ] final  -59.27 input  -65.29 | X-H torsion
[ 10718 10713 10712 10709 ] final -101.69 input   66.30 | X-H torsion
[ 10763 10752 10751 10750 ] final -166.62 input  -60.55 | X-H torsion
[ 11005 11000 10999 10996 ] final  -26.66 input  -57.11 | X-H torsion

> <Gold.Protein.ActiveResidues>
 VAL166  LYS551  ARG553  GLY616  TRP617  ASP618  TYR619  PRO620  LYS621  CYS622 
 ASP623  PHE694  ASN695  SER759  ASP760  ASP761  ALA762  ILE779  LEU786  VAL792 
 PHE793  MET794  SER795  GLU796  ALA797  LYS798  CYS799  TRP800  GLU811  SER814 

> <Gold.Protein.RotatedAtoms>
  151.9060  135.0359  160.0510 H   0  0  0  0  0  0  0  0  0  0  0  0  # atno 6907 bound_to 6896
  152.2319  133.5060  159.5229 H   0  0  0  0  0  0  0  0  0  0  0  0  # atno 6908 bound_to 6896
  150.7028  134.1122  159.4047 H   0  0  0  0  0  0  0  0  0  0  0  0  # atno 6909 bound_to 6896
  145.1071  139.3478  143.4782 H   0  0  0  0  0  0  0  0  0  0  0  0  # atno 7974 bound_to 7965
  156.2402  140.1903  156.7010 H   0  0  0  0  0  0  0  0  0  0  0  0  # atno 8008 bound_to 7997
  154.6182  140.0612  156.9608 H   0  0  0  0  0  0  0  0  0  0  0  0  # atno 8009 bound_to 7997
  155.1905  140.3284  155.4362 H   0  0  0  0  0  0  0  0  0  0  0  0  # atno 8010 bound_to 7997
  140.6145  143.2398  151.5630 H   0  0  0  0  0  0  0  0  0  0  0  0  # atno 10167 bound_to 10162
  156.0203  130.5385  150.7000 H   0  0  0  0  0  0  0  0  0  0  0  0  # atno 10718 bound_to 10713
  154.6815  135.2955  154.9607 H   0  0  0  0  0  0  0  0  0  0  0  0  # atno 10763 bound_to 10752
  154.0600  135.6632  153.4814 H   0  0  0  0  0  0  0  0  0  0  0  0  # atno 10764 bound_to 10752
  153.0550  135.5150  154.7860 H   0  0  0  0  0  0  0  0  0  0  0  0  # atno 10765 bound_to 10752
  140.9049  133.7499  156.0593 H   0  0  0  0  0  0  0  0  0  0  0  0  # atno 11005 bound_to 11000
  146.3528  140.0973  142.8609 LP  0  0  0  0  0  0  0  0  0  0  0  0  # atno 17320 bound_to 7965
  145.0890  140.9271  143.4780 LP  0  0  0  0  0  0  0  0  0  0  0  0  # atno 17321 bound_to 7965
  139.5388  144.2707  152.1307 LP  0  0  0  0  0  0  0  0  0  0  0  0  # atno 17342 bound_to 10162
  140.1913  144.4749  150.6477 LP  0  0  0  0  0  0  0  0  0  0  0  0  # atno 17343 bound_to 10162
  157.4662  131.0888  151.0692 LP  0  0  0  0  0  0  0  0  0  0  0  0  # atno 17370 bound_to 10713
  157.1165  130.6043  149.5494 LP  0  0  0  0  0  0  0  0  0  0  0  0  # atno 17371 bound_to 10713
  140.8183  134.3319  157.5390 LP  0  0  0  0  0  0  0  0  0  0  0  0  # atno 17394 bound_to 11000
  139.8748  134.9294  156.3477 LP  0  0  0  0  0  0  0  0  0  0  0  0  # atno 17395 bound_to 11000

$$$$
