AV-unprocessed.smi:906|AV-procd|sdf|4102|dock8
  -GOLD-   22720 1593D 1   1.00000     0.00000
 Structure written by MMmdl.
 48 49  0  0  0  0  0  0  0  0  2 V2000
  151.4515  142.9651  157.4328 C   0  0  0  0  0  0  0  0  0  0  0  0
  150.6006  141.8513  156.8610 C   0  0  0  0  0  0  0  0  0  0  0  0
  150.8148  140.4949  157.1867 C   0  0  0  0  0  0  0  0  0  0  0  0
  149.9862  139.5098  156.6113 C   0  0  0  0  0  0  0  0  0  0  0  0
  148.9609  139.8998  155.7215 C   0  0  0  0  0  0  0  0  0  0  0  0
  148.0742  138.8625  155.0546 C   0  0  0  0  0  0  0  0  0  0  0  0
  148.0447  138.9720  153.5175 C   0  0  0  0  0  0  0  0  0  0  0  0
  147.1349  138.0050  152.9072 N   0  0  0  0  0  0  0  0  0  0  0  0
  145.8379  137.8369  153.2200 C   0  0  0  0  0  0  0  0  0  0  0  0
  145.2758  138.5180  154.0789 O   0  0  0  0  0  0  0  0  0  0  0  0
  145.1906  136.9187  152.4621 N   0  0  0  0  0  0  0  0  0  0  0  0
  145.7202  136.2327  151.2746 C   0  0  0  0  0  0  0  0  0  0  0  0
  146.0119  134.7638  151.6378 C   0  0  0  0  0  0  0  0  0  0  0  0
  144.7853  134.1073  152.1113 N   0  0  0  0  0  0  0  0  0  0  0  0
  144.9096  132.6628  152.3717 C   0  0  2  0  0  0  0  0  0  0  0  0
  146.1461  132.2847  153.2168 C   0  0  0  0  0  0  0  0  0  0  0  0
  144.8078  131.8304  151.0709 C   0  0  0  0  0  0  0  0  0  0  0  0
  143.6423  132.0610  150.4650 F   0  0  0  0  0  0  0  0  0  0  0  0
  145.7991  132.0978  150.2208 F   0  0  0  0  0  0  0  0  0  0  0  0
  144.8628  130.5344  151.3777 F   0  0  0  0  0  0  0  0  0  0  0  0
  144.2229  134.8210  153.2643 C   0  0  0  0  0  0  0  0  0  0  0  0
  143.9390  136.2874  152.8885 C   0  0  0  0  0  0  0  0  0  0  0  0
  148.7892  141.2720  155.4391 C   0  0  0  0  0  0  0  0  0  0  0  0
  149.6051  142.1848  156.0092 N   0  3  0  0  0  0  0  0  0  0  0  0
  152.2493  142.5669  158.0607 H   0  0  0  0  0  0  0  0  0  0  0  0
  150.8423  143.6354  158.0397 H   0  0  0  0  0  0  0  0  0  0  0  0
  151.9085  143.5449  156.6304 H   0  0  0  0  0  0  0  0  0  0  0  0
  151.6064  140.2096  157.8643 H   0  0  0  0  0  0  0  0  0  0  0  0
  150.1461  138.4665  156.8422 H   0  0  0  0  0  0  0  0  0  0  0  0
  148.4073  137.8649  155.3446 H   0  0  0  0  0  0  0  0  0  0  0  0
  147.0622  138.9684  155.4470 H   0  0  0  0  0  0  0  0  0  0  0  0
  147.7132  139.9705  153.2319 H   0  0  0  0  0  0  0  0  0  0  0  0
  149.0515  138.8617  153.1109 H   0  0  0  0  0  0  0  0  0  0  0  0
  147.5187  137.4198  152.1791 H   0  0  0  0  0  0  0  0  0  0  0  0
  144.9834  136.2818  150.4713 H   0  0  0  0  0  0  0  0  0  0  0  0
  146.6237  136.6878  150.8699 H   0  0  0  0  0  0  0  0  0  0  0  0
  146.4017  134.2575  150.7572 H   0  0  0  0  0  0  0  0  0  0  0  0
  146.7866  134.7246  152.4043 H   0  0  0  0  0  0  0  0  0  0  0  0
  144.0295  132.3890  152.9552 H   0  0  0  0  0  0  0  0  0  0  0  0
  146.1246  131.2251  153.4723 H   0  0  0  0  0  0  0  0  0  0  0  0
  146.1868  132.8356  154.1557 H   0  0  0  0  0  0  0  0  0  0  0  0
  147.0776  132.4642  152.6800 H   0  0  0  0  0  0  0  0  0  0  0  0
  143.2935  134.3443  153.5775 H   0  0  0  0  0  0  0  0  0  0  0  0
  144.9075  134.7822  154.1120 H   0  0  0  0  0  0  0  0  0  0  0  0
  143.4754  136.8030  153.7305 H   0  0  0  0  0  0  0  0  0  0  0  0
  143.2120  136.3361  152.0763 H   0  0  0  0  0  0  0  0  0  0  0  0
  148.0394  141.6630  154.7671 H   0  0  0  0  0  0  0  0  0  0  0  0
  149.4667  143.1699  155.7826 H   0  0  0  0  0  0  0  0  0  0  0  0
  1  2  1  0  0  0  0
  1 25  1  0  0  0  0
  1 26  1  0  0  0  0
  1 27  1  0  0  0  0
  2 24  1  0  0  0  0
  2  3  2  0  0  0  0
  3  4  1  0  0  0  0
  3 28  1  0  0  0  0
  4  5  2  0  0  0  0
  4 29  1  0  0  0  0
  5  6  1  0  0  0  0
  5 23  1  0  0  0  0
  6  7  1  0  0  0  0
  6 30  1  0  0  0  0
  6 31  1  0  0  0  0
  7  8  1  0  0  0  0
  7 32  1  0  0  0  0
  7 33  1  0  0  0  0
  8  9  1  0  0  0  0
  8 34  1  0  0  0  0
  9 10  2  0  0  0  0
  9 11  1  0  0  0  0
 11 22  1  0  0  0  0
 11 12  1  0  0  0  0
 12 13  1  0  0  0  0
 12 35  1  0  0  0  0
 12 36  1  0  0  0  0
 13 14  1  0  0  0  0
 13 37  1  0  0  0  0
 13 38  1  0  0  0  0
 14 15  1  0  0  0  0
 14 21  1  0  0  0  0
 15 16  1  0  0  0  0
 15 17  1  0  0  0  0
 15 39  1  0  0  0  0
 16 40  1  0  0  0  0
 16 41  1  0  0  0  0
 16 42  1  0  0  0  0
 17 18  1  0  0  0  0
 17 19  1  0  0  0  0
 17 20  1  0  0  0  0
 21 22  1  0  0  0  0
 21 43  1  0  0  0  0
 21 44  1  0  0  0  0
 22 45  1  0  0  0  0
 22 46  1  0  0  0  0
 23 24  2  0  0  0  0
 23 47  1  0  0  0  0
 24 48  1  0  0  0  0
M  CHG  1  24   1
M  END
> <s_m_source_file>
AV-unprocessed.smi

> <i_m_source_file_index>
906

> <i_lp_mmshare_version>
43012

> <i_f3d_flags>
0

> <s_epik_input>
W0NIM11jMVtjSF1bY0hdYyhbY0hdbjEpW0NIMl1bQ0gyXVtOSF1DKD1PKU4yW0NIMl1bQ0gyXU4oW0NASF0oW0NIM10pQyhGKShGKUYpW0NIMl1bQ0gyXTI=

> <s_epik_cmdline>
J2VwaWtfcHl0aG9uJywgJy1waCcsICc3LjAnLCAnLXRuJywgJzgnLCAnLW1hJywgJzIwMCcsICctbWV0YWxfYmluZGluZycsICctaW1hZScsICc8aW5maWxlLm1hZT4nLCAnLW9tYWUnLCAnPG91dGZpbGUubWFlPic=

> <r_epik_Ionization_Penalty>
1.4413

> <r_epik_Ionization_Penalty_Charging>
1.42075

> <r_epik_Ionization_Penalty_Neutral>
0.0205507

> <r_epik_State_Penalty>
1.52216

> <r_epik_Charging_Adjusted_Penalty>
2.94291

> <i_epik_Tot_Q>
1

> <i_epik_Tot_abs_Q>
1

> <r_epik_Metal_State_Penalty>
1.57308

> <b_epik_Metal_Only>
0

> <s_lp_Force_Field>
OPLS_2005

> <r_lp_Energy>
52.9553

> <b_lp_Chiralities_Consistent>
1

> <s_lp_Variant>
AV-unprocessed.smi:906-3

> <Gold.Version>
5.8.1

> <Gold.Id.Protein>
6NUR|6NUR_protein|mol2

> <Gold.PLP.Fitness>
44.2536

> <Gold.PLP.PLP>
-36.3564

> <Gold.PLP.part.hbond>
-2.0000

> <Gold.PLP.part.metal>
0.0000

> <Gold.PLP.part.buried>
-5.5804

> <Gold.PLP.part.nonpolar>
-31.0419

> <Gold.PLP.part.repulsive>
1.4273

> <Gold.PLP.ligand.clash>
0.0000

> <Gold.PLP.ligand.torsion>
0.6258

> <Gold.PLP.Chemscore.Hbond>
2.8160

> <Gold.PLP.Chemscore.CHOScore>
0.0000

> <Gold.PLP.Chemscore.Metal>
0.0000

> <Gold.Chemscore.Hbonds>
donor molecule, donor type, donor heavy atom, donor atom, acceptor molecule, acceptor atom, score
      L1  H     8    34       P1  7948  0.83
      L1  H    24    48       P1  8028  2.00

> <Gold.PLP.Chemscore.Internal.Correction>
0.7007

> <Gold.Rescore>
     Score         DG    S(hbond)    S(metal)    S(lipo)     H(rot)  DE(clash)    DE(int)     intcor
     15.27     -16.09       1.91        0.00      72.31       1.66       0.23       0.59       ----

> <Gold.Chemscore.Fitness>
15.2714

> <Gold.Chemscore.DG>
-16.0938

> <Gold.Chemscore.ZeroCoef>
-5.4800

> <Gold.Chemscore.Hbond>
1.9134

> <Gold.Chemscore.Metal>
0.0000

> <Gold.Chemscore.Lipo>
72.3123

> <Gold.Chemscore.Internal_Hbond>
0.0000

> <Gold.Chemscore.DEClash>
0.2306

> <Gold.Chemscore.DEInternal>
0.5918

> <Gold.Chemscore.Rot>
1.6553

> <Gold.Chemscore.Internal.Correction>
   9.000000E+99

> <Gold.Chemscore.Hbonds>
donor molecule, donor type, donor heavy atom, donor atom, acceptor molecule, acceptor atom, score
      L1  H     8    34       P1  7948  0.83
      L1  H    24    48       P1  8028  1.00

> <Gold.Chemscore.Hbond.Weighted>
-6.3908

> <Gold.Chemscore.Metal.Weighted>
-0.0000

> <Gold.Chemscore.Lipo.Weighted>
-8.4605

> <Gold.Chemscore.Internal_Hbond.Weighted>
0.0000

> <Gold.Chemscore.DEClash.Weighted>
0.2306

> <Gold.Chemscore.DEInternal.Weighted>
0.5918

> <Gold.Chemscore.Rot.Weighted>
4.2376

> <Gold.Chemscore.Internal.Correction.Weighted>
   9.000000E+99

> <Gold.Protein.RotatedTorsions>
[ 6907 6896 6895 6894 ] final -104.58 input  -60.11 | X-H torsion
[ 7974 7965 7964 7962 ] final  -61.29 input  175.53 | X-H torsion
[ 8008 7997 7996 7995 ] final  -77.19 input   59.86 | X-H torsion
[ 10167 10162 10161 10158 ] final   79.04 input  -65.29 | X-H torsion
[ 10718 10713 10712 10709 ] final -167.37 input   66.30 | X-H torsion
[ 10763 10752 10751 10750 ] final -127.79 input  -60.55 | X-H torsion
[ 11005 11000 10999 10996 ] final  -75.52 input  -57.11 | X-H torsion

> <Gold.Protein.ActiveResidues>
 VAL166  LYS551  ARG553  GLY616  TRP617  ASP618  TYR619  PRO620  LYS621  CYS622 
 ASP623  PHE694  ASN695  SER759  ASP760  ASP761  ALA762  ILE779  LEU786  VAL792 
 PHE793  MET794  SER795  GLU796  ALA797  LYS798  CYS799  TRP800  GLU811  SER814 

> <Gold.Protein.RotatedAtoms>
  150.7294  134.0257  159.3715 H   0  0  0  0  0  0  0  0  0  0  0  0  # atno 6907 bound_to 6896
  151.8224  135.0645  160.0436 H   0  0  0  0  0  0  0  0  0  0  0  0  # atno 6908 bound_to 6896
  152.2994  133.5604  159.5645 H   0  0  0  0  0  0  0  0  0  0  0  0  # atno 6909 bound_to 6896
  145.8052  140.8631  143.0210 H   0  0  0  0  0  0  0  0  0  0  0  0  # atno 7974 bound_to 7965
  154.5573  140.0714  156.8764 H   0  0  0  0  0  0  0  0  0  0  0  0  # atno 8008 bound_to 7997
  155.2877  140.3376  155.4236 H   0  0  0  0  0  0  0  0  0  0  0  0  # atno 8009 bound_to 7997
  156.2013  140.1723  156.7879 H   0  0  0  0  0  0  0  0  0  0  0  0  # atno 8010 bound_to 7997
  139.9645  144.5937  150.8041 H   0  0  0  0  0  0  0  0  0  0  0  0  # atno 10167 bound_to 10162
  156.6814  130.9123  151.3057 H   0  0  0  0  0  0  0  0  0  0  0  0  # atno 10718 bound_to 10713
  154.8754  135.3950  154.3651 H   0  0  0  0  0  0  0  0  0  0  0  0  # atno 10763 bound_to 10752
  153.4418  135.7027  153.6169 H   0  0  0  0  0  0  0  0  0  0  0  0  # atno 10764 bound_to 10752
  153.4747  135.3782  155.2379 H   0  0  0  0  0  0  0  0  0  0  0  0  # atno 10765 bound_to 10752
  141.1646  133.6950  156.7529 H   0  0  0  0  0  0  0  0  0  0  0  0  # atno 11005 bound_to 11000
  144.6764  140.0317  143.7482 LP  0  0  0  0  0  0  0  0  0  0  0  0  # atno 17320 bound_to 7965
  145.9835  139.2959  143.1027 LP  0  0  0  0  0  0  0  0  0  0  0  0  # atno 17321 bound_to 7965
  140.7542  143.3023  151.3050 LP  0  0  0  0  0  0  0  0  0  0  0  0  # atno 17342 bound_to 10162
  139.6528  144.0331  152.2638 LP  0  0  0  0  0  0  0  0  0  0  0  0  # atno 17343 bound_to 10162
  157.7042  130.9366  150.0878 LP  0  0  0  0  0  0  0  0  0  0  0  0  # atno 17370 bound_to 10713
  156.1864  130.3652  149.8967 LP  0  0  0  0  0  0  0  0  0  0  0  0  # atno 17371 bound_to 10713
  140.2590  134.8481  157.3741 LP  0  0  0  0  0  0  0  0  0  0  0  0  # atno 17394 bound_to 11000
  140.1629  134.4706  155.7882 LP  0  0  0  0  0  0  0  0  0  0  0  0  # atno 17395 bound_to 11000

$$$$
