AV-unprocessed.smi:3306|AV-procd|sdf|12704|dock10
  -GOLD-   2272019 43D 1   1.00000     0.00000
 Structure written by MMmdl.
 44 45  0  0  0  0  0  0  0  0  2 V2000
  145.9265  143.1825  153.7143 C   0  0  0  0  0  0  0  0  0  0  0  0
  146.0665  142.5554  155.1181 C   0  0  0  0  0  0  0  0  0  0  0  0
  145.2551  143.4108  156.1139 C   0  0  0  0  0  0  0  0  0  0  0  0
  147.4932  142.3934  155.5534 N   0  3  2  0  0  0  0  0  0  0  0  0
  148.2989  141.4910  154.6790 C   0  0  0  0  0  0  0  0  0  0  0  0
  149.7752  141.4438  155.1058 C   0  0  0  0  0  0  0  0  0  0  0  0
  149.9236  141.0054  156.5680 C   0  0  1  0  0  0  0  0  0  0  0  0
  151.3344  141.0756  156.9246 N   0  0  0  0  0  0  0  0  0  0  0  0
  151.5898  140.5603  158.2635 C   0  0  0  0  0  0  0  0  0  0  0  0
  152.7919  141.2720  158.9081 C   0  0  0  0  0  0  0  0  0  0  0  0
  152.4973  142.7078  159.3111 C   0  0  0  0  0  0  0  0  0  0  0  0
  152.5061  143.0850  160.6712 C   0  0  0  0  0  0  0  0  0  0  0  0
  152.2106  144.4223  160.9994 C   0  0  0  0  0  0  0  0  0  0  0  0
  151.9180  145.3268  159.9607 C   0  0  0  0  0  0  0  0  0  0  0  0
  151.9341  144.8516  158.6343 C   0  0  0  0  0  0  0  0  0  0  0  0
  152.2154  143.5714  158.3090 N   0  0  0  0  0  0  0  0  0  0  0  0
  149.0841  141.9457  157.4486 C   0  0  0  0  0  0  0  0  0  0  0  0
  147.6196  141.9844  156.9829 C   0  0  0  0  0  0  0  0  0  0  0  0
  144.8825  143.3953  153.4820 H   0  0  0  0  0  0  0  0  0  0  0  0
  146.2766  142.5147  152.9272 H   0  0  0  0  0  0  0  0  0  0  0  0
  146.4758  144.1218  153.6392 H   0  0  0  0  0  0  0  0  0  0  0  0
  145.6131  141.5636  155.0773 H   0  0  0  0  0  0  0  0  0  0  0  0
  144.2546  143.6141  155.7310 H   0  0  0  0  0  0  0  0  0  0  0  0
  145.7368  144.3722  156.2957 H   0  0  0  0  0  0  0  0  0  0  0  0
  145.1111  142.9160  157.0732 H   0  0  0  0  0  0  0  0  0  0  0  0
  147.8685  140.4885  154.6916 H   0  0  0  0  0  0  0  0  0  0  0  0
  148.2851  141.8340  153.6460 H   0  0  0  0  0  0  0  0  0  0  0  0
  150.3214  140.7610  154.4537 H   0  0  0  0  0  0  0  0  0  0  0  0
  150.2216  142.4297  154.9629 H   0  0  0  0  0  0  0  0  0  0  0  0
  149.5696  139.9779  156.6653 H   0  0  0  0  0  0  0  0  0  0  0  0
  151.8807  140.5433  156.2620 H   0  0  0  0  0  0  0  0  0  0  0  0
  150.7134  140.6813  158.8996 H   0  0  0  0  0  0  0  0  0  0  0  0
  151.7951  139.4913  158.1964 H   0  0  0  0  0  0  0  0  0  0  0  0
  153.1009  140.7208  159.7970 H   0  0  0  0  0  0  0  0  0  0  0  0
  153.6481  141.2520  158.2321 H   0  0  0  0  0  0  0  0  0  0  0  0
  152.7309  142.3667  161.4459 H   0  0  0  0  0  0  0  0  0  0  0  0
  152.2071  144.7479  162.0291 H   0  0  0  0  0  0  0  0  0  0  0  0
  151.6867  146.3597  160.1751 H   0  0  0  0  0  0  0  0  0  0  0  0
  151.7137  145.5171  157.8127 H   0  0  0  0  0  0  0  0  0  0  0  0
  149.1141  141.6299  158.4911 H   0  0  0  0  0  0  0  0  0  0  0  0
  149.5006  142.9540  157.4204 H   0  0  0  0  0  0  0  0  0  0  0  0
  147.0946  142.6781  157.6361 H   0  0  0  0  0  0  0  0  0  0  0  0
  147.1573  141.0061  157.1240 H   0  0  0  0  0  0  0  0  0  0  0  0
  147.9172  143.3071  155.4770 H   0  0  0  0  0  0  0  0  0  0  0  0
  1  2  1  0  0  0  0
  1 19  1  0  0  0  0
  1 20  1  0  0  0  0
  1 21  1  0  0  0  0
  2  3  1  0  0  0  0
  2  4  1  0  0  0  0
  2 22  1  0  0  0  0
  3 23  1  0  0  0  0
  3 24  1  0  0  0  0
  3 25  1  0  0  0  0
  4 18  1  0  0  0  0
  4  5  1  0  0  0  0
  4 44  1  0  0  0  0
  5  6  1  0  0  0  0
  5 26  1  0  0  0  0
  5 27  1  0  0  0  0
  6  7  1  0  0  0  0
  6 28  1  0  0  0  0
  6 29  1  0  0  0  0
  7  8  1  0  0  0  0
  7 17  1  0  0  0  0
  7 30  1  0  0  0  0
  8  9  1  0  0  0  0
  8 31  1  0  0  0  0
  9 10  1  0  0  0  0
  9 32  1  0  0  0  0
  9 33  1  0  0  0  0
 10 11  1  0  0  0  0
 10 34  1  0  0  0  0
 10 35  1  0  0  0  0
 11 16  1  0  0  0  0
 11 12  2  0  0  0  0
 12 13  1  0  0  0  0
 12 36  1  0  0  0  0
 13 14  2  0  0  0  0
 13 37  1  0  0  0  0
 14 15  1  0  0  0  0
 14 38  1  0  0  0  0
 15 16  2  0  0  0  0
 15 39  1  0  0  0  0
 17 18  1  0  0  0  0
 17 40  1  0  0  0  0
 17 41  1  0  0  0  0
 18 42  1  0  0  0  0
 18 43  1  0  0  0  0
M  CHG  1   4   1
M  END
> <s_m_source_file>
AV-unprocessed.smi

> <i_m_source_file_index>
3306

> <i_lp_mmshare_version>
43012

> <i_f3d_flags>
0

> <s_epik_input>
W0NIM11bQ0hdKFtDSDNdKU4xW0NIMl1bQ0gyXVtDSF0oW0NIMl1bQ0gyXTEpW05IXVtDSDJdW0NIMl1jMltjSF1bY0hdW2NIXVtjSF1uMg==

> <s_epik_cmdline>
J2VwaWtfcHl0aG9uJywgJy1waCcsICc3LjAnLCAnLXRuJywgJzgnLCAnLW1hJywgJzIwMCcsICctbWV0YWxfYmluZGluZycsICctaW1hZScsICc8aW5maWxlLm1hZT4nLCAnLW9tYWUnLCAnPG91dGZpbGUubWFlPic=

> <r_epik_Ionization_Penalty>
2.29993

> <r_epik_Ionization_Penalty_Charging>
0.000386008

> <r_epik_Ionization_Penalty_Neutral>
2.29954

> <r_epik_State_Penalty>
2.40593

> <r_epik_Charging_Adjusted_Penalty>
2.40631

> <i_epik_Tot_Q>
1

> <i_epik_Tot_abs_Q>
1

> <r_epik_Metal_State_Penalty>
2.31593

> <b_epik_Metal_Only>
0

> <s_lp_Force_Field>
OPLS_2005

> <r_lp_Energy>
25.7367

> <b_lp_Chiralities_Consistent>
1

> <s_lp_Variant>
AV-unprocessed.smi:3306-4

> <Gold.Version>
5.8.1

> <Gold.Id.Protein>
6NUR|6NUR_protein|mol2

> <Gold.PLP.Fitness>
49.3724

> <Gold.PLP.PLP>
-43.9686

> <Gold.PLP.part.hbond>
-1.0000

> <Gold.PLP.part.metal>
0.0000

> <Gold.PLP.part.buried>
-6.5457

> <Gold.PLP.part.nonpolar>
-35.8950

> <Gold.PLP.part.repulsive>
0.1023

> <Gold.PLP.ligand.clash>
0.0000

> <Gold.PLP.ligand.torsion>
0.3227

> <Gold.PLP.Chemscore.Hbond>
2.0000

> <Gold.PLP.Chemscore.CHOScore>
0.0000

> <Gold.PLP.Chemscore.Metal>
0.0000

> <Gold.Chemscore.Hbonds>
donor molecule, donor type, donor heavy atom, donor atom, acceptor molecule, acceptor atom, score
      L1  H     4    44       P1  8028  2.00

> <Gold.PLP.Chemscore.Internal.Correction>
0.0492

> <Gold.Rescore>
     Score         DG    S(hbond)    S(metal)    S(lipo)     H(rot)  DE(clash)    DE(int)     intcor
     18.41     -19.03       0.93        0.00     120.21       1.41       0.23       0.40       ----

> <Gold.Chemscore.Fitness>
18.4105

> <Gold.Chemscore.DG>
-19.0318

> <Gold.Chemscore.ZeroCoef>
-5.4800

> <Gold.Chemscore.Hbond>
0.9255

> <Gold.Chemscore.Metal>
0.0000

> <Gold.Chemscore.Lipo>
120.2125

> <Gold.Chemscore.Internal_Hbond>
0.0000

> <Gold.Chemscore.DEClash>
0.2262

> <Gold.Chemscore.DEInternal>
0.3951

> <Gold.Chemscore.Rot>
1.4078

> <Gold.Chemscore.Internal.Correction>
   9.000000E+99

> <Gold.Chemscore.Hbonds>
donor molecule, donor type, donor heavy atom, donor atom, acceptor molecule, acceptor atom, score
      L1  H     4    44       P1  8028  0.55

> <Gold.Chemscore.Hbond.Weighted>
-3.0910

> <Gold.Chemscore.Metal.Weighted>
-0.0000

> <Gold.Chemscore.Lipo.Weighted>
-14.0649

> <Gold.Chemscore.Internal_Hbond.Weighted>
0.0000

> <Gold.Chemscore.DEClash.Weighted>
0.2262

> <Gold.Chemscore.DEInternal.Weighted>
0.3951

> <Gold.Chemscore.Rot.Weighted>
3.6041

> <Gold.Chemscore.Internal.Correction.Weighted>
   9.000000E+99

> <Gold.Protein.RotatedTorsions>
[ 6907 6896 6895 6894 ] final   90.20 input  -60.11 | X-H torsion
[ 7974 7965 7964 7962 ] final -107.41 input  175.53 | X-H torsion
[ 8008 7997 7996 7995 ] final  119.22 input   59.86 | X-H torsion
[ 10167 10162 10161 10158 ] final   20.98 input  -65.29 | X-H torsion
[ 10718 10713 10712 10709 ] final  138.39 input   66.30 | X-H torsion
[ 10763 10752 10751 10750 ] final   64.54 input  -60.55 | X-H torsion
[ 11005 11000 10999 10996 ] final  136.67 input  -57.11 | X-H torsion

> <Gold.Protein.ActiveResidues>
 VAL166  LYS551  ARG553  GLY616  TRP617  ASP618  TYR619  PRO620  LYS621  CYS622 
 ASP623  PHE694  ASN695  SER759  ASP760  ASP761  ALA762  ILE779  LEU786  VAL792 
 PHE793  MET794  SER795  GLU796  ALA797  LYS798  CYS799  TRP800  GLU811  SER814 

> <Gold.Protein.RotatedAtoms>
  152.5443  134.1848  159.8649 H   0  0  0  0  0  0  0  0  0  0  0  0  # atno 6907 bound_to 6896
  151.1847  133.4696  159.2602 H   0  0  0  0  0  0  0  0  0  0  0  0  # atno 6908 bound_to 6896
  151.1143  135.0056  159.8564 H   0  0  0  0  0  0  0  0  0  0  0  0  # atno 6909 bound_to 6896
  145.2057  140.9075  143.3343 H   0  0  0  0  0  0  0  0  0  0  0  0  # atno 7974 bound_to 7965
  156.2585  140.2857  156.0957 H   0  0  0  0  0  0  0  0  0  0  0  0  # atno 8008 bound_to 7997
  155.1414  140.0395  157.2817 H   0  0  0  0  0  0  0  0  0  0  0  0  # atno 8009 bound_to 7997
  154.6527  140.2548  155.7202 H   0  0  0  0  0  0  0  0  0  0  0  0  # atno 8010 bound_to 7997
  140.5462  143.9590  150.6549 H   0  0  0  0  0  0  0  0  0  0  0  0  # atno 10167 bound_to 10162
  157.4258  131.1043  151.0304 H   0  0  0  0  0  0  0  0  0  0  0  0  # atno 10718 bound_to 10713
  153.0060  135.5389  154.6527 H   0  0  0  0  0  0  0  0  0  0  0  0  # atno 10763 bound_to 10752
  154.5755  135.2845  155.0787 H   0  0  0  0  0  0  0  0  0  0  0  0  # atno 10764 bound_to 10752
  154.1936  135.6496  153.5119 H   0  0  0  0  0  0  0  0  0  0  0  0  # atno 10765 bound_to 10752
  140.0062  134.9458  157.0180 H   0  0  0  0  0  0  0  0  0  0  0  0  # atno 11005 bound_to 11000
  144.9904  139.3695  143.6217 LP  0  0  0  0  0  0  0  0  0  0  0  0  # atno 17320 bound_to 7965
  146.3408  139.9084  142.8784 LP  0  0  0  0  0  0  0  0  0  0  0  0  # atno 17321 bound_to 7965
  140.3004  143.3264  152.0977 LP  0  0  0  0  0  0  0  0  0  0  0  0  # atno 17342 bound_to 10162
  139.5008  144.6700  151.6265 LP  0  0  0  0  0  0  0  0  0  0  0  0  # atno 17343 bound_to 10162
  157.1218  130.6065  149.5507 LP  0  0  0  0  0  0  0  0  0  0  0  0  # atno 17370 bound_to 10713
  155.9896  130.4944  150.7221 LP  0  0  0  0  0  0  0  0  0  0  0  0  # atno 17371 bound_to 10713
  140.4637  134.1458  155.7194 LP  0  0  0  0  0  0  0  0  0  0  0  0  # atno 17394 bound_to 11000
  141.1678  133.8668  157.1661 LP  0  0  0  0  0  0  0  0  0  0  0  0  # atno 17395 bound_to 11000

$$$$
