AV-unprocessed.smi:2242|AV-procd|sdf|9061|dock1
  -GOLD-   2272012263D 1   1.00000     0.00000
 Structure written by MMmdl.
 43 44  0  0  0  0  0  0  0  0  1 V2000
  144.3077  132.8605  149.7459 C   0  0  0  0  0  0  0  0  0  0  0  0
  145.3163  132.3730  150.7649 C   0  0  0  0  0  0  0  0  0  0  0  0
  145.4003  131.0094  151.1061 C   0  0  0  0  0  0  0  0  0  0  0  0
  146.3606  130.6211  152.0611 C   0  0  0  0  0  0  0  0  0  0  0  0
  146.5034  129.1728  152.4784 C   0  0  0  0  0  0  0  0  0  0  0  0
  147.1989  131.4937  152.6602 N   0  0  0  0  0  0  0  0  0  0  0  0
  147.1271  132.8092  152.3392 C   0  0  0  0  0  0  0  0  0  0  0  0
  147.9579  133.8069  152.9142 N   0  0  0  0  0  0  0  0  0  0  0  0
  148.5671  133.7926  154.1128 C   0  0  0  0  0  0  0  0  0  0  0  0
  148.5248  132.8652  154.9219 O   0  0  0  0  0  0  0  0  0  0  0  0
  149.2418  134.9333  154.3232 N   0  0  0  0  0  0  0  0  0  0  0  0
  150.0500  135.2539  155.5004 C   0  0  1  0  0  0  0  0  0  0  0  0
  151.1918  134.2255  155.5780 C   0  0  0  0  0  0  0  0  0  0  0  0
  150.5474  136.7241  155.4439 C   0  0  0  0  0  0  0  0  0  0  0  0
  149.4007  137.7302  155.2159 C   0  0  0  0  0  0  0  0  0  0  0  0
  149.9328  139.1668  155.0888 C   0  0  0  0  0  0  0  0  0  0  0  0
  150.8778  139.2446  154.0296 O   0  0  0  0  0  0  0  0  0  0  0  0
  152.0207  138.4293  154.2561 C   0  0  0  0  0  0  0  0  0  0  0  0
  151.6064  136.9516  154.3434 C   0  0  0  0  0  0  0  0  0  0  0  0
  146.1911  133.2826  151.3923 C   0  0  0  0  0  0  0  0  0  0  0  0
  143.7399  132.0323  149.3208 H   0  0  0  0  0  0  0  0  0  0  0  0
  144.8141  133.3797  148.9317 H   0  0  0  0  0  0  0  0  0  0  0  0
  143.6057  133.5525  150.2115 H   0  0  0  0  0  0  0  0  0  0  0  0
  144.7464  130.2808  150.6496 H   0  0  0  0  0  0  0  0  0  0  0  0
  145.8746  128.5221  151.8703 H   0  0  0  0  0  0  0  0  0  0  0  0
  146.2126  129.0506  153.5221 H   0  0  0  0  0  0  0  0  0  0  0  0
  147.5375  128.8447  152.3687 H   0  0  0  0  0  0  0  0  0  0  0  0
  148.1035  134.6287  152.3473 H   0  0  0  0  0  0  0  0  0  0  0  0
  149.2094  135.6361  153.5994 H   0  0  0  0  0  0  0  0  0  0  0  0
  149.4471  135.1327  156.4022 H   0  0  0  0  0  0  0  0  0  0  0  0
  151.7531  134.3122  156.5078 H   0  0  0  0  0  0  0  0  0  0  0  0
  151.8912  134.3434  154.7496 H   0  0  0  0  0  0  0  0  0  0  0  0
  150.8026  133.2072  155.5404 H   0  0  0  0  0  0  0  0  0  0  0  0
  151.0109  136.9601  156.4032 H   0  0  0  0  0  0  0  0  0  0  0  0
  148.8508  137.4666  154.3114 H   0  0  0  0  0  0  0  0  0  0  0  0
  148.6865  137.6962  156.0378 H   0  0  0  0  0  0  0  0  0  0  0  0
  149.1116  139.8516  154.8774 H   0  0  0  0  0  0  0  0  0  0  0  0
  150.3889  139.4967  156.0236 H   0  0  0  0  0  0  0  0  0  0  0  0
  152.7214  138.5721  153.4332 H   0  0  0  0  0  0  0  0  0  0  0  0
  152.5324  138.7445  155.1667 H   0  0  0  0  0  0  0  0  0  0  0  0
  152.4953  136.3491  154.5294 H   0  0  0  0  0  0  0  0  0  0  0  0
  151.2097  136.6307  153.3792 H   0  0  0  0  0  0  0  0  0  0  0  0
  146.1434  134.3338  151.1461 H   0  0  0  0  0  0  0  0  0  0  0  0
  1  2  1  0  0  0  0
  1 21  1  0  0  0  0
  1 22  1  0  0  0  0
  1 23  1  0  0  0  0
  2 20  1  0  0  0  0
  2  3  2  0  0  0  0
  3  4  1  0  0  0  0
  3 24  1  0  0  0  0
  4  5  1  0  0  0  0
  4  6  2  0  0  0  0
  5 25  1  0  0  0  0
  5 26  1  0  0  0  0
  5 27  1  0  0  0  0
  6  7  1  0  0  0  0
  7  8  1  0  0  0  0
  7 20  2  0  0  0  0
  8  9  1  0  0  0  0
  8 28  1  0  0  0  0
  9 10  2  0  0  0  0
  9 11  1  0  0  0  0
 11 12  1  0  0  0  0
 11 29  1  0  0  0  0
 12 13  1  0  0  0  0
 12 14  1  0  0  0  0
 12 30  1  0  0  0  0
 13 31  1  0  0  0  0
 13 32  1  0  0  0  0
 13 33  1  0  0  0  0
 14 19  1  0  0  0  0
 14 15  1  0  0  0  0
 14 34  1  0  0  0  0
 15 16  1  0  0  0  0
 15 35  1  0  0  0  0
 15 36  1  0  0  0  0
 16 17  1  0  0  0  0
 16 37  1  0  0  0  0
 16 38  1  0  0  0  0
 17 18  1  0  0  0  0
 18 19  1  0  0  0  0
 18 39  1  0  0  0  0
 18 40  1  0  0  0  0
 19 41  1  0  0  0  0
 19 42  1  0  0  0  0
 20 43  1  0  0  0  0
M  END
> <s_m_source_file>
AV-unprocessed.smi

> <i_m_source_file_index>
2242

> <i_lp_mmshare_version>
43012

> <i_f3d_flags>
0

> <s_epik_input>
W0NIM11jMVtjSF1jKFtDSDNdKW5jKFtjSF0xKVtOSF1DKD1PKVtOSF1bQ0BIXShbQ0gzXSlbQ0hdMltDSDJdW0NIMl1PW0NIMl1bQ0gyXTI=

> <s_epik_cmdline>
J2VwaWtfcHl0aG9uJywgJy1waCcsICc3LjAnLCAnLXRuJywgJzgnLCAnLW1hJywgJzIwMCcsICctbWV0YWxfYmluZGluZycsICctaW1hZScsICc8aW5maWxlLm1hZT4nLCAnLW9tYWUnLCAnPG91dGZpbGUubWFlPic=

> <r_lp_tautomer_probability>
1

> <r_epik_Ionization_Penalty>
0.000270135

> <r_epik_Ionization_Penalty_Charging>
0

> <r_epik_Ionization_Penalty_Neutral>
0.000270135

> <r_epik_State_Penalty>
-0

> <r_epik_Charging_Adjusted_Penalty>
0

> <i_epik_Tot_Q>
0

> <i_epik_Tot_abs_Q>
0

> <r_epik_Metal_State_Penalty>
-0

> <b_epik_Metal_Only>
0

> <s_lp_Force_Field>
OPLS_2005

> <r_lp_Energy>
14.0438

> <b_lp_Chiralities_Consistent>
1

> <s_lp_Variant>
AV-unprocessed.smi:2242-2

> <Gold.Version>
5.8.1

> <Gold.Id.Protein>
6NUR|6NUR_protein|mol2

> <Gold.PLP.Fitness>
42.1678

> <Gold.PLP.PLP>
-33.6087

> <Gold.PLP.part.hbond>
-3.0000

> <Gold.PLP.part.metal>
0.0000

> <Gold.PLP.part.buried>
-3.2655

> <Gold.PLP.part.nonpolar>
-26.9938

> <Gold.PLP.part.repulsive>
0.3293

> <Gold.PLP.ligand.clash>
0.0000

> <Gold.PLP.ligand.torsion>
0.2278

> <Gold.PLP.Chemscore.Hbond>
3.0000

> <Gold.PLP.Chemscore.CHOScore>
0.0000

> <Gold.PLP.Chemscore.Metal>
0.0000

> <Gold.Chemscore.Hbonds>
donor molecule, donor type, donor heavy atom, donor atom, acceptor molecule, acceptor atom, score
      L1  H     8    28       P1  7948  1.00
      L1  H    11    29       P1  7948  1.00
      P1  H  7989  7998       L1    17  1.00

> <Gold.PLP.Chemscore.Internal.Correction>
0.0147

> <Gold.Rescore>
     Score         DG    S(hbond)    S(metal)    S(lipo)     H(rot)  DE(clash)    DE(int)     intcor
     17.35     -21.11       2.51        0.00      87.89       1.19       1.38       2.38       ----

> <Gold.Chemscore.Fitness>
17.3517

> <Gold.Chemscore.DG>
-21.1099

> <Gold.Chemscore.ZeroCoef>
-5.4800

> <Gold.Chemscore.Hbond>
2.5137

> <Gold.Chemscore.Metal>
0.0000

> <Gold.Chemscore.Lipo>
87.8878

> <Gold.Chemscore.Internal_Hbond>
0.0000

> <Gold.Chemscore.DEClash>
1.3794

> <Gold.Chemscore.DEInternal>
2.3788

> <Gold.Chemscore.Rot>
1.1909

> <Gold.Chemscore.Internal.Correction>
   9.000000E+99

> <Gold.Chemscore.Hbonds>
donor molecule, donor type, donor heavy atom, donor atom, acceptor molecule, acceptor atom, score
      L1  H     8    28       P1  7948  0.34
      L1  H    11    29       P1  7948  0.58
      P1  H  7989  7998       L1    17  0.34

> <Gold.Chemscore.Hbond.Weighted>
-8.3958

> <Gold.Chemscore.Metal.Weighted>
-0.0000

> <Gold.Chemscore.Lipo.Weighted>
-10.2829

> <Gold.Chemscore.Internal_Hbond.Weighted>
0.0000

> <Gold.Chemscore.DEClash.Weighted>
1.3794

> <Gold.Chemscore.DEInternal.Weighted>
2.3788

> <Gold.Chemscore.Rot.Weighted>
3.0487

> <Gold.Chemscore.Internal.Correction.Weighted>
   9.000000E+99

> <Gold.Protein.RotatedTorsions>
[ 6907 6896 6895 6894 ] final  136.83 input  -60.11 | X-H torsion
[ 7974 7965 7964 7962 ] final  166.73 input  175.53 | X-H torsion
[ 8008 7997 7996 7995 ] final -146.40 input   59.86 | X-H torsion
[ 10167 10162 10161 10158 ] final   65.46 input  -65.29 | X-H torsion
[ 10718 10713 10712 10709 ] final   16.56 input   66.30 | X-H torsion
[ 10763 10752 10751 10750 ] final   58.23 input  -60.55 | X-H torsion
[ 11005 11000 10999 10996 ] final -140.53 input  -57.11 | X-H torsion

> <Gold.Protein.ActiveResidues>
 VAL166  LYS551  ARG553  GLY616  TRP617  ASP618  TYR619  PRO620  LYS621  CYS622 
 ASP623  PHE694  ASN695  SER759  ASP760  ASP761  ALA762  ILE779  LEU786  VAL792 
 PHE793  MET794  SER795  GLU796  ALA797  LYS798  CYS799  TRP800  GLU811  SER814 

> <Gold.Protein.RotatedAtoms>
  152.2849  133.5505  159.5520 H   0  0  0  0  0  0  0  0  0  0  0  0  # atno 6907 bound_to 6896
  150.7211  134.0511  159.3807 H   0  0  0  0  0  0  0  0  0  0  0  0  # atno 6908 bound_to 6896
  151.8420  135.0587  160.0500 H   0  0  0  0  0  0  0  0  0  0  0  0  # atno 6909 bound_to 6896
  144.7451  139.8658  143.6384 H   0  0  0  0  0  0  0  0  0  0  0  0  # atno 7974 bound_to 7965
  155.5587  140.0623  157.2833 H   0  0  0  0  0  0  0  0  0  0  0  0  # atno 8008 bound_to 7997
  154.4397  140.1889  156.0806 H   0  0  0  0  0  0  0  0  0  0  0  0  # atno 8009 bound_to 7997
  156.0462  140.3289  155.7303 H   0  0  0  0  0  0  0  0  0  0  0  0  # atno 8010 bound_to 7997
  140.1111  144.4817  150.6978 H   0  0  0  0  0  0  0  0  0  0  0  0  # atno 10167 bound_to 10162
  157.0696  130.6342  149.5803 H   0  0  0  0  0  0  0  0  0  0  0  0  # atno 10718 bound_to 10713
  152.9866  135.5614  154.5519 H   0  0  0  0  0  0  0  0  0  0  0  0  # atno 10763 bound_to 10752
  154.4954  135.2795  155.1465 H   0  0  0  0  0  0  0  0  0  0  0  0  # atno 10764 bound_to 10752
  154.2917  135.6325  153.5441 H   0  0  0  0  0  0  0  0  0  0  0  0  # atno 10765 bound_to 10752
  140.8413  134.2398  157.4808 H   0  0  0  0  0  0  0  0  0  0  0  0  # atno 11005 bound_to 11000
  146.1316  139.4352  143.0165 LP  0  0  0  0  0  0  0  0  0  0  0  0  # atno 17320 bound_to 7965
  145.7155  141.0092  143.1430 LP  0  0  0  0  0  0  0  0  0  0  0  0  # atno 17321 bound_to 7965
  140.6925  143.2384  151.5091 LP  0  0  0  0  0  0  0  0  0  0  0  0  # atno 17342 bound_to 10162
  139.5619  144.2136  152.1704 LP  0  0  0  0  0  0  0  0  0  0  0  0  # atno 17343 bound_to 10162
  155.9954  130.5021  150.7458 LP  0  0  0  0  0  0  0  0  0  0  0  0  # atno 17370 bound_to 10713
  157.4889  131.0909  151.0450 LP  0  0  0  0  0  0  0  0  0  0  0  0  # atno 17371 bound_to 10713
  139.8703  134.9637  156.4470 LP  0  0  0  0  0  0  0  0  0  0  0  0  # atno 17394 bound_to 11000
  140.8892  133.7861  155.9553 LP  0  0  0  0  0  0  0  0  0  0  0  0  # atno 17395 bound_to 11000

$$$$
