AV-unprocessed.smi:2709|AV-procd|sdf|10463|dock10
  -GOLD-   2272014503D 1   1.00000     0.00000
 Structure written by MMmdl.
 40 42  0  0  0  0  0  0  0  0  1 V2000
  153.9227  140.6259  160.4543 C   0  0  0  0  0  0  0  0  0  0  0  0
  153.6073  141.5541  159.4287 O   0  0  0  0  0  0  0  0  0  0  0  0
  152.4675  142.3547  159.7113 C   0  0  1  0  0  0  0  0  0  0  0  0
  152.5266  142.9669  161.1176 C   0  0  0  0  0  0  0  0  0  0  0  0
  151.7782  144.2883  160.9892 C   0  0  0  0  0  0  0  0  0  0  0  0
  152.1826  144.8039  159.6093 C   0  0  0  0  0  0  0  0  0  0  0  0
  152.3998  143.5509  158.7365 C   0  0  2  0  0  0  0  0  0  0  0  0
  151.3088  143.3752  157.7803 N   0  0  0  0  0  0  0  0  0  0  0  0
  151.0012  142.2258  157.1637 C   0  0  0  0  0  0  0  0  0  0  0  0
  151.6184  141.1755  157.3384 O   0  0  0  0  0  0  0  0  0  0  0  0
  149.9379  142.3786  156.3565 N   0  0  0  0  0  0  0  0  0  0  0  0
  149.3272  141.4160  155.5084 C   0  0  0  0  0  0  0  0  0  0  0  0
  149.8341  140.0996  155.4940 C   0  0  0  0  0  0  0  0  0  0  0  0
  149.2931  139.1312  154.7242 N   0  0  0  0  0  0  0  0  0  0  0  0
  148.2480  139.4768  153.9675 C   0  0  0  0  0  0  0  0  0  0  0  0
  147.6266  138.3934  153.1415 C   0  0  0  0  0  0  0  0  0  0  0  0
  146.5933  138.7186  152.0819 C   0  0  0  0  0  0  0  0  0  0  0  0
  146.1749  138.0071  153.3380 C   0  0  0  0  0  0  0  0  0  0  0  0
  147.6653  140.6777  153.9161 N   0  0  0  0  0  0  0  0  0  0  0  0
  148.2014  141.6532  154.6814 C   0  0  0  0  0  0  0  0  0  0  0  0
  154.7847  140.0310  160.1532 H   0  0  0  0  0  0  0  0  0  0  0  0
  153.0925  139.9427  160.6372 H   0  0  0  0  0  0  0  0  0  0  0  0
  154.1750  141.1283  161.3885 H   0  0  0  0  0  0  0  0  0  0  0  0
  151.5579  141.7565  159.6212 H   0  0  0  0  0  0  0  0  0  0  0  0
  152.0992  142.3150  161.8800 H   0  0  0  0  0  0  0  0  0  0  0  0
  153.5633  143.1663  161.3933 H   0  0  0  0  0  0  0  0  0  0  0  0
  150.7028  144.1082  161.0165 H   0  0  0  0  0  0  0  0  0  0  0  0
  152.0220  144.9893  161.7876 H   0  0  0  0  0  0  0  0  0  0  0  0
  151.4492  145.5010  159.2016 H   0  0  0  0  0  0  0  0  0  0  0  0
  153.1246  145.3473  159.6934 H   0  0  0  0  0  0  0  0  0  0  0  0
  153.3437  143.6478  158.1959 H   0  0  0  0  0  0  0  0  0  0  0  0
  150.7442  144.1881  157.5823 H   0  0  0  0  0  0  0  0  0  0  0  0
  149.4911  143.2835  156.3768 H   0  0  0  0  0  0  0  0  0  0  0  0
  150.6808  139.8194  156.1036 H   0  0  0  0  0  0  0  0  0  0  0  0
  148.3400  137.5992  152.9295 H   0  0  0  0  0  0  0  0  0  0  0  0
  146.2880  139.7573  151.9705 H   0  0  0  0  0  0  0  0  0  0  0  0
  146.6185  138.1394  151.1612 H   0  0  0  0  0  0  0  0  0  0  0  0
  145.9228  136.9517  153.2595 H   0  0  0  0  0  0  0  0  0  0  0  0
  145.5916  138.5731  154.0617 H   0  0  0  0  0  0  0  0  0  0  0  0
  147.7014  142.6077  154.6323 H   0  0  0  0  0  0  0  0  0  0  0  0
  1  2  1  0  0  0  0
  1 21  1  0  0  0  0
  1 22  1  0  0  0  0
  1 23  1  0  0  0  0
  2  3  1  0  0  0  0
  3  7  1  0  0  0  0
  3  4  1  0  0  0  0
  3 24  1  0  0  0  0
  4  5  1  0  0  0  0
  4 25  1  0  0  0  0
  4 26  1  0  0  0  0
  5  6  1  0  0  0  0
  5 27  1  0  0  0  0
  5 28  1  0  0  0  0
  6  7  1  0  0  0  0
  6 29  1  0  0  0  0
  6 30  1  0  0  0  0
  7  8  1  0  0  0  0
  7 31  1  0  0  0  0
  8  9  1  0  0  0  0
  8 32  1  0  0  0  0
  9 10  2  0  0  0  0
  9 11  1  0  0  0  0
 11 12  1  0  0  0  0
 11 33  1  0  0  0  0
 12 20  1  0  0  0  0
 12 13  2  0  0  0  0
 13 14  1  0  0  0  0
 13 34  1  0  0  0  0
 14 15  2  0  0  0  0
 15 16  1  0  0  0  0
 15 19  1  0  0  0  0
 16 18  1  0  0  0  0
 16 17  1  0  0  0  0
 16 35  1  0  0  0  0
 17 18  1  0  0  0  0
 17 36  1  0  0  0  0
 17 37  1  0  0  0  0
 18 38  1  0  0  0  0
 18 39  1  0  0  0  0
 19 20  2  0  0  0  0
 20 40  1  0  0  0  0
M  END
> <s_m_source_file>
AV-unprocessed.smi

> <i_m_source_file_index>
2709

> <i_lp_mmshare_version>
43012

> <i_f3d_flags>
0

> <s_epik_input>
W0NIM11PW0NAQEhdMVtDSDJdW0NIMl1bQ0gyXVtDQEhdMVtOSF1DKD1PKVtOSF1jMltjSF1uYyhuW2NIXTIpW0NIXTNbQ0gyXVtDSDJdMw==

> <s_epik_cmdline>
J2VwaWtfcHl0aG9uJywgJy1waCcsICc3LjAnLCAnLXRuJywgJzgnLCAnLW1hJywgJzIwMCcsICctbWV0YWxfYmluZGluZycsICctaW1hZScsICc8aW5maWxlLm1hZT4nLCAnLW9tYWUnLCAnPG91dGZpbGUubWFlPic=

> <r_lp_tautomer_probability>
1

> <r_epik_Ionization_Penalty>
2.49969e-05

> <r_epik_Ionization_Penalty_Charging>
0

> <r_epik_Ionization_Penalty_Neutral>
2.49969e-05

> <r_epik_State_Penalty>
-0

> <r_epik_Charging_Adjusted_Penalty>
0

> <i_epik_Tot_Q>
0

> <i_epik_Tot_abs_Q>
0

> <r_epik_Metal_State_Penalty>
-0

> <b_epik_Metal_Only>
0

> <s_lp_Force_Field>
OPLS_2005

> <r_lp_Energy>
19.78

> <b_lp_Chiralities_Consistent>
1

> <s_lp_Variant>
AV-unprocessed.smi:2709-4

> <Gold.Version>
5.8.1

> <Gold.Id.Protein>
6NUR|6NUR_protein|mol2

> <Gold.PLP.Fitness>
45.2124

> <Gold.PLP.PLP>
-40.5524

> <Gold.PLP.part.hbond>
-1.0000

> <Gold.PLP.part.metal>
0.0000

> <Gold.PLP.part.buried>
-2.0100

> <Gold.PLP.part.nonpolar>
-38.8168

> <Gold.PLP.part.repulsive>
0.3642

> <Gold.PLP.ligand.clash>
0.0000

> <Gold.PLP.ligand.torsion>
0.4673

> <Gold.PLP.Chemscore.Hbond>
1.0000

> <Gold.PLP.Chemscore.CHOScore>
0.8233

> <Gold.PLP.Chemscore.Metal>
0.0000

> <Gold.Chemscore.Hbonds>
donor molecule, donor type, donor heavy atom, donor atom, acceptor molecule, acceptor atom, score
      L1  H    11    33       P1  8028  1.00
      L1  C    20    40       P1  8028  0.67

> <Gold.PLP.Chemscore.Internal.Correction>
0.1248

> <Gold.Rescore>
     Score         DG    S(hbond)    S(metal)    S(lipo)     H(rot)  DE(clash)    DE(int)     intcor
     13.45     -18.06       0.97        0.00     110.82       1.41       0.19       4.42       ----

> <Gold.Chemscore.Fitness>
13.4477

> <Gold.Chemscore.DG>
-18.0637

> <Gold.Chemscore.ZeroCoef>
-5.4800

> <Gold.Chemscore.Hbond>
0.9675

> <Gold.Chemscore.Metal>
0.0000

> <Gold.Chemscore.Lipo>
110.8177

> <Gold.Chemscore.Internal_Hbond>
0.0000

> <Gold.Chemscore.DEClash>
0.1934

> <Gold.Chemscore.DEInternal>
4.4226

> <Gold.Chemscore.Rot>
1.4114

> <Gold.Chemscore.Internal.Correction>
   9.000000E+99

> <Gold.Chemscore.Hbonds>
donor molecule, donor type, donor heavy atom, donor atom, acceptor molecule, acceptor atom, score
      L1  H    11    33       P1  8028  0.98

> <Gold.Chemscore.Hbond.Weighted>
-3.2313

> <Gold.Chemscore.Metal.Weighted>
-0.0000

> <Gold.Chemscore.Lipo.Weighted>
-12.9657

> <Gold.Chemscore.Internal_Hbond.Weighted>
0.0000

> <Gold.Chemscore.DEClash.Weighted>
0.1934

> <Gold.Chemscore.DEInternal.Weighted>
4.4226

> <Gold.Chemscore.Rot.Weighted>
3.6133

> <Gold.Chemscore.Internal.Correction.Weighted>
   9.000000E+99

> <Gold.Protein.RotatedTorsions>
[ 6907 6896 6895 6894 ] final  176.46 input  -60.11 | X-H torsion
[ 7974 7965 7964 7962 ] final   34.27 input  175.53 | X-H torsion
[ 8008 7997 7996 7995 ] final   77.22 input   59.86 | X-H torsion
[ 10167 10162 10161 10158 ] final -115.22 input  -65.29 | X-H torsion
[ 10718 10713 10712 10709 ] final  -92.42 input   66.30 | X-H torsion
[ 10763 10752 10751 10750 ] final  -11.77 input  -60.55 | X-H torsion
[ 11005 11000 10999 10996 ] final   36.14 input  -57.11 | X-H torsion

> <Gold.Protein.ActiveResidues>
 VAL166  LYS551  ARG553  GLY616  TRP617  ASP618  TYR619  PRO620  LYS621  CYS622 
 ASP623  PHE694  ASN695  SER759  ASP760  ASP761  ALA762  ILE779  LEU786  VAL792 
 PHE793  MET794  SER795  GLU796  ALA797  LYS798  CYS799  TRP800  GLU811  SER814 

> <Gold.Protein.RotatedAtoms>
  151.7197  133.3314  159.3311 H   0  0  0  0  0  0  0  0  0  0  0  0  # atno 6907 bound_to 6896
  150.7658  134.6459  159.6271 H   0  0  0  0  0  0  0  0  0  0  0  0  # atno 6908 bound_to 6896
  152.3660  134.6806  160.0243 H   0  0  0  0  0  0  0  0  0  0  0  0  # atno 6909 bound_to 6896
  146.1364  139.6290  142.9192 H   0  0  0  0  0  0  0  0  0  0  0  0  # atno 7974 bound_to 7965
  155.8385  140.3463  155.5617 H   0  0  0  0  0  0  0  0  0  0  0  0  # atno 8008 bound_to 7997
  155.8166  140.0906  157.1893 H   0  0  0  0  0  0  0  0  0  0  0  0  # atno 8009 bound_to 7997
  154.4004  140.1438  156.3437 H   0  0  0  0  0  0  0  0  0  0  0  0  # atno 8010 bound_to 7997
  140.0925  143.4687  152.1861 H   0  0  0  0  0  0  0  0  0  0  0  0  # atno 10167 bound_to 10162
  156.0002  130.4986  150.5623 H   0  0  0  0  0  0  0  0  0  0  0  0  # atno 10718 bound_to 10713
  153.4886  135.7017  153.5897 H   0  0  0  0  0  0  0  0  0  0  0  0  # atno 10763 bound_to 10752
  153.4079  135.3856  155.2031 H   0  0  0  0  0  0  0  0  0  0  0  0  # atno 10764 bound_to 10752
  154.8718  135.3897  154.4344 H   0  0  0  0  0  0  0  0  0  0  0  0  # atno 10765 bound_to 10752
  140.2355  134.3476  155.7946 H   0  0  0  0  0  0  0  0  0  0  0  0  # atno 11005 bound_to 11000
  145.5146  141.0434  143.2469 LP  0  0  0  0  0  0  0  0  0  0  0  0  # atno 17320 bound_to 7965
  144.7744  139.6662  143.7181 LP  0  0  0  0  0  0  0  0  0  0  0  0  # atno 17321 bound_to 7965
  139.5717  144.7466  151.3874 LP  0  0  0  0  0  0  0  0  0  0  0  0  # atno 17342 bound_to 10162
  140.7021  143.7605  150.7420 LP  0  0  0  0  0  0  0  0  0  0  0  0  # atno 17343 bound_to 10162
  157.3531  131.0737  151.1697 LP  0  0  0  0  0  0  0  0  0  0  0  0  # atno 17370 bound_to 10713
  157.2507  130.6613  149.5930 LP  0  0  0  0  0  0  0  0  0  0  0  0  # atno 17371 bound_to 10713
  141.2214  133.7269  156.8802 LP  0  0  0  0  0  0  0  0  0  0  0  0  # atno 17394 bound_to 11000
  140.1706  134.9102  157.2828 LP  0  0  0  0  0  0  0  0  0  0  0  0  # atno 17395 bound_to 11000

$$$$
