AV-unprocessed.smi:1769|AV-procd|sdf|7154|dock1
  -GOLD-   22720 8393D 1   1.00000     0.00000
 Structure written by MMmdl.
 42 43  0  0  0  0  0  0  0  0  2 V2000
  154.6482  133.8646  162.8777 C   0  0  0  0  0  0  0  0  0  0  0  0
  154.8818  134.9602  163.9204 C   0  0  0  0  0  0  0  0  0  0  0  0
  155.6423  134.7156  164.8575 O   0  0  0  0  0  0  0  0  0  0  0  0
  154.2503  136.1508  163.7832 N   0  0  0  0  0  0  0  0  0  0  0  0
  154.4336  137.3179  164.6557 C   0  0  0  0  0  0  0  0  0  0  0  0
  155.2016  138.4017  163.8774 C   0  0  0  0  0  0  0  0  0  0  0  0
  154.4776  138.7588  162.5644 C   0  0  0  0  0  0  0  0  0  0  0  0
  154.1372  137.4960  161.7388 C   0  0  2  0  0  0  0  0  0  0  0  0
  153.2943  137.8370  160.5044 C   0  0  0  0  0  0  0  0  0  0  0  0
  152.4527  137.0400  160.0881 O   0  0  0  0  0  0  0  0  0  0  0  0
  153.5563  139.0111  159.9073 N   0  0  0  0  0  0  0  0  0  0  0  0
  152.9453  139.4892  158.6694 C   0  0  0  0  0  0  0  0  0  0  0  0
  151.6106  140.2196  158.9207 C   0  0  0  0  0  0  0  0  0  0  0  0
  151.6454  141.6949  158.5590 C   0  0  0  0  0  0  0  0  0  0  0  0
  152.5112  142.5840  159.2350 C   0  0  0  0  0  0  0  0  0  0  0  0
  152.5496  143.9400  158.8493 C   0  0  0  0  0  0  0  0  0  0  0  0
  151.7176  144.3782  157.7990 C   0  0  0  0  0  0  0  0  0  0  0  0
  150.8981  143.5004  157.1796 N   0  3  0  0  0  0  0  0  0  0  0  0
  150.8328  142.1942  157.5184 C   0  0  0  0  0  0  0  0  0  0  0  0
  153.4029  136.4675  162.6278 C   0  0  0  0  0  0  0  0  0  0  0  0
  153.5907  133.6061  162.8167 H   0  0  0  0  0  0  0  0  0  0  0  0
  155.1966  132.9594  163.1412 H   0  0  0  0  0  0  0  0  0  0  0  0
  154.9922  134.1882  161.8951 H   0  0  0  0  0  0  0  0  0  0  0  0
  153.4553  137.6977  164.9543 H   0  0  0  0  0  0  0  0  0  0  0  0
  154.9523  137.0910  165.5859 H   0  0  0  0  0  0  0  0  0  0  0  0
  155.3184  139.2940  164.4927 H   0  0  0  0  0  0  0  0  0  0  0  0
  156.2083  138.0451  163.6553 H   0  0  0  0  0  0  0  0  0  0  0  0
  153.5631  139.3024  162.8076 H   0  0  0  0  0  0  0  0  0  0  0  0
  155.0936  139.4409  161.9770 H   0  0  0  0  0  0  0  0  0  0  0  0
  155.0747  137.0481  161.4026 H   0  0  0  0  0  0  0  0  0  0  0  0
  154.2607  139.6037  160.3234 H   0  0  0  0  0  0  0  0  0  0  0  0
  153.6338  140.1410  158.1293 H   0  0  0  0  0  0  0  0  0  0  0  0
  152.7737  138.6295  158.0213 H   0  0  0  0  0  0  0  0  0  0  0  0
  150.8179  139.7382  158.3470 H   0  0  0  0  0  0  0  0  0  0  0  0
  151.3288  140.1163  159.9693 H   0  0  0  0  0  0  0  0  0  0  0  0
  153.1521  142.2301  160.0294 H   0  0  0  0  0  0  0  0  0  0  0  0
  153.2125  144.6317  159.3486 H   0  0  0  0  0  0  0  0  0  0  0  0
  151.6842  145.3953  157.4367 H   0  0  0  0  0  0  0  0  0  0  0  0
  150.1477  141.5901  156.9417 H   0  0  0  0  0  0  0  0  0  0  0  0
  153.1436  135.5811  162.0471 H   0  0  0  0  0  0  0  0  0  0  0  0
  152.4537  136.8730  162.9829 H   0  0  0  0  0  0  0  0  0  0  0  0
  150.3059  143.8373  156.4203 H   0  0  0  0  0  0  0  0  0  0  0  0
  1  2  1  0  0  0  0
  1 21  1  0  0  0  0
  1 22  1  0  0  0  0
  1 23  1  0  0  0  0
  2  3  2  0  0  0  0
  2  4  1  0  0  0  0
  4 20  1  0  0  0  0
  4  5  1  0  0  0  0
  5  6  1  0  0  0  0
  5 24  1  0  0  0  0
  5 25  1  0  0  0  0
  6  7  1  0  0  0  0
  6 26  1  0  0  0  0
  6 27  1  0  0  0  0
  7  8  1  0  0  0  0
  7 28  1  0  0  0  0
  7 29  1  0  0  0  0
  8  9  1  0  0  0  0
  8 20  1  0  0  0  0
  8 30  1  0  0  0  0
  9 10  2  0  0  0  0
  9 11  1  0  0  0  0
 11 12  1  0  0  0  0
 11 31  1  0  0  0  0
 12 13  1  0  0  0  0
 12 32  1  0  0  0  0
 12 33  1  0  0  0  0
 13 14  1  0  0  0  0
 13 34  1  0  0  0  0
 13 35  1  0  0  0  0
 14 19  1  0  0  0  0
 14 15  2  0  0  0  0
 15 16  1  0  0  0  0
 15 36  1  0  0  0  0
 16 17  2  0  0  0  0
 16 37  1  0  0  0  0
 17 18  1  0  0  0  0
 17 38  1  0  0  0  0
 18 19  2  0  0  0  0
 18 42  1  0  0  0  0
 19 39  1  0  0  0  0
 20 40  1  0  0  0  0
 20 41  1  0  0  0  0
M  CHG  1  18   1
M  END
> <s_m_source_file>
AV-unprocessed.smi

> <i_m_source_file_index>
1769

> <i_lp_mmshare_version>
43012

> <i_f3d_flags>
0

> <s_epik_input>
W0NIM11DKD1PKU4xW0NIMl1bQ0gyXVtDSDJdW0NASF0oW0NIMl0xKUMoPU8pW05IXVtDSDJdW0NIMl1jMltjSF1bY0hdW2NIXW5bY0hdMg==

> <s_epik_cmdline>
J2VwaWtfcHl0aG9uJywgJy1waCcsICc3LjAnLCAnLXRuJywgJzgnLCAnLW1hJywgJzIwMCcsICctbWV0YWxfYmluZGluZycsICctaW1hZScsICc8aW5maWxlLm1hZT4nLCAnLW9tYWUnLCAnPG91dGZpbGUubWFlPic=

> <r_epik_Ionization_Penalty>
2.25127

> <r_epik_Ionization_Penalty_Charging>
2.25127

> <r_epik_Ionization_Penalty_Neutral>
1.02261e-06

> <r_epik_State_Penalty>
2.39841

> <r_epik_Charging_Adjusted_Penalty>
4.64968

> <i_epik_Tot_Q>
1

> <i_epik_Tot_abs_Q>
1

> <r_epik_Metal_State_Penalty>
2.41159

> <b_epik_Metal_Only>
0

> <s_lp_Force_Field>
OPLS_2005

> <r_lp_Energy>
29.6354

> <b_lp_Chiralities_Consistent>
1

> <s_lp_Variant>
AV-unprocessed.smi:1769-4

> <Gold.Version>
5.8.1

> <Gold.Id.Protein>
6NUR|6NUR_protein|mol2

> <Gold.PLP.Fitness>
48.0318

> <Gold.PLP.PLP>
-41.5529

> <Gold.PLP.part.hbond>
-1.9506

> <Gold.PLP.part.metal>
0.0000

> <Gold.PLP.part.buried>
-5.1849

> <Gold.PLP.part.nonpolar>
-35.1733

> <Gold.PLP.part.repulsive>
0.1604

> <Gold.PLP.ligand.clash>
0.0000

> <Gold.PLP.ligand.torsion>
1.2614

> <Gold.PLP.Chemscore.Hbond>
2.9913

> <Gold.PLP.Chemscore.CHOScore>
0.0000

> <Gold.PLP.Chemscore.Metal>
0.0000

> <Gold.Chemscore.Hbonds>
donor molecule, donor type, donor heavy atom, donor atom, acceptor molecule, acceptor atom, score
      L1  H    18    42       P1  8028  2.00
      P1  H  6896  6909       L1    10  1.00

> <Gold.PLP.Chemscore.Internal.Correction>
0.0280

> <Gold.Rescore>
     Score         DG    S(hbond)    S(metal)    S(lipo)     H(rot)  DE(clash)    DE(int)     intcor
     19.08     -20.36       1.93        0.00     107.40       1.61       0.03       1.25       ----

> <Gold.Chemscore.Fitness>
19.0797

> <Gold.Chemscore.DG>
-20.3592

> <Gold.Chemscore.ZeroCoef>
-5.4800

> <Gold.Chemscore.Hbond>
1.9268

> <Gold.Chemscore.Metal>
0.0000

> <Gold.Chemscore.Lipo>
107.3955

> <Gold.Chemscore.Internal_Hbond>
0.0000

> <Gold.Chemscore.DEClash>
0.0310

> <Gold.Chemscore.DEInternal>
1.2485

> <Gold.Chemscore.Rot>
1.6100

> <Gold.Chemscore.Internal.Correction>
   9.000000E+99

> <Gold.Chemscore.Hbonds>
donor molecule, donor type, donor heavy atom, donor atom, acceptor molecule, acceptor atom, score
      L1  H    18    42       P1  8028  0.99
      P1  H  6896  6909       L1    10  0.96

> <Gold.Chemscore.Hbond.Weighted>
-6.4356

> <Gold.Chemscore.Metal.Weighted>
-0.0000

> <Gold.Chemscore.Lipo.Weighted>
-12.5653

> <Gold.Chemscore.Internal_Hbond.Weighted>
0.0000

> <Gold.Chemscore.DEClash.Weighted>
0.0310

> <Gold.Chemscore.DEInternal.Weighted>
1.2485

> <Gold.Chemscore.Rot.Weighted>
4.1216

> <Gold.Chemscore.Internal.Correction.Weighted>
   9.000000E+99

> <Gold.Protein.RotatedTorsions>
[ 6907 6896 6895 6894 ] final  135.63 input  -60.11 | X-H torsion
[ 7974 7965 7964 7962 ] final -163.60 input  175.53 | X-H torsion
[ 8008 7997 7996 7995 ] final   79.57 input   59.86 | X-H torsion
[ 10167 10162 10161 10158 ] final  -82.18 input  -65.29 | X-H torsion
[ 10718 10713 10712 10709 ] final  117.00 input   66.30 | X-H torsion
[ 10763 10752 10751 10750 ] final  -66.95 input  -60.55 | X-H torsion
[ 11005 11000 10999 10996 ] final  152.27 input  -57.11 | X-H torsion

> <Gold.Protein.ActiveResidues>
 VAL166  LYS551  ARG553  GLY616  TRP617  ASP618  TYR619  PRO620  LYS621  CYS622 
 ASP623  PHE694  ASN695  SER759  ASP760  ASP761  ALA762  ILE779  LEU786  VAL792 
 PHE793  MET794  SER795  GLU796  ALA797  LYS798  CYS799  TRP800  GLU811  SER814 

> <Gold.Protein.RotatedAtoms>
  152.2983  133.5630  159.5601 H   0  0  0  0  0  0  0  0  0  0  0  0  # atno 6907 bound_to 6896
  150.7266  134.0328  159.3748 H   0  0  0  0  0  0  0  0  0  0  0  0  # atno 6908 bound_to 6896
  151.8229  135.0646  160.0478 H   0  0  0  0  0  0  0  0  0  0  0  0  # atno 6909 bound_to 6896
  144.7321  140.3083  143.6192 H   0  0  0  0  0  0  0  0  0  0  0  0  # atno 7974 bound_to 7965
  155.8715  140.3449  155.5825 H   0  0  0  0  0  0  0  0  0  0  0  0  # atno 8008 bound_to 7997
  155.7821  140.0860  157.2072 H   0  0  0  0  0  0  0  0  0  0  0  0  # atno 8009 bound_to 7997
  154.4018  140.1499  156.3052 H   0  0  0  0  0  0  0  0  0  0  0  0  # atno 8010 bound_to 7997
  140.4343  143.2537  151.8715 H   0  0  0  0  0  0  0  0  0  0  0  0  # atno 10167 bound_to 10162
  157.6125  131.1032  150.7553 H   0  0  0  0  0  0  0  0  0  0  0  0  # atno 10718 bound_to 10713
  154.3673  135.6103  153.5721 H   0  0  0  0  0  0  0  0  0  0  0  0  # atno 10763 bound_to 10752
  152.9791  135.5829  154.4563 H   0  0  0  0  0  0  0  0  0  0  0  0  # atno 10764 bound_to 10752
  154.4311  135.2848  155.1889 H   0  0  0  0  0  0  0  0  0  0  0  0  # atno 10765 bound_to 10752
  140.1292  134.8813  157.2181 H   0  0  0  0  0  0  0  0  0  0  0  0  # atno 11005 bound_to 11000
  145.7691  139.1851  143.2223 LP  0  0  0  0  0  0  0  0  0  0  0  0  # atno 17320 bound_to 7965
  146.0925  140.7639  142.9588 LP  0  0  0  0  0  0  0  0  0  0  0  0  # atno 17321 bound_to 7965
  139.4786  144.5300  151.8680 LP  0  0  0  0  0  0  0  0  0  0  0  0  # atno 17342 bound_to 10162
  140.4391  144.2010  150.5890 LP  0  0  0  0  0  0  0  0  0  0  0  0  # atno 17343 bound_to 10162
  156.7927  130.4895  149.5382 LP  0  0  0  0  0  0  0  0  0  0  0  0  # atno 17370 bound_to 10713
  156.1233  130.6125  151.0226 LP  0  0  0  0  0  0  0  0  0  0  0  0  # atno 17371 bound_to 10713
  140.2864  134.3291  155.7328 LP  0  0  0  0  0  0  0  0  0  0  0  0  # atno 17394 bound_to 11000
  141.2167  133.7508  156.9438 LP  0  0  0  0  0  0  0  0  0  0  0  0  # atno 17395 bound_to 11000

$$$$
