AV-unprocessed.smi:1686|AV-procd|sdf|6758|dock9
  -GOLD-   22720 7513D 1   1.00000     0.00000
 Structure written by MMmdl.
 41 43  0  0  0  0  0  0  0  0  1 V2000
  151.1231  137.5405  154.2682 C   0  0  0  0  0  0  0  0  0  0  0  0
  150.8877  136.5510  155.3728 C   0  0  0  0  0  0  0  0  0  0  0  0
  151.8817  136.2605  156.2020 N   0  0  0  0  0  0  0  0  0  0  0  0
  151.3726  135.3334  157.1186 O   0  0  0  0  0  0  0  0  0  0  0  0
  150.0809  135.1128  156.7830 C   0  0  0  0  0  0  0  0  0  0  0  0
  149.0720  134.0357  157.6646 Cl  0  0  0  0  0  0  0  0  0  0  0  0
  149.6954  135.8361  155.6912 C   0  0  0  0  0  0  0  0  0  0  0  0
  148.3550  135.8813  154.9976 C   0  0  0  0  0  0  0  0  0  0  0  0
  147.7870  134.4766  154.7612 C   0  0  0  0  0  0  0  0  0  0  0  0
  147.5555  133.7144  155.7012 O   0  0  0  0  0  0  0  0  0  0  0  0
  147.5584  134.1563  153.4780 N   0  0  0  0  0  0  0  0  0  0  0  0
  147.0066  132.8941  152.9862 C   0  0  2  0  0  0  0  0  0  0  0  0
  148.0204  131.7741  153.2655 C   0  0  0  0  0  0  0  0  0  0  0  0
  146.6672  133.0252  151.4813 C   0  0  2  0  0  0  0  0  0  0  0  0
  145.6351  134.1246  151.1361 C   0  0  0  0  0  0  0  0  0  0  0  0
  144.6324  133.3878  150.2292 C   0  0  2  0  0  0  0  0  0  0  0  0
  143.7664  132.4548  151.0950 C   0  0  0  0  0  0  0  0  0  0  0  0
  144.7479  131.3263  151.4600 C   0  0  0  0  0  0  0  0  0  0  0  0
  146.0591  131.7811  150.7863 C   0  0  1  0  0  0  0  0  0  0  0  0
  145.5277  132.3963  149.4953 C   0  0  0  0  0  0  0  0  0  0  0  0
  150.1935  137.8061  153.7649 H   0  0  0  0  0  0  0  0  0  0  0  0
  151.8029  137.1352  153.5187 H   0  0  0  0  0  0  0  0  0  0  0  0
  151.5609  138.4620  154.6526 H   0  0  0  0  0  0  0  0  0  0  0  0
  147.6328  136.4506  155.5834 H   0  0  0  0  0  0  0  0  0  0  0  0
  148.4283  136.3895  154.0356 H   0  0  0  0  0  0  0  0  0  0  0  0
  147.7804  134.8499  152.7786 H   0  0  0  0  0  0  0  0  0  0  0  0
  146.0972  132.6587  153.5391 H   0  0  0  0  0  0  0  0  0  0  0  0
  147.6252  130.8001  152.9770 H   0  0  0  0  0  0  0  0  0  0  0  0
  148.2631  131.7220  154.3275 H   0  0  0  0  0  0  0  0  0  0  0  0
  148.9501  131.9327  152.7181 H   0  0  0  0  0  0  0  0  0  0  0  0
  147.5949  133.2638  150.9571 H   0  0  0  0  0  0  0  0  0  0  0  0
  145.1429  134.5433  152.0146 H   0  0  0  0  0  0  0  0  0  0  0  0
  146.1161  134.9468  150.6052 H   0  0  0  0  0  0  0  0  0  0  0  0
  144.0523  134.0519  149.5875 H   0  0  0  0  0  0  0  0  0  0  0  0
  143.3664  132.9590  151.9753 H   0  0  0  0  0  0  0  0  0  0  0  0
  142.9246  132.0614  150.5237 H   0  0  0  0  0  0  0  0  0  0  0  0
  144.8403  131.1754  152.5346 H   0  0  0  0  0  0  0  0  0  0  0  0
  144.4102  130.3819  151.0312 H   0  0  0  0  0  0  0  0  0  0  0  0
  146.7745  130.9724  150.6346 H   0  0  0  0  0  0  0  0  0  0  0  0
  144.9733  131.6909  148.8736 H   0  0  0  0  0  0  0  0  0  0  0  0
  146.2997  132.8755  148.8904 H   0  0  0  0  0  0  0  0  0  0  0  0
  1  2  1  0  0  0  0
  1 21  1  0  0  0  0
  1 22  1  0  0  0  0
  1 23  1  0  0  0  0
  2  7  1  0  0  0  0
  2  3  2  0  0  0  0
  3  4  1  0  0  0  0
  4  5  1  0  0  0  0
  5  6  1  0  0  0  0
  5  7  2  0  0  0  0
  7  8  1  0  0  0  0
  8  9  1  0  0  0  0
  8 24  1  0  0  0  0
  8 25  1  0  0  0  0
  9 10  2  0  0  0  0
  9 11  1  0  0  0  0
 11 12  1  0  0  0  0
 11 26  1  0  0  0  0
 12 13  1  0  0  0  0
 12 14  1  0  0  0  0
 12 27  1  0  0  0  0
 13 28  1  0  0  0  0
 13 29  1  0  0  0  0
 13 30  1  0  0  0  0
 14 19  1  0  0  0  0
 14 15  1  0  0  0  0
 14 31  1  0  0  0  0
 15 16  1  0  0  0  0
 15 32  1  0  0  0  0
 15 33  1  0  0  0  0
 16 20  1  0  0  0  0
 16 17  1  0  0  0  0
 16 34  1  0  0  0  0
 17 18  1  0  0  0  0
 17 35  1  0  0  0  0
 17 36  1  0  0  0  0
 18 19  1  0  0  0  0
 18 37  1  0  0  0  0
 18 38  1  0  0  0  0
 19 20  1  0  0  0  0
 19 39  1  0  0  0  0
 20 40  1  0  0  0  0
 20 41  1  0  0  0  0
M  END
> <s_m_source_file>
AV-unprocessed.smi

> <i_m_source_file_index>
1686

> <i_lp_mmshare_version>
43012

> <i_f3d_flags>
0

> <s_epik_input>
W0NIM11jMW5vYyhDbCljMVtDSDJdQyg9TylbTkhdW0NASF0oW0NIM10pW0NASF0oW0NIMl1bQ0BIXTIzKVtDQEhdKFtDSDJdMylbQ0gyXVtDSDJdMg==

> <s_epik_cmdline>
J2VwaWtfcHl0aG9uJywgJy1waCcsICc3LjAnLCAnLXRuJywgJzgnLCAnLW1hJywgJzIwMCcsICctbWV0YWxfYmluZGluZycsICctaW1hZScsICc8aW5maWxlLm1hZT4nLCAnLW9tYWUnLCAnPG91dGZpbGUubWFlPic=

> <r_lp_tautomer_probability>
1

> <r_epik_Ionization_Penalty>
2.01576e-08

> <r_epik_Ionization_Penalty_Charging>
0

> <r_epik_Ionization_Penalty_Neutral>
2.01576e-08

> <r_epik_State_Penalty>
-0

> <r_epik_Charging_Adjusted_Penalty>
0

> <i_epik_Tot_Q>
0

> <i_epik_Tot_abs_Q>
0

> <r_epik_Metal_State_Penalty>
-0

> <b_epik_Metal_Only>
0

> <s_lp_Force_Field>
OPLS_2005

> <r_lp_Energy>
47.064

> <b_lp_Chiralities_Consistent>
1

> <s_lp_Variant>
AV-unprocessed.smi:1686-1

> <Gold.Version>
5.8.1

> <Gold.Id.Protein>
6NUR|6NUR_protein|mol2

> <Gold.PLP.Fitness>
37.5979

> <Gold.PLP.PLP>
-32.0572

> <Gold.PLP.part.hbond>
-3.0000

> <Gold.PLP.part.metal>
0.0000

> <Gold.PLP.part.buried>
-1.1368

> <Gold.PLP.part.nonpolar>
-27.4907

> <Gold.PLP.part.repulsive>
0.0173

> <Gold.PLP.ligand.clash>
0.0000

> <Gold.PLP.ligand.torsion>
0.2331

> <Gold.PLP.Chemscore.Hbond>
2.0000

> <Gold.PLP.Chemscore.CHOScore>
0.0000

> <Gold.PLP.Chemscore.Metal>
0.0000

> <Gold.Chemscore.Hbonds>
donor molecule, donor type, donor heavy atom, donor atom, acceptor molecule, acceptor atom, score
      L1  H    11    26       P1  7948  1.00
      P1  H 10752 10764       L1     3  1.00

> <Gold.PLP.Chemscore.Internal.Correction>
0.0069

> <Gold.Rescore>
     Score         DG    S(hbond)    S(metal)    S(lipo)     H(rot)  DE(clash)    DE(int)     intcor
     15.46     -17.45       1.43        0.00      93.60       1.46       0.10       1.90       ----

> <Gold.Chemscore.Fitness>
15.4561

> <Gold.Chemscore.DG>
-17.4528

> <Gold.Chemscore.ZeroCoef>
-5.4800

> <Gold.Chemscore.Hbond>
1.4286

> <Gold.Chemscore.Metal>
0.0000

> <Gold.Chemscore.Lipo>
93.6016

> <Gold.Chemscore.Internal_Hbond>
0.0000

> <Gold.Chemscore.DEClash>
0.0954

> <Gold.Chemscore.DEInternal>
1.9014

> <Gold.Chemscore.Rot>
1.4648

> <Gold.Chemscore.Internal.Correction>
   9.000000E+99

> <Gold.Chemscore.Hbonds>
donor molecule, donor type, donor heavy atom, donor atom, acceptor molecule, acceptor atom, score
      L1  H    11    26       P1  7948  0.89
      P1  H 10752 10764       L1     3  0.28

> <Gold.Chemscore.Hbond.Weighted>
-4.7714

> <Gold.Chemscore.Metal.Weighted>
-0.0000

> <Gold.Chemscore.Lipo.Weighted>
-10.9514

> <Gold.Chemscore.Internal_Hbond.Weighted>
0.0000

> <Gold.Chemscore.DEClash.Weighted>
0.0954

> <Gold.Chemscore.DEInternal.Weighted>
1.9014

> <Gold.Chemscore.Rot.Weighted>
3.7500

> <Gold.Chemscore.Internal.Correction.Weighted>
   9.000000E+99

> <Gold.Protein.RotatedTorsions>
[ 6907 6896 6895 6894 ] final  152.98 input  -60.11 | X-H torsion
[ 7974 7965 7964 7962 ] final  125.40 input  175.53 | X-H torsion
[ 8008 7997 7996 7995 ] final   94.80 input   59.86 | X-H torsion
[ 10167 10162 10161 10158 ] final   45.97 input  -65.29 | X-H torsion
[ 10718 10713 10712 10709 ] final   86.01 input   66.30 | X-H torsion
[ 10763 10752 10751 10750 ] final  -29.90 input  -60.55 | X-H torsion
[ 11005 11000 10999 10996 ] final -109.09 input  -57.11 | X-H torsion

> <Gold.Protein.ActiveResidues>
 VAL166  LYS551  ARG553  GLY616  TRP617  ASP618  TYR619  PRO620  LYS621  CYS622 
 ASP623  PHE694  ASN695  SER759  ASP760  ASP761  ALA762  ILE779  LEU786  VAL792 
 PHE793  MET794  SER795  GLU796  ALA797  LYS798  CYS799  TRP800  GLU811  SER814 

> <Gold.Protein.RotatedAtoms>
  152.0791  133.4144  159.4493 H   0  0  0  0  0  0  0  0  0  0  0  0  # atno 6907 bound_to 6896
  150.6862  134.3002  159.4712 H   0  0  0  0  0  0  0  0  0  0  0  0  # atno 6908 bound_to 6896
  152.0842  134.9450  160.0623 H   0  0  0  0  0  0  0  0  0  0  0  0  # atno 6909 bound_to 6896
  145.0734  139.3712  143.4946 H   0  0  0  0  0  0  0  0  0  0  0  0  # atno 7974 bound_to 7965
  156.0620  140.3295  155.7472 H   0  0  0  0  0  0  0  0  0  0  0  0  # atno 8008 bound_to 7997
  155.5441  140.0604  157.2881 H   0  0  0  0  0  0  0  0  0  0  0  0  # atno 8009 bound_to 7997
  154.4486  140.1905  156.0608 H   0  0  0  0  0  0  0  0  0  0  0  0  # atno 8010 bound_to 7997
  140.3187  144.2731  150.6186 H   0  0  0  0  0  0  0  0  0  0  0  0  # atno 10167 bound_to 10162
  157.6923  131.0198  150.2909 H   0  0  0  0  0  0  0  0  0  0  0  0  # atno 10718 bound_to 10713
  153.7722  135.6911  153.4904 H   0  0  0  0  0  0  0  0  0  0  0  0  # atno 10763 bound_to 10752
  153.1867  135.4486  155.0096 H   0  0  0  0  0  0  0  0  0  0  0  0  # atno 10764 bound_to 10752
  154.8113  135.3379  154.7231 H   0  0  0  0  0  0  0  0  0  0  0  0  # atno 10765 bound_to 10752
  141.0866  133.9127  157.2171 H   0  0  0  0  0  0  0  0  0  0  0  0  # atno 11005 bound_to 11000
  146.3529  140.0489  142.8637 LP  0  0  0  0  0  0  0  0  0  0  0  0  # atno 17320 bound_to 7965
  145.1265  140.9493  143.4569 LP  0  0  0  0  0  0  0  0  0  0  0  0  # atno 17321 bound_to 7965
  140.5503  143.2207  151.7938 LP  0  0  0  0  0  0  0  0  0  0  0  0  # atno 17342 bound_to 10162
  139.4878  144.4485  151.9681 LP  0  0  0  0  0  0  0  0  0  0  0  0  # atno 17343 bound_to 10162
  156.3440  130.3820  149.7385 LP  0  0  0  0  0  0  0  0  0  0  0  0  # atno 17370 bound_to 10713
  156.4884  130.8073  151.3084 LP  0  0  0  0  0  0  0  0  0  0  0  0  # atno 17371 bound_to 10713
  139.9686  135.0135  156.9452 LP  0  0  0  0  0  0  0  0  0  0  0  0  # atno 17394 bound_to 11000
  140.5348  134.0778  155.7325 LP  0  0  0  0  0  0  0  0  0  0  0  0  # atno 17395 bound_to 11000

$$$$
