AV-unprocessed.smi:2119|AV-procd|sdf|8630|dock6
  -GOLD-   2272011373D 1   1.00000     0.00000
 Structure written by MMmdl.
 47 49  0  0  0  0  0  0  0  0  1 V2000
  145.1316  134.7644  154.0850 O   0  0  0  0  0  0  0  0  0  0  0  0
  146.1725  134.9678  153.4607 C   0  0  0  0  0  0  0  0  0  0  0  0
  147.1667  135.7426  153.9163 N   0  0  0  0  0  0  0  0  0  0  0  0
  147.1632  136.4498  155.1946 C   0  0  0  0  0  0  0  0  0  0  0  0
  148.5909  136.7124  155.7702 C   0  0  2  0  0  0  0  0  0  0  0  0
  148.6922  136.0615  157.1921 C   0  0  2  0  0  0  0  0  0  0  0  0
  147.6109  136.4735  158.1837 C   0  0  0  0  0  0  0  0  0  0  0  0
  148.2142  136.1237  159.5488 C   0  0  0  0  0  0  0  0  0  0  0  0
  149.5598  135.7327  159.2948 O   0  0  0  0  0  0  0  0  0  0  0  0
  149.9463  136.2691  158.0409 C   0  0  0  0  0  0  0  0  0  0  0  0
  149.0315  138.1308  155.7343 N   0  0  0  0  0  0  0  0  0  0  0  0
  150.4920  138.2516  155.8350 C   0  0  0  0  0  0  0  0  0  0  0  0
  150.9520  139.7168  155.9062 C   0  0  0  0  0  0  0  0  0  0  0  0
  150.5061  140.4050  154.7442 O   0  0  0  0  0  0  0  0  0  0  0  0
  149.0936  140.3481  154.5880 C   0  0  0  0  0  0  0  0  0  0  0  0
  148.6297  138.8806  154.5394 C   0  0  0  0  0  0  0  0  0  0  0  0
  146.4619  134.4753  152.2442 N   0  0  0  0  0  0  0  0  0  0  0  0
  145.6841  133.6122  151.4254 C   0  0  0  0  0  0  0  0  0  0  0  0
  146.1831  132.9083  150.3022 C   0  0  0  0  0  0  0  0  0  0  0  0
  145.3015  132.0968  149.5621 C   0  0  0  0  0  0  0  0  0  0  0  0
  143.9543  132.0242  149.9657 C   0  0  0  0  0  0  0  0  0  0  0  0
  143.4623  132.6989  151.0259 N   0  0  0  0  0  0  0  0  0  0  0  0
  144.3133  133.4746  151.7306 C   0  0  0  0  0  0  0  0  0  0  0  0
  147.9843  135.8588  153.3357 H   0  0  0  0  0  0  0  0  0  0  0  0
  146.6235  137.3849  155.0389 H   0  0  0  0  0  0  0  0  0  0  0  0
  146.5678  135.8668  155.8976 H   0  0  0  0  0  0  0  0  0  0  0  0
  149.2670  136.1517  155.1230 H   0  0  0  0  0  0  0  0  0  0  0  0
  148.6160  134.9806  157.0657 H   0  0  0  0  0  0  0  0  0  0  0  0
  147.4246  137.5469  158.1246 H   0  0  0  0  0  0  0  0  0  0  0  0
  146.6659  135.9586  158.0090 H   0  0  0  0  0  0  0  0  0  0  0  0
  148.1940  136.9868  160.2152 H   0  0  0  0  0  0  0  0  0  0  0  0
  147.6798  135.3067  160.0340 H   0  0  0  0  0  0  0  0  0  0  0  0
  150.8262  135.7656  157.6399 H   0  0  0  0  0  0  0  0  0  0  0  0
  150.1710  137.3246  158.1968 H   0  0  0  0  0  0  0  0  0  0  0  0
  150.8916  137.7196  156.6915 H   0  0  0  0  0  0  0  0  0  0  0  0
  150.9550  137.7825  154.9651 H   0  0  0  0  0  0  0  0  0  0  0  0
  150.5642  140.2026  156.8029 H   0  0  0  0  0  0  0  0  0  0  0  0
  152.0396  139.7712  155.9553 H   0  0  0  0  0  0  0  0  0  0  0  0
  148.6098  140.8769  155.4109 H   0  0  0  0  0  0  0  0  0  0  0  0
  148.8159  140.8640  153.6690 H   0  0  0  0  0  0  0  0  0  0  0  0
  149.0305  138.4019  153.6445 H   0  0  0  0  0  0  0  0  0  0  0  0
  147.5445  138.8881  154.4416 H   0  0  0  0  0  0  0  0  0  0  0  0
  147.3251  134.7968  151.8311 H   0  0  0  0  0  0  0  0  0  0  0  0
  147.2114  132.9820  149.9856 H   0  0  0  0  0  0  0  0  0  0  0  0
  145.6499  131.5458  148.7010 H   0  0  0  0  0  0  0  0  0  0  0  0
  143.2520  131.4124  149.4190 H   0  0  0  0  0  0  0  0  0  0  0  0
  143.8842  134.0009  152.5709 H   0  0  0  0  0  0  0  0  0  0  0  0
  1  2  2  0  0  0  0
  2  3  1  0  0  0  0
  2 17  1  0  0  0  0
  3  4  1  0  0  0  0
  3 24  1  0  0  0  0
  4  5  1  0  0  0  0
  4 25  1  0  0  0  0
  4 26  1  0  0  0  0
  5  6  1  0  0  0  0
  5 11  1  0  0  0  0
  5 27  1  0  0  0  0
  6 10  1  0  0  0  0
  6  7  1  0  0  0  0
  6 28  1  0  0  0  0
  7  8  1  0  0  0  0
  7 29  1  0  0  0  0
  7 30  1  0  0  0  0
  8  9  1  0  0  0  0
  8 31  1  0  0  0  0
  8 32  1  0  0  0  0
  9 10  1  0  0  0  0
 10 33  1  0  0  0  0
 10 34  1  0  0  0  0
 11 16  1  0  0  0  0
 11 12  1  0  0  0  0
 12 13  1  0  0  0  0
 12 35  1  0  0  0  0
 12 36  1  0  0  0  0
 13 14  1  0  0  0  0
 13 37  1  0  0  0  0
 13 38  1  0  0  0  0
 14 15  1  0  0  0  0
 15 16  1  0  0  0  0
 15 39  1  0  0  0  0
 15 40  1  0  0  0  0
 16 41  1  0  0  0  0
 16 42  1  0  0  0  0
 17 18  1  0  0  0  0
 17 43  1  0  0  0  0
 18 23  1  0  0  0  0
 18 19  2  0  0  0  0
 19 20  1  0  0  0  0
 19 44  1  0  0  0  0
 20 21  2  0  0  0  0
 20 45  1  0  0  0  0
 21 22  1  0  0  0  0
 21 46  1  0  0  0  0
 22 23  2  0  0  0  0
 23 47  1  0  0  0  0
M  END
> <s_m_source_file>
AV-unprocessed.smi

> <i_m_source_file_index>
2119

> <i_lp_mmshare_version>
43012

> <i_f3d_flags>
0

> <s_epik_input>
W2NIXTFuW2NIXVtjSF1bY0hdYzFbTkhdQyg9TylbTkhdW0NIMl1bQ0BIXShbQ0BASF0yW0NIMl1bQ0gyXU9bQ0gyXTIpTjNbQ0gyXVtDSDJdT1tDSDJdW0NIMl0z

> <s_epik_cmdline>
J2VwaWtfcHl0aG9uJywgJy1waCcsICc3LjAnLCAnLXRuJywgJzgnLCAnLW1hJywgJzIwMCcsICctbWV0YWxfYmluZGluZycsICctaW1hZScsICc8aW5maWxlLm1hZT4nLCAnLW9tYWUnLCAnPG91dGZpbGUubWFlPic=

> <r_epik_Ionization_Penalty>
0.129787

> <r_epik_Ionization_Penalty_Charging>
0

> <r_epik_Ionization_Penalty_Neutral>
0.129787

> <r_epik_State_Penalty>
0.121311

> <r_epik_Charging_Adjusted_Penalty>
0.121311

> <i_epik_Tot_Q>
0

> <i_epik_Tot_abs_Q>
0

> <r_epik_Metal_State_Penalty>
0.117931

> <b_epik_Metal_Only>
0

> <s_lp_Force_Field>
OPLS_2005

> <r_lp_Energy>
59.4027

> <b_lp_Chiralities_Consistent>
1

> <s_lp_Variant>
AV-unprocessed.smi:2119-1

> <Gold.Version>
5.8.1

> <Gold.Id.Protein>
6NUR|6NUR_protein|mol2

> <Gold.PLP.Fitness>
41.5115

> <Gold.PLP.PLP>
-30.5784

> <Gold.PLP.part.hbond>
-3.7341

> <Gold.PLP.part.metal>
0.0000

> <Gold.PLP.part.buried>
-5.0620

> <Gold.PLP.part.nonpolar>
-23.0951

> <Gold.PLP.part.repulsive>
0.4500

> <Gold.PLP.ligand.clash>
0.0000

> <Gold.PLP.ligand.torsion>
1.3880

> <Gold.PLP.Chemscore.Hbond>
3.9425

> <Gold.PLP.Chemscore.CHOScore>
0.5703

> <Gold.PLP.Chemscore.Metal>
0.0000

> <Gold.Chemscore.Hbonds>
donor molecule, donor type, donor heavy atom, donor atom, acceptor molecule, acceptor atom, score
      L1  H     3    24       P1  7948  1.00
      L1  H    17    43       P1  7948  0.76
      P1  H  6896  6909       L1     9  1.00
      P1  H  7989  7998       L1    14  1.00
      L1  C    21    46       P1 10952  0.68

> <Gold.PLP.Chemscore.Internal.Correction>
0.1708

> <Gold.Rescore>
     Score         DG    S(hbond)    S(metal)    S(lipo)     H(rot)  DE(clash)    DE(int)     intcor
     18.41     -21.26       3.23        0.00      78.74       1.65       0.09       2.76       ----

> <Gold.Chemscore.Fitness>
18.4127

> <Gold.Chemscore.DG>
-21.2611

> <Gold.Chemscore.ZeroCoef>
-5.4800

> <Gold.Chemscore.Hbond>
3.2319

> <Gold.Chemscore.Metal>
0.0000

> <Gold.Chemscore.Lipo>
78.7406

> <Gold.Chemscore.Internal_Hbond>
0.0000

> <Gold.Chemscore.DEClash>
0.0871

> <Gold.Chemscore.DEInternal>
2.7614

> <Gold.Chemscore.Rot>
1.6508

> <Gold.Chemscore.Internal.Correction>
   9.000000E+99

> <Gold.Chemscore.Hbonds>
donor molecule, donor type, donor heavy atom, donor atom, acceptor molecule, acceptor atom, score
      L1  H     3    24       P1  7948  0.99
      L1  H    17    43       P1  7948  0.57
      P1  H  6896  6909       L1     9  0.39
      P1  H  7989  7998       L1    14  0.96

> <Gold.Chemscore.Hbond.Weighted>
-10.7946

> <Gold.Chemscore.Metal.Weighted>
-0.0000

> <Gold.Chemscore.Lipo.Weighted>
-9.2126

> <Gold.Chemscore.Internal_Hbond.Weighted>
0.0000

> <Gold.Chemscore.DEClash.Weighted>
0.0871

> <Gold.Chemscore.DEInternal.Weighted>
2.7614

> <Gold.Chemscore.Rot.Weighted>
4.2262

> <Gold.Chemscore.Internal.Correction.Weighted>
   9.000000E+99

> <Gold.Protein.RotatedTorsions>
[ 6907 6896 6895 6894 ] final   50.56 input  -60.11 | X-H torsion
[ 7974 7965 7964 7962 ] final  178.76 input  175.53 | X-H torsion
[ 8008 7997 7996 7995 ] final  -50.05 input   59.86 | X-H torsion
[ 10167 10162 10161 10158 ] final   42.15 input  -65.29 | X-H torsion
[ 10718 10713 10712 10709 ] final   53.50 input   66.30 | X-H torsion
[ 10763 10752 10751 10750 ] final   73.35 input  -60.55 | X-H torsion
[ 11005 11000 10999 10996 ] final -148.78 input  -57.11 | X-H torsion

> <Gold.Protein.ActiveResidues>
 VAL166  LYS551  ARG553  GLY616  TRP617  ASP618  TYR619  PRO620  LYS621  CYS622 
 ASP623  PHE694  ASN695  SER759  ASP760  ASP761  ALA762  ILE779  LEU786  VAL792 
 PHE793  MET794  SER795  GLU796  ALA797  LYS798  CYS799  TRP800  GLU811  SER814 

> <Gold.Protein.RotatedAtoms>
  152.3031  134.7587  160.0353 H   0  0  0  0  0  0  0  0  0  0  0  0  # atno 6907 bound_to 6896
  151.8093  133.3374  159.3558 H   0  0  0  0  0  0  0  0  0  0  0  0  # atno 6908 bound_to 6896
  150.7283  134.5609  159.5886 H   0  0  0  0  0  0  0  0  0  0  0  0  # atno 6909 bound_to 6896
  144.7152  140.0446  143.6436 H   0  0  0  0  0  0  0  0  0  0  0  0  # atno 7974 bound_to 7965
  154.4055  140.1282  156.4602 H   0  0  0  0  0  0  0  0  0  0  0  0  # atno 8008 bound_to 7997
  155.7280  140.3492  155.5026 H   0  0  0  0  0  0  0  0  0  0  0  0  # atno 8009 bound_to 7997
  155.9153  140.1043  157.1238 H   0  0  0  0  0  0  0  0  0  0  0  0  # atno 8010 bound_to 7997
  140.3573  144.2274  150.6141 H   0  0  0  0  0  0  0  0  0  0  0  0  # atno 10167 bound_to 10162
  157.5172  130.8540  149.8511 H   0  0  0  0  0  0  0  0  0  0  0  0  # atno 10718 bound_to 10713
  153.0516  135.5066  154.7880 H   0  0  0  0  0  0  0  0  0  0  0  0  # atno 10763 bound_to 10752
  154.6738  135.2957  154.9708 H   0  0  0  0  0  0  0  0  0  0  0  0  # atno 10764 bound_to 10752
  154.0517  135.6703  153.4854 H   0  0  0  0  0  0  0  0  0  0  0  0  # atno 10765 bound_to 10752
  140.7577  134.3334  157.5110 H   0  0  0  0  0  0  0  0  0  0  0  0  # atno 11005 bound_to 11000
  145.9995  139.3079  143.0936 LP  0  0  0  0  0  0  0  0  0  0  0  0  # atno 17320 bound_to 7965
  145.8810  140.9363  143.0601 LP  0  0  0  0  0  0  0  0  0  0  0  0  # atno 17321 bound_to 7965
  140.5161  143.2277  151.8461 LP  0  0  0  0  0  0  0  0  0  0  0  0  # atno 17342 bound_to 10162
  139.4818  144.4892  151.9207 LP  0  0  0  0  0  0  0  0  0  0  0  0  # atno 17343 bound_to 10162
  156.0328  130.3759  150.1640 LP  0  0  0  0  0  0  0  0  0  0  0  0  # atno 17370 bound_to 10713
  156.9829  130.9869  151.3433 LP  0  0  0  0  0  0  0  0  0  0  0  0  # atno 17371 bound_to 10713
  139.8776  134.9182  156.3197 LP  0  0  0  0  0  0  0  0  0  0  0  0  # atno 17394 bound_to 11000
  140.9692  133.7338  156.0511 LP  0  0  0  0  0  0  0  0  0  0  0  0  # atno 17395 bound_to 11000

$$$$
