AV-unprocessed.smi:814|AV-procd|sdf|3824|dock2
  -GOLD-   22720 1263D 1   1.00000     0.00000
 Structure written by MMmdl.
 36 37  0  0  0  0  0  0  0  0  1 V2000
  153.8166  141.2532  159.8653 C   0  0  0  0  0  0  0  0  0  0  0  0
  153.2363  142.3866  160.5601 N   0  0  0  0  0  0  0  0  0  0  0  0
  153.0610  142.5003  161.9328 C   0  0  0  0  0  0  0  0  0  0  0  0
  152.4727  143.7221  162.1548 C   0  0  0  0  0  0  0  0  0  0  0  0
  152.2798  144.3695  160.9390 N   0  0  0  0  0  0  0  0  0  0  0  0
  152.7626  143.5299  160.0278 C   0  0  0  0  0  0  0  0  0  0  0  0
  152.7529  143.8030  158.5563 C   0  0  0  0  0  0  0  0  0  0  0  0
  151.3673  144.2325  158.0471 C   0  0  0  0  0  0  0  0  0  0  0  0
  150.8942  143.3559  156.9823 N   0  0  0  0  0  0  0  0  0  0  0  0
  151.0482  142.0227  156.9618 C   0  0  0  0  0  0  0  0  0  0  0  0
  151.6029  141.3953  157.8651 O   0  0  0  0  0  0  0  0  0  0  0  0
  150.4955  141.2852  155.7350 C   0  0  1  0  0  0  0  0  0  0  0  0
  150.9749  139.8153  155.7073 C   0  0  0  0  0  0  0  0  0  0  0  0
  150.2407  138.9904  154.6653 C   0  0  0  0  0  0  0  0  0  0  0  0
  149.0962  139.3854  154.0819 C   0  0  0  0  0  0  0  0  0  0  0  0
  148.4053  140.6993  154.4010 C   0  0  0  0  0  0  0  0  0  0  0  0
  148.9559  141.3520  155.6833 C   0  0  0  0  0  0  0  0  0  0  0  0
  153.9589  140.4218  160.5558 H   0  0  0  0  0  0  0  0  0  0  0  0
  154.7826  141.5344  159.4460 H   0  0  0  0  0  0  0  0  0  0  0  0
  153.1558  140.9309  159.0602 H   0  0  0  0  0  0  0  0  0  0  0  0
  153.3589  141.7223  162.6202 H   0  0  0  0  0  0  0  0  0  0  0  0
  152.1755  144.1805  163.0864 H   0  0  0  0  0  0  0  0  0  0  0  0
  153.4813  144.5873  158.3470 H   0  0  0  0  0  0  0  0  0  0  0  0
  153.1025  142.9181  158.0237 H   0  0  0  0  0  0  0  0  0  0  0  0
  150.6451  144.2458  158.8652 H   0  0  0  0  0  0  0  0  0  0  0  0
  151.4128  145.2501  157.6583 H   0  0  0  0  0  0  0  0  0  0  0  0
  150.4236  143.7936  156.2034 H   0  0  0  0  0  0  0  0  0  0  0  0
  150.8757  141.7808  154.8394 H   0  0  0  0  0  0  0  0  0  0  0  0
  152.0428  139.7810  155.4877 H   0  0  0  0  0  0  0  0  0  0  0  0
  150.8343  139.3323  156.6753 H   0  0  0  0  0  0  0  0  0  0  0  0
  150.6734  138.0351  154.4067 H   0  0  0  0  0  0  0  0  0  0  0  0
  148.6288  138.7575  153.3374 H   0  0  0  0  0  0  0  0  0  0  0  0
  148.5414  141.3666  153.5496 H   0  0  0  0  0  0  0  0  0  0  0  0
  147.3336  140.5276  154.5028 H   0  0  0  0  0  0  0  0  0  0  0  0
  148.5400  140.8372  156.5512 H   0  0  0  0  0  0  0  0  0  0  0  0
  148.6110  142.3851  155.7449 H   0  0  0  0  0  0  0  0  0  0  0  0
  1  2  1  0  0  0  0
  1 18  1  0  0  0  0
  1 19  1  0  0  0  0
  1 20  1  0  0  0  0
  2  6  1  0  0  0  0
  2  3  1  0  0  0  0
  3  4  2  0  0  0  0
  3 21  1  0  0  0  0
  4  5  1  0  0  0  0
  4 22  1  0  0  0  0
  5  6  2  0  0  0  0
  6  7  1  0  0  0  0
  7  8  1  0  0  0  0
  7 23  1  0  0  0  0
  7 24  1  0  0  0  0
  8  9  1  0  0  0  0
  8 25  1  0  0  0  0
  8 26  1  0  0  0  0
  9 10  1  0  0  0  0
  9 27  1  0  0  0  0
 10 11  2  0  0  0  0
 10 12  1  0  0  0  0
 12 17  1  0  0  0  0
 12 13  1  0  0  0  0
 12 28  1  0  0  0  0
 13 14  1  0  0  0  0
 13 29  1  0  0  0  0
 13 30  1  0  0  0  0
 14 15  2  0  0  0  0
 14 31  1  0  0  0  0
 15 16  1  0  0  0  0
 15 32  1  0  0  0  0
 16 17  1  0  0  0  0
 16 33  1  0  0  0  0
 16 34  1  0  0  0  0
 17 35  1  0  0  0  0
 17 36  1  0  0  0  0
M  END
> <s_m_source_file>
AV-unprocessed.smi

> <i_m_source_file_index>
814

> <i_lp_mmshare_version>
43012

> <i_f3d_flags>
0

> <s_epik_input>
W0NIM11uMVtjSF1bY0hdbmMxW0NIMl1bQ0gyXVtOSF1DKD1PKVtDQEBIXTJbQ0gyXVtDSF09W0NIXVtDSDJdW0NIMl0y

> <s_epik_cmdline>
J2VwaWtfcHl0aG9uJywgJy1waCcsICc3LjAnLCAnLXRuJywgJzgnLCAnLW1hJywgJzIwMCcsICctbWV0YWxfYmluZGluZycsICctaW1hZScsICc8aW5maWxlLm1hZT4nLCAnLW9tYWUnLCAnPG91dGZpbGUubWFlPic=

> <r_lp_tautomer_probability>
1

> <r_epik_Ionization_Penalty>
1.21249

> <r_epik_Ionization_Penalty_Charging>
1.21249

> <r_epik_Ionization_Penalty_Neutral>
1.60917e-08

> <r_epik_State_Penalty>
1.27906

> <r_epik_Charging_Adjusted_Penalty>
2.49154

> <i_epik_Tot_Q>
0

> <i_epik_Tot_abs_Q>
0

> <r_epik_Metal_State_Penalty>
0.409603

> <b_epik_Metal_Only>
0

> <s_lp_Force_Field>
OPLS_2005

> <r_lp_Energy>
6.01065

> <b_lp_Chiralities_Consistent>
1

> <s_lp_Variant>
AV-unprocessed.smi:814-4

> <Gold.Version>
5.8.1

> <Gold.Id.Protein>
6NUR|6NUR_protein|mol2

> <Gold.PLP.Fitness>
47.8012

> <Gold.PLP.PLP>
-46.2957

> <Gold.PLP.part.hbond>
-1.0000

> <Gold.PLP.part.metal>
0.0000

> <Gold.PLP.part.buried>
-2.7699

> <Gold.PLP.part.nonpolar>
-42.6892

> <Gold.PLP.part.repulsive>
0.1589

> <Gold.PLP.ligand.clash>
0.0000

> <Gold.PLP.ligand.torsion>
0.7492

> <Gold.PLP.Chemscore.Hbond>
0.9920

> <Gold.PLP.Chemscore.CHOScore>
0.0000

> <Gold.PLP.Chemscore.Metal>
0.0000

> <Gold.Chemscore.Hbonds>
donor molecule, donor type, donor heavy atom, donor atom, acceptor molecule, acceptor atom, score
      L1  H     9    27       P1  8028  0.91

> <Gold.PLP.Chemscore.Internal.Correction>
0.0279

> <Gold.Rescore>
     Score         DG    S(hbond)    S(metal)    S(lipo)     H(rot)  DE(clash)    DE(int)     intcor
     12.87     -16.28       0.96        0.00      99.57       1.58       0.13       3.29       ----

> <Gold.Chemscore.Fitness>
12.8671

> <Gold.Chemscore.DG>
-16.2849

> <Gold.Chemscore.ZeroCoef>
-5.4800

> <Gold.Chemscore.Hbond>
0.9589

> <Gold.Chemscore.Metal>
0.0000

> <Gold.Chemscore.Lipo>
99.5664

> <Gold.Chemscore.Internal_Hbond>
0.0000

> <Gold.Chemscore.DEClash>
0.1281

> <Gold.Chemscore.DEInternal>
3.2897

> <Gold.Chemscore.Rot>
1.5809

> <Gold.Chemscore.Internal.Correction>
   9.000000E+99

> <Gold.Chemscore.Hbonds>
donor molecule, donor type, donor heavy atom, donor atom, acceptor molecule, acceptor atom, score
      L1  H     9    27       P1  8028  0.88

> <Gold.Chemscore.Hbond.Weighted>
-3.2028

> <Gold.Chemscore.Metal.Weighted>
-0.0000

> <Gold.Chemscore.Lipo.Weighted>
-11.6493

> <Gold.Chemscore.Internal_Hbond.Weighted>
0.0000

> <Gold.Chemscore.DEClash.Weighted>
0.1281

> <Gold.Chemscore.DEInternal.Weighted>
3.2897

> <Gold.Chemscore.Rot.Weighted>
4.0472

> <Gold.Chemscore.Internal.Correction.Weighted>
   9.000000E+99

> <Gold.Protein.RotatedTorsions>
[ 6907 6896 6895 6894 ] final  111.65 input  -60.11 | X-H torsion
[ 7974 7965 7964 7962 ] final  169.34 input  175.53 | X-H torsion
[ 8008 7997 7996 7995 ] final -148.43 input   59.86 | X-H torsion
[ 10167 10162 10161 10158 ] final  -33.91 input  -65.29 | X-H torsion
[ 10718 10713 10712 10709 ] final   22.57 input   66.30 | X-H torsion
[ 10763 10752 10751 10750 ] final  -10.78 input  -60.55 | X-H torsion
[ 11005 11000 10999 10996 ] final  -77.41 input  -57.11 | X-H torsion

> <Gold.Protein.ActiveResidues>
 VAL166  LYS551  ARG553  GLY616  TRP617  ASP618  TYR619  PRO620  LYS621  CYS622 
 ASP623  PHE694  ASN695  SER759  ASP760  ASP761  ALA762  ILE779  LEU786  VAL792 
 PHE793  MET794  SER795  GLU796  ALA797  LYS798  CYS799  TRP800  GLU811  SER814 

> <Gold.Protein.RotatedAtoms>
  152.4958  133.8628  159.7258 H   0  0  0  0  0  0  0  0  0  0  0  0  # atno 6907 bound_to 6896
  150.9135  133.6959  159.2856 H   0  0  0  0  0  0  0  0  0  0  0  0  # atno 6908 bound_to 6896
  151.4361  135.1019  159.9709 H   0  0  0  0  0  0  0  0  0  0  0  0  # atno 6909 bound_to 6896
  144.7358  139.9040  143.6411 H   0  0  0  0  0  0  0  0  0  0  0  0  # atno 7974 bound_to 7965
  155.5915  140.0653  157.2757 H   0  0  0  0  0  0  0  0  0  0  0  0  # atno 8008 bound_to 7997
  154.4304  140.1834  156.1127 H   0  0  0  0  0  0  0  0  0  0  0  0  # atno 8009 bound_to 7997
  156.0228  140.3315  155.7061 H   0  0  0  0  0  0  0  0  0  0  0  0  # atno 8010 bound_to 7997
  140.7195  143.3586  151.2009 H   0  0  0  0  0  0  0  0  0  0  0  0  # atno 10167 bound_to 10162
  157.1541  130.6687  149.6021 H   0  0  0  0  0  0  0  0  0  0  0  0  # atno 10718 bound_to 10713
  153.4741  135.7017  153.5976 H   0  0  0  0  0  0  0  0  0  0  0  0  # atno 10763 bound_to 10752
  153.4217  135.3824  155.2116 H   0  0  0  0  0  0  0  0  0  0  0  0  # atno 10764 bound_to 10752
  154.8724  135.3929  154.4183 H   0  0  0  0  0  0  0  0  0  0  0  0  # atno 10765 bound_to 10752
  141.1660  133.7021  156.7815 H   0  0  0  0  0  0  0  0  0  0  0  0  # atno 11005 bound_to 11000
  146.1050  139.4049  143.0323 LP  0  0  0  0  0  0  0  0  0  0  0  0  # atno 17320 bound_to 7965
  145.7524  140.9967  143.1243 LP  0  0  0  0  0  0  0  0  0  0  0  0  # atno 17321 bound_to 7965
  139.7132  143.9342  152.2956 LP  0  0  0  0  0  0  0  0  0  0  0  0  # atno 17342 bound_to 10162
  139.9074  144.6876  150.8599 LP  0  0  0  0  0  0  0  0  0  0  0  0  # atno 17343 bound_to 10162
  155.9765  130.4734  150.6533 LP  0  0  0  0  0  0  0  0  0  0  0  0  # atno 17370 bound_to 10713
  157.4193  131.0834  151.1146 LP  0  0  0  0  0  0  0  0  0  0  0  0  # atno 17371 bound_to 10713
  140.2391  134.8627  157.3555 LP  0  0  0  0  0  0  0  0  0  0  0  0  # atno 17394 bound_to 11000
  140.1814  134.4485  155.7770 LP  0  0  0  0  0  0  0  0  0  0  0  0  # atno 17395 bound_to 11000

$$$$
