AV-unprocessed.smi:1424|AV-procd|sdf|5800|dock10
  -GOLD-   22720 5453D 1   1.00000     0.00000
 Structure written by MMmdl.
 45 47  0  0  0  0  0  0  0  0  1 V2000
  146.5960  138.9114  154.5651 O   0  0  0  0  0  0  0  0  0  0  0  0
  147.1256  138.1159  153.7897 C   0  0  0  0  0  0  0  0  0  0  0  0
  148.4429  138.0899  153.5486 N   0  0  0  0  0  0  0  0  0  0  0  0
  149.4060  139.0019  154.1525 C   0  0  0  0  0  0  0  0  0  0  0  0
  150.6300  138.2433  154.6937 C   0  0  1  0  0  0  0  0  0  0  0  0
  151.7929  139.1883  155.0538 C   0  0  0  0  0  0  0  0  0  0  0  0
  152.8483  138.3910  155.8258 C   0  0  0  0  0  0  0  0  0  0  0  0
  151.9103  137.1778  156.8256 S   0  0  0  0  0  0  0  0  0  0  0  0
  152.4472  135.8319  156.5741 O   0  0  0  0  0  0  0  0  0  0  0  0
  151.7566  137.6879  158.1965 O   0  0  0  0  0  0  0  0  0  0  0  0
  150.3212  137.3842  155.9332 C   0  0  0  0  0  0  0  0  0  0  0  0
  146.4859  137.1621  153.0920 N   0  0  0  0  0  0  0  0  0  0  0  0
  145.0951  136.8508  153.0680 C   0  0  0  0  0  0  0  0  0  0  0  0
  144.1077  137.6637  153.6775 C   0  0  0  0  0  0  0  0  0  0  0  0
  142.7555  137.2873  153.5846 C   0  0  0  0  0  0  0  0  0  0  0  0
  142.4342  136.1147  152.8783 C   0  0  0  0  0  0  0  0  0  0  0  0
  143.3594  135.3368  152.2808 N   0  0  0  0  0  0  0  0  0  0  0  0
  144.6639  135.6947  152.3671 C   0  0  0  0  0  0  0  0  0  0  0  0
  145.6095  134.8698  151.7320 N   0  0  0  0  0  0  0  0  0  0  0  0
  146.5013  134.1382  152.6156 C   0  0  0  0  0  0  0  0  0  0  0  0
  147.1633  133.0808  151.7305 C   0  0  0  0  0  0  0  0  0  0  0  0
  146.1858  132.8778  150.5659 C   0  0  0  0  0  0  0  0  0  0  0  0
  145.0614  133.8895  150.8092 C   0  0  0  0  0  0  0  0  0  0  0  0
  148.8018  137.3994  152.9054 H   0  0  0  0  0  0  0  0  0  0  0  0
  149.7238  139.7308  153.4053 H   0  0  0  0  0  0  0  0  0  0  0  0
  148.9210  139.5589  154.9558 H   0  0  0  0  0  0  0  0  0  0  0  0
  150.9926  137.5730  153.9125 H   0  0  0  0  0  0  0  0  0  0  0  0
  152.2205  139.6595  154.1682 H   0  0  0  0  0  0  0  0  0  0  0  0
  151.4203  139.9899  155.6932 H   0  0  0  0  0  0  0  0  0  0  0  0
  153.4918  137.8384  155.1410 H   0  0  0  0  0  0  0  0  0  0  0  0
  153.4717  139.0123  156.4687 H   0  0  0  0  0  0  0  0  0  0  0  0
  149.6285  137.8948  156.6031 H   0  0  0  0  0  0  0  0  0  0  0  0
  149.9037  136.4091  155.6823 H   0  0  0  0  0  0  0  0  0  0  0  0
  147.0721  136.5340  152.5617 H   0  0  0  0  0  0  0  0  0  0  0  0
  144.3555  138.5739  154.2002 H   0  0  0  0  0  0  0  0  0  0  0  0
  141.9821  137.8876  154.0404 H   0  0  0  0  0  0  0  0  0  0  0  0
  141.4066  135.7960  152.7855 H   0  0  0  0  0  0  0  0  0  0  0  0
  147.2380  134.8019  153.0694 H   0  0  0  0  0  0  0  0  0  0  0  0
  145.9402  133.6570  153.4178 H   0  0  0  0  0  0  0  0  0  0  0  0
  148.1169  133.4514  151.3523 H   0  0  0  0  0  0  0  0  0  0  0  0
  147.3587  132.1588  152.2786 H   0  0  0  0  0  0  0  0  0  0  0  0
  146.6864  133.0807  149.6184 H   0  0  0  0  0  0  0  0  0  0  0  0
  145.7993  131.8590  150.5257 H   0  0  0  0  0  0  0  0  0  0  0  0
  144.1959  133.3910  151.2481 H   0  0  0  0  0  0  0  0  0  0  0  0
  144.7411  134.3635  149.8809 H   0  0  0  0  0  0  0  0  0  0  0  0
  1  2  2  0  0  0  0
  2  3  1  0  0  0  0
  2 12  1  0  0  0  0
  3  4  1  0  0  0  0
  3 24  1  0  0  0  0
  4  5  1  0  0  0  0
  4 25  1  0  0  0  0
  4 26  1  0  0  0  0
  5 11  1  0  0  0  0
  5  6  1  0  0  0  0
  5 27  1  0  0  0  0
  6  7  1  0  0  0  0
  6 28  1  0  0  0  0
  6 29  1  0  0  0  0
  7  8  1  0  0  0  0
  7 30  1  0  0  0  0
  7 31  1  0  0  0  0
  8  9  2  0  0  0  0
  8 10  2  0  0  0  0
  8 11  1  0  0  0  0
 11 32  1  0  0  0  0
 11 33  1  0  0  0  0
 12 13  1  0  0  0  0
 12 34  1  0  0  0  0
 13 18  1  0  0  0  0
 13 14  2  0  0  0  0
 14 15  1  0  0  0  0
 14 35  1  0  0  0  0
 15 16  2  0  0  0  0
 15 36  1  0  0  0  0
 16 17  1  0  0  0  0
 16 37  1  0  0  0  0
 17 18  2  0  0  0  0
 18 19  1  0  0  0  0
 19 23  1  0  0  0  0
 19 20  1  0  0  0  0
 20 21  1  0  0  0  0
 20 38  1  0  0  0  0
 20 39  1  0  0  0  0
 21 22  1  0  0  0  0
 21 40  1  0  0  0  0
 21 41  1  0  0  0  0
 22 23  1  0  0  0  0
 22 42  1  0  0  0  0
 22 43  1  0  0  0  0
 23 44  1  0  0  0  0
 23 45  1  0  0  0  0
M  END
> <s_m_source_file>
AV-unprocessed.smi

> <i_m_source_file_index>
1424

> <i_lp_mmshare_version>
43012

> <i_f3d_flags>
0

> <s_epik_input>
Tz1TMSg9TylbQ0gyXVtDSDJdW0NASF0oW0NIMl0xKVtDSDJdW05IXUMoPU8pW05IXWMyW2NIXVtjSF1bY0hdbmMyTjNbQ0gyXVtDSDJdW0NIMl1bQ0gyXTM=

> <s_epik_cmdline>
J2VwaWtfcHl0aG9uJywgJy1waCcsICc3LjAnLCAnLXRuJywgJzgnLCAnLW1hJywgJzIwMCcsICctbWV0YWxfYmluZGluZycsICctaW1hZScsICc8aW5maWxlLm1hZT4nLCAnLW9tYWUnLCAnPG91dGZpbGUubWFlPic=

> <r_lp_tautomer_probability>
1

> <r_epik_Ionization_Penalty>
0.0965651

> <r_epik_Ionization_Penalty_Charging>
0

> <r_epik_Ionization_Penalty_Neutral>
0.0965651

> <r_epik_State_Penalty>
0.0861592

> <r_epik_Charging_Adjusted_Penalty>
0.0861592

> <i_epik_Tot_Q>
0

> <i_epik_Tot_abs_Q>
0

> <r_epik_Metal_State_Penalty>
0.0740444

> <b_epik_Metal_Only>
0

> <s_lp_Force_Field>
OPLS_2005

> <r_lp_Energy>
37.4342

> <b_lp_Chiralities_Consistent>
1

> <s_lp_Variant>
AV-unprocessed.smi:1424-2

> <Gold.Version>
5.8.1

> <Gold.Id.Protein>
6NUR|6NUR_protein|mol2

> <Gold.PLP.Fitness>
38.1840

> <Gold.PLP.PLP>
-30.2101

> <Gold.PLP.part.hbond>
-3.1888

> <Gold.PLP.part.metal>
0.0000

> <Gold.PLP.part.buried>
-2.3831

> <Gold.PLP.part.nonpolar>
-24.6090

> <Gold.PLP.part.repulsive>
0.4570

> <Gold.PLP.ligand.clash>
0.0000

> <Gold.PLP.ligand.torsion>
0.3617

> <Gold.PLP.Chemscore.Hbond>
2.8882

> <Gold.PLP.Chemscore.CHOScore>
0.0000

> <Gold.PLP.Chemscore.Metal>
0.0000

> <Gold.Chemscore.Hbonds>
donor molecule, donor type, donor heavy atom, donor atom, acceptor molecule, acceptor atom, score
      L1  H     3    24       P1  7948  1.00
      L1  H    12    34       P1  7948  0.90
      P1  H 10752 10764       L1     9  1.00

> <Gold.PLP.Chemscore.Internal.Correction>
0.0329

> <Gold.Rescore>
     Score         DG    S(hbond)    S(metal)    S(lipo)     H(rot)  DE(clash)    DE(int)     intcor
     17.73     -19.51       2.82        0.00      71.57       1.47       0.05       1.72       ----

> <Gold.Chemscore.Fitness>
17.7303

> <Gold.Chemscore.DG>
-19.5052

> <Gold.Chemscore.ZeroCoef>
-5.4800

> <Gold.Chemscore.Hbond>
2.8221

> <Gold.Chemscore.Metal>
0.0000

> <Gold.Chemscore.Lipo>
71.5713

> <Gold.Chemscore.Internal_Hbond>
0.0000

> <Gold.Chemscore.DEClash>
0.0509

> <Gold.Chemscore.DEInternal>
1.7240

> <Gold.Chemscore.Rot>
1.4744

> <Gold.Chemscore.Internal.Correction>
   9.000000E+99

> <Gold.Chemscore.Hbonds>
donor molecule, donor type, donor heavy atom, donor atom, acceptor molecule, acceptor atom, score
      L1  H     3    24       P1  7948  0.96
      L1  H    12    34       P1  7948  0.83
      P1  H 10752 10764       L1     9  0.95

> <Gold.Chemscore.Hbond.Weighted>
-9.4258

> <Gold.Chemscore.Metal.Weighted>
-0.0000

> <Gold.Chemscore.Lipo.Weighted>
-8.3738

> <Gold.Chemscore.Internal_Hbond.Weighted>
0.0000

> <Gold.Chemscore.DEClash.Weighted>
0.0509

> <Gold.Chemscore.DEInternal.Weighted>
1.7240

> <Gold.Chemscore.Rot.Weighted>
3.7744

> <Gold.Chemscore.Internal.Correction.Weighted>
   9.000000E+99

> <Gold.Protein.RotatedTorsions>
[ 6907 6896 6895 6894 ] final    5.18 input  -60.11 | X-H torsion
[ 7974 7965 7964 7962 ] final  -27.40 input  175.53 | X-H torsion
[ 8008 7997 7996 7995 ] final  111.43 input   59.86 | X-H torsion
[ 10167 10162 10161 10158 ] final   70.17 input  -65.29 | X-H torsion
[ 10718 10713 10712 10709 ] final  -94.91 input   66.30 | X-H torsion
[ 10763 10752 10751 10750 ] final  -32.21 input  -60.55 | X-H torsion
[ 11005 11000 10999 10996 ] final   99.96 input  -57.11 | X-H torsion

> <Gold.Protein.ActiveResidues>
 VAL166  LYS551  ARG553  GLY616  TRP617  ASP618  TYR619  PRO620  LYS621  CYS622 
 ASP623  PHE694  ASN695  SER759  ASP760  ASP761  ALA762  ILE779  LEU786  VAL792 
 PHE793  MET794  SER795  GLU796  ALA797  LYS798  CYS799  TRP800  GLU811  SER814 

> <Gold.Protein.RotatedAtoms>
  151.6534  135.0998  160.0164 H   0  0  0  0  0  0  0  0  0  0  0  0  # atno 6907 bound_to 6896
  152.3988  133.6782  159.6307 H   0  0  0  0  0  0  0  0  0  0  0  0  # atno 6908 bound_to 6896
  150.7891  133.8744  159.3309 H   0  0  0  0  0  0  0  0  0  0  0  0  # atno 6909 bound_to 6896
  146.1360  140.5146  142.8672 H   0  0  0  0  0  0  0  0  0  0  0  0  # atno 7974 bound_to 7965
  156.2123  140.3019  155.9761 H   0  0  0  0  0  0  0  0  0  0  0  0  # atno 8008 bound_to 7997
  155.2692  140.0433  157.3022 H   0  0  0  0  0  0  0  0  0  0  0  0  # atno 8009 bound_to 7997
  154.5717  140.2350  155.8190 H   0  0  0  0  0  0  0  0  0  0  0  0  # atno 8010 bound_to 7997
  140.0598  144.5242  150.7302 H   0  0  0  0  0  0  0  0  0  0  0  0  # atno 10167 bound_to 10162
  156.0034  130.5087  150.5997 H   0  0  0  0  0  0  0  0  0  0  0  0  # atno 10718 bound_to 10713
  153.8101  135.6883  153.4842 H   0  0  0  0  0  0  0  0  0  0  0  0  # atno 10763 bound_to 10752
  153.1634  135.4571  154.9801 H   0  0  0  0  0  0  0  0  0  0  0  0  # atno 10764 bound_to 10752
  154.7971  135.3323  154.7582 H   0  0  0  0  0  0  0  0  0  0  0  0  # atno 10765 bound_to 10752
  139.8771  134.9119  156.4685 H   0  0  0  0  0  0  0  0  0  0  0  0  # atno 11005 bound_to 11000
  144.7741  140.5701  143.6650 LP  0  0  0  0  0  0  0  0  0  0  0  0  # atno 17320 bound_to 7965
  145.5154  139.1478  143.3582 LP  0  0  0  0  0  0  0  0  0  0  0  0  # atno 17321 bound_to 7965
  140.7177  143.2560  151.4380 LP  0  0  0  0  0  0  0  0  0  0  0  0  # atno 17342 bound_to 10162
  139.5901  144.1518  152.2077 LP  0  0  0  0  0  0  0  0  0  0  0  0  # atno 17343 bound_to 10162
  157.3848  131.0786  151.1446 LP  0  0  0  0  0  0  0  0  0  0  0  0  # atno 17370 bound_to 10713
  157.2157  130.6458  149.5791 LP  0  0  0  0  0  0  0  0  0  0  0  0  # atno 17371 bound_to 10713
  140.8813  133.7916  155.9470 LP  0  0  0  0  0  0  0  0  0  0  0  0  # atno 17394 bound_to 11000
  140.8851  134.2564  157.5124 LP  0  0  0  0  0  0  0  0  0  0  0  0  # atno 17395 bound_to 11000

$$$$
