AV-unprocessed.smi:614|AV-procd|sdf|3069|dock4
  -GOLD-   2262023593D 1   1.00000     0.00000
 Structure written by MMmdl.
 44 45  0  0  0  0  0  0  0  0  1 V2000
  150.5257  141.1424  155.7774 C   0  0  0  0  0  0  0  0  0  0  0  0
  149.3598  140.6694  155.0628 N   0  0  0  0  0  0  0  0  0  0  0  0
  148.2325  141.3742  154.6926 C   0  0  0  0  0  0  0  0  0  0  0  0
  147.4026  140.5067  154.0405 C   0  0  0  0  0  0  0  0  0  0  0  0
  148.1252  139.2817  154.0652 C   0  0  0  0  0  0  0  0  0  0  0  0
  147.5812  138.1097  153.4797 N   0  0  0  0  0  0  0  0  0  0  0  0
  146.4450  137.4755  153.8152 C   0  0  0  0  0  0  0  0  0  0  0  0
  145.7010  137.8058  154.7379 O   0  0  0  0  0  0  0  0  0  0  0  0
  146.2305  136.4213  153.0094 N   0  0  0  0  0  0  0  0  0  0  0  0
  145.1078  135.4706  153.0083 C   0  0  2  0  0  0  0  0  0  0  0  0
  143.8529  136.3696  153.1064 C   0  0  0  0  0  0  0  0  0  0  0  0
  145.1530  134.6221  154.3160 C   0  0  0  0  0  0  0  0  0  0  0  0
  143.9491  133.9427  154.6111 O   0  0  0  0  0  0  0  0  0  0  0  0
  145.0741  134.6071  151.6943 C   0  0  0  0  0  0  0  0  0  0  0  0
  143.8958  133.6010  151.6210 C   0  0  0  0  0  0  0  0  0  0  0  0
  143.8498  132.8772  150.2651 C   0  0  0  0  0  0  0  0  0  0  0  0
  145.1759  132.1628  149.9672 C   0  0  0  0  0  0  0  0  0  0  0  0
  146.3562  133.1421  150.0396 C   0  0  0  0  0  0  0  0  0  0  0  0
  146.4001  133.8616  151.3975 C   0  0  0  0  0  0  0  0  0  0  0  0
  149.2979  139.3776  154.6769 N   0  0  0  0  0  0  0  0  0  0  0  0
  150.4235  142.2052  155.9989 H   0  0  0  0  0  0  0  0  0  0  0  0
  151.4178  140.9909  155.1692 H   0  0  0  0  0  0  0  0  0  0  0  0
  150.6318  140.5937  156.7136 H   0  0  0  0  0  0  0  0  0  0  0  0
  148.1155  142.4231  154.9225 H   0  0  0  0  0  0  0  0  0  0  0  0
  146.4328  140.7172  153.6148 H   0  0  0  0  0  0  0  0  0  0  0  0
  148.1078  137.7194  152.7125 H   0  0  0  0  0  0  0  0  0  0  0  0
  146.9270  136.2564  152.2978 H   0  0  0  0  0  0  0  0  0  0  0  0
  142.9311  135.7903  153.1490 H   0  0  0  0  0  0  0  0  0  0  0  0
  143.7710  137.0588  152.2660 H   0  0  0  0  0  0  0  0  0  0  0  0
  143.8790  136.9793  154.0109 H   0  0  0  0  0  0  0  0  0  0  0  0
  145.9724  133.9024  154.2886 H   0  0  0  0  0  0  0  0  0  0  0  0
  145.3503  135.2668  155.1732 H   0  0  0  0  0  0  0  0  0  0  0  0
  144.1223  133.0140  154.6241 H   0  0  0  0  0  0  0  0  0  0  0  0
  144.9237  135.2938  150.8611 H   0  0  0  0  0  0  0  0  0  0  0  0
  143.9825  132.8568  152.4124 H   0  0  0  0  0  0  0  0  0  0  0  0
  142.9424  134.1055  151.7754 H   0  0  0  0  0  0  0  0  0  0  0  0
  143.0313  132.1571  150.2561 H   0  0  0  0  0  0  0  0  0  0  0  0
  143.6364  133.5972  149.4743 H   0  0  0  0  0  0  0  0  0  0  0  0
  145.3261  131.3549  150.6845 H   0  0  0  0  0  0  0  0  0  0  0  0
  145.1360  131.6992  148.9812 H   0  0  0  0  0  0  0  0  0  0  0  0
  147.2918  132.6078  149.8723 H   0  0  0  0  0  0  0  0  0  0  0  0
  146.2727  133.8774  149.2383 H   0  0  0  0  0  0  0  0  0  0  0  0
  147.2421  134.5532  151.3999 H   0  0  0  0  0  0  0  0  0  0  0  0
  146.6043  133.1253  152.1745 H   0  0  0  0  0  0  0  0  0  0  0  0
  1  2  1  0  0  0  0
  1 21  1  0  0  0  0
  1 22  1  0  0  0  0
  1 23  1  0  0  0  0
  2 20  1  0  0  0  0
  2  3  1  0  0  0  0
  3  4  2  0  0  0  0
  3 24  1  0  0  0  0
  4  5  1  0  0  0  0
  4 25  1  0  0  0  0
  5  6  1  0  0  0  0
  5 20  2  0  0  0  0
  6  7  1  0  0  0  0
  6 26  1  0  0  0  0
  7  8  2  0  0  0  0
  7  9  1  0  0  0  0
  9 10  1  0  0  0  0
  9 27  1  0  0  0  0
 10 11  1  0  0  0  0
 10 12  1  0  0  0  0
 10 14  1  0  0  0  0
 11 28  1  0  0  0  0
 11 29  1  0  0  0  0
 11 30  1  0  0  0  0
 12 13  1  0  0  0  0
 12 31  1  0  0  0  0
 12 32  1  0  0  0  0
 13 33  1  0  0  0  0
 14 19  1  0  0  0  0
 14 15  1  0  0  0  0
 14 34  1  0  0  0  0
 15 16  1  0  0  0  0
 15 35  1  0  0  0  0
 15 36  1  0  0  0  0
 16 17  1  0  0  0  0
 16 37  1  0  0  0  0
 16 38  1  0  0  0  0
 17 18  1  0  0  0  0
 17 39  1  0  0  0  0
 17 40  1  0  0  0  0
 18 19  1  0  0  0  0
 18 41  1  0  0  0  0
 18 42  1  0  0  0  0
 19 43  1  0  0  0  0
 19 44  1  0  0  0  0
M  END
> <s_m_source_file>
AV-unprocessed.smi

> <i_m_source_file_index>
614

> <i_lp_mmshare_version>
43012

> <i_f3d_flags>
0

> <s_epik_input>
W0NIM11uMVtjSF1bY0hdYyhuMSlbTkhdQyg9TylbTkhdW0NAQF0oW0NIM10pKFtDSDJdW09IXSlbQ0hdMltDSDJdW0NIMl1bQ0gyXVtDSDJdW0NIMl0y

> <s_epik_cmdline>
J2VwaWtfcHl0aG9uJywgJy1waCcsICc3LjAnLCAnLXRuJywgJzgnLCAnLW1hJywgJzIwMCcsICctbWV0YWxfYmluZGluZycsICctaW1hZScsICc8aW5maWxlLm1hZT4nLCAnLW9tYWUnLCAnPG91dGZpbGUubWFlPic=

> <r_lp_tautomer_probability>
1

> <r_epik_Ionization_Penalty>
3.66621e-05

> <r_epik_Ionization_Penalty_Charging>
0

> <r_epik_Ionization_Penalty_Neutral>
3.66621e-05

> <r_epik_State_Penalty>
-0

> <r_epik_Charging_Adjusted_Penalty>
0

> <i_epik_Tot_Q>
0

> <i_epik_Tot_abs_Q>
0

> <r_epik_Metal_State_Penalty>
-0

> <b_epik_Metal_Only>
0

> <s_lp_Force_Field>
OPLS_2005

> <r_lp_Energy>
19.716

> <b_lp_Chiralities_Consistent>
1

> <s_lp_Variant>
AV-unprocessed.smi:614-2

> <Gold.Version>
5.8.1

> <Gold.Id.Protein>
6NUR|6NUR_protein|mol2

> <Gold.PLP.Fitness>
46.0893

> <Gold.PLP.PLP>
-36.1134

> <Gold.PLP.part.hbond>
-3.0000

> <Gold.PLP.part.metal>
0.0000

> <Gold.PLP.part.buried>
-3.4063

> <Gold.PLP.part.nonpolar>
-29.3670

> <Gold.PLP.part.repulsive>
0.2794

> <Gold.PLP.ligand.clash>
0.0000

> <Gold.PLP.ligand.torsion>
0.9356

> <Gold.PLP.Chemscore.Hbond>
2.9204

> <Gold.PLP.Chemscore.CHOScore>
0.9910

> <Gold.PLP.Chemscore.Metal>
0.0000

> <Gold.Chemscore.Hbonds>
donor molecule, donor type, donor heavy atom, donor atom, acceptor molecule, acceptor atom, score
      L1  H     6    26       P1  7948  1.00
      L1  H     9    27       P1  7948  0.86
      L1  H    13    33       P1 10957  0.42
      L1  C     3    24       P1  8028  1.00

> <Gold.PLP.Chemscore.Internal.Correction>
0.1128

> <Gold.Rescore>
     Score         DG    S(hbond)    S(metal)    S(lipo)     H(rot)  DE(clash)    DE(int)     intcor
     16.29     -18.24       2.87        0.00      72.42       2.07       0.09       1.86       ----

> <Gold.Chemscore.Fitness>
16.2880

> <Gold.Chemscore.DG>
-18.2378

> <Gold.Chemscore.ZeroCoef>
-5.4800

> <Gold.Chemscore.Hbond>
2.8703

> <Gold.Chemscore.Metal>
0.0000

> <Gold.Chemscore.Lipo>
72.4164

> <Gold.Chemscore.Internal_Hbond>
0.0000

> <Gold.Chemscore.DEClash>
0.0901

> <Gold.Chemscore.DEInternal>
1.8598

> <Gold.Chemscore.Rot>
2.0710

> <Gold.Chemscore.Internal.Correction>
   9.000000E+99

> <Gold.Chemscore.Hbonds>
donor molecule, donor type, donor heavy atom, donor atom, acceptor molecule, acceptor atom, score
      L1  H     6    26       P1  7948  0.96
      L1  H     9    27       P1  7948  0.81
      L1  H    13    33       P1 10957  0.42

> <Gold.Chemscore.Hbond.Weighted>
-9.5868

> <Gold.Chemscore.Metal.Weighted>
-0.0000

> <Gold.Chemscore.Lipo.Weighted>
-8.4727

> <Gold.Chemscore.Internal_Hbond.Weighted>
0.0000

> <Gold.Chemscore.DEClash.Weighted>
0.0901

> <Gold.Chemscore.DEInternal.Weighted>
1.8598

> <Gold.Chemscore.Rot.Weighted>
5.3017

> <Gold.Chemscore.Internal.Correction.Weighted>
   9.000000E+99

> <Gold.Protein.RotatedTorsions>
[ 6907 6896 6895 6894 ] final  165.66 input  -60.11 | X-H torsion
[ 7974 7965 7964 7962 ] final  -29.31 input  175.53 | X-H torsion
[ 8008 7997 7996 7995 ] final   58.46 input   59.86 | X-H torsion
[ 10167 10162 10161 10158 ] final -129.28 input  -65.29 | X-H torsion
[ 10718 10713 10712 10709 ] final    4.83 input   66.30 | X-H torsion
[ 10763 10752 10751 10750 ] final  -35.32 input  -60.55 | X-H torsion
[ 11005 11000 10999 10996 ] final  133.50 input  -57.11 | X-H torsion

> <Gold.Protein.ActiveResidues>
 VAL166  LYS551  ARG553  GLY616  TRP617  ASP618  TYR619  PRO620  LYS621  CYS622 
 ASP623  PHE694  ASN695  SER759  ASP760  ASP761  ALA762  ILE779  LEU786  VAL792 
 PHE793  MET794  SER795  GLU796  ALA797  LYS798  CYS799  TRP800  GLU811  SER814 

> <Gold.Protein.RotatedAtoms>
  151.8909  133.3516  159.3797 H   0  0  0  0  0  0  0  0  0  0  0  0  # atno 6907 bound_to 6896
  150.7103  134.4924  159.5531 H   0  0  0  0  0  0  0  0  0  0  0  0  # atno 6908 bound_to 6896
  152.2494  134.8148  160.0499 H   0  0  0  0  0  0  0  0  0  0  0  0  # atno 6909 bound_to 6896
  146.1225  140.5396  142.8729 H   0  0  0  0  0  0  0  0  0  0  0  0  # atno 7974 bound_to 7965
  155.5504  140.3486  155.4467 H   0  0  0  0  0  0  0  0  0  0  0  0  # atno 8008 bound_to 7997
  156.0587  140.1335  156.9992 H   0  0  0  0  0  0  0  0  0  0  0  0  # atno 8009 bound_to 7997
  154.4469  140.0989  156.6470 H   0  0  0  0  0  0  0  0  0  0  0  0  # atno 8010 bound_to 7997
  139.9415  143.6158  152.2502 H   0  0  0  0  0  0  0  0  0  0  0  0  # atno 10167 bound_to 10162
  156.8984  130.5712  149.5648 H   0  0  0  0  0  0  0  0  0  0  0  0  # atno 10718 bound_to 10713
  153.8613  135.6840  153.4782 H   0  0  0  0  0  0  0  0  0  0  0  0  # atno 10763 bound_to 10752
  153.1340  135.4685  154.9391 H   0  0  0  0  0  0  0  0  0  0  0  0  # atno 10764 bound_to 10752
  154.7757  135.3252  154.8046 H   0  0  0  0  0  0  0  0  0  0  0  0  # atno 10765 bound_to 10752
  139.9856  134.9533  156.9734 H   0  0  0  0  0  0  0  0  0  0  0  0  # atno 11005 bound_to 11000
  144.7611  140.5423  143.6735 LP  0  0  0  0  0  0  0  0  0  0  0  0  # atno 17320 bound_to 7965
  145.5435  139.1475  143.3434 LP  0  0  0  0  0  0  0  0  0  0  0  0  # atno 17321 bound_to 7965
  139.6701  144.7661  151.1799 LP  0  0  0  0  0  0  0  0  0  0  0  0  # atno 17342 bound_to 10162
  140.7609  143.5878  150.8827 LP  0  0  0  0  0  0  0  0  0  0  0  0  # atno 17343 bound_to 10162
  156.0594  130.5650  150.9161 LP  0  0  0  0  0  0  0  0  0  0  0  0  # atno 17370 bound_to 10713
  157.6041  131.0940  150.8909 LP  0  0  0  0  0  0  0  0  0  0  0  0  # atno 17371 bound_to 10713
  140.5010  134.1098  155.7250 LP  0  0  0  0  0  0  0  0  0  0  0  0  # atno 17394 bound_to 11000
  141.1521  133.8949  157.2071 LP  0  0  0  0  0  0  0  0  0  0  0  0  # atno 17395 bound_to 11000

$$$$
