AV-unprocessed.smi:2439|AV-procd|sdf|9608|dock7
  -GOLD-   2272013243D 1   1.00000     0.00000
 Structure written by MMmdl.
 41 43  0  0  0  0  0  0  0  0  2 V2000
  153.9514  140.4005  160.4972 N   0  0  0  0  0  0  0  0  0  0  0  0
  153.3821  141.2416  159.9431 C   0  0  0  0  0  0  0  0  0  0  0  0
  152.6655  142.3022  159.2454 C   0  0  0  0  0  0  0  0  0  0  0  0
  152.6159  143.5875  159.8249 C   0  0  0  0  0  0  0  0  0  0  0  0
  151.9241  144.6146  159.1573 C   0  0  0  0  0  0  0  0  0  0  0  0
  151.3075  144.3134  157.9298 C   0  0  0  0  0  0  0  0  0  0  0  0
  151.3468  143.0886  157.3647 N   0  0  0  0  0  0  0  0  0  0  0  0
  152.0110  142.0927  158.0015 C   0  0  0  0  0  0  0  0  0  0  0  0
  152.0371  140.8265  157.3871 N   0  0  0  0  0  0  0  0  0  0  0  0
  151.3967  140.5751  156.1013 C   0  0  0  0  0  0  0  0  0  0  0  0
  150.8193  139.1527  155.9988 C   0  0  1  0  0  0  0  0  0  0  0  0
  150.1778  138.9039  154.6159 C   0  0  0  0  0  0  0  0  0  0  0  0
  149.7299  137.4980  154.4665 N   0  3  2  0  0  0  0  0  0  0  0  0
  148.4567  137.2026  155.1789 C   0  0  0  0  0  0  0  0  0  0  0  0
  148.0021  135.7568  154.9322 C   0  0  0  0  0  0  0  0  0  0  0  0
  149.0933  134.7676  155.3561 C   0  0  0  0  0  0  0  0  0  0  0  0
  150.3995  135.0830  154.6144 C   0  0  0  0  0  0  0  0  0  0  0  0
  150.8373  136.5538  154.7832 C   0  0  2  0  0  0  0  0  0  0  0  0
  151.4460  136.8714  156.1651 C   0  0  0  0  0  0  0  0  0  0  0  0
  151.8851  138.2250  156.1831 O   0  0  0  0  0  0  0  0  0  0  0  0
  153.1005  143.7892  160.7695 H   0  0  0  0  0  0  0  0  0  0  0  0
  151.8692  145.6087  159.5758 H   0  0  0  0  0  0  0  0  0  0  0  0
  150.7674  145.0750  157.3870 H   0  0  0  0  0  0  0  0  0  0  0  0
  152.4337  140.0429  157.8865 H   0  0  0  0  0  0  0  0  0  0  0  0
  150.6131  141.3158  155.9380 H   0  0  0  0  0  0  0  0  0  0  0  0
  152.1314  140.7356  155.3119 H   0  0  0  0  0  0  0  0  0  0  0  0
  150.0733  139.0089  156.7810 H   0  0  0  0  0  0  0  0  0  0  0  0
  149.3413  139.5839  154.4488 H   0  0  0  0  0  0  0  0  0  0  0  0
  150.9072  139.1142  153.8325 H   0  0  0  0  0  0  0  0  0  0  0  0
  148.5665  137.3712  156.2500 H   0  0  0  0  0  0  0  0  0  0  0  0
  147.6832  137.8889  154.8327 H   0  0  0  0  0  0  0  0  0  0  0  0
  147.0826  135.5559  155.4831 H   0  0  0  0  0  0  0  0  0  0  0  0
  147.7672  135.6186  153.8761 H   0  0  0  0  0  0  0  0  0  0  0  0
  149.2493  134.8238  156.4339 H   0  0  0  0  0  0  0  0  0  0  0  0
  148.7778  133.7462  155.1407 H   0  0  0  0  0  0  0  0  0  0  0  0
  151.1918  134.4116  154.9471 H   0  0  0  0  0  0  0  0  0  0  0  0
  150.2564  134.8768  153.5526 H   0  0  0  0  0  0  0  0  0  0  0  0
  151.6224  136.7339  154.0470 H   0  0  0  0  0  0  0  0  0  0  0  0
  150.7377  136.6940  156.9754 H   0  0  0  0  0  0  0  0  0  0  0  0
  152.3058  136.2278  156.3529 H   0  0  0  0  0  0  0  0  0  0  0  0
  149.5211  137.3695  153.4864 H   0  0  0  0  0  0  0  0  0  0  0  0
  1  2  3  0  0  0  0
  2  3  1  0  0  0  0
  3  8  1  0  0  0  0
  3  4  2  0  0  0  0
  4  5  1  0  0  0  0
  4 21  1  0  0  0  0
  5  6  2  0  0  0  0
  5 22  1  0  0  0  0
  6  7  1  0  0  0  0
  6 23  1  0  0  0  0
  7  8  2  0  0  0  0
  8  9  1  0  0  0  0
  9 10  1  0  0  0  0
  9 24  1  0  0  0  0
 10 11  1  0  0  0  0
 10 25  1  0  0  0  0
 10 26  1  0  0  0  0
 11 20  1  0  0  0  0
 11 12  1  0  0  0  0
 11 27  1  0  0  0  0
 12 13  1  0  0  0  0
 12 28  1  0  0  0  0
 12 29  1  0  0  0  0
 13 18  1  0  0  0  0
 13 14  1  0  0  0  0
 13 41  1  0  0  0  0
 14 15  1  0  0  0  0
 14 30  1  0  0  0  0
 14 31  1  0  0  0  0
 15 16  1  0  0  0  0
 15 32  1  0  0  0  0
 15 33  1  0  0  0  0
 16 17  1  0  0  0  0
 16 34  1  0  0  0  0
 16 35  1  0  0  0  0
 17 18  1  0  0  0  0
 17 36  1  0  0  0  0
 17 37  1  0  0  0  0
 18 19  1  0  0  0  0
 18 38  1  0  0  0  0
 19 20  1  0  0  0  0
 19 39  1  0  0  0  0
 19 40  1  0  0  0  0
M  CHG  1  13   1
M  END
> <s_m_source_file>
AV-unprocessed.smi

> <i_m_source_file_index>
2439

> <i_lp_mmshare_version>
43012

> <i_f3d_flags>
0

> <s_epik_input>
TiNDYzFbY0hdW2NIXVtjSF1uYzFbTkhdW0NIMl1bQ0BIXShbQ0gyXTIpT1tDSDJdW0NAQEhdKE4yMylbQ0gyXVtDSDJdW0NIMl1bQ0gyXTM=

> <s_epik_cmdline>
J2VwaWtfcHl0aG9uJywgJy1waCcsICc3LjAnLCAnLXRuJywgJzgnLCAnLW1hJywgJzIwMCcsICctbWV0YWxfYmluZGluZycsICctaW1hZScsICc8aW5maWxlLm1hZT4nLCAnLW9tYWUnLCAnPG91dGZpbGUubWFlPic=

> <r_epik_Ionization_Penalty>
0.0803594

> <r_epik_Ionization_Penalty_Charging>
0.0803403

> <r_epik_Ionization_Penalty_Neutral>
1.90988e-05

> <r_epik_State_Penalty>
0.0711481

> <r_epik_Charging_Adjusted_Penalty>
0.151488

> <i_epik_Tot_Q>
1

> <i_epik_Tot_abs_Q>
1

> <r_epik_Metal_State_Penalty>
0.0711482

> <b_epik_Metal_Only>
0

> <s_lp_Force_Field>
OPLS_2005

> <r_lp_Energy>
31.3602

> <b_lp_Chiralities_Consistent>
1

> <s_lp_Variant>
AV-unprocessed.smi:2439-6

> <Gold.Version>
5.8.1

> <Gold.Id.Protein>
6NUR|6NUR_protein|mol2

> <Gold.PLP.Fitness>
43.4010

> <Gold.PLP.PLP>
-34.9950

> <Gold.PLP.part.hbond>
-1.0000

> <Gold.PLP.part.metal>
0.0000

> <Gold.PLP.part.buried>
-3.8873

> <Gold.PLP.part.nonpolar>
-30.4923

> <Gold.PLP.part.repulsive>
0.2261

> <Gold.PLP.ligand.clash>
0.0000

> <Gold.PLP.ligand.torsion>
0.1808

> <Gold.PLP.Chemscore.Hbond>
2.0000

> <Gold.PLP.Chemscore.CHOScore>
0.9221

> <Gold.PLP.Chemscore.Metal>
0.0000

> <Gold.Chemscore.Hbonds>
donor molecule, donor type, donor heavy atom, donor atom, acceptor molecule, acceptor atom, score
      L1  H    13    41       P1  7948  1.98
      L1  C     6    23       P1  8028  0.97

> <Gold.PLP.Chemscore.Internal.Correction>
0.0012

> <Gold.Rescore>
     Score         DG    S(hbond)    S(metal)    S(lipo)     H(rot)  DE(clash)    DE(int)     intcor
     15.68     -15.90       0.99        0.00      88.51       1.27       0.04       0.19       ----

> <Gold.Chemscore.Fitness>
15.6763

> <Gold.Chemscore.DG>
-15.9031

> <Gold.Chemscore.ZeroCoef>
-5.4800

> <Gold.Chemscore.Hbond>
0.9906

> <Gold.Chemscore.Metal>
0.0000

> <Gold.Chemscore.Lipo>
88.5059

> <Gold.Chemscore.Internal_Hbond>
0.0000

> <Gold.Chemscore.DEClash>
0.0350

> <Gold.Chemscore.DEInternal>
0.1918

> <Gold.Chemscore.Rot>
1.2659

> <Gold.Chemscore.Internal.Correction>
   9.000000E+99

> <Gold.Chemscore.Hbonds>
donor molecule, donor type, donor heavy atom, donor atom, acceptor molecule, acceptor atom, score
      L1  H    13    41       P1  7948  0.82

> <Gold.Chemscore.Hbond.Weighted>
-3.3087

> <Gold.Chemscore.Metal.Weighted>
-0.0000

> <Gold.Chemscore.Lipo.Weighted>
-10.3552

> <Gold.Chemscore.Internal_Hbond.Weighted>
0.0000

> <Gold.Chemscore.DEClash.Weighted>
0.0350

> <Gold.Chemscore.DEInternal.Weighted>
0.1918

> <Gold.Chemscore.Rot.Weighted>
3.2408

> <Gold.Chemscore.Internal.Correction.Weighted>
   9.000000E+99

> <Gold.Protein.RotatedTorsions>
[ 6907 6896 6895 6894 ] final   33.27 input  -60.11 | X-H torsion
[ 7974 7965 7964 7962 ] final  -37.98 input  175.53 | X-H torsion
[ 8008 7997 7996 7995 ] final  -11.99 input   59.86 | X-H torsion
[ 10167 10162 10161 10158 ] final   20.94 input  -65.29 | X-H torsion
[ 10718 10713 10712 10709 ] final   78.01 input   66.30 | X-H torsion
[ 10763 10752 10751 10750 ] final   -4.01 input  -60.55 | X-H torsion
[ 11005 11000 10999 10996 ] final  -41.57 input  -57.11 | X-H torsion

> <Gold.Protein.ActiveResidues>
 VAL166  LYS551  ARG553  GLY616  TRP617  ASP618  TYR619  PRO620  LYS621  CYS622 
 ASP623  PHE694  ASN695  SER759  ASP760  ASP761  ALA762  ILE779  LEU786  VAL792 
 PHE793  MET794  SER795  GLU796  ALA797  LYS798  CYS799  TRP800  GLU811  SER814 

> <Gold.Protein.RotatedAtoms>
  152.0861  134.9439  160.0572 H   0  0  0  0  0  0  0  0  0  0  0  0  # atno 6907 bound_to 6896
  152.0708  133.4101  159.4467 H   0  0  0  0  0  0  0  0  0  0  0  0  # atno 6908 bound_to 6896
  150.6836  134.3013  159.4751 H   0  0  0  0  0  0  0  0  0  0  0  0  # atno 6909 bound_to 6896
  146.0527  140.6459  142.9034 H   0  0  0  0  0  0  0  0  0  0  0  0  # atno 7974 bound_to 7965
  154.5416  140.2288  155.8631 H   0  0  0  0  0  0  0  0  0  0  0  0  # atno 8008 bound_to 7997
  156.1864  140.3088  155.9209 H   0  0  0  0  0  0  0  0  0  0  0  0  # atno 8009 bound_to 7997
  155.3246  140.0442  157.3031 H   0  0  0  0  0  0  0  0  0  0  0  0  # atno 8010 bound_to 7997
  140.5465  143.9585  150.6551 H   0  0  0  0  0  0  0  0  0  0  0  0  # atno 10167 bound_to 10162
  157.6730  130.9848  150.1724 H   0  0  0  0  0  0  0  0  0  0  0  0  # atno 10718 bound_to 10713
  153.3791  135.6997  153.6579 H   0  0  0  0  0  0  0  0  0  0  0  0  # atno 10763 bound_to 10752
  153.5198  135.3614  155.2627 H   0  0  0  0  0  0  0  0  0  0  0  0  # atno 10764 bound_to 10752
  154.8690  135.4155  154.3085 H   0  0  0  0  0  0  0  0  0  0  0  0  # atno 10765 bound_to 10752
  141.0255  133.6843  156.2476 H   0  0  0  0  0  0  0  0  0  0  0  0  # atno 11005 bound_to 11000
  144.7131  140.4111  143.7065 LP  0  0  0  0  0  0  0  0  0  0  0  0  # atno 17320 bound_to 7965
  145.6697  139.1597  143.2761 LP  0  0  0  0  0  0  0  0  0  0  0  0  # atno 17321 bound_to 7965
  140.2999  143.3267  152.0981 LP  0  0  0  0  0  0  0  0  0  0  0  0  # atno 17342 bound_to 10162
  139.5009  144.6703  151.6259 LP  0  0  0  0  0  0  0  0  0  0  0  0  # atno 17343 bound_to 10162
  156.2475  130.3697  149.8269 LP  0  0  0  0  0  0  0  0  0  0  0  0  # atno 17370 bound_to 10713
  156.6051  130.8563  151.3441 LP  0  0  0  0  0  0  0  0  0  0  0  0  # atno 17371 bound_to 10713
  140.6498  134.5079  157.5576 LP  0  0  0  0  0  0  0  0  0  0  0  0  # atno 17394 bound_to 11000
  139.9173  134.8219  156.1323 LP  0  0  0  0  0  0  0  0  0  0  0  0  # atno 17395 bound_to 11000

$$$$
