AV-unprocessed.smi:2538|AV-procd|sdf|9983|dock8
  -GOLD-   2272014 33D 1   1.00000     0.00000
 Structure written by MMmdl.
 49 50  0  0  0  0  0  0  0  0  2 V2000
  152.1929  144.2500  160.8082 C   0  0  0  0  0  0  0  0  0  0  0  0
  152.0113  143.2573  159.6726 C   0  0  0  0  0  0  0  0  0  0  0  0
  151.1356  143.5946  158.6157 C   0  0  0  0  0  0  0  0  0  0  0  0
  150.9899  142.6665  157.5916 C   0  0  0  0  0  0  0  0  0  0  0  0
  150.2174  142.6987  156.4283 N   0  3  0  0  0  0  0  0  0  0  0  0
  150.4064  141.5478  155.7248 C   0  0  0  0  0  0  0  0  0  0  0  0
  151.2893  140.7824  156.4222 N   0  0  0  0  0  0  0  0  0  0  0  0
  151.8452  139.4581  156.1147 C   0  0  0  0  0  0  0  0  0  0  0  0
  150.7530  138.3959  155.8774 C   0  0  2  0  0  0  0  0  0  0  0  0
  150.1483  138.6619  154.6270 O   0  0  0  0  0  0  0  0  0  0  0  0
  149.6678  138.4298  156.9753 C   0  0  0  0  0  0  0  0  0  0  0  0
  150.0189  137.6325  158.1662 N   0  0  0  0  0  0  0  0  0  0  0  0
  151.4283  137.2354  158.2853 C   0  0  0  0  0  0  0  0  0  0  0  0
  148.8131  136.6707  158.9663 S   0  0  0  0  0  0  0  0  0  0  0  0
  149.1959  135.2629  158.7762 O   0  0  0  0  0  0  0  0  0  0  0  0
  148.6529  137.2045  160.3280 O   0  0  0  0  0  0  0  0  0  0  0  0
  147.2650  137.0014  157.9904 C   0  0  0  0  0  0  0  0  0  0  0  0
  146.1955  137.6532  158.8783 C   0  0  0  0  0  0  0  0  0  0  0  0
  146.7452  135.7115  157.3400 C   0  0  0  0  0  0  0  0  0  0  0  0
  151.6791  141.4386  157.5940 C   0  0  0  0  0  0  0  0  0  0  0  0
  152.5456  141.0897  158.6268 C   0  0  0  0  0  0  0  0  0  0  0  0
  152.7084  142.0210  159.6771 C   0  0  0  0  0  0  0  0  0  0  0  0
  153.6488  141.6692  160.8169 C   0  0  0  0  0  0  0  0  0  0  0  0
  151.5591  145.1276  160.6761 H   0  0  0  0  0  0  0  0  0  0  0  0
  153.2276  144.5903  160.8566 H   0  0  0  0  0  0  0  0  0  0  0  0
  151.9327  143.7937  161.7635 H   0  0  0  0  0  0  0  0  0  0  0  0
  150.6029  144.5345  158.6046 H   0  0  0  0  0  0  0  0  0  0  0  0
  149.9448  141.2918  154.7821 H   0  0  0  0  0  0  0  0  0  0  0  0
  152.4919  139.5561  155.2415 H   0  0  0  0  0  0  0  0  0  0  0  0
  152.4889  139.1676  156.9465 H   0  0  0  0  0  0  0  0  0  0  0  0
  151.2300  137.4180  155.8314 H   0  0  0  0  0  0  0  0  0  0  0  0
  149.5599  139.3947  154.7272 H   0  0  0  0  0  0  0  0  0  0  0  0
  149.5231  139.4581  157.3091 H   0  0  0  0  0  0  0  0  0  0  0  0
  148.6960  138.1237  156.5869 H   0  0  0  0  0  0  0  0  0  0  0  0
  151.6186  136.3235  157.7197 H   0  0  0  0  0  0  0  0  0  0  0  0
  151.6805  137.0478  159.3289 H   0  0  0  0  0  0  0  0  0  0  0  0
  152.0879  138.0213  157.9164 H   0  0  0  0  0  0  0  0  0  0  0  0
  147.5166  137.7030  157.1990 H   0  0  0  0  0  0  0  0  0  0  0  0
  145.2863  137.8556  158.3118 H   0  0  0  0  0  0  0  0  0  0  0  0
  146.5428  138.6018  159.2877 H   0  0  0  0  0  0  0  0  0  0  0  0
  145.9303  137.0055  159.7144 H   0  0  0  0  0  0  0  0  0  0  0  0
  145.8662  135.9096  156.7262 H   0  0  0  0  0  0  0  0  0  0  0  0
  146.4658  134.9719  158.0909 H   0  0  0  0  0  0  0  0  0  0  0  0
  147.5024  135.2654  156.6947 H   0  0  0  0  0  0  0  0  0  0  0  0
  153.0751  140.1482  158.6289 H   0  0  0  0  0  0  0  0  0  0  0  0
  154.1352  140.7077  160.6505 H   0  0  0  0  0  0  0  0  0  0  0  0
  153.1021  141.6080  161.7582 H   0  0  0  0  0  0  0  0  0  0  0  0
  154.4297  142.4233  160.9178 H   0  0  0  0  0  0  0  0  0  0  0  0
  149.6070  143.4501  156.1331 H   0  0  0  0  0  0  0  0  0  0  0  0
  1  2  1  0  0  0  0
  1 24  1  0  0  0  0
  1 25  1  0  0  0  0
  1 26  1  0  0  0  0
  2 22  1  0  0  0  0
  2  3  2  0  0  0  0
  3  4  1  0  0  0  0
  3 27  1  0  0  0  0
  4 20  2  0  0  0  0
  4  5  1  0  0  0  0
  5  6  2  0  0  0  0
  5 49  1  0  0  0  0
  6  7  1  0  0  0  0
  6 28  1  0  0  0  0
  7  8  1  0  0  0  0
  7 20  1  0  0  0  0
  8  9  1  0  0  0  0
  8 29  1  0  0  0  0
  8 30  1  0  0  0  0
  9 10  1  0  0  0  0
  9 11  1  0  0  0  0
  9 31  1  0  0  0  0
 10 32  1  0  0  0  0
 11 12  1  0  0  0  0
 11 33  1  0  0  0  0
 11 34  1  0  0  0  0
 12 13  1  0  0  0  0
 12 14  1  0  0  0  0
 13 35  1  0  0  0  0
 13 36  1  0  0  0  0
 13 37  1  0  0  0  0
 14 15  2  0  0  0  0
 14 16  2  0  0  0  0
 14 17  1  0  0  0  0
 17 18  1  0  0  0  0
 17 19  1  0  0  0  0
 17 38  1  0  0  0  0
 18 39  1  0  0  0  0
 18 40  1  0  0  0  0
 18 41  1  0  0  0  0
 19 42  1  0  0  0  0
 19 43  1  0  0  0  0
 19 44  1  0  0  0  0
 20 21  1  0  0  0  0
 21 22  2  0  0  0  0
 21 45  1  0  0  0  0
 22 23  1  0  0  0  0
 23 46  1  0  0  0  0
 23 47  1  0  0  0  0
 23 48  1  0  0  0  0
M  CHG  1   5   1
M  END
> <s_m_source_file>
AV-unprocessed.smi

> <i_m_source_file_index>
2538

> <i_lp_mmshare_version>
43012

> <i_f3d_flags>
0

> <s_epik_input>
W0NIM11jKFtjSF0xKWMoW0NIM10pW2NIXWMoYzEyKW4oW2NIXW4yKVtDSDJdW0NASF0oW09IXSlbQ0gyXU4oW0NIM10pUyg9TykoPU8pW0NIXShbQ0gzXSlbQ0gzXQ==

> <s_epik_cmdline>
J2VwaWtfcHl0aG9uJywgJy1waCcsICc3LjAnLCAnLXRuJywgJzgnLCAnLW1hJywgJzIwMCcsICctbWV0YWxfYmluZGluZycsICctaW1hZScsICc8aW5maWxlLm1hZT4nLCAnLW9tYWUnLCAnPG91dGZpbGUubWFlPic=

> <r_epik_Ionization_Penalty>
1.07686

> <r_epik_Ionization_Penalty_Charging>
1.07685

> <r_epik_Ionization_Penalty_Neutral>
1.40866e-06

> <r_epik_State_Penalty>
1.13193

> <r_epik_Charging_Adjusted_Penalty>
2.20879

> <i_epik_Tot_Q>
1

> <i_epik_Tot_abs_Q>
1

> <r_epik_Metal_State_Penalty>
5.12988

> <b_epik_Metal_Only>
0

> <s_lp_Force_Field>
OPLS_2005

> <r_lp_Energy>
10.0565

> <b_lp_Chiralities_Consistent>
1

> <s_lp_Variant>
AV-unprocessed.smi:2538-3

> <Gold.Version>
5.8.1

> <Gold.Id.Protein>
6NUR|6NUR_protein|mol2

> <Gold.PLP.Fitness>
51.1254

> <Gold.PLP.PLP>
-41.2486

> <Gold.PLP.part.hbond>
-3.8836

> <Gold.PLP.part.metal>
0.0000

> <Gold.PLP.part.buried>
-6.3369

> <Gold.PLP.part.nonpolar>
-31.4016

> <Gold.PLP.part.repulsive>
0.0826

> <Gold.PLP.ligand.clash>
0.0000

> <Gold.PLP.ligand.torsion>
1.9132

> <Gold.PLP.Chemscore.Hbond>
3.6946

> <Gold.PLP.Chemscore.CHOScore>
0.0000

> <Gold.PLP.Chemscore.Metal>
0.0000

> <Gold.Chemscore.Hbonds>
donor molecule, donor type, donor heavy atom, donor atom, acceptor molecule, acceptor atom, score
      L1  H     5    49       P1  8028  2.00
      P1  H  6896  6907       L1    15  1.00
      P1  H  6931  6943       L1    16  0.64
      P1  H  6934  6947       L1    16  0.04

> <Gold.PLP.Chemscore.Internal.Correction>
2.6195

> <Gold.Rescore>
     Score         DG    S(hbond)    S(metal)    S(lipo)     H(rot)  DE(clash)    DE(int)     intcor
     19.01     -21.11       3.15        0.00      95.37       2.36       0.18       1.92       ----

> <Gold.Chemscore.Fitness>
19.0085

> <Gold.Chemscore.DG>
-21.1111

> <Gold.Chemscore.ZeroCoef>
-5.4800

> <Gold.Chemscore.Hbond>
3.1478

> <Gold.Chemscore.Metal>
0.0000

> <Gold.Chemscore.Lipo>
95.3653

> <Gold.Chemscore.Internal_Hbond>
0.0000

> <Gold.Chemscore.DEClash>
0.1787

> <Gold.Chemscore.DEInternal>
1.9239

> <Gold.Chemscore.Rot>
2.3595

> <Gold.Chemscore.Internal.Correction>
   9.000000E+99

> <Gold.Chemscore.Hbonds>
donor molecule, donor type, donor heavy atom, donor atom, acceptor molecule, acceptor atom, score
      L1  H     5    49       P1  8028  0.93
      P1  H  6896  6907       L1    15  0.86
      P1  H  6931  6943       L1    16  0.64
      P1  H  6934  6947       L1    16  0.05

> <Gold.Chemscore.Hbond.Weighted>
-10.5137

> <Gold.Chemscore.Metal.Weighted>
-0.0000

> <Gold.Chemscore.Lipo.Weighted>
-11.1577

> <Gold.Chemscore.Internal_Hbond.Weighted>
0.0000

> <Gold.Chemscore.DEClash.Weighted>
0.1787

> <Gold.Chemscore.DEInternal.Weighted>
1.9239

> <Gold.Chemscore.Rot.Weighted>
6.0403

> <Gold.Chemscore.Internal.Correction.Weighted>
   9.000000E+99

> <Gold.Protein.RotatedTorsions>
[ 6907 6896 6895 6894 ] final  -55.47 input  -60.11 | X-H torsion
[ 7974 7965 7964 7962 ] final  -17.01 input  175.53 | X-H torsion
[ 8008 7997 7996 7995 ] final  115.78 input   59.86 | X-H torsion
[ 10167 10162 10161 10158 ] final  -37.98 input  -65.29 | X-H torsion
[ 10718 10713 10712 10709 ] final  -84.48 input   66.30 | X-H torsion
[ 10763 10752 10751 10750 ] final   61.62 input  -60.55 | X-H torsion
[ 11005 11000 10999 10996 ] final  -92.02 input  -57.11 | X-H torsion

> <Gold.Protein.ActiveResidues>
 VAL166  LYS551  ARG553  GLY616  TRP617  ASP618  TYR619  PRO620  LYS621  CYS622 
 ASP623  PHE694  ASN695  SER759  ASP760  ASP761  ALA762  ILE779  LEU786  VAL792 
 PHE793  MET794  SER795  GLU796  ALA797  LYS798  CYS799  TRP800  GLU811  SER814 

> <Gold.Protein.RotatedAtoms>
  150.8249  134.7475  159.6803 H   0  0  0  0  0  0  0  0  0  0  0  0  # atno 6907 bound_to 6896
  152.4361  134.5681  159.9923 H   0  0  0  0  0  0  0  0  0  0  0  0  # atno 6908 bound_to 6896
  151.5856  133.3335  159.3053 H   0  0  0  0  0  0  0  0  0  0  0  0  # atno 6909 bound_to 6896
  146.1961  140.3719  142.8440 H   0  0  0  0  0  0  0  0  0  0  0  0  # atno 7974 bound_to 7965
  156.2401  140.2931  156.0421 H   0  0  0  0  0  0  0  0  0  0  0  0  # atno 8008 bound_to 7997
  155.1976  140.0408  157.2929 H   0  0  0  0  0  0  0  0  0  0  0  0  # atno 8009 bound_to 7997
  154.6152  140.2462  155.7625 H   0  0  0  0  0  0  0  0  0  0  0  0  # atno 8010 bound_to 7997
  140.7104  143.3306  151.2577 H   0  0  0  0  0  0  0  0  0  0  0  0  # atno 10167 bound_to 10162
  156.0006  130.4699  150.4417 H   0  0  0  0  0  0  0  0  0  0  0  0  # atno 10718 bound_to 10713
  152.9956  135.5494  154.6063 H   0  0  0  0  0  0  0  0  0  0  0  0  # atno 10763 bound_to 10752
  154.5393  135.2819  155.1112 H   0  0  0  0  0  0  0  0  0  0  0  0  # atno 10764 bound_to 10752
  154.2396  135.6419  153.5255 H   0  0  0  0  0  0  0  0  0  0  0  0  # atno 10765 bound_to 10752
  141.1532  133.7793  156.9961 H   0  0  0  0  0  0  0  0  0  0  0  0  # atno 11005 bound_to 11000
  144.8583  140.7103  143.6124 LP  0  0  0  0  0  0  0  0  0  0  0  0  # atno 17320 bound_to 7965
  145.3639  139.1675  143.4368 LP  0  0  0  0  0  0  0  0  0  0  0  0  # atno 17321 bound_to 7965
  139.6787  143.9891  152.2796 LP  0  0  0  0  0  0  0  0  0  0  0  0  # atno 17342 bound_to 10162
  139.9514  144.6618  150.8168 LP  0  0  0  0  0  0  0  0  0  0  0  0  # atno 17343 bound_to 10162
  157.2457  131.0535  151.2409 LP  0  0  0  0  0  0  0  0  0  0  0  0  # atno 17370 bound_to 10713
  157.3577  130.7115  149.6481 LP  0  0  0  0  0  0  0  0  0  0  0  0  # atno 17371 bound_to 10713
  140.0971  134.9558  157.1866 LP  0  0  0  0  0  0  0  0  0  0  0  0  # atno 17394 bound_to 11000
  140.3368  134.2748  155.7218 LP  0  0  0  0  0  0  0  0  0  0  0  0  # atno 17395 bound_to 11000

$$$$
