AV-unprocessed.smi:530|AV-procd|sdf|2843|dock5
  -GOLD-   2262023333D 1   1.00000     0.00000
 Structure written by MMmdl.
 35 37  0  0  0  0  0  0  0  0  1 V2000
  151.0959  145.3081  158.9256 C   0  0  0  0  0  0  0  0  0  0  0  0
  151.8081  144.1003  159.4469 C   0  0  0  0  0  0  0  0  0  0  0  0
  152.3222  144.0531  160.6762 N   0  0  0  0  0  0  0  0  0  0  0  0
  152.8687  142.7851  160.7271 C   0  0  0  0  0  0  0  0  0  0  0  0
  153.5604  142.1241  161.7675 C   0  0  0  0  0  0  0  0  0  0  0  0
  154.0357  140.8087  161.5859 C   0  0  0  0  0  0  0  0  0  0  0  0
  153.8270  140.1368  160.3640 C   0  0  0  0  0  0  0  0  0  0  0  0
  153.1384  140.7762  159.3152 C   0  0  0  0  0  0  0  0  0  0  0  0
  152.6652  142.0887  159.5017 C   0  0  0  0  0  0  0  0  0  0  0  0
  151.9680  142.9835  158.6954 N   0  0  0  0  0  0  0  0  0  0  0  0
  151.5118  142.7481  157.3321 C   0  0  0  0  0  0  0  0  0  0  0  0
  150.4438  141.6400  157.2383 C   0  0  1  0  0  0  0  0  0  0  0  0
  149.1843  142.2040  156.9260 O   0  0  0  0  0  0  0  0  0  0  0  0
  150.8551  140.5652  156.2442 C   0  0  0  0  0  0  0  0  0  0  0  0
  152.0908  139.8942  156.3794 C   0  0  0  0  0  0  0  0  0  0  0  0
  152.4595  138.8932  155.4597 C   0  0  0  0  0  0  0  0  0  0  0  0
  151.5943  138.5552  154.4016 C   0  0  0  0  0  0  0  0  0  0  0  0
  150.3593  139.2174  154.2645 C   0  0  0  0  0  0  0  0  0  0  0  0
  149.9900  140.2184  155.1841 C   0  0  0  0  0  0  0  0  0  0  0  0
  151.0746  146.0944  159.6809 H   0  0  0  0  0  0  0  0  0  0  0  0
  150.0677  145.0581  158.6638 H   0  0  0  0  0  0  0  0  0  0  0  0
  151.6026  145.6967  158.0424 H   0  0  0  0  0  0  0  0  0  0  0  0
  153.7263  142.6307  162.7067 H   0  0  0  0  0  0  0  0  0  0  0  0
  154.5637  140.3134  162.3875 H   0  0  0  0  0  0  0  0  0  0  0  0
  154.1961  139.1300  160.2320 H   0  0  0  0  0  0  0  0  0  0  0  0
  152.9795  140.2659  158.3769 H   0  0  0  0  0  0  0  0  0  0  0  0
  151.1222  143.6846  156.9308 H   0  0  0  0  0  0  0  0  0  0  0  0
  152.3734  142.4935  156.7147 H   0  0  0  0  0  0  0  0  0  0  0  0
  150.3343  141.1710  158.2165 H   0  0  0  0  0  0  0  0  0  0  0  0
  149.3226  143.0735  156.5830 H   0  0  0  0  0  0  0  0  0  0  0  0
  152.7588  140.1434  157.1909 H   0  0  0  0  0  0  0  0  0  0  0  0
  153.4059  138.3837  155.5672 H   0  0  0  0  0  0  0  0  0  0  0  0
  151.8768  137.7873  153.6966 H   0  0  0  0  0  0  0  0  0  0  0  0
  149.6939  138.9567  153.4546 H   0  0  0  0  0  0  0  0  0  0  0  0
  149.0385  140.7176  155.0728 H   0  0  0  0  0  0  0  0  0  0  0  0
  1  2  1  0  0  0  0
  1 20  1  0  0  0  0
  1 21  1  0  0  0  0
  1 22  1  0  0  0  0
  2 10  1  0  0  0  0
  2  3  2  0  0  0  0
  3  4  1  0  0  0  0
  4  9  2  0  0  0  0
  4  5  1  0  0  0  0
  5  6  2  0  0  0  0
  5 23  1  0  0  0  0
  6  7  1  0  0  0  0
  6 24  1  0  0  0  0
  7  8  2  0  0  0  0
  7 25  1  0  0  0  0
  8  9  1  0  0  0  0
  8 26  1  0  0  0  0
  9 10  1  0  0  0  0
 10 11  1  0  0  0  0
 11 12  1  0  0  0  0
 11 27  1  0  0  0  0
 11 28  1  0  0  0  0
 12 13  1  0  0  0  0
 12 14  1  0  0  0  0
 12 29  1  0  0  0  0
 13 30  1  0  0  0  0
 14 19  1  0  0  0  0
 14 15  2  0  0  0  0
 15 16  1  0  0  0  0
 15 31  1  0  0  0  0
 16 17  2  0  0  0  0
 16 32  1  0  0  0  0
 17 18  1  0  0  0  0
 17 33  1  0  0  0  0
 18 19  2  0  0  0  0
 18 34  1  0  0  0  0
 19 35  1  0  0  0  0
M  END
> <s_m_source_file>
AV-unprocessed.smi

> <i_m_source_file_index>
530

> <i_lp_mmshare_version>
43012

> <i_f3d_flags>
0

> <s_epik_input>
W2NIXTFbY0hdW2NIXVtjSF1jKGMxMiluKGMobjIpW0NIM10pW0NIMl1bQ0BIXShbT0hdKWMzW2NIXVtjSF1bY0hdW2NIXVtjSF0z

> <s_epik_cmdline>
J2VwaWtfcHl0aG9uJywgJy1waCcsICc3LjAnLCAnLXRuJywgJzgnLCAnLW1hJywgJzIwMCcsICctbWV0YWxfYmluZGluZycsICctaW1hZScsICc8aW5maWxlLm1hZT4nLCAnLW9tYWUnLCAnPG91dGZpbGUubWFlPic=

> <r_epik_Ionization_Penalty>
0.129663

> <r_epik_Ionization_Penalty_Charging>
0

> <r_epik_Ionization_Penalty_Neutral>
0.129663

> <r_epik_State_Penalty>
0.119073

> <r_epik_Charging_Adjusted_Penalty>
0.119073

> <i_epik_Tot_Q>
0

> <i_epik_Tot_abs_Q>
0

> <r_epik_Metal_State_Penalty>
0.000131867

> <b_epik_Metal_Only>
0

> <s_lp_Force_Field>
OPLS_2005

> <r_lp_Energy>
11.6979

> <b_lp_Chiralities_Consistent>
1

> <s_lp_Variant>
AV-unprocessed.smi:530-2

> <Gold.Version>
5.8.1

> <Gold.Id.Protein>
6NUR|6NUR_protein|mol2

> <Gold.PLP.Fitness>
50.4641

> <Gold.PLP.PLP>
-48.9720

> <Gold.PLP.part.hbond>
-1.0000

> <Gold.PLP.part.metal>
0.0000

> <Gold.PLP.part.buried>
-4.3805

> <Gold.PLP.part.nonpolar>
-43.0443

> <Gold.PLP.part.repulsive>
0.0844

> <Gold.PLP.ligand.clash>
0.0000

> <Gold.PLP.ligand.torsion>
0.7662

> <Gold.PLP.Chemscore.Hbond>
1.0000

> <Gold.PLP.Chemscore.CHOScore>
0.0000

> <Gold.PLP.Chemscore.Metal>
0.0000

> <Gold.Chemscore.Hbonds>
donor molecule, donor type, donor heavy atom, donor atom, acceptor molecule, acceptor atom, score
      L1  H    13    30       P1  8028  1.00

> <Gold.PLP.Chemscore.Internal.Correction>
0.0245

> <Gold.Rescore>
     Score         DG    S(hbond)    S(metal)    S(lipo)     H(rot)  DE(clash)    DE(int)     intcor
     18.82     -19.71       0.99        0.00     130.50       1.70       0.17       0.72       ----

> <Gold.Chemscore.Fitness>
18.8235

> <Gold.Chemscore.DG>
-19.7141

> <Gold.Chemscore.ZeroCoef>
-5.4800

> <Gold.Chemscore.Hbond>
0.9943

> <Gold.Chemscore.Metal>
0.0000

> <Gold.Chemscore.Lipo>
130.4993

> <Gold.Chemscore.Internal_Hbond>
0.0000

> <Gold.Chemscore.DEClash>
0.1692

> <Gold.Chemscore.DEInternal>
0.7215

> <Gold.Chemscore.Rot>
1.7013

> <Gold.Chemscore.Internal.Correction>
   9.000000E+99

> <Gold.Chemscore.Hbonds>
donor molecule, donor type, donor heavy atom, donor atom, acceptor molecule, acceptor atom, score
      L1  H    13    30       P1  8028  0.98

> <Gold.Chemscore.Hbond.Weighted>
-3.3211

> <Gold.Chemscore.Metal.Weighted>
-0.0000

> <Gold.Chemscore.Lipo.Weighted>
-15.2684

> <Gold.Chemscore.Internal_Hbond.Weighted>
0.0000

> <Gold.Chemscore.DEClash.Weighted>
0.1692

> <Gold.Chemscore.DEInternal.Weighted>
0.7215

> <Gold.Chemscore.Rot.Weighted>
4.3554

> <Gold.Chemscore.Internal.Correction.Weighted>
   9.000000E+99

> <Gold.Protein.RotatedTorsions>
[ 6907 6896 6895 6894 ] final   93.59 input  -60.11 | X-H torsion
[ 7974 7965 7964 7962 ] final  174.60 input  175.53 | X-H torsion
[ 8008 7997 7996 7995 ] final   66.60 input   59.86 | X-H torsion
[ 10167 10162 10161 10158 ] final  145.42 input  -65.29 | X-H torsion
[ 10718 10713 10712 10709 ] final  153.98 input   66.30 | X-H torsion
[ 10763 10752 10751 10750 ] final  -71.72 input  -60.55 | X-H torsion
[ 11005 11000 10999 10996 ] final  -70.28 input  -57.11 | X-H torsion

> <Gold.Protein.ActiveResidues>
 VAL166  LYS551  ARG553  GLY616  TRP617  ASP618  TYR619  PRO620  LYS621  CYS622 
 ASP623  PHE694  ASN695  SER759  ASP760  ASP761  ALA762  ILE779  LEU786  VAL792 
 PHE793  MET794  SER795  GLU796  ALA797  LYS798  CYS799  TRP800  GLU811  SER814 

> <Gold.Protein.RotatedAtoms>
  152.5452  134.1324  159.8444 H   0  0  0  0  0  0  0  0  0  0  0  0  # atno 6907 bound_to 6896
  151.1369  133.4991  159.2605 H   0  0  0  0  0  0  0  0  0  0  0  0  # atno 6908 bound_to 6896
  151.1615  135.0286  159.8767 H   0  0  0  0  0  0  0  0  0  0  0  0  # atno 6909 bound_to 6896
  144.7218  139.9821  143.6439 H   0  0  0  0  0  0  0  0  0  0  0  0  # atno 7974 bound_to 7965
  155.6799  140.3496  155.4851 H   0  0  0  0  0  0  0  0  0  0  0  0  # atno 8008 bound_to 7997
  155.9616  140.1138  157.0913 H   0  0  0  0  0  0  0  0  0  0  0  0  # atno 8009 bound_to 7997
  154.4144  140.1174  156.5172 H   0  0  0  0  0  0  0  0  0  0  0  0  # atno 8010 bound_to 7997
  139.4926  144.5903  151.6694 H   0  0  0  0  0  0  0  0  0  0  0  0  # atno 10167 bound_to 10162
  157.2376  131.0752  151.1813 H   0  0  0  0  0  0  0  0  0  0  0  0  # atno 10718 bound_to 10713
  154.4357  135.5953  153.6097 H   0  0  0  0  0  0  0  0  0  0  0  0  # atno 10763 bound_to 10752
  152.9802  135.5986  154.3785 H   0  0  0  0  0  0  0  0  0  0  0  0  # atno 10764 bound_to 10752
  154.3628  135.2841  155.2289 H   0  0  0  0  0  0  0  0  0  0  0  0  # atno 10765 bound_to 10752
  141.1571  133.6786  156.6729 H   0  0  0  0  0  0  0  0  0  0  0  0  # atno 11005 bound_to 11000
  146.0479  139.3483  143.0657 LP  0  0  0  0  0  0  0  0  0  0  0  0  # atno 17320 bound_to 7965
  145.8252  140.9659  143.0878 LP  0  0  0  0  0  0  0  0  0  0  0  0  # atno 17321 bound_to 7965
  140.5528  144.0397  150.6134 LP  0  0  0  0  0  0  0  0  0  0  0  0  # atno 17342 bound_to 10162
  140.3457  143.2993  152.0541 LP  0  0  0  0  0  0  0  0  0  0  0  0  # atno 17343 bound_to 10162
  157.3413  130.7034  149.6383 LP  0  0  0  0  0  0  0  0  0  0  0  0  # atno 17370 bound_to 10713
  155.9672  130.4279  150.4765 LP  0  0  0  0  0  0  0  0  0  0  0  0  # atno 17371 bound_to 10713
  140.3161  134.8046  157.4215 LP  0  0  0  0  0  0  0  0  0  0  0  0  # atno 17394 bound_to 11000
  140.1137  134.5312  155.8244 LP  0  0  0  0  0  0  0  0  0  0  0  0  # atno 17395 bound_to 11000

$$$$
