AV-unprocessed.smi:435|AV-procd|sdf|2556|dock7
  -GOLD-   2262022523D 1   1.00000     0.00000
 Structure written by MMmdl.
 44 45  0  0  0  0  0  0  0  0  1 V2000
  151.0260  144.5594  159.7780 C   0  0  0  0  0  0  0  0  0  0  0  0
  151.5489  143.2389  159.2805 C   0  0  0  0  0  0  0  0  0  0  0  0
  151.1585  142.8662  158.1061 N   0  0  0  0  0  0  0  0  0  0  0  0
  151.5778  141.6714  157.5538 N   0  0  0  0  0  0  0  0  0  0  0  0
  151.0562  141.4193  156.2022 C   0  0  0  0  0  0  0  0  0  0  0  0
  149.5608  141.0692  156.1803 C   0  0  0  0  0  0  0  0  0  0  0  0
  149.1583  139.9887  156.6142 O   0  0  0  0  0  0  0  0  0  0  0  0
  148.7495  141.9964  155.6493 N   0  0  0  0  0  0  0  0  0  0  0  0
  147.2990  141.8827  155.5310 C   0  0  2  0  0  0  0  0  0  0  0  0
  146.7264  143.0386  154.6862 C   0  0  0  0  0  0  0  0  0  0  0  0
  145.1918  142.9781  154.6179 C   0  0  0  0  0  0  0  0  0  0  0  0
  144.5600  142.9717  156.0229 C   0  0  1  0  0  0  0  0  0  0  0  0
  143.0280  142.9076  155.9498 C   0  0  0  0  0  0  0  0  0  0  0  0
  145.1332  141.8139  156.8621 C   0  0  0  0  0  0  0  0  0  0  0  0
  146.6675  141.8731  156.9348 C   0  0  0  0  0  0  0  0  0  0  0  0
  152.4026  140.7773  158.1719 C   0  0  0  0  0  0  0  0  0  0  0  0
  152.7364  139.7128  157.6491 O   0  0  0  0  0  0  0  0  0  0  0  0
  152.8454  141.2084  159.4996 C   0  0  0  0  0  0  0  0  0  0  0  0
  153.7178  140.3056  160.1784 C   0  0  0  0  0  0  0  0  0  0  0  0
  154.4347  139.5894  160.7382 N   0  0  0  0  0  0  0  0  0  0  0  0
  152.4528  142.3861  160.0464 C   0  0  0  0  0  0  0  0  0  0  0  0
  152.8841  142.8762  161.4220 C   0  0  0  0  0  0  0  0  0  0  0  0
  150.5665  144.4506  160.7604 H   0  0  0  0  0  0  0  0  0  0  0  0
  150.2720  144.9762  159.1087 H   0  0  0  0  0  0  0  0  0  0  0  0
  151.8330  145.2874  159.8603 H   0  0  0  0  0  0  0  0  0  0  0  0
  151.2369  142.2886  155.5671 H   0  0  0  0  0  0  0  0  0  0  0  0
  151.6006  140.5974  155.7339 H   0  0  0  0  0  0  0  0  0  0  0  0
  149.1668  142.8511  155.3100 H   0  0  0  0  0  0  0  0  0  0  0  0
  147.0569  140.9356  155.0447 H   0  0  0  0  0  0  0  0  0  0  0  0
  147.0318  143.9951  155.1126 H   0  0  0  0  0  0  0  0  0  0  0  0
  147.1355  143.0071  153.6757 H   0  0  0  0  0  0  0  0  0  0  0  0
  144.8189  143.8278  154.0449 H   0  0  0  0  0  0  0  0  0  0  0  0
  144.8892  142.0828  154.0731 H   0  0  0  0  0  0  0  0  0  0  0  0
  144.8261  143.9081  156.5156 H   0  0  0  0  0  0  0  0  0  0  0  0
  142.6917  141.9898  155.4667 H   0  0  0  0  0  0  0  0  0  0  0  0
  142.6260  143.7483  155.3835 H   0  0  0  0  0  0  0  0  0  0  0  0
  142.5861  142.9409  156.9459 H   0  0  0  0  0  0  0  0  0  0  0  0
  144.7194  141.8438  157.8706 H   0  0  0  0  0  0  0  0  0  0  0  0
  144.8276  140.8592  156.4316 H   0  0  0  0  0  0  0  0  0  0  0  0
  147.0396  141.0216  157.5059 H   0  0  0  0  0  0  0  0  0  0  0  0
  146.9680  142.7674  157.4827 H   0  0  0  0  0  0  0  0  0  0  0  0
  153.6780  142.2622  161.8463 H   0  0  0  0  0  0  0  0  0  0  0  0
  152.0414  142.8541  162.1131 H   0  0  0  0  0  0  0  0  0  0  0  0
  153.2611  143.8980  161.3710 H   0  0  0  0  0  0  0  0  0  0  0  0
  1  2  1  0  0  0  0
  1 23  1  0  0  0  0
  1 24  1  0  0  0  0
  1 25  1  0  0  0  0
  2 21  1  0  0  0  0
  2  3  2  0  0  0  0
  3  4  1  0  0  0  0
  4  5  1  0  0  0  0
  4 16  1  0  0  0  0
  5  6  1  0  0  0  0
  5 26  1  0  0  0  0
  5 27  1  0  0  0  0
  6  7  2  0  0  0  0
  6  8  1  0  0  0  0
  8  9  1  0  0  0  0
  8 28  1  0  0  0  0
  9 15  1  0  0  0  0
  9 10  1  0  0  0  0
  9 29  1  0  0  0  0
 10 11  1  0  0  0  0
 10 30  1  0  0  0  0
 10 31  1  0  0  0  0
 11 12  1  0  0  0  0
 11 32  1  0  0  0  0
 11 33  1  0  0  0  0
 12 13  1  0  0  0  0
 12 14  1  0  0  0  0
 12 34  1  0  0  0  0
 13 35  1  0  0  0  0
 13 36  1  0  0  0  0
 13 37  1  0  0  0  0
 14 15  1  0  0  0  0
 14 38  1  0  0  0  0
 14 39  1  0  0  0  0
 15 40  1  0  0  0  0
 15 41  1  0  0  0  0
 16 17  2  0  0  0  0
 16 18  1  0  0  0  0
 18 19  1  0  0  0  0
 18 21  2  0  0  0  0
 19 20  3  0  0  0  0
 21 22  1  0  0  0  0
 22 42  1  0  0  0  0
 22 43  1  0  0  0  0
 22 44  1  0  0  0  0
M  END
> <s_m_source_file>
AV-unprocessed.smi

> <i_m_source_file_index>
435

> <i_lp_mmshare_version>
43012

> <i_f3d_flags>
0

> <s_epik_input>
TiNDYyhjMVtDSDNdKWMoPU8pbihuYzFbQ0gzXSlbQ0gyXUMoPU8pW05IXVtDQEBIXTJbQ0gyXVtDSDJdW0NAQEhdKFtDSDNdKVtDSDJdW0NIMl0y

> <s_epik_cmdline>
J2VwaWtfcHl0aG9uJywgJy1waCcsICc3LjAnLCAnLXRuJywgJzgnLCAnLW1hJywgJzIwMCcsICctbWV0YWxfYmluZGluZycsICctaW1hZScsICc8aW5maWxlLm1hZT4nLCAnLW9tYWUnLCAnPG91dGZpbGUubWFlPic=

> <r_lp_tautomer_probability>
1

> <r_epik_Ionization_Penalty>
1.90703e-08

> <r_epik_Ionization_Penalty_Charging>
2.32563e-11

> <r_epik_Ionization_Penalty_Neutral>
1.90471e-08

> <r_epik_State_Penalty>
-0

> <r_epik_Charging_Adjusted_Penalty>
2.32563e-11

> <i_epik_Tot_Q>
0

> <i_epik_Tot_abs_Q>
0

> <r_epik_Metal_State_Penalty>
-0

> <b_epik_Metal_Only>
0

> <s_lp_Force_Field>
OPLS_2005

> <r_lp_Energy>
23.1706

> <b_lp_Chiralities_Consistent>
1

> <s_lp_Variant>
AV-unprocessed.smi:435-1

> <Gold.Version>
5.8.1

> <Gold.Id.Protein>
6NUR|6NUR_protein|mol2

> <Gold.PLP.Fitness>
42.4697

> <Gold.PLP.PLP>
-38.1084

> <Gold.PLP.part.hbond>
-2.0000

> <Gold.PLP.part.metal>
0.0000

> <Gold.PLP.part.buried>
-5.5165

> <Gold.PLP.part.nonpolar>
-31.0907

> <Gold.PLP.part.repulsive>
0.2188

> <Gold.PLP.ligand.clash>
0.0000

> <Gold.PLP.ligand.torsion>
0.2814

> <Gold.PLP.Chemscore.Hbond>
1.6400

> <Gold.PLP.Chemscore.CHOScore>
0.0000

> <Gold.PLP.Chemscore.Metal>
0.0000

> <Gold.Chemscore.Hbonds>
donor molecule, donor type, donor heavy atom, donor atom, acceptor molecule, acceptor atom, score
      L1  H     8    28       P1  8028  0.69
      P1  H  7997  8010       L1    17  1.00

> <Gold.PLP.Chemscore.Internal.Correction>
0.0041

> <Gold.Rescore>
     Score         DG    S(hbond)    S(metal)    S(lipo)     H(rot)  DE(clash)    DE(int)     intcor
     16.51     -16.75       1.73        0.00      78.83       1.46       0.00       0.24       ----

> <Gold.Chemscore.Fitness>
16.5054

> <Gold.Chemscore.DG>
-16.7485

> <Gold.Chemscore.ZeroCoef>
-5.4800

> <Gold.Chemscore.Hbond>
1.7324

> <Gold.Chemscore.Metal>
0.0000

> <Gold.Chemscore.Lipo>
78.8336

> <Gold.Chemscore.Internal_Hbond>
0.0000

> <Gold.Chemscore.DEClash>
0.0004

> <Gold.Chemscore.DEInternal>
0.2426

> <Gold.Chemscore.Rot>
1.4615

> <Gold.Chemscore.Internal.Correction>
   9.000000E+99

> <Gold.Chemscore.Hbonds>
donor molecule, donor type, donor heavy atom, donor atom, acceptor molecule, acceptor atom, score
      L1  H     8    28       P1  8028  0.70
      P1  H  7997  8010       L1    17  0.50

> <Gold.Chemscore.Hbond.Weighted>
-5.7863

> <Gold.Chemscore.Metal.Weighted>
-0.0000

> <Gold.Chemscore.Lipo.Weighted>
-9.2235

> <Gold.Chemscore.Internal_Hbond.Weighted>
0.0000

> <Gold.Chemscore.DEClash.Weighted>
0.0004

> <Gold.Chemscore.DEInternal.Weighted>
0.2426

> <Gold.Chemscore.Rot.Weighted>
3.7414

> <Gold.Chemscore.Internal.Correction.Weighted>
   9.000000E+99

> <Gold.Protein.RotatedTorsions>
[ 6907 6896 6895 6894 ] final   84.74 input  -60.11 | X-H torsion
[ 7974 7965 7964 7962 ] final -113.58 input  175.53 | X-H torsion
[ 8008 7997 7996 7995 ] final   44.33 input   59.86 | X-H torsion
[ 10167 10162 10161 10158 ] final   94.86 input  -65.29 | X-H torsion
[ 10718 10713 10712 10709 ] final   51.52 input   66.30 | X-H torsion
[ 10763 10752 10751 10750 ] final -114.46 input  -60.55 | X-H torsion
[ 11005 11000 10999 10996 ] final  -21.63 input  -57.11 | X-H torsion

> <Gold.Protein.ActiveResidues>
 VAL166  LYS551  ARG553  GLY616  TRP617  ASP618  TYR619  PRO620  LYS621  CYS622 
 ASP623  PHE694  ASN695  SER759  ASP760  ASP761  ALA762  ILE779  LEU786  VAL792 
 PHE793  MET794  SER795  GLU796  ALA797  LYS798  CYS799  TRP800  GLU811  SER814 

> <Gold.Protein.RotatedAtoms>
  152.5359  134.2694  159.8965 H   0  0  0  0  0  0  0  0  0  0  0  0  # atno 6907 bound_to 6896
  151.2651  133.4276  159.2626 H   0  0  0  0  0  0  0  0  0  0  0  0  # atno 6908 bound_to 6896
  151.0418  134.9627  159.8222 H   0  0  0  0  0  0  0  0  0  0  0  0  # atno 6909 bound_to 6896
  145.1303  140.8720  143.3762 H   0  0  0  0  0  0  0  0  0  0  0  0  # atno 7974 bound_to 7965
  155.3175  140.3395  155.4242 H   0  0  0  0  0  0  0  0  0  0  0  0  # atno 8008 bound_to 7997
  156.1925  140.1703  156.8101 H   0  0  0  0  0  0  0  0  0  0  0  0  # atno 8009 bound_to 7997
  154.5459  140.0715  156.8572 H   0  0  0  0  0  0  0  0  0  0  0  0  # atno 8010 bound_to 7997
  139.8043  144.6800  150.9723 H   0  0  0  0  0  0  0  0  0  0  0  0  # atno 10167 bound_to 10162
  157.4989  130.8424  149.8292 H   0  0  0  0  0  0  0  0  0  0  0  0  # atno 10718 bound_to 10713
  154.8441  135.4417  154.1510 H   0  0  0  0  0  0  0  0  0  0  0  0  # atno 10763 bound_to 10752
  153.2671  135.6941  153.7525 H   0  0  0  0  0  0  0  0  0  0  0  0  # atno 10764 bound_to 10752
  153.6780  135.3408  155.3146 H   0  0  0  0  0  0  0  0  0  0  0  0  # atno 10765 bound_to 10752
  140.8580  133.7809  156.0041 H   0  0  0  0  0  0  0  0  0  0  0  0  # atno 11005 bound_to 11000
  145.0643  139.3081  143.5864 LP  0  0  0  0  0  0  0  0  0  0  0  0  # atno 17320 bound_to 7965
  146.3514  140.0096  142.8668 LP  0  0  0  0  0  0  0  0  0  0  0  0  # atno 17321 bound_to 7965
  140.7819  143.4249  151.0783 LP  0  0  0  0  0  0  0  0  0  0  0  0  # atno 17342 bound_to 10162
  139.7920  143.8206  152.3153 LP  0  0  0  0  0  0  0  0  0  0  0  0  # atno 17343 bound_to 10162
  156.0217  130.3793  150.1943 LP  0  0  0  0  0  0  0  0  0  0  0  0  # atno 17370 bound_to 10713
  157.0132  130.9957  151.3360 LP  0  0  0  0  0  0  0  0  0  0  0  0  # atno 17371 bound_to 10713
  140.8715  134.2720  157.5188 LP  0  0  0  0  0  0  0  0  0  0  0  0  # atno 17394 bound_to 11000
  139.8706  134.9570  156.4254 LP  0  0  0  0  0  0  0  0  0  0  0  0  # atno 17395 bound_to 11000

$$$$
