AV-unprocessed.smi:3303|AV-procd|sdf|12672|dock10
  -GOLD-   2272019 03D 1   1.00000     0.00000
 Structure written by MMmdl.
 45 46  0  0  0  0  0  0  0  0  3 V2000
  149.8444  131.6384  154.9427 C   0  0  0  0  0  0  0  0  0  0  0  0
  149.0509  131.8102  153.6350 C   0  0  1  0  0  0  0  0  0  0  0  0
  148.0743  130.6309  153.4491 C   0  0  0  0  0  0  0  0  0  0  0  0
  147.2900  130.7398  152.1913 N   0  3  1  0  0  0  0  0  0  0  0  0
  146.4720  129.5222  151.9713 C   0  0  0  0  0  0  0  0  0  0  0  0
  146.5139  132.0143  152.1276 C   0  0  2  0  0  0  0  0  0  0  0  0
  145.7153  132.1593  150.8173 C   0  0  0  0  0  0  0  0  0  0  0  0
  147.4608  133.2210  152.2920 C   0  0  0  0  0  0  0  0  0  0  0  0
  148.2828  133.1481  153.5883 C   0  0  2  0  0  0  0  0  0  0  0  0
  149.2142  134.2982  153.6484 N   0  3  0  0  0  0  0  0  0  0  0  0
  149.2503  134.9985  154.9477 C   0  0  0  0  0  0  0  0  0  0  0  0
  150.6927  135.1562  155.4471 C   0  0  0  0  0  0  0  0  0  0  0  0
  151.2373  136.5484  155.1933 C   0  0  0  0  0  0  0  0  0  0  0  0
  150.4593  137.5162  154.5231 C   0  0  0  0  0  0  0  0  0  0  0  0
  151.0178  138.7906  154.3048 C   0  0  0  0  0  0  0  0  0  0  0  0
  152.3247  139.0457  154.7625 C   0  0  0  0  0  0  0  0  0  0  0  0
  153.0192  138.0108  155.4200 C   0  0  0  0  0  0  0  0  0  0  0  0
  152.4942  136.7841  155.6318 N   0  0  0  0  0  0  0  0  0  0  0  0
  149.1893  131.6769  155.8136 H   0  0  0  0  0  0  0  0  0  0  0  0
  150.6000  132.4154  155.0611 H   0  0  0  0  0  0  0  0  0  0  0  0
  150.3645  130.6801  154.9624 H   0  0  0  0  0  0  0  0  0  0  0  0
  149.7630  131.7896  152.8080 H   0  0  0  0  0  0  0  0  0  0  0  0
  148.6395  129.6976  153.4381 H   0  0  0  0  0  0  0  0  0  0  0  0
  147.3888  130.5712  154.2964 H   0  0  0  0  0  0  0  0  0  0  0  0
  145.6459  129.4711  152.6816 H   0  0  0  0  0  0  0  0  0  0  0  0
  147.0765  128.6223  152.0906 H   0  0  0  0  0  0  0  0  0  0  0  0
  146.0644  129.4900  150.9614 H   0  0  0  0  0  0  0  0  0  0  0  0
  145.8034  132.0185  152.9564 H   0  0  0  0  0  0  0  0  0  0  0  0
  145.2404  133.1390  150.7576 H   0  0  0  0  0  0  0  0  0  0  0  0
  144.9147  131.4236  150.7416 H   0  0  0  0  0  0  0  0  0  0  0  0
  146.3584  132.0523  149.9432 H   0  0  0  0  0  0  0  0  0  0  0  0
  148.1331  133.2732  151.4336 H   0  0  0  0  0  0  0  0  0  0  0  0
  146.8814  134.1454  152.2832 H   0  0  0  0  0  0  0  0  0  0  0  0
  147.5932  133.1881  154.4339 H   0  0  0  0  0  0  0  0  0  0  0  0
  150.1452  133.9643  153.4427 H   0  0  0  0  0  0  0  0  0  0  0  0
  148.7795  135.9766  154.8386 H   0  0  0  0  0  0  0  0  0  0  0  0
  148.6661  134.4362  155.6774 H   0  0  0  0  0  0  0  0  0  0  0  0
  150.7439  134.9420  156.5155 H   0  0  0  0  0  0  0  0  0  0  0  0
  151.3417  134.4288  154.9568 H   0  0  0  0  0  0  0  0  0  0  0  0
  149.4593  137.2911  154.1823 H   0  0  0  0  0  0  0  0  0  0  0  0
  150.4545  139.5579  153.7943 H   0  0  0  0  0  0  0  0  0  0  0  0
  152.7845  140.0113  154.6128 H   0  0  0  0  0  0  0  0  0  0  0  0
  154.0233  138.1715  155.7836 H   0  0  0  0  0  0  0  0  0  0  0  0
  148.9498  134.9645  152.9365 H   0  0  0  0  0  0  0  0  0  0  0  0
  147.9609  130.7688  151.4365 H   0  0  0  0  0  0  0  0  0  0  0  0
  1  2  1  0  0  0  0
  1 19  1  0  0  0  0
  1 20  1  0  0  0  0
  1 21  1  0  0  0  0
  2  9  1  0  0  0  0
  2  3  1  0  0  0  0
  2 22  1  0  0  0  0
  3  4  1  0  0  0  0
  3 23  1  0  0  0  0
  3 24  1  0  0  0  0
  4  5  1  0  0  0  0
  4  6  1  0  0  0  0
  4 45  1  0  0  0  0
  5 25  1  0  0  0  0
  5 26  1  0  0  0  0
  5 27  1  0  0  0  0
  6  7  1  0  0  0  0
  6  8  1  0  0  0  0
  6 28  1  0  0  0  0
  7 29  1  0  0  0  0
  7 30  1  0  0  0  0
  7 31  1  0  0  0  0
  8  9  1  0  0  0  0
  8 32  1  0  0  0  0
  8 33  1  0  0  0  0
  9 10  1  0  0  0  0
  9 34  1  0  0  0  0
 10 11  1  0  0  0  0
 10 35  1  0  0  0  0
 10 44  1  0  0  0  0
 11 12  1  0  0  0  0
 11 36  1  0  0  0  0
 11 37  1  0  0  0  0
 12 13  1  0  0  0  0
 12 38  1  0  0  0  0
 12 39  1  0  0  0  0
 13 18  1  0  0  0  0
 13 14  2  0  0  0  0
 14 15  1  0  0  0  0
 14 40  1  0  0  0  0
 15 16  2  0  0  0  0
 15 41  1  0  0  0  0
 16 17  1  0  0  0  0
 16 42  1  0  0  0  0
 17 18  2  0  0  0  0
 17 43  1  0  0  0  0
M  CHG  1   4   1
M  CHG  1  10   1
M  END
> <s_m_source_file>
AV-unprocessed.smi

> <i_m_source_file_index>
3303

> <i_lp_mmshare_version>
43012

> <i_f3d_flags>
0

> <s_epik_input>
W0NIM11bQ0BASF0xW0NIMl1OKFtDSDNdKVtDQEBIXShbQ0gzXSlbQ0gyXVtDQEhdMVtOSF1bQ0gyXVtDSDJdYzJbY0hdW2NIXVtjSF1bY0hdbjI=

> <s_epik_cmdline>
J2VwaWtfcHl0aG9uJywgJy1waCcsICc3LjAnLCAnLXRuJywgJzgnLCAnLW1hJywgJzIwMCcsICctbWV0YWxfYmluZGluZycsICctaW1hZScsICc8aW5maWxlLm1hZT4nLCAnLW9tYWUnLCAnPG91dGZpbGUubWFlPic=

> <r_epik_Ionization_Penalty>
0.0769462

> <r_epik_Ionization_Penalty_Charging>
0.0759813

> <r_epik_Ionization_Penalty_Neutral>
0.000964829

> <r_epik_State_Penalty>
0.0654373

> <r_epik_Charging_Adjusted_Penalty>
0.141419

> <i_epik_Tot_Q>
2

> <i_epik_Tot_abs_Q>
2

> <r_epik_Metal_State_Penalty>
0.0656439

> <b_epik_Metal_Only>
0

> <s_lp_Force_Field>
OPLS_2005

> <r_lp_Energy>
29.1913

> <b_lp_Chiralities_Consistent>
1

> <s_lp_Variant>
AV-unprocessed.smi:3303-16

> <Gold.Version>
5.8.1

> <Gold.Id.Protein>
6NUR|6NUR_protein|mol2

> <Gold.PLP.Fitness>
45.7014

> <Gold.PLP.PLP>
-36.5023

> <Gold.PLP.part.hbond>
-3.0000

> <Gold.PLP.part.metal>
0.0000

> <Gold.PLP.part.buried>
-2.1997

> <Gold.PLP.part.nonpolar>
-31.7752

> <Gold.PLP.part.repulsive>
0.0384

> <Gold.PLP.ligand.clash>
0.0000

> <Gold.PLP.ligand.torsion>
1.2961

> <Gold.PLP.Chemscore.Hbond>
3.9280

> <Gold.PLP.Chemscore.CHOScore>
0.0000

> <Gold.PLP.Chemscore.Metal>
0.0000

> <Gold.Chemscore.Hbonds>
donor molecule, donor type, donor heavy atom, donor atom, acceptor molecule, acceptor atom, score
      L1  H     4    45       P1 10747  1.00
      L1  H    10    44       P1  7948  1.60
      P1  H 10752 10765       L1    18  0.76

> <Gold.PLP.Chemscore.Internal.Correction>
0.0073

> <Gold.Rescore>
     Score         DG    S(hbond)    S(metal)    S(lipo)     H(rot)  DE(clash)    DE(int)     intcor
     19.57     -20.88       2.48        0.00      90.92       1.37       0.07       1.23       ----

> <Gold.Chemscore.Fitness>
19.5745

> <Gold.Chemscore.DG>
-20.8797

> <Gold.Chemscore.ZeroCoef>
-5.4800

> <Gold.Chemscore.Hbond>
2.4793

> <Gold.Chemscore.Metal>
0.0000

> <Gold.Chemscore.Lipo>
90.9168

> <Gold.Chemscore.Internal_Hbond>
0.0000

> <Gold.Chemscore.DEClash>
0.0727

> <Gold.Chemscore.DEInternal>
1.2325

> <Gold.Chemscore.Rot>
1.3744

> <Gold.Chemscore.Internal.Correction>
   9.000000E+99

> <Gold.Chemscore.Hbonds>
donor molecule, donor type, donor heavy atom, donor atom, acceptor molecule, acceptor atom, score
      L1  H     4    45       P1 10747  0.93
      L1  H    10    44       P1  7948  0.12
      P1  H 10752 10765       L1    18  0.16

> <Gold.Chemscore.Hbond.Weighted>
-8.2809

> <Gold.Chemscore.Metal.Weighted>
-0.0000

> <Gold.Chemscore.Lipo.Weighted>
-10.6373

> <Gold.Chemscore.Internal_Hbond.Weighted>
0.0000

> <Gold.Chemscore.DEClash.Weighted>
0.0727

> <Gold.Chemscore.DEInternal.Weighted>
1.2325

> <Gold.Chemscore.Rot.Weighted>
3.5185

> <Gold.Chemscore.Internal.Correction.Weighted>
   9.000000E+99

> <Gold.Protein.RotatedTorsions>
[ 6907 6896 6895 6894 ] final   20.42 input  -60.11 | X-H torsion
[ 7974 7965 7964 7962 ] final   77.36 input  175.53 | X-H torsion
[ 8008 7997 7996 7995 ] final -123.84 input   59.86 | X-H torsion
[ 10167 10162 10161 10158 ] final -127.65 input  -65.29 | X-H torsion
[ 10718 10713 10712 10709 ] final   19.34 input   66.30 | X-H torsion
[ 10763 10752 10751 10750 ] final -146.99 input  -60.55 | X-H torsion
[ 11005 11000 10999 10996 ] final  -86.98 input  -57.11 | X-H torsion

> <Gold.Protein.ActiveResidues>
 VAL166  LYS551  ARG553  GLY616  TRP617  ASP618  TYR619  PRO620  LYS621  CYS622 
 ASP623  PHE694  ASN695  SER759  ASP760  ASP761  ALA762  ILE779  LEU786  VAL792 
 PHE793  MET794  SER795  GLU796  ALA797  LYS798  CYS799  TRP800  GLU811  SER814 

> <Gold.Protein.RotatedAtoms>
  151.8961  135.0397  160.0501 H   0  0  0  0  0  0  0  0  0  0  0  0  # atno 6907 bound_to 6896
  152.2397  133.5120  159.5271 H   0  0  0  0  0  0  0  0  0  0  0  0  # atno 6908 bound_to 6896
  150.7049  134.1023  159.4012 H   0  0  0  0  0  0  0  0  0  0  0  0  # atno 6909 bound_to 6896
  145.6910  139.2552  143.1760 H   0  0  0  0  0  0  0  0  0  0  0  0  # atno 7974 bound_to 7965
  155.1871  140.0412  157.2893 H   0  0  0  0  0  0  0  0  0  0  0  0  # atno 8008 bound_to 7997
  154.6164  140.2490  155.7576 H   0  0  0  0  0  0  0  0  0  0  0  0  # atno 8009 bound_to 7997
  156.2409  140.2904  156.0451 H   0  0  0  0  0  0  0  0  0  0  0  0  # atno 8010 bound_to 7997
  139.9586  143.5975  152.2452 H   0  0  0  0  0  0  0  0  0  0  0  0  # atno 10167 bound_to 10162
  157.1091  130.6501  149.5892 H   0  0  0  0  0  0  0  0  0  0  0  0  # atno 10718 bound_to 10713
  154.8309  135.3372  154.6747 H   0  0  0  0  0  0  0  0  0  0  0  0  # atno 10763 bound_to 10752
  153.7367  135.6948  153.4981 H   0  0  0  0  0  0  0  0  0  0  0  0  # atno 10764 bound_to 10752
  153.2273  135.4428  155.0507 H   0  0  0  0  0  0  0  0  0  0  0  0  # atno 10765 bound_to 10752
  141.1623  133.7485  156.9240 H   0  0  0  0  0  0  0  0  0  0  0  0  # atno 11005 bound_to 11000
  146.0882  140.7686  142.9608 LP  0  0  0  0  0  0  0  0  0  0  0  0  # atno 17320 bound_to 7965
  144.6997  140.3595  143.7166 LP  0  0  0  0  0  0  0  0  0  0  0  0  # atno 17321 bound_to 7965
  139.6571  144.7662  151.2034 LP  0  0  0  0  0  0  0  0  0  0  0  0  # atno 17342 bound_to 10162
  140.7560  143.6068  150.8645 LP  0  0  0  0  0  0  0  0  0  0  0  0  # atno 17343 bound_to 10162
  155.9855  130.4885  150.7033 LP  0  0  0  0  0  0  0  0  0  0  0  0  # atno 17370 bound_to 10713
  157.4575  131.0879  151.0781 LP  0  0  0  0  0  0  0  0  0  0  0  0  # atno 17371 bound_to 10713
  140.1432  134.9280  157.2494 LP  0  0  0  0  0  0  0  0  0  0  0  0  # atno 17394 bound_to 11000
  140.2812  134.3348  155.7342 LP  0  0  0  0  0  0  0  0  0  0  0  0  # atno 17395 bound_to 11000

$$$$
