AV-unprocessed.smi:2986|AV-procd|sdf|11382|dock10
  -GOLD-   2272016303D 1   1.00000     0.00000
 Structure written by MMmdl.
 43 45  0  0  0  0  0  0  0  0  2 V2000
  152.7281  138.6946  154.7634 C   0  0  0  0  0  0  0  0  0  0  0  0
  152.6851  139.4752  155.9450 O   0  0  0  0  0  0  0  0  0  0  0  0
  152.1814  138.7528  157.0546 C   0  0  0  0  0  0  0  0  0  0  0  0
  152.0711  139.7063  158.2497 C   0  0  0  0  0  0  0  0  0  0  0  0
  151.4378  140.9793  157.8825 N   0  0  0  0  0  0  0  0  0  0  0  0
  150.5605  141.2765  156.8848 C   0  0  0  0  0  0  0  0  0  0  0  0
  149.9044  140.1505  155.6982 S   0  0  0  0  0  0  0  0  0  0  0  0
  149.1265  141.2155  154.4501 C   0  0  0  0  0  0  0  0  0  0  0  0
  147.6143  141.3364  154.6377 C   0  0  0  0  0  0  0  0  0  0  0  0
  146.9298  140.3154  154.6837 O   0  0  0  0  0  0  0  0  0  0  0  0
  147.1350  142.5901  154.7268 N   0  0  0  0  0  0  0  0  0  0  0  0
  145.7867  143.0147  154.8340 C   0  0  0  0  0  0  0  0  0  0  0  0
  145.2567  144.2618  154.3929 C   0  0  0  0  0  0  0  0  0  0  0  0
  143.9343  144.1654  154.7227 C   0  0  0  0  0  0  0  0  0  0  0  0
  142.7775  145.0899  154.5571 C   0  0  0  0  0  0  0  0  0  0  0  0
  143.6794  142.9673  155.3141 O   0  0  0  0  0  0  0  0  0  0  0  0
  144.8710  142.2360  155.3794 N   0  0  0  0  0  0  0  0  0  0  0  0
  150.2474  142.5971  156.9851 N   0  3  0  0  0  0  0  0  0  0  0  0
  150.9458  143.1590  158.0553 C   0  0  0  0  0  0  0  0  0  0  0  0
  150.9622  144.4594  158.5505 C   0  0  0  0  0  0  0  0  0  0  0  0
  151.7924  144.7017  159.6646 C   0  0  0  0  0  0  0  0  0  0  0  0
  152.5641  143.6731  160.2437 C   0  0  0  0  0  0  0  0  0  0  0  0
  152.5379  142.3577  159.7351 C   0  0  0  0  0  0  0  0  0  0  0  0
  151.7145  142.1264  158.6337 C   0  0  0  0  0  0  0  0  0  0  0  0
  153.1124  139.2969  153.9403 H   0  0  0  0  0  0  0  0  0  0  0  0
  151.7337  138.3421  154.4864 H   0  0  0  0  0  0  0  0  0  0  0  0
  153.3846  137.8318  154.8848 H   0  0  0  0  0  0  0  0  0  0  0  0
  151.2040  138.3324  156.8123 H   0  0  0  0  0  0  0  0  0  0  0  0
  152.8482  137.9236  157.2967 H   0  0  0  0  0  0  0  0  0  0  0  0
  151.4759  139.2500  159.0409 H   0  0  0  0  0  0  0  0  0  0  0  0
  153.0509  139.9121  158.6820 H   0  0  0  0  0  0  0  0  0  0  0  0
  149.5821  142.2052  154.5024 H   0  0  0  0  0  0  0  0  0  0  0  0
  149.3400  140.8181  153.4576 H   0  0  0  0  0  0  0  0  0  0  0  0
  147.8166  143.3326  154.6644 H   0  0  0  0  0  0  0  0  0  0  0  0
  145.7456  145.0951  153.9114 H   0  0  0  0  0  0  0  0  0  0  0  0
  143.0790  146.0039  154.0452 H   0  0  0  0  0  0  0  0  0  0  0  0
  142.3617  145.3655  155.5263 H   0  0  0  0  0  0  0  0  0  0  0  0
  141.9880  144.6193  153.9709 H   0  0  0  0  0  0  0  0  0  0  0  0
  150.3720  145.2491  158.1091 H   0  0  0  0  0  0  0  0  0  0  0  0
  151.8387  145.6966  160.0835 H   0  0  0  0  0  0  0  0  0  0  0  0
  153.1893  143.8972  161.0959 H   0  0  0  0  0  0  0  0  0  0  0  0
  153.1331  141.5768  160.1850 H   0  0  0  0  0  0  0  0  0  0  0  0
  149.6041  143.0750  156.3675 H   0  0  0  0  0  0  0  0  0  0  0  0
  1  2  1  0  0  0  0
  1 25  1  0  0  0  0
  1 26  1  0  0  0  0
  1 27  1  0  0  0  0
  2  3  1  0  0  0  0
  3  4  1  0  0  0  0
  3 28  1  0  0  0  0
  3 29  1  0  0  0  0
  4  5  1  0  0  0  0
  4 30  1  0  0  0  0
  4 31  1  0  0  0  0
  5 24  1  0  0  0  0
  5  6  1  0  0  0  0
  6  7  1  0  0  0  0
  6 18  2  0  0  0  0
  7  8  1  0  0  0  0
  8  9  1  0  0  0  0
  8 32  1  0  0  0  0
  8 33  1  0  0  0  0
  9 10  2  0  0  0  0
  9 11  1  0  0  0  0
 11 12  1  0  0  0  0
 11 34  1  0  0  0  0
 12 17  2  0  0  0  0
 12 13  1  0  0  0  0
 13 14  2  0  0  0  0
 13 35  1  0  0  0  0
 14 15  1  0  0  0  0
 14 16  1  0  0  0  0
 15 36  1  0  0  0  0
 15 37  1  0  0  0  0
 15 38  1  0  0  0  0
 16 17  1  0  0  0  0
 18 19  1  0  0  0  0
 18 43  1  0  0  0  0
 19 24  2  0  0  0  0
 19 20  1  0  0  0  0
 20 21  2  0  0  0  0
 20 39  1  0  0  0  0
 21 22  1  0  0  0  0
 21 40  1  0  0  0  0
 22 23  2  0  0  0  0
 22 41  1  0  0  0  0
 23 24  1  0  0  0  0
 23 42  1  0  0  0  0
M  CHG  1  18   1
M  END
> <s_m_source_file>
AV-unprocessed.smi

> <i_m_source_file_index>
2986

> <i_lp_mmshare_version>
43012

> <i_f3d_flags>
0

> <s_epik_input>
W2NIXTFbY0hdW2NIXVtjSF1jKGMxMiluKFtDSDJdW0NIMl1PW0NIM10pYyhuMilTW0NIMl1DKD1PKVtOSF1jM1tjSF1jKFtDSDNdKW9uMw==

> <s_epik_cmdline>
J2VwaWtfcHl0aG9uJywgJy1waCcsICc3LjAnLCAnLXRuJywgJzgnLCAnLW1hJywgJzIwMCcsICctbWV0YWxfYmluZGluZycsICctaW1hZScsICc8aW5maWxlLm1hZT4nLCAnLW9tYWUnLCAnPG91dGZpbGUubWFlPic=

> <r_epik_Ionization_Penalty>
1.88527

> <r_epik_Ionization_Penalty_Charging>
1.88465

> <r_epik_Ionization_Penalty_Neutral>
0.000624705

> <r_epik_State_Penalty>
2.00469

> <r_epik_Charging_Adjusted_Penalty>
3.88934

> <i_epik_Tot_Q>
1

> <i_epik_Tot_abs_Q>
1

> <r_epik_Metal_State_Penalty>
2.24687

> <b_epik_Metal_Only>
0

> <s_lp_Force_Field>
OPLS_2005

> <r_lp_Energy>
12.3116

> <b_lp_Chiralities_Consistent>
1

> <s_lp_Variant>
AV-unprocessed.smi:2986-2

> <Gold.Version>
5.8.1

> <Gold.Id.Protein>
6NUR|6NUR_protein|mol2

> <Gold.PLP.Fitness>
57.5868

> <Gold.PLP.PLP>
-47.7755

> <Gold.PLP.part.hbond>
-3.0000

> <Gold.PLP.part.metal>
0.0000

> <Gold.PLP.part.buried>
-7.6561

> <Gold.PLP.part.nonpolar>
-38.5012

> <Gold.PLP.part.repulsive>
0.5575

> <Gold.PLP.ligand.clash>
0.1236

> <Gold.PLP.ligand.torsion>
1.0246

> <Gold.PLP.Chemscore.Hbond>
3.9600

> <Gold.PLP.Chemscore.CHOScore>
0.0000

> <Gold.PLP.Chemscore.Metal>
0.0000

> <Gold.Chemscore.Hbonds>
donor molecule, donor type, donor heavy atom, donor atom, acceptor molecule, acceptor atom, score
      L1  H    11    34       P1  8028  0.94
      L1  H    18    43       P1  8028  1.98
      P1  H  7997  8010       L1     2  1.00

> <Gold.PLP.Chemscore.Internal.Correction>
0.1042

> <Gold.Rescore>
     Score         DG    S(hbond)    S(metal)    S(lipo)     H(rot)  DE(clash)    DE(int)     intcor
     15.44     -20.41       2.18        0.00     116.67       2.35       0.45       4.51       ----

> <Gold.Chemscore.Fitness>
15.4409

> <Gold.Chemscore.DG>
-20.4080

> <Gold.Chemscore.ZeroCoef>
-5.4800

> <Gold.Chemscore.Hbond>
2.1800

> <Gold.Chemscore.Metal>
0.0000

> <Gold.Chemscore.Lipo>
116.6738

> <Gold.Chemscore.Internal_Hbond>
0.0000

> <Gold.Chemscore.DEClash>
0.4543

> <Gold.Chemscore.DEInternal>
4.5128

> <Gold.Chemscore.Rot>
2.3453

> <Gold.Chemscore.Internal.Correction>
   9.000000E+99

> <Gold.Chemscore.Hbonds>
donor molecule, donor type, donor heavy atom, donor atom, acceptor molecule, acceptor atom, score
      L1  H    11    34       P1  8028  0.63
      L1  H    18    43       P1  8028  0.93
      P1  H  7997  8010       L1     2  0.44

> <Gold.Chemscore.Hbond.Weighted>
-7.2812

> <Gold.Chemscore.Metal.Weighted>
-0.0000

> <Gold.Chemscore.Lipo.Weighted>
-13.6508

> <Gold.Chemscore.Internal_Hbond.Weighted>
0.0000

> <Gold.Chemscore.DEClash.Weighted>
0.4543

> <Gold.Chemscore.DEInternal.Weighted>
4.5128

> <Gold.Chemscore.Rot.Weighted>
6.0040

> <Gold.Chemscore.Internal.Correction.Weighted>
   9.000000E+99

> <Gold.Protein.RotatedTorsions>
[ 6907 6896 6895 6894 ] final    5.89 input  -60.11 | X-H torsion
[ 7974 7965 7964 7962 ] final   88.00 input  175.53 | X-H torsion
[ 8008 7997 7996 7995 ] final   67.34 input   59.86 | X-H torsion
[ 10167 10162 10161 10158 ] final   97.71 input  -65.29 | X-H torsion
[ 10718 10713 10712 10709 ] final -161.30 input   66.30 | X-H torsion
[ 10763 10752 10751 10750 ] final   77.88 input  -60.55 | X-H torsion
[ 11005 11000 10999 10996 ] final   75.72 input  -57.11 | X-H torsion

> <Gold.Protein.ActiveResidues>
 VAL166  LYS551  ARG553  GLY616  TRP617  ASP618  TYR619  PRO620  LYS621  CYS622 
 ASP623  PHE694  ASN695  SER759  ASP760  ASP761  ALA762  ILE779  LEU786  VAL792 
 PHE793  MET794  SER795  GLU796  ALA797  LYS798  CYS799  TRP800  GLU811  SER814 

> <Gold.Protein.RotatedAtoms>
  151.6648  135.0984  160.0186 H   0  0  0  0  0  0  0  0  0  0  0  0  # atno 6907 bound_to 6896
  152.3926  133.6696  159.6258 H   0  0  0  0  0  0  0  0  0  0  0  0  # atno 6908 bound_to 6896
  150.7839  133.8845  159.3336 H   0  0  0  0  0  0  0  0  0  0  0  0  # atno 6909 bound_to 6896
  145.5515  139.2296  143.2510 H   0  0  0  0  0  0  0  0  0  0  0  0  # atno 7974 bound_to 7965
  155.6913  140.3496  155.4895 H   0  0  0  0  0  0  0  0  0  0  0  0  # atno 8008 bound_to 7997
  155.9521  140.1121  157.0990 H   0  0  0  0  0  0  0  0  0  0  0  0  # atno 8009 bound_to 7997
  154.4124  140.1192  156.5053 H   0  0  0  0  0  0  0  0  0  0  0  0  # atno 8010 bound_to 7997
  139.7775  144.6900  151.0068 H   0  0  0  0  0  0  0  0  0  0  0  0  # atno 10167 bound_to 10162
  156.5943  130.8783  151.2898 H   0  0  0  0  0  0  0  0  0  0  0  0  # atno 10718 bound_to 10713
  153.0832  135.4897  154.8545 H   0  0  0  0  0  0  0  0  0  0  0  0  # atno 10763 bound_to 10752
  154.7177  135.3033  154.9099 H   0  0  0  0  0  0  0  0  0  0  0  0  # atno 10764 bound_to 10752
  153.9773  135.6794  153.4802 H   0  0  0  0  0  0  0  0  0  0  0  0  # atno 10765 bound_to 10752
  139.9331  134.7541  156.1306 H   0  0  0  0  0  0  0  0  0  0  0  0  # atno 11005 bound_to 11000
  146.1913  140.6338  142.9144 LP  0  0  0  0  0  0  0  0  0  0  0  0  # atno 17320 bound_to 7965
  144.7527  140.5230  143.6791 LP  0  0  0  0  0  0  0  0  0  0  0  0  # atno 17321 bound_to 7965
  140.7817  143.4519  151.0400 LP  0  0  0  0  0  0  0  0  0  0  0  0  # atno 17342 bound_to 10162
  139.8201  143.7832  152.3176 LP  0  0  0  0  0  0  0  0  0  0  0  0  # atno 17343 bound_to 10162
  157.7296  130.9673  150.1793 LP  0  0  0  0  0  0  0  0  0  0  0  0  # atno 17370 bound_to 10713
  156.2523  130.3702  149.8219 LP  0  0  0  0  0  0  0  0  0  0  0  0  # atno 17371 bound_to 10713
  141.0930  133.6706  156.2583 LP  0  0  0  0  0  0  0  0  0  0  0  0  # atno 17394 bound_to 11000
  140.6149  134.5421  157.5539 LP  0  0  0  0  0  0  0  0  0  0  0  0  # atno 17395 bound_to 11000

$$$$
