AV-unprocessed.smi:2418|AV-procd|sdf|9551|dock3
  -GOLD-   2272013183D 1   1.00000     0.00000
 Structure written by MMmdl.
 34 35  0  0  0  0  0  0  0  0  1 V2000
  145.6841  141.9791  156.7206 C   0  0  0  0  0  0  0  0  0  0  0  0
  147.1402  141.7370  156.3653 C   0  0  0  0  0  0  0  0  0  0  0  0
  148.0324  141.7335  157.4415 N   0  0  0  0  0  0  0  0  0  0  0  0
  149.2939  141.5414  157.2327 C   0  0  0  0  0  0  0  0  0  0  0  0
  149.8039  141.3272  155.9419 N   0  0  0  0  0  0  0  0  0  0  0  0
  151.2597  141.1300  155.8392 C   0  0  0  0  0  0  0  0  0  0  0  0
  151.8411  140.4145  157.0788 C   0  0  1  0  0  0  0  0  0  0  0  0
  152.9962  139.6979  156.6857 O   0  0  0  0  0  0  0  0  0  0  0  0
  152.1522  141.4128  158.1870 C   0  0  0  0  0  0  0  0  0  0  0  0
  151.9124  142.7926  157.9960 C   0  0  0  0  0  0  0  0  0  0  0  0
  152.1943  143.7138  159.0231 C   0  0  0  0  0  0  0  0  0  0  0  0
  151.9644  145.0340  158.8300 F   0  0  0  0  0  0  0  0  0  0  0  0
  152.7133  143.2625  160.2510 C   0  0  0  0  0  0  0  0  0  0  0  0
  152.9467  141.8889  160.4519 C   0  0  0  0  0  0  0  0  0  0  0  0
  152.6657  140.9654  159.4259 C   0  0  0  0  0  0  0  0  0  0  0  0
  152.8898  139.6467  159.6412 F   0  0  0  0  0  0  0  0  0  0  0  0
  149.0033  141.3152  154.8370 C   0  0  0  0  0  0  0  0  0  0  0  0
  149.4622  141.1327  153.7076 O   0  0  0  0  0  0  0  0  0  0  0  0
  147.5707  141.5392  155.0893 C   0  0  0  0  0  0  0  0  0  0  0  0
  146.6471  141.5381  153.8777 C   0  0  0  0  0  0  0  0  0  0  0  0
  145.0664  141.1407  156.3977 H   0  0  0  0  0  0  0  0  0  0  0  0
  145.3205  142.8870  156.2384 H   0  0  0  0  0  0  0  0  0  0  0  0
  145.5512  142.0958  157.7971 H   0  0  0  0  0  0  0  0  0  0  0  0
  150.0324  141.5386  158.0364 H   0  0  0  0  0  0  0  0  0  0  0  0
  151.5473  140.6080  154.9240 H   0  0  0  0  0  0  0  0  0  0  0  0
  151.7240  142.1136  155.7430 H   0  0  0  0  0  0  0  0  0  0  0  0
  151.1280  139.6839  157.4617 H   0  0  0  0  0  0  0  0  0  0  0  0
  152.7556  138.7941  156.5494 H   0  0  0  0  0  0  0  0  0  0  0  0
  151.5088  143.1505  157.0600 H   0  0  0  0  0  0  0  0  0  0  0  0
  152.9297  143.9683  161.0394 H   0  0  0  0  0  0  0  0  0  0  0  0
  153.3404  141.5418  161.3959 H   0  0  0  0  0  0  0  0  0  0  0  0
  146.9498  142.3146  153.1741 H   0  0  0  0  0  0  0  0  0  0  0  0
  145.6035  141.7161  154.1322 H   0  0  0  0  0  0  0  0  0  0  0  0
  146.7008  140.5773  153.3647 H   0  0  0  0  0  0  0  0  0  0  0  0
  1  2  1  0  0  0  0
  1 21  1  0  0  0  0
  1 22  1  0  0  0  0
  1 23  1  0  0  0  0
  2 19  2  0  0  0  0
  2  3  1  0  0  0  0
  3  4  2  0  0  0  0
  4  5  1  0  0  0  0
  4 24  1  0  0  0  0
  5  6  1  0  0  0  0
  5 17  1  0  0  0  0
  6  7  1  0  0  0  0
  6 25  1  0  0  0  0
  6 26  1  0  0  0  0
  7  8  1  0  0  0  0
  7  9  1  0  0  0  0
  7 27  1  0  0  0  0
  8 28  1  0  0  0  0
  9 15  1  0  0  0  0
  9 10  2  0  0  0  0
 10 11  1  0  0  0  0
 10 29  1  0  0  0  0
 11 12  1  0  0  0  0
 11 13  2  0  0  0  0
 13 14  1  0  0  0  0
 13 30  1  0  0  0  0
 14 15  2  0  0  0  0
 14 31  1  0  0  0  0
 15 16  1  0  0  0  0
 17 18  2  0  0  0  0
 17 19  1  0  0  0  0
 19 20  1  0  0  0  0
 20 32  1  0  0  0  0
 20 33  1  0  0  0  0
 20 34  1  0  0  0  0
M  END
> <s_m_source_file>
AV-unprocessed.smi

> <i_m_source_file_index>
2418

> <i_lp_mmshare_version>
43012

> <i_f3d_flags>
0

> <s_epik_input>
W0NIM11jMW5bY0hdbihjKD1PKWMxW0NIM10pW0NIMl1bQ0BIXShbT0hdKWMyW2NIXWMoRilbY0hdW2NIXWMyRg==

> <s_epik_cmdline>
J2VwaWtfcHl0aG9uJywgJy1waCcsICc3LjAnLCAnLXRuJywgJzgnLCAnLW1hJywgJzIwMCcsICctbWV0YWxfYmluZGluZycsICctaW1hZScsICc8aW5maWxlLm1hZT4nLCAnLW9tYWUnLCAnPG91dGZpbGUubWFlPic=

> <r_lp_tautomer_probability>
1

> <r_epik_Ionization_Penalty>
5.08222e-05

> <r_epik_Ionization_Penalty_Charging>
7.56727e-08

> <r_epik_Ionization_Penalty_Neutral>
5.07465e-05

> <r_epik_State_Penalty>
-0

> <r_epik_Charging_Adjusted_Penalty>
7.56727e-08

> <i_epik_Tot_Q>
0

> <i_epik_Tot_abs_Q>
0

> <r_epik_Metal_State_Penalty>
-0

> <b_epik_Metal_Only>
0

> <s_lp_Force_Field>
OPLS_2005

> <r_lp_Energy>
18.8119

> <b_lp_Chiralities_Consistent>
1

> <s_lp_Variant>
AV-unprocessed.smi:2418-2

> <Gold.Version>
5.8.1

> <Gold.Id.Protein>
6NUR|6NUR_protein|mol2

> <Gold.PLP.Fitness>
48.4097

> <Gold.PLP.PLP>
-43.2574

> <Gold.PLP.part.hbond>
-3.0000

> <Gold.PLP.part.metal>
0.0000

> <Gold.PLP.part.buried>
-4.4945

> <Gold.PLP.part.nonpolar>
-36.4371

> <Gold.PLP.part.repulsive>
2.3073

> <Gold.PLP.ligand.clash>
0.0000

> <Gold.PLP.ligand.torsion>
0.6829

> <Gold.PLP.Chemscore.Hbond>
2.1701

> <Gold.PLP.Chemscore.CHOScore>
0.0000

> <Gold.PLP.Chemscore.Metal>
0.0000

> <Gold.Chemscore.Hbonds>
donor molecule, donor type, donor heavy atom, donor atom, acceptor molecule, acceptor atom, score
      P1  H  7989  7998       L1    18  0.20
      P1  H  7997  8010       L1     8  0.86
      P1  H  8011  8017       L1    18  0.94

> <Gold.PLP.Chemscore.Internal.Correction>
0.0080

> <Gold.Rescore>
     Score         DG    S(hbond)    S(metal)    S(lipo)     H(rot)  DE(clash)    DE(int)     intcor
     14.52     -17.52       2.01        0.00      91.72       2.11       0.57       2.43       ----

> <Gold.Chemscore.Fitness>
14.5213

> <Gold.Chemscore.DG>
-17.5214

> <Gold.Chemscore.ZeroCoef>
-5.4800

> <Gold.Chemscore.Hbond>
2.0093

> <Gold.Chemscore.Metal>
0.0000

> <Gold.Chemscore.Lipo>
91.7214

> <Gold.Chemscore.Internal_Hbond>
0.0000

> <Gold.Chemscore.DEClash>
0.5743

> <Gold.Chemscore.DEInternal>
2.4258

> <Gold.Chemscore.Rot>
2.1097

> <Gold.Chemscore.Internal.Correction>
   9.000000E+99

> <Gold.Chemscore.Hbonds>
donor molecule, donor type, donor heavy atom, donor atom, acceptor molecule, acceptor atom, score
      P1  H  7989  7998       L1    18  0.18
      P1  H  7997  8010       L1     8  0.80
      P1  H  8011  8017       L1    18  0.91

> <Gold.Chemscore.Hbond.Weighted>
-6.7110

> <Gold.Chemscore.Metal.Weighted>
-0.0000

> <Gold.Chemscore.Lipo.Weighted>
-10.7314

> <Gold.Chemscore.Internal_Hbond.Weighted>
0.0000

> <Gold.Chemscore.DEClash.Weighted>
0.5743

> <Gold.Chemscore.DEInternal.Weighted>
2.4258

> <Gold.Chemscore.Rot.Weighted>
5.4009

> <Gold.Chemscore.Internal.Correction.Weighted>
   9.000000E+99

> <Gold.Protein.RotatedTorsions>
[ 6907 6896 6895 6894 ] final  -75.09 input  -60.11 | X-H torsion
[ 7974 7965 7964 7962 ] final   28.73 input  175.53 | X-H torsion
[ 8008 7997 7996 7995 ] final   82.29 input   59.86 | X-H torsion
[ 10167 10162 10161 10158 ] final  148.46 input  -65.29 | X-H torsion
[ 10718 10713 10712 10709 ] final  179.78 input   66.30 | X-H torsion
[ 10763 10752 10751 10750 ] final  -77.30 input  -60.55 | X-H torsion
[ 11005 11000 10999 10996 ] final  -33.70 input  -57.11 | X-H torsion

> <Gold.Protein.ActiveResidues>
 VAL166  LYS551  ARG553  GLY616  TRP617  ASP618  TYR619  PRO620  LYS621  CYS622 
 ASP623  PHE694  ASN695  SER759  ASP760  ASP761  ALA762  ILE779  LEU786  VAL792 
 PHE793  MET794  SER795  GLU796  ALA797  LYS798  CYS799  TRP800  GLU811  SER814 

> <Gold.Protein.RotatedAtoms>
  150.7071  134.4773  159.5453 H   0  0  0  0  0  0  0  0  0  0  0  0  # atno 6907 bound_to 6896
  152.2417  134.8219  160.0468 H   0  0  0  0  0  0  0  0  0  0  0  0  # atno 6908 bound_to 6896
  151.8998  133.3500  159.3863 H   0  0  0  0  0  0  0  0  0  0  0  0  # atno 6909 bound_to 6896
  146.1712  139.7016  142.8966 H   0  0  0  0  0  0  0  0  0  0  0  0  # atno 7974 bound_to 7965
  155.9086  140.3429  155.6081 H   0  0  0  0  0  0  0  0  0  0  0  0  # atno 8008 bound_to 7997
  155.7414  140.0808  157.2263 H   0  0  0  0  0  0  0  0  0  0  0  0  # atno 8009 bound_to 7997
  154.4053  140.1570  156.2608 H   0  0  0  0  0  0  0  0  0  0  0  0  # atno 8010 bound_to 7997
  139.4874  144.5677  151.7113 H   0  0  0  0  0  0  0  0  0  0  0  0  # atno 10167 bound_to 10162
  156.8707  130.9783  151.3073 H   0  0  0  0  0  0  0  0  0  0  0  0  # atno 10718 bound_to 10713
  154.5112  135.5768  153.6606 H   0  0  0  0  0  0  0  0  0  0  0  0  # atno 10763 bound_to 10752
  152.9897  135.6159  154.2877 H   0  0  0  0  0  0  0  0  0  0  0  0  # atno 10764 bound_to 10752
  154.2791  135.2851  155.2684 H   0  0  0  0  0  0  0  0  0  0  0  0  # atno 10765 bound_to 10752
  140.9656  133.7139  156.1440 H   0  0  0  0  0  0  0  0  0  0  0  0  # atno 11005 bound_to 11000
  145.4335  141.0417  143.2897 LP  0  0  0  0  0  0  0  0  0  0  0  0  # atno 17320 bound_to 7965
  144.8166  139.5866  143.7006 LP  0  0  0  0  0  0  0  0  0  0  0  0  # atno 17321 bound_to 7965
  140.5259  144.0807  150.6037 LP  0  0  0  0  0  0  0  0  0  0  0  0  # atno 17342 bound_to 10162
  140.3780  143.2818  152.0202 LP  0  0  0  0  0  0  0  0  0  0  0  0  # atno 17343 bound_to 10162
  157.6197  130.8646  149.9088 LP  0  0  0  0  0  0  0  0  0  0  0  0  # atno 17370 bound_to 10713
  156.0728  130.3683  150.0740 LP  0  0  0  0  0  0  0  0  0  0  0  0  # atno 17371 bound_to 10713
  140.7404  134.4157  157.5555 LP  0  0  0  0  0  0  0  0  0  0  0  0  # atno 17394 bound_to 11000
  139.8893  134.8833  156.2426 LP  0  0  0  0  0  0  0  0  0  0  0  0  # atno 17395 bound_to 11000

$$$$
