AV-unprocessed.smi:910|AV-procd|sdf|4119|dock9
  -GOLD-   22720 2 13D 1   1.00000     0.00000
 Structure written by MMmdl.
 46 47  0  0  0  0  0  0  0  0  1 V2000
  152.4612  144.1888  161.3893 C   0  0  0  0  0  0  0  0  0  0  0  0
  152.0803  143.3748  160.1928 C   0  0  0  0  0  0  0  0  0  0  0  0
  151.1029  143.7885  159.2987 N   0  0  0  0  0  0  0  0  0  0  0  0
  151.0511  142.8171  158.3856 C   0  0  0  0  0  0  0  0  0  0  0  0
  150.1994  142.7662  157.2542 N   0  0  0  0  0  0  0  0  0  0  0  0
  149.7811  141.6742  156.5937 C   0  0  0  0  0  0  0  0  0  0  0  0
  150.0573  140.5124  156.8941 O   0  0  0  0  0  0  0  0  0  0  0  0
  149.0215  142.0064  155.5403 N   0  0  0  0  0  0  0  0  0  0  0  0
  148.4784  141.0677  154.5636 C   0  0  0  0  0  0  0  0  0  0  0  0
  147.4454  141.7409  153.6477 C   0  0  0  0  0  0  0  0  0  0  0  0
  146.4954  142.4172  154.4582 O   0  0  0  0  0  0  0  0  0  0  0  0
  146.3347  143.7964  154.1556 C   0  0  1  0  0  0  0  0  0  0  0  0
  146.1221  143.9673  152.6376 C   0  0  0  0  0  0  0  0  0  0  0  0
  145.7992  145.4243  152.2752 C   0  0  0  0  0  0  0  0  0  0  0  0
  144.5822  145.9316  153.0618 C   0  0  0  0  0  0  0  0  0  0  0  0
  144.7969  145.7718  154.5746 C   0  0  0  0  0  0  0  0  0  0  0  0
  145.1176  144.3124  154.9555 C   0  0  2  0  0  0  0  0  0  0  0  0
  145.3387  144.1812  156.4720 C   0  0  0  0  0  0  0  0  0  0  0  0
  151.9220  141.7989  158.6155 O   0  0  0  0  0  0  0  0  0  0  0  0
  152.5693  142.1663  159.7651 C   0  0  0  0  0  0  0  0  0  0  0  0
  153.6118  141.2451  160.3012 C   0  0  0  0  0  0  0  0  0  0  0  0
  152.6645  143.5523  162.2506 H   0  0  0  0  0  0  0  0  0  0  0  0
  151.6663  144.8800  161.6717 H   0  0  0  0  0  0  0  0  0  0  0  0
  153.3575  144.7772  161.1930 H   0  0  0  0  0  0  0  0  0  0  0  0
  149.8936  143.6590  156.8965 H   0  0  0  0  0  0  0  0  0  0  0  0
  148.8445  142.9856  155.3715 H   0  0  0  0  0  0  0  0  0  0  0  0
  149.2864  140.6347  153.9719 H   0  0  0  0  0  0  0  0  0  0  0  0
  148.0114  140.2447  155.1050 H   0  0  0  0  0  0  0  0  0  0  0  0
  147.9442  142.4408  152.9756 H   0  0  0  0  0  0  0  0  0  0  0  0
  146.9515  140.9925  153.0278 H   0  0  0  0  0  0  0  0  0  0  0  0
  147.2135  144.3633  154.4690 H   0  0  0  0  0  0  0  0  0  0  0  0
  147.0084  143.6464  152.0906 H   0  0  0  0  0  0  0  0  0  0  0  0
  145.3062  143.3227  152.3081 H   0  0  0  0  0  0  0  0  0  0  0  0
  146.6628  146.0552  152.4893 H   0  0  0  0  0  0  0  0  0  0  0  0
  145.6113  145.5085  151.2043 H   0  0  0  0  0  0  0  0  0  0  0  0
  144.3941  146.9783  152.8212 H   0  0  0  0  0  0  0  0  0  0  0  0
  143.6923  145.3790  152.7580 H   0  0  0  0  0  0  0  0  0  0  0  0
  145.6110  146.4235  154.8952 H   0  0  0  0  0  0  0  0  0  0  0  0
  143.9060  146.1088  155.1056 H   0  0  0  0  0  0  0  0  0  0  0  0
  144.2536  143.7004  154.6919 H   0  0  0  0  0  0  0  0  0  0  0  0
  146.2031  144.7604  156.7985 H   0  0  0  0  0  0  0  0  0  0  0  0
  145.5077  143.1436  156.7619 H   0  0  0  0  0  0  0  0  0  0  0  0
  144.4707  144.5371  157.0272 H   0  0  0  0  0  0  0  0  0  0  0  0
  154.4769  141.8046  160.6574 H   0  0  0  0  0  0  0  0  0  0  0  0
  153.9530  140.5502  159.5335 H   0  0  0  0  0  0  0  0  0  0  0  0
  153.2190  140.6628  161.1348 H   0  0  0  0  0  0  0  0  0  0  0  0
  1  2  1  0  0  0  0
  1 22  1  0  0  0  0
  1 23  1  0  0  0  0
  1 24  1  0  0  0  0
  2 20  2  0  0  0  0
  2  3  1  0  0  0  0
  3  4  2  0  0  0  0
  4  5  1  0  0  0  0
  4 19  1  0  0  0  0
  5  6  1  0  0  0  0
  5 25  1  0  0  0  0
  6  7  2  0  0  0  0
  6  8  1  0  0  0  0
  8  9  1  0  0  0  0
  8 26  1  0  0  0  0
  9 10  1  0  0  0  0
  9 27  1  0  0  0  0
  9 28  1  0  0  0  0
 10 11  1  0  0  0  0
 10 29  1  0  0  0  0
 10 30  1  0  0  0  0
 11 12  1  0  0  0  0
 12 17  1  0  0  0  0
 12 13  1  0  0  0  0
 12 31  1  0  0  0  0
 13 14  1  0  0  0  0
 13 32  1  0  0  0  0
 13 33  1  0  0  0  0
 14 15  1  0  0  0  0
 14 34  1  0  0  0  0
 14 35  1  0  0  0  0
 15 16  1  0  0  0  0
 15 36  1  0  0  0  0
 15 37  1  0  0  0  0
 16 17  1  0  0  0  0
 16 38  1  0  0  0  0
 16 39  1  0  0  0  0
 17 18  1  0  0  0  0
 17 40  1  0  0  0  0
 18 41  1  0  0  0  0
 18 42  1  0  0  0  0
 18 43  1  0  0  0  0
 19 20  1  0  0  0  0
 20 21  1  0  0  0  0
 21 44  1  0  0  0  0
 21 45  1  0  0  0  0
 21 46  1  0  0  0  0
M  END
> <s_m_source_file>
AV-unprocessed.smi

> <i_m_source_file_index>
910

> <i_lp_mmshare_version>
43012

> <i_f3d_flags>
0

> <s_epik_input>
W0NIM11jMW5jKG9jMVtDSDNdKVtOSF1DKD1PKVtOSF1bQ0gyXVtDSDJdT1tDQEBIXTJbQ0gyXVtDSDJdW0NIMl1bQ0gyXVtDQEhdMltDSDNd

> <s_epik_cmdline>
J2VwaWtfcHl0aG9uJywgJy1waCcsICc3LjAnLCAnLXRuJywgJzgnLCAnLW1hJywgJzIwMCcsICctbWV0YWxfYmluZGluZycsICctaW1hZScsICc8aW5maWxlLm1hZT4nLCAnLW9tYWUnLCAnPG91dGZpbGUubWFlPic=

> <r_lp_tautomer_probability>
0.785861

> <r_epik_Ionization_Penalty>
4.15957e-05

> <r_epik_Ionization_Penalty_Charging>
0

> <r_epik_Ionization_Penalty_Neutral>
4.15957e-05

> <r_epik_State_Penalty>
0.0240523

> <r_epik_Charging_Adjusted_Penalty>
0.0240523

> <i_epik_Tot_Q>
0

> <i_epik_Tot_abs_Q>
0

> <r_epik_Metal_State_Penalty>
0.057053

> <b_epik_Metal_Only>
0

> <s_lp_Force_Field>
OPLS_2005

> <r_lp_Energy>
8.26637

> <b_lp_Chiralities_Consistent>
1

> <s_lp_Variant>
AV-unprocessed.smi:910-4

> <Gold.Version>
5.8.1

> <Gold.Id.Protein>
6NUR|6NUR_protein|mol2

> <Gold.PLP.Fitness>
48.9769

> <Gold.PLP.PLP>
-44.4697

> <Gold.PLP.part.hbond>
-2.0000

> <Gold.PLP.part.metal>
0.0000

> <Gold.PLP.part.buried>
-8.0333

> <Gold.PLP.part.nonpolar>
-34.4056

> <Gold.PLP.part.repulsive>
0.3986

> <Gold.PLP.ligand.clash>
0.0000

> <Gold.PLP.ligand.torsion>
0.6231

> <Gold.PLP.Chemscore.Hbond>
1.9120

> <Gold.PLP.Chemscore.CHOScore>
0.0000

> <Gold.PLP.Chemscore.Metal>
0.0000

> <Gold.Chemscore.Hbonds>
donor molecule, donor type, donor heavy atom, donor atom, acceptor molecule, acceptor atom, score
      L1  H     5    25       P1  8028  1.00
      L1  H     8    26       P1  8028  1.00

> <Gold.PLP.Chemscore.Internal.Correction>
0.0173

> <Gold.Rescore>
     Score         DG    S(hbond)    S(metal)    S(lipo)     H(rot)  DE(clash)    DE(int)     intcor
     16.72     -18.78       1.74        0.00     100.21       1.66       0.10       1.96       ----

> <Gold.Chemscore.Fitness>
16.7235

> <Gold.Chemscore.DG>
-18.7833

> <Gold.Chemscore.ZeroCoef>
-5.4800

> <Gold.Chemscore.Hbond>
1.7430

> <Gold.Chemscore.Metal>
0.0000

> <Gold.Chemscore.Lipo>
100.2145

> <Gold.Chemscore.Internal_Hbond>
0.0000

> <Gold.Chemscore.DEClash>
0.1003

> <Gold.Chemscore.DEInternal>
1.9596

> <Gold.Chemscore.Rot>
1.6576

> <Gold.Chemscore.Internal.Correction>
   9.000000E+99

> <Gold.Chemscore.Hbonds>
donor molecule, donor type, donor heavy atom, donor atom, acceptor molecule, acceptor atom, score
      L1  H     5    25       P1  8028  0.96
      L1  H     8    26       P1  8028  0.99

> <Gold.Chemscore.Hbond.Weighted>
-5.8218

> <Gold.Chemscore.Metal.Weighted>
-0.0000

> <Gold.Chemscore.Lipo.Weighted>
-11.7251

> <Gold.Chemscore.Internal_Hbond.Weighted>
0.0000

> <Gold.Chemscore.DEClash.Weighted>
0.1003

> <Gold.Chemscore.DEInternal.Weighted>
1.9596

> <Gold.Chemscore.Rot.Weighted>
4.2436

> <Gold.Chemscore.Internal.Correction.Weighted>
   9.000000E+99

> <Gold.Protein.RotatedTorsions>
[ 6907 6896 6895 6894 ] final  -47.20 input  -60.11 | X-H torsion
[ 7974 7965 7964 7962 ] final  -80.23 input  175.53 | X-H torsion
[ 8008 7997 7996 7995 ] final -124.44 input   59.86 | X-H torsion
[ 10167 10162 10161 10158 ] final   45.82 input  -65.29 | X-H torsion
[ 10718 10713 10712 10709 ] final   12.82 input   66.30 | X-H torsion
[ 10763 10752 10751 10750 ] final -153.33 input  -60.55 | X-H torsion
[ 11005 11000 10999 10996 ] final  148.47 input  -57.11 | X-H torsion

> <Gold.Protein.ActiveResidues>
 VAL166  LYS551  ARG553  GLY616  TRP617  ASP618  TYR619  PRO620  LYS621  CYS622 
 ASP623  PHE694  ASN695  SER759  ASP760  ASP761  ALA762  ILE779  LEU786  VAL792 
 PHE793  MET794  SER795  GLU796  ALA797  LYS798  CYS799  TRP800  GLU811  SER814 

> <Gold.Protein.RotatedAtoms>
  150.9032  134.8446  159.7374 H   0  0  0  0  0  0  0  0  0  0  0  0  # atno 6907 bound_to 6896
  152.4904  134.4471  159.9572 H   0  0  0  0  0  0  0  0  0  0  0  0  # atno 6908 bound_to 6896
  151.4520  133.3576  159.2832 H   0  0  0  0  0  0  0  0  0  0  0  0  # atno 6909 bound_to 6896
  145.5627  140.9479  143.1438 H   0  0  0  0  0  0  0  0  0  0  0  0  # atno 7974 bound_to 7965
  155.1968  140.0415  157.2910 H   0  0  0  0  0  0  0  0  0  0  0  0  # atno 8008 bound_to 7997
  154.6101  140.2474  155.7651 H   0  0  0  0  0  0  0  0  0  0  0  0  # atno 8009 bound_to 7997
  156.2374  140.2916  156.0359 H   0  0  0  0  0  0  0  0  0  0  0  0  # atno 8010 bound_to 7997
  140.3202  144.2714  150.6184 H   0  0  0  0  0  0  0  0  0  0  0  0  # atno 10167 bound_to 10162
  157.0157  130.6134  149.5714 H   0  0  0  0  0  0  0  0  0  0  0  0  # atno 10718 bound_to 10713
  154.7935  135.3215  154.7723 H   0  0  0  0  0  0  0  0  0  0  0  0  # atno 10763 bound_to 10752
  153.8406  135.6871  153.4807 H   0  0  0  0  0  0  0  0  0  0  0  0  # atno 10764 bound_to 10752
  153.1615  135.4659  154.9720 H   0  0  0  0  0  0  0  0  0  0  0  0  # atno 10765 bound_to 10752
  140.0963  134.9011  157.1727 H   0  0  0  0  0  0  0  0  0  0  0  0  # atno 11005 bound_to 11000
  144.7475  139.7281  143.7286 LP  0  0  0  0  0  0  0  0  0  0  0  0  # atno 17320 bound_to 7965
  146.1840  139.5046  142.9848 LP  0  0  0  0  0  0  0  0  0  0  0  0  # atno 17321 bound_to 7965
  140.5490  143.2209  151.7959 LP  0  0  0  0  0  0  0  0  0  0  0  0  # atno 17342 bound_to 10162
  139.4876  144.4501  151.9664 LP  0  0  0  0  0  0  0  0  0  0  0  0  # atno 17343 bound_to 10162
  156.0120  130.5212  150.8018 LP  0  0  0  0  0  0  0  0  0  0  0  0  # atno 17370 bound_to 10713
  157.5287  131.0935  150.9983 LP  0  0  0  0  0  0  0  0  0  0  0  0  # atno 17371 bound_to 10713
  140.3282  134.2839  155.7233 LP  0  0  0  0  0  0  0  0  0  0  0  0  # atno 17394 bound_to 11000
  141.2093  133.7753  157.0007 LP  0  0  0  0  0  0  0  0  0  0  0  0  # atno 17395 bound_to 11000

$$$$
