AV-unprocessed.smi:2494|AV-procd|sdf|9821|dock6
  -GOLD-   2272013453D 1   1.00000     0.00000
 Structure written by MMmdl.
 30 31  0  0  0  0  0  0  0  0  1 V2000
  149.5858  141.0734  153.5548 O   0  0  0  0  0  0  0  0  0  0  0  0
  148.6539  141.0074  154.6126 C   0  0  0  0  0  0  0  0  0  0  0  0
  149.3388  141.3957  155.9334 C   0  0  0  0  0  0  0  0  0  0  0  0
  150.4713  140.4276  156.3694 C   0  0  2  0  0  0  0  0  0  0  0  0
  150.0565  138.9583  156.1062 C   0  0  0  0  0  0  0  0  0  0  0  0
  151.0528  138.0539  156.5641 O   0  0  0  0  0  0  0  0  0  0  0  0
  151.2520  138.1667  157.9643 C   0  0  0  0  0  0  0  0  0  0  0  0
  151.7632  139.5783  158.2738 C   0  0  0  0  0  0  0  0  0  0  0  0
  150.8331  140.5931  157.7866 N   0  0  0  0  0  0  0  0  0  0  0  0
  151.1097  141.8552  158.2969 C   0  0  0  0  0  0  0  0  0  0  0  0
  152.3090  142.0542  158.8609 N   0  0  0  0  0  0  0  0  0  0  0  0
  152.5501  143.2781  159.3787 C   0  0  0  0  0  0  0  0  0  0  0  0
  151.5809  144.2999  159.3380 C   0  0  0  0  0  0  0  0  0  0  0  0
  151.8828  145.8641  159.9997 Cl  0  0  0  0  0  0  0  0  0  0  0  0
  150.3513  143.9762  158.7310 C   0  0  0  0  0  0  0  0  0  0  0  0
  150.1183  142.7494  158.2157 N   0  0  0  0  0  0  0  0  0  0  0  0
  149.4174  140.3582  152.9603 H   0  0  0  0  0  0  0  0  0  0  0  0
  147.8265  141.6767  154.3796 H   0  0  0  0  0  0  0  0  0  0  0  0
  148.2542  139.9945  154.6699 H   0  0  0  0  0  0  0  0  0  0  0  0
  149.7299  142.4045  155.8059 H   0  0  0  0  0  0  0  0  0  0  0  0
  148.5923  141.4653  156.7259 H   0  0  0  0  0  0  0  0  0  0  0  0
  151.3627  140.6439  155.7787 H   0  0  0  0  0  0  0  0  0  0  0  0
  149.1031  138.7290  156.5858 H   0  0  0  0  0  0  0  0  0  0  0  0
  149.9238  138.7798  155.0399 H   0  0  0  0  0  0  0  0  0  0  0  0
  150.3265  137.9545  158.5023 H   0  0  0  0  0  0  0  0  0  0  0  0
  151.9844  137.4238  158.2805 H   0  0  0  0  0  0  0  0  0  0  0  0
  151.9075  139.6839  159.3498 H   0  0  0  0  0  0  0  0  0  0  0  0
  152.7364  139.7332  157.8057 H   0  0  0  0  0  0  0  0  0  0  0  0
  153.5185  143.4398  159.8290 H   0  0  0  0  0  0  0  0  0  0  0  0
  149.5524  144.6993  158.6601 H   0  0  0  0  0  0  0  0  0  0  0  0
  1  2  1  0  0  0  0
  1 17  1  0  0  0  0
  2  3  1  0  0  0  0
  2 18  1  0  0  0  0
  2 19  1  0  0  0  0
  3  4  1  0  0  0  0
  3 20  1  0  0  0  0
  3 21  1  0  0  0  0
  4  9  1  0  0  0  0
  4  5  1  0  0  0  0
  4 22  1  0  0  0  0
  5  6  1  0  0  0  0
  5 23  1  0  0  0  0
  5 24  1  0  0  0  0
  6  7  1  0  0  0  0
  7  8  1  0  0  0  0
  7 25  1  0  0  0  0
  7 26  1  0  0  0  0
  8  9  1  0  0  0  0
  8 27  1  0  0  0  0
  8 28  1  0  0  0  0
  9 10  1  0  0  0  0
 10 16  1  0  0  0  0
 10 11  2  0  0  0  0
 11 12  1  0  0  0  0
 12 13  2  0  0  0  0
 12 29  1  0  0  0  0
 13 14  1  0  0  0  0
 13 15  1  0  0  0  0
 15 16  2  0  0  0  0
 15 30  1  0  0  0  0
M  END
> <s_m_source_file>
AV-unprocessed.smi

> <i_m_source_file_index>
2494

> <i_lp_mmshare_version>
43012

> <i_f3d_flags>
0

> <s_epik_input>
W09IXVtDSDJdW0NIMl1bQ0BASF0xW0NIMl1PW0NIMl1bQ0gyXU4xYzJuW2NIXWMoQ2wpW2NIXW4y

> <s_epik_cmdline>
J2VwaWtfcHl0aG9uJywgJy1waCcsICc3LjAnLCAnLXRuJywgJzgnLCAnLW1hJywgJzIwMCcsICctbWV0YWxfYmluZGluZycsICctaW1hZScsICc8aW5maWxlLm1hZT4nLCAnLW9tYWUnLCAnPG91dGZpbGUubWFlPic=

> <r_lp_tautomer_probability>
1

> <r_epik_Ionization_Penalty>
3.66811e-07

> <r_epik_Ionization_Penalty_Charging>
0

> <r_epik_Ionization_Penalty_Neutral>
3.66811e-07

> <r_epik_State_Penalty>
-0

> <r_epik_Charging_Adjusted_Penalty>
0

> <i_epik_Tot_Q>
0

> <i_epik_Tot_abs_Q>
0

> <r_epik_Metal_State_Penalty>
-0

> <b_epik_Metal_Only>
0

> <s_lp_Force_Field>
OPLS_2005

> <r_lp_Energy>
15.3646

> <b_lp_Chiralities_Consistent>
1

> <s_lp_Variant>
AV-unprocessed.smi:2494-1

> <Gold.Version>
5.8.1

> <Gold.Id.Protein>
6NUR|6NUR_protein|mol2

> <Gold.PLP.Fitness>
36.9062

> <Gold.PLP.PLP>
-28.5922

> <Gold.PLP.part.hbond>
-3.0000

> <Gold.PLP.part.metal>
0.0000

> <Gold.PLP.part.buried>
-3.7861

> <Gold.PLP.part.nonpolar>
-21.9235

> <Gold.PLP.part.repulsive>
0.1359

> <Gold.PLP.ligand.clash>
0.0000

> <Gold.PLP.ligand.torsion>
0.3829

> <Gold.PLP.Chemscore.Hbond>
1.9216

> <Gold.PLP.Chemscore.CHOScore>
1.0000

> <Gold.PLP.Chemscore.Metal>
0.0000

> <Gold.Chemscore.Hbonds>
donor molecule, donor type, donor heavy atom, donor atom, acceptor molecule, acceptor atom, score
      L1  H     1    17       P1  7957  0.72
      P1  H  7989  7998       L1     1  0.19
      P1  H  8011  8017       L1     1  0.95
      L1  C    15    30       P1  8029  1.00

> <Gold.PLP.Chemscore.Internal.Correction>
0.3150

> <Gold.Rescore>
     Score         DG    S(hbond)    S(metal)    S(lipo)     H(rot)  DE(clash)    DE(int)     intcor
     12.38     -14.30       1.42        0.00      79.57       2.04       0.09       1.82       ----

> <Gold.Chemscore.Fitness>
12.3813

> <Gold.Chemscore.DG>
-14.2985

> <Gold.Chemscore.ZeroCoef>
-5.4800

> <Gold.Chemscore.Hbond>
1.4184

> <Gold.Chemscore.Metal>
0.0000

> <Gold.Chemscore.Lipo>
79.5682

> <Gold.Chemscore.Internal_Hbond>
0.0000

> <Gold.Chemscore.DEClash>
0.0939

> <Gold.Chemscore.DEInternal>
1.8233

> <Gold.Chemscore.Rot>
2.0424

> <Gold.Chemscore.Internal.Correction>
   9.000000E+99

> <Gold.Chemscore.Hbonds>
donor molecule, donor type, donor heavy atom, donor atom, acceptor molecule, acceptor atom, score
      L1  H     1    17       P1  7957  0.72
      P1  H  7989  7998       L1     1  0.02
      P1  H  8011  8017       L1     1  0.21

> <Gold.Chemscore.Hbond.Weighted>
-4.7375

> <Gold.Chemscore.Metal.Weighted>
-0.0000

> <Gold.Chemscore.Lipo.Weighted>
-9.3095

> <Gold.Chemscore.Internal_Hbond.Weighted>
0.0000

> <Gold.Chemscore.DEClash.Weighted>
0.0939

> <Gold.Chemscore.DEInternal.Weighted>
1.8233

> <Gold.Chemscore.Rot.Weighted>
5.2285

> <Gold.Chemscore.Internal.Correction.Weighted>
   9.000000E+99

> <Gold.Protein.RotatedTorsions>
[ 6907 6896 6895 6894 ] final    9.14 input  -60.11 | X-H torsion
[ 7974 7965 7964 7962 ] final  117.83 input  175.53 | X-H torsion
[ 8008 7997 7996 7995 ] final  130.24 input   59.86 | X-H torsion
[ 10167 10162 10161 10158 ] final  146.48 input  -65.29 | X-H torsion
[ 10718 10713 10712 10709 ] final  -26.62 input   66.30 | X-H torsion
[ 10763 10752 10751 10750 ] final   87.18 input  -60.55 | X-H torsion
[ 11005 11000 10999 10996 ] final   -6.34 input  -57.11 | X-H torsion

> <Gold.Protein.ActiveResidues>
 VAL166  LYS551  ARG553  GLY616  TRP617  ASP618  TYR619  PRO620  LYS621  CYS622 
 ASP623  PHE694  ASN695  SER759  ASP760  ASP761  ALA762  ILE779  LEU786  VAL792 
 PHE793  MET794  SER795  GLU796  ALA797  LYS798  CYS799  TRP800  GLU811  SER814 

> <Gold.Protein.RotatedAtoms>
  151.7173  135.0901  160.0277 H   0  0  0  0  0  0  0  0  0  0  0  0  # atno 6907 bound_to 6896
  152.3624  133.6309  159.6033 H   0  0  0  0  0  0  0  0  0  0  0  0  # atno 6908 bound_to 6896
  150.7614  133.9318  159.3471 H   0  0  0  0  0  0  0  0  0  0  0  0  # atno 6909 bound_to 6896
  145.1626  139.3146  143.4509 H   0  0  0  0  0  0  0  0  0  0  0  0  # atno 7974 bound_to 7965
  156.2951  140.2601  156.2730 H   0  0  0  0  0  0  0  0  0  0  0  0  # atno 8008 bound_to 7997
  154.9676  140.0391  157.2238 H   0  0  0  0  0  0  0  0  0  0  0  0  # atno 8009 bound_to 7997
  154.7888  140.2808  155.6012 H   0  0  0  0  0  0  0  0  0  0  0  0  # atno 8010 bound_to 7997
  139.4906  144.5826  151.6841 H   0  0  0  0  0  0  0  0  0  0  0  0  # atno 10167 bound_to 10162
  156.4488  130.4479  149.7003 H   0  0  0  0  0  0  0  0  0  0  0  0  # atno 10718 bound_to 10713
  153.1642  135.4553  154.9815 H   0  0  0  0  0  0  0  0  0  0  0  0  # atno 10763 bound_to 10752
  154.7920  135.3224  154.7757 H   0  0  0  0  0  0  0  0  0  0  0  0  # atno 10764 bound_to 10752
  153.8243  135.6944  153.4877 H   0  0  0  0  0  0  0  0  0  0  0  0  # atno 10765 bound_to 10752
  140.7009  133.8990  155.8683 H   0  0  0  0  0  0  0  0  0  0  0  0  # atno 11005 bound_to 11000
  146.3480  140.1742  142.8589 LP  0  0  0  0  0  0  0  0  0  0  0  0  # atno 17320 bound_to 7965
  145.0315  140.8874  143.5107 LP  0  0  0  0  0  0  0  0  0  0  0  0  # atno 17321 bound_to 7965
  140.5436  144.0540  150.6098 LP  0  0  0  0  0  0  0  0  0  0  0  0  # atno 17342 bound_to 10162
  140.3570  143.2930  152.0425 LP  0  0  0  0  0  0  0  0  0  0  0  0  # atno 17343 bound_to 10162
  156.3838  130.7592  151.2587 LP  0  0  0  0  0  0  0  0  0  0  0  0  # atno 17370 bound_to 10713
  157.7503  131.0288  150.4064 LP  0  0  0  0  0  0  0  0  0  0  0  0  # atno 17371 bound_to 10713
  141.0164  134.0949  157.4167 LP  0  0  0  0  0  0  0  0  0  0  0  0  # atno 17394 bound_to 11000
  139.8897  135.0107  156.6694 LP  0  0  0  0  0  0  0  0  0  0  0  0  # atno 17395 bound_to 11000

$$$$
