AV-unprocessed.smi:3056|AV-procd|sdf|11660|dock1
  -GOLD-   2272017 63D 1   1.00000     0.00000
 Structure written by MMmdl.
 47 48  0  0  0  0  0  0  0  0  1 V2000
  143.9035  131.8085  150.3949 C   0  0  0  0  0  0  0  0  0  0  0  0
  144.6433  133.0441  150.8188 C   0  0  0  0  0  0  0  0  0  0  0  0
  146.0337  133.1778  151.0902 C   0  0  0  0  0  0  0  0  0  0  0  0
  146.3753  134.4106  151.4251 N   0  0  0  0  0  0  0  0  0  0  0  0
  145.2161  135.1076  151.3965 N   0  0  0  0  0  0  0  0  0  0  0  0
  145.1964  136.5443  151.6583 C   0  0  1  0  0  0  0  0  0  0  0  0
  144.1849  136.9259  152.7613 C   0  0  0  0  0  0  0  0  0  0  0  0
  146.6317  137.0891  151.8835 C   0  0  1  0  0  0  0  0  0  0  0  0
  146.7353  138.6111  151.6733 C   0  0  0  0  0  0  0  0  0  0  0  0
  147.1030  136.7385  153.2252 N   0  0  0  0  0  0  0  0  0  0  0  0
  146.7384  137.7052  154.2768 C   0  0  0  0  0  0  0  0  0  0  0  0
  147.8788  138.0692  155.2500 C   0  0  0  0  0  0  0  0  0  0  0  0
  147.9281  137.5115  156.3479 O   0  0  0  0  0  0  0  0  0  0  0  0
  148.7939  138.9952  154.8763 N   0  0  0  0  0  0  0  0  0  0  0  0
  148.6860  139.7780  153.6432 C   0  0  0  0  0  0  0  0  0  0  0  0
  148.4554  141.2486  154.0365 C   0  0  0  0  0  0  0  0  0  0  0  0
  149.5199  141.6996  154.8734 O   0  0  0  0  0  0  0  0  0  0  0  0
  149.6807  140.9253  156.0623 C   0  0  2  0  0  0  0  0  0  0  0  0
  150.8393  141.5199  156.8699 C   0  0  0  0  0  0  0  0  0  0  0  0
  149.9358  139.4568  155.6695 C   0  0  0  0  0  0  0  0  0  0  0  0
  144.1585  134.3049  151.0215 C   0  0  0  0  0  0  0  0  0  0  0  0
  144.2530  130.9262  150.9311 H   0  0  0  0  0  0  0  0  0  0  0  0
  144.0325  131.6110  149.3306 H   0  0  0  0  0  0  0  0  0  0  0  0
  142.8325  131.8930  150.5794 H   0  0  0  0  0  0  0  0  0  0  0  0
  146.8027  132.4210  151.0457 H   0  0  0  0  0  0  0  0  0  0  0  0
  144.8266  137.0025  150.7399 H   0  0  0  0  0  0  0  0  0  0  0  0
  144.0625  138.0061  152.8331 H   0  0  0  0  0  0  0  0  0  0  0  0
  144.4913  136.5624  153.7425 H   0  0  0  0  0  0  0  0  0  0  0  0
  143.2013  136.5070  152.5468 H   0  0  0  0  0  0  0  0  0  0  0  0
  147.2638  136.6156  151.1316 H   0  0  0  0  0  0  0  0  0  0  0  0
  146.3248  138.8984  150.7052 H   0  0  0  0  0  0  0  0  0  0  0  0
  147.7706  138.9503  151.6947 H   0  0  0  0  0  0  0  0  0  0  0  0
  146.1942  139.1643  152.4410 H   0  0  0  0  0  0  0  0  0  0  0  0
  148.1036  136.5958  153.1994 H   0  0  0  0  0  0  0  0  0  0  0  0
  146.3487  138.6050  153.8021 H   0  0  0  0  0  0  0  0  0  0  0  0
  145.9240  137.2790  154.8627 H   0  0  0  0  0  0  0  0  0  0  0  0
  149.6058  139.6800  153.0648 H   0  0  0  0  0  0  0  0  0  0  0  0
  147.8804  139.4393  152.9908 H   0  0  0  0  0  0  0  0  0  0  0  0
  148.4154  141.8764  153.1465 H   0  0  0  0  0  0  0  0  0  0  0  0
  147.5020  141.3658  154.5541 H   0  0  0  0  0  0  0  0  0  0  0  0
  148.7687  140.9932  156.6584 H   0  0  0  0  0  0  0  0  0  0  0  0
  150.9993  140.9634  157.7937 H   0  0  0  0  0  0  0  0  0  0  0  0
  150.6355  142.5567  157.1383 H   0  0  0  0  0  0  0  0  0  0  0  0
  151.7690  141.4991  156.3008 H   0  0  0  0  0  0  0  0  0  0  0  0
  150.1289  138.8516  156.5536 H   0  0  0  0  0  0  0  0  0  0  0  0
  150.8422  139.3830  155.0666 H   0  0  0  0  0  0  0  0  0  0  0  0
  143.1571  134.6969  150.9221 H   0  0  0  0  0  0  0  0  0  0  0  0
  1  2  1  0  0  0  0
  1 22  1  0  0  0  0
  1 23  1  0  0  0  0
  1 24  1  0  0  0  0
  2 21  2  0  0  0  0
  2  3  1  0  0  0  0
  3  4  2  0  0  0  0
  3 25  1  0  0  0  0
  4  5  1  0  0  0  0
  5  6  1  0  0  0  0
  5 21  1  0  0  0  0
  6  7  1  0  0  0  0
  6  8  1  0  0  0  0
  6 26  1  0  0  0  0
  7 27  1  0  0  0  0
  7 28  1  0  0  0  0
  7 29  1  0  0  0  0
  8  9  1  0  0  0  0
  8 10  1  0  0  0  0
  8 30  1  0  0  0  0
  9 31  1  0  0  0  0
  9 32  1  0  0  0  0
  9 33  1  0  0  0  0
 10 11  1  0  0  0  0
 10 34  1  0  0  0  0
 11 12  1  0  0  0  0
 11 35  1  0  0  0  0
 11 36  1  0  0  0  0
 12 13  2  0  0  0  0
 12 14  1  0  0  0  0
 14 20  1  0  0  0  0
 14 15  1  0  0  0  0
 15 16  1  0  0  0  0
 15 37  1  0  0  0  0
 15 38  1  0  0  0  0
 16 17  1  0  0  0  0
 16 39  1  0  0  0  0
 16 40  1  0  0  0  0
 17 18  1  0  0  0  0
 18 19  1  0  0  0  0
 18 20  1  0  0  0  0
 18 41  1  0  0  0  0
 19 42  1  0  0  0  0
 19 43  1  0  0  0  0
 19 44  1  0  0  0  0
 20 45  1  0  0  0  0
 20 46  1  0  0  0  0
 21 47  1  0  0  0  0
M  END
> <s_m_source_file>
AV-unprocessed.smi

> <i_m_source_file_index>
3056

> <i_lp_mmshare_version>
43012

> <i_f3d_flags>
0

> <s_epik_input>
W0NIM11jMVtjSF1ubihbY0hdMSlbQ0BIXShbQ0gzXSlbQ0BIXShbQ0gzXSlbTkhdW0NIMl1DKD1PKU4yW0NIMl1bQ0gyXU9bQ0BASF0oW0NIM10pW0NIMl0y

> <s_epik_cmdline>
J2VwaWtfcHl0aG9uJywgJy1waCcsICc3LjAnLCAnLXRuJywgJzgnLCAnLW1hJywgJzIwMCcsICctbWV0YWxfYmluZGluZycsICctaW1hZScsICc8aW5maWxlLm1hZT4nLCAnLW9tYWUnLCAnPG91dGZpbGUubWFlPic=

> <r_lp_tautomer_probability>
1

> <r_epik_Ionization_Penalty>
0.667689

> <r_epik_Ionization_Penalty_Charging>
0

> <r_epik_Ionization_Penalty_Neutral>
0.667689

> <r_epik_State_Penalty>
0.684601

> <r_epik_Charging_Adjusted_Penalty>
0.684601

> <i_epik_Tot_Q>
0

> <i_epik_Tot_abs_Q>
0

> <r_epik_Metal_State_Penalty>
0.681448

> <b_epik_Metal_Only>
0

> <s_lp_Force_Field>
OPLS_2005

> <r_lp_Energy>
31.287

> <b_lp_Chiralities_Consistent>
1

> <s_lp_Variant>
AV-unprocessed.smi:3056-16

> <Gold.Version>
5.8.1

> <Gold.Id.Protein>
6NUR|6NUR_protein|mol2

> <Gold.PLP.Fitness>
34.8586

> <Gold.PLP.PLP>
-30.5409

> <Gold.PLP.part.hbond>
-1.4540

> <Gold.PLP.part.metal>
0.0000

> <Gold.PLP.part.buried>
6.7340

> <Gold.PLP.part.nonpolar>
-37.6771

> <Gold.PLP.part.repulsive>
1.7026

> <Gold.PLP.ligand.clash>
0.0000

> <Gold.PLP.ligand.torsion>
1.1696

> <Gold.PLP.Chemscore.Hbond>
0.6344

> <Gold.PLP.Chemscore.CHOScore>
1.4874

> <Gold.PLP.Chemscore.Metal>
0.0000

> <Gold.Chemscore.Hbonds>
donor molecule, donor type, donor heavy atom, donor atom, acceptor molecule, acceptor atom, score
      L1  H    10    34       P1  7948  0.50
      L1  C     3    25       P1 10747  0.36
      L1  C    21    47       P1 10186  0.87

> <Gold.PLP.Chemscore.Internal.Correction>
0.2915

> <Gold.Rescore>
     Score         DG    S(hbond)    S(metal)    S(lipo)     H(rot)  DE(clash)    DE(int)     intcor
     10.17     -14.13       0.87        0.00      85.76       1.68       2.47       1.49       ----

> <Gold.Chemscore.Fitness>
10.1743

> <Gold.Chemscore.DG>
-14.1285

> <Gold.Chemscore.ZeroCoef>
-5.4800

> <Gold.Chemscore.Hbond>
0.8725

> <Gold.Chemscore.Metal>
0.0000

> <Gold.Chemscore.Lipo>
85.7567

> <Gold.Chemscore.Internal_Hbond>
0.0000

> <Gold.Chemscore.DEClash>
2.4683

> <Gold.Chemscore.DEInternal>
1.4860

> <Gold.Chemscore.Rot>
1.6793

> <Gold.Chemscore.Internal.Correction>
   9.000000E+99

> <Gold.Chemscore.Hbonds>
donor molecule, donor type, donor heavy atom, donor atom, acceptor molecule, acceptor atom, score
      L1  H    10    34       P1  7948  0.50

> <Gold.Chemscore.Hbond.Weighted>
-2.9141

> <Gold.Chemscore.Metal.Weighted>
-0.0000

> <Gold.Chemscore.Lipo.Weighted>
-10.0335

> <Gold.Chemscore.Internal_Hbond.Weighted>
0.0000

> <Gold.Chemscore.DEClash.Weighted>
2.4683

> <Gold.Chemscore.DEInternal.Weighted>
1.4860

> <Gold.Chemscore.Rot.Weighted>
4.2990

> <Gold.Chemscore.Internal.Correction.Weighted>
   9.000000E+99

> <Gold.Protein.RotatedTorsions>
[ 6907 6896 6895 6894 ] final  -35.93 input  -60.11 | X-H torsion
[ 7974 7965 7964 7962 ] final  167.67 input  175.53 | X-H torsion
[ 8008 7997 7996 7995 ] final  113.04 input   59.86 | X-H torsion
[ 10167 10162 10161 10158 ] final  115.83 input  -65.29 | X-H torsion
[ 10718 10713 10712 10709 ] final  -63.82 input   66.30 | X-H torsion
[ 10763 10752 10751 10750 ] final  -10.04 input  -60.55 | X-H torsion
[ 11005 11000 10999 10996 ] final -126.19 input  -57.11 | X-H torsion

> <Gold.Protein.ActiveResidues>
 VAL166  LYS551  ARG553  GLY616  TRP617  ASP618  TYR619  PRO620  LYS621  CYS622 
 ASP623  PHE694  ASN695  SER759  ASP760  ASP761  ALA762  ILE779  LEU786  VAL792 
 PHE793  MET794  SER795  GLU796  ALA797  LYS798  CYS799  TRP800  GLU811  SER814 

> <Gold.Protein.RotatedAtoms>
  151.0335  134.9556  159.8123 H   0  0  0  0  0  0  0  0  0  0  0  0  # atno 6907 bound_to 6896
  152.5350  134.2749  159.8995 H   0  0  0  0  0  0  0  0  0  0  0  0  # atno 6908 bound_to 6896
  151.2760  133.4190  159.2658 H   0  0  0  0  0  0  0  0  0  0  0  0  # atno 6909 bound_to 6896
  144.7416  139.8795  143.6395 H   0  0  0  0  0  0  0  0  0  0  0  0  # atno 7974 bound_to 7965
  156.2232  140.2987  156.0003 H   0  0  0  0  0  0  0  0  0  0  0  0  # atno 8008 bound_to 7997
  155.2426  140.0423  157.2994 H   0  0  0  0  0  0  0  0  0  0  0  0  # atno 8009 bound_to 7997
  154.5873  140.2392  155.7977 H   0  0  0  0  0  0  0  0  0  0  0  0  # atno 8010 bound_to 7997
  139.6290  144.7112  151.2473 H   0  0  0  0  0  0  0  0  0  0  0  0  # atno 10167 bound_to 10162
  156.0767  130.4225  150.1331 H   0  0  0  0  0  0  0  0  0  0  0  0  # atno 10718 bound_to 10713
  153.4635  135.7016  153.6036 H   0  0  0  0  0  0  0  0  0  0  0  0  # atno 10763 bound_to 10752
  153.4320  135.3800  155.2176 H   0  0  0  0  0  0  0  0  0  0  0  0  # atno 10764 bound_to 10752
  154.8727  135.3953  154.4064 H   0  0  0  0  0  0  0  0  0  0  0  0  # atno 10765 bound_to 10752
  140.9702  134.0816  157.3878 H   0  0  0  0  0  0  0  0  0  0  0  0  # atno 11005 bound_to 11000
  146.1222  139.4241  143.0221 LP  0  0  0  0  0  0  0  0  0  0  0  0  # atno 17320 bound_to 7965
  145.7288  141.0049  143.1363 LP  0  0  0  0  0  0  0  0  0  0  0  0  # atno 17321 bound_to 7965
  140.7428  143.6515  150.8244 LP  0  0  0  0  0  0  0  0  0  0  0  0  # atno 17342 bound_to 10162
  140.0137  143.5615  152.2828 LP  0  0  0  0  0  0  0  0  0  0  0  0  # atno 17343 bound_to 10162
  156.9371  130.9732  151.3523 LP  0  0  0  0  0  0  0  0  0  0  0  0  # atno 17370 bound_to 10713
  157.5866  130.8414  149.8598 LP  0  0  0  0  0  0  0  0  0  0  0  0  # atno 17371 bound_to 10713
  139.8909  135.0115  156.6763 LP  0  0  0  0  0  0  0  0  0  0  0  0  # atno 17394 bound_to 11000
  140.7340  133.9034  155.8231 LP  0  0  0  0  0  0  0  0  0  0  0  0  # atno 17395 bound_to 11000

$$$$
