AV-unprocessed.smi:1450|AV-procd|sdf|5898|dock3
  -GOLD-   22720 5583D 1   1.00000     0.00000
 Structure written by MMmdl.
 31 32  0  0  0  0  0  0  0  0  1 V2000
  150.6680  140.8629  157.8433 O   0  0  0  0  0  0  0  0  0  0  0  0
  150.4808  141.7250  156.9854 C   0  0  0  0  0  0  0  0  0  0  0  0
  150.0256  141.4541  155.7539 N   0  0  0  0  0  0  0  0  0  0  0  0
  149.7149  140.1208  155.2489 C   0  0  0  0  0  0  0  0  0  0  0  0
  150.9863  139.3227  154.9005 C   0  0  1  0  0  0  0  0  0  0  0  0
  152.0438  139.3326  155.9967 C   0  0  0  0  0  0  0  0  0  0  0  0
  152.6832  137.9412  155.9195 C   0  0  0  0  0  0  0  0  0  0  0  0
  152.0650  137.2920  154.8161 O   0  0  0  0  0  0  0  0  0  0  0  0
  150.7616  137.8293  154.6747 C   0  0  0  0  0  0  0  0  0  0  0  0
  150.6831  143.0439  157.1473 N   0  0  0  0  0  0  0  0  0  0  0  0
  151.1878  143.7333  158.2835 C   0  0  0  0  0  0  0  0  0  0  0  0
  151.8959  142.9852  159.2464 C   0  0  0  0  0  0  0  0  0  0  0  0
  152.3927  143.6345  160.3923 C   0  0  0  0  0  0  0  0  0  0  0  0
  152.1533  145.0146  160.5359 C   0  0  0  0  0  0  0  0  0  0  0  0
  151.4660  145.7439  159.6321 N   0  0  0  0  0  0  0  0  0  0  0  0
  150.9935  145.1149  158.5342 C   0  0  0  0  0  0  0  0  0  0  0  0
  149.8924  142.2245  155.1152 H   0  0  0  0  0  0  0  0  0  0  0  0
  149.1147  139.5766  155.9799 H   0  0  0  0  0  0  0  0  0  0  0  0
  149.0899  140.2354  154.3627 H   0  0  0  0  0  0  0  0  0  0  0  0
  151.4381  139.7354  153.9969 H   0  0  0  0  0  0  0  0  0  0  0  0
  152.7724  140.1281  155.8367 H   0  0  0  0  0  0  0  0  0  0  0  0
  151.5997  139.4821  156.9819 H   0  0  0  0  0  0  0  0  0  0  0  0
  153.7637  137.9870  155.7815 H   0  0  0  0  0  0  0  0  0  0  0  0
  152.4810  137.3763  156.8305 H   0  0  0  0  0  0  0  0  0  0  0  0
  150.1047  137.4052  155.4360 H   0  0  0  0  0  0  0  0  0  0  0  0
  150.3426  137.6084  153.6927 H   0  0  0  0  0  0  0  0  0  0  0  0
  150.4066  143.6315  156.3746 H   0  0  0  0  0  0  0  0  0  0  0  0
  152.0609  141.9263  159.1097 H   0  0  0  0  0  0  0  0  0  0  0  0
  152.9429  143.0879  161.1438 H   0  0  0  0  0  0  0  0  0  0  0  0
  152.5188  145.5456  161.4023 H   0  0  0  0  0  0  0  0  0  0  0  0
  150.4320  145.7464  157.8640 H   0  0  0  0  0  0  0  0  0  0  0  0
  1  2  2  0  0  0  0
  2  3  1  0  0  0  0
  2 10  1  0  0  0  0
  3  4  1  0  0  0  0
  3 17  1  0  0  0  0
  4  5  1  0  0  0  0
  4 18  1  0  0  0  0
  4 19  1  0  0  0  0
  5  9  1  0  0  0  0
  5  6  1  0  0  0  0
  5 20  1  0  0  0  0
  6  7  1  0  0  0  0
  6 21  1  0  0  0  0
  6 22  1  0  0  0  0
  7  8  1  0  0  0  0
  7 23  1  0  0  0  0
  7 24  1  0  0  0  0
  8  9  1  0  0  0  0
  9 25  1  0  0  0  0
  9 26  1  0  0  0  0
 10 11  1  0  0  0  0
 10 27  1  0  0  0  0
 11 16  1  0  0  0  0
 11 12  2  0  0  0  0
 12 13  1  0  0  0  0
 12 28  1  0  0  0  0
 13 14  2  0  0  0  0
 13 29  1  0  0  0  0
 14 15  1  0  0  0  0
 14 30  1  0  0  0  0
 15 16  2  0  0  0  0
 16 31  1  0  0  0  0
M  END
> <s_m_source_file>
AV-unprocessed.smi

> <i_m_source_file_index>
1450

> <i_lp_mmshare_version>
43012

> <i_f3d_flags>
0

> <s_epik_input>
W2NIXTFuW2NIXVtjSF1bY0hdYzFbTkhdQyg9TylbTkhdW0NIMl1bQ0BASF0yW0NIMl1bQ0gyXU9bQ0gyXTI=

> <s_epik_cmdline>
J2VwaWtfcHl0aG9uJywgJy1waCcsICc3LjAnLCAnLXRuJywgJzgnLCAnLW1hJywgJzIwMCcsICctbWV0YWxfYmluZGluZycsICctaW1hZScsICc8aW5maWxlLm1hZT4nLCAnLW9tYWUnLCAnPG91dGZpbGUubWFlPic=

> <r_epik_Ionization_Penalty>
0.00478342

> <r_epik_Ionization_Penalty_Charging>
0

> <r_epik_Ionization_Penalty_Neutral>
0.00478342

> <r_epik_State_Penalty>
0.0034384

> <r_epik_Charging_Adjusted_Penalty>
0.0034384

> <i_epik_Tot_Q>
0

> <i_epik_Tot_abs_Q>
0

> <r_epik_Metal_State_Penalty>
-0

> <b_epik_Metal_Only>
0

> <s_lp_Force_Field>
OPLS_2005

> <r_lp_Energy>
21.9504

> <b_lp_Chiralities_Consistent>
1

> <s_lp_Variant>
AV-unprocessed.smi:1450-2

> <Gold.Version>
5.8.1

> <Gold.Id.Protein>
6NUR|6NUR_protein|mol2

> <Gold.PLP.Fitness>
42.1825

> <Gold.PLP.PLP>
-34.6480

> <Gold.PLP.part.hbond>
-3.0076

> <Gold.PLP.part.metal>
0.0000

> <Gold.PLP.part.buried>
-4.6237

> <Gold.PLP.part.nonpolar>
-29.1213

> <Gold.PLP.part.repulsive>
0.4391

> <Gold.PLP.ligand.clash>
0.0000

> <Gold.PLP.ligand.torsion>
0.2614

> <Gold.PLP.Chemscore.Hbond>
1.6864

> <Gold.PLP.Chemscore.CHOScore>
0.9985

> <Gold.PLP.Chemscore.Metal>
0.0000

> <Gold.Chemscore.Hbonds>
donor molecule, donor type, donor heavy atom, donor atom, acceptor molecule, acceptor atom, score
      L1  H    10    27       P1  8028  0.86
      P1  H 10752 10763       L1     8  0.70
      L1  C    16    31       P1  8028  0.04
      L1  C    16    31       P1  8029  0.60

> <Gold.PLP.Chemscore.Internal.Correction>
0.0027

> <Gold.Rescore>
     Score         DG    S(hbond)    S(metal)    S(lipo)     H(rot)  DE(clash)    DE(int)     intcor
     13.96     -17.92       1.41        0.00      93.09       1.24       1.13       2.82       ----

> <Gold.Chemscore.Fitness>
13.9634

> <Gold.Chemscore.DG>
-17.9177

> <Gold.Chemscore.ZeroCoef>
-5.4800

> <Gold.Chemscore.Hbond>
1.4125

> <Gold.Chemscore.Metal>
0.0000

> <Gold.Chemscore.Lipo>
93.0903

> <Gold.Chemscore.Internal_Hbond>
0.0000

> <Gold.Chemscore.DEClash>
1.1309

> <Gold.Chemscore.DEInternal>
2.8234

> <Gold.Chemscore.Rot>
1.2390

> <Gold.Chemscore.Internal.Correction>
   9.000000E+99

> <Gold.Chemscore.Hbonds>
donor molecule, donor type, donor heavy atom, donor atom, acceptor molecule, acceptor atom, score
      L1  H    10    27       P1  8028  0.82
      P1  H 10752 10763       L1     8  0.64

> <Gold.Chemscore.Hbond.Weighted>
-4.7179

> <Gold.Chemscore.Metal.Weighted>
-0.0000

> <Gold.Chemscore.Lipo.Weighted>
-10.8916

> <Gold.Chemscore.Internal_Hbond.Weighted>
0.0000

> <Gold.Chemscore.DEClash.Weighted>
1.1309

> <Gold.Chemscore.DEInternal.Weighted>
2.8234

> <Gold.Chemscore.Rot.Weighted>
3.1718

> <Gold.Chemscore.Internal.Correction.Weighted>
   9.000000E+99

> <Gold.Protein.RotatedTorsions>
[ 6907 6896 6895 6894 ] final  -48.80 input  -60.11 | X-H torsion
[ 7974 7965 7964 7962 ] final    0.83 input  175.53 | X-H torsion
[ 8008 7997 7996 7995 ] final   21.06 input   59.86 | X-H torsion
[ 10167 10162 10161 10158 ] final -153.81 input  -65.29 | X-H torsion
[ 10718 10713 10712 10709 ] final   91.29 input   66.30 | X-H torsion
[ 10763 10752 10751 10750 ] final   31.45 input  -60.55 | X-H torsion
[ 11005 11000 10999 10996 ] final  118.01 input  -57.11 | X-H torsion

> <Gold.Protein.ActiveResidues>
 VAL166  LYS551  ARG553  GLY616  TRP617  ASP618  TYR619  PRO620  LYS621  CYS622 
 ASP623  PHE694  ASN695  SER759  ASP760  ASP761  ALA762  ILE779  LEU786  VAL792 
 PHE793  MET794  SER795  GLU796  ALA797  LYS798  CYS799  TRP800  GLU811  SER814 

> <Gold.Protein.RotatedAtoms>
  150.8869  134.8268  159.7265 H   0  0  0  0  0  0  0  0  0  0  0  0  # atno 6907 bound_to 6896
  152.4813  134.4709  159.9645 H   0  0  0  0  0  0  0  0  0  0  0  0  # atno 6908 bound_to 6896
  151.4776  133.3515  159.2868 H   0  0  0  0  0  0  0  0  0  0  0  0  # atno 6909 bound_to 6896
  146.2437  140.1078  142.8345 H   0  0  0  0  0  0  0  0  0  0  0  0  # atno 7974 bound_to 7965
  154.9449  140.3058  155.5103 H   0  0  0  0  0  0  0  0  0  0  0  0  # atno 8008 bound_to 7997
  156.2992  140.2329  156.4459 H   0  0  0  0  0  0  0  0  0  0  0  0  # atno 8009 bound_to 7997
  154.8110  140.0428  157.1331 H   0  0  0  0  0  0  0  0  0  0  0  0  # atno 8010 bound_to 7997
  139.7066  143.9176  152.2451 H   0  0  0  0  0  0  0  0  0  0  0  0  # atno 10167 bound_to 10162
  157.6960  131.0402  150.3707 H   0  0  0  0  0  0  0  0  0  0  0  0  # atno 10718 bound_to 10713
  153.0315  135.6438  154.1201 H   0  0  0  0  0  0  0  0  0  0  0  0  # atno 10763 bound_to 10752
  154.0923  135.2865  155.3270 H   0  0  0  0  0  0  0  0  0  0  0  0  # atno 10764 bound_to 10752
  154.6456  135.5444  153.7904 H   0  0  0  0  0  0  0  0  0  0  0  0  # atno 10765 bound_to 10752
  139.9094  134.9616  156.7439 H   0  0  0  0  0  0  0  0  0  0  0  0  # atno 11005 bound_to 11000
  145.0513  140.9019  143.4994 LP  0  0  0  0  0  0  0  0  0  0  0  0  # atno 17320 bound_to 7965
  145.1176  139.2715  143.5605 LP  0  0  0  0  0  0  0  0  0  0  0  0  # atno 17321 bound_to 7965
  139.9034  144.6899  150.8641 LP  0  0  0  0  0  0  0  0  0  0  0  0  # atno 17342 bound_to 10162
  140.7723  143.3497  151.2039 LP  0  0  0  0  0  0  0  0  0  0  0  0  # atno 17343 bound_to 10162
  156.4132  130.3938  149.6877 LP  0  0  0  0  0  0  0  0  0  0  0  0  # atno 17370 bound_to 10713
  156.4153  130.7742  151.2757 LP  0  0  0  0  0  0  0  0  0  0  0  0  # atno 17371 bound_to 10713
  140.6828  133.9459  155.7920 LP  0  0  0  0  0  0  0  0  0  0  0  0  # atno 17394 bound_to 11000
  141.0498  134.0501  157.3798 LP  0  0  0  0  0  0  0  0  0  0  0  0  # atno 17395 bound_to 11000

$$$$
