AV-unprocessed.smi:1586|AV-procd|sdf|6385|dock5
  -GOLD-   22720 7 23D 1   1.00000     0.00000
 Structure written by MMmdl.
 45 46  0  0  0  0  0  0  0  0  2 V2000
  151.3238  145.0093  160.0822 C   0  0  0  0  0  0  0  0  0  0  0  0
  152.2101  144.8193  158.8429 C   0  0  0  0  0  0  0  0  0  0  0  0
  152.2383  143.4594  158.3072 N   0  0  0  0  0  0  0  0  0  0  0  0
  152.6490  142.5047  159.3342 C   0  0  0  0  0  0  0  0  0  0  0  0
  152.6999  141.0656  158.7900 C   0  0  0  0  0  0  0  0  0  0  0  0
  151.3991  140.6245  158.2680 N   0  0  0  0  0  0  0  0  0  0  0  0
  151.4342  139.2377  157.7549 C   0  0  2  0  0  0  0  0  0  0  0  0
  152.1976  139.0948  156.4187 C   0  0  0  0  0  0  0  0  0  0  0  0
  150.0348  138.5958  157.5797 C   0  0  0  0  0  0  0  0  0  0  0  0
  149.4334  138.2547  158.8647 N   0  0  0  0  0  0  0  0  0  0  0  0
  149.3237  137.0171  159.3643 C   0  0  0  0  0  0  0  0  0  0  0  0
  149.7540  136.0564  158.7216 O   0  0  0  0  0  0  0  0  0  0  0  0
  148.7210  136.9693  160.5747 N   0  5  0  0  0  0  0  0  0  0  0  0
  147.8229  136.0099  160.8457 C   0  0  0  0  0  0  0  0  0  0  0  0
  147.0797  135.8753  162.0503 C   0  0  0  0  0  0  0  0  0  0  0  0
  146.3322  134.7529  161.8324 C   0  0  0  0  0  0  0  0  0  0  0  0
  145.3269  134.0294  162.6619 C   0  0  0  0  0  0  0  0  0  0  0  0
  146.6034  134.2368  160.6035 O   0  0  0  0  0  0  0  0  0  0  0  0
  147.5625  135.0439  159.9804 N   0  0  0  0  0  0  0  0  0  0  0  0
  150.9818  141.5946  157.2470 C   0  0  0  0  0  0  0  0  0  0  0  0
  150.9360  143.0335  157.7941 C   0  0  0  0  0  0  0  0  0  0  0  0
  151.2719  146.0630  160.3564 H   0  0  0  0  0  0  0  0  0  0  0  0
  151.7101  144.4700  160.9468 H   0  0  0  0  0  0  0  0  0  0  0  0
  150.3062  144.6653  159.8946 H   0  0  0  0  0  0  0  0  0  0  0  0
  151.8382  145.4930  158.0697 H   0  0  0  0  0  0  0  0  0  0  0  0
  153.2249  145.1514  159.0667 H   0  0  0  0  0  0  0  0  0  0  0  0
  153.6344  142.7753  159.7151 H   0  0  0  0  0  0  0  0  0  0  0  0
  151.9647  142.5490  160.1833 H   0  0  0  0  0  0  0  0  0  0  0  0
  153.4614  140.9910  158.0122 H   0  0  0  0  0  0  0  0  0  0  0  0
  153.0208  140.4230  159.6080 H   0  0  0  0  0  0  0  0  0  0  0  0
  151.9655  138.6240  158.4839 H   0  0  0  0  0  0  0  0  0  0  0  0
  152.1085  138.0843  156.0189 H   0  0  0  0  0  0  0  0  0  0  0  0
  153.2647  139.2818  156.5330 H   0  0  0  0  0  0  0  0  0  0  0  0
  151.8132  139.7812  155.6636 H   0  0  0  0  0  0  0  0  0  0  0  0
  149.3722  139.2878  157.0578 H   0  0  0  0  0  0  0  0  0  0  0  0
  150.0815  137.7109  156.9449 H   0  0  0  0  0  0  0  0  0  0  0  0
  149.0781  139.0189  159.4205 H   0  0  0  0  0  0  0  0  0  0  0  0
  147.0905  136.5038  162.9280 H   0  0  0  0  0  0  0  0  0  0  0  0
  144.5178  134.6977  162.9566 H   0  0  0  0  0  0  0  0  0  0  0  0
  145.7874  133.6347  163.5676 H   0  0  0  0  0  0  0  0  0  0  0  0
  144.8910  133.1940  162.1132 H   0  0  0  0  0  0  0  0  0  0  0  0
  151.6528  141.5471  156.3881 H   0  0  0  0  0  0  0  0  0  0  0  0
  149.9842  141.3564  156.8814 H   0  0  0  0  0  0  0  0  0  0  0  0
  150.1823  143.1023  158.5803 H   0  0  0  0  0  0  0  0  0  0  0  0
  150.6128  143.6964  156.9920 H   0  0  0  0  0  0  0  0  0  0  0  0
  1  2  1  0  0  0  0
  1 22  1  0  0  0  0
  1 23  1  0  0  0  0
  1 24  1  0  0  0  0
  2  3  1  0  0  0  0
  2 25  1  0  0  0  0
  2 26  1  0  0  0  0
  3 21  1  0  0  0  0
  3  4  1  0  0  0  0
  4  5  1  0  0  0  0
  4 27  1  0  0  0  0
  4 28  1  0  0  0  0
  5  6  1  0  0  0  0
  5 29  1  0  0  0  0
  5 30  1  0  0  0  0
  6  7  1  0  0  0  0
  6 20  1  0  0  0  0
  7  8  1  0  0  0  0
  7  9  1  0  0  0  0
  7 31  1  0  0  0  0
  8 32  1  0  0  0  0
  8 33  1  0  0  0  0
  8 34  1  0  0  0  0
  9 10  1  0  0  0  0
  9 35  1  0  0  0  0
  9 36  1  0  0  0  0
 10 11  1  0  0  0  0
 10 37  1  0  0  0  0
 11 12  2  0  0  0  0
 11 13  1  0  0  0  0
 13 14  1  0  0  0  0
 14 19  2  0  0  0  0
 14 15  1  0  0  0  0
 15 16  2  0  0  0  0
 15 38  1  0  0  0  0
 16 17  1  0  0  0  0
 16 18  1  0  0  0  0
 17 39  1  0  0  0  0
 17 40  1  0  0  0  0
 17 41  1  0  0  0  0
 18 19  1  0  0  0  0
 20 21  1  0  0  0  0
 20 42  1  0  0  0  0
 20 43  1  0  0  0  0
 21 44  1  0  0  0  0
 21 45  1  0  0  0  0
M  CHG  1  13  -1
M  END
> <s_m_source_file>
AV-unprocessed.smi

> <i_m_source_file_index>
1586

> <i_lp_mmshare_version>
43012

> <i_f3d_flags>
0

> <s_epik_input>
W0NIM11bQ0gyXU4xW0NIMl1bQ0gyXU4oW0NIMl1bQ0gyXTEpW0NASF0oW0NIM10pW0NIMl1bTkhdQyg9TylbTkhdYzJbY0hdYyhbQ0gzXSlvbjI=

> <s_epik_cmdline>
J2VwaWtfcHl0aG9uJywgJy1waCcsICc3LjAnLCAnLXRuJywgJzgnLCAnLW1hJywgJzIwMCcsICctbWV0YWxfYmluZGluZycsICctaW1hZScsICc8aW5maWxlLm1hZT4nLCAnLW9tYWUnLCAnPG91dGZpbGUubWFlPic=

> <r_epik_Ionization_Penalty>
9.09031

> <r_epik_Ionization_Penalty_Charging>
6.65437

> <r_epik_Ionization_Penalty_Neutral>
2.43594

> <r_epik_State_Penalty>
8.41762

> <r_epik_Charging_Adjusted_Penalty>
15.072

> <i_epik_Tot_Q>
-1

> <i_epik_Tot_abs_Q>
1

> <r_epik_Metal_State_Penalty>
4.3436

> <b_epik_Metal_Only>
1

> <s_lp_Force_Field>
OPLS_2005

> <r_lp_Energy>
37.6489

> <b_lp_Chiralities_Consistent>
1

> <s_lp_Variant>
AV-unprocessed.smi:1586-13

> <Gold.Version>
5.8.1

> <Gold.Id.Protein>
6NUR|6NUR_protein|mol2

> <Gold.PLP.Fitness>
46.4490

> <Gold.PLP.PLP>
-39.9852

> <Gold.PLP.part.hbond>
-2.0000

> <Gold.PLP.part.metal>
0.0000

> <Gold.PLP.part.buried>
-6.3910

> <Gold.PLP.part.nonpolar>
-33.1580

> <Gold.PLP.part.repulsive>
0.2526

> <Gold.PLP.ligand.clash>
0.0000

> <Gold.PLP.ligand.torsion>
0.7641

> <Gold.PLP.Chemscore.Hbond>
2.6320

> <Gold.PLP.Chemscore.CHOScore>
0.0000

> <Gold.PLP.Chemscore.Metal>
0.0000

> <Gold.Chemscore.Hbonds>
donor molecule, donor type, donor heavy atom, donor atom, acceptor molecule, acceptor atom, score
      P1  H  6896  6909       L1    12  1.00
      P1  H  6931  6943       L1    13  1.63

> <Gold.PLP.Chemscore.Internal.Correction>
0.0961

> <Gold.Rescore>
     Score         DG    S(hbond)    S(metal)    S(lipo)     H(rot)  DE(clash)    DE(int)     intcor
     16.39     -18.59       1.82        0.00      96.77       1.68       0.09       2.10       ----

> <Gold.Chemscore.Fitness>
16.3945

> <Gold.Chemscore.DG>
-18.5858

> <Gold.Chemscore.ZeroCoef>
-5.4800

> <Gold.Chemscore.Hbond>
1.8210

> <Gold.Chemscore.Metal>
0.0000

> <Gold.Chemscore.Lipo>
96.7651

> <Gold.Chemscore.Internal_Hbond>
0.0000

> <Gold.Chemscore.DEClash>
0.0880

> <Gold.Chemscore.DEInternal>
2.1033

> <Gold.Chemscore.Rot>
1.6788

> <Gold.Chemscore.Internal.Correction>
   9.000000E+99

> <Gold.Chemscore.Hbonds>
donor molecule, donor type, donor heavy atom, donor atom, acceptor molecule, acceptor atom, score
      P1  H  6896  6909       L1    12  0.97
      P1  H  6931  6943       L1    13  0.75

> <Gold.Chemscore.Hbond.Weighted>
-6.0822

> <Gold.Chemscore.Metal.Weighted>
-0.0000

> <Gold.Chemscore.Lipo.Weighted>
-11.3215

> <Gold.Chemscore.Internal_Hbond.Weighted>
0.0000

> <Gold.Chemscore.DEClash.Weighted>
0.0880

> <Gold.Chemscore.DEInternal.Weighted>
2.1033

> <Gold.Chemscore.Rot.Weighted>
4.2978

> <Gold.Chemscore.Internal.Correction.Weighted>
   9.000000E+99

> <Gold.Protein.RotatedTorsions>
[ 6907 6896 6895 6894 ] final   52.36 input  -60.11 | X-H torsion
[ 7974 7965 7964 7962 ] final   82.64 input  175.53 | X-H torsion
[ 8008 7997 7996 7995 ] final  166.83 input   59.86 | X-H torsion
[ 10167 10162 10161 10158 ] final -153.26 input  -65.29 | X-H torsion
[ 10718 10713 10712 10709 ] final  -80.04 input   66.30 | X-H torsion
[ 10763 10752 10751 10750 ] final   33.13 input  -60.55 | X-H torsion
[ 11005 11000 10999 10996 ] final  -58.58 input  -57.11 | X-H torsion

> <Gold.Protein.ActiveResidues>
 VAL166  LYS551  ARG553  GLY616  TRP617  ASP618  TYR619  PRO620  LYS621  CYS622 
 ASP623  PHE694  ASN695  SER759  ASP760  ASP761  ALA762  ILE779  LEU786  VAL792 
 PHE793  MET794  SER795  GLU796  ALA797  LYS798  CYS799  TRP800  GLU811  SER814 

> <Gold.Protein.RotatedAtoms>
  152.3225  134.7362  160.0309 H   0  0  0  0  0  0  0  0  0  0  0  0  # atno 6907 bound_to 6896
  151.7806  133.3344  159.3478 H   0  0  0  0  0  0  0  0  0  0  0  0  # atno 6908 bound_to 6896
  150.7378  134.5866  159.6010 H   0  0  0  0  0  0  0  0  0  0  0  0  # atno 6909 bound_to 6896
  145.6224  139.2388  143.2131 H   0  0  0  0  0  0  0  0  0  0  0  0  # atno 7974 bound_to 7965
  156.1685  140.1633  156.8488 H   0  0  0  0  0  0  0  0  0  0  0  0  # atno 8008 bound_to 7997
  154.5232  140.0773  156.8246 H   0  0  0  0  0  0  0  0  0  0  0  0  # atno 8009 bound_to 7997
  155.3561  140.3392  155.4242 H   0  0  0  0  0  0  0  0  0  0  0  0  # atno 8010 bound_to 7997
  139.7112  143.9106  152.2468 H   0  0  0  0  0  0  0  0  0  0  0  0  # atno 10167 bound_to 10162
  156.0079  130.4563  150.3739 H   0  0  0  0  0  0  0  0  0  0  0  0  # atno 10718 bound_to 10713
  153.0227  135.6395  154.1464 H   0  0  0  0  0  0  0  0  0  0  0  0  # atno 10763 bound_to 10752
  154.1197  135.2847  155.3213 H   0  0  0  0  0  0  0  0  0  0  0  0  # atno 10764 bound_to 10752
  154.6272  135.5505  153.7703 H   0  0  0  0  0  0  0  0  0  0  0  0  # atno 10765 bound_to 10752
  141.1213  133.6613  156.4941 H   0  0  0  0  0  0  0  0  0  0  0  0  # atno 11005 bound_to 11000
  146.1421  140.7043  142.9362 LP  0  0  0  0  0  0  0  0  0  0  0  0  # atno 17320 bound_to 7965
  144.7226  140.4422  143.6997 LP  0  0  0  0  0  0  0  0  0  0  0  0  # atno 17321 bound_to 7965
  139.8976  144.6930  150.8701 LP  0  0  0  0  0  0  0  0  0  0  0  0  # atno 17342 bound_to 10162
  140.7733  143.3538  151.1961 LP  0  0  0  0  0  0  0  0  0  0  0  0  # atno 17343 bound_to 10162
  157.1823  131.0395  151.2742 LP  0  0  0  0  0  0  0  0  0  0  0  0  # atno 17370 bound_to 10713
  157.4135  130.7398  149.6857 LP  0  0  0  0  0  0  0  0  0  0  0  0  # atno 17371 bound_to 10713
  140.4499  134.6938  157.5034 LP  0  0  0  0  0  0  0  0  0  0  0  0  # atno 17394 bound_to 11000
  140.0173  134.6601  155.9292 LP  0  0  0  0  0  0  0  0  0  0  0  0  # atno 17395 bound_to 11000

$$$$
