AV-unprocessed.smi:1005|AV-procd|sdf|4387|dock9
  -GOLD-   22720 2313D 1   1.00000     0.00000
 Structure written by MMmdl.
 55 57  0  0  0  0  0  0  0  0  1 V2000
  152.4873  143.1141  161.0482 C   0  0  0  0  0  0  0  0  0  0  0  0
  152.0779  142.5039  159.7194 C   0  0  0  0  0  0  0  0  0  0  0  0
  152.7335  141.3357  159.2691 C   0  0  0  0  0  0  0  0  0  0  0  0
  152.3827  140.7366  158.0394 C   0  0  0  0  0  0  0  0  0  0  0  0
  152.8846  139.6087  157.4128 N   0  0  0  0  0  0  0  0  0  0  0  0
  152.1525  139.5703  156.3030 C   0  0  0  0  0  0  0  0  0  0  0  0
  151.2347  140.5418  156.1363 N   0  0  0  0  0  0  0  0  0  0  0  0
  150.3252  140.7098  155.0171 C   0  0  0  0  0  0  0  0  0  0  0  0
  149.4350  139.4730  154.7942 C   0  0  1  0  0  0  0  0  0  0  0  0
  148.4769  139.7644  153.7948 O   0  0  0  0  0  0  0  0  0  0  0  0
  150.2648  138.2517  154.3480 C   0  0  0  0  0  0  0  0  0  0  0  0
  149.9131  136.9799  154.9819 N   0  0  0  0  0  0  0  0  0  0  0  0
  148.4801  136.7279  154.8821 C   0  0  0  0  0  0  0  0  0  0  0  0
  148.0843  135.3937  155.5351 C   0  0  0  0  0  0  0  0  0  0  0  0
  148.8370  134.3387  154.9455 O   0  0  0  0  0  0  0  0  0  0  0  0
  150.2456  134.5098  155.0881 C   0  0  1  0  0  0  0  0  0  0  0  0
  150.9367  133.2874  154.4487 C   0  0  0  0  0  0  0  0  0  0  0  0
  150.6635  131.9976  155.0857 N   0  0  0  0  0  0  0  0  0  0  0  0
  151.0406  131.9729  156.4933 C   0  0  0  0  0  0  0  0  0  0  0  0
  151.3258  130.9181  154.3669 C   0  0  0  0  0  0  0  0  0  0  0  0
  150.6304  135.8425  154.4082 C   0  0  0  0  0  0  0  0  0  0  0  0
  151.3493  141.3426  157.2671 C   0  0  0  0  0  0  0  0  0  0  0  0
  150.6894  142.5046  157.7042 C   0  0  0  0  0  0  0  0  0  0  0  0
  151.0522  143.0906  158.9350 C   0  0  0  0  0  0  0  0  0  0  0  0
  150.3345  144.3467  159.3964 C   0  0  0  0  0  0  0  0  0  0  0  0
  153.3282  142.5787  161.4902 H   0  0  0  0  0  0  0  0  0  0  0  0
  151.6580  143.0777  161.7551 H   0  0  0  0  0  0  0  0  0  0  0  0
  152.7863  144.1543  160.9172 H   0  0  0  0  0  0  0  0  0  0  0  0
  153.5143  140.8880  159.8663 H   0  0  0  0  0  0  0  0  0  0  0  0
  152.2927  138.7922  155.5669 H   0  0  0  0  0  0  0  0  0  0  0  0
  149.7149  141.5976  155.1889 H   0  0  0  0  0  0  0  0  0  0  0  0
  150.9218  140.9087  154.1260 H   0  0  0  0  0  0  0  0  0  0  0  0
  148.9065  139.2647  155.7230 H   0  0  0  0  0  0  0  0  0  0  0  0
  148.9226  139.8517  152.9664 H   0  0  0  0  0  0  0  0  0  0  0  0
  150.1659  138.1542  153.2655 H   0  0  0  0  0  0  0  0  0  0  0  0
  151.3219  138.4542  154.5279 H   0  0  0  0  0  0  0  0  0  0  0  0
  147.9265  137.5386  155.3572 H   0  0  0  0  0  0  0  0  0  0  0  0
  148.1789  136.7172  153.8333 H   0  0  0  0  0  0  0  0  0  0  0  0
  148.2606  135.4212  156.6115 H   0  0  0  0  0  0  0  0  0  0  0  0
  147.0220  135.1991  155.3886 H   0  0  0  0  0  0  0  0  0  0  0  0
  150.4762  134.5460  156.1549 H   0  0  0  0  0  0  0  0  0  0  0  0
  150.5867  133.2237  153.4173 H   0  0  0  0  0  0  0  0  0  0  0  0
  152.0123  133.4562  154.3772 H   0  0  0  0  0  0  0  0  0  0  0  0
  150.8727  130.9840  156.9213 H   0  0  0  0  0  0  0  0  0  0  0  0
  150.4413  132.6749  157.0723 H   0  0  0  0  0  0  0  0  0  0  0  0
  152.0939  132.2243  156.6250 H   0  0  0  0  0  0  0  0  0  0  0  0
  151.0775  129.9511  154.8055 H   0  0  0  0  0  0  0  0  0  0  0  0
  152.4101  131.0346  154.3925 H   0  0  0  0  0  0  0  0  0  0  0  0
  151.0107  130.8954  153.3230 H   0  0  0  0  0  0  0  0  0  0  0  0
  150.4212  135.7782  153.3392 H   0  0  0  0  0  0  0  0  0  0  0  0
  151.7033  135.9892  154.5016 H   0  0  0  0  0  0  0  0  0  0  0  0
  149.9110  142.9409  157.0957 H   0  0  0  0  0  0  0  0  0  0  0  0
  149.5318  144.6204  158.7108 H   0  0  0  0  0  0  0  0  0  0  0  0
  151.0300  145.1846  159.4501 H   0  0  0  0  0  0  0  0  0  0  0  0
  149.8937  144.1978  160.3825 H   0  0  0  0  0  0  0  0  0  0  0  0
  1  2  1  0  0  0  0
  1 26  1  0  0  0  0
  1 27  1  0  0  0  0
  1 28  1  0  0  0  0
  2 24  1  0  0  0  0
  2  3  2  0  0  0  0
  3  4  1  0  0  0  0
  3 29  1  0  0  0  0
  4 22  2  0  0  0  0
  4  5  1  0  0  0  0
  5  6  2  0  0  0  0
  6  7  1  0  0  0  0
  6 30  1  0  0  0  0
  7  8  1  0  0  0  0
  7 22  1  0  0  0  0
  8  9  1  0  0  0  0
  8 31  1  0  0  0  0
  8 32  1  0  0  0  0
  9 10  1  0  0  0  0
  9 11  1  0  0  0  0
  9 33  1  0  0  0  0
 10 34  1  0  0  0  0
 11 12  1  0  0  0  0
 11 35  1  0  0  0  0
 11 36  1  0  0  0  0
 12 21  1  0  0  0  0
 12 13  1  0  0  0  0
 13 14  1  0  0  0  0
 13 37  1  0  0  0  0
 13 38  1  0  0  0  0
 14 15  1  0  0  0  0
 14 39  1  0  0  0  0
 14 40  1  0  0  0  0
 15 16  1  0  0  0  0
 16 17  1  0  0  0  0
 16 21  1  0  0  0  0
 16 41  1  0  0  0  0
 17 18  1  0  0  0  0
 17 42  1  0  0  0  0
 17 43  1  0  0  0  0
 18 19  1  0  0  0  0
 18 20  1  0  0  0  0
 19 44  1  0  0  0  0
 19 45  1  0  0  0  0
 19 46  1  0  0  0  0
 20 47  1  0  0  0  0
 20 48  1  0  0  0  0
 20 49  1  0  0  0  0
 21 50  1  0  0  0  0
 21 51  1  0  0  0  0
 22 23  1  0  0  0  0
 23 24  2  0  0  0  0
 23 52  1  0  0  0  0
 24 25  1  0  0  0  0
 25 53  1  0  0  0  0
 25 54  1  0  0  0  0
 25 55  1  0  0  0  0
M  END
> <s_m_source_file>
AV-unprocessed.smi

> <i_m_source_file_index>
1005

> <i_lp_mmshare_version>
43012

> <i_f3d_flags>
0

> <s_epik_input>
W0NIM11jKFtjSF0xKWMoW0NIM10pW2NIXWMoYzEyKW4oW2NIXW4yKVtDSDJdW0NASF0oW09IXSlbQ0gyXU4zW0NIMl1bQ0gyXU9bQ0BIXShbQ0gyXTMpW0NIMl1OKFtDSDNdKVtDSDNd

> <s_epik_cmdline>
J2VwaWtfcHl0aG9uJywgJy1waCcsICc3LjAnLCAnLXRuJywgJzgnLCAnLW1hJywgJzIwMCcsICctbWV0YWxfYmluZGluZycsICctaW1hZScsICc8aW5maWxlLm1hZT4nLCAnLW9tYWUnLCAnPG91dGZpbGUubWFlPic=

> <r_epik_Ionization_Penalty>
2.78613

> <r_epik_Ionization_Penalty_Charging>
0

> <r_epik_Ionization_Penalty_Neutral>
2.78613

> <r_epik_State_Penalty>
2.57336

> <r_epik_Charging_Adjusted_Penalty>
2.57336

> <i_epik_Tot_Q>
0

> <i_epik_Tot_abs_Q>
0

> <r_epik_Metal_State_Penalty>
2.49087

> <b_epik_Metal_Only>
0

> <s_lp_Force_Field>
OPLS_2005

> <r_lp_Energy>
38.3146

> <b_lp_Chiralities_Consistent>
1

> <s_lp_Variant>
AV-unprocessed.smi:1005-26

> <Gold.Version>
5.8.1

> <Gold.Id.Protein>
6NUR|6NUR_protein|mol2

> <Gold.PLP.Fitness>
45.8927

> <Gold.PLP.PLP>
-41.1536

> <Gold.PLP.part.hbond>
-2.0000

> <Gold.PLP.part.metal>
0.0000

> <Gold.PLP.part.buried>
-2.8551

> <Gold.PLP.part.nonpolar>
-35.1325

> <Gold.PLP.part.repulsive>
0.1787

> <Gold.PLP.ligand.clash>
0.0000

> <Gold.PLP.ligand.torsion>
0.6708

> <Gold.PLP.Chemscore.Hbond>
2.0000

> <Gold.PLP.Chemscore.CHOScore>
0.0000

> <Gold.PLP.Chemscore.Metal>
0.0000

> <Gold.Chemscore.Hbonds>
donor molecule, donor type, donor heavy atom, donor atom, acceptor molecule, acceptor atom, score
      L1  H    10    34       P1  7957  1.00
      P1  H  7997  8008       L1     5  1.00

> <Gold.PLP.Chemscore.Internal.Correction>
0.0808

> <Gold.Rescore>
     Score         DG    S(hbond)    S(metal)    S(lipo)     H(rot)  DE(clash)    DE(int)     intcor
     16.53     -18.76       1.60        0.00     118.00       2.29       1.55       0.68       ----

> <Gold.Chemscore.Fitness>
16.5299

> <Gold.Chemscore.DG>
-18.7552

> <Gold.Chemscore.ZeroCoef>
-5.4800

> <Gold.Chemscore.Hbond>
1.5958

> <Gold.Chemscore.Metal>
0.0000

> <Gold.Chemscore.Lipo>
118.0028

> <Gold.Chemscore.Internal_Hbond>
0.0000

> <Gold.Chemscore.DEClash>
1.5492

> <Gold.Chemscore.DEInternal>
0.6761

> <Gold.Chemscore.Rot>
2.2895

> <Gold.Chemscore.Internal.Correction>
   9.000000E+99

> <Gold.Chemscore.Hbonds>
donor molecule, donor type, donor heavy atom, donor atom, acceptor molecule, acceptor atom, score
      L1  H    10    34       P1  7957  0.99
      P1  H  7997  8008       L1     5  0.20

> <Gold.Chemscore.Hbond.Weighted>
-5.3301

> <Gold.Chemscore.Metal.Weighted>
-0.0000

> <Gold.Chemscore.Lipo.Weighted>
-13.8063

> <Gold.Chemscore.Internal_Hbond.Weighted>
0.0000

> <Gold.Chemscore.DEClash.Weighted>
1.5492

> <Gold.Chemscore.DEInternal.Weighted>
0.6761

> <Gold.Chemscore.Rot.Weighted>
5.8612

> <Gold.Chemscore.Internal.Correction.Weighted>
   9.000000E+99

> <Gold.Protein.RotatedTorsions>
[ 6907 6896 6895 6894 ] final -104.25 input  -60.11 | X-H torsion
[ 7974 7965 7964 7962 ] final   57.36 input  175.53 | X-H torsion
[ 8008 7997 7996 7995 ] final  -72.81 input   59.86 | X-H torsion
[ 10167 10162 10161 10158 ] final  -26.86 input  -65.29 | X-H torsion
[ 10718 10713 10712 10709 ] final   57.89 input   66.30 | X-H torsion
[ 10763 10752 10751 10750 ] final   53.73 input  -60.55 | X-H torsion
[ 11005 11000 10999 10996 ] final  137.71 input  -57.11 | X-H torsion

> <Gold.Protein.ActiveResidues>
 VAL166  LYS551  ARG553  GLY616  TRP617  ASP618  TYR619  PRO620  LYS621  CYS622 
 ASP623  PHE694  ASN695  SER759  ASP760  ASP761  ALA762  ILE779  LEU786  VAL792 
 PHE793  MET794  SER795  GLU796  ALA797  LYS798  CYS799  TRP800  GLU811  SER814 

> <Gold.Protein.RotatedAtoms>
  150.7278  134.0306  159.3731 H   0  0  0  0  0  0  0  0  0  0  0  0  # atno 6907 bound_to 6896
  151.8275  135.0630  160.0442 H   0  0  0  0  0  0  0  0  0  0  0  0  # atno 6908 bound_to 6896
  152.2958  133.5570  159.5623 H   0  0  0  0  0  0  0  0  0  0  0  0  # atno 6909 bound_to 6896
  145.9299  139.3799  143.0427 H   0  0  0  0  0  0  0  0  0  0  0  0  # atno 7974 bound_to 7965
  154.5196  140.0790  156.8146 H   0  0  0  0  0  0  0  0  0  0  0  0  # atno 8008 bound_to 7997
  155.3605  140.3417  155.4222 H   0  0  0  0  0  0  0  0  0  0  0  0  # atno 8009 bound_to 7997
  156.1666  140.1606  156.8507 H   0  0  0  0  0  0  0  0  0  0  0  0  # atno 8010 bound_to 7997
  140.7280  143.4142  151.1055 H   0  0  0  0  0  0  0  0  0  0  0  0  # atno 10167 bound_to 10162
  157.5552  130.8794  149.9024 H   0  0  0  0  0  0  0  0  0  0  0  0  # atno 10718 bound_to 10713
  152.9798  135.5769  154.4789 H   0  0  0  0  0  0  0  0  0  0  0  0  # atno 10763 bound_to 10752
  154.4340  135.2774  155.1895 H   0  0  0  0  0  0  0  0  0  0  0  0  # atno 10764 bound_to 10752
  154.3591  135.6192  153.5735 H   0  0  0  0  0  0  0  0  0  0  0  0  # atno 10765 bound_to 10752
  140.0133  134.9429  157.0322 H   0  0  0  0  0  0  0  0  0  0  0  0  # atno 11005 bound_to 11000
  145.8440  140.9565  143.0784 LP  0  0  0  0  0  0  0  0  0  0  0  0  # atno 17320 bound_to 7965
  144.6763  140.0321  143.7482 LP  0  0  0  0  0  0  0  0  0  0  0  0  # atno 17321 bound_to 7965
  139.7780  143.8397  152.3132 LP  0  0  0  0  0  0  0  0  0  0  0  0  # atno 17342 bound_to 10162
  139.8338  144.7241  150.9417 LP  0  0  0  0  0  0  0  0  0  0  0  0  # atno 17343 bound_to 10162
  156.0612  130.3699  150.0979 LP  0  0  0  0  0  0  0  0  0  0  0  0  # atno 17370 bound_to 10713
  156.9148  130.9663  151.3557 LP  0  0  0  0  0  0  0  0  0  0  0  0  # atno 17371 bound_to 10713
  140.4516  134.1576  155.7182 LP  0  0  0  0  0  0  0  0  0  0  0  0  # atno 17394 bound_to 11000
  141.1725  133.8579  157.1525 LP  0  0  0  0  0  0  0  0  0  0  0  0  # atno 17395 bound_to 11000

$$$$
