AV-unprocessed.smi:1381|AV-procd|sdf|5603|dock7
  -GOLD-   22720 5213D 1   1.00000     0.00000
 Structure written by MMmdl.
 42 43  0  0  0  0  0  0  0  0  1 V2000
  144.0203  132.2213  149.4498 C   0  0  0  0  0  0  0  0  0  0  0  0
  145.0396  132.4495  150.5127 C   0  0  0  0  0  0  0  0  0  0  0  0
  145.8625  133.5015  150.8022 C   0  0  0  0  0  0  0  0  0  0  0  0
  146.5746  133.0460  151.9436 C   0  0  0  0  0  0  0  0  0  0  0  0
  147.5516  133.8640  152.5658 N   0  0  0  0  0  0  0  0  0  0  0  0
  147.9833  133.8016  153.8369 C   0  0  0  0  0  0  0  0  0  0  0  0
  147.5890  132.9976  154.6820 O   0  0  0  0  0  0  0  0  0  0  0  0
  148.9112  134.7376  154.0821 N   0  0  0  0  0  0  0  0  0  0  0  0
  149.5784  134.9461  155.3633 C   0  0  0  0  0  0  0  0  0  0  0  0
  150.9119  135.7067  155.2154 C   0  0  0  0  0  0  0  0  0  0  0  0
  150.8371  137.1453  155.4656 N   0  0  0  0  0  0  0  0  0  0  0  0
  149.7575  137.7527  154.6980 C   0  0  0  0  0  0  0  0  0  0  0  0
  149.6296  139.2607  154.9784 C   0  0  2  0  0  0  0  0  0  0  0  0
  148.5479  139.9180  154.1149 C   0  0  0  0  0  0  0  0  0  0  0  0
  150.8729  139.9000  154.6953 O   0  0  0  0  0  0  0  0  0  0  0  0
  152.0052  139.3564  155.3760 C   0  0  1  0  0  0  0  0  0  0  0  0
  152.0224  139.7542  156.8617 C   0  0  0  0  0  0  0  0  0  0  0  0
  152.0875  137.8329  155.1513 C   0  0  0  0  0  0  0  0  0  0  0  0
  146.2168  131.8275  152.3187 N   0  0  0  0  0  0  0  0  0  0  0  0
  145.2312  131.4389  151.4037 O   0  0  0  0  0  0  0  0  0  0  0  0
  144.0267  133.0339  148.7231 H   0  0  0  0  0  0  0  0  0  0  0  0
  143.0206  132.1602  149.8801 H   0  0  0  0  0  0  0  0  0  0  0  0
  144.2180  131.2907  148.9175 H   0  0  0  0  0  0  0  0  0  0  0  0
  145.9411  134.4429  150.2792 H   0  0  0  0  0  0  0  0  0  0  0  0
  147.9669  134.5728  151.9798 H   0  0  0  0  0  0  0  0  0  0  0  0
  149.1754  135.3555  153.3290 H   0  0  0  0  0  0  0  0  0  0  0  0
  148.9087  135.5114  156.0137 H   0  0  0  0  0  0  0  0  0  0  0  0
  149.7315  133.9848  155.8546 H   0  0  0  0  0  0  0  0  0  0  0  0
  151.6909  135.2524  155.8297 H   0  0  0  0  0  0  0  0  0  0  0  0
  151.2390  135.5632  154.1844 H   0  0  0  0  0  0  0  0  0  0  0  0
  149.9275  137.5923  153.6319 H   0  0  0  0  0  0  0  0  0  0  0  0
  148.8133  137.2630  154.9392 H   0  0  0  0  0  0  0  0  0  0  0  0
  149.3726  139.4161  156.0267 H   0  0  0  0  0  0  0  0  0  0  0  0
  147.5706  139.4730  154.3050 H   0  0  0  0  0  0  0  0  0  0  0  0
  148.7674  139.8052  153.0530 H   0  0  0  0  0  0  0  0  0  0  0  0
  148.4743  140.9845  154.3288 H   0  0  0  0  0  0  0  0  0  0  0  0
  152.8840  139.8094  154.9165 H   0  0  0  0  0  0  0  0  0  0  0  0
  152.9503  139.4365  157.3374 H   0  0  0  0  0  0  0  0  0  0  0  0
  151.2012  139.3021  157.4174 H   0  0  0  0  0  0  0  0  0  0  0  0
  151.9471  140.8358  156.9746 H   0  0  0  0  0  0  0  0  0  0  0  0
  152.9035  137.4316  155.7518 H   0  0  0  0  0  0  0  0  0  0  0  0
  152.3505  137.6443  154.1092 H   0  0  0  0  0  0  0  0  0  0  0  0
  1  2  1  0  0  0  0
  1 21  1  0  0  0  0
  1 22  1  0  0  0  0
  1 23  1  0  0  0  0
  2 20  1  0  0  0  0
  2  3  2  0  0  0  0
  3  4  1  0  0  0  0
  3 24  1  0  0  0  0
  4  5  1  0  0  0  0
  4 19  2  0  0  0  0
  5  6  1  0  0  0  0
  5 25  1  0  0  0  0
  6  7  2  0  0  0  0
  6  8  1  0  0  0  0
  8  9  1  0  0  0  0
  8 26  1  0  0  0  0
  9 10  1  0  0  0  0
  9 27  1  0  0  0  0
  9 28  1  0  0  0  0
 10 11  1  0  0  0  0
 10 29  1  0  0  0  0
 10 30  1  0  0  0  0
 11 18  1  0  0  0  0
 11 12  1  0  0  0  0
 12 13  1  0  0  0  0
 12 31  1  0  0  0  0
 12 32  1  0  0  0  0
 13 14  1  0  0  0  0
 13 15  1  0  0  0  0
 13 33  1  0  0  0  0
 14 34  1  0  0  0  0
 14 35  1  0  0  0  0
 14 36  1  0  0  0  0
 15 16  1  0  0  0  0
 16 17  1  0  0  0  0
 16 18  1  0  0  0  0
 16 37  1  0  0  0  0
 17 38  1  0  0  0  0
 17 39  1  0  0  0  0
 17 40  1  0  0  0  0
 18 41  1  0  0  0  0
 18 42  1  0  0  0  0
 19 20  1  0  0  0  0
M  END
> <s_m_source_file>
AV-unprocessed.smi

> <i_m_source_file_index>
1381

> <i_lp_mmshare_version>
43012

> <i_f3d_flags>
0

> <s_epik_input>
W0NIM11jMVtjSF1jKG5vMSlbTkhdQyg9TylbTkhdW0NIMl1bQ0gyXU4yW0NIMl1bQ0BASF0oW0NIM10pT1tDQEBIXShbQ0gzXSlbQ0gyXTI=

> <s_epik_cmdline>
J2VwaWtfcHl0aG9uJywgJy1waCcsICc3LjAnLCAnLXRuJywgJzgnLCAnLW1hJywgJzIwMCcsICctbWV0YWxfYmluZGluZycsICctaW1hZScsICc8aW5maWxlLm1hZT4nLCAnLW9tYWUnLCAnPG91dGZpbGUubWFlPic=

> <r_epik_Ionization_Penalty>
0.214073

> <r_epik_Ionization_Penalty_Charging>
0

> <r_epik_Ionization_Penalty_Neutral>
0.214073

> <r_epik_State_Penalty>
0.204211

> <r_epik_Charging_Adjusted_Penalty>
0.204211

> <i_epik_Tot_Q>
0

> <i_epik_Tot_abs_Q>
0

> <r_epik_Metal_State_Penalty>
0.217067

> <b_epik_Metal_Only>
0

> <s_lp_Force_Field>
OPLS_2005

> <r_lp_Energy>
25.417

> <b_lp_Chiralities_Consistent>
1

> <s_lp_Variant>
AV-unprocessed.smi:1381-2

> <Gold.Version>
5.8.1

> <Gold.Id.Protein>
6NUR|6NUR_protein|mol2

> <Gold.PLP.Fitness>
39.1423

> <Gold.PLP.PLP>
-31.2551

> <Gold.PLP.part.hbond>
-3.0000

> <Gold.PLP.part.metal>
0.0000

> <Gold.PLP.part.buried>
-3.6727

> <Gold.PLP.part.nonpolar>
-25.4750

> <Gold.PLP.part.repulsive>
0.4674

> <Gold.PLP.ligand.clash>
0.0000

> <Gold.PLP.ligand.torsion>
0.5601

> <Gold.PLP.Chemscore.Hbond>
3.0000

> <Gold.PLP.Chemscore.CHOScore>
0.0000

> <Gold.PLP.Chemscore.Metal>
0.0000

> <Gold.Chemscore.Hbonds>
donor molecule, donor type, donor heavy atom, donor atom, acceptor molecule, acceptor atom, score
      L1  H     5    25       P1  7948  0.89
      L1  H     8    26       P1  7948  1.00
      P1  H  7989  7998       L1    15  1.00

> <Gold.PLP.Chemscore.Internal.Correction>
0.0074

> <Gold.Rescore>
     Score         DG    S(hbond)    S(metal)    S(lipo)     H(rot)  DE(clash)    DE(int)     intcor
     17.09     -18.83       2.74        0.00      70.20       1.57       0.04       1.70       ----

> <Gold.Chemscore.Fitness>
17.0875

> <Gold.Chemscore.DG>
-18.8308

> <Gold.Chemscore.ZeroCoef>
-5.4800

> <Gold.Chemscore.Hbond>
2.7414

> <Gold.Chemscore.Metal>
0.0000

> <Gold.Chemscore.Lipo>
70.1956

> <Gold.Chemscore.Internal_Hbond>
0.0000

> <Gold.Chemscore.DEClash>
0.0417

> <Gold.Chemscore.DEInternal>
1.7016

> <Gold.Chemscore.Rot>
1.5697

> <Gold.Chemscore.Internal.Correction>
   9.000000E+99

> <Gold.Chemscore.Hbonds>
donor molecule, donor type, donor heavy atom, donor atom, acceptor molecule, acceptor atom, score
      L1  H     5    25       P1  7948  0.17
      L1  H     8    26       P1  7948  0.30
      P1  H  7989  7998       L1    15  0.30

> <Gold.Chemscore.Hbond.Weighted>
-9.1564

> <Gold.Chemscore.Metal.Weighted>
-0.0000

> <Gold.Chemscore.Lipo.Weighted>
-8.2129

> <Gold.Chemscore.Internal_Hbond.Weighted>
0.0000

> <Gold.Chemscore.DEClash.Weighted>
0.0417

> <Gold.Chemscore.DEInternal.Weighted>
1.7016

> <Gold.Chemscore.Rot.Weighted>
4.0185

> <Gold.Chemscore.Internal.Correction.Weighted>
   9.000000E+99

> <Gold.Protein.RotatedTorsions>
[ 6907 6896 6895 6894 ] final   73.25 input  -60.11 | X-H torsion
[ 7974 7965 7964 7962 ] final  -27.40 input  175.53 | X-H torsion
[ 8008 7997 7996 7995 ] final  133.74 input   59.86 | X-H torsion
[ 10167 10162 10161 10158 ] final -105.11 input  -65.29 | X-H torsion
[ 10718 10713 10712 10709 ] final  -70.61 input   66.30 | X-H torsion
[ 10763 10752 10751 10750 ] final   71.31 input  -60.55 | X-H torsion
[ 11005 11000 10999 10996 ] final  -67.47 input  -57.11 | X-H torsion

> <Gold.Protein.ActiveResidues>
 VAL166  LYS551  ARG553  GLY616  TRP617  ASP618  TYR619  PRO620  LYS621  CYS622 
 ASP623  PHE694  ASN695  SER759  ASP760  ASP761  ALA762  ILE779  LEU786  VAL792 
 PHE793  MET794  SER795  GLU796  ALA797  LYS798  CYS799  TRP800  GLU811  SER814 

> <Gold.Protein.RotatedAtoms>
  152.4913  134.4449  159.9555 H   0  0  0  0  0  0  0  0  0  0  0  0  # atno 6907 bound_to 6896
  151.4436  133.3630  159.2793 H   0  0  0  0  0  0  0  0  0  0  0  0  # atno 6908 bound_to 6896
  150.9071  134.8510  159.7460 H   0  0  0  0  0  0  0  0  0  0  0  0  # atno 6909 bound_to 6896
  146.1360  140.5147  142.8672 H   0  0  0  0  0  0  0  0  0  0  0  0  # atno 7974 bound_to 7965
  156.2994  140.2514  156.3302 H   0  0  0  0  0  0  0  0  0  0  0  0  # atno 8008 bound_to 7997
  154.9152  140.0402  157.1987 H   0  0  0  0  0  0  0  0  0  0  0  0  # atno 8009 bound_to 7997
  154.8365  140.2884  155.5691 H   0  0  0  0  0  0  0  0  0  0  0  0  # atno 8010 bound_to 7997
  140.2020  143.3811  152.1121 H   0  0  0  0  0  0  0  0  0  0  0  0  # atno 10167 bound_to 10162
  156.0400  130.4335  150.2321 H   0  0  0  0  0  0  0  0  0  0  0  0  # atno 10718 bound_to 10713
  153.0391  135.5142  154.7573 H   0  0  0  0  0  0  0  0  0  0  0  0  # atno 10763 bound_to 10752
  154.6525  135.2927  154.9971 H   0  0  0  0  0  0  0  0  0  0  0  0  # atno 10764 bound_to 10752
  154.0850  135.6658  153.4896 H   0  0  0  0  0  0  0  0  0  0  0  0  # atno 10765 bound_to 10752
  141.1509  133.6720  156.6298 H   0  0  0  0  0  0  0  0  0  0  0  0  # atno 11005 bound_to 11000
  144.7740  140.5700  143.6650 LP  0  0  0  0  0  0  0  0  0  0  0  0  # atno 17320 bound_to 7965
  145.5154  139.1478  143.3581 LP  0  0  0  0  0  0  0  0  0  0  0  0  # atno 17321 bound_to 7965
  139.5213  144.7045  151.5397 LP  0  0  0  0  0  0  0  0  0  0  0  0  # atno 17342 bound_to 10162
  140.6384  143.8939  150.6668 LP  0  0  0  0  0  0  0  0  0  0  0  0  # atno 17343 bound_to 10162
  157.0416  131.0037  151.3281 LP  0  0  0  0  0  0  0  0  0  0  0  0  # atno 17370 bound_to 10713
  157.5205  130.7995  149.7804 LP  0  0  0  0  0  0  0  0  0  0  0  0  # atno 17371 bound_to 10713
  140.3476  134.7796  157.4443 LP  0  0  0  0  0  0  0  0  0  0  0  0  # atno 17394 bound_to 11000
  140.0887  134.5631  155.8466 LP  0  0  0  0  0  0  0  0  0  0  0  0  # atno 17395 bound_to 11000

$$$$
