AV-unprocessed.smi:1675|AV-procd|sdf|6718|dock4
  -GOLD-   22720 7463D 1   1.00000     0.00000
 Structure written by MMmdl.
 40 42  0  0  0  0  0  0  0  0  1 V2000
  146.5738  136.4020  152.9871 N   0  0  0  0  0  0  0  0  0  0  0  0
  146.1418  137.6424  153.2283 C   0  0  0  0  0  0  0  0  0  0  0  0
  145.2215  137.8785  154.0084 O   0  0  0  0  0  0  0  0  0  0  0  0
  146.8444  138.7829  152.4893 C   0  0  0  0  0  0  0  0  0  0  0  0
  147.5846  139.6262  153.4101 N   0  0  0  0  0  0  0  0  0  0  0  0
  148.6601  139.2804  154.2044 C   0  0  0  0  0  0  0  0  0  0  0  0
  148.9998  140.4162  154.8836 C   0  0  0  0  0  0  0  0  0  0  0  0
  150.0347  140.6221  155.8310 N   0  0  0  0  0  0  0  0  0  0  0  0
  149.9855  141.3722  156.9461 C   0  0  0  0  0  0  0  0  0  0  0  0
  148.9977  142.0140  157.3049 O   0  0  0  0  0  0  0  0  0  0  0  0
  151.2761  141.4032  157.7753 C   0  0  0  0  0  0  0  0  0  0  0  0
  151.2240  142.3430  159.0027 C   0  0  1  0  0  0  0  0  0  0  0  0
  152.5701  142.4830  159.7549 C   0  0  0  0  0  0  0  0  0  0  0  0
  152.8023  144.0047  159.7750 C   0  0  2  0  0  0  0  0  0  0  0  0
  151.7740  144.6718  160.7072 C   0  0  0  0  0  0  0  0  0  0  0  0
  150.4660  144.5640  159.9009 C   0  0  0  0  0  0  0  0  0  0  0  0
  150.9105  143.8110  158.6321 C   0  0  1  0  0  0  0  0  0  0  0  0
  152.2941  144.4099  158.3976 C   0  0  0  0  0  0  0  0  0  0  0  0
  148.0905  141.4143  154.4464 C   0  0  0  0  0  0  0  0  0  0  0  0
  147.2363  140.9294  153.5577 N   0  0  0  0  0  0  0  0  0  0  0  0
  146.1413  135.6203  153.4573 H   0  0  0  0  0  0  0  0  0  0  0  0
  147.3337  136.2496  152.3399 H   0  0  0  0  0  0  0  0  0  0  0  0
  147.5221  138.3943  151.7269 H   0  0  0  0  0  0  0  0  0  0  0  0
  146.1014  139.3939  151.9752 H   0  0  0  0  0  0  0  0  0  0  0  0
  149.0710  138.2815  154.2070 H   0  0  0  0  0  0  0  0  0  0  0  0
  150.9100  140.1583  155.6353 H   0  0  0  0  0  0  0  0  0  0  0  0
  151.5159  140.3875  158.0918 H   0  0  0  0  0  0  0  0  0  0  0  0
  152.0847  141.7176  157.1145 H   0  0  0  0  0  0  0  0  0  0  0  0
  150.4531  141.9766  159.6829 H   0  0  0  0  0  0  0  0  0  0  0  0
  152.5311  142.0550  160.7572 H   0  0  0  0  0  0  0  0  0  0  0  0
  153.3804  141.9885  159.2173 H   0  0  0  0  0  0  0  0  0  0  0  0
  153.8338  144.2872  159.9876 H   0  0  0  0  0  0  0  0  0  0  0  0
  151.7094  144.1715  161.6742 H   0  0  0  0  0  0  0  0  0  0  0  0
  152.0283  145.7172  160.8867 H   0  0  0  0  0  0  0  0  0  0  0  0
  149.6805  144.0398  160.4466 H   0  0  0  0  0  0  0  0  0  0  0  0
  150.0895  145.5563  159.6490 H   0  0  0  0  0  0  0  0  0  0  0  0
  150.2133  143.9197  157.8006 H   0  0  0  0  0  0  0  0  0  0  0  0
  152.2777  145.4903  158.2434 H   0  0  0  0  0  0  0  0  0  0  0  0
  152.8421  143.9419  157.5786 H   0  0  0  0  0  0  0  0  0  0  0  0
  148.0210  142.4516  154.7390 H   0  0  0  0  0  0  0  0  0  0  0  0
  1  2  1  0  0  0  0
  1 21  1  0  0  0  0
  1 22  1  0  0  0  0
  2  3  2  0  0  0  0
  2  4  1  0  0  0  0
  4  5  1  0  0  0  0
  4 23  1  0  0  0  0
  4 24  1  0  0  0  0
  5 20  1  0  0  0  0
  5  6  1  0  0  0  0
  6  7  2  0  0  0  0
  6 25  1  0  0  0  0
  7  8  1  0  0  0  0
  7 19  1  0  0  0  0
  8  9  1  0  0  0  0
  8 26  1  0  0  0  0
  9 10  2  0  0  0  0
  9 11  1  0  0  0  0
 11 12  1  0  0  0  0
 11 27  1  0  0  0  0
 11 28  1  0  0  0  0
 12 17  1  0  0  0  0
 12 13  1  0  0  0  0
 12 29  1  0  0  0  0
 13 14  1  0  0  0  0
 13 30  1  0  0  0  0
 13 31  1  0  0  0  0
 14 18  1  0  0  0  0
 14 15  1  0  0  0  0
 14 32  1  0  0  0  0
 15 16  1  0  0  0  0
 15 33  1  0  0  0  0
 15 34  1  0  0  0  0
 16 17  1  0  0  0  0
 16 35  1  0  0  0  0
 16 36  1  0  0  0  0
 17 18  1  0  0  0  0
 17 37  1  0  0  0  0
 18 38  1  0  0  0  0
 18 39  1  0  0  0  0
 19 20  2  0  0  0  0
 19 40  1  0  0  0  0
M  END
> <s_m_source_file>
AV-unprocessed.smi

> <i_m_source_file_index>
1675

> <i_lp_mmshare_version>
43012

> <i_f3d_flags>
0

> <s_epik_input>
W05IMl1DKD1PKVtDSDJdbjFbY0hdYyhbY0hdbjEpW05IXUMoPU8pW0NIMl1bQ0BIXShbQ0gyXVtDQEBIXTIzKVtDQEBIXShbQ0gyXTMpW0NIMl1bQ0gyXTI=

> <s_epik_cmdline>
J2VwaWtfcHl0aG9uJywgJy1waCcsICc3LjAnLCAnLXRuJywgJzgnLCAnLW1hJywgJzIwMCcsICctbWV0YWxfYmluZGluZycsICctaW1hZScsICc8aW5maWxlLm1hZT4nLCAnLW9tYWUnLCAnPG91dGZpbGUubWFlPic=

> <r_lp_tautomer_probability>
1

> <r_epik_Ionization_Penalty>
2.17494e-05

> <r_epik_Ionization_Penalty_Charging>
0

> <r_epik_Ionization_Penalty_Neutral>
2.17494e-05

> <r_epik_State_Penalty>
-0

> <r_epik_Charging_Adjusted_Penalty>
0

> <i_epik_Tot_Q>
0

> <i_epik_Tot_abs_Q>
0

> <r_epik_Metal_State_Penalty>
-0

> <b_epik_Metal_Only>
0

> <s_lp_Force_Field>
OPLS_2005

> <r_lp_Energy>
53.1529

> <b_lp_Chiralities_Consistent>
1

> <s_lp_Variant>
AV-unprocessed.smi:1675-4

> <Gold.Version>
5.8.1

> <Gold.Id.Protein>
6NUR|6NUR_protein|mol2

> <Gold.PLP.Fitness>
46.5583

> <Gold.PLP.PLP>
-41.2609

> <Gold.PLP.part.hbond>
-1.0000

> <Gold.PLP.part.metal>
0.0000

> <Gold.PLP.part.buried>
-3.7739

> <Gold.PLP.part.nonpolar>
-37.7387

> <Gold.PLP.part.repulsive>
1.1528

> <Gold.PLP.ligand.clash>
0.0000

> <Gold.PLP.ligand.torsion>
0.3724

> <Gold.PLP.Chemscore.Hbond>
1.0000

> <Gold.PLP.Chemscore.CHOScore>
1.0000

> <Gold.PLP.Chemscore.Metal>
0.0000

> <Gold.Chemscore.Hbonds>
donor molecule, donor type, donor heavy atom, donor atom, acceptor molecule, acceptor atom, score
      L1  H     1    22       P1  7948  1.00
      L1  C    19    40       P1  8028  0.90

> <Gold.PLP.Chemscore.Internal.Correction>
0.0423

> <Gold.Rescore>
     Score         DG    S(hbond)    S(metal)    S(lipo)     H(rot)  DE(clash)    DE(int)     intcor
     14.86     -16.62       1.00        0.00     113.76       2.15       0.03       1.74       ----

> <Gold.Chemscore.Fitness>
14.8572

> <Gold.Chemscore.DG>
-16.6194

> <Gold.Chemscore.ZeroCoef>
-5.4800

> <Gold.Chemscore.Hbond>
0.9968

> <Gold.Chemscore.Metal>
0.0000

> <Gold.Chemscore.Lipo>
113.7639

> <Gold.Chemscore.Internal_Hbond>
0.0000

> <Gold.Chemscore.DEClash>
0.0266

> <Gold.Chemscore.DEInternal>
1.7356

> <Gold.Chemscore.Rot>
2.1486

> <Gold.Chemscore.Internal.Correction>
   9.000000E+99

> <Gold.Chemscore.Hbonds>
donor molecule, donor type, donor heavy atom, donor atom, acceptor molecule, acceptor atom, score
      L1  H     1    22       P1  7948  0.98

> <Gold.Chemscore.Hbond.Weighted>
-3.3294

> <Gold.Chemscore.Metal.Weighted>
-0.0000

> <Gold.Chemscore.Lipo.Weighted>
-13.3104

> <Gold.Chemscore.Internal_Hbond.Weighted>
0.0000

> <Gold.Chemscore.DEClash.Weighted>
0.0266

> <Gold.Chemscore.DEInternal.Weighted>
1.7356

> <Gold.Chemscore.Rot.Weighted>
5.5004

> <Gold.Chemscore.Internal.Correction.Weighted>
   9.000000E+99

> <Gold.Protein.RotatedTorsions>
[ 6907 6896 6895 6894 ] final   71.15 input  -60.11 | X-H torsion
[ 7974 7965 7964 7962 ] final -137.21 input  175.53 | X-H torsion
[ 8008 7997 7996 7995 ] final -174.82 input   59.86 | X-H torsion
[ 10167 10162 10161 10158 ] final  120.09 input  -65.29 | X-H torsion
[ 10718 10713 10712 10709 ] final  -47.13 input   66.30 | X-H torsion
[ 10763 10752 10751 10750 ] final  -65.31 input  -60.55 | X-H torsion
[ 11005 11000 10999 10996 ] final  101.32 input  -57.11 | X-H torsion

> <Gold.Protein.ActiveResidues>
 VAL166  LYS551  ARG553  GLY616  TRP617  ASP618  TYR619  PRO620  LYS621  CYS622 
 ASP623  PHE694  ASN695  SER759  ASP760  ASP761  ALA762  ILE779  LEU786  VAL792 
 PHE793  MET794  SER795  GLU796  ALA797  LYS798  CYS799  TRP800  GLU811  SER814 

> <Gold.Protein.RotatedAtoms>
  152.4793  134.4763  159.9651 H   0  0  0  0  0  0  0  0  0  0  0  0  # atno 6907 bound_to 6896
  151.4772  133.3549  159.2840 H   0  0  0  0  0  0  0  0  0  0  0  0  # atno 6908 bound_to 6896
  150.8853  134.8276  159.7315 H   0  0  0  0  0  0  0  0  0  0  0  0  # atno 6909 bound_to 6896
  144.8861  140.6576  143.5175 H   0  0  0  0  0  0  0  0  0  0  0  0  # atno 7974 bound_to 7965
  155.9749  140.1170  157.0779 H   0  0  0  0  0  0  0  0  0  0  0  0  # atno 8008 bound_to 7997
  154.4166  140.1156  156.5424 H   0  0  0  0  0  0  0  0  0  0  0  0  # atno 8009 bound_to 7997
  155.6548  140.3473  155.4763 H   0  0  0  0  0  0  0  0  0  0  0  0  # atno 8010 bound_to 7997
  139.6004  144.7055  151.3076 H   0  0  0  0  0  0  0  0  0  0  0  0  # atno 10167 bound_to 10162
  156.2115  130.4161  149.9109 H   0  0  0  0  0  0  0  0  0  0  0  0  # atno 10718 bound_to 10713
  154.3431  135.6152  153.5606 H   0  0  0  0  0  0  0  0  0  0  0  0  # atno 10763 bound_to 10752
  152.9803  135.5774  154.4830 H   0  0  0  0  0  0  0  0  0  0  0  0  # atno 10764 bound_to 10752
  154.4537  135.2853  155.1739 H   0  0  0  0  0  0  0  0  0  0  0  0  # atno 10765 bound_to 10752
  139.8773  134.9178  156.4889 H   0  0  0  0  0  0  0  0  0  0  0  0  # atno 11005 bound_to 11000
  145.3867  139.1625  143.4251 LP  0  0  0  0  0  0  0  0  0  0  0  0  # atno 17320 bound_to 7965
  146.3025  140.3952  142.8699 LP  0  0  0  0  0  0  0  0  0  0  0  0  # atno 17321 bound_to 7965
  140.7245  143.7043  150.7820 LP  0  0  0  0  0  0  0  0  0  0  0  0  # atno 17342 bound_to 10162
  140.0618  143.5147  152.2624 LP  0  0  0  0  0  0  0  0  0  0  0  0  # atno 17343 bound_to 10162
  156.6785  130.8849  151.3572 LP  0  0  0  0  0  0  0  0  0  0  0  0  # atno 17370 bound_to 10713
  157.7041  130.9365  150.0875 LP  0  0  0  0  0  0  0  0  0  0  0  0  # atno 17371 bound_to 10713
  140.8673  133.8014  155.9327 LP  0  0  0  0  0  0  0  0  0  0  0  0  # atno 17394 bound_to 11000
  140.8988  134.2404  157.5053 LP  0  0  0  0  0  0  0  0  0  0  0  0  # atno 17395 bound_to 11000

$$$$
