AV-unprocessed.smi:1199|AV-procd|sdf|5021|dock7
  -GOLD-   22720 4 43D 1   1.00000     0.00000
 Structure written by MMmdl.
 42 43  0  0  0  0  0  0  0  0  2 V2000
  149.5969  134.9052  156.4190 C   0  0  0  0  0  0  0  0  0  0  0  0
  149.2286  135.2044  154.9599 C   0  0  1  0  0  0  0  0  0  0  0  0
  147.6966  135.2739  154.7606 C   0  0  0  0  0  0  0  0  0  0  0  0
  147.2886  135.0739  153.3462 N   0  3  0  0  0  0  0  0  0  0  0  0
  147.3779  133.6653  152.8940 C   0  0  0  0  0  0  0  0  0  0  0  0
  147.0436  133.5731  151.3965 C   0  0  0  0  0  0  0  0  0  0  0  0
  145.7411  134.0989  151.1706 O   0  0  0  0  0  0  0  0  0  0  0  0
  145.6469  135.4706  151.5357 C   0  0  0  0  0  0  0  0  0  0  0  0
  145.9541  135.6357  153.0342 C   0  0  0  0  0  0  0  0  0  0  0  0
  149.8548  136.4602  154.5478 N   0  0  0  0  0  0  0  0  0  0  0  0
  151.1093  136.8435  154.8349 C   0  0  0  0  0  0  0  0  0  0  0  0
  151.8647  136.2110  155.5719 O   0  0  0  0  0  0  0  0  0  0  0  0
  151.6016  138.1147  154.1400 C   0  0  0  0  0  0  0  0  0  0  0  0
  151.4120  139.2895  155.0026 N   0  0  0  0  0  0  0  0  0  0  0  0
  150.4218  140.1551  154.5626 N   0  0  0  0  0  0  0  0  0  0  0  0
  150.1647  141.2329  155.2232 C   0  0  0  0  0  0  0  0  0  0  0  0
  149.1785  142.0619  154.7483 O   0  0  0  0  0  0  0  0  0  0  0  0
  150.8930  141.5630  156.4282 C   0  0  0  0  0  0  0  0  0  0  0  0
  151.8624  140.7193  156.8445 C   0  0  0  0  0  0  0  0  0  0  0  0
  152.1896  139.4957  156.1103 C   0  0  0  0  0  0  0  0  0  0  0  0
  153.0898  138.7287  156.4493 O   0  0  0  0  0  0  0  0  0  0  0  0
  149.2621  142.8636  155.2415 H   0  0  0  0  0  0  0  0  0  0  0  0
  149.1590  133.9622  156.7475 H   0  0  0  0  0  0  0  0  0  0  0  0
  149.2408  135.6883  157.0894 H   0  0  0  0  0  0  0  0  0  0  0  0
  150.6775  134.8266  156.5429 H   0  0  0  0  0  0  0  0  0  0  0  0
  149.6241  134.3844  154.3588 H   0  0  0  0  0  0  0  0  0  0  0  0
  147.1866  134.5540  155.4024 H   0  0  0  0  0  0  0  0  0  0  0  0
  147.3606  136.2604  155.0843 H   0  0  0  0  0  0  0  0  0  0  0  0
  148.3784  133.2710  153.0682 H   0  0  0  0  0  0  0  0  0  0  0  0
  146.6875  133.0479  153.4705 H   0  0  0  0  0  0  0  0  0  0  0  0
  147.7795  134.1141  150.7987 H   0  0  0  0  0  0  0  0  0  0  0  0
  147.0674  132.5336  151.0690 H   0  0  0  0  0  0  0  0  0  0  0  0
  146.3343  136.0637  150.9322 H   0  0  0  0  0  0  0  0  0  0  0  0
  144.6410  135.8280  151.3152 H   0  0  0  0  0  0  0  0  0  0  0  0
  145.1944  135.1321  153.6339 H   0  0  0  0  0  0  0  0  0  0  0  0
  145.9256  136.6937  153.2969 H   0  0  0  0  0  0  0  0  0  0  0  0
  149.3112  137.0584  153.9419 H   0  0  0  0  0  0  0  0  0  0  0  0
  152.6544  137.9990  153.8747 H   0  0  0  0  0  0  0  0  0  0  0  0
  151.0733  138.2403  153.1931 H   0  0  0  0  0  0  0  0  0  0  0  0
  150.6609  142.4643  156.9764 H   0  0  0  0  0  0  0  0  0  0  0  0
  152.4150  140.9538  157.7425 H   0  0  0  0  0  0  0  0  0  0  0  0
  147.9485  135.5989  152.7898 H   0  0  0  0  0  0  0  0  0  0  0  0
  1  2  1  0  0  0  0
  1 23  1  0  0  0  0
  1 24  1  0  0  0  0
  1 25  1  0  0  0  0
  2  3  1  0  0  0  0
  2 10  1  0  0  0  0
  2 26  1  0  0  0  0
  3  4  1  0  0  0  0
  3 27  1  0  0  0  0
  3 28  1  0  0  0  0
  4  9  1  0  0  0  0
  4  5  1  0  0  0  0
  4 42  1  0  0  0  0
  5  6  1  0  0  0  0
  5 29  1  0  0  0  0
  5 30  1  0  0  0  0
  6  7  1  0  0  0  0
  6 31  1  0  0  0  0
  6 32  1  0  0  0  0
  7  8  1  0  0  0  0
  8  9  1  0  0  0  0
  8 33  1  0  0  0  0
  8 34  1  0  0  0  0
  9 35  1  0  0  0  0
  9 36  1  0  0  0  0
 10 11  1  0  0  0  0
 10 37  1  0  0  0  0
 11 12  2  0  0  0  0
 11 13  1  0  0  0  0
 13 38  1  0  0  0  0
 13 39  1  0  0  0  0
 13 14  1  0  0  0  0
 14 15  1  0  0  0  0
 14 20  1  0  0  0  0
 15 16  2  0  0  0  0
 16 17  1  0  0  0  0
 16 18  1  0  0  0  0
 17 22  1  0  0  0  0
 18 40  1  0  0  0  0
 18 19  2  0  0  0  0
 19 41  1  0  0  0  0
 19 20  1  0  0  0  0
 20 21  2  0  0  0  0
M  CHG  1   4   1
M  END
> <s_m_source_file>
AV-unprocessed.smi

> <i_m_source_file_index>
1199

> <i_lp_mmshare_version>
43012

> <i_f3d_flags>
0

> <s_epik_input>
W0NIMl0xW0NIMl1PW0NIMl1bQ0gyXU4xW0NIMl1bQ0BASF0oW0NIM10pW05IXUMoPU8pW0NIMl1uMltuSF1jKD1PKVtjSF1bY0hdYzI9Tw==

> <s_epik_cmdline>
J2VwaWtfcHl0aG9uJywgJy1waCcsICc3LjAnLCAnLXRuJywgJzgnLCAnLW1hJywgJzIwMCcsICctbWV0YWxfYmluZGluZycsICctaW1hZScsICc8aW5maWxlLm1hZT4nLCAnLW9tYWUnLCAnPG91dGZpbGUubWFlPic=

> <r_lp_tautomer_probability>
0.9996

> <r_epik_Ionization_Penalty>
2.86815

> <r_epik_Ionization_Penalty_Charging>
0.656653

> <r_epik_Ionization_Penalty_Neutral>
2.21149

> <r_epik_State_Penalty>
2.43136

> <r_epik_Charging_Adjusted_Penalty>
3.08801

> <i_epik_Tot_Q>
1

> <i_epik_Tot_abs_Q>
1

> <r_epik_Metal_State_Penalty>
2.43136

> <b_epik_Metal_Only>
0

> <s_lp_Force_Field>
OPLS_2005

> <r_lp_Energy>
31.569

> <b_lp_Chiralities_Consistent>
1

> <s_lp_Variant>
AV-unprocessed.smi:1199-8

> <Gold.Version>
5.8.1

> <Gold.Id.Protein>
6NUR|6NUR_protein|mol2

> <Gold.PLP.Fitness>
51.5509

> <Gold.PLP.PLP>
-37.1124

> <Gold.PLP.part.hbond>
-7.0000

> <Gold.PLP.part.metal>
0.0000

> <Gold.PLP.part.buried>
-3.6200

> <Gold.PLP.part.nonpolar>
-25.5422

> <Gold.PLP.part.repulsive>
0.3570

> <Gold.PLP.ligand.clash>
0.0000

> <Gold.PLP.ligand.torsion>
1.0275

> <Gold.PLP.Chemscore.Hbond>
5.4644

> <Gold.PLP.Chemscore.CHOScore>
0.0000

> <Gold.PLP.Chemscore.Metal>
0.0000

> <Gold.Chemscore.Hbonds>
donor molecule, donor type, donor heavy atom, donor atom, acceptor molecule, acceptor atom, score
      L1  H     4    42       P1  7948  1.82
      L1  H    10    37       P1  7948  0.13
      L1  H    17    22       P1  8028  1.00
      P1  H  7989  7998       L1    15  0.32
      P1  H  7997  8010       L1    21  0.50
      P1  H 10752 10764       L1    12  0.99

> <Gold.PLP.Chemscore.Internal.Correction>
0.1002

> <Gold.Rescore>
     Score         DG    S(hbond)    S(metal)    S(lipo)     H(rot)  DE(clash)    DE(int)     intcor
     14.64     -17.20       4.05        0.00      51.02       3.03       0.14       2.42       ----

> <Gold.Chemscore.Fitness>
14.6381

> <Gold.Chemscore.DG>
-17.1993

> <Gold.Chemscore.ZeroCoef>
-5.4800

> <Gold.Chemscore.Hbond>
4.0467

> <Gold.Chemscore.Metal>
0.0000

> <Gold.Chemscore.Lipo>
51.0216

> <Gold.Chemscore.Internal_Hbond>
0.0000

> <Gold.Chemscore.DEClash>
0.1444

> <Gold.Chemscore.DEInternal>
2.4168

> <Gold.Chemscore.Rot>
3.0336

> <Gold.Chemscore.Internal.Correction>
   9.000000E+99

> <Gold.Chemscore.Hbonds>
donor molecule, donor type, donor heavy atom, donor atom, acceptor molecule, acceptor atom, score
      L1  H     4    42       P1  7948  0.87
      L1  H    10    37       P1  7948  0.13
      L1  H    17    22       P1  8028  0.97
      P1  H  7997  8010       L1    21  0.02
      P1  H 10752 10764       L1    12  0.69

> <Gold.Chemscore.Hbond.Weighted>
-13.5159

> <Gold.Chemscore.Metal.Weighted>
-0.0000

> <Gold.Chemscore.Lipo.Weighted>
-5.9695

> <Gold.Chemscore.Internal_Hbond.Weighted>
0.0000

> <Gold.Chemscore.DEClash.Weighted>
0.1444

> <Gold.Chemscore.DEInternal.Weighted>
2.4168

> <Gold.Chemscore.Rot.Weighted>
7.7661

> <Gold.Chemscore.Internal.Correction.Weighted>
   9.000000E+99

> <Gold.Protein.RotatedTorsions>
[ 6907 6896 6895 6894 ] final   34.22 input  -60.11 | X-H torsion
[ 7974 7965 7964 7962 ] final   12.86 input  175.53 | X-H torsion
[ 8008 7997 7996 7995 ] final   83.84 input   59.86 | X-H torsion
[ 10167 10162 10161 10158 ] final  -21.78 input  -65.29 | X-H torsion
[ 10718 10713 10712 10709 ] final  -64.16 input   66.30 | X-H torsion
[ 10763 10752 10751 10750 ] final  -51.17 input  -60.55 | X-H torsion
[ 11005 11000 10999 10996 ] final -119.42 input  -57.11 | X-H torsion

> <Gold.Protein.ActiveResidues>
 VAL166  LYS551  ARG553  GLY616  TRP617  ASP618  TYR619  PRO620  LYS621  CYS622 
 ASP623  PHE694  ASN695  SER759  ASP760  ASP761  ALA762  ILE779  LEU786  VAL792 
 PHE793  MET794  SER795  GLU796  ALA797  LYS798  CYS799  TRP800  GLU811  SER814 

> <Gold.Protein.RotatedAtoms>
  152.0994  134.9352  160.0569 H   0  0  0  0  0  0  0  0  0  0  0  0  # atno 6907 bound_to 6896
  152.0572  133.4041  159.4410 H   0  0  0  0  0  0  0  0  0  0  0  0  # atno 6908 bound_to 6896
  150.6839  134.3161  159.4810 H   0  0  0  0  0  0  0  0  0  0  0  0  # atno 6909 bound_to 6896
  146.2342  139.9274  142.8501 H   0  0  0  0  0  0  0  0  0  0  0  0  # atno 7974 bound_to 7965
  155.9293  140.3416  155.6236 H   0  0  0  0  0  0  0  0  0  0  0  0  # atno 8008 bound_to 7997
  155.7177  140.0779  157.2362 H   0  0  0  0  0  0  0  0  0  0  0  0  # atno 8009 bound_to 7997
  154.4082  140.1611  156.2355 H   0  0  0  0  0  0  0  0  0  0  0  0  # atno 8010 bound_to 7997
  140.7283  143.4596  151.0399 H   0  0  0  0  0  0  0  0  0  0  0  0  # atno 10167 bound_to 10162
  156.0746  130.4230  150.1380 H   0  0  0  0  0  0  0  0  0  0  0  0  # atno 10718 bound_to 10713
  154.1222  135.6533  153.4905 H   0  0  0  0  0  0  0  0  0  0  0  0  # atno 10763 bound_to 10752
  153.0222  135.5273  154.7086 H   0  0  0  0  0  0  0  0  0  0  0  0  # atno 10764 bound_to 10752
  154.6296  135.2974  155.0202 H   0  0  0  0  0  0  0  0  0  0  0  0  # atno 10765 bound_to 10752
  141.0216  134.0115  157.3274 H   0  0  0  0  0  0  0  0  0  0  0  0  # atno 11005 bound_to 11000
  145.2078  140.9882  143.4118 LP  0  0  0  0  0  0  0  0  0  0  0  0  # atno 17320 bound_to 7965
  144.9718  139.3873  143.6305 LP  0  0  0  0  0  0  0  0  0  0  0  0  # atno 17321 bound_to 7965
  139.8279  143.7731  152.3179 LP  0  0  0  0  0  0  0  0  0  0  0  0  # atno 17342 bound_to 10162
  139.7836  144.7435  151.0053 LP  0  0  0  0  0  0  0  0  0  0  0  0  # atno 17343 bound_to 10162
  156.9424  130.9748  151.3514 LP  0  0  0  0  0  0  0  0  0  0  0  0  # atno 17370 bound_to 10713
  157.5835  130.8393  149.8556 LP  0  0  0  0  0  0  0  0  0  0  0  0  # atno 17371 bound_to 10713
  139.9150  135.0195  156.7844 LP  0  0  0  0  0  0  0  0  0  0  0  0  # atno 17394 bound_to 11000
  140.6562  133.9686  155.7781 LP  0  0  0  0  0  0  0  0  0  0  0  0  # atno 17395 bound_to 11000

$$$$
