AV-unprocessed.smi:2329|AV-procd|sdf|9307|dock3
  -GOLD-   2272012523D 1   1.00000     0.00000
 Structure written by MMmdl.
 45 48  0  0  0  0  0  0  0  0  1 V2000
  145.8305  131.8297  149.4352 C   0  0  0  0  0  0  0  0  0  0  0  0
  145.2758  132.8337  150.4238 C   0  0  0  0  0  0  0  0  0  0  0  0
  143.9018  132.8640  150.7332 C   0  0  0  0  0  0  0  0  0  0  0  0
  143.4512  133.8249  151.6556 C   0  0  0  0  0  0  0  0  0  0  0  0
  144.3860  134.7098  152.2267 C   0  0  0  0  0  0  0  0  0  0  0  0
  145.7479  134.6109  151.8636 C   0  0  0  0  0  0  0  0  0  0  0  0
  146.6076  135.5486  152.4937 N   0  0  0  0  0  0  0  0  0  0  0  0
  146.4162  136.2120  153.6515 C   0  0  0  0  0  0  0  0  0  0  0  0
  145.4027  136.1388  154.3440 O   0  0  0  0  0  0  0  0  0  0  0  0
  147.4319  137.0257  153.9887 N   0  0  0  0  0  0  0  0  0  0  0  0
  147.5402  137.8825  155.1760 C   0  0  1  0  0  0  0  0  0  0  0  0
  148.9475  137.8842  155.8216 C   0  0  1  0  0  0  0  0  0  0  0  0
  150.0280  136.8934  155.4589 C   0  0  0  0  0  0  0  0  0  0  0  0
  150.8677  137.6633  154.4357 C   0  0  0  0  0  0  0  0  0  0  0  0
  150.0030  138.6883  153.9514 O   0  0  0  0  0  0  0  0  0  0  0  0
  149.2343  139.1646  155.0529 C   0  0  1  0  0  0  0  0  0  0  0  0
  147.7270  139.3719  154.7999 C   0  0  0  0  0  0  0  0  0  0  0  0
  147.2993  139.8827  153.4228 C   0  0  0  0  0  0  0  0  0  0  0  0
  147.2741  141.4114  153.4977 C   0  0  0  0  0  0  0  0  0  0  0  0
  147.1196  141.7482  154.9839 C   0  0  0  0  0  0  0  0  0  0  0  0
  147.0566  140.4006  155.7086 C   0  0  0  0  0  0  0  0  0  0  0  0
  146.1726  133.6815  150.9719 N   0  0  0  0  0  0  0  0  0  0  0  0
  145.0694  131.1086  149.1354 H   0  0  0  0  0  0  0  0  0  0  0  0
  146.6632  131.2805  149.8755 H   0  0  0  0  0  0  0  0  0  0  0  0
  146.1886  132.3400  148.5408 H   0  0  0  0  0  0  0  0  0  0  0  0
  143.2095  132.1718  150.2766 H   0  0  0  0  0  0  0  0  0  0  0  0
  142.4060  133.8838  151.9208 H   0  0  0  0  0  0  0  0  0  0  0  0
  144.0564  135.4545  152.9366 H   0  0  0  0  0  0  0  0  0  0  0  0
  147.4735  135.7375  152.0111 H   0  0  0  0  0  0  0  0  0  0  0  0
  148.1778  137.1187  153.3141 H   0  0  0  0  0  0  0  0  0  0  0  0
  146.7377  137.7403  155.9020 H   0  0  0  0  0  0  0  0  0  0  0  0
  148.8782  138.0817  156.8925 H   0  0  0  0  0  0  0  0  0  0  0  0
  150.6296  136.6057  156.3214 H   0  0  0  0  0  0  0  0  0  0  0  0
  149.6247  135.9782  155.0285 H   0  0  0  0  0  0  0  0  0  0  0  0
  151.7295  138.1256  154.9191 H   0  0  0  0  0  0  0  0  0  0  0  0
  151.2295  137.0293  153.6262 H   0  0  0  0  0  0  0  0  0  0  0  0
  149.7388  139.9347  155.6385 H   0  0  0  0  0  0  0  0  0  0  0  0
  147.9525  139.5373  152.6210 H   0  0  0  0  0  0  0  0  0  0  0  0
  146.2974  139.5200  153.1881 H   0  0  0  0  0  0  0  0  0  0  0  0
  148.2109  141.8232  153.1199 H   0  0  0  0  0  0  0  0  0  0  0  0
  146.4654  141.8276  152.8958 H   0  0  0  0  0  0  0  0  0  0  0  0
  147.9844  142.3193  155.3243 H   0  0  0  0  0  0  0  0  0  0  0  0
  146.2309  142.3496  155.1787 H   0  0  0  0  0  0  0  0  0  0  0  0
  146.0127  140.1279  155.8701 H   0  0  0  0  0  0  0  0  0  0  0  0
  147.5213  140.4570  156.6937 H   0  0  0  0  0  0  0  0  0  0  0  0
  1  2  1  0  0  0  0
  1 23  1  0  0  0  0
  1 24  1  0  0  0  0
  1 25  1  0  0  0  0
  2 22  1  0  0  0  0
  2  3  2  0  0  0  0
  3  4  1  0  0  0  0
  3 26  1  0  0  0  0
  4  5  2  0  0  0  0
  4 27  1  0  0  0  0
  5  6  1  0  0  0  0
  5 28  1  0  0  0  0
  6  7  1  0  0  0  0
  6 22  2  0  0  0  0
  7  8  1  0  0  0  0
  7 29  1  0  0  0  0
  8  9  2  0  0  0  0
  8 10  1  0  0  0  0
 10 11  1  0  0  0  0
 10 30  1  0  0  0  0
 11 17  1  0  0  0  0
 11 12  1  0  0  0  0
 11 31  1  0  0  0  0
 12 16  1  0  0  0  0
 12 13  1  0  0  0  0
 12 32  1  0  0  0  0
 13 14  1  0  0  0  0
 13 33  1  0  0  0  0
 13 34  1  0  0  0  0
 14 15  1  0  0  0  0
 14 35  1  0  0  0  0
 14 36  1  0  0  0  0
 15 16  1  0  0  0  0
 16 17  1  0  0  0  0
 16 37  1  0  0  0  0
 17 21  1  0  0  0  0
 17 18  1  0  0  0  0
 18 19  1  0  0  0  0
 18 38  1  0  0  0  0
 18 39  1  0  0  0  0
 19 20  1  0  0  0  0
 19 40  1  0  0  0  0
 19 41  1  0  0  0  0
 20 21  1  0  0  0  0
 20 42  1  0  0  0  0
 20 43  1  0  0  0  0
 21 44  1  0  0  0  0
 21 45  1  0  0  0  0
M  END
> <s_m_source_file>
AV-unprocessed.smi

> <i_m_source_file_index>
2329

> <i_lp_mmshare_version>
43012

> <i_f3d_flags>
0

> <s_epik_input>
W0NIM11jMVtjSF1bY0hdW2NIXWMobjEpW05IXUMoPU8pW05IXVtDQEBIXTJbQ0BASF0oW0NIMl1bQ0gyXU8zKVtDQEhdM0MyNFtDSDJdW0NIMl1bQ0gyXVtDSDJdNA==

> <s_epik_cmdline>
J2VwaWtfcHl0aG9uJywgJy1waCcsICc3LjAnLCAnLXRuJywgJzgnLCAnLW1hJywgJzIwMCcsICctbWV0YWxfYmluZGluZycsICctaW1hZScsICc8aW5maWxlLm1hZT4nLCAnLW9tYWUnLCAnPG91dGZpbGUubWFlPic=

> <r_lp_tautomer_probability>
1

> <r_epik_Ionization_Penalty>
8.97002e-05

> <r_epik_Ionization_Penalty_Charging>
0

> <r_epik_Ionization_Penalty_Neutral>
8.97002e-05

> <r_epik_State_Penalty>
-0

> <r_epik_Charging_Adjusted_Penalty>
0

> <i_epik_Tot_Q>
0

> <i_epik_Tot_abs_Q>
0

> <r_epik_Metal_State_Penalty>
-0

> <b_epik_Metal_Only>
0

> <s_lp_Force_Field>
OPLS_2005

> <r_lp_Energy>
67.5757

> <b_lp_Chiralities_Consistent>
1

> <s_lp_Variant>
AV-unprocessed.smi:2329-6

> <Gold.Version>
5.8.1

> <Gold.Id.Protein>
6NUR|6NUR_protein|mol2

> <Gold.PLP.Fitness>
36.2186

> <Gold.PLP.PLP>
-31.0688

> <Gold.PLP.part.hbond>
-1.8536

> <Gold.PLP.part.metal>
0.0000

> <Gold.PLP.part.buried>
-6.1884

> <Gold.PLP.part.nonpolar>
-24.2587

> <Gold.PLP.part.repulsive>
0.8109

> <Gold.PLP.ligand.clash>
0.0256

> <Gold.PLP.ligand.torsion>
0.2440

> <Gold.PLP.Chemscore.Hbond>
1.8233

> <Gold.PLP.Chemscore.CHOScore>
0.0000

> <Gold.PLP.Chemscore.Metal>
0.0000

> <Gold.Chemscore.Hbonds>
donor molecule, donor type, donor heavy atom, donor atom, acceptor molecule, acceptor atom, score
      L1  H     7    29       P1  7948  1.00
      L1  H    10    30       P1  7948  0.85

> <Gold.PLP.Chemscore.Internal.Correction>
0.1937

> <Gold.Rescore>
     Score         DG    S(hbond)    S(metal)    S(lipo)     H(rot)  DE(clash)    DE(int)     intcor
     16.93     -18.69       1.91        0.00      80.19       1.00       0.04       1.71       ----

> <Gold.Chemscore.Fitness>
16.9301

> <Gold.Chemscore.DG>
-18.6860

> <Gold.Chemscore.ZeroCoef>
-5.4800

> <Gold.Chemscore.Hbond>
1.9112

> <Gold.Chemscore.Metal>
0.0000

> <Gold.Chemscore.Lipo>
80.1920

> <Gold.Chemscore.Internal_Hbond>
0.0000

> <Gold.Chemscore.DEClash>
0.0420

> <Gold.Chemscore.DEInternal>
1.7139

> <Gold.Chemscore.Rot>
1.0000

> <Gold.Chemscore.Internal.Correction>
   9.000000E+99

> <Gold.Chemscore.Hbonds>
donor molecule, donor type, donor heavy atom, donor atom, acceptor molecule, acceptor atom, score
      L1  H     7    29       P1  7948  0.94
      L1  H    10    30       P1  7948  0.83

> <Gold.Chemscore.Hbond.Weighted>
-6.3835

> <Gold.Chemscore.Metal.Weighted>
-0.0000

> <Gold.Chemscore.Lipo.Weighted>
-9.3825

> <Gold.Chemscore.Internal_Hbond.Weighted>
0.0000

> <Gold.Chemscore.DEClash.Weighted>
0.0420

> <Gold.Chemscore.DEInternal.Weighted>
1.7139

> <Gold.Chemscore.Rot.Weighted>
2.5600

> <Gold.Chemscore.Internal.Correction.Weighted>
   9.000000E+99

> <Gold.Protein.RotatedTorsions>
[ 6907 6896 6895 6894 ] final  165.50 input  -60.11 | X-H torsion
[ 7974 7965 7964 7962 ] final   43.77 input  175.53 | X-H torsion
[ 8008 7997 7996 7995 ] final  163.03 input   59.86 | X-H torsion
[ 10167 10162 10161 10158 ] final   39.68 input  -65.29 | X-H torsion
[ 10718 10713 10712 10709 ] final  119.58 input   66.30 | X-H torsion
[ 10763 10752 10751 10750 ] final   46.39 input  -60.55 | X-H torsion
[ 11005 11000 10999 10996 ] final  178.04 input  -57.11 | X-H torsion

> <Gold.Protein.ActiveResidues>
 VAL166  LYS551  ARG553  GLY616  TRP617  ASP618  TYR619  PRO620  LYS621  CYS622 
 ASP623  PHE694  ASN695  SER759  ASP760  ASP761  ALA762  ILE779  LEU786  VAL792 
 PHE793  MET794  SER795  GLU796  ALA797  LYS798  CYS799  TRP800  GLU811  SER814 

> <Gold.Protein.RotatedAtoms>
  151.8934  133.3521  159.3805 H   0  0  0  0  0  0  0  0  0  0  0  0  # atno 6907 bound_to 6896
  150.7097  134.4900  159.5520 H   0  0  0  0  0  0  0  0  0  0  0  0  # atno 6908 bound_to 6896
  152.2475  134.8167  160.0502 H   0  0  0  0  0  0  0  0  0  0  0  0  # atno 6909 bound_to 6896
  146.0626  139.5149  142.9648 H   0  0  0  0  0  0  0  0  0  0  0  0  # atno 7974 bound_to 7965
  156.1987  140.1734  156.7944 H   0  0  0  0  0  0  0  0  0  0  0  0  # atno 8008 bound_to 7997
  154.5563  140.0708  156.8780 H   0  0  0  0  0  0  0  0  0  0  0  0  # atno 8009 bound_to 7997
  155.2932  140.3356  155.4254 H   0  0  0  0  0  0  0  0  0  0  0  0  # atno 8010 bound_to 7997
  140.3816  144.1971  150.6130 H   0  0  0  0  0  0  0  0  0  0  0  0  # atno 10167 bound_to 10162
  157.5952  131.1059  150.7916 H   0  0  0  0  0  0  0  0  0  0  0  0  # atno 10718 bound_to 10713
  152.9811  135.6009  154.3592 H   0  0  0  0  0  0  0  0  0  0  0  0  # atno 10763 bound_to 10752
  154.3275  135.2769  155.2490 H   0  0  0  0  0  0  0  0  0  0  0  0  # atno 10764 bound_to 10752
  154.4629  135.5961  153.6324 H   0  0  0  0  0  0  0  0  0  0  0  0  # atno 10765 bound_to 10752
  140.3908  134.6864  157.4506 H   0  0  0  0  0  0  0  0  0  0  0  0  # atno 11005 bound_to 11000
  145.6533  141.0258  143.1749 LP  0  0  0  0  0  0  0  0  0  0  0  0  # atno 17320 bound_to 7965
  144.7184  139.8116  143.7390 LP  0  0  0  0  0  0  0  0  0  0  0  0  # atno 17321 bound_to 7965
  140.4931  143.2341  151.8789 LP  0  0  0  0  0  0  0  0  0  0  0  0  # atno 17342 bound_to 10162
  139.4795  144.5143  151.8889 LP  0  0  0  0  0  0  0  0  0  0  0  0  # atno 17343 bound_to 10162
  156.8328  130.5021  149.5329 LP  0  0  0  0  0  0  0  0  0  0  0  0  # atno 17370 bound_to 10713
  156.1013  130.5971  150.9898 LP  0  0  0  0  0  0  0  0  0  0  0  0  # atno 17371 bound_to 10713
  140.0408  134.6270  155.8983 LP  0  0  0  0  0  0  0  0  0  0  0  0  # atno 17394 bound_to 11000
  141.1891  133.6564  156.5355 LP  0  0  0  0  0  0  0  0  0  0  0  0  # atno 17395 bound_to 11000

$$$$
