AV-unprocessed.smi:1803|AV-procd|sdf|7292|dock4
  -GOLD-   22720 8543D 1   1.00000     0.00000
 Structure written by MMmdl.
 35 37  0  0  0  0  0  0  0  0  3 V2000
  150.3938  140.3510  154.3709 O   0  0  0  0  0  0  0  0  0  0  0  0
  150.7581  139.7793  155.3976 C   0  0  0  0  0  0  0  0  0  0  0  0
  151.4209  138.5936  155.3989 N   0  5  0  0  0  0  0  0  0  0  0  0
  150.7852  137.4072  155.4220 C   0  0  0  0  0  0  0  0  0  0  0  0
  151.4411  136.2388  155.5122 N   0  0  0  0  0  0  0  0  0  0  0  0
  150.5959  135.1375  155.5113 N   0  0  0  0  0  0  0  0  0  0  0  0
  149.3175  135.5056  155.4315 C   0  0  0  0  0  0  0  0  0  0  0  0
  149.0304  137.2306  155.3425 S   0  0  0  0  0  0  0  0  0  0  0  0
  150.4898  140.3483  156.5876 N   0  0  0  0  0  0  0  0  0  0  0  0
  149.7968  141.6140  156.7928 C   0  0  1  0  0  0  0  0  0  0  0  0
  148.4471  141.4803  157.5240 C   0  0  0  0  0  0  0  0  0  0  0  0
  148.3708  142.6994  158.4642 C   0  0  0  0  0  0  0  0  0  0  0  0
  149.5765  143.4969  158.1673 N   0  3  1  0  0  0  0  0  0  0  0  0
  150.0730  144.3953  159.2324 C   0  0  0  0  0  0  0  0  0  0  0  0
  151.2850  145.1899  158.7042 C   0  0  0  0  0  0  0  0  0  0  0  0
  152.3719  144.2610  158.1244 C   0  0  0  0  0  0  0  0  0  0  0  0
  151.7767  143.2879  157.0882 C   0  0  0  0  0  0  0  0  0  0  0  0
  150.5918  142.5354  157.7143 C   0  0  2  0  0  0  0  0  0  0  0  0
  148.5390  134.7573  155.4248 H   0  0  0  0  0  0  0  0  0  0  0  0
  150.7941  139.8550  157.4142 H   0  0  0  0  0  0  0  0  0  0  0  0
  149.6426  142.1131  155.8339 H   0  0  0  0  0  0  0  0  0  0  0  0
  147.6185  141.4596  156.8154 H   0  0  0  0  0  0  0  0  0  0  0  0
  148.4009  140.5599  158.1083 H   0  0  0  0  0  0  0  0  0  0  0  0
  147.4681  143.2902  158.3078 H   0  0  0  0  0  0  0  0  0  0  0  0
  148.3845  142.3698  159.5044 H   0  0  0  0  0  0  0  0  0  0  0  0
  149.2783  145.0772  159.5364 H   0  0  0  0  0  0  0  0  0  0  0  0
  150.3525  143.8114  160.1107 H   0  0  0  0  0  0  0  0  0  0  0  0
  150.9524  145.8797  157.9272 H   0  0  0  0  0  0  0  0  0  0  0  0
  151.7049  145.8044  159.5010 H   0  0  0  0  0  0  0  0  0  0  0  0
  153.1689  144.8511  157.6712 H   0  0  0  0  0  0  0  0  0  0  0  0
  152.8310  143.6917  158.9338 H   0  0  0  0  0  0  0  0  0  0  0  0
  151.4491  143.8399  156.2063 H   0  0  0  0  0  0  0  0  0  0  0  0
  152.5383  142.5832  156.7528 H   0  0  0  0  0  0  0  0  0  0  0  0
  150.9398  141.9646  158.5789 H   0  0  0  0  0  0  0  0  0  0  0  0
  149.3513  144.0702  157.3670 H   0  0  0  0  0  0  0  0  0  0  0  0
  1  2  2  0  0  0  0
  2  3  1  0  0  0  0
  2  9  1  0  0  0  0
  3  4  1  0  0  0  0
  4  8  1  0  0  0  0
  4  5  2  0  0  0  0
  5  6  1  0  0  0  0
  6  7  2  0  0  0  0
  7  8  1  0  0  0  0
  7 19  1  0  0  0  0
  9 10  1  0  0  0  0
  9 20  1  0  0  0  0
 10 18  1  0  0  0  0
 10 11  1  0  0  0  0
 10 21  1  0  0  0  0
 11 12  1  0  0  0  0
 11 22  1  0  0  0  0
 11 23  1  0  0  0  0
 12 13  1  0  0  0  0
 12 24  1  0  0  0  0
 12 25  1  0  0  0  0
 13 18  1  0  0  0  0
 13 14  1  0  0  0  0
 13 35  1  0  0  0  0
 14 15  1  0  0  0  0
 14 26  1  0  0  0  0
 14 27  1  0  0  0  0
 15 16  1  0  0  0  0
 15 28  1  0  0  0  0
 15 29  1  0  0  0  0
 16 17  1  0  0  0  0
 16 30  1  0  0  0  0
 16 31  1  0  0  0  0
 17 18  1  0  0  0  0
 17 32  1  0  0  0  0
 17 33  1  0  0  0  0
 18 34  1  0  0  0  0
M  CHG  1   3  -1
M  CHG  1  13   1
M  END
> <s_m_source_file>
AV-unprocessed.smi

> <i_m_source_file_index>
1803

> <i_lp_mmshare_version>
43012

> <i_f3d_flags>
0

> <s_epik_input>
czFbY0hdbm5jMVtOSF1DKD1PKVtOSF1bQ0BIXShbQ0gyXVtDSDJdMilbQ0BASF0oTjIzKVtDSDJdW0NIMl1bQ0gyXVtDSDJdMw==

> <s_epik_cmdline>
J2VwaWtfcHl0aG9uJywgJy1waCcsICc3LjAnLCAnLXRuJywgJzgnLCAnLW1hJywgJzIwMCcsICctbWV0YWxfYmluZGluZycsICctaW1hZScsICc8aW5maWxlLm1hZT4nLCAnLW9tYWUnLCAnPG91dGZpbGUubWFlPic=

> <r_lp_tautomer_probability>
1

> <r_epik_Ionization_Penalty>
3.78828

> <r_epik_Ionization_Penalty_Charging>
3.7591

> <r_epik_Ionization_Penalty_Neutral>
0.0291838

> <r_epik_State_Penalty>
3.757

> <r_epik_Charging_Adjusted_Penalty>
7.51609

> <i_epik_Tot_Q>
0

> <i_epik_Tot_abs_Q>
2

> <r_epik_Metal_State_Penalty>
0.558016

> <b_epik_Metal_Only>
1

> <s_lp_Force_Field>
OPLS_2005

> <r_lp_Energy>
28.5802

> <b_lp_Chiralities_Consistent>
1

> <s_lp_Variant>
AV-unprocessed.smi:1803-14

> <Gold.Version>
5.8.1

> <Gold.Id.Protein>
6NUR|6NUR_protein|mol2

> <Gold.PLP.Fitness>
38.3327

> <Gold.PLP.PLP>
-28.2125

> <Gold.PLP.part.hbond>
-3.4823

> <Gold.PLP.part.metal>
0.0000

> <Gold.PLP.part.buried>
-6.1136

> <Gold.PLP.part.nonpolar>
-19.8784

> <Gold.PLP.part.repulsive>
0.4680

> <Gold.PLP.ligand.clash>
0.0000

> <Gold.PLP.ligand.torsion>
0.8004

> <Gold.PLP.Chemscore.Hbond>
3.9000

> <Gold.PLP.Chemscore.CHOScore>
0.0000

> <Gold.PLP.Chemscore.Metal>
0.0000

> <Gold.Chemscore.Hbonds>
donor molecule, donor type, donor heavy atom, donor atom, acceptor molecule, acceptor atom, score
      L1  H    13    35       P1  8028  1.80
      P1  H  7989  7998       L1     1  1.00
      P1  H 10752 10764       L1     5  1.00

> <Gold.PLP.Chemscore.Internal.Correction>
0.0210

> <Gold.Rescore>
     Score         DG    S(hbond)    S(metal)    S(lipo)     H(rot)  DE(clash)    DE(int)     intcor
     17.30     -20.53       2.78        0.00      71.12       1.00       2.41       0.82       ----

> <Gold.Chemscore.Fitness>
17.3014

> <Gold.Chemscore.DG>
-20.5276

> <Gold.Chemscore.ZeroCoef>
-5.4800

> <Gold.Chemscore.Hbond>
2.7804

> <Gold.Chemscore.Metal>
0.0000

> <Gold.Chemscore.Lipo>
71.1195

> <Gold.Chemscore.Internal_Hbond>
0.0000

> <Gold.Chemscore.DEClash>
2.4083

> <Gold.Chemscore.DEInternal>
0.8179

> <Gold.Chemscore.Rot>
1.0000

> <Gold.Chemscore.Internal.Correction>
   9.000000E+99

> <Gold.Chemscore.Hbonds>
donor molecule, donor type, donor heavy atom, donor atom, acceptor molecule, acceptor atom, score
      L1  H    13    35       P1  8028  0.18
      P1  H  7989  7998       L1     1  0.81
      P1  H 10752 10764       L1     5  0.34

> <Gold.Chemscore.Hbond.Weighted>
-9.2867

> <Gold.Chemscore.Metal.Weighted>
-0.0000

> <Gold.Chemscore.Lipo.Weighted>
-8.3210

> <Gold.Chemscore.Internal_Hbond.Weighted>
0.0000

> <Gold.Chemscore.DEClash.Weighted>
2.4083

> <Gold.Chemscore.DEInternal.Weighted>
0.8179

> <Gold.Chemscore.Rot.Weighted>
2.5600

> <Gold.Chemscore.Internal.Correction.Weighted>
   9.000000E+99

> <Gold.Protein.RotatedTorsions>
[ 6907 6896 6895 6894 ] final -162.73 input  -60.11 | X-H torsion
[ 7974 7965 7964 7962 ] final -107.43 input  175.53 | X-H torsion
[ 8008 7997 7996 7995 ] final  -30.78 input   59.86 | X-H torsion
[ 10167 10162 10161 10158 ] final   -2.98 input  -65.29 | X-H torsion
[ 10718 10713 10712 10709 ] final -102.55 input   66.30 | X-H torsion
[ 10763 10752 10751 10750 ] final  -34.24 input  -60.55 | X-H torsion
[ 11005 11000 10999 10996 ] final -121.85 input  -57.11 | X-H torsion

> <Gold.Protein.ActiveResidues>
 VAL166  LYS551  ARG553  GLY616  TRP617  ASP618  TYR619  PRO620  LYS621  CYS622 
 ASP623  PHE694  ASN695  SER759  ASP760  ASP761  ALA762  ILE779  LEU786  VAL792 
 PHE793  MET794  SER795  GLU796  ALA797  LYS798  CYS799  TRP800  GLU811  SER814 

> <Gold.Protein.RotatedAtoms>
  151.3849  133.3808  159.2713 H   0  0  0  0  0  0  0  0  0  0  0  0  # atno 6907 bound_to 6896
  150.9549  134.8946  159.7705 H   0  0  0  0  0  0  0  0  0  0  0  0  # atno 6908 bound_to 6896
  152.5127  134.3806  159.9402 H   0  0  0  0  0  0  0  0  0  0  0  0  # atno 6909 bound_to 6896
  145.2054  140.9074  143.3345 H   0  0  0  0  0  0  0  0  0  0  0  0  # atno 7974 bound_to 7965
  154.4238  140.1782  156.1461 H   0  0  0  0  0  0  0  0  0  0  0  0  # atno 8008 bound_to 7997
  155.9952  140.3365  155.6767 H   0  0  0  0  0  0  0  0  0  0  0  0  # atno 8009 bound_to 7997
  155.6318  140.0670  157.2637 H   0  0  0  0  0  0  0  0  0  0  0  0  # atno 8010 bound_to 7997
  140.6872  143.6594  150.8280 H   0  0  0  0  0  0  0  0  0  0  0  0  # atno 10167 bound_to 10162
  156.0233  130.5425  150.7125 H   0  0  0  0  0  0  0  0  0  0  0  0  # atno 10718 bound_to 10713
  153.8435  135.6855  153.4800 H   0  0  0  0  0  0  0  0  0  0  0  0  # atno 10763 bound_to 10752
  153.1440  135.4646  154.9536 H   0  0  0  0  0  0  0  0  0  0  0  0  # atno 10764 bound_to 10752
  154.7834  135.3276  154.7886 H   0  0  0  0  0  0  0  0  0  0  0  0  # atno 10765 bound_to 10752
  141.0039  134.0363  157.3502 H   0  0  0  0  0  0  0  0  0  0  0  0  # atno 11005 bound_to 11000
  144.9907  139.3692  143.6216 LP  0  0  0  0  0  0  0  0  0  0  0  0  # atno 17320 bound_to 7965
  146.3409  139.9088  142.8783 LP  0  0  0  0  0  0  0  0  0  0  0  0  # atno 17321 bound_to 7965
  140.0302  143.5451  152.2763 LP  0  0  0  0  0  0  0  0  0  0  0  0  # atno 17342 bound_to 10162
  139.6241  144.7634  151.2676 LP  0  0  0  0  0  0  0  0  0  0  0  0  # atno 17343 bound_to 10162
  157.4760  131.0898  151.0590 LP  0  0  0  0  0  0  0  0  0  0  0  0  # atno 17370 bound_to 10713
  157.1037  130.5992  149.5466 LP  0  0  0  0  0  0  0  0  0  0  0  0  # atno 17371 bound_to 10713
  139.9053  135.0177  156.7457 LP  0  0  0  0  0  0  0  0  0  0  0  0  # atno 17394 bound_to 11000
  140.6844  133.9445  155.7929 LP  0  0  0  0  0  0  0  0  0  0  0  0  # atno 17395 bound_to 11000

$$$$
