AV-unprocessed.smi:1377|AV-procd|sdf|5595|dock8
  -GOLD-   22720 5203D 1   1.00000     0.00000
 Structure written by MMmdl.
 28 29  0  0  0  0  0  0  0  0  2 V2000
  150.2918  135.8367  154.2014 N   0  0  0  0  0  0  0  0  0  0  0  0
  151.2160  136.6607  154.7015 C   0  0  0  0  0  0  0  0  0  0  0  0
  151.8217  136.4011  155.7405 O   0  0  0  0  0  0  0  0  0  0  0  0
  151.4775  137.9502  153.9113 C   0  0  0  0  0  0  0  0  0  0  0  0
  150.9863  139.1746  154.6328 C   0  0  0  0  0  0  0  0  0  0  0  0
  149.9199  139.9656  154.2887 C   0  0  0  0  0  0  0  0  0  0  0  0
  149.7040  141.2794  155.4091 S   0  0  0  0  0  0  0  0  0  0  0  0
  151.0799  140.6922  156.3453 C   0  0  0  0  0  0  0  0  0  0  0  0
  151.5486  141.2639  157.4655 N   0  5  0  0  0  0  0  0  0  0  0  0
  152.4298  140.5899  158.2423 C   0  0  0  0  0  0  0  0  0  0  0  0
  153.2334  139.7150  157.9137 O   0  0  0  0  0  0  0  0  0  0  0  0
  152.3511  141.0580  159.7040 C   0  0  0  0  0  0  0  0  0  0  0  0
  152.7144  142.5332  159.9624 C   0  0  0  0  0  0  0  0  0  0  0  0
  153.5097  142.0738  161.1886 C   0  0  0  0  0  0  0  0  0  0  0  0
  153.5695  140.6772  160.5630 C   0  0  0  0  0  0  0  0  0  0  0  0
  151.6284  139.6017  155.7989 N   0  0  0  0  0  0  0  0  0  0  0  0
  150.0772  134.9757  154.6829 H   0  0  0  0  0  0  0  0  0  0  0  0
  149.8093  136.0779  153.3482 H   0  0  0  0  0  0  0  0  0  0  0  0
  152.5476  138.0368  153.7193 H   0  0  0  0  0  0  0  0  0  0  0  0
  150.9968  137.8595  152.9364 H   0  0  0  0  0  0  0  0  0  0  0  0
  149.2560  139.8604  153.4441 H   0  0  0  0  0  0  0  0  0  0  0  0
  151.4090  140.7834  160.1827 H   0  0  0  0  0  0  0  0  0  0  0  0
  153.3541  142.9838  159.2017 H   0  0  0  0  0  0  0  0  0  0  0  0
  151.8634  143.1724  160.1979 H   0  0  0  0  0  0  0  0  0  0  0  0
  154.4780  142.5591  161.3127 H   0  0  0  0  0  0  0  0  0  0  0  0
  152.9210  142.0998  162.1068 H   0  0  0  0  0  0  0  0  0  0  0  0
  153.3885  139.8642  161.2664 H   0  0  0  0  0  0  0  0  0  0  0  0
  154.4795  140.5101  159.9835 H   0  0  0  0  0  0  0  0  0  0  0  0
  1  2  1  0  0  0  0
  1 17  1  0  0  0  0
  1 18  1  0  0  0  0
  2  3  2  0  0  0  0
  2  4  1  0  0  0  0
  4  5  1  0  0  0  0
  4 19  1  0  0  0  0
  4 20  1  0  0  0  0
  5 16  1  0  0  0  0
  5  6  2  0  0  0  0
  6  7  1  0  0  0  0
  6 21  1  0  0  0  0
  7  8  1  0  0  0  0
  8  9  1  0  0  0  0
  8 16  2  0  0  0  0
  9 10  1  0  0  0  0
 10 11  2  0  0  0  0
 10 12  1  0  0  0  0
 12 15  1  0  0  0  0
 12 13  1  0  0  0  0
 12 22  1  0  0  0  0
 13 14  1  0  0  0  0
 13 23  1  0  0  0  0
 13 24  1  0  0  0  0
 14 15  1  0  0  0  0
 14 25  1  0  0  0  0
 14 26  1  0  0  0  0
 15 27  1  0  0  0  0
 15 28  1  0  0  0  0
M  CHG  1   9  -1
M  END
> <s_m_source_file>
AV-unprocessed.smi

> <i_m_source_file_index>
1377

> <i_lp_mmshare_version>
43012

> <i_f3d_flags>
0

> <s_epik_input>
W05IMl1DKD1PKVtDSDJdYzFbY0hdc2MobjEpW05IXUMoPU8pW0NIXTJbQ0gyXVtDSDJdW0NIMl0y

> <s_epik_cmdline>
J2VwaWtfcHl0aG9uJywgJy1waCcsICc3LjAnLCAnLXRuJywgJzgnLCAnLW1hJywgJzIwMCcsICctbWV0YWxfYmluZGluZycsICctaW1hZScsICc8aW5maWxlLm1hZT4nLCAnLW9tYWUnLCAnPG91dGZpbGUubWFlPic=

> <r_lp_tautomer_probability>
1

> <r_epik_Ionization_Penalty>
5.13356

> <r_epik_Ionization_Penalty_Charging>
4.74096

> <r_epik_Ionization_Penalty_Neutral>
0.392596

> <r_epik_State_Penalty>
4.74076

> <r_epik_Charging_Adjusted_Penalty>
9.48173

> <i_epik_Tot_Q>
-1

> <i_epik_Tot_abs_Q>
1

> <r_epik_Metal_State_Penalty>
0.951691

> <b_epik_Metal_Only>
1

> <s_lp_Force_Field>
OPLS_2005

> <r_lp_Energy>
7.89776

> <b_lp_Chiralities_Consistent>
1

> <s_lp_Variant>
AV-unprocessed.smi:1377-2

> <Gold.Version>
5.8.1

> <Gold.Id.Protein>
6NUR|6NUR_protein|mol2

> <Gold.PLP.Fitness>
44.4897

> <Gold.PLP.PLP>
-33.3617

> <Gold.PLP.part.hbond>
-3.6604

> <Gold.PLP.part.metal>
0.0000

> <Gold.PLP.part.buried>
-0.7756

> <Gold.PLP.part.nonpolar>
-28.1819

> <Gold.PLP.part.repulsive>
0.1015

> <Gold.PLP.ligand.clash>
0.0000

> <Gold.PLP.ligand.torsion>
0.6048

> <Gold.PLP.Chemscore.Hbond>
3.0000

> <Gold.PLP.Chemscore.CHOScore>
0.9792

> <Gold.PLP.Chemscore.Metal>
0.0000

> <Gold.Chemscore.Hbonds>
donor molecule, donor type, donor heavy atom, donor atom, acceptor molecule, acceptor atom, score
      L1  H     1    18       P1  7948  0.70
      P1  H  7997  8008       L1    11  1.00
      P1  H 10752 10764       L1     3  0.99
      L1  C     6    21       P1  7957  1.00

> <Gold.PLP.Chemscore.Internal.Correction>
0.4000

> <Gold.Rescore>
     Score         DG    S(hbond)    S(metal)    S(lipo)     H(rot)  DE(clash)    DE(int)     intcor
     14.92     -17.32       2.62        0.00      67.84       1.89       0.01       2.38       ----

> <Gold.Chemscore.Fitness>
14.9249

> <Gold.Chemscore.DG>
-17.3214

> <Gold.Chemscore.ZeroCoef>
-5.4800

> <Gold.Chemscore.Hbond>
2.6204

> <Gold.Chemscore.Metal>
0.0000

> <Gold.Chemscore.Lipo>
67.8358

> <Gold.Chemscore.Internal_Hbond>
0.0000

> <Gold.Chemscore.DEClash>
0.0141

> <Gold.Chemscore.DEInternal>
2.3825

> <Gold.Chemscore.Rot>
1.8935

> <Gold.Chemscore.Internal.Correction>
   9.000000E+99

> <Gold.Chemscore.Hbonds>
donor molecule, donor type, donor heavy atom, donor atom, acceptor molecule, acceptor atom, score
      L1  H     1    18       P1  7948  0.07
      P1  H  7997  8008       L1    11  0.93
      P1  H 10752 10764       L1     3  0.32

> <Gold.Chemscore.Hbond.Weighted>
-8.7521

> <Gold.Chemscore.Metal.Weighted>
-0.0000

> <Gold.Chemscore.Lipo.Weighted>
-7.9368

> <Gold.Chemscore.Internal_Hbond.Weighted>
0.0000

> <Gold.Chemscore.DEClash.Weighted>
0.0141

> <Gold.Chemscore.DEInternal.Weighted>
2.3825

> <Gold.Chemscore.Rot.Weighted>
4.8475

> <Gold.Chemscore.Internal.Correction.Weighted>
   9.000000E+99

> <Gold.Protein.RotatedTorsions>
[ 6907 6896 6895 6894 ] final   25.99 input  -60.11 | X-H torsion
[ 7974 7965 7964 7962 ] final   90.87 input  175.53 | X-H torsion
[ 8008 7997 7996 7995 ] final  -64.91 input   59.86 | X-H torsion
[ 10167 10162 10161 10158 ] final   62.80 input  -65.29 | X-H torsion
[ 10718 10713 10712 10709 ] final  -95.62 input   66.30 | X-H torsion
[ 10763 10752 10751 10750 ] final  -21.55 input  -60.55 | X-H torsion
[ 11005 11000 10999 10996 ] final   -3.12 input  -57.11 | X-H torsion

> <Gold.Protein.ActiveResidues>
 VAL166  LYS551  ARG553  GLY616  TRP617  ASP618  TYR619  PRO620  LYS621  CYS622 
 ASP623  PHE694  ASN695  SER759  ASP760  ASP761  ALA762  ILE779  LEU786  VAL792 
 PHE793  MET794  SER795  GLU796  ALA797  LYS798  CYS799  TRP800  GLU811  SER814 

> <Gold.Protein.RotatedAtoms>
  151.9808  135.0029  160.0557 H   0  0  0  0  0  0  0  0  0  0  0  0  # atno 6907 bound_to 6896
  152.1698  133.4631  159.4911 H   0  0  0  0  0  0  0  0  0  0  0  0  # atno 6908 bound_to 6896
  150.6900  134.1885  159.4319 H   0  0  0  0  0  0  0  0  0  0  0  0  # atno 6909 bound_to 6896
  145.5133  139.2277  143.2712 H   0  0  0  0  0  0  0  0  0  0  0  0  # atno 7974 bound_to 7965
  154.4640  140.0944  156.6970 H   0  0  0  0  0  0  0  0  0  0  0  0  # atno 8008 bound_to 7997
  155.4912  140.3471  155.4337 H   0  0  0  0  0  0  0  0  0  0  0  0  # atno 8009 bound_to 7997
  156.0922  140.1400  156.9565 H   0  0  0  0  0  0  0  0  0  0  0  0  # atno 8010 bound_to 7997
  140.1400  144.4562  150.6816 H   0  0  0  0  0  0  0  0  0  0  0  0  # atno 10167 bound_to 10162
  156.0047  130.5117  150.6104 H   0  0  0  0  0  0  0  0  0  0  0  0  # atno 10718 bound_to 10713
  153.6380  135.6986  153.5252 H   0  0  0  0  0  0  0  0  0  0  0  0  # atno 10763 bound_to 10752
  153.2806  135.4187  155.1074 H   0  0  0  0  0  0  0  0  0  0  0  0  # atno 10764 bound_to 10752
  154.8506  135.3601  154.5923 H   0  0  0  0  0  0  0  0  0  0  0  0  # atno 10765 bound_to 10752
  140.6659  133.9279  155.8464 H   0  0  0  0  0  0  0  0  0  0  0  0  # atno 11005 bound_to 11000
  146.2153  140.5941  142.9041 LP  0  0  0  0  0  0  0  0  0  0  0  0  # atno 17320 bound_to 7965
  144.7715  140.5649  143.6666 LP  0  0  0  0  0  0  0  0  0  0  0  0  # atno 17321 bound_to 7965
  140.6766  143.2308  151.5491 LP  0  0  0  0  0  0  0  0  0  0  0  0  # atno 17342 bound_to 10162
  139.5477  144.2478  152.1472 LP  0  0  0  0  0  0  0  0  0  0  0  0  # atno 17343 bound_to 10162
  157.3937  131.0799  151.1371 LP  0  0  0  0  0  0  0  0  0  0  0  0  # atno 17370 bound_to 10713
  157.2054  130.6413  149.5754 LP  0  0  0  0  0  0  0  0  0  0  0  0  # atno 17371 bound_to 10713
  141.0430  134.0595  157.3879 LP  0  0  0  0  0  0  0  0  0  0  0  0  # atno 17394 bound_to 11000
  139.8997  135.0160  156.7210 LP  0  0  0  0  0  0  0  0  0  0  0  0  # atno 17395 bound_to 11000

$$$$
