AV-unprocessed.smi:1875|AV-procd|sdf|7617|dock4
  -GOLD-   22720 9343D 1   1.00000     0.00000
 Structure written by MMmdl.
 49 51  0  0  0  0  0  0  0  0  3 V2000
  143.9476  135.6996  154.4354 C   0  0  0  0  0  0  0  0  0  0  0  0
  144.5859  136.1037  153.1225 C   0  0  0  0  0  0  0  0  0  0  0  0
  144.5000  135.2321  152.1128 N   0  0  0  0  0  0  0  0  0  0  0  0
  145.0660  135.5937  150.9408 C   0  0  0  0  0  0  0  0  0  0  0  0
  145.7197  136.8332  150.7849 C   0  0  0  0  0  0  0  0  0  0  0  0
  145.7430  137.6713  151.9193 C   0  0  0  0  0  0  0  0  0  0  0  0
  146.4279  139.0216  151.8911 C   0  0  0  0  0  0  0  0  0  0  0  0
  147.6753  138.9761  152.6760 N   0  3  0  0  0  0  0  0  0  0  0  0
  147.4876  139.1805  154.1264 C   0  0  0  0  0  0  0  0  0  0  0  0
  148.4016  138.2504  154.9414 C   0  0  1  0  0  0  0  0  0  0  0  0
  148.3643  136.9564  154.3704 O   0  0  0  0  0  0  0  0  0  0  0  0
  149.8609  138.7489  154.9781 C   0  0  0  0  0  0  0  0  0  0  0  0
  149.9853  140.1140  155.5086 N   0  0  0  0  0  0  0  0  0  0  0  0
  149.4105  141.2745  155.0888 C   0  0  0  0  0  0  0  0  0  0  0  0
  149.8537  142.2707  155.9046 N   0  3  0  0  0  0  0  0  0  0  0  0
  150.7193  141.7387  156.8625 C   0  0  0  0  0  0  0  0  0  0  0  0
  151.4177  142.3481  157.8981 C   0  0  0  0  0  0  0  0  0  0  0  0
  152.2235  141.5174  158.7092 C   0  0  0  0  0  0  0  0  0  0  0  0
  153.0010  142.1520  159.8498 C   0  0  0  0  0  0  0  0  0  0  0  0
  152.3065  140.1212  158.4690 C   0  0  0  0  0  0  0  0  0  0  0  0
  153.1711  139.2368  159.3511 C   0  0  0  0  0  0  0  0  0  0  0  0
  151.5897  139.5206  157.4092 C   0  0  0  0  0  0  0  0  0  0  0  0
  150.8033  140.3544  156.6180 C   0  0  0  0  0  0  0  0  0  0  0  0
  145.1785  137.3016  153.0906 N   0  0  0  0  0  0  0  0  0  0  0  0
  143.6420  134.6527  154.4250 H   0  0  0  0  0  0  0  0  0  0  0  0
  143.0648  136.3099  154.6282 H   0  0  0  0  0  0  0  0  0  0  0  0
  144.6481  135.8384  155.2594 H   0  0  0  0  0  0  0  0  0  0  0  0
  144.9994  134.8904  150.1239 H   0  0  0  0  0  0  0  0  0  0  0  0
  146.1736  137.1186  149.8473 H   0  0  0  0  0  0  0  0  0  0  0  0
  146.6490  139.3034  150.8609 H   0  0  0  0  0  0  0  0  0  0  0  0
  145.7586  139.7804  152.2994 H   0  0  0  0  0  0  0  0  0  0  0  0
  148.1076  138.0752  152.5282 H   0  0  0  0  0  0  0  0  0  0  0  0
  147.6744  140.2242  154.3836 H   0  0  0  0  0  0  0  0  0  0  0  0
  146.4437  138.9745  154.3670 H   0  0  0  0  0  0  0  0  0  0  0  0
  148.0226  138.1804  155.9618 H   0  0  0  0  0  0  0  0  0  0  0  0
  148.4419  137.0355  153.4317 H   0  0  0  0  0  0  0  0  0  0  0  0
  150.4701  138.0970  155.6061 H   0  0  0  0  0  0  0  0  0  0  0  0
  150.3076  138.7263  153.9832 H   0  0  0  0  0  0  0  0  0  0  0  0
  148.7313  141.3878  154.2560 H   0  0  0  0  0  0  0  0  0  0  0  0
  151.3480  143.4114  158.0763 H   0  0  0  0  0  0  0  0  0  0  0  0
  152.6708  141.7500  160.8078 H   0  0  0  0  0  0  0  0  0  0  0  0
  152.8616  143.2330  159.8756 H   0  0  0  0  0  0  0  0  0  0  0  0
  154.0684  141.9583  159.7420 H   0  0  0  0  0  0  0  0  0  0  0  0
  153.1156  138.1917  159.0451 H   0  0  0  0  0  0  0  0  0  0  0  0
  152.8456  139.2971  160.3899 H   0  0  0  0  0  0  0  0  0  0  0  0
  154.2156  139.5445  159.2961 H   0  0  0  0  0  0  0  0  0  0  0  0
  151.6527  138.4582  157.2268 H   0  0  0  0  0  0  0  0  0  0  0  0
  148.2977  139.6912  152.3273 H   0  0  0  0  0  0  0  0  0  0  0  0
  149.5842  143.2420  155.8120 H   0  0  0  0  0  0  0  0  0  0  0  0
  1  2  1  0  0  0  0
  1 25  1  0  0  0  0
  1 26  1  0  0  0  0
  1 27  1  0  0  0  0
  2 24  1  0  0  0  0
  2  3  2  0  0  0  0
  3  4  1  0  0  0  0
  4  5  2  0  0  0  0
  4 28  1  0  0  0  0
  5  6  1  0  0  0  0
  5 29  1  0  0  0  0
  6  7  1  0  0  0  0
  6 24  2  0  0  0  0
  7  8  1  0  0  0  0
  7 30  1  0  0  0  0
  7 31  1  0  0  0  0
  8  9  1  0  0  0  0
  8 32  1  0  0  0  0
  8 48  1  0  0  0  0
  9 10  1  0  0  0  0
  9 33  1  0  0  0  0
  9 34  1  0  0  0  0
 10 11  1  0  0  0  0
 10 12  1  0  0  0  0
 10 35  1  0  0  0  0
 11 36  1  0  0  0  0
 12 13  1  0  0  0  0
 12 37  1  0  0  0  0
 12 38  1  0  0  0  0
 13 23  1  0  0  0  0
 13 14  1  0  0  0  0
 14 15  2  0  0  0  0
 14 39  1  0  0  0  0
 15 16  1  0  0  0  0
 15 49  1  0  0  0  0
 16 23  2  0  0  0  0
 16 17  1  0  0  0  0
 17 18  2  0  0  0  0
 17 40  1  0  0  0  0
 18 19  1  0  0  0  0
 18 20  1  0  0  0  0
 19 41  1  0  0  0  0
 19 42  1  0  0  0  0
 19 43  1  0  0  0  0
 20 21  1  0  0  0  0
 20 22  2  0  0  0  0
 21 44  1  0  0  0  0
 21 45  1  0  0  0  0
 21 46  1  0  0  0  0
 22 23  1  0  0  0  0
 22 47  1  0  0  0  0
M  CHG  1   8   1
M  CHG  1  15   1
M  END
> <s_m_source_file>
AV-unprocessed.smi

> <i_m_source_file_index>
1875

> <i_lp_mmshare_version>
43012

> <i_f3d_flags>
0

> <s_epik_input>
W0NIM11jMW5bY0hdW2NIXWMobjEpW0NIMl1bTkhdW0NIMl1bQ0BIXShbT0hdKVtDSDJdbihbY0hdbjIpYyhjMjMpW2NIXWMoW0NIM10pYyhbY0hdMylbQ0gzXQ==

> <s_epik_cmdline>
J2VwaWtfcHl0aG9uJywgJy1waCcsICc3LjAnLCAnLXRuJywgJzgnLCAnLW1hJywgJzIwMCcsICctbWV0YWxfYmluZGluZycsICctaW1hZScsICc8aW5maWxlLm1hZT4nLCAnLW9tYWUnLCAnPG91dGZpbGUubWFlPic=

> <r_lp_tautomer_probability>
1

> <r_epik_Ionization_Penalty>
1.27527

> <r_epik_Ionization_Penalty_Charging>
1.27526

> <r_epik_Ionization_Penalty_Neutral>
8.72389e-06

> <r_epik_State_Penalty>
1.28654

> <r_epik_Charging_Adjusted_Penalty>
2.5618

> <i_epik_Tot_Q>
2

> <i_epik_Tot_abs_Q>
2

> <r_epik_Metal_State_Penalty>
1.36882

> <b_epik_Metal_Only>
0

> <s_epik_Chemistry_Notes>
This compound contains an electron-poor aromatic ring that is susceptible to covalent hydrolysis at low pH, typically resulting in measured values for nitrogen ring protonation that are around two units higher than predicted values.

> <s_lp_Force_Field>
OPLS_2005

> <r_lp_Energy>
13.7453

> <b_lp_Chiralities_Consistent>
1

> <s_lp_Variant>
AV-unprocessed.smi:1875-6

> <Gold.Version>
5.8.1

> <Gold.Id.Protein>
6NUR|6NUR_protein|mol2

> <Gold.PLP.Fitness>
61.8485

> <Gold.PLP.PLP>
-42.5351

> <Gold.PLP.part.hbond>
-3.4773

> <Gold.PLP.part.metal>
0.0000

> <Gold.PLP.part.buried>
0.4684

> <Gold.PLP.part.nonpolar>
-41.5819

> <Gold.PLP.part.repulsive>
0.6187

> <Gold.PLP.ligand.clash>
0.0000

> <Gold.PLP.ligand.torsion>
0.6759

> <Gold.PLP.Chemscore.Hbond>
5.8938

> <Gold.PLP.Chemscore.CHOScore>
0.9748

> <Gold.PLP.Chemscore.Metal>
0.0000

> <Gold.Chemscore.Hbonds>
donor molecule, donor type, donor heavy atom, donor atom, acceptor molecule, acceptor atom, score
      L1  H     8    32       P1  7948  1.59
      L1  H     8    48       P1  7957  0.88
      L1  H    11    36       P1  7948  0.93
      L1  H    15    49       P1  8028  2.00
      L1  C     4    28       P1  7921  0.49

> <Gold.PLP.Chemscore.Internal.Correction>
0.0597

> <Gold.Rescore>
     Score         DG    S(hbond)    S(metal)    S(lipo)     H(rot)  DE(clash)    DE(int)     intcor
     22.55     -23.37       3.91        0.00     104.35       2.88       0.06       0.76       ----

> <Gold.Chemscore.Fitness>
22.5471

> <Gold.Chemscore.DG>
-23.3705

> <Gold.Chemscore.ZeroCoef>
-5.4800

> <Gold.Chemscore.Hbond>
3.9112

> <Gold.Chemscore.Metal>
0.0000

> <Gold.Chemscore.Lipo>
104.3547

> <Gold.Chemscore.Internal_Hbond>
0.0000

> <Gold.Chemscore.DEClash>
0.0605

> <Gold.Chemscore.DEInternal>
0.7629

> <Gold.Chemscore.Rot>
2.8838

> <Gold.Chemscore.Internal.Correction>
   9.000000E+99

> <Gold.Chemscore.Hbonds>
donor molecule, donor type, donor heavy atom, donor atom, acceptor molecule, acceptor atom, score
      L1  H     8    32       P1  7948  0.79
      L1  H     8    48       P1  7957  0.87
      L1  H    11    36       P1  7948  0.91
      L1  H    15    49       P1  8028  1.00

> <Gold.Chemscore.Hbond.Weighted>
-13.0634

> <Gold.Chemscore.Metal.Weighted>
-0.0000

> <Gold.Chemscore.Lipo.Weighted>
-12.2095

> <Gold.Chemscore.Internal_Hbond.Weighted>
0.0000

> <Gold.Chemscore.DEClash.Weighted>
0.0605

> <Gold.Chemscore.DEInternal.Weighted>
0.7629

> <Gold.Chemscore.Rot.Weighted>
7.3824

> <Gold.Chemscore.Internal.Correction.Weighted>
   9.000000E+99

> <Gold.Protein.RotatedTorsions>
[ 6907 6896 6895 6894 ] final -122.38 input  -60.11 | X-H torsion
[ 7974 7965 7964 7962 ] final -173.52 input  175.53 | X-H torsion
[ 8008 7997 7996 7995 ] final   -7.74 input   59.86 | X-H torsion
[ 10167 10162 10161 10158 ] final  -48.26 input  -65.29 | X-H torsion
[ 10718 10713 10712 10709 ] final  139.79 input   66.30 | X-H torsion
[ 10763 10752 10751 10750 ] final   78.39 input  -60.55 | X-H torsion
[ 11005 11000 10999 10996 ] final  147.36 input  -57.11 | X-H torsion

> <Gold.Protein.ActiveResidues>
 VAL166  LYS551  ARG553  GLY616  TRP617  ASP618  TYR619  PRO620  LYS621  CYS622 
 ASP623  PHE694  ASN695  SER759  ASP760  ASP761  ALA762  ILE779  LEU786  VAL792 
 PHE793  MET794  SER795  GLU796  ALA797  LYS798  CYS799  TRP800  GLU811  SER814 

> <Gold.Protein.RotatedAtoms>
  150.8570  133.7700  159.3005 H   0  0  0  0  0  0  0  0  0  0  0  0  # atno 6907 bound_to 6896
  151.5354  135.1067  159.9922 H   0  0  0  0  0  0  0  0  0  0  0  0  # atno 6908 bound_to 6896
  152.4597  133.7753  159.6877 H   0  0  0  0  0  0  0  0  0  0  0  0  # atno 6909 bound_to 6896
  144.7137  140.1610  143.6376 H   0  0  0  0  0  0  0  0  0  0  0  0  # atno 7974 bound_to 7965
  154.5809  140.2399  155.8055 H   0  0  0  0  0  0  0  0  0  0  0  0  # atno 8008 bound_to 7997
  156.2178  140.3007  155.9837 H   0  0  0  0  0  0  0  0  0  0  0  0  # atno 8009 bound_to 7997
  155.2543  140.0412  157.2981 H   0  0  0  0  0  0  0  0  0  0  0  0  # atno 8010 bound_to 7997
  140.6739  143.2748  151.4045 H   0  0  0  0  0  0  0  0  0  0  0  0  # atno 10167 bound_to 10162
  157.4104  131.1027  151.0459 H   0  0  0  0  0  0  0  0  0  0  0  0  # atno 10718 bound_to 10713
  153.0871  135.4879  154.8617 H   0  0  0  0  0  0  0  0  0  0  0  0  # atno 10763 bound_to 10752
  154.7223  135.3042  154.9029 H   0  0  0  0  0  0  0  0  0  0  0  0  # atno 10764 bound_to 10752
  153.9689  135.6803  153.4800 H   0  0  0  0  0  0  0  0  0  0  0  0  # atno 10765 bound_to 10752
  140.0870  134.9064  157.1591 H   0  0  0  0  0  0  0  0  0  0  0  0  # atno 11005 bound_to 11000
  145.9030  139.2442  143.1482 LP  0  0  0  0  0  0  0  0  0  0  0  0  # atno 17320 bound_to 7965
  145.9792  140.8697  143.0123 LP  0  0  0  0  0  0  0  0  0  0  0  0  # atno 17321 bound_to 7965
  139.6020  144.1275  152.2209 LP  0  0  0  0  0  0  0  0  0  0  0  0  # atno 17342 bound_to 10162
  140.0662  144.5816  150.7226 LP  0  0  0  0  0  0  0  0  0  0  0  0  # atno 17343 bound_to 10162
  157.1426  130.6149  149.5559 LP  0  0  0  0  0  0  0  0  0  0  0  0  # atno 17370 bound_to 10713
  155.9849  130.4876  150.7006 LP  0  0  0  0  0  0  0  0  0  0  0  0  # atno 17371 bound_to 10713
  140.3406  134.2708  155.7212 LP  0  0  0  0  0  0  0  0  0  0  0  0  # atno 17394 bound_to 11000
  141.2065  133.7830  157.0170 LP  0  0  0  0  0  0  0  0  0  0  0  0  # atno 17395 bound_to 11000

$$$$
