AV-unprocessed.smi:1390|AV-procd|sdf|5656|dock7
  -GOLD-   22720 5283D 1   1.00000     0.00000
 Structure written by MMmdl.
 44 45  0  0  0  0  0  0  0  0  1 V2000
  152.6739  143.1272  161.5841 C   0  0  0  0  0  0  0  0  0  0  0  0
  151.8556  143.4071  160.3194 C   0  0  2  0  0  0  0  0  0  0  0  0
  151.9212  142.2394  159.3161 C   0  0  0  0  0  0  0  0  0  0  0  0
  151.2025  142.5879  158.0975 N   0  0  0  0  0  0  0  0  0  0  0  0
  151.1141  141.5333  157.1792 C   0  0  0  0  0  0  0  0  0  0  0  0
  150.4116  141.6689  155.9594 C   0  0  0  0  0  0  0  0  0  0  0  0
  150.3550  140.5660  155.0861 C   0  0  0  0  0  0  0  0  0  0  0  0
  150.9942  139.3656  155.4564 C   0  0  0  0  0  0  0  0  0  0  0  0
  150.9532  138.1620  154.5274 C   0  0  0  0  0  0  0  0  0  0  0  0
  149.6146  137.6117  154.3526 N   0  0  0  0  0  0  0  0  0  0  0  0
  148.7753  137.2933  155.3491 C   0  0  0  0  0  0  0  0  0  0  0  0
  149.0656  137.4001  156.5403 O   0  0  0  0  0  0  0  0  0  0  0  0
  147.4029  136.7573  154.9424 C   0  0  0  0  0  0  0  0  0  0  0  0
  147.5649  135.5136  154.2775 O   0  0  0  0  0  0  0  0  0  0  0  0
  147.9177  134.4597  155.1591 C   0  0  0  0  0  0  0  0  0  0  0  0
  149.2229  133.8111  154.6820 C   0  0  0  0  0  0  0  0  0  0  0  0
  150.1952  134.7221  154.6914 F   0  0  0  0  0  0  0  0  0  0  0  0
  149.5653  132.8111  155.4936 F   0  0  0  0  0  0  0  0  0  0  0  0
  149.0800  133.3506  153.4392 F   0  0  0  0  0  0  0  0  0  0  0  0
  151.6793  139.3369  156.6923 C   0  0  0  0  0  0  0  0  0  0  0  0
  151.7374  140.3893  157.5354 N   0  0  0  0  0  0  0  0  0  0  0  0
  151.6711  143.8340  157.5056 C   0  0  0  0  0  0  0  0  0  0  0  0
  151.6220  144.9626  158.5491 C   0  0  0  0  0  0  0  0  0  0  0  0
  152.3733  144.5822  159.6988 O   0  0  0  0  0  0  0  0  0  0  0  0
  152.3012  142.2446  162.1046 H   0  0  0  0  0  0  0  0  0  0  0  0
  152.6205  143.9679  162.2762 H   0  0  0  0  0  0  0  0  0  0  0  0
  153.7241  142.9574  161.3454 H   0  0  0  0  0  0  0  0  0  0  0  0
  150.8183  143.5845  160.6092 H   0  0  0  0  0  0  0  0  0  0  0  0
  152.9613  142.0108  159.0790 H   0  0  0  0  0  0  0  0  0  0  0  0
  151.4847  141.3411  159.7549 H   0  0  0  0  0  0  0  0  0  0  0  0
  149.9236  142.5957  155.6954 H   0  0  0  0  0  0  0  0  0  0  0  0
  149.8252  140.6430  154.1480 H   0  0  0  0  0  0  0  0  0  0  0  0
  151.3442  138.4432  153.5487 H   0  0  0  0  0  0  0  0  0  0  0  0
  151.6225  137.4016  154.9334 H   0  0  0  0  0  0  0  0  0  0  0  0
  149.2919  137.4834  153.4042 H   0  0  0  0  0  0  0  0  0  0  0  0
  146.7896  136.6370  155.8364 H   0  0  0  0  0  0  0  0  0  0  0  0
  146.9063  137.4757  154.2879 H   0  0  0  0  0  0  0  0  0  0  0  0
  148.0444  134.8465  156.1716 H   0  0  0  0  0  0  0  0  0  0  0  0
  147.1201  133.7155  155.1900 H   0  0  0  0  0  0  0  0  0  0  0  0
  152.1999  138.4493  157.0205 H   0  0  0  0  0  0  0  0  0  0  0  0
  152.6925  143.7118  157.1431 H   0  0  0  0  0  0  0  0  0  0  0  0
  151.0507  144.0903  156.6458 H   0  0  0  0  0  0  0  0  0  0  0  0
  152.0453  145.8772  158.1338 H   0  0  0  0  0  0  0  0  0  0  0  0
  150.5926  145.1874  158.8324 H   0  0  0  0  0  0  0  0  0  0  0  0
  1  2  1  0  0  0  0
  1 25  1  0  0  0  0
  1 26  1  0  0  0  0
  1 27  1  0  0  0  0
  2 24  1  0  0  0  0
  2  3  1  0  0  0  0
  2 28  1  0  0  0  0
  3  4  1  0  0  0  0
  3 29  1  0  0  0  0
  3 30  1  0  0  0  0
  4  5  1  0  0  0  0
  4 22  1  0  0  0  0
  5 21  1  0  0  0  0
  5  6  2  0  0  0  0
  6  7  1  0  0  0  0
  6 31  1  0  0  0  0
  7  8  2  0  0  0  0
  7 32  1  0  0  0  0
  8  9  1  0  0  0  0
  8 20  1  0  0  0  0
  9 10  1  0  0  0  0
  9 33  1  0  0  0  0
  9 34  1  0  0  0  0
 10 11  1  0  0  0  0
 10 35  1  0  0  0  0
 11 12  2  0  0  0  0
 11 13  1  0  0  0  0
 13 14  1  0  0  0  0
 13 36  1  0  0  0  0
 13 37  1  0  0  0  0
 14 15  1  0  0  0  0
 15 16  1  0  0  0  0
 15 38  1  0  0  0  0
 15 39  1  0  0  0  0
 16 17  1  0  0  0  0
 16 18  1  0  0  0  0
 16 19  1  0  0  0  0
 20 21  2  0  0  0  0
 20 40  1  0  0  0  0
 22 23  1  0  0  0  0
 22 41  1  0  0  0  0
 22 42  1  0  0  0  0
 23 24  1  0  0  0  0
 23 43  1  0  0  0  0
 23 44  1  0  0  0  0
M  END
> <s_m_source_file>
AV-unprocessed.smi

> <i_m_source_file_index>
1390

> <i_lp_mmshare_version>
43012

> <i_f3d_flags>
0

> <s_epik_input>
W0NIM11bQ0BASF0xW0NIMl1OKFtDSDJdW0NIMl1PMSljMltjSF1bY0hdYyhbY0hdbjIpW0NIMl1bTkhdQyg9TylbQ0gyXU9bQ0gyXUMoRikoRilG

> <s_epik_cmdline>
J2VwaWtfcHl0aG9uJywgJy1waCcsICc3LjAnLCAnLXRuJywgJzgnLCAnLW1hJywgJzIwMCcsICctbWV0YWxfYmluZGluZycsICctaW1hZScsICc8aW5maWxlLm1hZT4nLCAnLW9tYWUnLCAnPG91dGZpbGUubWFlPic=

> <r_lp_tautomer_probability>
1

> <r_epik_Ionization_Penalty>
0.00481831

> <r_epik_Ionization_Penalty_Charging>
0

> <r_epik_Ionization_Penalty_Neutral>
0.00481831

> <r_epik_State_Penalty>
0.00349373

> <r_epik_Charging_Adjusted_Penalty>
0.00349373

> <i_epik_Tot_Q>
0

> <i_epik_Tot_abs_Q>
0

> <r_epik_Metal_State_Penalty>
-0

> <b_epik_Metal_Only>
0

> <s_lp_Force_Field>
OPLS_2005

> <r_lp_Energy>
18.3567

> <b_lp_Chiralities_Consistent>
1

> <s_lp_Variant>
AV-unprocessed.smi:1390-1

> <Gold.Version>
5.8.1

> <Gold.Id.Protein>
6NUR|6NUR_protein|mol2

> <Gold.PLP.Fitness>
46.1720

> <Gold.PLP.PLP>
-44.0642

> <Gold.PLP.part.hbond>
-1.0000

> <Gold.PLP.part.metal>
0.0000

> <Gold.PLP.part.buried>
-5.4891

> <Gold.PLP.part.nonpolar>
-38.0730

> <Gold.PLP.part.repulsive>
1.3539

> <Gold.PLP.ligand.clash>
0.0000

> <Gold.PLP.ligand.torsion>
0.5782

> <Gold.PLP.Chemscore.Hbond>
1.0000

> <Gold.PLP.Chemscore.CHOScore>
0.0000

> <Gold.PLP.Chemscore.Metal>
0.0000

> <Gold.Chemscore.Hbonds>
donor molecule, donor type, donor heavy atom, donor atom, acceptor molecule, acceptor atom, score
      L1  H    10    35       P1  7948  0.98

> <Gold.PLP.Chemscore.Internal.Correction>
0.2642

> <Gold.Rescore>
     Score         DG    S(hbond)    S(metal)    S(lipo)     H(rot)  DE(clash)    DE(int)     intcor
     11.99     -13.98       0.97        0.00     101.13       2.57       0.04       1.95       ----

> <Gold.Chemscore.Fitness>
11.9870

> <Gold.Chemscore.DG>
-13.9788

> <Gold.Chemscore.ZeroCoef>
-5.4800

> <Gold.Chemscore.Hbond>
0.9685

> <Gold.Chemscore.Metal>
0.0000

> <Gold.Chemscore.Lipo>
101.1300

> <Gold.Chemscore.Internal_Hbond>
0.0000

> <Gold.Chemscore.DEClash>
0.0415

> <Gold.Chemscore.DEInternal>
1.9503

> <Gold.Chemscore.Rot>
2.5657

> <Gold.Chemscore.Internal.Correction>
   9.000000E+99

> <Gold.Chemscore.Hbonds>
donor molecule, donor type, donor heavy atom, donor atom, acceptor molecule, acceptor atom, score
      L1  H    10    35       P1  7948  0.88

> <Gold.Chemscore.Hbond.Weighted>
-3.2348

> <Gold.Chemscore.Metal.Weighted>
-0.0000

> <Gold.Chemscore.Lipo.Weighted>
-11.8322

> <Gold.Chemscore.Internal_Hbond.Weighted>
0.0000

> <Gold.Chemscore.DEClash.Weighted>
0.0415

> <Gold.Chemscore.DEInternal.Weighted>
1.9503

> <Gold.Chemscore.Rot.Weighted>
6.5682

> <Gold.Chemscore.Internal.Correction.Weighted>
   9.000000E+99

> <Gold.Protein.RotatedTorsions>
[ 6907 6896 6895 6894 ] final  -52.30 input  -60.11 | X-H torsion
[ 7974 7965 7964 7962 ] final   -5.46 input  175.53 | X-H torsion
[ 8008 7997 7996 7995 ] final  155.15 input   59.86 | X-H torsion
[ 10167 10162 10161 10158 ] final  -16.35 input  -65.29 | X-H torsion
[ 10718 10713 10712 10709 ] final  -89.63 input   66.30 | X-H torsion
[ 10763 10752 10751 10750 ] final  -23.86 input  -60.55 | X-H torsion
[ 11005 11000 10999 10996 ] final -150.06 input  -57.11 | X-H torsion

> <Gold.Protein.ActiveResidues>
 VAL166  LYS551  ARG553  GLY616  TRP617  ASP618  TYR619  PRO620  LYS621  CYS622 
 ASP623  PHE694  ASN695  SER759  ASP760  ASP761  ALA762  ILE779  LEU786  VAL792 
 PHE793  MET794  SER795  GLU796  ALA797  LYS798  CYS799  TRP800  GLU811  SER814 

> <Gold.Protein.RotatedAtoms>
  150.8530  134.7861  159.7023 H   0  0  0  0  0  0  0  0  0  0  0  0  # atno 6907 bound_to 6896
  152.4590  134.5224  159.9796 H   0  0  0  0  0  0  0  0  0  0  0  0  # atno 6908 bound_to 6896
  151.5341  133.3406  159.2959 H   0  0  0  0  0  0  0  0  0  0  0  0  # atno 6909 bound_to 6896
  146.2352  140.2024  142.8334 H   0  0  0  0  0  0  0  0  0  0  0  0  # atno 7974 bound_to 7965
  156.2494  140.1947  156.6756 H   0  0  0  0  0  0  0  0  0  0  0  0  # atno 8008 bound_to 7997
  154.6360  140.0589  156.9815 H   0  0  0  0  0  0  0  0  0  0  0  0  # atno 8009 bound_to 7997
  155.1637  140.3262  155.4409 H   0  0  0  0  0  0  0  0  0  0  0  0  # atno 8010 bound_to 7997
  140.7232  143.5125  150.9732 H   0  0  0  0  0  0  0  0  0  0  0  0  # atno 10167 bound_to 10162
  155.9985  130.4879  150.5200 H   0  0  0  0  0  0  0  0  0  0  0  0  # atno 10718 bound_to 10713
  153.6745  135.6970  153.5137 H   0  0  0  0  0  0  0  0  0  0  0  0  # atno 10763 bound_to 10752
  153.2532  135.4268  155.0818 H   0  0  0  0  0  0  0  0  0  0  0  0  # atno 10764 bound_to 10752
  154.8417  135.3536  154.6289 H   0  0  0  0  0  0  0  0  0  0  0  0  # atno 10765 bound_to 10752
  140.7442  134.3480  157.5141 H   0  0  0  0  0  0  0  0  0  0  0  0  # atno 11005 bound_to 11000
  144.9772  140.8425  143.5419 LP  0  0  0  0  0  0  0  0  0  0  0  0  # atno 17320 bound_to 7965
  145.2012  139.2251  143.5192 LP  0  0  0  0  0  0  0  0  0  0  0  0  # atno 17321 bound_to 7965
  139.8839  143.7037  152.3153 LP  0  0  0  0  0  0  0  0  0  0  0  0  # atno 17342 bound_to 10162
  139.7329  144.7578  151.0773 LP  0  0  0  0  0  0  0  0  0  0  0  0  # atno 17343 bound_to 10162
  157.3162  131.0673  151.1965 LP  0  0  0  0  0  0  0  0  0  0  0  0  # atno 17370 bound_to 10713
  157.2894  130.6788  149.6106 LP  0  0  0  0  0  0  0  0  0  0  0  0  # atno 17371 bound_to 10713
  139.8800  134.9100  156.3004 LP  0  0  0  0  0  0  0  0  0  0  0  0  # atno 17394 bound_to 11000
  140.9809  133.7268  156.0671 LP  0  0  0  0  0  0  0  0  0  0  0  0  # atno 17395 bound_to 11000

$$$$
