AV-unprocessed.smi:1961|AV-procd|sdf|7919|dock6
  -GOLD-   2272010 83D 1   1.00000     0.00000
 Structure written by MMmdl.
 36 37  0  0  0  0  0  0  0  0  1 V2000
  151.4497  140.5716  158.6585 C   0  0  0  0  0  0  0  0  0  0  0  0
  151.6210  141.2904  157.3124 C   0  0  0  0  0  0  0  0  0  0  0  0
  151.0195  142.7033  157.3037 C   0  0  0  0  0  0  0  0  0  0  0  0
  151.1351  140.4629  156.1629 C   0  0  0  0  0  0  0  0  0  0  0  0
  151.9566  139.9278  155.2495 N   0  0  0  0  0  0  0  0  0  0  0  0
  151.2732  139.2004  154.2852 N   0  0  0  0  0  0  0  0  0  0  0  0
  149.9507  139.2049  154.5000 C   0  0  0  0  0  0  0  0  0  0  0  0
  149.0135  138.5318  153.6723 N   0  0  0  0  0  0  0  0  0  0  0  0
  147.6820  138.7073  153.6061 C   0  0  0  0  0  0  0  0  0  0  0  0
  147.0322  139.4925  154.2968 O   0  0  0  0  0  0  0  0  0  0  0  0
  147.1339  137.9048  152.6822 N   0  0  0  0  0  0  0  0  0  0  0  0
  145.7136  137.8376  152.3527 C   0  0  0  0  0  0  0  0  0  0  0  0
  145.2565  136.3933  152.0866 C   0  0  1  0  0  0  0  0  0  0  0  0
  145.6137  135.8434  150.7055 C   0  0  0  0  0  0  0  0  0  0  0  0
  145.6091  134.3542  150.9626 C   0  0  0  0  0  0  0  0  0  0  0  0
  146.2201  134.2779  152.3587 C   0  0  0  0  0  0  0  0  0  0  0  0
  145.8796  135.5014  153.0071 O   0  0  0  0  0  0  0  0  0  0  0  0
  149.4287  140.1113  155.9096 S   0  0  0  0  0  0  0  0  0  0  0  0
  151.9628  139.6093  158.6575 H   0  0  0  0  0  0  0  0  0  0  0  0
  150.3979  140.3887  158.8803 H   0  0  0  0  0  0  0  0  0  0  0  0
  151.8625  141.1652  159.4746 H   0  0  0  0  0  0  0  0  0  0  0  0
  152.6951  141.4147  157.1681 H   0  0  0  0  0  0  0  0  0  0  0  0
  151.2352  143.2156  156.3655 H   0  0  0  0  0  0  0  0  0  0  0  0
  151.4289  143.3095  158.1122 H   0  0  0  0  0  0  0  0  0  0  0  0
  149.9364  142.6741  157.4269 H   0  0  0  0  0  0  0  0  0  0  0  0
  149.4052  137.8409  153.0497 H   0  0  0  0  0  0  0  0  0  0  0  0
  147.7456  137.2915  152.1639 H   0  0  0  0  0  0  0  0  0  0  0  0
  145.1040  138.2952  153.1339 H   0  0  0  0  0  0  0  0  0  0  0  0
  145.5562  138.4369  151.4558 H   0  0  0  0  0  0  0  0  0  0  0  0
  144.1786  136.3111  152.2368 H   0  0  0  0  0  0  0  0  0  0  0  0
  144.9102  136.1467  149.9295 H   0  0  0  0  0  0  0  0  0  0  0  0
  146.6124  136.1668  150.4083 H   0  0  0  0  0  0  0  0  0  0  0  0
  144.5843  133.9809  150.9788 H   0  0  0  0  0  0  0  0  0  0  0  0
  146.1693  133.7868  150.2189 H   0  0  0  0  0  0  0  0  0  0  0  0
  145.8613  133.4155  152.9213 H   0  0  0  0  0  0  0  0  0  0  0  0
  147.3068  134.2123  152.2959 H   0  0  0  0  0  0  0  0  0  0  0  0
  1  2  1  0  0  0  0
  1 19  1  0  0  0  0
  1 20  1  0  0  0  0
  1 21  1  0  0  0  0
  2  3  1  0  0  0  0
  2  4  1  0  0  0  0
  2 22  1  0  0  0  0
  3 23  1  0  0  0  0
  3 24  1  0  0  0  0
  3 25  1  0  0  0  0
  4 18  1  0  0  0  0
  4  5  2  0  0  0  0
  5  6  1  0  0  0  0
  6  7  2  0  0  0  0
  7  8  1  0  0  0  0
  7 18  1  0  0  0  0
  8  9  1  0  0  0  0
  8 26  1  0  0  0  0
  9 10  2  0  0  0  0
  9 11  1  0  0  0  0
 11 12  1  0  0  0  0
 11 27  1  0  0  0  0
 12 13  1  0  0  0  0
 12 28  1  0  0  0  0
 12 29  1  0  0  0  0
 13 17  1  0  0  0  0
 13 14  1  0  0  0  0
 13 30  1  0  0  0  0
 14 15  1  0  0  0  0
 14 31  1  0  0  0  0
 14 32  1  0  0  0  0
 15 16  1  0  0  0  0
 15 33  1  0  0  0  0
 15 34  1  0  0  0  0
 16 17  1  0  0  0  0
 16 35  1  0  0  0  0
 16 36  1  0  0  0  0
M  END
> <s_m_source_file>
AV-unprocessed.smi

> <i_m_source_file_index>
1961

> <i_lp_mmshare_version>
43012

> <i_f3d_flags>
0

> <s_epik_input>
W0NIM11bQ0hdKFtDSDNdKWMxbm5jKHMxKVtOSF1DKD1PKVtOSF1bQ0gyXVtDQEBIXTJbQ0gyXVtDSDJdW0NIMl1PMg==

> <s_epik_cmdline>
J2VwaWtfcHl0aG9uJywgJy1waCcsICc3LjAnLCAnLXRuJywgJzgnLCAnLW1hJywgJzIwMCcsICctbWV0YWxfYmluZGluZycsICctaW1hZScsICc8aW5maWxlLm1hZT4nLCAnLW9tYWUnLCAnPG91dGZpbGUubWFlPic=

> <r_lp_tautomer_probability>
1

> <r_epik_Ionization_Penalty>
0.000505257

> <r_epik_Ionization_Penalty_Charging>
0

> <r_epik_Ionization_Penalty_Neutral>
0.000505257

> <r_epik_State_Penalty>
-0

> <r_epik_Charging_Adjusted_Penalty>
0

> <i_epik_Tot_Q>
0

> <i_epik_Tot_abs_Q>
0

> <r_epik_Metal_State_Penalty>
0.219912

> <b_epik_Metal_Only>
0

> <s_lp_Force_Field>
OPLS_2005

> <r_lp_Energy>
10.2881

> <b_lp_Chiralities_Consistent>
1

> <s_lp_Variant>
AV-unprocessed.smi:1961-2

> <Gold.Version>
5.8.1

> <Gold.Id.Protein>
6NUR|6NUR_protein|mol2

> <Gold.PLP.Fitness>
33.7642

> <Gold.PLP.PLP>
-28.8411

> <Gold.PLP.part.hbond>
-5.0000

> <Gold.PLP.part.metal>
0.0000

> <Gold.PLP.part.buried>
-4.5288

> <Gold.PLP.part.nonpolar>
-21.2742

> <Gold.PLP.part.repulsive>
0.4795

> <Gold.PLP.ligand.clash>
0.0000

> <Gold.PLP.ligand.torsion>
0.4755

> <Gold.PLP.Chemscore.Hbond>
1.9280

> <Gold.PLP.Chemscore.CHOScore>
0.0000

> <Gold.PLP.Chemscore.Metal>
0.0000

> <Gold.Chemscore.Hbonds>
donor molecule, donor type, donor heavy atom, donor atom, acceptor molecule, acceptor atom, score
      L1  H     8    26       P1  7948  0.91
      L1  H    11    27       P1  7948  1.00

> <Gold.PLP.Chemscore.Internal.Correction>
0.0901

> <Gold.Rescore>
     Score         DG    S(hbond)    S(metal)    S(lipo)     H(rot)  DE(clash)    DE(int)     intcor
     13.43     -15.03       1.90        0.00      58.99       1.45       0.07       1.54       ----

> <Gold.Chemscore.Fitness>
13.4251

> <Gold.Chemscore.DG>
-15.0299

> <Gold.Chemscore.ZeroCoef>
-5.4800

> <Gold.Chemscore.Hbond>
1.9011

> <Gold.Chemscore.Metal>
0.0000

> <Gold.Chemscore.Lipo>
58.9931

> <Gold.Chemscore.Internal_Hbond>
0.0000

> <Gold.Chemscore.DEClash>
0.0695

> <Gold.Chemscore.DEInternal>
1.5352

> <Gold.Chemscore.Rot>
1.4461

> <Gold.Chemscore.Internal.Correction>
   9.000000E+99

> <Gold.Chemscore.Hbonds>
donor molecule, donor type, donor heavy atom, donor atom, acceptor molecule, acceptor atom, score
      L1  H     8    26       P1  7948  0.78
      L1  H    11    27       P1  7948  0.99

> <Gold.Chemscore.Hbond.Weighted>
-6.3496

> <Gold.Chemscore.Metal.Weighted>
-0.0000

> <Gold.Chemscore.Lipo.Weighted>
-6.9022

> <Gold.Chemscore.Internal_Hbond.Weighted>
0.0000

> <Gold.Chemscore.DEClash.Weighted>
0.0695

> <Gold.Chemscore.DEInternal.Weighted>
1.5352

> <Gold.Chemscore.Rot.Weighted>
3.7019

> <Gold.Chemscore.Internal.Correction.Weighted>
   9.000000E+99

> <Gold.Protein.RotatedTorsions>
[ 6907 6896 6895 6894 ] final  104.19 input  -60.11 | X-H torsion
[ 7974 7965 7964 7962 ] final  123.06 input  175.53 | X-H torsion
[ 8008 7997 7996 7995 ] final   21.98 input   59.86 | X-H torsion
[ 10167 10162 10161 10158 ] final  -11.33 input  -65.29 | X-H torsion
[ 10718 10713 10712 10709 ] final   25.72 input   66.30 | X-H torsion
[ 10763 10752 10751 10750 ] final  -12.12 input  -60.55 | X-H torsion
[ 11005 11000 10999 10996 ] final   77.46 input  -57.11 | X-H torsion

> <Gold.Protein.ActiveResidues>
 VAL166  LYS551  ARG553  GLY616  TRP617  ASP618  TYR619  PRO620  LYS621  CYS622 
 ASP623  PHE694  ASN695  SER759  ASP760  ASP761  ALA762  ILE779  LEU786  VAL792 
 PHE793  MET794  SER795  GLU796  ALA797  LYS798  CYS799  TRP800  GLU811  SER814 

> <Gold.Protein.RotatedAtoms>
  152.5272  133.9714  159.7763 H   0  0  0  0  0  0  0  0  0  0  0  0  # atno 6907 bound_to 6896
  150.9985  133.6071  159.2705 H   0  0  0  0  0  0  0  0  0  0  0  0  # atno 6908 bound_to 6896
  151.3189  135.0820  159.9352 H   0  0  0  0  0  0  0  0  0  0  0  0  # atno 6909 bound_to 6896
  145.1003  139.3523  143.4815 H   0  0  0  0  0  0  0  0  0  0  0  0  # atno 7974 bound_to 7965
  154.9588  140.3075  155.5040 H   0  0  0  0  0  0  0  0  0  0  0  0  # atno 8008 bound_to 7997
  156.2979  140.2305  156.4610 H   0  0  0  0  0  0  0  0  0  0  0  0  # atno 8009 bound_to 7997
  154.7985  140.0435  157.1243 H   0  0  0  0  0  0  0  0  0  0  0  0  # atno 8010 bound_to 7997
  140.7136  143.5651  150.9153 H   0  0  0  0  0  0  0  0  0  0  0  0  # atno 10167 bound_to 10162
  157.1972  130.6873  149.6174 H   0  0  0  0  0  0  0  0  0  0  0  0  # atno 10718 bound_to 10713
  153.4939  135.7017  153.5869 H   0  0  0  0  0  0  0  0  0  0  0  0  # atno 10763 bound_to 10752
  153.4030  135.3867  155.2000 H   0  0  0  0  0  0  0  0  0  0  0  0  # atno 10764 bound_to 10752
  154.8715  135.3886  154.4402 H   0  0  0  0  0  0  0  0  0  0  0  0  # atno 10765 bound_to 10752
  139.9253  134.7685  156.1525 H   0  0  0  0  0  0  0  0  0  0  0  0  # atno 11005 bound_to 11000
  146.3530  140.0877  142.8614 LP  0  0  0  0  0  0  0  0  0  0  0  0  # atno 17320 bound_to 7965
  145.0963  140.9317  143.4739 LP  0  0  0  0  0  0  0  0  0  0  0  0  # atno 17321 bound_to 7965
  139.9376  143.6419  152.3061 LP  0  0  0  0  0  0  0  0  0  0  0  0  # atno 17342 bound_to 10162
  139.6892  144.7648  151.1468 LP  0  0  0  0  0  0  0  0  0  0  0  0  # atno 17343 bound_to 10162
  155.9704  130.4595  150.6037 LP  0  0  0  0  0  0  0  0  0  0  0  0  # atno 17370 bound_to 10713
  157.3802  131.0779  151.1483 LP  0  0  0  0  0  0  0  0  0  0  0  0  # atno 17371 bound_to 10713
  141.0806  133.6756  156.2329 LP  0  0  0  0  0  0  0  0  0  0  0  0  # atno 17394 bound_to 11000
  140.6353  134.5222  157.5564 LP  0  0  0  0  0  0  0  0  0  0  0  0  # atno 17395 bound_to 11000

$$$$
