AV-unprocessed.smi:3078|AV-procd|sdf|11732|dock7
  -GOLD-   2272017133D 1   1.00000     0.00000
 Structure written by MMmdl.
 23 23  0  0  0  0  0  0  0  0  2 V2000
  145.6988  136.2854  152.1678 C   0  0  0  0  0  0  0  0  0  0  0  0
  145.6305  135.0039  151.4984 N   0  0  0  0  0  0  0  0  0  0  0  0
  144.6718  134.5385  150.6248 C   0  0  0  0  0  0  0  0  0  0  0  0
  145.0317  133.2714  150.2548 C   0  0  0  0  0  0  0  0  0  0  0  0
  144.3438  132.3192  149.3121 C   0  0  1  0  0  0  0  0  0  0  0  0
  143.4608  131.4283  150.0438 N   0  0  0  0  0  0  0  0  0  0  0  0
  143.5180  133.0899  148.2663 C   0  0  0  0  0  0  0  0  0  0  0  0
  142.1619  132.5333  148.1212 N   0  3  0  0  0  0  0  0  0  0  0  0
  146.2473  133.0564  150.9659 C   0  0  0  0  0  0  0  0  0  0  0  0
  146.6007  134.0917  151.7092 N   0  0  0  0  0  0  0  0  0  0  0  0
  144.8882  136.9298  151.8267 H   0  0  0  0  0  0  0  0  0  0  0  0
  146.6515  136.7680  151.9471 H   0  0  0  0  0  0  0  0  0  0  0  0
  145.6100  136.1432  153.2452 H   0  0  0  0  0  0  0  0  0  0  0  0
  143.8217  135.1408  150.3397 H   0  0  0  0  0  0  0  0  0  0  0  0
  145.0841  131.7028  148.8001 H   0  0  0  0  0  0  0  0  0  0  0  0
  143.8544  131.2260  150.9522 H   0  0  0  0  0  0  0  0  0  0  0  0
  142.5786  131.8911  150.2133 H   0  0  0  0  0  0  0  0  0  0  0  0
  143.4513  134.1489  148.5205 H   0  0  0  0  0  0  0  0  0  0  0  0
  144.0036  133.0283  147.2915 H   0  0  0  0  0  0  0  0  0  0  0  0
  141.4888  133.1773  148.5111 H   0  0  0  0  0  0  0  0  0  0  0  0
  142.1113  131.6528  148.6136 H   0  0  0  0  0  0  0  0  0  0  0  0
  146.8806  132.1814  150.9632 H   0  0  0  0  0  0  0  0  0  0  0  0
  141.9606  132.3846  147.1429 H   0  0  0  0  0  0  0  0  0  0  0  0
  1  2  1  0  0  0  0
  1 11  1  0  0  0  0
  1 12  1  0  0  0  0
  1 13  1  0  0  0  0
  2 10  1  0  0  0  0
  2  3  1  0  0  0  0
  3  4  2  0  0  0  0
  3 14  1  0  0  0  0
  4  5  1  0  0  0  0
  4  9  1  0  0  0  0
  5  6  1  0  0  0  0
  5  7  1  0  0  0  0
  5 15  1  0  0  0  0
  6 16  1  0  0  0  0
  6 17  1  0  0  0  0
  7  8  1  0  0  0  0
  7 18  1  0  0  0  0
  7 19  1  0  0  0  0
  8 20  1  0  0  0  0
  8 21  1  0  0  0  0
  8 23  1  0  0  0  0
  9 10  2  0  0  0  0
  9 22  1  0  0  0  0
M  CHG  1   8   1
M  END
> <s_m_source_file>
AV-unprocessed.smi

> <i_m_source_file_index>
3078

> <i_lp_mmshare_version>
43012

> <i_f3d_flags>
0

> <s_epik_input>
W0NIM11uMVtjSF1jKFtjSF1uMSlbQ0BIXShbTkgyXSlbQ0gyXVtOSDJd

> <s_epik_cmdline>
J2VwaWtfcHl0aG9uJywgJy1waCcsICc3LjAnLCAnLXRuJywgJzgnLCAnLW1hJywgJzIwMCcsICctbWV0YWxfYmluZGluZycsICctaW1hZScsICc8aW5maWxlLm1hZT4nLCAnLW9tYWUnLCAnPG91dGZpbGUubWFlPic=

> <r_lp_tautomer_probability>
1

> <r_epik_Ionization_Penalty>
0.0498714

> <r_epik_Ionization_Penalty_Charging>
0.00651912

> <r_epik_Ionization_Penalty_Neutral>
0.0433523

> <r_epik_State_Penalty>
0.141593

> <r_epik_Charging_Adjusted_Penalty>
0.148112

> <i_epik_Tot_Q>
1

> <i_epik_Tot_abs_Q>
1

> <r_epik_Metal_State_Penalty>
0.141584

> <b_epik_Metal_Only>
0

> <s_lp_Force_Field>
OPLS_2005

> <r_lp_Energy>
-1.23381

> <b_lp_Chiralities_Consistent>
1

> <s_lp_Variant>
AV-unprocessed.smi:3078-2

> <Gold.Version>
5.8.1

> <Gold.Id.Protein>
6NUR|6NUR_protein|mol2

> <Gold.PLP.Fitness>
37.8134

> <Gold.PLP.PLP>
-23.7686

> <Gold.PLP.part.hbond>
-5.0000

> <Gold.PLP.part.metal>
0.0000

> <Gold.PLP.part.buried>
-1.7986

> <Gold.PLP.part.nonpolar>
-17.8310

> <Gold.PLP.part.repulsive>
0.4322

> <Gold.PLP.ligand.clash>
0.0000

> <Gold.PLP.ligand.torsion>
1.4082

> <Gold.PLP.Chemscore.Hbond>
4.6864

> <Gold.PLP.Chemscore.CHOScore>
0.9331

> <Gold.PLP.Chemscore.Metal>
0.0000

> <Gold.Chemscore.Hbonds>
donor molecule, donor type, donor heavy atom, donor atom, acceptor molecule, acceptor atom, score
      L1  H     8    20       P1 10186  2.00
      L1  H     8    21       P1 10952  0.80
      L1  H     8    23       P1 10195  0.90
      P1  H 10785 10796       L1     6  0.94
      L1  C     9    22       P1 10747  0.90

> <Gold.PLP.Chemscore.Internal.Correction>
0.0025

> <Gold.Rescore>
     Score         DG    S(hbond)    S(metal)    S(lipo)     H(rot)  DE(clash)    DE(int)     intcor
     16.70     -18.06       2.94        0.00      54.38       1.41       0.18       1.19       ----

> <Gold.Chemscore.Fitness>
16.6956

> <Gold.Chemscore.DG>
-18.0614

> <Gold.Chemscore.ZeroCoef>
-5.4800

> <Gold.Chemscore.Hbond>
2.9446

> <Gold.Chemscore.Metal>
0.0000

> <Gold.Chemscore.Lipo>
54.3764

> <Gold.Chemscore.Internal_Hbond>
0.0000

> <Gold.Chemscore.DEClash>
0.1787

> <Gold.Chemscore.DEInternal>
1.1871

> <Gold.Chemscore.Rot>
1.4123

> <Gold.Chemscore.Internal.Correction>
   9.000000E+99

> <Gold.Chemscore.Hbonds>
donor molecule, donor type, donor heavy atom, donor atom, acceptor molecule, acceptor atom, score
      L1  H     6    17       P1 10952  0.01
      L1  H     8    20       P1 10186  0.98
      L1  H     8    21       P1 10952  0.76
      L1  H     8    23       P1 10195  0.88
      P1  H 10785 10796       L1     6  0.16

> <Gold.Chemscore.Hbond.Weighted>
-9.8348

> <Gold.Chemscore.Metal.Weighted>
-0.0000

> <Gold.Chemscore.Lipo.Weighted>
-6.3620

> <Gold.Chemscore.Internal_Hbond.Weighted>
0.0000

> <Gold.Chemscore.DEClash.Weighted>
0.1787

> <Gold.Chemscore.DEInternal.Weighted>
1.1871

> <Gold.Chemscore.Rot.Weighted>
3.6154

> <Gold.Chemscore.Internal.Correction.Weighted>
   9.000000E+99

> <Gold.Protein.RotatedTorsions>
[ 6907 6896 6895 6894 ] final  175.37 input  -60.11 | X-H torsion
[ 7974 7965 7964 7962 ] final  179.63 input  175.53 | X-H torsion
[ 8008 7997 7996 7995 ] final  -30.57 input   59.86 | X-H torsion
[ 10167 10162 10161 10158 ] final  139.54 input  -65.29 | X-H torsion
[ 10718 10713 10712 10709 ] final  -99.81 input   66.30 | X-H torsion
[ 10763 10752 10751 10750 ] final -117.23 input  -60.55 | X-H torsion
[ 11005 11000 10999 10996 ] final  -50.55 input  -57.11 | X-H torsion

> <Gold.Protein.ActiveResidues>
 VAL166  LYS551  ARG553  GLY616  TRP617  ASP618  TYR619  PRO620  LYS621  CYS622 
 ASP623  PHE694  ASN695  SER759  ASP760  ASP761  ALA762  ILE779  LEU786  VAL792 
 PHE793  MET794  SER795  GLU796  ALA797  LYS798  CYS799  TRP800  GLU811  SER814 

> <Gold.Protein.RotatedAtoms>
  151.7373  133.3320  159.3355 H   0  0  0  0  0  0  0  0  0  0  0  0  # atno 6907 bound_to 6896
  150.7588  134.6310  159.6195 H   0  0  0  0  0  0  0  0  0  0  0  0  # atno 6908 bound_to 6896
  152.3553  134.6950  160.0275 H   0  0  0  0  0  0  0  0  0  0  0  0  # atno 6909 bound_to 6896
  144.7144  140.0577  143.6433 H   0  0  0  0  0  0  0  0  0  0  0  0  # atno 7974 bound_to 7965
  154.4245  140.1787  156.1429 H   0  0  0  0  0  0  0  0  0  0  0  0  # atno 8008 bound_to 7997
  155.9977  140.3363  155.6790 H   0  0  0  0  0  0  0  0  0  0  0  0  # atno 8009 bound_to 7997
  155.6285  140.0667  157.2647 H   0  0  0  0  0  0  0  0  0  0  0  0  # atno 8010 bound_to 7997
  139.5076  144.6289  151.5868 H   0  0  0  0  0  0  0  0  0  0  0  0  # atno 10167 bound_to 10162
  156.0144  130.5299  150.6725 H   0  0  0  0  0  0  0  0  0  0  0  0  # atno 10718 bound_to 10713
  154.8547  135.4317  154.1946 H   0  0  0  0  0  0  0  0  0  0  0  0  # atno 10763 bound_to 10752
  153.3007  135.6968  153.7212 H   0  0  0  0  0  0  0  0  0  0  0  0  # atno 10764 bound_to 10752
  153.6343  135.3479  155.3026 H   0  0  0  0  0  0  0  0  0  0  0  0  # atno 10765 bound_to 10752
  141.0822  133.6650  156.3747 H   0  0  0  0  0  0  0  0  0  0  0  0  # atno 11005 bound_to 11000
  145.9890  139.3000  143.0996 LP  0  0  0  0  0  0  0  0  0  0  0  0  # atno 17320 bound_to 7965
  145.8924  140.9295  143.0545 LP  0  0  0  0  0  0  0  0  0  0  0  0  # atno 17321 bound_to 7965
  140.6015  143.9602  150.6389 LP  0  0  0  0  0  0  0  0  0  0  0  0  # atno 17342 bound_to 10162
  140.2815  143.3386  152.1147 LP  0  0  0  0  0  0  0  0  0  0  0  0  # atno 17343 bound_to 10162
  157.4444  131.0865  151.0910 LP  0  0  0  0  0  0  0  0  0  0  0  0  # atno 17370 bound_to 10713
  157.1444  130.6157  149.5564 LP  0  0  0  0  0  0  0  0  0  0  0  0  # atno 17371 bound_to 10713
  140.5443  134.6090  157.5389 LP  0  0  0  0  0  0  0  0  0  0  0  0  # atno 17394 bound_to 11000
  139.9637  134.7409  156.0183 LP  0  0  0  0  0  0  0  0  0  0  0  0  # atno 17395 bound_to 11000

$$$$
