AV-unprocessed.smi:1671|AV-procd|sdf|6698|dock1
  -GOLD-   22720 7433D 1   1.00000     0.00000
 Structure written by MMmdl.
 44 45  0  0  0  0  0  0  0  0  1 V2000
  155.5502  132.7931  161.9316 C   0  0  0  0  0  0  0  0  0  0  0  0
  155.5179  133.7849  163.4494 S   0  0  0  0  0  0  0  0  0  0  0  0
  154.2451  135.0137  163.0319 C   0  0  1  0  0  0  0  0  0  0  0  0
  153.9680  135.9236  164.2390 C   0  0  0  0  0  0  0  0  0  0  0  0
  154.6281  135.8369  161.7959 C   0  0  0  0  0  0  0  0  0  0  0  0
  153.9226  135.8103  160.7869 O   0  0  0  0  0  0  0  0  0  0  0  0
  155.7495  136.5688  161.8882 N   0  0  0  0  0  0  0  0  0  0  0  0
  156.2852  137.4143  160.8260 C   0  0  0  0  0  0  0  0  0  0  0  0
  155.3957  138.5908  160.4475 C   0  0  0  0  0  0  0  0  0  0  0  0
  155.1555  139.6662  161.3285 C   0  0  0  0  0  0  0  0  0  0  0  0
  154.3193  140.7188  160.9109 C   0  0  0  0  0  0  0  0  0  0  0  0
  153.7391  140.6706  159.6209 C   0  0  0  0  0  0  0  0  0  0  0  0
  152.9024  141.7188  159.1791 N   0  0  0  0  0  0  0  0  0  0  0  0
  151.6082  141.3098  158.6395 C   0  0  0  0  0  0  0  0  0  0  0  0
  150.9325  142.4890  157.9201 C   0  0  0  0  0  0  0  0  0  0  0  0
  150.8388  143.6025  158.8025 O   0  0  0  0  0  0  0  0  0  0  0  0
  152.1193  144.0586  159.2291 C   0  0  1  0  0  0  0  0  0  0  0  0
  151.9220  145.3069  160.0955 C   0  0  0  0  0  0  0  0  0  0  0  0
  152.8288  142.9277  159.9979 C   0  0  0  0  0  0  0  0  0  0  0  0
  153.9600  139.6271  158.7836 N   0  0  0  0  0  0  0  0  0  0  0  0
  154.7644  138.6218  159.1880 C   0  0  0  0  0  0  0  0  0  0  0  0
  156.2509  131.9657  162.0415 H   0  0  0  0  0  0  0  0  0  0  0  0
  155.8657  133.3972  161.0811 H   0  0  0  0  0  0  0  0  0  0  0  0
  154.5623  132.3830  161.7221 H   0  0  0  0  0  0  0  0  0  0  0  0
  153.3258  134.4664  162.8171 H   0  0  0  0  0  0  0  0  0  0  0  0
  153.2154  136.6772  164.0039 H   0  0  0  0  0  0  0  0  0  0  0  0
  154.8699  136.4423  164.5669 H   0  0  0  0  0  0  0  0  0  0  0  0
  153.5964  135.3440  165.0842 H   0  0  0  0  0  0  0  0  0  0  0  0
  156.2682  136.5380  162.7540 H   0  0  0  0  0  0  0  0  0  0  0  0
  157.2741  137.7769  161.1117 H   0  0  0  0  0  0  0  0  0  0  0  0
  156.4291  136.7964  159.9398 H   0  0  0  0  0  0  0  0  0  0  0  0
  155.5990  139.6911  162.3131 H   0  0  0  0  0  0  0  0  0  0  0  0
  154.1233  141.5383  161.5862 H   0  0  0  0  0  0  0  0  0  0  0  0
  151.7031  140.4781  157.9428 H   0  0  0  0  0  0  0  0  0  0  0  0
  150.9789  140.9650  159.4611 H   0  0  0  0  0  0  0  0  0  0  0  0
  151.4877  142.7671  157.0227 H   0  0  0  0  0  0  0  0  0  0  0  0
  149.9299  142.2067  157.5986 H   0  0  0  0  0  0  0  0  0  0  0  0
  152.7106  144.3343  158.3540 H   0  0  0  0  0  0  0  0  0  0  0  0
  152.8784  145.6996  160.4416 H   0  0  0  0  0  0  0  0  0  0  0  0
  151.3136  145.0863  160.9730 H   0  0  0  0  0  0  0  0  0  0  0  0
  151.4223  146.0963  159.5335 H   0  0  0  0  0  0  0  0  0  0  0  0
  152.2913  142.7045  160.9207 H   0  0  0  0  0  0  0  0  0  0  0  0
  153.8318  143.2544  160.2752 H   0  0  0  0  0  0  0  0  0  0  0  0
  154.9078  137.8173  158.4817 H   0  0  0  0  0  0  0  0  0  0  0  0
  1  2  1  0  0  0  0
  1 22  1  0  0  0  0
  1 23  1  0  0  0  0
  1 24  1  0  0  0  0
  2  3  1  0  0  0  0
  3  4  1  0  0  0  0
  3  5  1  0  0  0  0
  3 25  1  0  0  0  0
  4 26  1  0  0  0  0
  4 27  1  0  0  0  0
  4 28  1  0  0  0  0
  5  6  2  0  0  0  0
  5  7  1  0  0  0  0
  7  8  1  0  0  0  0
  7 29  1  0  0  0  0
  8  9  1  0  0  0  0
  8 30  1  0  0  0  0
  8 31  1  0  0  0  0
  9 21  1  0  0  0  0
  9 10  2  0  0  0  0
 10 11  1  0  0  0  0
 10 32  1  0  0  0  0
 11 12  2  0  0  0  0
 11 33  1  0  0  0  0
 12 13  1  0  0  0  0
 12 20  1  0  0  0  0
 13 19  1  0  0  0  0
 13 14  1  0  0  0  0
 14 15  1  0  0  0  0
 14 34  1  0  0  0  0
 14 35  1  0  0  0  0
 15 16  1  0  0  0  0
 15 36  1  0  0  0  0
 15 37  1  0  0  0  0
 16 17  1  0  0  0  0
 17 18  1  0  0  0  0
 17 19  1  0  0  0  0
 17 38  1  0  0  0  0
 18 39  1  0  0  0  0
 18 40  1  0  0  0  0
 18 41  1  0  0  0  0
 19 42  1  0  0  0  0
 19 43  1  0  0  0  0
 20 21  2  0  0  0  0
 21 44  1  0  0  0  0
M  END
> <s_m_source_file>
AV-unprocessed.smi

> <i_m_source_file_index>
1671

> <i_lp_mmshare_version>
43012

> <i_f3d_flags>
0

> <s_epik_input>
W0NIM11TW0NASF0oW0NIM10pQyg9TylbTkhdW0NIMl1jMVtjSF1bY0hdYyhuW2NIXTEpTjJbQ0gyXVtDSDJdT1tDQEBIXShbQ0gzXSlbQ0gyXTI=

> <s_epik_cmdline>
J2VwaWtfcHl0aG9uJywgJy1waCcsICc3LjAnLCAnLXRuJywgJzgnLCAnLW1hJywgJzIwMCcsICctbWV0YWxfYmluZGluZycsICctaW1hZScsICc8aW5maWxlLm1hZT4nLCAnLW9tYWUnLCAnPG91dGZpbGUubWFlPic=

> <r_lp_tautomer_probability>
1

> <r_epik_Ionization_Penalty>
0.00480033

> <r_epik_Ionization_Penalty_Charging>
0

> <r_epik_Ionization_Penalty_Neutral>
0.00480033

> <r_epik_State_Penalty>
0.00347981

> <r_epik_Charging_Adjusted_Penalty>
0.00347981

> <i_epik_Tot_Q>
0

> <i_epik_Tot_abs_Q>
0

> <r_epik_Metal_State_Penalty>
-0

> <b_epik_Metal_Only>
0

> <s_lp_Force_Field>
OPLS_2005

> <r_lp_Energy>
15.4739

> <b_lp_Chiralities_Consistent>
1

> <s_lp_Variant>
AV-unprocessed.smi:1671-2

> <Gold.Version>
5.8.1

> <Gold.Id.Protein>
6NUR|6NUR_protein|mol2

> <Gold.PLP.Fitness>
41.6594

> <Gold.PLP.PLP>
-36.6972

> <Gold.PLP.part.hbond>
-1.8851

> <Gold.PLP.part.metal>
0.0000

> <Gold.PLP.part.buried>
-5.1484

> <Gold.PLP.part.nonpolar>
-30.9050

> <Gold.PLP.part.repulsive>
0.1080

> <Gold.PLP.ligand.clash>
0.0000

> <Gold.PLP.ligand.torsion>
0.2455

> <Gold.PLP.Chemscore.Hbond>
1.6950

> <Gold.PLP.Chemscore.CHOScore>
0.0000

> <Gold.PLP.Chemscore.Metal>
0.0000

> <Gold.Chemscore.Hbonds>
donor molecule, donor type, donor heavy atom, donor atom, acceptor molecule, acceptor atom, score
      P1  H  6896  6907       L1     6  1.00
      P1  H  7997  8008       L1    20  0.75

> <Gold.PLP.Chemscore.Internal.Correction>
0.3682

> <Gold.Rescore>
     Score         DG    S(hbond)    S(metal)    S(lipo)     H(rot)  DE(clash)    DE(int)     intcor
     18.13     -18.39       1.63        0.00      99.41       1.63       0.03       0.23       ----

> <Gold.Chemscore.Fitness>
18.1267

> <Gold.Chemscore.DG>
-18.3856

> <Gold.Chemscore.ZeroCoef>
-5.4800

> <Gold.Chemscore.Hbond>
1.6289

> <Gold.Chemscore.Metal>
0.0000

> <Gold.Chemscore.Lipo>
99.4090

> <Gold.Chemscore.Internal_Hbond>
0.0000

> <Gold.Chemscore.DEClash>
0.0263

> <Gold.Chemscore.DEInternal>
0.2326

> <Gold.Chemscore.Rot>
1.6272

> <Gold.Chemscore.Internal.Correction>
   9.000000E+99

> <Gold.Chemscore.Hbonds>
donor molecule, donor type, donor heavy atom, donor atom, acceptor molecule, acceptor atom, score
      P1  H  6896  6907       L1     6  0.96
      P1  H  7997  8008       L1    20  0.08

> <Gold.Chemscore.Hbond.Weighted>
-5.4405

> <Gold.Chemscore.Metal.Weighted>
-0.0000

> <Gold.Chemscore.Lipo.Weighted>
-11.6309

> <Gold.Chemscore.Internal_Hbond.Weighted>
0.0000

> <Gold.Chemscore.DEClash.Weighted>
0.0263

> <Gold.Chemscore.DEInternal.Weighted>
0.2326

> <Gold.Chemscore.Rot.Weighted>
4.1657

> <Gold.Chemscore.Internal.Correction.Weighted>
   9.000000E+99

> <Gold.Protein.RotatedTorsions>
[ 6907 6896 6895 6894 ] final   57.61 input  -60.11 | X-H torsion
[ 7974 7965 7964 7962 ] final  -48.54 input  175.53 | X-H torsion
[ 8008 7997 7996 7995 ] final -110.43 input   59.86 | X-H torsion
[ 10167 10162 10161 10158 ] final   18.41 input  -65.29 | X-H torsion
[ 10718 10713 10712 10709 ] final  132.33 input   66.30 | X-H torsion
[ 10763 10752 10751 10750 ] final  157.55 input  -60.55 | X-H torsion
[ 11005 11000 10999 10996 ] final  -30.94 input  -57.11 | X-H torsion

> <Gold.Protein.ActiveResidues>
 VAL166  LYS551  ARG553  GLY616  TRP617  ASP618  TYR619  PRO620  LYS621  CYS622 
 ASP623  PHE694  ASN695  SER759  ASP760  ASP761  ALA762  ILE779  LEU786  VAL792 
 PHE793  MET794  SER795  GLU796  ALA797  LYS798  CYS799  TRP800  GLU811  SER814 

> <Gold.Protein.RotatedAtoms>
  152.3747  134.6681  160.0163 H   0  0  0  0  0  0  0  0  0  0  0  0  # atno 6907 bound_to 6896
  151.6963  133.3305  159.3263 H   0  0  0  0  0  0  0  0  0  0  0  0  # atno 6908 bound_to 6896
  150.7701  134.6590  159.6374 H   0  0  0  0  0  0  0  0  0  0  0  0  # atno 6909 bound_to 6896
  145.9500  140.7581  142.9509 H   0  0  0  0  0  0  0  0  0  0  0  0  # atno 7974 bound_to 7965
  154.9744  140.0397  157.2249 H   0  0  0  0  0  0  0  0  0  0  0  0  # atno 8008 bound_to 7997
  154.7772  140.2812  155.6070 H   0  0  0  0  0  0  0  0  0  0  0  0  # atno 8009 bound_to 7997
  156.2930  140.2598  156.2588 H   0  0  0  0  0  0  0  0  0  0  0  0  # atno 8010 bound_to 7997
  140.5655  143.9259  150.6673 H   0  0  0  0  0  0  0  0  0  0  0  0  # atno 10167 bound_to 10162
  157.4881  131.1089  150.9593 H   0  0  0  0  0  0  0  0  0  0  0  0  # atno 10718 bound_to 10713
  154.2020  135.2790  155.2987 H   0  0  0  0  0  0  0  0  0  0  0  0  # atno 10763 bound_to 10752
  154.5847  135.5578  153.7223 H   0  0  0  0  0  0  0  0  0  0  0  0  # atno 10764 bound_to 10752
  153.0085  135.6353  154.2158 H   0  0  0  0  0  0  0  0  0  0  0  0  # atno 10765 bound_to 10752
  140.9426  133.7269  156.1099 H   0  0  0  0  0  0  0  0  0  0  0  0  # atno 11005 bound_to 11000
  144.6794  140.2420  143.7342 LP  0  0  0  0  0  0  0  0  0  0  0  0  # atno 17320 bound_to 7965
  145.8183  139.2033  143.1952 LP  0  0  0  0  0  0  0  0  0  0  0  0  # atno 17321 bound_to 7965
  140.2721  143.3449  152.1229 LP  0  0  0  0  0  0  0  0  0  0  0  0  # atno 17342 bound_to 10162
  139.5091  144.6861  151.5884 LP  0  0  0  0  0  0  0  0  0  0  0  0  # atno 17343 bound_to 10162
  157.0303  130.5709  149.5342 LP  0  0  0  0  0  0  0  0  0  0  0  0  # atno 17370 bound_to 10713
  156.0158  130.5252  150.8130 LP  0  0  0  0  0  0  0  0  0  0  0  0  # atno 17371 bound_to 10713
  140.7713  134.3829  157.5507 LP  0  0  0  0  0  0  0  0  0  0  0  0  # atno 17394 bound_to 11000
  139.8824  134.9024  156.2831 LP  0  0  0  0  0  0  0  0  0  0  0  0  # atno 17395 bound_to 11000

$$$$
