AV-unprocessed.smi:1923|AV-procd|sdf|7789|dock1
  -GOLD-   22720 9533D 1   1.00000     0.00000
 Structure written by MMmdl.
 55 57  0  0  0  0  0  0  0  0  2 V2000
  146.4506  131.7684  151.7303 C   0  0  0  0  0  0  0  0  0  0  0  0
  145.8507  133.1365  152.0832 C   0  0  2  0  0  0  0  0  0  0  0  0
  145.8615  134.0917  150.8782 C   0  0  0  0  0  0  0  0  0  0  0  0
  145.2879  135.4693  151.2517 C   0  0  0  0  0  0  0  0  0  0  0  0
  146.0268  136.0705  152.3923 N   0  3  1  0  0  0  0  0  0  0  0  0
  145.5750  137.4547  152.6845 C   0  0  0  0  0  0  0  0  0  0  0  0
  146.4427  138.5162  151.9888 C   0  0  0  0  0  0  0  0  0  0  0  0
  147.7629  138.5811  152.6011 N   0  0  0  0  0  0  0  0  0  0  0  0
  148.0828  139.3981  153.6134 C   0  0  0  0  0  0  0  0  0  0  0  0
  147.2803  140.1729  154.1332 O   0  0  0  0  0  0  0  0  0  0  0  0
  149.3662  139.2406  153.9807 N   0  0  0  0  0  0  0  0  0  0  0  0
  150.0930  139.9331  154.9871 C   0  0  0  0  0  0  0  0  0  0  0  0
  151.2946  139.4682  155.5703 C   0  0  0  0  0  0  0  0  0  0  0  0
  151.9086  140.2401  156.5751 C   0  0  0  0  0  0  0  0  0  0  0  0
  151.3063  141.4537  156.9833 C   0  0  0  0  0  0  0  0  0  0  0  0
  151.9052  142.2413  157.9908 N   0  0  0  0  0  0  0  0  0  0  0  0
  151.4609  143.6270  158.1334 C   0  0  0  0  0  0  0  0  0  0  0  0
  152.4105  144.4015  159.0630 C   0  0  0  0  0  0  0  0  0  0  0  0
  152.5146  143.7265  160.3122 O   0  0  0  0  0  0  0  0  0  0  0  0
  153.0536  142.4173  160.1630 C   0  0  0  0  0  0  0  0  0  0  0  0
  152.1300  141.5712  159.2695 C   0  0  0  0  0  0  0  0  0  0  0  0
  150.1517  141.8930  156.4252 N   0  0  0  0  0  0  0  0  0  0  0  0
  149.5659  141.1498  155.4637 C   0  0  0  0  0  0  0  0  0  0  0  0
  146.0027  135.1800  153.5837 C   0  0  0  0  0  0  0  0  0  0  0  0
  146.5919  133.7973  153.2572 C   0  0  0  0  0  0  0  0  0  0  0  0
  147.4927  131.8587  151.4218 H   0  0  0  0  0  0  0  0  0  0  0  0
  145.9015  131.2977  150.9143 H   0  0  0  0  0  0  0  0  0  0  0  0
  146.4140  131.0917  152.5846 H   0  0  0  0  0  0  0  0  0  0  0  0
  144.8135  132.9768  152.3821 H   0  0  0  0  0  0  0  0  0  0  0  0
  146.8811  134.2101  150.5081 H   0  0  0  0  0  0  0  0  0  0  0  0
  145.2834  133.6644  150.0580 H   0  0  0  0  0  0  0  0  0  0  0  0
  145.3502  136.1265  150.3831 H   0  0  0  0  0  0  0  0  0  0  0  0
  144.2306  135.3806  151.5071 H   0  0  0  0  0  0  0  0  0  0  0  0
  144.5490  137.5776  152.3338 H   0  0  0  0  0  0  0  0  0  0  0  0
  145.5531  137.6159  153.7635 H   0  0  0  0  0  0  0  0  0  0  0  0
  146.5636  138.2907  150.9291 H   0  0  0  0  0  0  0  0  0  0  0  0
  145.9657  139.4954  152.0586 H   0  0  0  0  0  0  0  0  0  0  0  0
  148.4769  137.9698  152.2327 H   0  0  0  0  0  0  0  0  0  0  0  0
  149.8753  138.5053  153.5127 H   0  0  0  0  0  0  0  0  0  0  0  0
  151.7528  138.5360  155.2793 H   0  0  0  0  0  0  0  0  0  0  0  0
  152.8353  139.8974  157.0105 H   0  0  0  0  0  0  0  0  0  0  0  0
  151.4300  144.1167  157.1593 H   0  0  0  0  0  0  0  0  0  0  0  0
  150.4483  143.6414  158.5388 H   0  0  0  0  0  0  0  0  0  0  0  0
  153.3980  144.5068  158.6109 H   0  0  0  0  0  0  0  0  0  0  0  0
  152.0298  145.4084  159.2338 H   0  0  0  0  0  0  0  0  0  0  0  0
  154.0585  142.4718  159.7411 H   0  0  0  0  0  0  0  0  0  0  0  0
  153.1467  141.9580  161.1473 H   0  0  0  0  0  0  0  0  0  0  0  0
  151.1680  141.4232  159.7621 H   0  0  0  0  0  0  0  0  0  0  0  0
  152.5728  140.5850  159.1381 H   0  0  0  0  0  0  0  0  0  0  0  0
  148.6453  141.5446  155.0590 H   0  0  0  0  0  0  0  0  0  0  0  0
  146.5751  135.6185  154.3998 H   0  0  0  0  0  0  0  0  0  0  0  0
  144.9769  135.0739  153.9403 H   0  0  0  0  0  0  0  0  0  0  0  0
  146.5371  133.1586  154.1397 H   0  0  0  0  0  0  0  0  0  0  0  0
  147.6512  133.9006  153.0167 H   0  0  0  0  0  0  0  0  0  0  0  0
  146.9898  136.1408  152.0955 H   0  0  0  0  0  0  0  0  0  0  0  0
  1  2  1  0  0  0  0
  1 26  1  0  0  0  0
  1 27  1  0  0  0  0
  1 28  1  0  0  0  0
  2 25  1  0  0  0  0
  2  3  1  0  0  0  0
  2 29  1  0  0  0  0
  3  4  1  0  0  0  0
  3 30  1  0  0  0  0
  3 31  1  0  0  0  0
  4  5  1  0  0  0  0
  4 32  1  0  0  0  0
  4 33  1  0  0  0  0
  5  6  1  0  0  0  0
  5 24  1  0  0  0  0
  5 55  1  0  0  0  0
  6  7  1  0  0  0  0
  6 34  1  0  0  0  0
  6 35  1  0  0  0  0
  7  8  1  0  0  0  0
  7 36  1  0  0  0  0
  7 37  1  0  0  0  0
  8  9  1  0  0  0  0
  8 38  1  0  0  0  0
  9 10  2  0  0  0  0
  9 11  1  0  0  0  0
 11 12  1  0  0  0  0
 11 39  1  0  0  0  0
 12 23  1  0  0  0  0
 12 13  2  0  0  0  0
 13 14  1  0  0  0  0
 13 40  1  0  0  0  0
 14 15  2  0  0  0  0
 14 41  1  0  0  0  0
 15 16  1  0  0  0  0
 15 22  1  0  0  0  0
 16 21  1  0  0  0  0
 16 17  1  0  0  0  0
 17 18  1  0  0  0  0
 17 42  1  0  0  0  0
 17 43  1  0  0  0  0
 18 19  1  0  0  0  0
 18 44  1  0  0  0  0
 18 45  1  0  0  0  0
 19 20  1  0  0  0  0
 20 21  1  0  0  0  0
 20 46  1  0  0  0  0
 20 47  1  0  0  0  0
 21 48  1  0  0  0  0
 21 49  1  0  0  0  0
 22 23  2  0  0  0  0
 23 50  1  0  0  0  0
 24 25  1  0  0  0  0
 24 51  1  0  0  0  0
 24 52  1  0  0  0  0
 25 53  1  0  0  0  0
 25 54  1  0  0  0  0
M  CHG  1   5   1
M  END
> <s_m_source_file>
AV-unprocessed.smi

> <i_m_source_file_index>
1923

> <i_lp_mmshare_version>
43012

> <i_f3d_flags>
0

> <s_epik_input>
W0NIM11bQ0hdMVtDSDJdW0NIMl1OKFtDSDJdW0NIMl0xKVtDSDJdW0NIMl1bTkhdQyg9TylbTkhdYzJbY0hdW2NIXWMobltjSF0yKU4zW0NIMl1bQ0gyXU9bQ0gyXVtDSDJdMw==

> <s_epik_cmdline>
J2VwaWtfcHl0aG9uJywgJy1waCcsICc3LjAnLCAnLXRuJywgJzgnLCAnLW1hJywgJzIwMCcsICctbWV0YWxfYmluZGluZycsICctaW1hZScsICc8aW5maWxlLm1hZT4nLCAnLW9tYWUnLCAnPG91dGZpbGUubWFlPic=

> <r_lp_tautomer_probability>
1

> <r_epik_Ionization_Penalty>
0.00307683

> <r_epik_Ionization_Penalty_Charging>
0.00139388

> <r_epik_Ionization_Penalty_Neutral>
0.00168296

> <r_epik_State_Penalty>
-0

> <r_epik_Charging_Adjusted_Penalty>
0.00139388

> <i_epik_Tot_Q>
1

> <i_epik_Tot_abs_Q>
1

> <r_epik_Metal_State_Penalty>
-0

> <b_epik_Metal_Only>
0

> <s_lp_Force_Field>
OPLS_2005

> <r_lp_Energy>
34.4311

> <b_lp_Chiralities_Consistent>
1

> <s_lp_Variant>
AV-unprocessed.smi:1923-1

> <Gold.Version>
5.8.1

> <Gold.Id.Protein>
6NUR|6NUR_protein|mol2

> <Gold.PLP.Fitness>
55.9805

> <Gold.PLP.PLP>
-48.6845

> <Gold.PLP.part.hbond>
-4.0000

> <Gold.PLP.part.metal>
0.0000

> <Gold.PLP.part.buried>
-3.0766

> <Gold.PLP.part.nonpolar>
-43.0971

> <Gold.PLP.part.repulsive>
0.6123

> <Gold.PLP.ligand.clash>
0.0000

> <Gold.PLP.ligand.torsion>
1.0291

> <Gold.PLP.Chemscore.Hbond>
2.9600

> <Gold.PLP.Chemscore.CHOScore>
0.0000

> <Gold.PLP.Chemscore.Metal>
0.0000

> <Gold.Chemscore.Hbonds>
donor molecule, donor type, donor heavy atom, donor atom, acceptor molecule, acceptor atom, score
      L1  H     5    55       P1  7948  2.00
      L1  H     8    38       P1  7948  0.94

> <Gold.PLP.Chemscore.Internal.Correction>
0.4741

> <Gold.Rescore>
     Score         DG    S(hbond)    S(metal)    S(lipo)     H(rot)  DE(clash)    DE(int)     intcor
     18.14     -21.09       1.90        0.00     114.21       1.60       0.57       2.38       ----

> <Gold.Chemscore.Fitness>
18.1444

> <Gold.Chemscore.DG>
-21.0948

> <Gold.Chemscore.ZeroCoef>
-5.4800

> <Gold.Chemscore.Hbond>
1.8988

> <Gold.Chemscore.Metal>
0.0000

> <Gold.Chemscore.Lipo>
114.2101

> <Gold.Chemscore.Internal_Hbond>
0.0000

> <Gold.Chemscore.DEClash>
0.5656

> <Gold.Chemscore.DEInternal>
2.3849

> <Gold.Chemscore.Rot>
1.5976

> <Gold.Chemscore.Internal.Correction>
   9.000000E+99

> <Gold.Chemscore.Hbonds>
donor molecule, donor type, donor heavy atom, donor atom, acceptor molecule, acceptor atom, score
      L1  H     5    55       P1  7948  0.99
      L1  H     8    38       P1  7948  0.92

> <Gold.Chemscore.Hbond.Weighted>
-6.3421

> <Gold.Chemscore.Metal.Weighted>
-0.0000

> <Gold.Chemscore.Lipo.Weighted>
-13.3626

> <Gold.Chemscore.Internal_Hbond.Weighted>
0.0000

> <Gold.Chemscore.DEClash.Weighted>
0.5656

> <Gold.Chemscore.DEInternal.Weighted>
2.3849

> <Gold.Chemscore.Rot.Weighted>
4.0899

> <Gold.Chemscore.Internal.Correction.Weighted>
   9.000000E+99

> <Gold.Protein.RotatedTorsions>
[ 6907 6896 6895 6894 ] final  -19.19 input  -60.11 | X-H torsion
[ 7974 7965 7964 7962 ] final  -16.21 input  175.53 | X-H torsion
[ 8008 7997 7996 7995 ] final -149.98 input   59.86 | X-H torsion
[ 10167 10162 10161 10158 ] final   82.05 input  -65.29 | X-H torsion
[ 10718 10713 10712 10709 ] final   93.22 input   66.30 | X-H torsion
[ 10763 10752 10751 10750 ] final  116.34 input  -60.55 | X-H torsion
[ 11005 11000 10999 10996 ] final   45.18 input  -57.11 | X-H torsion

> <Gold.Protein.ActiveResidues>
 VAL166  LYS551  ARG553  GLY616  TRP617  ASP618  TYR619  PRO620  LYS621  CYS622 
 ASP623  PHE694  ASN695  SER759  ASP760  ASP761  ALA762  ILE779  LEU786  VAL792 
 PHE793  MET794  SER795  GLU796  ALA797  LYS798  CYS799  TRP800  GLU811  SER814 

> <Gold.Protein.RotatedAtoms>
  151.2668  135.0672  159.9118 H   0  0  0  0  0  0  0  0  0  0  0  0  # atno 6907 bound_to 6896
  152.5357  134.0173  159.7976 H   0  0  0  0  0  0  0  0  0  0  0  0  # atno 6908 bound_to 6896
  151.0404  133.5661  159.2682 H   0  0  0  0  0  0  0  0  0  0  0  0  # atno 6909 bound_to 6896
  146.1998  140.3604  142.8427 H   0  0  0  0  0  0  0  0  0  0  0  0  # atno 7974 bound_to 7965
  155.6162  140.0677  157.2691 H   0  0  0  0  0  0  0  0  0  0  0  0  # atno 8008 bound_to 7997
  154.4241  140.1792  156.1372 H   0  0  0  0  0  0  0  0  0  0  0  0  # atno 8009 bound_to 7997
  156.0046  140.3333  155.6882 H   0  0  0  0  0  0  0  0  0  0  0  0  # atno 8010 bound_to 7997
  139.9329  144.6140  150.8327 H   0  0  0  0  0  0  0  0  0  0  0  0  # atno 10167 bound_to 10162
  157.6955  131.0470  150.4001 H   0  0  0  0  0  0  0  0  0  0  0  0  # atno 10718 bound_to 10713
  153.5358  135.3569  155.2696 H   0  0  0  0  0  0  0  0  0  0  0  0  # atno 10763 bound_to 10752
  154.8722  135.4079  154.3100 H   0  0  0  0  0  0  0  0  0  0  0  0  # atno 10764 bound_to 10752
  153.3797  135.7067  153.6642 H   0  0  0  0  0  0  0  0  0  0  0  0  # atno 10765 bound_to 10752
  140.1483  134.4494  155.8400 H   0  0  0  0  0  0  0  0  0  0  0  0  # atno 11005 bound_to 11000
  144.8658  140.7203  143.6078 LP  0  0  0  0  0  0  0  0  0  0  0  0  # atno 17320 bound_to 7965
  145.3523  139.1703  143.4428 LP  0  0  0  0  0  0  0  0  0  0  0  0  # atno 17321 bound_to 7965
  140.7632  143.3218  151.2605 LP  0  0  0  0  0  0  0  0  0  0  0  0  # atno 17342 bound_to 10162
  139.6768  143.9924  152.2785 LP  0  0  0  0  0  0  0  0  0  0  0  0  # atno 17343 bound_to 10162
  156.4395  130.3988  149.6707 LP  0  0  0  0  0  0  0  0  0  0  0  0  # atno 17370 bound_to 10713
  156.3895  130.7620  151.2620 LP  0  0  0  0  0  0  0  0  0  0  0  0  # atno 17371 bound_to 10713
  141.2195  133.6861  156.7374 LP  0  0  0  0  0  0  0  0  0  0  0  0  # atno 17394 bound_to 11000
  140.2636  134.8447  157.3782 LP  0  0  0  0  0  0  0  0  0  0  0  0  # atno 17395 bound_to 11000

$$$$
