AV-unprocessed.smi:287|AV-procd|sdf|2182|dock6
  -GOLD-   2262021553D 1   1.00000     0.00000
 Structure written by MMmdl.
 55 58  0  0  0  0  0  0  0  0  1 V2000
  153.8965  140.9622  160.8481 C   0  0  0  0  0  0  0  0  0  0  0  0
  152.8752  141.4548  159.8810 C   0  0  0  0  0  0  0  0  0  0  0  0
  151.8707  140.8545  159.1794 C   0  0  0  0  0  0  0  0  0  0  0  0
  151.2199  141.8680  158.4144 C   0  0  0  0  0  0  0  0  0  0  0  0
  150.0361  141.6612  157.4787 C   0  0  2  0  0  0  0  0  0  0  0  0
  150.4455  142.0043  156.0367 C   0  0  0  0  0  0  0  0  0  0  0  0
  148.9478  142.5159  157.7722 O   0  0  0  0  0  0  0  0  0  0  0  0
  149.4751  140.2219  157.5418 C   0  0  0  0  0  0  0  0  0  0  0  0
  148.4585  139.9612  156.5307 N   0  0  0  0  0  0  0  0  0  0  0  0
  148.0416  138.7034  156.2741 C   0  0  0  0  0  0  0  0  0  0  0  0
  148.7877  137.7180  156.8282 N   0  0  0  0  0  0  0  0  0  0  0  0
  148.4638  136.4371  156.6302 C   0  0  0  0  0  0  0  0  0  0  0  0
  147.4494  135.9322  155.9256 N   0  0  0  0  0  0  0  0  0  0  0  0
  146.6900  136.9191  155.3681 C   0  0  0  0  0  0  0  0  0  0  0  0
  146.9129  138.3205  155.4892 C   0  0  0  0  0  0  0  0  0  0  0  0
  145.9293  139.0002  154.7780 N   0  0  0  0  0  0  0  0  0  0  0  0
  145.1829  138.0579  154.2690 C   0  0  0  0  0  0  0  0  0  0  0  0
  145.5650  136.7723  154.5863 N   0  0  0  0  0  0  0  0  0  0  0  0
  144.9584  135.4664  154.1719 C   0  0  2  0  0  0  0  0  0  0  0  0
  145.1745  135.2994  152.8027 O   0  0  0  0  0  0  0  0  0  0  0  0
  144.0285  135.7440  152.0840 C   0  0  1  0  0  0  0  0  0  0  0  0
  144.0324  135.2154  150.6390 C   0  0  0  0  0  0  0  0  0  0  0  0
  145.3410  135.2614  150.1111 O   0  0  0  0  0  0  0  0  0  0  0  0
  142.8880  135.2389  152.9754 C   0  0  1  0  0  0  0  0  0  0  0  0
  142.6417  133.8626  152.7344 O   0  0  0  0  0  0  0  0  0  0  0  0
  143.4315  135.5038  154.3795 C   0  0  1  0  0  0  0  0  0  0  0  0
  142.9713  134.5636  155.3324 O   0  0  0  0  0  0  0  0  0  0  0  0
  151.9059  143.0224  158.7074 C   0  0  0  0  0  0  0  0  0  0  0  0
  151.7863  144.4428  158.2629 C   0  0  0  0  0  0  0  0  0  0  0  0
  152.9072  142.7809  159.5988 O   0  0  0  0  0  0  0  0  0  0  0  0
  145.4875  134.7124  154.7564 H   0  0  0  0  0  0  0  0  0  0  0  0
  144.0029  136.8355  152.0818 H   0  0  0  0  0  0  0  0  0  0  0  0
  141.9619  135.7855  152.7951 H   0  0  0  0  0  0  0  0  0  0  0  0
  143.1318  136.5036  154.6984 H   0  0  0  0  0  0  0  0  0  0  0  0
  153.6855  139.9358  161.1485 H   0  0  0  0  0  0  0  0  0  0  0  0
  153.9098  141.5804  161.7462 H   0  0  0  0  0  0  0  0  0  0  0  0
  154.8918  140.9872  160.4045 H   0  0  0  0  0  0  0  0  0  0  0  0
  151.6241  139.8037  159.2145 H   0  0  0  0  0  0  0  0  0  0  0  0
  151.2627  141.3676  155.6956 H   0  0  0  0  0  0  0  0  0  0  0  0
  150.7804  143.0392  155.9552 H   0  0  0  0  0  0  0  0  0  0  0  0
  149.6155  141.8695  155.3419 H   0  0  0  0  0  0  0  0  0  0  0  0
  149.0886  143.3415  157.3348 H   0  0  0  0  0  0  0  0  0  0  0  0
  150.2814  139.4908  157.4694 H   0  0  0  0  0  0  0  0  0  0  0  0
  149.0025  140.0776  158.5144 H   0  0  0  0  0  0  0  0  0  0  0  0
  148.0456  140.7793  156.1060 H   0  0  0  0  0  0  0  0  0  0  0  0
  149.1104  135.7133  157.1039 H   0  0  0  0  0  0  0  0  0  0  0  0
  144.3302  138.2841  153.6454 H   0  0  0  0  0  0  0  0  0  0  0  0
  143.6387  134.2001  150.5838 H   0  0  0  0  0  0  0  0  0  0  0  0
  143.4036  135.8440  150.0077 H   0  0  0  0  0  0  0  0  0  0  0  0
  145.2927  135.5594  149.2156 H   0  0  0  0  0  0  0  0  0  0  0  0
  142.8348  133.3842  153.5266 H   0  0  0  0  0  0  0  0  0  0  0  0
  142.9850  133.7061  154.9345 H   0  0  0  0  0  0  0  0  0  0  0  0
  151.7902  144.5090  157.1749 H   0  0  0  0  0  0  0  0  0  0  0  0
  152.6148  145.0452  158.6368 H   0  0  0  0  0  0  0  0  0  0  0  0
  150.8588  144.8843  158.6275 H   0  0  0  0  0  0  0  0  0  0  0  0
  1  2  1  0  0  0  0
  1 35  1  0  0  0  0
  1 36  1  0  0  0  0
  1 37  1  0  0  0  0
  2 30  1  0  0  0  0
  2  3  2  0  0  0  0
  3  4  1  0  0  0  0
  3 38  1  0  0  0  0
  4  5  1  0  0  0  0
  4 28  2  0  0  0  0
  5  6  1  0  0  0  0
  5  7  1  0  0  0  0
  5  8  1  0  0  0  0
  6 39  1  0  0  0  0
  6 40  1  0  0  0  0
  6 41  1  0  0  0  0
  7 42  1  0  0  0  0
  8  9  1  0  0  0  0
  8 43  1  0  0  0  0
  8 44  1  0  0  0  0
  9 10  1  0  0  0  0
  9 45  1  0  0  0  0
 10 15  1  0  0  0  0
 10 11  2  0  0  0  0
 11 12  1  0  0  0  0
 12 13  2  0  0  0  0
 12 46  1  0  0  0  0
 13 14  1  0  0  0  0
 14 18  1  0  0  0  0
 14 15  2  0  0  0  0
 15 16  1  0  0  0  0
 16 17  2  0  0  0  0
 17 18  1  0  0  0  0
 17 47  1  0  0  0  0
 18 19  1  0  0  0  0
 19 31  1  0  0  0  0
 19 26  1  0  0  0  0
 19 20  1  0  0  0  0
 20 21  1  0  0  0  0
 21 32  1  0  0  0  0
 21 22  1  0  0  0  0
 21 24  1  0  0  0  0
 22 23  1  0  0  0  0
 22 48  1  0  0  0  0
 22 49  1  0  0  0  0
 23 50  1  0  0  0  0
 24 33  1  0  0  0  0
 24 25  1  0  0  0  0
 24 26  1  0  0  0  0
 25 51  1  0  0  0  0
 26 34  1  0  0  0  0
 26 27  1  0  0  0  0
 27 52  1  0  0  0  0
 28 29  1  0  0  0  0
 28 30  1  0  0  0  0
 29 53  1  0  0  0  0
 29 54  1  0  0  0  0
 29 55  1  0  0  0  0
M  END
> <s_m_source_file>
AV-unprocessed.smi

> <i_m_source_file_index>
287

> <i_lp_mmshare_version>
43012

> <i_f3d_flags>
0

> <s_epik_input>
W0NIM11jMVtjSF1jKGMobzEpW0NIM10pW0NAQF0oW0NIM10pKFtPSF0pW0NIMl1bTkhdYyhuW2NIXW4yKWMoYzIzKW5bY0hdbjNbQ0BASF00T1tDQEhdKFtDSDJdW09IXSlbQ0BASF0oW09IXSlbQ0BIXTRbT0hd

> <s_epik_cmdline>
J2VwaWtfcHl0aG9uJywgJy1waCcsICc3LjAnLCAnLXRuJywgJzgnLCAnLW1hJywgJzIwMCcsICctbWV0YWxfYmluZGluZycsICctaW1hZScsICc8aW5maWxlLm1hZT4nLCAnLW9tYWUnLCAnPG91dGZpbGUubWFlPic=

> <r_lp_tautomer_probability>
1

> <r_epik_Ionization_Penalty>
0.000992612

> <r_epik_Ionization_Penalty_Charging>
0

> <r_epik_Ionization_Penalty_Neutral>
0.000992612

> <r_epik_State_Penalty>
-0

> <r_epik_Charging_Adjusted_Penalty>
0

> <i_epik_Tot_Q>
0

> <i_epik_Tot_abs_Q>
0

> <r_epik_Metal_State_Penalty>
-0

> <b_epik_Metal_Only>
0

> <s_epik_Chemistry_Notes>
This compound contains an acetal/aminal-like group ( X-CH(R)-Y where X, Y are N, S, or O) that may be acid/base labile, releasing an aldehyde.

> <s_lp_Force_Field>
OPLS_2005

> <r_lp_Energy>
45.3255

> <b_lp_Chiralities_Consistent>
1

> <s_lp_Variant>
AV-unprocessed.smi:287-6

> <Gold.Version>
5.8.1

> <Gold.Id.Protein>
6NUR|6NUR_protein|mol2

> <Gold.PLP.Fitness>
51.9761

> <Gold.PLP.PLP>
-38.8927

> <Gold.PLP.part.hbond>
-5.0000

> <Gold.PLP.part.metal>
0.0000

> <Gold.PLP.part.buried>
-8.0982

> <Gold.PLP.part.nonpolar>
-26.5453

> <Gold.PLP.part.repulsive>
0.1972

> <Gold.PLP.ligand.clash>
0.0000

> <Gold.PLP.ligand.torsion>
0.6811

> <Gold.PLP.Chemscore.Hbond>
3.8363

> <Gold.PLP.Chemscore.CHOScore>
0.9601

> <Gold.PLP.Chemscore.Metal>
0.0000

> <Gold.Chemscore.Hbonds>
donor molecule, donor type, donor heavy atom, donor atom, acceptor molecule, acceptor atom, score
      L1  H     7    42       P1  8028  0.67
      L1  H    23    50       P1  7921  0.59
      L1  H    25    51       P1 10957  0.96
      L1  H    27    52       P1 10957  1.00
      L1  C    17    47       P1 10175  0.95

> <Gold.PLP.Chemscore.Internal.Correction>
0.0564

> <Gold.Rescore>
     Score         DG    S(hbond)    S(metal)    S(lipo)     H(rot)  DE(clash)    DE(int)     intcor
     14.82     -15.62       3.90        0.00      90.51       5.27       0.10       0.70       ----

> <Gold.Chemscore.Fitness>
14.8194

> <Gold.Chemscore.DG>
-15.6220

> <Gold.Chemscore.ZeroCoef>
-5.4800

> <Gold.Chemscore.Hbond>
3.9032

> <Gold.Chemscore.Metal>
0.0000

> <Gold.Chemscore.Lipo>
90.5052

> <Gold.Chemscore.Internal_Hbond>
0.0000

> <Gold.Chemscore.DEClash>
0.1003

> <Gold.Chemscore.DEInternal>
0.7023

> <Gold.Chemscore.Rot>
5.2672

> <Gold.Chemscore.Internal.Correction>
   9.000000E+99

> <Gold.Chemscore.Hbonds>
donor molecule, donor type, donor heavy atom, donor atom, acceptor molecule, acceptor atom, score
      L1  H     7    42       P1  8028  0.36
      L1  H    23    50       P1  7921  0.60
      L1  H    25    51       P1 10957  0.86
      L1  H    27    52       P1 10957  0.97

> <Gold.Chemscore.Hbond.Weighted>
-13.0368

> <Gold.Chemscore.Metal.Weighted>
-0.0000

> <Gold.Chemscore.Lipo.Weighted>
-10.5891

> <Gold.Chemscore.Internal_Hbond.Weighted>
0.0000

> <Gold.Chemscore.DEClash.Weighted>
0.1003

> <Gold.Chemscore.DEInternal.Weighted>
0.7023

> <Gold.Chemscore.Rot.Weighted>
13.4839

> <Gold.Chemscore.Internal.Correction.Weighted>
   9.000000E+99

> <Gold.Protein.RotatedTorsions>
[ 6907 6896 6895 6894 ] final  145.87 input  -60.11 | X-H torsion
[ 7974 7965 7964 7962 ] final   11.18 input  175.53 | X-H torsion
[ 8008 7997 7996 7995 ] final  -67.82 input   59.86 | X-H torsion
[ 10167 10162 10161 10158 ] final -159.50 input  -65.29 | X-H torsion
[ 10718 10713 10712 10709 ] final -151.70 input   66.30 | X-H torsion
[ 10763 10752 10751 10750 ] final   25.27 input  -60.55 | X-H torsion
[ 11005 11000 10999 10996 ] final  179.36 input  -57.11 | X-H torsion

> <Gold.Protein.ActiveResidues>
 VAL166  LYS551  ARG553  GLY616  TRP617  ASP618  TYR619  PRO620  LYS621  CYS622 
 ASP623  PHE694  ASN695  SER759  ASP760  ASP761  ALA762  ILE779  LEU786  VAL792 
 PHE793  MET794  SER795  GLU796  ALA797  LYS798  CYS799  TRP800  GLU811  SER814 

> <Gold.Protein.RotatedAtoms>
  152.1753  133.4670  159.4929 H   0  0  0  0  0  0  0  0  0  0  0  0  # atno 6907 bound_to 6896
  150.6926  134.1902  159.4291 H   0  0  0  0  0  0  0  0  0  0  0  0  # atno 6908 bound_to 6896
  151.9811  135.0028  160.0608 H   0  0  0  0  0  0  0  0  0  0  0  0  # atno 6909 bound_to 6896
  146.2375  139.9524  142.8469 H   0  0  0  0  0  0  0  0  0  0  0  0  # atno 7974 bound_to 7965
  154.4826  140.0885  156.7412 H   0  0  0  0  0  0  0  0  0  0  0  0  # atno 8008 bound_to 7997
  155.4432  140.3454  155.4274 H   0  0  0  0  0  0  0  0  0  0  0  0  # atno 8009 bound_to 7997
  156.1214  140.1475  156.9188 H   0  0  0  0  0  0  0  0  0  0  0  0  # atno 8010 bound_to 7997
  139.6611  143.9912  152.2225 H   0  0  0  0  0  0  0  0  0  0  0  0  # atno 10167 bound_to 10162
  156.4628  130.8221  151.2452 H   0  0  0  0  0  0  0  0  0  0  0  0  # atno 10718 bound_to 10713
  153.0704  135.6587  154.0260 H   0  0  0  0  0  0  0  0  0  0  0  0  # atno 10763 bound_to 10752
  153.9907  135.2946  155.3413 H   0  0  0  0  0  0  0  0  0  0  0  0  # atno 10764 bound_to 10752
  154.7076  135.5218  153.8688 H   0  0  0  0  0  0  0  0  0  0  0  0  # atno 10765 bound_to 10752
  140.4053  134.6741  157.4584 H   0  0  0  0  0  0  0  0  0  0  0  0  # atno 11005 bound_to 11000
  145.1849  140.9784  143.4245 LP  0  0  0  0  0  0  0  0  0  0  0  0  # atno 17320 bound_to 7965
  144.9909  139.3690  143.6215 LP  0  0  0  0  0  0  0  0  0  0  0  0  # atno 17321 bound_to 7965
  139.9651  144.6532  150.8042 LP  0  0  0  0  0  0  0  0  0  0  0  0  # atno 17342 bound_to 10162
  140.7580  143.3098  151.2872 LP  0  0  0  0  0  0  0  0  0  0  0  0  # atno 17343 bound_to 10162
  157.7497  131.0102  150.3295 LP  0  0  0  0  0  0  0  0  0  0  0  0  # atno 17370 bound_to 10713
  156.3699  130.3861  149.7184 LP  0  0  0  0  0  0  0  0  0  0  0  0  # atno 17371 bound_to 10713
  140.0307  134.6411  155.9111 LP  0  0  0  0  0  0  0  0  0  0  0  0  # atno 17394 bound_to 11000
  141.1842  133.6552  156.5146 LP  0  0  0  0  0  0  0  0  0  0  0  0  # atno 17395 bound_to 11000

$$$$
