AV-unprocessed.smi:1985|AV-procd|sdf|8045|dock1
  -GOLD-   2272010243D 1   1.00000     0.00000
 Structure written by MMmdl.
 51 52  0  0  0  0  0  0  0  0  2 V2000
  146.0309  133.7618  156.5297 C   0  0  0  0  0  0  0  0  0  0  0  0
  145.8506  133.6783  155.0035 C   0  0  0  0  0  0  0  0  0  0  0  0
  146.7204  134.6666  154.1678 C   0  0  2  0  0  0  0  0  0  0  0  0
  148.2068  134.3888  154.5175 C   0  0  0  0  0  0  0  0  0  0  0  0
  146.3648  136.1265  154.5782 C   0  0  0  0  0  0  0  0  0  0  0  0
  147.3309  137.1070  154.0914 N   0  0  0  0  0  0  0  0  0  0  0  0
  147.2291  138.4301  154.2789 C   0  0  0  0  0  0  0  0  0  0  0  0
  146.3172  138.9484  154.9245 O   0  0  0  0  0  0  0  0  0  0  0  0
  148.3357  139.2855  153.6458 C   0  0  0  0  0  0  0  0  0  0  0  0
  149.6081  139.2294  154.3779 N   0  0  0  0  0  0  0  0  0  0  0  0
  150.4603  138.1572  154.1867 C   0  0  0  0  0  0  0  0  0  0  0  0
  151.6417  138.0210  154.8273 C   0  0  0  0  0  0  0  0  0  0  0  0
  152.0960  139.0264  155.7797 C   0  0  0  0  0  0  0  0  0  0  0  0
  153.1543  138.9355  156.4034 O   0  0  0  0  0  0  0  0  0  0  0  0
  151.2143  140.1198  155.9462 N   0  0  0  0  0  0  0  0  0  0  0  0
  151.5952  141.1411  156.9000 C   0  0  0  0  0  0  0  0  0  0  0  0
  149.9712  140.2494  155.2848 C   0  0  0  0  0  0  0  0  0  0  0  0
  149.2156  141.2037  155.4848 O   0  0  0  0  0  0  0  0  0  0  0  0
  146.4788  134.4527  152.6935 N   0  3  0  0  0  0  0  0  0  0  0  0
  146.6212  133.0503  152.2082 C   0  0  0  0  0  0  0  0  0  0  0  0
  146.5531  133.0006  150.6736 C   0  0  0  0  0  0  0  0  0  0  0  0
  145.3194  133.5522  150.2366 O   0  0  0  0  0  0  0  0  0  0  0  0
  145.1927  134.9163  150.6113 C   0  0  0  0  0  0  0  0  0  0  0  0
  145.2252  135.0439  152.1439 C   0  0  0  0  0  0  0  0  0  0  0  0
  145.3885  133.0356  157.0283 H   0  0  0  0  0  0  0  0  0  0  0  0
  145.7649  134.7452  156.9162 H   0  0  0  0  0  0  0  0  0  0  0  0
  147.0560  133.5463  156.8310 H   0  0  0  0  0  0  0  0  0  0  0  0
  146.0261  132.6513  154.6841 H   0  0  0  0  0  0  0  0  0  0  0  0
  144.7951  133.8487  154.7884 H   0  0  0  0  0  0  0  0  0  0  0  0
  148.3609  134.3031  155.5937 H   0  0  0  0  0  0  0  0  0  0  0  0
  148.8630  135.1907  154.1782 H   0  0  0  0  0  0  0  0  0  0  0  0
  148.5620  133.4605  154.0691 H   0  0  0  0  0  0  0  0  0  0  0  0
  145.3860  136.4114  154.1923 H   0  0  0  0  0  0  0  0  0  0  0  0
  146.3118  136.2142  155.6639 H   0  0  0  0  0  0  0  0  0  0  0  0
  148.1130  136.7594  153.5554 H   0  0  0  0  0  0  0  0  0  0  0  0
  148.4812  138.9492  152.6183 H   0  0  0  0  0  0  0  0  0  0  0  0
  147.9982  140.3208  153.5716 H   0  0  0  0  0  0  0  0  0  0  0  0
  150.1667  137.3826  153.4932 H   0  0  0  0  0  0  0  0  0  0  0  0
  152.2577  137.1548  154.6347 H   0  0  0  0  0  0  0  0  0  0  0  0
  151.1011  142.0834  156.6616 H   0  0  0  0  0  0  0  0  0  0  0  0
  152.6729  141.3004  156.8368 H   0  0  0  0  0  0  0  0  0  0  0  0
  151.3010  140.7779  157.8857 H   0  0  0  0  0  0  0  0  0  0  0  0
  147.5683  132.6132  152.5183 H   0  0  0  0  0  0  0  0  0  0  0  0
  145.8275  132.4248  152.6173 H   0  0  0  0  0  0  0  0  0  0  0  0
  147.3899  133.5398  150.2265 H   0  0  0  0  0  0  0  0  0  0  0  0
  146.6185  131.9686  150.3284 H   0  0  0  0  0  0  0  0  0  0  0  0
  145.9882  135.5076  150.1547 H   0  0  0  0  0  0  0  0  0  0  0  0
  144.2496  135.3015  150.2232 H   0  0  0  0  0  0  0  0  0  0  0  0
  144.3538  134.5454  152.5689 H   0  0  0  0  0  0  0  0  0  0  0  0
  145.1399  136.1020  152.3838 H   0  0  0  0  0  0  0  0  0  0  0  0
  147.2238  134.9642  152.2422 H   0  0  0  0  0  0  0  0  0  0  0  0
  1  2  1  0  0  0  0
  1 25  1  0  0  0  0
  1 26  1  0  0  0  0
  1 27  1  0  0  0  0
  2  3  1  0  0  0  0
  2 28  1  0  0  0  0
  2 29  1  0  0  0  0
  3  4  1  0  0  0  0
  3  5  1  0  0  0  0
  3 19  1  0  0  0  0
  4 30  1  0  0  0  0
  4 31  1  0  0  0  0
  4 32  1  0  0  0  0
  5  6  1  0  0  0  0
  5 33  1  0  0  0  0
  5 34  1  0  0  0  0
  6  7  1  0  0  0  0
  6 35  1  0  0  0  0
  7  8  2  0  0  0  0
  7  9  1  0  0  0  0
  9 10  1  0  0  0  0
  9 36  1  0  0  0  0
  9 37  1  0  0  0  0
 10 17  1  0  0  0  0
 10 11  1  0  0  0  0
 11 12  2  0  0  0  0
 11 38  1  0  0  0  0
 12 13  1  0  0  0  0
 12 39  1  0  0  0  0
 13 14  2  0  0  0  0
 13 15  1  0  0  0  0
 15 16  1  0  0  0  0
 15 17  1  0  0  0  0
 16 40  1  0  0  0  0
 16 41  1  0  0  0  0
 16 42  1  0  0  0  0
 17 18  2  0  0  0  0
 19 24  1  0  0  0  0
 19 20  1  0  0  0  0
 19 51  1  0  0  0  0
 20 21  1  0  0  0  0
 20 43  1  0  0  0  0
 20 44  1  0  0  0  0
 21 22  1  0  0  0  0
 21 45  1  0  0  0  0
 21 46  1  0  0  0  0
 22 23  1  0  0  0  0
 23 24  1  0  0  0  0
 23 47  1  0  0  0  0
 23 48  1  0  0  0  0
 24 49  1  0  0  0  0
 24 50  1  0  0  0  0
M  CHG  1  19   1
M  END
> <s_m_source_file>
AV-unprocessed.smi

> <i_m_source_file_index>
1985

> <i_lp_mmshare_version>
43012

> <i_f3d_flags>
0

> <s_epik_input>
W0NIMl0xW0NIMl1PW0NIMl1bQ0gyXU4xW0NAQF0oW0NIM10pKFtDSDJdW0NIM10pW0NIMl1bTkhdQyg9TylbQ0gyXW4yW2NIXVtjSF1jKD1PKW4oW0NIM10pYzI9Tw==

> <s_epik_cmdline>
J2VwaWtfcHl0aG9uJywgJy1waCcsICc3LjAnLCAnLXRuJywgJzgnLCAnLW1hJywgJzIwMCcsICctbWV0YWxfYmluZGluZycsICctaW1hZScsICc8aW5maWxlLm1hZT4nLCAnLW9tYWUnLCAnPG91dGZpbGUubWFlPic=

> <r_lp_tautomer_probability>
1

> <r_epik_Ionization_Penalty>
0.519658

> <r_epik_Ionization_Penalty_Charging>
0.519658

> <r_epik_Ionization_Penalty_Neutral>
8.70177e-08

> <r_epik_State_Penalty>
0.527569

> <r_epik_Charging_Adjusted_Penalty>
1.04723

> <i_epik_Tot_Q>
1

> <i_epik_Tot_abs_Q>
1

> <r_epik_Metal_State_Penalty>
0.527613

> <b_epik_Metal_Only>
0

> <s_lp_Force_Field>
OPLS_2005

> <r_lp_Energy>
37.4979

> <b_lp_Chiralities_Consistent>
1

> <s_lp_Variant>
AV-unprocessed.smi:1985-4

> <Gold.Version>
5.8.1

> <Gold.Id.Protein>
6NUR|6NUR_protein|mol2

> <Gold.PLP.Fitness>
47.4399

> <Gold.PLP.PLP>
-33.4867

> <Gold.PLP.part.hbond>
-2.7800

> <Gold.PLP.part.metal>
0.0000

> <Gold.PLP.part.buried>
-1.3573

> <Gold.PLP.part.nonpolar>
-29.8462

> <Gold.PLP.part.repulsive>
1.1751

> <Gold.PLP.ligand.clash>
0.0000

> <Gold.PLP.ligand.torsion>
0.8734

> <Gold.PLP.Chemscore.Hbond>
3.9913

> <Gold.PLP.Chemscore.CHOScore>
1.0868

> <Gold.PLP.Chemscore.Metal>
0.0000

> <Gold.Chemscore.Hbonds>
donor molecule, donor type, donor heavy atom, donor atom, acceptor molecule, acceptor atom, score
      L1  H     6    35       P1  7948  1.00
      L1  H    19    51       P1  7948  1.43
      P1  H  7997  8009       L1    14  1.00
      L1  C    11    38       P1  7948  0.98
      L1  C    11    38       P1  7949  0.13

> <Gold.PLP.Chemscore.Internal.Correction>
0.4659

> <Gold.Rescore>
     Score         DG    S(hbond)    S(metal)    S(lipo)     H(rot)  DE(clash)    DE(int)     intcor
     13.48     -14.71       2.42        0.00      59.40       2.27       0.30       0.93       ----

> <Gold.Chemscore.Fitness>
13.4765

> <Gold.Chemscore.DG>
-14.7058

> <Gold.Chemscore.ZeroCoef>
-5.4800

> <Gold.Chemscore.Hbond>
2.4233

> <Gold.Chemscore.Metal>
0.0000

> <Gold.Chemscore.Lipo>
59.3970

> <Gold.Chemscore.Internal_Hbond>
0.0000

> <Gold.Chemscore.DEClash>
0.3025

> <Gold.Chemscore.DEInternal>
0.9268

> <Gold.Chemscore.Rot>
2.2724

> <Gold.Chemscore.Internal.Correction>
   9.000000E+99

> <Gold.Chemscore.Hbonds>
donor molecule, donor type, donor heavy atom, donor atom, acceptor molecule, acceptor atom, score
      L1  H     6    35       P1  7948  0.95
      L1  H    19    51       P1  7948  0.70
      P1  H  7997  8009       L1    14  0.97

> <Gold.Chemscore.Hbond.Weighted>
-8.0937

> <Gold.Chemscore.Metal.Weighted>
-0.0000

> <Gold.Chemscore.Lipo.Weighted>
-6.9494

> <Gold.Chemscore.Internal_Hbond.Weighted>
0.0000

> <Gold.Chemscore.DEClash.Weighted>
0.3025

> <Gold.Chemscore.DEInternal.Weighted>
0.9268

> <Gold.Chemscore.Rot.Weighted>
5.8174

> <Gold.Chemscore.Internal.Correction.Weighted>
   9.000000E+99

> <Gold.Protein.RotatedTorsions>
[ 6907 6896 6895 6894 ] final   69.80 input  -60.11 | X-H torsion
[ 7974 7965 7964 7962 ] final   40.67 input  175.53 | X-H torsion
[ 8008 7997 7996 7995 ] final  179.50 input   59.86 | X-H torsion
[ 10167 10162 10161 10158 ] final -107.33 input  -65.29 | X-H torsion
[ 10718 10713 10712 10709 ] final   17.70 input   66.30 | X-H torsion
[ 10763 10752 10751 10750 ] final  165.53 input  -60.55 | X-H torsion
[ 11005 11000 10999 10996 ] final  -94.99 input  -57.11 | X-H torsion

> <Gold.Protein.ActiveResidues>
 VAL166  LYS551  ARG553  GLY616  TRP617  ASP618  TYR619  PRO620  LYS621  CYS622 
 ASP623  PHE694  ASN695  SER759  ASP760  ASP761  ALA762  ILE779  LEU786  VAL792 
 PHE793  MET794  SER795  GLU796  ALA797  LYS798  CYS799  TRP800  GLU811  SER814 

> <Gold.Protein.RotatedAtoms>
  152.4709  134.4962  159.9710 H   0  0  0  0  0  0  0  0  0  0  0  0  # atno 6907 bound_to 6896
  151.4989  133.3502  159.2873 H   0  0  0  0  0  0  0  0  0  0  0  0  # atno 6908 bound_to 6896
  150.8719  134.8122  159.7222 H   0  0  0  0  0  0  0  0  0  0  0  0  # atno 6909 bound_to 6896
  146.0886  139.5505  142.9491 H   0  0  0  0  0  0  0  0  0  0  0  0  # atno 7974 bound_to 7965
  156.0426  140.1307  157.0138 H   0  0  0  0  0  0  0  0  0  0  0  0  # atno 8008 bound_to 7997
  154.4398  140.1027  156.6330 H   0  0  0  0  0  0  0  0  0  0  0  0  # atno 8009 bound_to 7997
  155.5643  140.3465  155.4501 H   0  0  0  0  0  0  0  0  0  0  0  0  # atno 8010 bound_to 7997
  140.1782  143.3988  152.1302 H   0  0  0  0  0  0  0  0  0  0  0  0  # atno 10167 bound_to 10162
  157.0859  130.6407  149.5837 H   0  0  0  0  0  0  0  0  0  0  0  0  # atno 10718 bound_to 10713
  154.3254  135.2755  155.2498 H   0  0  0  0  0  0  0  0  0  0  0  0  # atno 10763 bound_to 10752
  154.4834  135.5852  153.6409 H   0  0  0  0  0  0  0  0  0  0  0  0  # atno 10764 bound_to 10752
  152.9872  135.6117  154.3442 H   0  0  0  0  0  0  0  0  0  0  0  0  # atno 10765 bound_to 10752
  141.1455  133.7994  157.0373 H   0  0  0  0  0  0  0  0  0  0  0  0  # atno 11005 bound_to 11000
  145.6083  141.0344  143.1980 LP  0  0  0  0  0  0  0  0  0  0  0  0  # atno 17320 bound_to 7965
  144.7343  139.7631  143.7335 LP  0  0  0  0  0  0  0  0  0  0  0  0  # atno 17321 bound_to 7965
  139.5308  144.7156  151.5064 LP  0  0  0  0  0  0  0  0  0  0  0  0  # atno 17342 bound_to 10162
  140.6537  143.8643  150.6813 LP  0  0  0  0  0  0  0  0  0  0  0  0  # atno 17343 bound_to 10162
  155.9911  130.4964  150.7284 LP  0  0  0  0  0  0  0  0  0  0  0  0  # atno 17370 bound_to 10713
  157.4762  131.0898  151.0588 LP  0  0  0  0  0  0  0  0  0  0  0  0  # atno 17371 bound_to 10713
  140.0715  134.9699  157.1475 LP  0  0  0  0  0  0  0  0  0  0  0  0  # atno 17394 bound_to 11000
  140.3704  134.2396  155.7178 LP  0  0  0  0  0  0  0  0  0  0  0  0  # atno 17395 bound_to 11000

$$$$
