AV-unprocessed.smi:1165|AV-procd|sdf|4928|dock8
  -GOLD-   22720 3513D 1   1.00000     0.00000
 Structure written by MMmdl.
 41 42  0  0  0  0  0  0  0  0  1 V2000
  152.1457  138.4496  154.4278 C   0  0  0  0  0  0  0  0  0  0  0  0
  150.7420  138.9072  154.8381 C   0  0  2  0  0  0  0  0  0  0  0  0
  149.6793  137.8347  154.5444 C   0  0  0  0  0  0  0  0  0  0  0  0
  148.3309  138.3511  154.8253 N   0  0  0  0  0  0  0  0  0  0  0  0
  147.0357  137.2109  154.9729 S   0  0  0  0  0  0  0  0  0  0  0  0
  147.5160  136.0485  155.7357 O   0  0  0  0  0  0  0  0  0  0  0  0
  145.8225  137.9402  155.3717 O   0  0  0  0  0  0  0  0  0  0  0  0
  146.8786  136.7421  153.3195 N   0  0  0  0  0  0  0  0  0  0  0  0
  145.8580  135.7659  152.9402 C   0  0  0  0  0  0  0  0  0  0  0  0
  146.5150  134.4552  152.4925 C   0  0  0  0  0  0  0  0  0  0  0  0
  145.5416  133.5578  151.7547 C   0  0  0  0  0  0  0  0  0  0  0  0
  144.1605  133.8417  151.7420 C   0  0  0  0  0  0  0  0  0  0  0  0
  143.2963  132.9730  151.0480 C   0  0  0  0  0  0  0  0  0  0  0  0
  143.8516  131.8539  150.3957 C   0  0  0  0  0  0  0  0  0  0  0  0
  145.1723  131.5716  150.4023 N   0  0  0  0  0  0  0  0  0  0  0  0
  145.9942  132.4100  151.0695 C   0  0  0  0  0  0  0  0  0  0  0  0
  148.0463  139.6223  154.1441 C   0  0  0  0  0  0  0  0  0  0  0  0
  149.1596  140.6559  154.4026 C   0  0  1  0  0  0  0  0  0  0  0  0
  149.0966  141.2765  155.8103 C   0  0  0  0  0  0  0  0  0  0  0  0
  150.4403  140.0972  154.1177 O   0  0  0  0  0  0  0  0  0  0  0  0
  152.4353  137.5434  154.9606 H   0  0  0  0  0  0  0  0  0  0  0  0
  152.8860  139.2177  154.6520 H   0  0  0  0  0  0  0  0  0  0  0  0
  152.1960  138.2406  153.3588 H   0  0  0  0  0  0  0  0  0  0  0  0
  150.7593  139.1174  155.9077 H   0  0  0  0  0  0  0  0  0  0  0  0
  149.7262  137.5253  153.4994 H   0  0  0  0  0  0  0  0  0  0  0  0
  149.8748  136.9478  155.1469 H   0  0  0  0  0  0  0  0  0  0  0  0
  147.7772  136.6078  152.8569 H   0  0  0  0  0  0  0  0  0  0  0  0
  145.2006  135.5832  153.7908 H   0  0  0  0  0  0  0  0  0  0  0  0
  145.2448  136.1810  152.1395 H   0  0  0  0  0  0  0  0  0  0  0  0
  147.3694  134.6645  151.8470 H   0  0  0  0  0  0  0  0  0  0  0  0
  146.9053  133.9163  153.3569 H   0  0  0  0  0  0  0  0  0  0  0  0
  143.7685  134.7073  152.2558 H   0  0  0  0  0  0  0  0  0  0  0  0
  142.2328  133.1590  151.0172 H   0  0  0  0  0  0  0  0  0  0  0  0
  143.2179  131.1669  149.8546 H   0  0  0  0  0  0  0  0  0  0  0  0
  147.0439  132.1554  151.0590 H   0  0  0  0  0  0  0  0  0  0  0  0
  147.9586  139.4287  153.0744 H   0  0  0  0  0  0  0  0  0  0  0  0
  147.0850  140.0178  154.4726 H   0  0  0  0  0  0  0  0  0  0  0  0
  149.0232  141.4728  153.6935 H   0  0  0  0  0  0  0  0  0  0  0  0
  148.1652  141.8260  155.9482 H   0  0  0  0  0  0  0  0  0  0  0  0
  149.9179  141.9767  155.9642 H   0  0  0  0  0  0  0  0  0  0  0  0
  149.1446  140.5238  156.5970 H   0  0  0  0  0  0  0  0  0  0  0  0
  1  2  1  0  0  0  0
  1 21  1  0  0  0  0
  1 22  1  0  0  0  0
  1 23  1  0  0  0  0
  2 20  1  0  0  0  0
  2  3  1  0  0  0  0
  2 24  1  0  0  0  0
  3  4  1  0  0  0  0
  3 25  1  0  0  0  0
  3 26  1  0  0  0  0
  4  5  1  0  0  0  0
  4 17  1  0  0  0  0
  5  6  2  0  0  0  0
  5  7  2  0  0  0  0
  5  8  1  0  0  0  0
  8  9  1  0  0  0  0
  8 27  1  0  0  0  0
  9 10  1  0  0  0  0
  9 28  1  0  0  0  0
  9 29  1  0  0  0  0
 10 11  1  0  0  0  0
 10 30  1  0  0  0  0
 10 31  1  0  0  0  0
 11 16  1  0  0  0  0
 11 12  2  0  0  0  0
 12 13  1  0  0  0  0
 12 32  1  0  0  0  0
 13 14  2  0  0  0  0
 13 33  1  0  0  0  0
 14 15  1  0  0  0  0
 14 34  1  0  0  0  0
 15 16  2  0  0  0  0
 16 35  1  0  0  0  0
 17 18  1  0  0  0  0
 17 36  1  0  0  0  0
 17 37  1  0  0  0  0
 18 19  1  0  0  0  0
 18 20  1  0  0  0  0
 18 38  1  0  0  0  0
 19 39  1  0  0  0  0
 19 40  1  0  0  0  0
 19 41  1  0  0  0  0
M  END
> <s_m_source_file>
AV-unprocessed.smi

> <i_m_source_file_index>
1165

> <i_lp_mmshare_version>
43012

> <i_f3d_flags>
0

> <s_epik_input>
W0NIM11bQ0BASF0xW0NIMl1OKFtDSDJdW0NASF0oTzEpW0NIM10pUyg9TykoPU8pW05IXVtDSDJdW0NIMl1jMltjSF1bY0hdW2NIXW5bY0hdMg==

> <s_epik_cmdline>
J2VwaWtfcHl0aG9uJywgJy1waCcsICc3LjAnLCAnLXRuJywgJzgnLCAnLW1hJywgJzIwMCcsICctbWV0YWxfYmluZGluZycsICctaW1hZScsICc8aW5maWxlLm1hZT4nLCAnLW9tYWUnLCAnPG91dGZpbGUubWFlPic=

> <r_epik_Ionization_Penalty>
0.0861056

> <r_epik_Ionization_Penalty_Charging>
0

> <r_epik_Ionization_Penalty_Neutral>
0.0861056

> <r_epik_State_Penalty>
0.0574425

> <r_epik_Charging_Adjusted_Penalty>
0.0574425

> <i_epik_Tot_Q>
0

> <i_epik_Tot_abs_Q>
0

> <r_epik_Metal_State_Penalty>
0.317425

> <b_epik_Metal_Only>
0

> <s_lp_Force_Field>
OPLS_2005

> <r_lp_Energy>
8.25328

> <b_lp_Chiralities_Consistent>
1

> <s_lp_Variant>
AV-unprocessed.smi:1165-1

> <Gold.Version>
5.8.1

> <Gold.Id.Protein>
6NUR|6NUR_protein|mol2

> <Gold.PLP.Fitness>
40.8751

> <Gold.PLP.PLP>
-29.8921

> <Gold.PLP.part.hbond>
-1.8985

> <Gold.PLP.part.metal>
0.0000

> <Gold.PLP.part.buried>
-3.3283

> <Gold.PLP.part.nonpolar>
-25.3383

> <Gold.PLP.part.repulsive>
0.8306

> <Gold.PLP.ligand.clash>
0.0000

> <Gold.PLP.ligand.torsion>
0.9243

> <Gold.PLP.Chemscore.Hbond>
2.0000

> <Gold.PLP.Chemscore.CHOScore>
2.0000

> <Gold.PLP.Chemscore.Metal>
0.0000

> <Gold.Chemscore.Hbonds>
donor molecule, donor type, donor heavy atom, donor atom, acceptor molecule, acceptor atom, score
      L1  H     8    27       P1  7948  1.00
      P1  H  7989  7998       L1    20  1.00
      L1  C    14    34       P1 10952  0.95
      L1  C    16    35       P1 10747  1.00

> <Gold.PLP.Chemscore.Internal.Correction>
0.8316

> <Gold.Rescore>
     Score         DG    S(hbond)    S(metal)    S(lipo)     H(rot)  DE(clash)    DE(int)     intcor
     16.25     -17.15       1.95        0.00      81.37       1.71       0.13       0.77       ----

> <Gold.Chemscore.Fitness>
16.2485

> <Gold.Chemscore.DG>
-17.1484

> <Gold.Chemscore.ZeroCoef>
-5.4800

> <Gold.Chemscore.Hbond>
1.9507

> <Gold.Chemscore.Metal>
0.0000

> <Gold.Chemscore.Lipo>
81.3710

> <Gold.Chemscore.Internal_Hbond>
0.0000

> <Gold.Chemscore.DEClash>
0.1312

> <Gold.Chemscore.DEInternal>
0.7686

> <Gold.Chemscore.Rot>
1.7060

> <Gold.Chemscore.Internal.Correction>
   9.000000E+99

> <Gold.Chemscore.Hbonds>
donor molecule, donor type, donor heavy atom, donor atom, acceptor molecule, acceptor atom, score
      L1  H     8    27       P1  7948  0.98
      P1  H  7989  7998       L1    20  0.88

> <Gold.Chemscore.Hbond.Weighted>
-6.5153

> <Gold.Chemscore.Metal.Weighted>
-0.0000

> <Gold.Chemscore.Lipo.Weighted>
-9.5204

> <Gold.Chemscore.Internal_Hbond.Weighted>
0.0000

> <Gold.Chemscore.DEClash.Weighted>
0.1312

> <Gold.Chemscore.DEInternal.Weighted>
0.7686

> <Gold.Chemscore.Rot.Weighted>
4.3674

> <Gold.Chemscore.Internal.Correction.Weighted>
   9.000000E+99

> <Gold.Protein.RotatedTorsions>
[ 6907 6896 6895 6894 ] final  -82.63 input  -60.11 | X-H torsion
[ 7974 7965 7964 7962 ] final  -31.28 input  175.53 | X-H torsion
[ 8008 7997 7996 7995 ] final  171.85 input   59.86 | X-H torsion
[ 10167 10162 10161 10158 ] final   23.25 input  -65.29 | X-H torsion
[ 10718 10713 10712 10709 ] final -159.07 input   66.30 | X-H torsion
[ 10763 10752 10751 10750 ] final   61.61 input  -60.55 | X-H torsion
[ 11005 11000 10999 10996 ] final   84.03 input  -57.11 | X-H torsion

> <Gold.Protein.ActiveResidues>
 VAL166  LYS551  ARG553  GLY616  TRP617  ASP618  TYR619  PRO620  LYS621  CYS622 
 ASP623  PHE694  ASN695  SER759  ASP760  ASP761  ALA762  ILE779  LEU786  VAL792 
 PHE793  MET794  SER795  GLU796  ALA797  LYS798  CYS799  TRP800  GLU811  SER814 

> <Gold.Protein.RotatedAtoms>
  150.6895  134.3636  159.4960 H   0  0  0  0  0  0  0  0  0  0  0  0  # atno 6907 bound_to 6896
  152.1461  134.9022  160.0560 H   0  0  0  0  0  0  0  0  0  0  0  0  # atno 6908 bound_to 6896
  152.0137  133.3836  159.4267 H   0  0  0  0  0  0  0  0  0  0  0  0  # atno 6909 bound_to 6896
  146.1079  140.5647  142.8791 H   0  0  0  0  0  0  0  0  0  0  0  0  # atno 7974 bound_to 7965
  156.1232  140.1501  156.9174 H   0  0  0  0  0  0  0  0  0  0  0  0  # atno 8008 bound_to 7997
  154.4851  140.0867  156.7509 H   0  0  0  0  0  0  0  0  0  0  0  0  # atno 8009 bound_to 7997
  155.4391  140.3430  155.4290 H   0  0  0  0  0  0  0  0  0  0  0  0  # atno 8010 bound_to 7997
  140.5284  143.9883  150.6452 H   0  0  0  0  0  0  0  0  0  0  0  0  # atno 10167 bound_to 10162
  156.5629  130.8655  151.2815 H   0  0  0  0  0  0  0  0  0  0  0  0  # atno 10718 bound_to 10713
  152.9956  135.5494  154.6061 H   0  0  0  0  0  0  0  0  0  0  0  0  # atno 10763 bound_to 10752
  154.5392  135.2818  155.1113 H   0  0  0  0  0  0  0  0  0  0  0  0  # atno 10764 bound_to 10752
  154.2397  135.6418  153.5256 H   0  0  0  0  0  0  0  0  0  0  0  0  # atno 10765 bound_to 10752
  139.9012  134.8187  156.2390 H   0  0  0  0  0  0  0  0  0  0  0  0  # atno 11005 bound_to 11000
  144.7486  140.5134  143.6818 LP  0  0  0  0  0  0  0  0  0  0  0  0  # atno 17320 bound_to 7965
  145.5723  139.1484  143.3281 LP  0  0  0  0  0  0  0  0  0  0  0  0  # atno 17321 bound_to 7965
  140.3251  143.3112  152.0744 LP  0  0  0  0  0  0  0  0  0  0  0  0  # atno 17342 bound_to 10162
  139.4946  144.6547  151.6599 LP  0  0  0  0  0  0  0  0  0  0  0  0  # atno 17343 bound_to 10162
  157.7364  130.9779  150.2137 LP  0  0  0  0  0  0  0  0  0  0  0  0  # atno 17370 bound_to 10713
  156.2782  130.3730  149.7961 LP  0  0  0  0  0  0  0  0  0  0  0  0  # atno 17371 bound_to 10713
  141.0297  133.6995  156.1409 LP  0  0  0  0  0  0  0  0  0  0  0  0  # atno 17394 bound_to 11000
  140.7114  134.4457  157.5581 LP  0  0  0  0  0  0  0  0  0  0  0  0  # atno 17395 bound_to 11000

$$$$
