AV-unprocessed.smi:2796|AV-procd|sdf|10782|dock6
  -GOLD-   2272015213D 1   1.00000     0.00000
 Structure written by MMmdl.
 27 28  0  0  0  0  0  0  0  0  1 V2000
  154.8503  134.0855  162.1686 N   0  0  0  0  0  0  0  0  0  0  0  0
  154.5683  135.1566  161.8332 C   0  0  0  0  0  0  0  0  0  0  0  0
  154.2136  136.5015  161.4132 C   0  0  0  0  0  0  0  0  0  0  0  0
  154.9073  137.6044  161.9538 C   0  0  0  0  0  0  0  0  0  0  0  0
  154.5481  138.9005  161.5364 C   0  0  0  0  0  0  0  0  0  0  0  0
  153.5069  139.0529  160.5917 C   0  0  0  0  0  0  0  0  0  0  0  0
  153.0721  140.2980  160.1159 N   0  0  0  0  0  0  0  0  0  0  0  0
  153.7089  141.5277  160.5640 C   0  0  0  0  0  0  0  0  0  0  0  0
  152.9169  142.7699  160.2068 C   0  0  0  0  0  0  0  0  0  0  0  0
  152.3158  143.5713  161.1102 C   0  0  0  0  0  0  0  0  0  0  0  0
  151.6676  144.7341  160.7786 O   0  0  0  0  0  0  0  0  0  0  0  0
  151.9262  145.1923  159.4559 C   0  0  0  0  0  0  0  0  0  0  0  0
  151.9164  144.0161  158.4661 C   0  0  0  0  0  0  0  0  0  0  0  0
  152.8542  143.0165  158.8552 O   0  0  0  0  0  0  0  0  0  0  0  0
  152.8802  137.8826  160.1141 C   0  0  0  0  0  0  0  0  0  0  0  0
  153.2188  136.6368  160.5095 N   0  0  0  0  0  0  0  0  0  0  0  0
  155.6996  137.4655  162.6755 H   0  0  0  0  0  0  0  0  0  0  0  0
  155.0732  139.7503  161.9459 H   0  0  0  0  0  0  0  0  0  0  0  0
  152.5063  140.3321  159.2796 H   0  0  0  0  0  0  0  0  0  0  0  0
  153.8238  141.5056  161.6481 H   0  0  0  0  0  0  0  0  0  0  0  0
  154.7062  141.5986  160.1279 H   0  0  0  0  0  0  0  0  0  0  0  0
  152.3340  143.4063  162.1773 H   0  0  0  0  0  0  0  0  0  0  0  0
  151.1729  145.9302  159.1791 H   0  0  0  0  0  0  0  0  0  0  0  0
  152.8928  145.6976  159.4354 H   0  0  0  0  0  0  0  0  0  0  0  0
  150.9223  143.5699  158.4191 H   0  0  0  0  0  0  0  0  0  0  0  0
  152.1598  144.3614  157.4613 H   0  0  0  0  0  0  0  0  0  0  0  0
  152.0800  137.9453  159.3911 H   0  0  0  0  0  0  0  0  0  0  0  0
  1  2  3  0  0  0  0
  2  3  1  0  0  0  0
  3 16  1  0  0  0  0
  3  4  2  0  0  0  0
  4  5  1  0  0  0  0
  4 17  1  0  0  0  0
  5  6  2  0  0  0  0
  5 18  1  0  0  0  0
  6  7  1  0  0  0  0
  6 15  1  0  0  0  0
  7  8  1  0  0  0  0
  7 19  1  0  0  0  0
  8  9  1  0  0  0  0
  8 20  1  0  0  0  0
  8 21  1  0  0  0  0
  9 14  1  0  0  0  0
  9 10  2  0  0  0  0
 10 11  1  0  0  0  0
 10 22  1  0  0  0  0
 11 12  1  0  0  0  0
 12 13  1  0  0  0  0
 12 23  1  0  0  0  0
 12 24  1  0  0  0  0
 13 14  1  0  0  0  0
 13 25  1  0  0  0  0
 13 26  1  0  0  0  0
 15 16  2  0  0  0  0
 15 27  1  0  0  0  0
M  END
> <s_m_source_file>
AV-unprocessed.smi

> <i_m_source_file_index>
2796

> <i_lp_mmshare_version>
43012

> <i_f3d_flags>
0

> <s_epik_input>
TiNDYzFbY0hdW2NIXWMoW2NIXW4xKVtOSF1bQ0gyXUMyPVtDSF1PW0NIMl1bQ0gyXU8y

> <s_epik_cmdline>
J2VwaWtfcHl0aG9uJywgJy1waCcsICc3LjAnLCAnLXRuJywgJzgnLCAnLW1hJywgJzIwMCcsICctbWV0YWxfYmluZGluZycsICctaW1hZScsICc8aW5maWxlLm1hZT4nLCAnLW9tYWUnLCAnPG91dGZpbGUubWFlPic=

> <r_lp_tautomer_probability>
1

> <r_epik_Ionization_Penalty>
1.57619e-06

> <r_epik_Ionization_Penalty_Charging>
0

> <r_epik_Ionization_Penalty_Neutral>
1.57619e-06

> <r_epik_State_Penalty>
-0

> <r_epik_Charging_Adjusted_Penalty>
0

> <i_epik_Tot_Q>
0

> <i_epik_Tot_abs_Q>
0

> <r_epik_Metal_State_Penalty>
-0

> <b_epik_Metal_Only>
0

> <s_lp_Force_Field>
OPLS_2005

> <r_lp_Energy>
3.17898

> <b_lp_Chiralities_Consistent>
1

> <s_lp_Variant>
AV-unprocessed.smi:2796-1

> <Gold.Version>
5.8.1

> <Gold.Id.Protein>
6NUR|6NUR_protein|mol2

> <Gold.PLP.Fitness>
35.4764

> <Gold.PLP.PLP>
-32.7617

> <Gold.PLP.part.hbond>
-0.9498

> <Gold.PLP.part.metal>
0.0000

> <Gold.PLP.part.buried>
-5.5778

> <Gold.PLP.part.nonpolar>
-27.5685

> <Gold.PLP.part.repulsive>
0.2773

> <Gold.PLP.ligand.clash>
0.0000

> <Gold.PLP.ligand.torsion>
0.1299

> <Gold.PLP.Chemscore.Hbond>
0.9913

> <Gold.PLP.Chemscore.CHOScore>
0.0000

> <Gold.PLP.Chemscore.Metal>
0.0000

> <Gold.Chemscore.Hbonds>
donor molecule, donor type, donor heavy atom, donor atom, acceptor molecule, acceptor atom, score
      P1  H  6896  6908       L1    16  1.00

> <Gold.PLP.Chemscore.Internal.Correction>
0.0008

> <Gold.Rescore>
     Score         DG    S(hbond)    S(metal)    S(lipo)     H(rot)  DE(clash)    DE(int)     intcor
     15.93     -16.11       0.94        0.00      91.51       1.26       0.02       0.17       ----

> <Gold.Chemscore.Fitness>
15.9297

> <Gold.Chemscore.DG>
-16.1146

> <Gold.Chemscore.ZeroCoef>
-5.4800

> <Gold.Chemscore.Hbond>
0.9408

> <Gold.Chemscore.Metal>
0.0000

> <Gold.Chemscore.Lipo>
91.5063

> <Gold.Chemscore.Internal_Hbond>
0.0000

> <Gold.Chemscore.DEClash>
0.0195

> <Gold.Chemscore.DEInternal>
0.1653

> <Gold.Chemscore.Rot>
1.2554

> <Gold.Chemscore.Internal.Correction>
   9.000000E+99

> <Gold.Chemscore.Hbonds>
donor molecule, donor type, donor heavy atom, donor atom, acceptor molecule, acceptor atom, score
      P1  H  6896  6908       L1    16  0.89

> <Gold.Chemscore.Hbond.Weighted>
-3.1423

> <Gold.Chemscore.Metal.Weighted>
-0.0000

> <Gold.Chemscore.Lipo.Weighted>
-10.7062

> <Gold.Chemscore.Internal_Hbond.Weighted>
0.0000

> <Gold.Chemscore.DEClash.Weighted>
0.0195

> <Gold.Chemscore.DEInternal.Weighted>
0.1653

> <Gold.Chemscore.Rot.Weighted>
3.2139

> <Gold.Chemscore.Internal.Correction.Weighted>
   9.000000E+99

> <Gold.Protein.RotatedTorsions>
[ 6907 6896 6895 6894 ] final  -86.04 input  -60.11 | X-H torsion
[ 7974 7965 7964 7962 ] final   -4.60 input  175.53 | X-H torsion
[ 8008 7997 7996 7995 ] final  108.92 input   59.86 | X-H torsion
[ 10167 10162 10161 10158 ] final  -97.27 input  -65.29 | X-H torsion
[ 10718 10713 10712 10709 ] final  -44.94 input   66.30 | X-H torsion
[ 10763 10752 10751 10750 ] final -144.45 input  -60.55 | X-H torsion
[ 11005 11000 10999 10996 ] final -144.86 input  -57.11 | X-H torsion

> <Gold.Protein.ActiveResidues>
 VAL166  LYS551  ARG553  GLY616  TRP617  ASP618  TYR619  PRO620  LYS621  CYS622 
 ASP623  PHE694  ASN695  SER759  ASP760  ASP761  ALA762  ILE779  LEU786  VAL792 
 PHE793  MET794  SER795  GLU796  ALA797  LYS798  CYS799  TRP800  GLU811  SER814 

> <Gold.Protein.RotatedAtoms>
  150.6868  134.3111  159.4746 H   0  0  0  0  0  0  0  0  0  0  0  0  # atno 6907 bound_to 6896
  152.0997  134.9347  160.0579 H   0  0  0  0  0  0  0  0  0  0  0  0  # atno 6908 bound_to 6896
  152.0631  133.4037  159.4463 H   0  0  0  0  0  0  0  0  0  0  0  0  # atno 6909 bound_to 6896
  146.2369  140.1895  142.8332 H   0  0  0  0  0  0  0  0  0  0  0  0  # atno 7974 bound_to 7965
  156.1940  140.3067  155.9390 H   0  0  0  0  0  0  0  0  0  0  0  0  # atno 8008 bound_to 7997
  155.3108  140.0451  157.3052 H   0  0  0  0  0  0  0  0  0  0  0  0  # atno 8009 bound_to 7997
  154.5487  140.2284  155.8530 H   0  0  0  0  0  0  0  0  0  0  0  0  # atno 8010 bound_to 7997
  140.2852  143.3256  152.0401 H   0  0  0  0  0  0  0  0  0  0  0  0  # atno 10167 bound_to 10162
  156.2334  130.4174  149.8847 H   0  0  0  0  0  0  0  0  0  0  0  0  # atno 10718 bound_to 10713
  154.8427  135.3440  154.6348 H   0  0  0  0  0  0  0  0  0  0  0  0  # atno 10763 bound_to 10752
  153.6958  135.6972  153.5081 H   0  0  0  0  0  0  0  0  0  0  0  0  # atno 10764 bound_to 10752
  153.2560  135.4338  155.0801 H   0  0  0  0  0  0  0  0  0  0  0  0  # atno 10765 bound_to 10752
  140.7981  134.2889  157.4989 H   0  0  0  0  0  0  0  0  0  0  0  0  # atno 11005 bound_to 11000
  144.9869  140.8511  143.5363 LP  0  0  0  0  0  0  0  0  0  0  0  0  # atno 17320 bound_to 7965
  145.1896  139.2308  143.5250 LP  0  0  0  0  0  0  0  0  0  0  0  0  # atno 17321 bound_to 7965
  139.4952  144.6564  151.6563 LP  0  0  0  0  0  0  0  0  0  0  0  0  # atno 17342 bound_to 10162
  140.5778  143.9997  150.6251 LP  0  0  0  0  0  0  0  0  0  0  0  0  # atno 17343 bound_to 10162
  156.6454  130.8722  151.3521 LP  0  0  0  0  0  0  0  0  0  0  0  0  # atno 17370 bound_to 10713
  157.7143  130.9478  150.1200 LP  0  0  0  0  0  0  0  0  0  0  0  0  # atno 17371 bound_to 10713
  139.8724  134.9414  156.3795 LP  0  0  0  0  0  0  0  0  0  0  0  0  # atno 17394 bound_to 11000
  140.9322  133.7571  156.0039 LP  0  0  0  0  0  0  0  0  0  0  0  0  # atno 17395 bound_to 11000

$$$$
