AV-unprocessed.smi:674|AV-procd|sdf|3302|dock10
  -GOLD-   22720 0263D 1   1.00000     0.00000
 Structure written by MMmdl.
 47 48  0  0  0  0  0  0  0  0  1 V2000
  150.9373  141.9584  157.3755 C   0  0  0  0  0  0  0  0  0  0  0  0
  150.4082  142.1608  155.9510 C   0  0  0  0  0  0  0  0  0  0  0  0
  150.1309  140.8547  155.2615 C   0  0  0  0  0  0  0  0  0  0  0  0
  148.8815  140.3698  154.7774 C   0  0  0  0  0  0  0  0  0  0  0  0
  149.2123  139.1492  154.2550 C   0  0  0  0  0  0  0  0  0  0  0  0
  148.4058  138.2318  153.6579 N   0  0  0  0  0  0  0  0  0  0  0  0
  147.0675  138.1215  153.7209 C   0  0  0  0  0  0  0  0  0  0  0  0
  146.3137  138.8906  154.3176 O   0  0  0  0  0  0  0  0  0  0  0  0
  146.6381  137.0479  153.0438 N   0  0  0  0  0  0  0  0  0  0  0  0
  145.2395  136.6434  152.9427 C   0  0  1  0  0  0  0  0  0  0  0  0
  144.9011  136.0258  151.5873 C   0  0  0  0  0  0  0  0  0  0  0  0
  143.9898  135.0418  152.3458 C   0  0  2  0  0  0  0  0  0  0  0  0
  143.8155  133.6139  151.8127 C   0  0  0  0  0  0  0  0  0  0  0  0
  142.7133  135.6454  152.5976 O   0  0  0  0  0  0  0  0  0  0  0  0
  141.7392  134.8557  153.2688 C   0  0  0  0  0  0  0  0  0  0  0  0
  144.9023  135.2766  153.5937 C   0  0  0  0  0  0  0  0  0  0  0  0
  146.0698  134.2870  153.7711 C   0  0  0  0  0  0  0  0  0  0  0  0
  144.1985  135.3364  154.9542 C   0  0  0  0  0  0  0  0  0  0  0  0
  150.5632  138.9410  154.4333 N   0  0  0  0  0  0  0  0  0  0  0  0
  151.3926  137.8108  154.0619 C   0  0  0  0  0  0  0  0  0  0  0  0
  151.1269  140.0006  155.0515 N   0  0  0  0  0  0  0  0  0  0  0  0
  151.1273  142.9166  157.8592 H   0  0  0  0  0  0  0  0  0  0  0  0
  151.8716  141.3962  157.3731 H   0  0  0  0  0  0  0  0  0  0  0  0
  150.2185  141.4126  157.9873 H   0  0  0  0  0  0  0  0  0  0  0  0
  149.4975  142.7594  155.9870 H   0  0  0  0  0  0  0  0  0  0  0  0
  151.1283  142.7423  155.3740 H   0  0  0  0  0  0  0  0  0  0  0  0
  147.9171  140.8526  154.8202 H   0  0  0  0  0  0  0  0  0  0  0  0
  148.8833  137.5354  153.1053 H   0  0  0  0  0  0  0  0  0  0  0  0
  147.3194  136.4664  152.5783 H   0  0  0  0  0  0  0  0  0  0  0  0
  144.5321  137.4303  153.2150 H   0  0  0  0  0  0  0  0  0  0  0  0
  144.4037  136.7072  150.8976 H   0  0  0  0  0  0  0  0  0  0  0  0
  145.7485  135.5335  151.1070 H   0  0  0  0  0  0  0  0  0  0  0  0
  144.7698  133.0984  151.7132 H   0  0  0  0  0  0  0  0  0  0  0  0
  143.3615  133.6005  150.8223 H   0  0  0  0  0  0  0  0  0  0  0  0
  143.1898  133.0174  152.4770 H   0  0  0  0  0  0  0  0  0  0  0  0
  140.7817  135.3752  153.2436 H   0  0  0  0  0  0  0  0  0  0  0  0
  141.9966  134.7081  154.3176 H   0  0  0  0  0  0  0  0  0  0  0  0
  141.5991  133.8813  152.8018 H   0  0  0  0  0  0  0  0  0  0  0  0
  145.7135  133.2953  154.0514 H   0  0  0  0  0  0  0  0  0  0  0  0
  146.7586  134.6119  154.5516 H   0  0  0  0  0  0  0  0  0  0  0  0
  146.6553  134.1727  152.8588 H   0  0  0  0  0  0  0  0  0  0  0  0
  143.7148  134.3892  155.1944 H   0  0  0  0  0  0  0  0  0  0  0  0
  143.4303  136.1094  154.9826 H   0  0  0  0  0  0  0  0  0  0  0  0
  144.8981  135.5635  155.7593 H   0  0  0  0  0  0  0  0  0  0  0  0
  150.7760  136.9537  153.7920 H   0  0  0  0  0  0  0  0  0  0  0  0
  152.0316  137.5304  154.8999 H   0  0  0  0  0  0  0  0  0  0  0  0
  152.0185  138.0806  153.2109 H   0  0  0  0  0  0  0  0  0  0  0  0
  1  2  1  0  0  0  0
  1 22  1  0  0  0  0
  1 23  1  0  0  0  0
  1 24  1  0  0  0  0
  2  3  1  0  0  0  0
  2 25  1  0  0  0  0
  2 26  1  0  0  0  0
  3 21  2  0  0  0  0
  3  4  1  0  0  0  0
  4  5  2  0  0  0  0
  4 27  1  0  0  0  0
  5  6  1  0  0  0  0
  5 19  1  0  0  0  0
  6  7  1  0  0  0  0
  6 28  1  0  0  0  0
  7  8  2  0  0  0  0
  7  9  1  0  0  0  0
  9 10  1  0  0  0  0
  9 29  1  0  0  0  0
 10 16  1  0  0  0  0
 10 11  1  0  0  0  0
 10 30  1  0  0  0  0
 11 12  1  0  0  0  0
 11 31  1  0  0  0  0
 11 32  1  0  0  0  0
 12 13  1  0  0  0  0
 12 14  1  0  0  0  0
 12 16  1  0  0  0  0
 13 33  1  0  0  0  0
 13 34  1  0  0  0  0
 13 35  1  0  0  0  0
 14 15  1  0  0  0  0
 15 36  1  0  0  0  0
 15 37  1  0  0  0  0
 15 38  1  0  0  0  0
 16 17  1  0  0  0  0
 16 18  1  0  0  0  0
 17 39  1  0  0  0  0
 17 40  1  0  0  0  0
 17 41  1  0  0  0  0
 18 42  1  0  0  0  0
 18 43  1  0  0  0  0
 18 44  1  0  0  0  0
 19 20  1  0  0  0  0
 19 21  1  0  0  0  0
 20 45  1  0  0  0  0
 20 46  1  0  0  0  0
 20 47  1  0  0  0  0
M  END
> <s_m_source_file>
AV-unprocessed.smi

> <i_m_source_file_index>
674

> <i_lp_mmshare_version>
43012

> <i_f3d_flags>
0

> <s_epik_input>
W0NIM11bQ0gyXWMxW2NIXWMobihuMSlbQ0gzXSlbTkhdQyg9TylbTkhdW0NAQEhdKEMyKFtDSDNdKVtDSDNdKVtDSDJdW0NAQF0yKFtDSDNdKU9bQ0gzXQ==

> <s_epik_cmdline>
J2VwaWtfcHl0aG9uJywgJy1waCcsICc3LjAnLCAnLXRuJywgJzgnLCAnLW1hJywgJzIwMCcsICctbWV0YWxfYmluZGluZycsICctaW1hZScsICc8aW5maWxlLm1hZT4nLCAnLW9tYWUnLCAnPG91dGZpbGUubWFlPic=

> <r_lp_tautomer_probability>
1

> <r_epik_Ionization_Penalty>
0.000101626

> <r_epik_Ionization_Penalty_Charging>
0

> <r_epik_Ionization_Penalty_Neutral>
0.000101626

> <r_epik_State_Penalty>
-0

> <r_epik_Charging_Adjusted_Penalty>
0

> <i_epik_Tot_Q>
0

> <i_epik_Tot_abs_Q>
0

> <r_epik_Metal_State_Penalty>
-0

> <b_epik_Metal_Only>
0

> <s_lp_Force_Field>
OPLS_2005

> <r_lp_Energy>
22.7899

> <b_lp_Chiralities_Consistent>
1

> <s_lp_Variant>
AV-unprocessed.smi:674-4

> <Gold.Version>
5.8.1

> <Gold.Id.Protein>
6NUR|6NUR_protein|mol2

> <Gold.PLP.Fitness>
39.4234

> <Gold.PLP.PLP>
-32.4553

> <Gold.PLP.part.hbond>
-3.0119

> <Gold.PLP.part.metal>
0.0000

> <Gold.PLP.part.buried>
-3.0954

> <Gold.PLP.part.nonpolar>
-26.5461

> <Gold.PLP.part.repulsive>
0.3824

> <Gold.PLP.ligand.clash>
0.0000

> <Gold.PLP.ligand.torsion>
0.4863

> <Gold.PLP.Chemscore.Hbond>
2.5200

> <Gold.PLP.Chemscore.CHOScore>
0.0000

> <Gold.PLP.Chemscore.Metal>
0.0000

> <Gold.Chemscore.Hbonds>
donor molecule, donor type, donor heavy atom, donor atom, acceptor molecule, acceptor atom, score
      L1  H     6    28       P1  7948  1.00
      L1  H     9    29       P1  7948  1.00
      P1  H  7989  7998       L1    21  0.48

> <Gold.PLP.Chemscore.Internal.Correction>
0.3806

> <Gold.Rescore>
     Score         DG    S(hbond)    S(metal)    S(lipo)     H(rot)  DE(clash)    DE(int)     intcor
     14.61     -16.37       1.97        0.00      66.61       1.37       0.14       1.62       ----

> <Gold.Chemscore.Fitness>
14.6131

> <Gold.Chemscore.DG>
-16.3702

> <Gold.Chemscore.ZeroCoef>
-5.4800

> <Gold.Chemscore.Hbond>
1.9741

> <Gold.Chemscore.Metal>
0.0000

> <Gold.Chemscore.Lipo>
66.6074

> <Gold.Chemscore.Internal_Hbond>
0.0000

> <Gold.Chemscore.DEClash>
0.1377

> <Gold.Chemscore.DEInternal>
1.6194

> <Gold.Chemscore.Rot>
1.3658

> <Gold.Chemscore.Internal.Correction>
   9.000000E+99

> <Gold.Chemscore.Hbonds>
donor molecule, donor type, donor heavy atom, donor atom, acceptor molecule, acceptor atom, score
      L1  H     6    28       P1  7948  0.98
      L1  H     9    29       P1  7948  0.95

> <Gold.Chemscore.Hbond.Weighted>
-6.5934

> <Gold.Chemscore.Metal.Weighted>
-0.0000

> <Gold.Chemscore.Lipo.Weighted>
-7.7931

> <Gold.Chemscore.Internal_Hbond.Weighted>
0.0000

> <Gold.Chemscore.DEClash.Weighted>
0.1377

> <Gold.Chemscore.DEInternal.Weighted>
1.6194

> <Gold.Chemscore.Rot.Weighted>
3.4963

> <Gold.Chemscore.Internal.Correction.Weighted>
   9.000000E+99

> <Gold.Protein.RotatedTorsions>
[ 6907 6896 6895 6894 ] final  119.34 input  -60.11 | X-H torsion
[ 7974 7965 7964 7962 ] final -166.97 input  175.53 | X-H torsion
[ 8008 7997 7996 7995 ] final -111.43 input   59.86 | X-H torsion
[ 10167 10162 10161 10158 ] final   53.72 input  -65.29 | X-H torsion
[ 10718 10713 10712 10709 ] final  -42.97 input   66.30 | X-H torsion
[ 10763 10752 10751 10750 ] final   73.88 input  -60.55 | X-H torsion
[ 11005 11000 10999 10996 ] final   48.47 input  -57.11 | X-H torsion

> <Gold.Protein.ActiveResidues>
 VAL166  LYS551  ARG553  GLY616  TRP617  ASP618  TYR619  PRO620  LYS621  CYS622 
 ASP623  PHE694  ASN695  SER759  ASP760  ASP761  ALA762  ILE779  LEU786  VAL792 
 PHE793  MET794  SER795  GLU796  ALA797  LYS798  CYS799  TRP800  GLU811  SER814 

> <Gold.Protein.RotatedAtoms>
  152.4479  133.7572  159.6726 H   0  0  0  0  0  0  0  0  0  0  0  0  # atno 6907 bound_to 6896
  150.8383  133.7967  159.3077 H   0  0  0  0  0  0  0  0  0  0  0  0  # atno 6908 bound_to 6896
  151.5599  135.1068  160.0022 H   0  0  0  0  0  0  0  0  0  0  0  0  # atno 6909 bound_to 6896
  144.7233  140.2587  143.6268 H   0  0  0  0  0  0  0  0  0  0  0  0  # atno 7974 bound_to 7965
  154.9897  140.0395  157.2314 H   0  0  0  0  0  0  0  0  0  0  0  0  # atno 8008 bound_to 7997
  154.7640  140.2789  155.6169 H   0  0  0  0  0  0  0  0  0  0  0  0  # atno 8009 bound_to 7997
  156.2909  140.2623  156.2425 H   0  0  0  0  0  0  0  0  0  0  0  0  # atno 8010 bound_to 7997
  140.2378  144.3617  150.6391 H   0  0  0  0  0  0  0  0  0  0  0  0  # atno 10167 bound_to 10162
  156.2539  130.4190  149.8618 H   0  0  0  0  0  0  0  0  0  0  0  0  # atno 10718 bound_to 10713
  153.0550  135.5046  154.7960 H   0  0  0  0  0  0  0  0  0  0  0  0  # atno 10763 bound_to 10752
  154.6792  135.2965  154.9638 H   0  0  0  0  0  0  0  0  0  0  0  0  # atno 10764 bound_to 10752
  154.0430  135.6714  153.4845 H   0  0  0  0  0  0  0  0  0  0  0  0  # atno 10765 bound_to 10752
  140.1188  134.4857  155.8615 H   0  0  0  0  0  0  0  0  0  0  0  0  # atno 11005 bound_to 11000
  145.8157  139.2022  143.1967 LP  0  0  0  0  0  0  0  0  0  0  0  0  # atno 17320 bound_to 7965
  146.0558  140.8022  142.9759 LP  0  0  0  0  0  0  0  0  0  0  0  0  # atno 17321 bound_to 7965
  140.6136  143.2171  151.6836 LP  0  0  0  0  0  0  0  0  0  0  0  0  # atno 17342 bound_to 10162
  139.5087  144.3600  152.0571 LP  0  0  0  0  0  0  0  0  0  0  0  0  # atno 17343 bound_to 10162
  156.6157  130.8605  151.3464 LP  0  0  0  0  0  0  0  0  0  0  0  0  # atno 17370 bound_to 10713
  157.7225  130.9577  150.1496 LP  0  0  0  0  0  0  0  0  0  0  0  0  # atno 17371 bound_to 10713
  141.2147  133.6753  156.6848 LP  0  0  0  0  0  0  0  0  0  0  0  0  # atno 17394 bound_to 11000
  140.2993  134.8177  157.4084 LP  0  0  0  0  0  0  0  0  0  0  0  0  # atno 17395 bound_to 11000

$$$$
