AV-unprocessed.smi:766|AV-procd|sdf|3652|dock9
  -GOLD-   22720 1 53D 1   1.00000     0.00000
 Structure written by MMmdl.
 47 49  0  0  0  0  0  0  0  0  2 V2000
  152.5825  143.3082  161.0541 C   0  0  0  0  0  0  0  0  0  0  0  0
  152.2119  142.5372  159.7993 C   0  0  0  0  0  0  0  0  0  0  0  0
  152.5050  141.1565  159.7298 C   0  0  0  0  0  0  0  0  0  0  0  0
  152.1760  140.4033  158.5815 C   0  0  0  0  0  0  0  0  0  0  0  0
  152.3657  139.0608  158.3020 N   0  0  0  0  0  0  0  0  0  0  0  0
  151.8498  138.9657  157.0800 C   0  0  0  0  0  0  0  0  0  0  0  0
  151.3492  140.0904  156.5327 N   0  0  0  0  0  0  0  0  0  0  0  0
  150.7384  140.2353  155.2235 C   0  0  0  0  0  0  0  0  0  0  0  0
  149.7142  141.3853  155.1755 C   0  0  1  0  0  0  0  0  0  0  0  0
  149.0597  141.3801  153.9208 O   0  0  0  0  0  0  0  0  0  0  0  0
  148.6602  141.2650  156.2880 C   0  0  0  0  0  0  0  0  0  0  0  0
  147.5692  142.2416  156.0984 N   0  3  0  0  0  0  0  0  0  0  0  0
  146.6394  142.3411  157.2415 C   0  0  0  0  0  0  0  0  0  0  0  0
  147.3909  142.4371  158.5794 C   0  0  0  0  0  0  0  0  0  0  0  0
  146.5568  142.9607  159.6467 N   0  0  0  0  0  0  0  0  0  0  0  0
  145.8006  144.1141  159.6545 C   0  0  0  0  0  0  0  0  0  0  0  0
  145.1882  144.1902  160.8726 C   0  0  0  0  0  0  0  0  0  0  0  0
  145.6359  143.0220  161.5501 C   0  0  0  0  0  0  0  0  0  0  0  0
  146.4561  142.2889  160.8142 N   0  0  0  0  0  0  0  0  0  0  0  0
  151.5421  141.0750  157.4955 C   0  0  0  0  0  0  0  0  0  0  0  0
  151.2460  142.4483  157.5521 C   0  0  0  0  0  0  0  0  0  0  0  0
  151.5793  143.1854  158.7079 C   0  0  0  0  0  0  0  0  0  0  0  0
  151.2514  144.6670  158.7620 C   0  0  0  0  0  0  0  0  0  0  0  0
  153.0731  142.6660  161.7860 H   0  0  0  0  0  0  0  0  0  0  0  0
  151.6916  143.7276  161.5219 H   0  0  0  0  0  0  0  0  0  0  0  0
  153.2651  144.1237  160.8141 H   0  0  0  0  0  0  0  0  0  0  0  0
  152.9859  140.6620  160.5610 H   0  0  0  0  0  0  0  0  0  0  0  0
  151.8375  138.0242  156.5507 H   0  0  0  0  0  0  0  0  0  0  0  0
  151.5258  140.3888  154.4839 H   0  0  0  0  0  0  0  0  0  0  0  0
  150.2553  139.2905  154.9710 H   0  0  0  0  0  0  0  0  0  0  0  0
  150.2414  142.3346  155.2819 H   0  0  0  0  0  0  0  0  0  0  0  0
  148.5568  140.5835  153.8424 H   0  0  0  0  0  0  0  0  0  0  0  0
  148.2520  140.2537  156.3229 H   0  0  0  0  0  0  0  0  0  0  0  0
  149.1253  141.4557  157.2562 H   0  0  0  0  0  0  0  0  0  0  0  0
  147.9738  143.1517  155.9303 H   0  0  0  0  0  0  0  0  0  0  0  0
  145.9885  143.2073  157.1149 H   0  0  0  0  0  0  0  0  0  0  0  0
  145.9985  141.4587  157.2462 H   0  0  0  0  0  0  0  0  0  0  0  0
  147.7360  141.4463  158.8770 H   0  0  0  0  0  0  0  0  0  0  0  0
  148.2818  143.0600  158.4827 H   0  0  0  0  0  0  0  0  0  0  0  0
  145.7607  144.7774  158.8031 H   0  0  0  0  0  0  0  0  0  0  0  0
  144.5205  144.9625  161.2252 H   0  0  0  0  0  0  0  0  0  0  0  0
  145.3914  142.6882  162.5478 H   0  0  0  0  0  0  0  0  0  0  0  0
  150.7648  142.9299  156.7140 H   0  0  0  0  0  0  0  0  0  0  0  0
  150.7320  144.9928  157.8603 H   0  0  0  0  0  0  0  0  0  0  0  0
  152.1637  145.2565  158.8558 H   0  0  0  0  0  0  0  0  0  0  0  0
  150.6077  144.8858  159.6142 H   0  0  0  0  0  0  0  0  0  0  0  0
  147.0405  141.9729  155.2798 H   0  0  0  0  0  0  0  0  0  0  0  0
  1  2  1  0  0  0  0
  1 24  1  0  0  0  0
  1 25  1  0  0  0  0
  1 26  1  0  0  0  0
  2 22  1  0  0  0  0
  2  3  2  0  0  0  0
  3  4  1  0  0  0  0
  3 27  1  0  0  0  0
  4 20  2  0  0  0  0
  4  5  1  0  0  0  0
  5  6  2  0  0  0  0
  6  7  1  0  0  0  0
  6 28  1  0  0  0  0
  7  8  1  0  0  0  0
  7 20  1  0  0  0  0
  8  9  1  0  0  0  0
  8 29  1  0  0  0  0
  8 30  1  0  0  0  0
  9 10  1  0  0  0  0
  9 11  1  0  0  0  0
  9 31  1  0  0  0  0
 10 32  1  0  0  0  0
 11 12  1  0  0  0  0
 11 33  1  0  0  0  0
 11 34  1  0  0  0  0
 12 13  1  0  0  0  0
 12 35  1  0  0  0  0
 12 47  1  0  0  0  0
 13 14  1  0  0  0  0
 13 36  1  0  0  0  0
 13 37  1  0  0  0  0
 14 15  1  0  0  0  0
 14 38  1  0  0  0  0
 14 39  1  0  0  0  0
 15 19  1  0  0  0  0
 15 16  1  0  0  0  0
 16 17  2  0  0  0  0
 16 40  1  0  0  0  0
 17 18  1  0  0  0  0
 17 41  1  0  0  0  0
 18 19  2  0  0  0  0
 18 42  1  0  0  0  0
 20 21  1  0  0  0  0
 21 22  2  0  0  0  0
 21 43  1  0  0  0  0
 22 23  1  0  0  0  0
 23 44  1  0  0  0  0
 23 45  1  0  0  0  0
 23 46  1  0  0  0  0
M  CHG  1  12   1
M  END
> <s_m_source_file>
AV-unprocessed.smi

> <i_m_source_file_index>
766

> <i_lp_mmshare_version>
43012

> <i_f3d_flags>
0

> <s_epik_input>
W0NIM11jKFtjSF0xKWMoW0NIM10pW2NIXWMoYzEyKW4oW2NIXW4yKVtDSDJdW0NASF0oW09IXSlbQ0gyXVtOSF1bQ0gyXVtDSDJdbjNbY0hdW2NIXVtjSF1uMw==

> <s_epik_cmdline>
J2VwaWtfcHl0aG9uJywgJy1waCcsICc3LjAnLCAnLXRuJywgJzgnLCAnLW1hJywgJzIwMCcsICctbWV0YWxfYmluZGluZycsICctaW1hZScsICc8aW5maWxlLm1hZT4nLCAnLW9tYWUnLCAnPG91dGZpbGUubWFlPic=

> <r_lp_tautomer_probability>
1

> <r_epik_Ionization_Penalty>
0.127222

> <r_epik_Ionization_Penalty_Charging>
0.043815

> <r_epik_Ionization_Penalty_Neutral>
0.0834074

> <r_epik_State_Penalty>
0.115563

> <r_epik_Charging_Adjusted_Penalty>
0.159378

> <i_epik_Tot_Q>
1

> <i_epik_Tot_abs_Q>
1

> <r_epik_Metal_State_Penalty>
0.102594

> <b_epik_Metal_Only>
0

> <s_lp_Force_Field>
OPLS_2005

> <r_lp_Energy>
11.1584

> <b_lp_Chiralities_Consistent>
1

> <s_lp_Variant>
AV-unprocessed.smi:766-2

> <Gold.Version>
5.8.1

> <Gold.Id.Protein>
6NUR|6NUR_protein|mol2

> <Gold.PLP.Fitness>
61.5821

> <Gold.PLP.PLP>
-46.0302

> <Gold.PLP.part.hbond>
-5.8949

> <Gold.PLP.part.metal>
0.0000

> <Gold.PLP.part.buried>
-4.0987

> <Gold.PLP.part.nonpolar>
-35.2515

> <Gold.PLP.part.repulsive>
0.0419

> <Gold.PLP.ligand.clash>
0.0000

> <Gold.PLP.ligand.torsion>
0.6526

> <Gold.PLP.Chemscore.Hbond>
4.5760

> <Gold.PLP.Chemscore.CHOScore>
1.0000

> <Gold.PLP.Chemscore.Metal>
0.0000

> <Gold.Chemscore.Hbonds>
donor molecule, donor type, donor heavy atom, donor atom, acceptor molecule, acceptor atom, score
      L1  H    12    35       P1  8028  2.00
      P1  H  6933  6944       L1    19  0.46
      P1  H  6934  6946       L1    19  0.91
      P1  H  8011  8017       L1    10  0.76
      L1  C    16    40       P1  8029  0.24

> <Gold.PLP.Chemscore.Internal.Correction>
0.1290

> <Gold.Rescore>
     Score         DG    S(hbond)    S(metal)    S(lipo)     H(rot)  DE(clash)    DE(int)     intcor
     18.48     -20.98       3.01        0.00     110.75       2.93       0.45       2.05       ----

> <Gold.Chemscore.Fitness>
18.4797

> <Gold.Chemscore.DG>
-20.9793

> <Gold.Chemscore.ZeroCoef>
-5.4800

> <Gold.Chemscore.Hbond>
3.0095

> <Gold.Chemscore.Metal>
0.0000

> <Gold.Chemscore.Lipo>
110.7460

> <Gold.Chemscore.Internal_Hbond>
0.0000

> <Gold.Chemscore.DEClash>
0.4500

> <Gold.Chemscore.DEInternal>
2.0496

> <Gold.Chemscore.Rot>
2.9335

> <Gold.Chemscore.Internal.Correction>
   9.000000E+99

> <Gold.Chemscore.Hbonds>
donor molecule, donor type, donor heavy atom, donor atom, acceptor molecule, acceptor atom, score
      L1  H    12    35       P1  8028  0.50
      P1  H  6933  6944       L1    19  0.12
      P1  H  6934  6946       L1    19  0.74
      P1  H  8011  8017       L1    10  0.69

> <Gold.Chemscore.Hbond.Weighted>
-10.0517

> <Gold.Chemscore.Metal.Weighted>
-0.0000

> <Gold.Chemscore.Lipo.Weighted>
-12.9573

> <Gold.Chemscore.Internal_Hbond.Weighted>
0.0000

> <Gold.Chemscore.DEClash.Weighted>
0.4500

> <Gold.Chemscore.DEInternal.Weighted>
2.0496

> <Gold.Chemscore.Rot.Weighted>
7.5097

> <Gold.Chemscore.Internal.Correction.Weighted>
   9.000000E+99

> <Gold.Protein.RotatedTorsions>
[ 6907 6896 6895 6894 ] final  133.42 input  -60.11 | X-H torsion
[ 7974 7965 7964 7962 ] final   35.35 input  175.53 | X-H torsion
[ 8008 7997 7996 7995 ] final -171.16 input   59.86 | X-H torsion
[ 10167 10162 10161 10158 ] final -134.64 input  -65.29 | X-H torsion
[ 10718 10713 10712 10709 ] final  -39.11 input   66.30 | X-H torsion
[ 10763 10752 10751 10750 ] final  112.72 input  -60.55 | X-H torsion
[ 11005 11000 10999 10996 ] final   89.78 input  -57.11 | X-H torsion

> <Gold.Protein.ActiveResidues>
 VAL166  LYS551  ARG553  GLY616  TRP617  ASP618  TYR619  PRO620  LYS621  CYS622 
 ASP623  PHE694  ASN695  SER759  ASP760  ASP761  ALA762  ILE779  LEU786  VAL792 
 PHE793  MET794  SER795  GLU796  ALA797  LYS798  CYS799  TRP800  GLU811  SER814 

> <Gold.Protein.RotatedAtoms>
  152.3222  133.5866  159.5751 H   0  0  0  0  0  0  0  0  0  0  0  0  # atno 6907 bound_to 6896
  150.7377  133.9994  159.3642 H   0  0  0  0  0  0  0  0  0  0  0  0  # atno 6908 bound_to 6896
  151.7878  135.0745  160.0434 H   0  0  0  0  0  0  0  0  0  0  0  0  # atno 6909 bound_to 6896
  146.1289  139.6153  142.9240 H   0  0  0  0  0  0  0  0  0  0  0  0  # atno 7974 bound_to 7965
  155.9279  140.1086  157.1155 H   0  0  0  0  0  0  0  0  0  0  0  0  # atno 8008 bound_to 7997
  154.4065  140.1243  156.4830 H   0  0  0  0  0  0  0  0  0  0  0  0  # atno 8009 bound_to 7997
  155.7116  140.3471  155.4978 H   0  0  0  0  0  0  0  0  0  0  0  0  # atno 8010 bound_to 7997
  139.8860  143.6780  152.2620 H   0  0  0  0  0  0  0  0  0  0  0  0  # atno 10167 bound_to 10162
  156.2962  130.4234  149.8189 H   0  0  0  0  0  0  0  0  0  0  0  0  # atno 10718 bound_to 10713
  153.4820  135.3677  155.2447 H   0  0  0  0  0  0  0  0  0  0  0  0  # atno 10763 bound_to 10752
  154.8755  135.3956  154.3689 H   0  0  0  0  0  0  0  0  0  0  0  0  # atno 10764 bound_to 10752
  153.4294  135.7082  153.6306 H   0  0  0  0  0  0  0  0  0  0  0  0  # atno 10765 bound_to 10752
  139.8868  134.8573  156.3190 H   0  0  0  0  0  0  0  0  0  0  0  0  # atno 11005 bound_to 11000
  145.5305  141.0427  143.2386 LP  0  0  0  0  0  0  0  0  0  0  0  0  # atno 17320 bound_to 7965
  144.7670  139.6822  143.7211 LP  0  0  0  0  0  0  0  0  0  0  0  0  # atno 17321 bound_to 7965
  139.7152  144.7613  151.1045 LP  0  0  0  0  0  0  0  0  0  0  0  0  # atno 17342 bound_to 10162
  140.7735  143.5278  150.9459 LP  0  0  0  0  0  0  0  0  0  0  0  0  # atno 17343 bound_to 10162
  156.5584  130.8372  151.3321 LP  0  0  0  0  0  0  0  0  0  0  0  0  # atno 17370 bound_to 10713
  157.7356  130.9764  150.2089 LP  0  0  0  0  0  0  0  0  0  0  0  0  # atno 17371 bound_to 10713
  140.9799  133.7274  156.0657 LP  0  0  0  0  0  0  0  0  0  0  0  0  # atno 17394 bound_to 11000
  140.7763  134.3776  157.5497 LP  0  0  0  0  0  0  0  0  0  0  0  0  # atno 17395 bound_to 11000

$$$$
