AV-unprocessed.smi:876|AV-procd|sdf|4025|dock10
  -GOLD-   22720 1513D 1   1.00000     0.00000
 Structure written by MMmdl.
 40 41  0  0  0  0  0  0  0  0  1 V2000
  155.0027  140.6455  161.8368 C   0  0  0  0  0  0  0  0  0  0  0  0
  154.8731  140.1971  160.4559 N   0  0  0  0  0  0  0  0  0  0  0  0
  155.7969  139.1997  159.9254 C   0  0  0  0  0  0  0  0  0  0  0  0
  153.8345  140.6993  159.6387 C   0  0  0  0  0  0  0  0  0  0  0  0
  153.2023  141.9357  159.9211 C   0  0  0  0  0  0  0  0  0  0  0  0
  152.1734  142.3954  159.0764 C   0  0  0  0  0  0  0  0  0  0  0  0
  151.8013  141.6124  157.9595 C   0  0  0  0  0  0  0  0  0  0  0  0
  150.7702  141.9536  157.0427 N   0  0  0  0  0  0  0  0  0  0  0  0
  150.4605  141.3732  155.8706 C   0  0  0  0  0  0  0  0  0  0  0  0
  151.0297  140.3964  155.3842 O   0  0  0  0  0  0  0  0  0  0  0  0
  149.4210  141.9868  155.2882 N   0  0  0  0  0  0  0  0  0  0  0  0
  148.8296  141.5970  154.0131 C   0  0  2  0  0  0  0  0  0  0  0  0
  147.4585  142.1962  153.8628 C   0  0  0  0  0  0  0  0  0  0  0  0
  146.5120  141.2775  153.6860 C   0  0  0  0  0  0  0  0  0  0  0  0
  147.0508  139.8697  153.7043 C   0  0  1  0  0  0  0  0  0  0  0  0
  146.7089  139.0848  152.4259 C   0  0  0  0  0  0  0  0  0  0  0  0
  145.3426  138.7264  152.4121 O   0  0  0  0  0  0  0  0  0  0  0  0
  148.5746  140.0699  153.9080 C   0  0  0  0  0  0  0  0  0  0  0  0
  152.4769  140.3918  157.7669 C   0  0  0  0  0  0  0  0  0  0  0  0
  153.4632  139.9483  158.5731 N   0  0  0  0  0  0  0  0  0  0  0  0
  149.4514  141.9455  153.1866 H   0  0  0  0  0  0  0  0  0  0  0  0
  146.6322  139.3585  154.5726 H   0  0  0  0  0  0  0  0  0  0  0  0
  154.0953  140.4240  162.3991 H   0  0  0  0  0  0  0  0  0  0  0  0
  155.1857  141.7198  161.8759 H   0  0  0  0  0  0  0  0  0  0  0  0
  155.8330  140.1488  162.3391 H   0  0  0  0  0  0  0  0  0  0  0  0
  156.3078  139.5813  159.0410 H   0  0  0  0  0  0  0  0  0  0  0  0
  155.2617  138.2901  159.6511 H   0  0  0  0  0  0  0  0  0  0  0  0
  156.5577  138.9315  160.6582 H   0  0  0  0  0  0  0  0  0  0  0  0
  153.4823  142.5405  160.7703 H   0  0  0  0  0  0  0  0  0  0  0  0
  151.6866  143.3285  159.3126 H   0  0  0  0  0  0  0  0  0  0  0  0
  150.1604  142.7010  157.3404 H   0  0  0  0  0  0  0  0  0  0  0  0
  149.0072  142.7779  155.7595 H   0  0  0  0  0  0  0  0  0  0  0  0
  147.2912  143.2631  153.8871 H   0  0  0  0  0  0  0  0  0  0  0  0
  145.4606  141.4879  153.5556 H   0  0  0  0  0  0  0  0  0  0  0  0
  146.9347  139.6736  151.5359 H   0  0  0  0  0  0  0  0  0  0  0  0
  147.3047  138.1733  152.3709 H   0  0  0  0  0  0  0  0  0  0  0  0
  144.8333  139.4911  152.1911 H   0  0  0  0  0  0  0  0  0  0  0  0
  149.1435  139.6567  153.0741 H   0  0  0  0  0  0  0  0  0  0  0  0
  148.9071  139.5401  154.8020 H   0  0  0  0  0  0  0  0  0  0  0  0
  152.2224  139.7491  156.9368 H   0  0  0  0  0  0  0  0  0  0  0  0
  1  2  1  0  0  0  0
  1 23  1  0  0  0  0
  1 24  1  0  0  0  0
  1 25  1  0  0  0  0
  2  3  1  0  0  0  0
  2  4  1  0  0  0  0
  3 26  1  0  0  0  0
  3 27  1  0  0  0  0
  3 28  1  0  0  0  0
  4 20  1  0  0  0  0
  4  5  2  0  0  0  0
  5  6  1  0  0  0  0
  5 29  1  0  0  0  0
  6  7  2  0  0  0  0
  6 30  1  0  0  0  0
  7  8  1  0  0  0  0
  7 19  1  0  0  0  0
  8  9  1  0  0  0  0
  8 31  1  0  0  0  0
  9 10  2  0  0  0  0
  9 11  1  0  0  0  0
 11 12  1  0  0  0  0
 11 32  1  0  0  0  0
 12 21  1  0  0  0  0
 12 18  1  0  0  0  0
 12 13  1  0  0  0  0
 13 14  2  0  0  0  0
 13 33  1  0  0  0  0
 14 15  1  0  0  0  0
 14 34  1  0  0  0  0
 15 22  1  0  0  0  0
 15 16  1  0  0  0  0
 15 18  1  0  0  0  0
 16 17  1  0  0  0  0
 16 35  1  0  0  0  0
 16 36  1  0  0  0  0
 17 37  1  0  0  0  0
 18 38  1  0  0  0  0
 18 39  1  0  0  0  0
 19 20  2  0  0  0  0
 19 40  1  0  0  0  0
M  END
> <s_m_source_file>
AV-unprocessed.smi

> <i_m_source_file_index>
876

> <i_lp_mmshare_version>
43012

> <i_f3d_flags>
0

> <s_epik_input>
W0NIM11OKFtDSDNdKWMxW2NIXVtjSF1jKFtjSF1uMSlbTkhdQyg9TylbTkhdW0NAQEhdMltDSF09W0NIXVtDQEBIXShbQ0gyXTIpW0NIMl1bT0hd

> <s_epik_cmdline>
J2VwaWtfcHl0aG9uJywgJy1waCcsICc3LjAnLCAnLXRuJywgJzgnLCAnLW1hJywgJzIwMCcsICctbWV0YWxfYmluZGluZycsICctaW1hZScsICc8aW5maWxlLm1hZT4nLCAnLW9tYWUnLCAnPG91dGZpbGUubWFlPic=

> <r_lp_tautomer_probability>
1

> <r_epik_Ionization_Penalty>
0.617998

> <r_epik_Ionization_Penalty_Charging>
0

> <r_epik_Ionization_Penalty_Neutral>
0.617998

> <r_epik_State_Penalty>
0.632637

> <r_epik_Charging_Adjusted_Penalty>
0.632637

> <i_epik_Tot_Q>
0

> <i_epik_Tot_abs_Q>
0

> <r_epik_Metal_State_Penalty>
0.305596

> <b_epik_Metal_Only>
0

> <s_lp_Force_Field>
OPLS_2005

> <r_lp_Energy>
20.6099

> <b_lp_Chiralities_Consistent>
1

> <s_lp_Variant>
AV-unprocessed.smi:876-7

> <Gold.Version>
5.8.1

> <Gold.Id.Protein>
6NUR|6NUR_protein|mol2

> <Gold.PLP.Fitness>
48.1802

> <Gold.PLP.PLP>
-38.8886

> <Gold.PLP.part.hbond>
-4.9914

> <Gold.PLP.part.metal>
0.0000

> <Gold.PLP.part.buried>
1.7712

> <Gold.PLP.part.nonpolar>
-34.7270

> <Gold.PLP.part.repulsive>
0.2363

> <Gold.PLP.ligand.clash>
0.0000

> <Gold.PLP.ligand.torsion>
0.4968

> <Gold.PLP.Chemscore.Hbond>
3.4233

> <Gold.PLP.Chemscore.CHOScore>
0.0000

> <Gold.PLP.Chemscore.Metal>
0.0000

> <Gold.Chemscore.Hbonds>
donor molecule, donor type, donor heavy atom, donor atom, acceptor molecule, acceptor atom, score
      L1  H    11    32       P1  8028  0.83
      L1  H    17    37       P1 10175  0.99
      P1  H  7989  7998       L1    10  0.98
      P1  H  7997  8010       L1    20  0.78

> <Gold.PLP.Chemscore.Internal.Correction>
0.0152

> <Gold.Rescore>
     Score         DG    S(hbond)    S(metal)    S(lipo)     H(rot)  DE(clash)    DE(int)     intcor
     13.55     -18.33       2.06        0.00      90.22       1.80       1.86       2.92       ----

> <Gold.Chemscore.Fitness>
13.5484

> <Gold.Chemscore.DG>
-18.3256

> <Gold.Chemscore.ZeroCoef>
-5.4800

> <Gold.Chemscore.Hbond>
2.0637

> <Gold.Chemscore.Metal>
0.0000

> <Gold.Chemscore.Lipo>
90.2196

> <Gold.Chemscore.Internal_Hbond>
0.0000

> <Gold.Chemscore.DEClash>
1.8580

> <Gold.Chemscore.DEInternal>
2.9191

> <Gold.Chemscore.Rot>
1.7980

> <Gold.Chemscore.Internal.Correction>
   9.000000E+99

> <Gold.Chemscore.Hbonds>
donor molecule, donor type, donor heavy atom, donor atom, acceptor molecule, acceptor atom, score
      L1  H    11    32       P1  8028  0.82
      L1  H    17    37       P1 10175  0.89
      P1  H  7989  7998       L1    10  0.58
      P1  H  7997  8010       L1    20  0.09

> <Gold.Chemscore.Hbond.Weighted>
-6.8928

> <Gold.Chemscore.Metal.Weighted>
-0.0000

> <Gold.Chemscore.Lipo.Weighted>
-10.5557

> <Gold.Chemscore.Internal_Hbond.Weighted>
0.0000

> <Gold.Chemscore.DEClash.Weighted>
1.8580

> <Gold.Chemscore.DEInternal.Weighted>
2.9191

> <Gold.Chemscore.Rot.Weighted>
4.6029

> <Gold.Chemscore.Internal.Correction.Weighted>
   9.000000E+99

> <Gold.Protein.RotatedTorsions>
[ 6907 6896 6895 6894 ] final  120.17 input  -60.11 | X-H torsion
[ 7974 7965 7964 7962 ] final   88.26 input  175.53 | X-H torsion
[ 8008 7997 7996 7995 ] final    8.30 input   59.86 | X-H torsion
[ 10167 10162 10161 10158 ] final   46.66 input  -65.29 | X-H torsion
[ 10718 10713 10712 10709 ] final  133.45 input   66.30 | X-H torsion
[ 10763 10752 10751 10750 ] final   92.00 input  -60.55 | X-H torsion
[ 11005 11000 10999 10996 ] final   21.29 input  -57.11 | X-H torsion

> <Gold.Protein.ActiveResidues>
 VAL166  LYS551  ARG553  GLY616  TRP617  ASP618  TYR619  PRO620  LYS621  CYS622 
 ASP623  PHE694  ASN695  SER759  ASP760  ASP761  ALA762  ILE779  LEU786  VAL792 
 PHE793  MET794  SER795  GLU796  ALA797  LYS798  CYS799  TRP800  GLU811  SER814 

> <Gold.Protein.RotatedAtoms>
  152.4418  133.7462  159.6668 H   0  0  0  0  0  0  0  0  0  0  0  0  # atno 6907 bound_to 6896
  150.8310  133.8081  159.3105 H   0  0  0  0  0  0  0  0  0  0  0  0  # atno 6908 bound_to 6896
  151.5735  135.1064  160.0052 H   0  0  0  0  0  0  0  0  0  0  0  0  # atno 6909 bound_to 6896
  145.5480  139.2293  143.2528 H   0  0  0  0  0  0  0  0  0  0  0  0  # atno 7974 bound_to 7965
  154.7650  140.2791  155.6183 H   0  0  0  0  0  0  0  0  0  0  0  0  # atno 8008 bound_to 7997
  156.2923  140.2652  156.2365 H   0  0  0  0  0  0  0  0  0  0  0  0  # atno 8009 bound_to 7997
  154.9970  140.0373  157.2334 H   0  0  0  0  0  0  0  0  0  0  0  0  # atno 8010 bound_to 7997
  140.3117  144.2813  150.6198 H   0  0  0  0  0  0  0  0  0  0  0  0  # atno 10167 bound_to 10162
  157.4771  131.1083  150.9729 H   0  0  0  0  0  0  0  0  0  0  0  0  # atno 10718 bound_to 10713
  153.2144  135.4377  155.0417 H   0  0  0  0  0  0  0  0  0  0  0  0  # atno 10763 bound_to 10752
  154.8217  135.3341  154.7021 H   0  0  0  0  0  0  0  0  0  0  0  0  # atno 10764 bound_to 10752
  153.7456  135.7002  153.5013 H   0  0  0  0  0  0  0  0  0  0  0  0  # atno 10765 bound_to 10752
  140.3932  134.1797  155.7663 H   0  0  0  0  0  0  0  0  0  0  0  0  # atno 11005 bound_to 11000
  146.1936  140.6302  142.9134 LP  0  0  0  0  0  0  0  0  0  0  0  0  # atno 17320 bound_to 7965
  144.7543  140.5269  143.6780 LP  0  0  0  0  0  0  0  0  0  0  0  0  # atno 17321 bound_to 7965
  140.5562  143.2198  151.7843 LP  0  0  0  0  0  0  0  0  0  0  0  0  # atno 17342 bound_to 10162
  139.4892  144.4410  151.9764 LP  0  0  0  0  0  0  0  0  0  0  0  0  # atno 17343 bound_to 10162
  157.0475  130.5773  149.5365 LP  0  0  0  0  0  0  0  0  0  0  0  0  # atno 17370 bound_to 10713
  156.0102  130.5193  150.7964 LP  0  0  0  0  0  0  0  0  0  0  0  0  # atno 17371 bound_to 10713
  141.1883  133.8262  157.0998 LP  0  0  0  0  0  0  0  0  0  0  0  0  # atno 17394 bound_to 11000
  140.0391  134.9863  157.0928 LP  0  0  0  0  0  0  0  0  0  0  0  0  # atno 17395 bound_to 11000

$$$$
