AV-unprocessed.smi:2885|AV-procd|sdf|11086|dock3
  -GOLD-   2272015553D 1   1.00000     0.00000
 Structure written by MMmdl.
 40 42  0  0  0  0  0  0  0  0  1 V2000
  151.2114  142.3029  154.9136 N   0  0  0  0  0  0  0  0  0  0  0  0
  152.1694  141.5245  155.4246 C   0  0  0  0  0  0  0  0  0  0  0  0
  152.6287  140.5616  154.8143 O   0  0  0  0  0  0  0  0  0  0  0  0
  152.5972  141.8795  156.8051 C   0  0  0  0  0  0  0  0  0  0  0  0
  153.2588  141.0716  157.7028 C   0  0  0  0  0  0  0  0  0  0  0  0
  153.4132  141.8094  158.8703 N   0  0  0  0  0  0  0  0  0  0  0  0
  154.0505  141.3367  160.0928 C   0  0  0  0  0  0  0  0  0  0  0  0
  154.5753  139.9055  159.9500 C   0  0  0  0  0  0  0  0  0  0  0  0
  155.4187  139.6455  159.0925 O   0  0  0  0  0  0  0  0  0  0  0  0
  154.0862  138.9945  160.8060 N   0  0  0  0  0  0  0  0  0  0  0  0
  154.5551  137.6203  160.9241 C   0  0  0  0  0  0  0  0  0  0  0  0
  154.7514  137.2378  162.3893 C   0  0  0  0  0  0  0  0  0  0  0  0
  153.5296  136.9543  163.2745 C   0  0  0  0  0  0  0  0  0  0  0  0
  154.2923  137.5786  164.4466 C   0  0  0  0  0  0  0  0  0  0  0  0
  155.1508  138.3119  163.4127 C   0  0  0  0  0  0  0  0  0  0  0  0
  152.8562  143.0132  158.6235 C   0  0  0  0  0  0  0  0  0  0  0  0
  152.7791  144.1064  159.6420 C   0  0  0  0  0  0  0  0  0  0  0  0
  152.1331  143.8736  160.9896 C   0  0  0  0  0  0  0  0  0  0  0  0
  151.4624  144.7693  159.9810 C   0  0  0  0  0  0  0  0  0  0  0  0
  152.3269  143.1041  157.4080 N   0  0  0  0  0  0  0  0  0  0  0  0
  150.8622  142.1216  153.9839 H   0  0  0  0  0  0  0  0  0  0  0  0
  150.8364  143.0633  155.4611 H   0  0  0  0  0  0  0  0  0  0  0  0
  153.6159  140.0559  157.6157 H   0  0  0  0  0  0  0  0  0  0  0  0
  154.8800  141.9989  160.3439 H   0  0  0  0  0  0  0  0  0  0  0  0
  153.3348  141.3986  160.9130 H   0  0  0  0  0  0  0  0  0  0  0  0
  153.3920  139.2977  161.4736 H   0  0  0  0  0  0  0  0  0  0  0  0
  153.8156  136.9702  160.4562 H   0  0  0  0  0  0  0  0  0  0  0  0
  155.4802  137.4879  160.3611 H   0  0  0  0  0  0  0  0  0  0  0  0
  155.4441  136.3980  162.4812 H   0  0  0  0  0  0  0  0  0  0  0  0
  152.6515  137.5349  162.9866 H   0  0  0  0  0  0  0  0  0  0  0  0
  153.2904  135.8974  163.3961 H   0  0  0  0  0  0  0  0  0  0  0  0
  153.6943  138.2267  165.0879 H   0  0  0  0  0  0  0  0  0  0  0  0
  154.8581  136.8450  165.0231 H   0  0  0  0  0  0  0  0  0  0  0  0
  156.2164  138.3481  163.6422 H   0  0  0  0  0  0  0  0  0  0  0  0
  154.7600  139.3002  163.1645 H   0  0  0  0  0  0  0  0  0  0  0  0
  153.6726  144.7270  159.6095 H   0  0  0  0  0  0  0  0  0  0  0  0
  151.6791  142.9019  161.1755 H   0  0  0  0  0  0  0  0  0  0  0  0
  152.5929  144.3464  161.8549 H   0  0  0  0  0  0  0  0  0  0  0  0
  151.4761  145.8410  160.1678 H   0  0  0  0  0  0  0  0  0  0  0  0
  150.5634  144.3909  159.4985 H   0  0  0  0  0  0  0  0  0  0  0  0
  1  2  1  0  0  0  0
  1 21  1  0  0  0  0
  1 22  1  0  0  0  0
  2  3  2  0  0  0  0
  2  4  1  0  0  0  0
  4 20  1  0  0  0  0
  4  5  2  0  0  0  0
  5  6  1  0  0  0  0
  5 23  1  0  0  0  0
  6  7  1  0  0  0  0
  6 16  1  0  0  0  0
  7  8  1  0  0  0  0
  7 24  1  0  0  0  0
  7 25  1  0  0  0  0
  8  9  2  0  0  0  0
  8 10  1  0  0  0  0
 10 11  1  0  0  0  0
 10 26  1  0  0  0  0
 11 12  1  0  0  0  0
 11 27  1  0  0  0  0
 11 28  1  0  0  0  0
 12 15  1  0  0  0  0
 12 13  1  0  0  0  0
 12 29  1  0  0  0  0
 13 14  1  0  0  0  0
 13 30  1  0  0  0  0
 13 31  1  0  0  0  0
 14 15  1  0  0  0  0
 14 32  1  0  0  0  0
 14 33  1  0  0  0  0
 15 34  1  0  0  0  0
 15 35  1  0  0  0  0
 16 17  1  0  0  0  0
 16 20  2  0  0  0  0
 17 19  1  0  0  0  0
 17 18  1  0  0  0  0
 17 36  1  0  0  0  0
 18 19  1  0  0  0  0
 18 37  1  0  0  0  0
 18 38  1  0  0  0  0
 19 39  1  0  0  0  0
 19 40  1  0  0  0  0
M  END
> <s_m_source_file>
AV-unprocessed.smi

> <i_m_source_file_index>
2885

> <i_lp_mmshare_version>
43012

> <i_f3d_flags>
0

> <s_epik_input>
W05IMl1DKD1PKWMxW2NIXW4oYyhuMSlbQ0hdMltDSDJdW0NIMl0yKVtDSDJdQyg9TylbTkhdW0NIMl1bQ0hdM1tDSDJdW0NIMl1bQ0gyXTM=

> <s_epik_cmdline>
J2VwaWtfcHl0aG9uJywgJy1waCcsICc3LjAnLCAnLXRuJywgJzgnLCAnLW1hJywgJzIwMCcsICctbWV0YWxfYmluZGluZycsICctaW1hZScsICc8aW5maWxlLm1hZT4nLCAnLW9tYWUnLCAnPG91dGZpbGUubWFlPic=

> <r_lp_tautomer_probability>
1

> <r_epik_Ionization_Penalty>
0.00135877

> <r_epik_Ionization_Penalty_Charging>
0.00135847

> <r_epik_Ionization_Penalty_Neutral>
3.0068e-07

> <r_epik_State_Penalty>
0.000904027

> <r_epik_Charging_Adjusted_Penalty>
0.00226249

> <i_epik_Tot_Q>
0

> <i_epik_Tot_abs_Q>
0

> <r_epik_Metal_State_Penalty>
-0

> <b_epik_Metal_Only>
0

> <s_lp_Force_Field>
OPLS_2005

> <r_lp_Energy>
17.7141

> <b_lp_Chiralities_Consistent>
1

> <s_lp_Variant>
AV-unprocessed.smi:2885-1

> <Gold.Version>
5.8.1

> <Gold.Id.Protein>
6NUR|6NUR_protein|mol2

> <Gold.PLP.Fitness>
50.7817

> <Gold.PLP.PLP>
-43.8793

> <Gold.PLP.part.hbond>
-3.0000

> <Gold.PLP.part.metal>
0.0000

> <Gold.PLP.part.buried>
-6.6118

> <Gold.PLP.part.nonpolar>
-34.2931

> <Gold.PLP.part.repulsive>
0.2978

> <Gold.PLP.ligand.clash>
0.0000

> <Gold.PLP.ligand.torsion>
0.5293

> <Gold.PLP.Chemscore.Hbond>
2.5600

> <Gold.PLP.Chemscore.CHOScore>
0.0000

> <Gold.PLP.Chemscore.Metal>
0.0000

> <Gold.Chemscore.Hbonds>
donor molecule, donor type, donor heavy atom, donor atom, acceptor molecule, acceptor atom, score
      P1  H  7989  7998       L1     3  0.17
      P1  H  7997  8009       L1     9  1.00
      P1  H  7997  8010       L1     3  0.73

> <Gold.PLP.Chemscore.Internal.Correction>
0.2809

> <Gold.Rescore>
     Score         DG    S(hbond)    S(metal)    S(lipo)     H(rot)  DE(clash)    DE(int)     intcor
     18.36     -19.44       2.29        0.00      97.30       1.98       0.01       1.08       ----

> <Gold.Chemscore.Fitness>
18.3566

> <Gold.Chemscore.DG>
-19.4444

> <Gold.Chemscore.ZeroCoef>
-5.4800

> <Gold.Chemscore.Hbond>
2.2894

> <Gold.Chemscore.Metal>
0.0000

> <Gold.Chemscore.Lipo>
97.3026

> <Gold.Chemscore.Internal_Hbond>
0.0000

> <Gold.Chemscore.DEClash>
0.0114

> <Gold.Chemscore.DEInternal>
1.0764

> <Gold.Chemscore.Rot>
1.9791

> <Gold.Chemscore.Internal.Correction>
   9.000000E+99

> <Gold.Chemscore.Hbonds>
donor molecule, donor type, donor heavy atom, donor atom, acceptor molecule, acceptor atom, score
      P1  H  7989  7998       L1     3  0.01
      P1  H  7997  8009       L1     9  1.00
      P1  H  7997  8010       L1     3  0.21

> <Gold.Chemscore.Hbond.Weighted>
-7.6464

> <Gold.Chemscore.Metal.Weighted>
-0.0000

> <Gold.Chemscore.Lipo.Weighted>
-11.3844

> <Gold.Chemscore.Internal_Hbond.Weighted>
0.0000

> <Gold.Chemscore.DEClash.Weighted>
0.0114

> <Gold.Chemscore.DEInternal.Weighted>
1.0764

> <Gold.Chemscore.Rot.Weighted>
5.0665

> <Gold.Chemscore.Internal.Correction.Weighted>
   9.000000E+99

> <Gold.Protein.RotatedTorsions>
[ 6907 6896 6895 6894 ] final  168.91 input  -60.11 | X-H torsion
[ 7974 7965 7964 7962 ] final  127.39 input  175.53 | X-H torsion
[ 8008 7997 7996 7995 ] final  103.08 input   59.86 | X-H torsion
[ 10167 10162 10161 10158 ] final  146.40 input  -65.29 | X-H torsion
[ 10718 10713 10712 10709 ] final  136.68 input   66.30 | X-H torsion
[ 10763 10752 10751 10750 ] final  -95.88 input  -60.55 | X-H torsion
[ 11005 11000 10999 10996 ] final -126.98 input  -57.11 | X-H torsion

> <Gold.Protein.ActiveResidues>
 VAL166  LYS551  ARG553  GLY616  TRP617  ASP618  TYR619  PRO620  LYS621  CYS622 
 ASP623  PHE694  ASN695  SER759  ASP760  ASP761  ALA762  ILE779  LEU786  VAL792 
 PHE793  MET794  SER795  GLU796  ALA797  LYS798  CYS799  TRP800  GLU811  SER814 

> <Gold.Protein.RotatedAtoms>
  151.8402  133.3422  159.3640 H   0  0  0  0  0  0  0  0  0  0  0  0  # atno 6907 bound_to 6896
  150.7237  134.5398  159.5751 H   0  0  0  0  0  0  0  0  0  0  0  0  # atno 6908 bound_to 6896
  152.2870  134.7765  160.0436 H   0  0  0  0  0  0  0  0  0  0  0  0  # atno 6909 bound_to 6896
  145.0511  139.3882  143.5053 H   0  0  0  0  0  0  0  0  0  0  0  0  # atno 7974 bound_to 7965
  156.1452  140.3170  155.8558 H   0  0  0  0  0  0  0  0  0  0  0  0  # atno 8008 bound_to 7997
  155.4078  140.0504  157.3050 H   0  0  0  0  0  0  0  0  0  0  0  0  # atno 8009 bound_to 7997
  154.5010  140.2129  155.9359 H   0  0  0  0  0  0  0  0  0  0  0  0  # atno 8010 bound_to 7997
  139.4908  144.5832  151.6830 H   0  0  0  0  0  0  0  0  0  0  0  0  # atno 10167 bound_to 10162
  157.4441  131.1060  151.0109 H   0  0  0  0  0  0  0  0  0  0  0  0  # atno 10718 bound_to 10713
  154.7189  135.5104  153.8781 H   0  0  0  0  0  0  0  0  0  0  0  0  # atno 10763 bound_to 10752
  153.0845  135.6641  153.9987 H   0  0  0  0  0  0  0  0  0  0  0  0  # atno 10764 bound_to 10752
  153.9813  135.3028  155.3399 H   0  0  0  0  0  0  0  0  0  0  0  0  # atno 10765 bound_to 10752
  140.9637  134.0901  157.3942 H   0  0  0  0  0  0  0  0  0  0  0  0  # atno 11005 bound_to 11000
  146.3518  140.0162  142.8662 LP  0  0  0  0  0  0  0  0  0  0  0  0  # atno 17320 bound_to 7965
  145.1526  140.9631  143.4424 LP  0  0  0  0  0  0  0  0  0  0  0  0  # atno 17321 bound_to 7965
  140.5442  144.0530  150.6100 LP  0  0  0  0  0  0  0  0  0  0  0  0  # atno 17342 bound_to 10162
  140.3562  143.2934  152.0433 LP  0  0  0  0  0  0  0  0  0  0  0  0  # atno 17343 bound_to 10162
  157.0962  130.5962  149.5450 LP  0  0  0  0  0  0  0  0  0  0  0  0  # atno 17370 bound_to 10713
  155.9960  130.5029  150.7482 LP  0  0  0  0  0  0  0  0  0  0  0  0  # atno 17371 bound_to 10713
  139.8887  135.0099  156.6635 LP  0  0  0  0  0  0  0  0  0  0  0  0  # atno 17394 bound_to 11000
  140.7430  133.8961  155.8292 LP  0  0  0  0  0  0  0  0  0  0  0  0  # atno 17395 bound_to 11000

$$$$
