AV-unprocessed.smi:3150|AV-procd|sdf|12010|dock5
  -GOLD-   2272017423D 1   1.00000     0.00000
 Structure written by MMmdl.
 33 34  0  0  0  0  0  0  0  0  3 V2000
  149.0918  140.7217  154.3881 C   0  0  0  0  0  0  0  0  0  0  0  0
  150.2313  139.8507  154.9386 C   0  0  1  0  0  0  0  0  0  0  0  0
  150.9102  139.2807  153.8227 O   0  0  0  0  0  0  0  0  0  0  0  0
  151.6156  138.0744  154.0880 C   0  0  0  0  0  0  0  0  0  0  0  0
  150.6336  137.0398  154.5938 C   0  0  0  0  0  0  0  0  0  0  0  0
  150.6798  136.5845  156.0346 C   0  0  0  0  0  0  0  0  0  0  0  0
  151.0943  135.6405  154.9349 C   0  0  0  0  0  0  0  0  0  0  0  0
  151.2082  140.6749  155.7929 C   0  0  0  0  0  0  0  0  0  0  0  0
  152.4218  140.4947  155.6788 O   0  0  0  0  0  0  0  0  0  0  0  0
  150.6425  141.5520  156.6431 N   0  0  0  0  0  0  0  0  0  0  0  0
  151.2736  142.4357  157.5620 C   0  0  0  0  0  0  0  0  0  0  0  0
  151.0588  143.7751  157.5394 N   0  3  0  0  0  0  0  0  0  0  0  0
  151.6415  144.6402  158.3969 C   0  0  0  0  0  0  0  0  0  0  0  0
  152.5257  144.1608  159.3821 C   0  0  0  0  0  0  0  0  0  0  0  0
  152.7851  142.7777  159.4510 C   0  0  0  0  0  0  0  0  0  0  0  0
  152.1562  141.9071  158.5353 C   0  0  0  0  0  0  0  0  0  0  0  0
  152.4090  140.5654  158.6020 O   0  5  0  0  0  0  0  0  0  0  0  0
  148.5329  141.2003  155.1930 H   0  0  0  0  0  0  0  0  0  0  0  0
  148.3888  140.1184  153.8135 H   0  0  0  0  0  0  0  0  0  0  0  0
  149.4665  141.5042  153.7270 H   0  0  0  0  0  0  0  0  0  0  0  0
  149.7905  139.0538  155.5410 H   0  0  0  0  0  0  0  0  0  0  0  0
  152.1152  137.6953  153.1957 H   0  0  0  0  0  0  0  0  0  0  0  0
  152.3755  138.2414  154.8524 H   0  0  0  0  0  0  0  0  0  0  0  0
  149.6390  137.1291  154.1610 H   0  0  0  0  0  0  0  0  0  0  0  0
  151.4646  136.9894  156.6705 H   0  0  0  0  0  0  0  0  0  0  0  0
  149.7303  136.3934  156.5304 H   0  0  0  0  0  0  0  0  0  0  0  0
  150.4223  134.8187  154.6964 H   0  0  0  0  0  0  0  0  0  0  0  0
  152.1552  135.4178  154.8370 H   0  0  0  0  0  0  0  0  0  0  0  0
  149.6331  141.5930  156.6418 H   0  0  0  0  0  0  0  0  0  0  0  0
  151.3835  145.6813  158.2690 H   0  0  0  0  0  0  0  0  0  0  0  0
  152.9982  144.8418  160.0745 H   0  0  0  0  0  0  0  0  0  0  0  0
  153.4606  142.3899  160.1998 H   0  0  0  0  0  0  0  0  0  0  0  0
  150.4217  144.1471  156.8343 H   0  0  0  0  0  0  0  0  0  0  0  0
  1  2  1  0  0  0  0
  1 18  1  0  0  0  0
  1 19  1  0  0  0  0
  1 20  1  0  0  0  0
  2  3  1  0  0  0  0
  2  8  1  0  0  0  0
  2 21  1  0  0  0  0
  3  4  1  0  0  0  0
  4  5  1  0  0  0  0
  4 22  1  0  0  0  0
  4 23  1  0  0  0  0
  5  7  1  0  0  0  0
  5  6  1  0  0  0  0
  5 24  1  0  0  0  0
  6  7  1  0  0  0  0
  6 25  1  0  0  0  0
  6 26  1  0  0  0  0
  7 27  1  0  0  0  0
  7 28  1  0  0  0  0
  8  9  2  0  0  0  0
  8 10  1  0  0  0  0
 10 29  1  0  0  0  0
 10 11  1  0  0  0  0
 11 16  2  0  0  0  0
 11 12  1  0  0  0  0
 12 33  1  0  0  0  0
 12 13  2  0  0  0  0
 13 30  1  0  0  0  0
 13 14  1  0  0  0  0
 14 31  1  0  0  0  0
 14 15  2  0  0  0  0
 15 16  1  0  0  0  0
 15 32  1  0  0  0  0
 16 17  1  0  0  0  0
M  CHG  1  12   1
M  CHG  1  17  -1
M  END
> <s_m_source_file>
AV-unprocessed.smi

> <i_m_source_file_index>
3150

> <i_lp_mmshare_version>
43012

> <i_f3d_flags>
0

> <s_epik_input>
W0NIMl0xW0NIMl1bQ0hdMVtDSDJdT1tDQEBIXShbQ0gzXSlDKD1PKVtOSF1jMm5bY0hdW2NIXVtjSF1jMltPSF0=

> <s_epik_cmdline>
J2VwaWtfcHl0aG9uJywgJy1waCcsICc3LjAnLCAnLXRuJywgJzgnLCAnLW1hJywgJzIwMCcsICctbWV0YWxfYmluZGluZycsICctaW1hZScsICc8aW5maWxlLm1hZT4nLCAnLW9tYWUnLCAnPG91dGZpbGUubWFlPic=

> <r_lp_tautomer_probability>
0.56342

> <r_epik_Ionization_Penalty>
0.213151

> <r_epik_Ionization_Penalty_Charging>
0.0249427

> <r_epik_Ionization_Penalty_Neutral>
0.188209

> <r_epik_State_Penalty>
0.538305

> <r_epik_Charging_Adjusted_Penalty>
0.563248

> <i_epik_Tot_Q>
0

> <i_epik_Tot_abs_Q>
2

> <r_epik_Metal_State_Penalty>
2.57454

> <b_epik_Metal_Only>
0

> <s_lp_Force_Field>
OPLS_2005

> <r_lp_Energy>
15.4349

> <b_lp_Chiralities_Consistent>
1

> <s_lp_Variant>
AV-unprocessed.smi:3150-4

> <Gold.Version>
5.8.1

> <Gold.Id.Protein>
6NUR|6NUR_protein|mol2

> <Gold.PLP.Fitness>
42.6846

> <Gold.PLP.PLP>
-34.4967

> <Gold.PLP.part.hbond>
-3.3047

> <Gold.PLP.part.metal>
0.0000

> <Gold.PLP.part.buried>
-2.0932

> <Gold.PLP.part.nonpolar>
-30.0446

> <Gold.PLP.part.repulsive>
0.2749

> <Gold.PLP.ligand.clash>
0.0000

> <Gold.PLP.ligand.torsion>
1.6020

> <Gold.PLP.Chemscore.Hbond>
3.4413

> <Gold.PLP.Chemscore.CHOScore>
0.0000

> <Gold.PLP.Chemscore.Metal>
0.0000

> <Gold.Chemscore.Hbonds>
donor molecule, donor type, donor heavy atom, donor atom, acceptor molecule, acceptor atom, score
      L1  H    12    33       P1  8028  2.00
      P1  H  7989  7998       L1     3  0.50
      P1  H  7997  8008       L1     9  0.99

> <Gold.PLP.Chemscore.Internal.Correction>
1.0681

> <Gold.Rescore>
     Score         DG    S(hbond)    S(metal)    S(lipo)     H(rot)  DE(clash)    DE(int)     intcor
     14.71     -16.58       1.76        0.00      81.29       1.68       0.24       1.62       ----

> <Gold.Chemscore.Fitness>
14.7126

> <Gold.Chemscore.DG>
-16.5752

> <Gold.Chemscore.ZeroCoef>
-5.4800

> <Gold.Chemscore.Hbond>
1.7645

> <Gold.Chemscore.Metal>
0.0000

> <Gold.Chemscore.Lipo>
81.2909

> <Gold.Chemscore.Internal_Hbond>
0.0000

> <Gold.Chemscore.DEClash>
0.2387

> <Gold.Chemscore.DEInternal>
1.6240

> <Gold.Chemscore.Rot>
1.6833

> <Gold.Chemscore.Internal.Correction>
   9.000000E+99

> <Gold.Chemscore.Hbonds>
donor molecule, donor type, donor heavy atom, donor atom, acceptor molecule, acceptor atom, score
      L1  H    12    33       P1  8028  0.96
      P1  H  7989  7998       L1     3  0.02
      P1  H  7997  8008       L1     9  0.89

> <Gold.Chemscore.Hbond.Weighted>
-5.8936

> <Gold.Chemscore.Metal.Weighted>
-0.0000

> <Gold.Chemscore.Lipo.Weighted>
-9.5110

> <Gold.Chemscore.Internal_Hbond.Weighted>
0.0000

> <Gold.Chemscore.DEClash.Weighted>
0.2387

> <Gold.Chemscore.DEInternal.Weighted>
1.6240

> <Gold.Chemscore.Rot.Weighted>
4.3094

> <Gold.Chemscore.Internal.Correction.Weighted>
   9.000000E+99

> <Gold.Protein.RotatedTorsions>
[ 6907 6896 6895 6894 ] final -168.22 input  -60.11 | X-H torsion
[ 7974 7965 7964 7962 ] final -136.02 input  175.53 | X-H torsion
[ 8008 7997 7996 7995 ] final  -36.22 input   59.86 | X-H torsion
[ 10167 10162 10161 10158 ] final   93.73 input  -65.29 | X-H torsion
[ 10718 10713 10712 10709 ] final   35.49 input   66.30 | X-H torsion
[ 10763 10752 10751 10750 ] final -105.26 input  -60.55 | X-H torsion
[ 11005 11000 10999 10996 ] final  -82.59 input  -57.11 | X-H torsion

> <Gold.Protein.ActiveResidues>
 VAL166  LYS551  ARG553  GLY616  TRP617  ASP618  TYR619  PRO620  LYS621  CYS622 
 ASP623  PHE694  ASN695  SER759  ASP760  ASP761  ALA762  ILE779  LEU786  VAL792 
 PHE793  MET794  SER795  GLU796  ALA797  LYS798  CYS799  TRP800  GLU811  SER814 

> <Gold.Protein.RotatedAtoms>
  151.4720  133.3567  159.2824 H   0  0  0  0  0  0  0  0  0  0  0  0  # atno 6907 bound_to 6896
  150.8954  134.8364  159.7334 H   0  0  0  0  0  0  0  0  0  0  0  0  # atno 6908 bound_to 6896
  152.4848  134.4635  159.9664 H   0  0  0  0  0  0  0  0  0  0  0  0  # atno 6909 bound_to 6896
  144.8963  140.6711  143.5113 H   0  0  0  0  0  0  0  0  0  0  0  0  # atno 7974 bound_to 7965
  154.4078  140.1636  156.2338 H   0  0  0  0  0  0  0  0  0  0  0  0  # atno 8008 bound_to 7997
  155.9260  140.3418  155.6188 H   0  0  0  0  0  0  0  0  0  0  0  0  # atno 8009 bound_to 7997
  155.7164  140.0763  157.2340 H   0  0  0  0  0  0  0  0  0  0  0  0  # atno 8010 bound_to 7997
  139.8151  144.6756  150.9590 H   0  0  0  0  0  0  0  0  0  0  0  0  # atno 10167 bound_to 10162
  157.3233  130.7459  149.6799 H   0  0  0  0  0  0  0  0  0  0  0  0  # atno 10718 bound_to 10713
  154.7934  135.4755  154.0106 H   0  0  0  0  0  0  0  0  0  0  0  0  # atno 10763 bound_to 10752
  153.1666  135.6818  153.8673 H   0  0  0  0  0  0  0  0  0  0  0  0  # atno 10764 bound_to 10752
  153.8269  135.3197  155.3393 H   0  0  0  0  0  0  0  0  0  0  0  0  # atno 10765 bound_to 10752
  141.1662  133.7252  156.8594 H   0  0  0  0  0  0  0  0  0  0  0  0  # atno 11005 bound_to 11000
  145.3694  139.1662  143.4340 LP  0  0  0  0  0  0  0  0  0  0  0  0  # atno 17320 bound_to 7965
  146.3083  140.3764  142.8679 LP  0  0  0  0  0  0  0  0  0  0  0  0  # atno 17321 bound_to 7965
  140.7816  143.4146  151.0937 LP  0  0  0  0  0  0  0  0  0  0  0  0  # atno 17342 bound_to 10162
  139.7810  143.8355  152.3137 LP  0  0  0  0  0  0  0  0  0  0  0  0  # atno 17343 bound_to 10162
  155.9688  130.4217  150.4480 LP  0  0  0  0  0  0  0  0  0  0  0  0  # atno 17370 bound_to 10713
  157.2499  131.0544  151.2385 LP  0  0  0  0  0  0  0  0  0  0  0  0  # atno 17371 bound_to 10713
  140.1859  134.9000  157.3004 LP  0  0  0  0  0  0  0  0  0  0  0  0  # atno 17394 bound_to 11000
  140.2343  134.3871  155.7508 LP  0  0  0  0  0  0  0  0  0  0  0  0  # atno 17395 bound_to 11000

$$$$
