AV-unprocessed.smi:1815|AV-procd|sdf|7359|dock3
  -GOLD-   22720 9 23D 1   1.00000     0.00000
 Structure written by MMmdl.
 38 39  0  0  0  0  0  0  0  0  2 V2000
  151.7122  139.5049  156.5433 C   0  0  0  0  0  0  0  0  0  0  0  0
  151.1678  139.1090  155.1600 C   0  0  1  0  0  0  0  0  0  0  0  0
  150.3264  137.8199  155.1898 C   0  0  0  0  0  0  0  0  0  0  0  0
  149.0203  138.0192  155.8169 N   0  0  0  0  0  0  0  0  0  0  0  0
  148.2376  136.7827  155.8871 C   0  0  0  0  0  0  0  0  0  0  0  0
  148.4968  135.9089  157.1324 C   0  0  0  0  0  0  0  0  0  0  0  0
  148.0292  136.5113  158.3777 N   0  0  0  0  0  0  0  0  0  0  0  0
  148.8014  136.8844  159.4098 C   0  0  0  0  0  0  0  0  0  0  0  0
  150.0263  136.7547  159.3444 O   0  0  0  0  0  0  0  0  0  0  0  0
  148.1044  137.3597  160.4669 N   0  5  0  0  0  0  0  0  0  0  0  0
  147.4323  136.5089  161.2591 C   0  0  0  0  0  0  0  0  0  0  0  0
  147.5339  135.1791  161.1492 N   0  0  0  0  0  0  0  0  0  0  0  0
  146.7520  134.4842  162.0733 C   0  0  0  0  0  0  0  0  0  0  0  0
  146.0319  135.3040  162.9009 C   0  0  0  0  0  0  0  0  0  0  0  0
  146.3152  136.9835  162.5413 S   0  0  0  0  0  0  0  0  0  0  0  0
  148.3251  139.0682  155.0834 C   0  0  0  0  0  0  0  0  0  0  0  0
  149.1216  140.3870  155.0933 C   0  0  2  0  0  0  0  0  0  0  0  0
  148.4395  141.4806  154.2649 C   0  0  0  0  0  0  0  0  0  0  0  0
  150.4233  140.1667  154.5513 O   0  0  0  0  0  0  0  0  0  0  0  0
  152.3534  138.7192  156.9448 H   0  0  0  0  0  0  0  0  0  0  0  0
  150.9138  139.6699  157.2667 H   0  0  0  0  0  0  0  0  0  0  0  0
  152.3048  140.4175  156.4828 H   0  0  0  0  0  0  0  0  0  0  0  0
  152.0304  138.9314  154.5173 H   0  0  0  0  0  0  0  0  0  0  0  0
  150.1851  137.4701  154.1663 H   0  0  0  0  0  0  0  0  0  0  0  0
  150.8943  137.0415  155.6906 H   0  0  0  0  0  0  0  0  0  0  0  0
  147.1781  137.0397  155.9199 H   0  0  0  0  0  0  0  0  0  0  0  0
  148.3628  136.1990  154.9739 H   0  0  0  0  0  0  0  0  0  0  0  0
  148.0786  134.9121  156.9847 H   0  0  0  0  0  0  0  0  0  0  0  0
  149.5717  135.7632  157.2386 H   0  0  0  0  0  0  0  0  0  0  0  0
  147.0324  136.6330  158.4787 H   0  0  0  0  0  0  0  0  0  0  0  0
  146.7691  133.4045  162.0702 H   0  0  0  0  0  0  0  0  0  0  0  0
  145.3555  135.0254  163.6948 H   0  0  0  0  0  0  0  0  0  0  0  0
  148.1483  138.7476  154.0554 H   0  0  0  0  0  0  0  0  0  0  0  0
  147.3452  139.2430  155.5293 H   0  0  0  0  0  0  0  0  0  0  0  0
  149.2173  140.7441  156.1192 H   0  0  0  0  0  0  0  0  0  0  0  0
  147.4430  141.6995  154.6489 H   0  0  0  0  0  0  0  0  0  0  0  0
  148.3388  141.1805  153.2215 H   0  0  0  0  0  0  0  0  0  0  0  0
  149.0162  142.4052  154.2923 H   0  0  0  0  0  0  0  0  0  0  0  0
  1  2  1  0  0  0  0
  1 20  1  0  0  0  0
  1 21  1  0  0  0  0
  1 22  1  0  0  0  0
  2 19  1  0  0  0  0
  2  3  1  0  0  0  0
  2 23  1  0  0  0  0
  3  4  1  0  0  0  0
  3 24  1  0  0  0  0
  3 25  1  0  0  0  0
  4  5  1  0  0  0  0
  4 16  1  0  0  0  0
  5  6  1  0  0  0  0
  5 26  1  0  0  0  0
  5 27  1  0  0  0  0
  6  7  1  0  0  0  0
  6 28  1  0  0  0  0
  6 29  1  0  0  0  0
  7  8  1  0  0  0  0
  7 30  1  0  0  0  0
  8  9  2  0  0  0  0
  8 10  1  0  0  0  0
 10 11  1  0  0  0  0
 11 15  1  0  0  0  0
 11 12  2  0  0  0  0
 12 13  1  0  0  0  0
 13 14  2  0  0  0  0
 13 31  1  0  0  0  0
 14 15  1  0  0  0  0
 14 32  1  0  0  0  0
 16 17  1  0  0  0  0
 16 33  1  0  0  0  0
 16 34  1  0  0  0  0
 17 18  1  0  0  0  0
 17 19  1  0  0  0  0
 17 35  1  0  0  0  0
 18 36  1  0  0  0  0
 18 37  1  0  0  0  0
 18 38  1  0  0  0  0
M  CHG  1  10  -1
M  END
> <s_m_source_file>
AV-unprocessed.smi

> <i_m_source_file_index>
1815

> <i_lp_mmshare_version>
43012

> <i_f3d_flags>
0

> <s_epik_input>
W0NIM11bQ0BASF0xW0NIMl1OKFtDSDJdW0NASF0oTzEpW0NIM10pW0NIMl1bQ0gyXVtOSF1DKD1PKVtOSF1jMm5bY0hdW2NIXXMy

> <s_epik_cmdline>
J2VwaWtfcHl0aG9uJywgJy1waCcsICc3LjAnLCAnLXRuJywgJzgnLCAnLW1hJywgJzIwMCcsICctbWV0YWxfYmluZGluZycsICctaW1hZScsICc8aW5maWxlLm1hZT4nLCAnLW9tYWUnLCAnPG91dGZpbGUubWFlPic=

> <r_lp_tautomer_probability>
0.999

> <r_epik_Ionization_Penalty>
7.22374

> <r_epik_Ionization_Penalty_Charging>
5.82415

> <r_epik_Ionization_Penalty_Neutral>
1.39959

> <r_epik_State_Penalty>
6.03347

> <r_epik_Charging_Adjusted_Penalty>
11.8576

> <i_epik_Tot_Q>
-1

> <i_epik_Tot_abs_Q>
1

> <r_epik_Metal_State_Penalty>
2.01024

> <b_epik_Metal_Only>
1

> <s_lp_Force_Field>
OPLS_2005

> <r_lp_Energy>
24.221

> <b_lp_Chiralities_Consistent>
1

> <s_lp_Variant>
AV-unprocessed.smi:1815-10

> <Gold.Version>
5.8.1

> <Gold.Id.Protein>
6NUR|6NUR_protein|mol2

> <Gold.PLP.Fitness>
42.2689

> <Gold.PLP.PLP>
-30.1242

> <Gold.PLP.part.hbond>
-4.0000

> <Gold.PLP.part.metal>
0.0000

> <Gold.PLP.part.buried>
-6.0177

> <Gold.PLP.part.nonpolar>
-22.4596

> <Gold.PLP.part.repulsive>
0.1853

> <Gold.PLP.ligand.clash>
0.0000

> <Gold.PLP.ligand.torsion>
1.0748

> <Gold.PLP.Chemscore.Hbond>
4.7356

> <Gold.PLP.Chemscore.CHOScore>
0.0000

> <Gold.PLP.Chemscore.Metal>
0.0000

> <Gold.Chemscore.Hbonds>
donor molecule, donor type, donor heavy atom, donor atom, acceptor molecule, acceptor atom, score
      P1  H  6896  6907       L1     9  0.96
      P1  H  6931  6943       L1    10  1.08
      P1  H  6934  6947       L1    10  1.34
      P1  H  7989  7998       L1    19  1.00

> <Gold.PLP.Chemscore.Internal.Correction>
0.0875

> <Gold.Rescore>
     Score         DG    S(hbond)    S(metal)    S(lipo)     H(rot)  DE(clash)    DE(int)     intcor
     16.86     -18.00       2.93        0.00      57.78       1.57       0.00       1.14       ----

> <Gold.Chemscore.Fitness>
16.8556

> <Gold.Chemscore.DG>
-17.9981

> <Gold.Chemscore.ZeroCoef>
-5.4800

> <Gold.Chemscore.Hbond>
2.9254

> <Gold.Chemscore.Metal>
0.0000

> <Gold.Chemscore.Lipo>
57.7808

> <Gold.Chemscore.Internal_Hbond>
0.0000

> <Gold.Chemscore.DEClash>
0.0004

> <Gold.Chemscore.DEInternal>
1.1422

> <Gold.Chemscore.Rot>
1.5676

> <Gold.Chemscore.Internal.Correction>
   9.000000E+99

> <Gold.Chemscore.Hbonds>
donor molecule, donor type, donor heavy atom, donor atom, acceptor molecule, acceptor atom, score
      P1  H  6896  6907       L1     9  0.89
      P1  H  6931  6943       L1    10  0.08
      P1  H  6934  6947       L1    10  0.17
      P1  H  7989  7998       L1    19  0.34

> <Gold.Chemscore.Hbond.Weighted>
-9.7708

> <Gold.Chemscore.Metal.Weighted>
-0.0000

> <Gold.Chemscore.Lipo.Weighted>
-6.7604

> <Gold.Chemscore.Internal_Hbond.Weighted>
0.0000

> <Gold.Chemscore.DEClash.Weighted>
0.0004

> <Gold.Chemscore.DEInternal.Weighted>
1.1422

> <Gold.Chemscore.Rot.Weighted>
4.0130

> <Gold.Chemscore.Internal.Correction.Weighted>
   9.000000E+99

> <Gold.Protein.RotatedTorsions>
[ 6907 6896 6895 6894 ] final  -41.05 input  -60.11 | X-H torsion
[ 7974 7965 7964 7962 ] final   71.62 input  175.53 | X-H torsion
[ 8008 7997 7996 7995 ] final -148.11 input   59.86 | X-H torsion
[ 10167 10162 10161 10158 ] final  -48.33 input  -65.29 | X-H torsion
[ 10718 10713 10712 10709 ] final  174.43 input   66.30 | X-H torsion
[ 10763 10752 10751 10750 ] final -108.31 input  -60.55 | X-H torsion
[ 11005 11000 10999 10996 ] final   -0.29 input  -57.11 | X-H torsion

> <Gold.Protein.ActiveResidues>
 VAL166  LYS551  ARG553  GLY616  TRP617  ASP618  TYR619  PRO620  LYS621  CYS622 
 ASP623  PHE694  ASN695  SER759  ASP760  ASP761  ALA762  ILE779  LEU786  VAL792 
 PHE793  MET794  SER795  GLU796  ALA797  LYS798  CYS799  TRP800  GLU811  SER814 

> <Gold.Protein.RotatedAtoms>
  150.9713  134.9085  159.7789 H   0  0  0  0  0  0  0  0  0  0  0  0  # atno 6907 bound_to 6896
  152.5191  134.3537  159.9270 H   0  0  0  0  0  0  0  0  0  0  0  0  # atno 6908 bound_to 6896
  151.3546  133.3871  159.2718 H   0  0  0  0  0  0  0  0  0  0  0  0  # atno 6909 bound_to 6896
  145.7636  139.2811  143.1362 H   0  0  0  0  0  0  0  0  0  0  0  0  # atno 7974 bound_to 7965
  155.5863  140.0648  157.2770 H   0  0  0  0  0  0  0  0  0  0  0  0  # atno 8008 bound_to 7997
  154.4318  140.1843  156.1075 H   0  0  0  0  0  0  0  0  0  0  0  0  # atno 8009 bound_to 7997
  156.0267  140.3311  155.7099 H   0  0  0  0  0  0  0  0  0  0  0  0  # atno 8010 bound_to 7997
  140.6736  143.2745  151.4055 H   0  0  0  0  0  0  0  0  0  0  0  0  # atno 10167 bound_to 10162
  156.9496  131.0027  151.2951 H   0  0  0  0  0  0  0  0  0  0  0  0  # atno 10718 bound_to 10713
  154.8128  135.4643  154.0561 H   0  0  0  0  0  0  0  0  0  0  0  0  # atno 10763 bound_to 10752
  153.1978  135.6864  153.8276 H   0  0  0  0  0  0  0  0  0  0  0  0  # atno 10764 bound_to 10752
  153.7771  135.3262  155.3337 H   0  0  0  0  0  0  0  0  0  0  0  0  # atno 10765 bound_to 10752
  140.6346  133.9544  155.8293 H   0  0  0  0  0  0  0  0  0  0  0  0  # atno 11005 bound_to 11000
  146.0240  140.8321  142.9909 LP  0  0  0  0  0  0  0  0  0  0  0  0  # atno 17320 bound_to 7965
  144.6826  140.2670  143.7311 LP  0  0  0  0  0  0  0  0  0  0  0  0  # atno 17321 bound_to 7965
  139.6016  144.1283  152.2204 LP  0  0  0  0  0  0  0  0  0  0  0  0  # atno 17342 bound_to 10162
  140.0669  144.5811  150.7221 LP  0  0  0  0  0  0  0  0  0  0  0  0  # atno 17343 bound_to 10162
  157.5730  130.8324  149.8418 LP  0  0  0  0  0  0  0  0  0  0  0  0  # atno 17370 bound_to 10713
  156.0368  130.3749  150.1538 LP  0  0  0  0  0  0  0  0  0  0  0  0  # atno 17371 bound_to 10713
  141.0650  134.0289  157.3606 LP  0  0  0  0  0  0  0  0  0  0  0  0  # atno 17394 bound_to 11000
  139.9103  135.0188  156.7662 LP  0  0  0  0  0  0  0  0  0  0  0  0  # atno 17395 bound_to 11000

$$$$
