AV-unprocessed.smi:1436|AV-procd|sdf|5861|dock5
  -GOLD-   22720 5533D 1   1.00000     0.00000
 Structure written by MMmdl.
 44 45  0  0  0  0  0  0  0  0  2 V2000
  149.6784  138.2520  158.0141 C   0  0  0  0  0  0  0  0  0  0  0  0
  150.9706  138.4038  157.2642 C   0  0  0  0  0  0  0  0  0  0  0  0
  152.0177  138.9300  157.8754 N   0  0  0  0  0  0  0  0  0  0  0  0
  153.0540  138.9203  156.9370 O   0  0  0  0  0  0  0  0  0  0  0  0
  152.5870  138.3749  155.7858 C   0  0  0  0  0  0  0  0  0  0  0  0
  153.5623  138.2574  154.6638 C   0  0  0  0  0  0  0  0  0  0  0  0
  151.2713  138.0251  155.9236 C   0  0  0  0  0  0  0  0  0  0  0  0
  150.3600  137.3716  154.9150 C   0  0  0  0  0  0  0  0  0  0  0  0
  149.9465  136.0055  155.4547 C   0  0  0  0  0  0  0  0  0  0  0  0
  150.1785  135.7105  156.6263 O   0  0  0  0  0  0  0  0  0  0  0  0
  149.2729  135.2136  154.6050 N   0  0  0  0  0  0  0  0  0  0  0  0
  148.5918  133.9671  154.9512 C   0  0  2  0  0  0  0  0  0  0  0  0
  149.5067  133.1182  155.8439 C   0  0  0  0  0  0  0  0  0  0  0  0
  148.1794  133.2046  153.6706 C   0  0  0  0  0  0  0  0  0  0  0  0
  147.3720  134.0326  152.7374 N   0  3  0  0  0  0  0  0  0  0  0  0
  146.8374  133.2660  151.5880 C   0  0  0  0  0  0  0  0  0  0  0  0
  146.0796  134.2012  150.6294 C   0  0  0  0  0  0  0  0  0  0  0  0
  145.0485  134.8820  151.3341 O   0  0  0  0  0  0  0  0  0  0  0  0
  145.5647  135.6867  152.3870 C   0  0  0  0  0  0  0  0  0  0  0  0
  146.2885  134.7920  153.4060 C   0  0  0  0  0  0  0  0  0  0  0  0
  149.5805  137.2442  158.4186 H   0  0  0  0  0  0  0  0  0  0  0  0
  148.8224  138.4345  157.3645 H   0  0  0  0  0  0  0  0  0  0  0  0
  149.6125  138.9526  158.8475 H   0  0  0  0  0  0  0  0  0  0  0  0
  154.3017  137.4853  154.8763 H   0  0  0  0  0  0  0  0  0  0  0  0
  154.0895  139.1989  154.5086 H   0  0  0  0  0  0  0  0  0  0  0  0
  153.0610  137.9955  153.7323 H   0  0  0  0  0  0  0  0  0  0  0  0
  149.4717  137.9743  154.7220 H   0  0  0  0  0  0  0  0  0  0  0  0
  150.8531  137.2417  153.9510 H   0  0  0  0  0  0  0  0  0  0  0  0
  149.1524  135.5436  153.6581 H   0  0  0  0  0  0  0  0  0  0  0  0
  147.6970  134.1890  155.5347 H   0  0  0  0  0  0  0  0  0  0  0  0
  149.0158  132.1895  156.1366 H   0  0  0  0  0  0  0  0  0  0  0  0
  149.7696  133.6521  156.7577 H   0  0  0  0  0  0  0  0  0  0  0  0
  150.4339  132.8571  155.3321 H   0  0  0  0  0  0  0  0  0  0  0  0
  149.0904  132.8897  153.1588 H   0  0  0  0  0  0  0  0  0  0  0  0
  147.6398  132.2895  153.9190 H   0  0  0  0  0  0  0  0  0  0  0  0
  147.6549  132.7814  151.0526 H   0  0  0  0  0  0  0  0  0  0  0  0
  146.1741  132.4785  151.9489 H   0  0  0  0  0  0  0  0  0  0  0  0
  146.7562  134.9243  150.1736 H   0  0  0  0  0  0  0  0  0  0  0  0
  145.6347  133.6272  149.8165 H   0  0  0  0  0  0  0  0  0  0  0  0
  146.2392  136.4461  151.9873 H   0  0  0  0  0  0  0  0  0  0  0  0
  144.7399  136.2133  152.8674 H   0  0  0  0  0  0  0  0  0  0  0  0
  145.5812  134.0989  153.8641 H   0  0  0  0  0  0  0  0  0  0  0  0
  146.6942  135.4090  154.2070 H   0  0  0  0  0  0  0  0  0  0  0  0
  148.0063  134.7145  152.3456 H   0  0  0  0  0  0  0  0  0  0  0  0
  1  2  1  0  0  0  0
  1 21  1  0  0  0  0
  1 22  1  0  0  0  0
  1 23  1  0  0  0  0
  2  7  1  0  0  0  0
  2  3  2  0  0  0  0
  3  4  1  0  0  0  0
  4  5  1  0  0  0  0
  5  6  1  0  0  0  0
  5  7  2  0  0  0  0
  6 24  1  0  0  0  0
  6 25  1  0  0  0  0
  6 26  1  0  0  0  0
  7  8  1  0  0  0  0
  8  9  1  0  0  0  0
  8 27  1  0  0  0  0
  8 28  1  0  0  0  0
  9 10  2  0  0  0  0
  9 11  1  0  0  0  0
 11 12  1  0  0  0  0
 11 29  1  0  0  0  0
 12 13  1  0  0  0  0
 12 14  1  0  0  0  0
 12 30  1  0  0  0  0
 13 31  1  0  0  0  0
 13 32  1  0  0  0  0
 13 33  1  0  0  0  0
 14 15  1  0  0  0  0
 14 34  1  0  0  0  0
 14 35  1  0  0  0  0
 15 20  1  0  0  0  0
 15 16  1  0  0  0  0
 15 44  1  0  0  0  0
 16 17  1  0  0  0  0
 16 36  1  0  0  0  0
 16 37  1  0  0  0  0
 17 18  1  0  0  0  0
 17 38  1  0  0  0  0
 17 39  1  0  0  0  0
 18 19  1  0  0  0  0
 19 20  1  0  0  0  0
 19 40  1  0  0  0  0
 19 41  1  0  0  0  0
 20 42  1  0  0  0  0
 20 43  1  0  0  0  0
M  CHG  1  15   1
M  END
> <s_m_source_file>
AV-unprocessed.smi

> <i_m_source_file_index>
1436

> <i_lp_mmshare_version>
43012

> <i_f3d_flags>
0

> <s_epik_input>
W0NIM11jMW5vYyhbQ0gzXSljMVtDSDJdQyg9TylbTkhdW0NASF0oW0NIM10pW0NIMl1OMltDSDJdW0NIMl1PW0NIMl1bQ0gyXTI=

> <s_epik_cmdline>
J2VwaWtfcHl0aG9uJywgJy1waCcsICc3LjAnLCAnLXRuJywgJzgnLCAnLW1hJywgJzIwMCcsICctbWV0YWxfYmluZGluZycsICctaW1hZScsICc8aW5maWxlLm1hZT4nLCAnLW9tYWUnLCAnPG91dGZpbGUubWFlPic=

> <r_epik_Ionization_Penalty>
0.663207

> <r_epik_Ionization_Penalty_Charging>
0.663207

> <r_epik_Ionization_Penalty_Neutral>
1.07515e-07

> <r_epik_State_Penalty>
0.682743

> <r_epik_Charging_Adjusted_Penalty>
1.34595

> <i_epik_Tot_Q>
1

> <i_epik_Tot_abs_Q>
1

> <r_epik_Metal_State_Penalty>
0.682743

> <b_epik_Metal_Only>
0

> <s_lp_Force_Field>
OPLS_2005

> <r_lp_Energy>
13.3689

> <b_lp_Chiralities_Consistent>
1

> <s_lp_Variant>
AV-unprocessed.smi:1436-3

> <Gold.Version>
5.8.1

> <Gold.Id.Protein>
6NUR|6NUR_protein|mol2

> <Gold.PLP.Fitness>
41.1357

> <Gold.PLP.PLP>
-29.7297

> <Gold.PLP.part.hbond>
-3.0000

> <Gold.PLP.part.metal>
0.0000

> <Gold.PLP.part.buried>
-4.2375

> <Gold.PLP.part.nonpolar>
-21.0448

> <Gold.PLP.part.repulsive>
0.1813

> <Gold.PLP.ligand.clash>
0.0000

> <Gold.PLP.ligand.torsion>
0.3292

> <Gold.PLP.Chemscore.Hbond>
4.0000

> <Gold.PLP.Chemscore.CHOScore>
0.0000

> <Gold.PLP.Chemscore.Metal>
0.0000

> <Gold.Chemscore.Hbonds>
donor molecule, donor type, donor heavy atom, donor atom, acceptor molecule, acceptor atom, score
      L1  H    11    29       P1  7948  1.00
      L1  H    15    44       P1  7948  2.00
      P1  H  7997  8008       L1     4  1.00

> <Gold.PLP.Chemscore.Internal.Correction>
0.0645

> <Gold.Rescore>
     Score         DG    S(hbond)    S(metal)    S(lipo)     H(rot)  DE(clash)    DE(int)     intcor
     14.96     -17.55       2.76        0.00      63.75       1.79       0.01       2.58       ----

> <Gold.Chemscore.Fitness>
14.9566

> <Gold.Chemscore.DG>
-17.5518

> <Gold.Chemscore.ZeroCoef>
-5.4800

> <Gold.Chemscore.Hbond>
2.7558

> <Gold.Chemscore.Metal>
0.0000

> <Gold.Chemscore.Lipo>
63.7525

> <Gold.Chemscore.Internal_Hbond>
0.0000

> <Gold.Chemscore.DEClash>
0.0121

> <Gold.Chemscore.DEInternal>
2.5831

> <Gold.Chemscore.Rot>
1.7936

> <Gold.Chemscore.Internal.Correction>
   9.000000E+99

> <Gold.Chemscore.Hbonds>
donor molecule, donor type, donor heavy atom, donor atom, acceptor molecule, acceptor atom, score
      L1  H    11    29       P1  7948  0.60
      L1  H    15    44       P1  7948  0.50
      P1  H  7997  8008       L1     4  0.60

> <Gold.Chemscore.Hbond.Weighted>
-9.2044

> <Gold.Chemscore.Metal.Weighted>
-0.0000

> <Gold.Chemscore.Lipo.Weighted>
-7.4590

> <Gold.Chemscore.Internal_Hbond.Weighted>
0.0000

> <Gold.Chemscore.DEClash.Weighted>
0.0121

> <Gold.Chemscore.DEInternal.Weighted>
2.5831

> <Gold.Chemscore.Rot.Weighted>
4.5916

> <Gold.Chemscore.Internal.Correction.Weighted>
   9.000000E+99

> <Gold.Protein.RotatedTorsions>
[ 6907 6896 6895 6894 ] final -151.93 input  -60.11 | X-H torsion
[ 7974 7965 7964 7962 ] final  148.34 input  175.53 | X-H torsion
[ 8008 7997 7996 7995 ] final  -49.59 input   59.86 | X-H torsion
[ 10167 10162 10161 10158 ] final   61.71 input  -65.29 | X-H torsion
[ 10718 10713 10712 10709 ] final   86.56 input   66.30 | X-H torsion
[ 10763 10752 10751 10750 ] final   50.69 input  -60.55 | X-H torsion
[ 11005 11000 10999 10996 ] final -151.41 input  -57.11 | X-H torsion

> <Gold.Protein.ActiveResidues>
 VAL166  LYS551  ARG553  GLY616  TRP617  ASP618  TYR619  PRO620  LYS621  CYS622 
 ASP623  PHE694  ASN695  SER759  ASP760  ASP761  ALA762  ILE779  LEU786  VAL792 
 PHE793  MET794  SER795  GLU796  ALA797  LYS798  CYS799  TRP800  GLU811  SER814 

> <Gold.Protein.RotatedAtoms>
  151.2203  133.4506  159.2600 H   0  0  0  0  0  0  0  0  0  0  0  0  # atno 6907 bound_to 6896
  151.0891  134.9905  159.8404 H   0  0  0  0  0  0  0  0  0  0  0  0  # atno 6908 bound_to 6896
  152.5433  134.2137  159.8813 H   0  0  0  0  0  0  0  0  0  0  0  0  # atno 6909 bound_to 6896
  144.8521  139.6142  143.5969 H   0  0  0  0  0  0  0  0  0  0  0  0  # atno 7974 bound_to 7965
  154.4047  140.1293  156.4527 H   0  0  0  0  0  0  0  0  0  0  0  0  # atno 8008 bound_to 7997
  155.7350  140.3491  155.5057 H   0  0  0  0  0  0  0  0  0  0  0  0  # atno 8009 bound_to 7997
  155.9092  140.1033  157.1282 H   0  0  0  0  0  0  0  0  0  0  0  0  # atno 8010 bound_to 7997
  140.1518  144.4455  150.6755 H   0  0  0  0  0  0  0  0  0  0  0  0  # atno 10167 bound_to 10162
  157.6930  131.0220  150.2991 H   0  0  0  0  0  0  0  0  0  0  0  0  # atno 10718 bound_to 10713
  152.9784  135.5870  154.4294 H   0  0  0  0  0  0  0  0  0  0  0  0  # atno 10763 bound_to 10752
  154.3909  135.2768  155.2157 H   0  0  0  0  0  0  0  0  0  0  0  0  # atno 10764 bound_to 10752
  154.4030  135.6099  153.5962 H   0  0  0  0  0  0  0  0  0  0  0  0  # atno 10765 bound_to 10752
  140.7298  134.3633  157.5168 H   0  0  0  0  0  0  0  0  0  0  0  0  # atno 11005 bound_to 11000
  146.2793  139.6835  142.9240 LP  0  0  0  0  0  0  0  0  0  0  0  0  # atno 17320 bound_to 7965
  145.4479  141.0426  143.2821 LP  0  0  0  0  0  0  0  0  0  0  0  0  # atno 17321 bound_to 7965
  140.6697  143.2281  151.5655 LP  0  0  0  0  0  0  0  0  0  0  0  0  # atno 17342 bound_to 10162
  139.5422  144.2617  152.1373 LP  0  0  0  0  0  0  0  0  0  0  0  0  # atno 17343 bound_to 10162
  156.3510  130.3831  149.7329 LP  0  0  0  0  0  0  0  0  0  0  0  0  # atno 17370 bound_to 10713
  156.4807  130.8039  151.3054 LP  0  0  0  0  0  0  0  0  0  0  0  0  # atno 17371 bound_to 10713
  139.8829  134.9011  156.2803 LP  0  0  0  0  0  0  0  0  0  0  0  0  # atno 17394 bound_to 11000
  140.9930  133.7197  156.0843 LP  0  0  0  0  0  0  0  0  0  0  0  0  # atno 17395 bound_to 11000

$$$$
