AV-unprocessed.smi:2391|AV-procd|sdf|9485|dock7
  -GOLD-   2272013113D 1   1.00000     0.00000
 Structure written by MMmdl.
 34 35  0  0  0  0  0  0  0  0  2 V2000
  151.4842  139.7279  158.5490 O   0  0  0  0  0  0  0  0  0  0  0  0
  152.6750  139.7200  158.2294 C   0  0  0  0  0  0  0  0  0  0  0  0
  153.1859  139.2848  157.0540 N   0  5  0  0  0  0  0  0  0  0  0  0
  152.3696  138.8907  156.0649 C   0  0  0  0  0  0  0  0  0  0  0  0
  151.3391  139.7430  155.6089 C   0  0  0  0  0  0  0  0  0  0  0  0
  150.5013  139.2882  154.5768 C   0  0  0  0  0  0  0  0  0  0  0  0
  150.7479  138.0011  154.0707 C   0  0  0  0  0  0  0  0  0  0  0  0
  151.7395  137.2146  154.5413 N   0  0  0  0  0  0  0  0  0  0  0  0
  152.5322  137.6562  155.5243 N   0  0  0  0  0  0  0  0  0  0  0  0
  153.6041  140.1682  159.0858 N   0  0  0  0  0  0  0  0  0  0  0  0
  153.3694  140.7060  160.4278 C   0  0  2  0  0  0  0  0  0  0  0  0
  153.3107  142.2529  160.3440 C   0  0  0  0  0  0  0  0  0  0  0  0
  152.5489  142.9408  161.4844 C   0  0  0  0  0  0  0  0  0  0  0  0
  152.1493  144.3213  160.9491 C   0  0  0  0  0  0  0  0  0  0  0  0
  152.2534  144.2405  159.4202 C   0  0  0  0  0  0  0  0  0  0  0  0
  152.5938  142.7842  159.0956 C   0  0  0  0  0  0  0  0  0  0  0  0
  154.4527  140.1733  161.3974 C   0  0  0  0  0  0  0  0  0  0  0  0
  155.6627  140.2736  160.8460 F   0  0  0  0  0  0  0  0  0  0  0  0
  154.4450  140.8678  162.5360 F   0  0  0  0  0  0  0  0  0  0  0  0
  154.2474  138.8870  161.6778 F   0  0  0  0  0  0  0  0  0  0  0  0
  151.1971  140.7241  156.0382 H   0  0  0  0  0  0  0  0  0  0  0  0
  149.7022  139.9025  154.1897 H   0  0  0  0  0  0  0  0  0  0  0  0
  150.1396  137.5938  153.2768 H   0  0  0  0  0  0  0  0  0  0  0  0
  154.5645  140.1353  158.7769 H   0  0  0  0  0  0  0  0  0  0  0  0
  152.3973  140.3604  160.7840 H   0  0  0  0  0  0  0  0  0  0  0  0
  154.3288  142.6458  160.3334 H   0  0  0  0  0  0  0  0  0  0  0  0
  151.6491  142.3727  161.7244 H   0  0  0  0  0  0  0  0  0  0  0  0
  153.1423  143.0192  162.3955 H   0  0  0  0  0  0  0  0  0  0  0  0
  151.1422  144.5882  161.2713 H   0  0  0  0  0  0  0  0  0  0  0  0
  152.8256  145.0887  161.3280 H   0  0  0  0  0  0  0  0  0  0  0  0
  151.3350  144.5599  158.9265 H   0  0  0  0  0  0  0  0  0  0  0  0
  153.0552  144.8933  159.0734 H   0  0  0  0  0  0  0  0  0  0  0  0
  153.1985  142.6961  158.1923 H   0  0  0  0  0  0  0  0  0  0  0  0
  151.6729  142.2228  158.9300 H   0  0  0  0  0  0  0  0  0  0  0  0
  1  2  2  0  0  0  0
  2  3  1  0  0  0  0
  2 10  1  0  0  0  0
  3  4  1  0  0  0  0
  4  9  1  0  0  0  0
  4  5  2  0  0  0  0
  5  6  1  0  0  0  0
  5 21  1  0  0  0  0
  6  7  2  0  0  0  0
  6 22  1  0  0  0  0
  7  8  1  0  0  0  0
  7 23  1  0  0  0  0
  8  9  2  0  0  0  0
 10 11  1  0  0  0  0
 10 24  1  0  0  0  0
 11 12  1  0  0  0  0
 11 17  1  0  0  0  0
 11 25  1  0  0  0  0
 12 16  1  0  0  0  0
 12 13  1  0  0  0  0
 12 26  1  0  0  0  0
 13 14  1  0  0  0  0
 13 27  1  0  0  0  0
 13 28  1  0  0  0  0
 14 15  1  0  0  0  0
 14 29  1  0  0  0  0
 14 30  1  0  0  0  0
 15 16  1  0  0  0  0
 15 31  1  0  0  0  0
 15 32  1  0  0  0  0
 16 33  1  0  0  0  0
 16 34  1  0  0  0  0
 17 18  1  0  0  0  0
 17 19  1  0  0  0  0
 17 20  1  0  0  0  0
M  CHG  1   3  -1
M  END
> <s_m_source_file>
AV-unprocessed.smi

> <i_m_source_file_index>
2391

> <i_lp_mmshare_version>
43012

> <i_f3d_flags>
0

> <s_epik_input>
W0NIMl0xW0NIMl1bQ0gyXVtDSDJdW0NIXTFbQ0BIXShDKEYpKEYpRilbTkhdQyg9TylbTkhdYzJbY0hdW2NIXVtjSF1ubjI=

> <s_epik_cmdline>
J2VwaWtfcHl0aG9uJywgJy1waCcsICc3LjAnLCAnLXRuJywgJzgnLCAnLW1hJywgJzIwMCcsICctbWV0YWxfYmluZGluZycsICctaW1hZScsICc8aW5maWxlLm1hZT4nLCAnLW9tYWUnLCAnPG91dGZpbGUubWFlPic=

> <r_lp_tautomer_probability>
1

> <r_epik_Ionization_Penalty>
8.90766

> <r_epik_Ionization_Penalty_Charging>
5.82661

> <r_epik_Ionization_Penalty_Neutral>
3.08106

> <r_epik_State_Penalty>
5.83894

> <r_epik_Charging_Adjusted_Penalty>
11.6655

> <i_epik_Tot_Q>
-1

> <i_epik_Tot_abs_Q>
1

> <r_epik_Metal_State_Penalty>
1.80768

> <b_epik_Metal_Only>
1

> <s_lp_Force_Field>
OPLS_2005

> <r_lp_Energy>
28.0244

> <b_lp_Chiralities_Consistent>
1

> <s_lp_Variant>
AV-unprocessed.smi:2391-5

> <Gold.Version>
5.8.1

> <Gold.Id.Protein>
6NUR|6NUR_protein|mol2

> <Gold.PLP.Fitness>
53.4544

> <Gold.PLP.PLP>
-45.1194

> <Gold.PLP.part.hbond>
-2.7607

> <Gold.PLP.part.metal>
0.0000

> <Gold.PLP.part.buried>
-2.5462

> <Gold.PLP.part.nonpolar>
-40.8573

> <Gold.PLP.part.repulsive>
0.5078

> <Gold.PLP.ligand.clash>
0.0090

> <Gold.PLP.ligand.torsion>
1.5249

> <Gold.PLP.Chemscore.Hbond>
2.5928

> <Gold.PLP.Chemscore.CHOScore>
1.0748

> <Gold.PLP.Chemscore.Metal>
0.0000

> <Gold.Chemscore.Hbonds>
donor molecule, donor type, donor heavy atom, donor atom, acceptor molecule, acceptor atom, score
      P1  H  7997  8008       L1     3  2.00
      P1  H 10752 10763       L1     8  0.55
      L1  C     7    23       P1  7948  0.97
      L1  C     7    23       P1  7949  0.09

> <Gold.PLP.Chemscore.Internal.Correction>
0.3910

> <Gold.Rescore>
     Score         DG    S(hbond)    S(metal)    S(lipo)     H(rot)  DE(clash)    DE(int)     intcor
     14.74     -16.62       0.88        0.00      98.79       1.32       0.03       1.84       ----

> <Gold.Chemscore.Fitness>
14.7425

> <Gold.Chemscore.DG>
-16.6172

> <Gold.Chemscore.ZeroCoef>
-5.4800

> <Gold.Chemscore.Hbond>
0.8838

> <Gold.Chemscore.Metal>
0.0000

> <Gold.Chemscore.Lipo>
98.7939

> <Gold.Chemscore.Internal_Hbond>
0.0000

> <Gold.Chemscore.DEClash>
0.0340

> <Gold.Chemscore.DEInternal>
1.8407

> <Gold.Chemscore.Rot>
1.3179

> <Gold.Chemscore.Internal.Correction>
   9.000000E+99

> <Gold.Chemscore.Hbonds>
donor molecule, donor type, donor heavy atom, donor atom, acceptor molecule, acceptor atom, score
      P1  H  7997  8008       L1     3  0.53
      P1  H 10752 10763       L1     8  0.04

> <Gold.Chemscore.Hbond.Weighted>
-2.9520

> <Gold.Chemscore.Metal.Weighted>
-0.0000

> <Gold.Chemscore.Lipo.Weighted>
-11.5589

> <Gold.Chemscore.Internal_Hbond.Weighted>
0.0000

> <Gold.Chemscore.DEClash.Weighted>
0.0340

> <Gold.Chemscore.DEInternal.Weighted>
1.8407

> <Gold.Chemscore.Rot.Weighted>
3.3737

> <Gold.Chemscore.Internal.Correction.Weighted>
   9.000000E+99

> <Gold.Protein.RotatedTorsions>
[ 6907 6896 6895 6894 ] final   95.57 input  -60.11 | X-H torsion
[ 7974 7965 7964 7962 ] final   34.36 input  175.53 | X-H torsion
[ 8008 7997 7996 7995 ] final  -44.71 input   59.86 | X-H torsion
[ 10167 10162 10161 10158 ] final -121.92 input  -65.29 | X-H torsion
[ 10718 10713 10712 10709 ] final -114.77 input   66.30 | X-H torsion
[ 10763 10752 10751 10750 ] final   28.92 input  -60.55 | X-H torsion
[ 11005 11000 10999 10996 ] final  159.00 input  -57.11 | X-H torsion

> <Gold.Protein.ActiveResidues>
 VAL166  LYS551  ARG553  GLY616  TRP617  ASP618  TYR619  PRO620  LYS621  CYS622 
 ASP623  PHE694  ASN695  SER759  ASP760  ASP761  ALA762  ILE779  LEU786  VAL792 
 PHE793  MET794  SER795  GLU796  ALA797  LYS798  CYS799  TRP800  GLU811  SER814 

> <Gold.Protein.RotatedAtoms>
  152.5442  134.1020  159.8321 H   0  0  0  0  0  0  0  0  0  0  0  0  # atno 6907 bound_to 6896
  151.1097  133.5175  159.2613 H   0  0  0  0  0  0  0  0  0  0  0  0  # atno 6908 bound_to 6896
  151.1898  135.0407  159.8882 H   0  0  0  0  0  0  0  0  0  0  0  0  # atno 6909 bound_to 6896
  146.1358  139.6279  142.9196 H   0  0  0  0  0  0  0  0  0  0  0  0  # atno 7974 bound_to 7965
  154.3998  140.1415  156.3728 H   0  0  0  0  0  0  0  0  0  0  0  0  # atno 8008 bound_to 7997
  155.8076  140.3474  155.5418 H   0  0  0  0  0  0  0  0  0  0  0  0  # atno 8009 bound_to 7997
  155.8419  140.0928  157.1719 H   0  0  0  0  0  0  0  0  0  0  0  0  # atno 8010 bound_to 7997
  140.0198  143.5356  152.2226 H   0  0  0  0  0  0  0  0  0  0  0  0  # atno 10167 bound_to 10162
  156.0851  130.6044  150.8818 H   0  0  0  0  0  0  0  0  0  0  0  0  # atno 10718 bound_to 10713
  153.0461  135.6501  154.0812 H   0  0  0  0  0  0  0  0  0  0  0  0  # atno 10763 bound_to 10752
  154.0509  135.2895  155.3342 H   0  0  0  0  0  0  0  0  0  0  0  0  # atno 10764 bound_to 10752
  154.6720  135.5352  153.8216 H   0  0  0  0  0  0  0  0  0  0  0  0  # atno 10765 bound_to 10752
  140.1920  134.8400  157.2922 H   0  0  0  0  0  0  0  0  0  0  0  0  # atno 11005 bound_to 11000
  145.5158  141.0434  143.2462 LP  0  0  0  0  0  0  0  0  0  0  0  0  # atno 17320 bound_to 7965
  144.7738  139.6674  143.7183 LP  0  0  0  0  0  0  0  0  0  0  0  0  # atno 17321 bound_to 7965
  139.6148  144.7617  151.2872 LP  0  0  0  0  0  0  0  0  0  0  0  0  # atno 17342 bound_to 10162
  140.7347  143.6758  150.8043 LP  0  0  0  0  0  0  0  0  0  0  0  0  # atno 17343 bound_to 10162
  157.5983  131.0942  150.9003 LP  0  0  0  0  0  0  0  0  0  0  0  0  # atno 17370 bound_to 10713
  156.9166  130.5300  149.5279 LP  0  0  0  0  0  0  0  0  0  0  0  0  # atno 17371 bound_to 10713
  140.2149  134.4093  155.7594 LP  0  0  0  0  0  0  0  0  0  0  0  0  # atno 17394 bound_to 11000
  141.2226  133.7137  156.8398 LP  0  0  0  0  0  0  0  0  0  0  0  0  # atno 17395 bound_to 11000

$$$$
