AV-unprocessed.smi:2922|AV-procd|sdf|11198|dock4
  -GOLD-   2272016 93D 1   1.00000     0.00000
 Structure written by MMmdl.
 30 31  0  0  0  0  0  0  0  0  1 V2000
  145.6583  142.8164  153.8780 N   0  0  0  0  0  0  0  0  0  0  0  0
  146.5345  142.0788  154.5664 C   0  0  0  0  0  0  0  0  0  0  0  0
  146.3081  141.7133  155.7183 O   0  0  0  0  0  0  0  0  0  0  0  0
  147.8396  141.6730  153.8563 C   0  0  2  0  0  0  0  0  0  0  0  0
  148.0435  140.1474  153.7512 C   0  0  0  0  0  0  0  0  0  0  0  0
  149.3299  139.8878  154.5182 C   0  0  0  0  0  0  0  0  0  0  0  0
  149.4241  141.0944  155.4439 C   0  0  1  0  0  0  0  0  0  0  0  0
  150.8462  141.3851  155.9465 C   0  0  0  0  0  0  0  0  0  0  0  0
  150.9126  142.6211  156.7141 N   0  0  0  0  0  0  0  0  0  0  0  0
  151.3383  142.7113  158.0270 C   0  0  0  0  0  0  0  0  0  0  0  0
  151.2350  143.8920  158.6505 N   0  0  0  0  0  0  0  0  0  0  0  0
  151.6639  143.9519  159.9302 C   0  0  0  0  0  0  0  0  0  0  0  0
  152.1958  142.8219  160.5824 C   0  0  0  0  0  0  0  0  0  0  0  0
  152.7468  142.8915  162.2156 Cl  0  0  0  0  0  0  0  0  0  0  0  0
  152.2543  141.6318  159.8300 C   0  0  0  0  0  0  0  0  0  0  0  0
  151.8232  141.5818  158.5502 N   0  0  0  0  0  0  0  0  0  0  0  0
  148.9680  142.1395  154.5973 O   0  0  0  0  0  0  0  0  0  0  0  0
  144.7919  143.1027  154.3101 H   0  0  0  0  0  0  0  0  0  0  0  0
  145.8693  143.0844  152.9273 H   0  0  0  0  0  0  0  0  0  0  0  0
  147.8532  142.1359  152.8691 H   0  0  0  0  0  0  0  0  0  0  0  0
  147.2247  139.5869  154.2048 H   0  0  0  0  0  0  0  0  0  0  0  0
  148.1267  139.8188  152.7151 H   0  0  0  0  0  0  0  0  0  0  0  0
  149.3210  138.9399  155.0569 H   0  0  0  0  0  0  0  0  0  0  0  0
  150.1738  139.8768  153.8270 H   0  0  0  0  0  0  0  0  0  0  0  0
  148.7309  140.9692  156.2776 H   0  0  0  0  0  0  0  0  0  0  0  0
  151.2020  140.5603  156.5648 H   0  0  0  0  0  0  0  0  0  0  0  0
  151.5344  141.4591  155.1042 H   0  0  0  0  0  0  0  0  0  0  0  0
  150.4747  143.4409  156.3198 H   0  0  0  0  0  0  0  0  0  0  0  0
  151.5820  144.9042  160.4329 H   0  0  0  0  0  0  0  0  0  0  0  0
  152.6475  140.7190  160.2530 H   0  0  0  0  0  0  0  0  0  0  0  0
  1  2  1  0  0  0  0
  1 18  1  0  0  0  0
  1 19  1  0  0  0  0
  2  3  2  0  0  0  0
  2  4  1  0  0  0  0
  4 17  1  0  0  0  0
  4  5  1  0  0  0  0
  4 20  1  0  0  0  0
  5  6  1  0  0  0  0
  5 21  1  0  0  0  0
  5 22  1  0  0  0  0
  6  7  1  0  0  0  0
  6 23  1  0  0  0  0
  6 24  1  0  0  0  0
  7  8  1  0  0  0  0
  7 17  1  0  0  0  0
  7 25  1  0  0  0  0
  8  9  1  0  0  0  0
  8 26  1  0  0  0  0
  8 27  1  0  0  0  0
  9 10  1  0  0  0  0
  9 28  1  0  0  0  0
 10 16  1  0  0  0  0
 10 11  2  0  0  0  0
 11 12  1  0  0  0  0
 12 13  2  0  0  0  0
 12 29  1  0  0  0  0
 13 14  1  0  0  0  0
 13 15  1  0  0  0  0
 15 16  2  0  0  0  0
 15 30  1  0  0  0  0
M  END
> <s_m_source_file>
AV-unprocessed.smi

> <i_m_source_file_index>
2922

> <i_lp_mmshare_version>
43012

> <i_f3d_flags>
0

> <s_epik_input>
W05IMl1DKD1PKVtDQEBIXTFbQ0gyXVtDSDJdW0NASF0oTzEpW0NIMl1bTkhdYzJuW2NIXWMoQ2wpW2NIXW4y

> <s_epik_cmdline>
J2VwaWtfcHl0aG9uJywgJy1waCcsICc3LjAnLCAnLXRuJywgJzgnLCAnLW1hJywgJzIwMCcsICctbWV0YWxfYmluZGluZycsICctaW1hZScsICc8aW5maWxlLm1hZT4nLCAnLW9tYWUnLCAnPG91dGZpbGUubWFlPic=

> <r_lp_tautomer_probability>
1

> <r_epik_Ionization_Penalty>
6.13883e-06

> <r_epik_Ionization_Penalty_Charging>
0

> <r_epik_Ionization_Penalty_Neutral>
6.13883e-06

> <r_epik_State_Penalty>
-0

> <r_epik_Charging_Adjusted_Penalty>
0

> <i_epik_Tot_Q>
0

> <i_epik_Tot_abs_Q>
0

> <r_epik_Metal_State_Penalty>
-0

> <b_epik_Metal_Only>
0

> <s_lp_Force_Field>
OPLS_2005

> <r_lp_Energy>
9.74106

> <b_lp_Chiralities_Consistent>
1

> <s_lp_Variant>
AV-unprocessed.smi:2922-1

> <Gold.Version>
5.8.1

> <Gold.Id.Protein>
6NUR|6NUR_protein|mol2

> <Gold.PLP.Fitness>
37.9693

> <Gold.PLP.PLP>
-34.9677

> <Gold.PLP.part.hbond>
-2.1385

> <Gold.PLP.part.metal>
0.0000

> <Gold.PLP.part.buried>
-5.7830

> <Gold.PLP.part.nonpolar>
-28.1750

> <Gold.PLP.part.repulsive>
2.7265

> <Gold.PLP.ligand.clash>
0.0000

> <Gold.PLP.ligand.torsion>
0.0225

> <Gold.PLP.Chemscore.Hbond>
1.0075

> <Gold.PLP.Chemscore.CHOScore>
0.0000

> <Gold.PLP.Chemscore.Metal>
0.0000

> <Gold.Chemscore.Hbonds>
donor molecule, donor type, donor heavy atom, donor atom, acceptor molecule, acceptor atom, score
      L1  H     9    28       P1  8028  0.73

> <Gold.PLP.Chemscore.Internal.Correction>
0.0241

> <Gold.Rescore>
     Score         DG    S(hbond)    S(metal)    S(lipo)     H(rot)  DE(clash)    DE(int)     intcor
     12.88     -13.22       1.00        0.00      79.52       1.91       0.31       0.03       ----

> <Gold.Chemscore.Fitness>
12.8814

> <Gold.Chemscore.DG>
-13.2239

> <Gold.Chemscore.ZeroCoef>
-5.4800

> <Gold.Chemscore.Hbond>
1.0000

> <Gold.Chemscore.Metal>
0.0000

> <Gold.Chemscore.Lipo>
79.5214

> <Gold.Chemscore.Internal_Hbond>
0.0000

> <Gold.Chemscore.DEClash>
0.3114

> <Gold.Chemscore.DEInternal>
0.0311

> <Gold.Chemscore.Rot>
1.9142

> <Gold.Chemscore.Internal.Correction>
   9.000000E+99

> <Gold.Chemscore.Hbonds>
donor molecule, donor type, donor heavy atom, donor atom, acceptor molecule, acceptor atom, score
      L1  H     9    28       P1  8028  0.72

> <Gold.Chemscore.Hbond.Weighted>
-3.3402

> <Gold.Chemscore.Metal.Weighted>
-0.0000

> <Gold.Chemscore.Lipo.Weighted>
-9.3040

> <Gold.Chemscore.Internal_Hbond.Weighted>
0.0000

> <Gold.Chemscore.DEClash.Weighted>
0.3114

> <Gold.Chemscore.DEInternal.Weighted>
0.0311

> <Gold.Chemscore.Rot.Weighted>
4.9002

> <Gold.Chemscore.Internal.Correction.Weighted>
   9.000000E+99

> <Gold.Protein.RotatedTorsions>
[ 6907 6896 6895 6894 ] final  120.70 input  -60.11 | X-H torsion
[ 7974 7965 7964 7962 ] final  -61.03 input  175.53 | X-H torsion
[ 8008 7997 7996 7995 ] final  128.54 input   59.86 | X-H torsion
[ 10167 10162 10161 10158 ] final   18.00 input  -65.29 | X-H torsion
[ 10718 10713 10712 10709 ] final   76.09 input   66.30 | X-H torsion
[ 10763 10752 10751 10750 ] final   -7.82 input  -60.55 | X-H torsion
[ 11005 11000 10999 10996 ] final   18.11 input  -57.11 | X-H torsion

> <Gold.Protein.ActiveResidues>
 VAL166  LYS551  ARG553  GLY616  TRP617  ASP618  TYR619  PRO620  LYS621  CYS622 
 ASP623  PHE694  ASN695  SER759  ASP760  ASP761  ALA762  ILE779  LEU786  VAL792 
 PHE793  MET794  SER795  GLU796  ALA797  LYS798  CYS799  TRP800  GLU811  SER814 

> <Gold.Protein.RotatedAtoms>
  152.4378  133.7393  159.6631 H   0  0  0  0  0  0  0  0  0  0  0  0  # atno 6907 bound_to 6896
  150.8264  133.8154  159.3123 H   0  0  0  0  0  0  0  0  0  0  0  0  # atno 6908 bound_to 6896
  151.5820  135.1060  160.0071 H   0  0  0  0  0  0  0  0  0  0  0  0  # atno 6909 bound_to 6896
  145.8083  140.8614  143.0195 H   0  0  0  0  0  0  0  0  0  0  0  0  # atno 7974 bound_to 7965
  156.2917  140.2642  156.2452 H   0  0  0  0  0  0  0  0  0  0  0  0  # atno 8008 bound_to 7997
  154.9937  140.0388  157.2349 H   0  0  0  0  0  0  0  0  0  0  0  0  # atno 8009 bound_to 7997
  154.7663  140.2770  155.6178 H   0  0  0  0  0  0  0  0  0  0  0  0  # atno 8010 bound_to 7997
  140.5685  143.9206  150.6695 H   0  0  0  0  0  0  0  0  0  0  0  0  # atno 10167 bound_to 10162
  157.6660  130.9758  150.1447 H   0  0  0  0  0  0  0  0  0  0  0  0  # atno 10718 bound_to 10713
  153.4318  135.7012  153.6226 H   0  0  0  0  0  0  0  0  0  0  0  0  # atno 10763 bound_to 10752
  153.4637  135.3730  155.2353 H   0  0  0  0  0  0  0  0  0  0  0  0  # atno 10764 bound_to 10752
  154.8725  135.4026  154.3703 H   0  0  0  0  0  0  0  0  0  0  0  0  # atno 10765 bound_to 10752
  140.4285  134.1445  155.7678 H   0  0  0  0  0  0  0  0  0  0  0  0  # atno 11005 bound_to 11000
  144.6760  140.0359  143.7482 LP  0  0  0  0  0  0  0  0  0  0  0  0  # atno 17320 bound_to 7965
  145.9804  139.2937  143.1045 LP  0  0  0  0  0  0  0  0  0  0  0  0  # atno 17321 bound_to 7965
  140.2675  143.3480  152.1268 LP  0  0  0  0  0  0  0  0  0  0  0  0  # atno 17342 bound_to 10162
  139.5105  144.6885  151.5822 LP  0  0  0  0  0  0  0  0  0  0  0  0  # atno 17343 bound_to 10162
  156.2261  130.3678  149.8499 LP  0  0  0  0  0  0  0  0  0  0  0  0  # atno 17370 bound_to 10713
  156.6338  130.8677  151.3500 LP  0  0  0  0  0  0  0  0  0  0  0  0  # atno 17371 bound_to 10713
  141.1755  133.8522  157.1434 LP  0  0  0  0  0  0  0  0  0  0  0  0  # atno 17394 bound_to 11000
  140.0151  134.9971  157.0476 LP  0  0  0  0  0  0  0  0  0  0  0  0  # atno 17395 bound_to 11000

$$$$
