AV-unprocessed.smi:100|AV-procd|sdf|910|dock5
  -GOLD-   2262017403D 1   1.00000     0.00000
 Structure written by MMmdl.
 31 33  0  0  0  0  0  0  0  0  1 V2000
  152.5311  139.1765  158.6944 N   0  0  0  0  0  0  0  0  0  0  0  0
  152.1259  139.3911  157.4351 C   0  0  0  0  0  0  0  0  0  0  0  0
  152.8802  138.9001  156.4238 N   0  0  0  0  0  0  0  0  0  0  0  0
  152.4983  139.1018  155.1582 C   0  0  0  0  0  0  0  0  0  0  0  0
  151.4232  139.7514  154.7021 N   0  0  0  0  0  0  0  0  0  0  0  0
  150.6635  140.2406  155.7256 C   0  0  0  0  0  0  0  0  0  0  0  0
  150.9456  140.1070  157.1128 C   0  0  0  0  0  0  0  0  0  0  0  0
  149.9577  140.7367  157.8590 N   0  0  0  0  0  0  0  0  0  0  0  0
  149.1394  141.2123  156.9583 C   0  0  0  0  0  0  0  0  0  0  0  0
  149.4882  140.9545  155.6496 N   0  0  0  0  0  0  0  0  0  0  0  0
  148.7813  141.3587  154.3993 C   0  0  1  0  0  0  0  0  0  0  0  0
  148.5351  140.1962  153.6678 O   0  0  0  0  0  0  0  0  0  0  0  0
  147.2168  140.2427  153.1401 C   0  0  1  0  0  0  0  0  0  0  0  0
  146.7096  138.8328  152.8009 C   0  0  0  0  0  0  0  0  0  0  0  0
  147.4990  138.2697  151.7756 O   0  0  0  0  0  0  0  0  0  0  0  0
  146.4357  140.9438  154.2523 C   0  0  1  0  0  0  0  0  0  0  0  0
  146.1585  140.0919  155.2418 F   0  0  0  0  0  0  0  0  0  0  0  0
  147.4217  141.9885  154.7499 C   0  0  2  0  0  0  0  0  0  0  0  0
  147.2186  143.2193  154.0851 O   0  0  0  0  0  0  0  0  0  0  0  0
  151.9852  139.5326  159.4658 H   0  0  0  0  0  0  0  0  0  0  0  0
  153.3782  138.6557  158.8689 H   0  0  0  0  0  0  0  0  0  0  0  0
  153.1459  138.6815  154.4030 H   0  0  0  0  0  0  0  0  0  0  0  0
  148.2525  141.7683  157.2257 H   0  0  0  0  0  0  0  0  0  0  0  0
  149.4677  142.0216  153.8698 H   0  0  0  0  0  0  0  0  0  0  0  0
  147.2100  140.8790  152.2527 H   0  0  0  0  0  0  0  0  0  0  0  0
  146.7124  138.1874  153.6801 H   0  0  0  0  0  0  0  0  0  0  0  0
  145.6835  138.8808  152.4351 H   0  0  0  0  0  0  0  0  0  0  0  0
  148.0860  137.6376  152.1610 H   0  0  0  0  0  0  0  0  0  0  0  0
  145.4863  141.3612  153.9141 H   0  0  0  0  0  0  0  0  0  0  0  0
  147.3275  142.1594  155.8238 H   0  0  0  0  0  0  0  0  0  0  0  0
  147.8488  143.8434  154.4118 H   0  0  0  0  0  0  0  0  0  0  0  0
  1  2  1  0  0  0  0
  1 20  1  0  0  0  0
  1 21  1  0  0  0  0
  2  7  1  0  0  0  0
  2  3  2  0  0  0  0
  3  4  1  0  0  0  0
  4  5  2  0  0  0  0
  4 22  1  0  0  0  0
  5  6  1  0  0  0  0
  6 10  1  0  0  0  0
  6  7  2  0  0  0  0
  7  8  1  0  0  0  0
  8  9  2  0  0  0  0
  9 10  1  0  0  0  0
  9 23  1  0  0  0  0
 10 11  1  0  0  0  0
 11 18  1  0  0  0  0
 11 12  1  0  0  0  0
 11 24  1  0  0  0  0
 12 13  1  0  0  0  0
 13 14  1  0  0  0  0
 13 16  1  0  0  0  0
 13 25  1  0  0  0  0
 14 15  1  0  0  0  0
 14 26  1  0  0  0  0
 14 27  1  0  0  0  0
 15 28  1  0  0  0  0
 16 17  1  0  0  0  0
 16 18  1  0  0  0  0
 16 29  1  0  0  0  0
 18 19  1  0  0  0  0
 18 30  1  0  0  0  0
 19 31  1  0  0  0  0
M  END
> <s_m_source_file>
AV-unprocessed.smi

> <i_m_source_file_index>
100

> <i_lp_mmshare_version>
43012

> <i_f3d_flags>
0

> <s_epik_input>
bjFbY0hdbmMoW05IMl0pYyhjMTIpbltjSF1uMltDQEBIXTNPW0NAQEhdKFtDSDJdW09IXSlbQ0BIXShGKVtDQEhdM1tPSF0=

> <s_epik_cmdline>
J2VwaWtfcHl0aG9uJywgJy1waCcsICc3LjAnLCAnLXRuJywgJzgnLCAnLW1hJywgJzIwMCcsICctbWV0YWxfYmluZGluZycsICctaW1hZScsICc8aW5maWxlLm1hZT4nLCAnLW9tYWUnLCAnPG91dGZpbGUubWFlPic=

> <r_lp_tautomer_probability>
1

> <r_epik_Ionization_Penalty>
0.000750324

> <r_epik_Ionization_Penalty_Charging>
0

> <r_epik_Ionization_Penalty_Neutral>
0.000750324

> <r_epik_State_Penalty>
-0

> <r_epik_Charging_Adjusted_Penalty>
0

> <i_epik_Tot_Q>
0

> <i_epik_Tot_abs_Q>
0

> <r_epik_Metal_State_Penalty>
-0

> <b_epik_Metal_Only>
0

> <s_epik_Chemistry_Notes>
This compound contains an acetal/aminal-like group ( X-CH(R)-Y where X, Y are N, S, or O) that may be acid/base labile, releasing an aldehyde.

> <s_lp_Force_Field>
OPLS_2005

> <r_lp_Energy>
27.3407

> <b_lp_Chiralities_Consistent>
1

> <s_lp_Variant>
AV-unprocessed.smi:100-14

> <Gold.Version>
5.8.1

> <Gold.Id.Protein>
6NUR|6NUR_protein|mol2

> <Gold.PLP.Fitness>
43.0087

> <Gold.PLP.PLP>
-29.8154

> <Gold.PLP.part.hbond>
-6.6877

> <Gold.PLP.part.metal>
0.0000

> <Gold.PLP.part.buried>
-3.2903

> <Gold.PLP.part.nonpolar>
-22.9612

> <Gold.PLP.part.repulsive>
2.8531

> <Gold.PLP.ligand.clash>
0.0000

> <Gold.PLP.ligand.torsion>
0.0750

> <Gold.PLP.Chemscore.Hbond>
4.4423

> <Gold.PLP.Chemscore.CHOScore>
0.0000

> <Gold.PLP.Chemscore.Metal>
0.0000

> <Gold.Chemscore.Hbonds>
donor molecule, donor type, donor heavy atom, donor atom, acceptor molecule, acceptor atom, score
      L1  H    15    28       P1  7948  0.85
      L1  H    19    31       P1  8028  1.00
      P1  H  7954  7966       L1    15  0.60
      P1  H  7989  7998       L1     5  1.00
      P1  H  7997  8009       L1     3  0.80

> <Gold.PLP.Chemscore.Internal.Correction>
0.0163

> <Gold.Rescore>
     Score         DG    S(hbond)    S(metal)    S(lipo)     H(rot)  DE(clash)    DE(int)     intcor
      8.44      -9.40       2.62        0.00      28.42       3.19       0.84       0.12       ----

> <Gold.Chemscore.Fitness>
8.4409

> <Gold.Chemscore.DG>
-9.4013

> <Gold.Chemscore.ZeroCoef>
-5.4800

> <Gold.Chemscore.Hbond>
2.6237

> <Gold.Chemscore.Metal>
0.0000

> <Gold.Chemscore.Lipo>
28.4176

> <Gold.Chemscore.Internal_Hbond>
0.0000

> <Gold.Chemscore.DEClash>
0.8397

> <Gold.Chemscore.DEInternal>
0.1208

> <Gold.Chemscore.Rot>
3.1901

> <Gold.Chemscore.Internal.Correction>
   9.000000E+99

> <Gold.Chemscore.Hbonds>
donor molecule, donor type, donor heavy atom, donor atom, acceptor molecule, acceptor atom, score
      L1  H    15    28       P1  7948  0.85
      L1  H    19    31       P1  8028  0.34
      P1  H  7954  7966       L1    15  0.04
      P1  H  7989  7998       L1     5  0.81
      P1  H  7997  8009       L1     3  0.05

> <Gold.Chemscore.Hbond.Weighted>
-8.7631

> <Gold.Chemscore.Metal.Weighted>
-0.0000

> <Gold.Chemscore.Lipo.Weighted>
-3.3249

> <Gold.Chemscore.Internal_Hbond.Weighted>
0.0000

> <Gold.Chemscore.DEClash.Weighted>
0.8397

> <Gold.Chemscore.DEInternal.Weighted>
0.1208

> <Gold.Chemscore.Rot.Weighted>
8.1667

> <Gold.Chemscore.Internal.Correction.Weighted>
   9.000000E+99

> <Gold.Protein.RotatedTorsions>
[ 6907 6896 6895 6894 ] final   83.00 input  -60.11 | X-H torsion
[ 7974 7965 7964 7962 ] final  159.02 input  175.53 | X-H torsion
[ 8008 7997 7996 7995 ] final -165.24 input   59.86 | X-H torsion
[ 10167 10162 10161 10158 ] final  -76.81 input  -65.29 | X-H torsion
[ 10718 10713 10712 10709 ] final   93.37 input   66.30 | X-H torsion
[ 10763 10752 10751 10750 ] final  168.56 input  -60.55 | X-H torsion
[ 11005 11000 10999 10996 ] final   71.82 input  -57.11 | X-H torsion

> <Gold.Protein.ActiveResidues>
 VAL166  LYS551  ARG553  GLY616  TRP617  ASP618  TYR619  PRO620  LYS621  CYS622 
 ASP623  PHE694  ASN695  SER759  ASP760  ASP761  ALA762  ILE779  LEU786  VAL792 
 PHE793  MET794  SER795  GLU796  ALA797  LYS798  CYS799  TRP800  GLU811  SER814 

> <Gold.Protein.RotatedAtoms>
  152.5315  134.2962  159.9061 H   0  0  0  0  0  0  0  0  0  0  0  0  # atno 6907 bound_to 6896
  151.2914  133.4157  159.2641 H   0  0  0  0  0  0  0  0  0  0  0  0  # atno 6908 bound_to 6896
  151.0198  134.9476  159.8110 H   0  0  0  0  0  0  0  0  0  0  0  0  # atno 6909 bound_to 6896
  144.7813  139.7559  143.6258 H   0  0  0  0  0  0  0  0  0  0  0  0  # atno 7974 bound_to 7965
  155.8470  140.0957  157.1699 H   0  0  0  0  0  0  0  0  0  0  0  0  # atno 8008 bound_to 7997
  154.3984  140.1390  156.3859 H   0  0  0  0  0  0  0  0  0  0  0  0  # atno 8009 bound_to 7997
  155.8003  140.3453  155.5401 H   0  0  0  0  0  0  0  0  0  0  0  0  # atno 8010 bound_to 7997
  140.4825  143.2399  151.8036 H   0  0  0  0  0  0  0  0  0  0  0  0  # atno 10167 bound_to 10162
  157.6955  131.0476  150.4024 H   0  0  0  0  0  0  0  0  0  0  0  0  # atno 10718 bound_to 10713
  154.3703  135.2753  155.2270 H   0  0  0  0  0  0  0  0  0  0  0  0  # atno 10763 bound_to 10752
  154.4420  135.5952  153.6139 H   0  0  0  0  0  0  0  0  0  0  0  0  # atno 10764 bound_to 10752
  152.9838  135.6021  154.3934 H   0  0  0  0  0  0  0  0  0  0  0  0  # atno 10765 bound_to 10752
  139.9523  134.7205  156.0833 H   0  0  0  0  0  0  0  0  0  0  0  0  # atno 11005 bound_to 11000
  146.2023  139.5325  142.9735 LP  0  0  0  0  0  0  0  0  0  0  0  0  # atno 17320 bound_to 7965
  145.6042  141.0350  143.2002 LP  0  0  0  0  0  0  0  0  0  0  0  0  # atno 17321 bound_to 7965
  139.4836  144.4755  151.9373 LP  0  0  0  0  0  0  0  0  0  0  0  0  # atno 17342 bound_to 10162
  140.3840  144.2700  150.5906 LP  0  0  0  0  0  0  0  0  0  0  0  0  # atno 17343 bound_to 10162
  156.4416  130.3993  149.6693 LP  0  0  0  0  0  0  0  0  0  0  0  0  # atno 17370 bound_to 10713
  156.3875  130.7610  151.2608 LP  0  0  0  0  0  0  0  0  0  0  0  0  # atno 17371 bound_to 10713
  141.1188  133.6619  156.3163 LP  0  0  0  0  0  0  0  0  0  0  0  0  # atno 17394 bound_to 11000
  140.5690  134.5859  157.5453 LP  0  0  0  0  0  0  0  0  0  0  0  0  # atno 17395 bound_to 11000

$$$$
