AV-unprocessed.smi:2032|AV-procd|sdf|8241|dock4
  -GOLD-   2272010513D 1   1.00000     0.00000
 Structure written by MMmdl.
 43 44  0  0  0  0  0  0  0  0  2 V2000
  148.0903  132.2067  153.8912 C   0  0  0  0  0  0  0  0  0  0  0  0
  147.6849  133.1998  152.7961 C   0  0  2  0  0  0  0  0  0  0  0  0
  146.9371  134.4187  153.3659 C   0  0  0  0  0  0  0  0  0  0  0  0
  146.5031  135.3410  152.2808 N   0  3  2  0  0  0  0  0  0  0  0  0
  145.8491  136.5843  152.8070 C   0  0  2  0  0  0  0  0  0  0  0  0
  144.3188  136.4403  152.9953 C   0  0  0  0  0  0  0  0  0  0  0  0
  146.1616  137.7966  151.8863 C   0  0  0  0  0  0  0  0  0  0  0  0
  147.3541  138.5378  152.2878 N   0  0  0  0  0  0  0  0  0  0  0  0
  147.5838  139.0115  153.5210 C   0  0  0  0  0  0  0  0  0  0  0  0
  146.7990  138.8643  154.4585 O   0  0  0  0  0  0  0  0  0  0  0  0
  148.7645  139.6506  153.5869 N   0  0  0  0  0  0  0  0  0  0  0  0
  149.3261  140.3422  154.6921 C   0  0  0  0  0  0  0  0  0  0  0  0
  150.6397  140.4773  154.9089 N   0  0  0  0  0  0  0  0  0  0  0  0
  150.9068  141.1929  156.0789 C   0  0  0  0  0  0  0  0  0  0  0  0
  149.7767  141.5974  156.7452 C   0  0  0  0  0  0  0  0  0  0  0  0
  148.3233  141.0906  155.9264 S   0  0  0  0  0  0  0  0  0  0  0  0
  145.7092  134.5796  151.2771 C   0  0  0  0  0  0  0  0  0  0  0  0
  146.4795  133.3436  150.7742 C   0  0  2  0  0  0  0  0  0  0  0  0
  145.6437  132.4996  149.8054 C   0  0  0  0  0  0  0  0  0  0  0  0
  146.8331  132.5250  151.8807 O   0  0  0  0  0  0  0  0  0  0  0  0
  148.7555  132.6737  154.6181 H   0  0  0  0  0  0  0  0  0  0  0  0
  148.6131  131.3495  153.4658 H   0  0  0  0  0  0  0  0  0  0  0  0
  147.2183  131.8316  154.4279 H   0  0  0  0  0  0  0  0  0  0  0  0
  148.5871  133.5295  152.2773 H   0  0  0  0  0  0  0  0  0  0  0  0
  146.0637  134.0887  153.9307 H   0  0  0  0  0  0  0  0  0  0  0  0
  147.5945  134.9226  154.0714 H   0  0  0  0  0  0  0  0  0  0  0  0
  146.2690  136.7737  153.7959 H   0  0  0  0  0  0  0  0  0  0  0  0
  143.8640  137.3672  153.3436 H   0  0  0  0  0  0  0  0  0  0  0  0
  144.0674  135.6937  153.7486 H   0  0  0  0  0  0  0  0  0  0  0  0
  143.8256  136.1656  152.0622 H   0  0  0  0  0  0  0  0  0  0  0  0
  146.2969  137.5009  150.8471 H   0  0  0  0  0  0  0  0  0  0  0  0
  145.3202  138.4901  151.8948 H   0  0  0  0  0  0  0  0  0  0  0  0
  148.0530  138.6993  151.5770 H   0  0  0  0  0  0  0  0  0  0  0  0
  149.3209  139.6576  152.7448 H   0  0  0  0  0  0  0  0  0  0  0  0
  151.9336  141.3687  156.3641 H   0  0  0  0  0  0  0  0  0  0  0  0
  149.7118  142.1594  157.6651 H   0  0  0  0  0  0  0  0  0  0  0  0
  144.7564  134.2804  151.7178 H   0  0  0  0  0  0  0  0  0  0  0  0
  145.4888  135.1991  150.4084 H   0  0  0  0  0  0  0  0  0  0  0  0
  147.3873  133.6621  150.2585 H   0  0  0  0  0  0  0  0  0  0  0  0
  145.3514  133.0802  148.9302 H   0  0  0  0  0  0  0  0  0  0  0  0
  144.7344  132.1337  150.2832 H   0  0  0  0  0  0  0  0  0  0  0  0
  146.2074  131.6345  149.4560 H   0  0  0  0  0  0  0  0  0  0  0  0
  147.3380  135.6427  151.7992 H   0  0  0  0  0  0  0  0  0  0  0  0
  1  2  1  0  0  0  0
  1 21  1  0  0  0  0
  1 22  1  0  0  0  0
  1 23  1  0  0  0  0
  2 20  1  0  0  0  0
  2  3  1  0  0  0  0
  2 24  1  0  0  0  0
  3  4  1  0  0  0  0
  3 25  1  0  0  0  0
  3 26  1  0  0  0  0
  4  5  1  0  0  0  0
  4 17  1  0  0  0  0
  4 43  1  0  0  0  0
  5  6  1  0  0  0  0
  5  7  1  0  0  0  0
  5 27  1  0  0  0  0
  6 28  1  0  0  0  0
  6 29  1  0  0  0  0
  6 30  1  0  0  0  0
  7  8  1  0  0  0  0
  7 31  1  0  0  0  0
  7 32  1  0  0  0  0
  8  9  1  0  0  0  0
  8 33  1  0  0  0  0
  9 10  2  0  0  0  0
  9 11  1  0  0  0  0
 11 12  1  0  0  0  0
 11 34  1  0  0  0  0
 12 16  1  0  0  0  0
 12 13  2  0  0  0  0
 13 14  1  0  0  0  0
 14 15  2  0  0  0  0
 14 35  1  0  0  0  0
 15 16  1  0  0  0  0
 15 36  1  0  0  0  0
 17 18  1  0  0  0  0
 17 37  1  0  0  0  0
 17 38  1  0  0  0  0
 18 19  1  0  0  0  0
 18 20  1  0  0  0  0
 18 39  1  0  0  0  0
 19 40  1  0  0  0  0
 19 41  1  0  0  0  0
 19 42  1  0  0  0  0
M  CHG  1   4   1
M  END
> <s_m_source_file>
AV-unprocessed.smi

> <i_m_source_file_index>
2032

> <i_lp_mmshare_version>
43012

> <i_f3d_flags>
0

> <s_epik_input>
W0NIM11bQ0BASF0xW0NIMl1OKFtDSDJdW0NASF0oTzEpW0NIM10pW0NASF0oW0NIM10pW0NIMl1bTkhdQyg9TylbTkhdYzJuW2NIXVtjSF1zMg==

> <s_epik_cmdline>
J2VwaWtfcHl0aG9uJywgJy1waCcsICc3LjAnLCAnLXRuJywgJzgnLCAnLW1hJywgJzIwMCcsICctbWV0YWxfYmluZGluZycsICctaW1hZScsICc8aW5maWxlLm1hZT4nLCAnLW9tYWUnLCAnPG91dGZpbGUubWFlPic=

> <r_lp_tautomer_probability>
0.999

> <r_epik_Ionization_Penalty>
0.695838

> <r_epik_Ionization_Penalty_Charging>
0.695697

> <r_epik_Ionization_Penalty_Neutral>
0.000141198

> <r_epik_State_Penalty>
0.717972

> <r_epik_Charging_Adjusted_Penalty>
1.41367

> <i_epik_Tot_Q>
1

> <i_epik_Tot_abs_Q>
1

> <r_epik_Metal_State_Penalty>
0.756405

> <b_epik_Metal_Only>
0

> <s_lp_Force_Field>
OPLS_2005

> <r_lp_Energy>
16.7575

> <b_lp_Chiralities_Consistent>
1

> <s_lp_Variant>
AV-unprocessed.smi:2032-11

> <Gold.Version>
5.8.1

> <Gold.Id.Protein>
6NUR|6NUR_protein|mol2

> <Gold.PLP.Fitness>
46.2252

> <Gold.PLP.PLP>
-34.5860

> <Gold.PLP.part.hbond>
-4.8886

> <Gold.PLP.part.metal>
0.0000

> <Gold.PLP.part.buried>
-1.6800

> <Gold.PLP.part.nonpolar>
-27.5605

> <Gold.PLP.part.repulsive>
0.5662

> <Gold.PLP.ligand.clash>
0.0000

> <Gold.PLP.ligand.torsion>
1.3365

> <Gold.PLP.Chemscore.Hbond>
4.7520

> <Gold.PLP.Chemscore.CHOScore>
0.0000

> <Gold.PLP.Chemscore.Metal>
0.0000

> <Gold.Chemscore.Hbonds>
donor molecule, donor type, donor heavy atom, donor atom, acceptor molecule, acceptor atom, score
      L1  H     4    43       P1  7948  2.00
      L1  H     8    33       P1  7957  0.77
      L1  H    11    34       P1  7957  1.00
      P1  H  7989  7998       L1    13  1.00

> <Gold.PLP.Chemscore.Internal.Correction>
0.0562

> <Gold.Rescore>
     Score         DG    S(hbond)    S(metal)    S(lipo)     H(rot)  DE(clash)    DE(int)     intcor
     17.60     -21.14       3.66        0.00      64.60       1.61       0.22       3.33       ----

> <Gold.Chemscore.Fitness>
17.5965

> <Gold.Chemscore.DG>
-21.1411

> <Gold.Chemscore.ZeroCoef>
-5.4800

> <Gold.Chemscore.Hbond>
3.6607

> <Gold.Chemscore.Metal>
0.0000

> <Gold.Chemscore.Lipo>
64.6035

> <Gold.Chemscore.Internal_Hbond>
0.0000

> <Gold.Chemscore.DEClash>
0.2178

> <Gold.Chemscore.DEInternal>
3.3268

> <Gold.Chemscore.Rot>
1.6110

> <Gold.Chemscore.Internal.Correction>
   9.000000E+99

> <Gold.Chemscore.Hbonds>
donor molecule, donor type, donor heavy atom, donor atom, acceptor molecule, acceptor atom, score
      L1  H     4    43       P1  7948  0.95
      L1  H     8    33       P1  7957  0.44
      L1  H    11    34       P1  7957  0.97
      P1  H  7989  7998       L1    13  0.83

> <Gold.Chemscore.Hbond.Weighted>
-12.2266

> <Gold.Chemscore.Metal.Weighted>
-0.0000

> <Gold.Chemscore.Lipo.Weighted>
-7.5586

> <Gold.Chemscore.Internal_Hbond.Weighted>
0.0000

> <Gold.Chemscore.DEClash.Weighted>
0.2178

> <Gold.Chemscore.DEInternal.Weighted>
3.3268

> <Gold.Chemscore.Rot.Weighted>
4.1242

> <Gold.Chemscore.Internal.Correction.Weighted>
   9.000000E+99

> <Gold.Protein.RotatedTorsions>
[ 6907 6896 6895 6894 ] final    5.93 input  -60.11 | X-H torsion
[ 7974 7965 7964 7962 ] final  -78.82 input  175.53 | X-H torsion
[ 8008 7997 7996 7995 ] final  -55.04 input   59.86 | X-H torsion
[ 10167 10162 10161 10158 ] final   69.06 input  -65.29 | X-H torsion
[ 10718 10713 10712 10709 ] final  137.08 input   66.30 | X-H torsion
[ 10763 10752 10751 10750 ] final   18.66 input  -60.55 | X-H torsion
[ 11005 11000 10999 10996 ] final -145.36 input  -57.11 | X-H torsion

> <Gold.Protein.ActiveResidues>
 VAL166  LYS551  ARG553  GLY616  TRP617  ASP618  TYR619  PRO620  LYS621  CYS622 
 ASP623  PHE694  ASN695  SER759  ASP760  ASP761  ALA762  ILE779  LEU786  VAL792 
 PHE793  MET794  SER795  GLU796  ALA797  LYS798  CYS799  TRP800  GLU811  SER814 

> <Gold.Protein.RotatedAtoms>
  151.6655  135.0983  160.0187 H   0  0  0  0  0  0  0  0  0  0  0  0  # atno 6907 bound_to 6896
  152.3922  133.6690  159.6255 H   0  0  0  0  0  0  0  0  0  0  0  0  # atno 6908 bound_to 6896
  150.7835  133.8852  159.3338 H   0  0  0  0  0  0  0  0  0  0  0  0  # atno 6909 bound_to 6896
  145.5814  140.9447  143.1342 H   0  0  0  0  0  0  0  0  0  0  0  0  # atno 7974 bound_to 7965
  154.4182  140.1162  156.5412 H   0  0  0  0  0  0  0  0  0  0  0  0  # atno 8008 bound_to 7997
  155.6506  140.3496  155.4727 H   0  0  0  0  0  0  0  0  0  0  0  0  # atno 8009 bound_to 7997
  155.9796  140.1157  157.0729 H   0  0  0  0  0  0  0  0  0  0  0  0  # atno 8010 bound_to 7997
  140.0719  144.5146  150.7221 H   0  0  0  0  0  0  0  0  0  0  0  0  # atno 10167 bound_to 10162
  157.4398  131.1056  151.0156 H   0  0  0  0  0  0  0  0  0  0  0  0  # atno 10718 bound_to 10713
  153.1229  135.6723  153.9305 H   0  0  0  0  0  0  0  0  0  0  0  0  # atno 10763 bound_to 10752
  153.8815  135.3057  155.3446 H   0  0  0  0  0  0  0  0  0  0  0  0  # atno 10764 bound_to 10752
  154.7638  135.4974  153.9595 H   0  0  0  0  0  0  0  0  0  0  0  0  # atno 10765 bound_to 10752
  140.7930  134.2946  157.5006 H   0  0  0  0  0  0  0  0  0  0  0  0  # atno 11005 bound_to 11000
  144.7392  139.7497  143.7317 LP  0  0  0  0  0  0  0  0  0  0  0  0  # atno 17320 bound_to 7965
  146.1713  139.4865  142.9925 LP  0  0  0  0  0  0  0  0  0  0  0  0  # atno 17321 bound_to 7965
  140.7121  143.2514  151.4548 LP  0  0  0  0  0  0  0  0  0  0  0  0  # atno 17342 bound_to 10162
  139.5831  144.1665  152.1994 LP  0  0  0  0  0  0  0  0  0  0  0  0  # atno 17343 bound_to 10162
  157.1023  130.5987  149.5463 LP  0  0  0  0  0  0  0  0  0  0  0  0  # atno 17370 bound_to 10713
  155.9944  130.5008  150.7420 LP  0  0  0  0  0  0  0  0  0  0  0  0  # atno 17371 bound_to 10713
  139.8729  134.9386  156.3718 LP  0  0  0  0  0  0  0  0  0  0  0  0  # atno 17394 bound_to 11000
  140.9370  133.7540  156.0097 LP  0  0  0  0  0  0  0  0  0  0  0  0  # atno 17395 bound_to 11000

$$$$
