AV-unprocessed.smi:1564|AV-procd|sdf|6296|dock6
  -GOLD-   22720 6493D 1   1.00000     0.00000
 Structure written by MMmdl.
 43 44  0  0  0  0  0  0  0  0  2 V2000
  152.5915  140.0022  158.6580 C   0  0  0  0  0  0  0  0  0  0  0  0
  152.6718  139.9810  157.2370 O   0  0  0  0  0  0  0  0  0  0  0  0
  151.9284  139.0407  156.5537 C   0  0  0  0  0  0  0  0  0  0  0  0
  151.9390  139.0655  155.1452 C   0  0  0  0  0  0  0  0  0  0  0  0
  151.1780  138.1109  154.4449 C   0  0  0  0  0  0  0  0  0  0  0  0
  150.4245  137.1638  155.1677 C   0  0  0  0  0  0  0  0  0  0  0  0
  149.6771  136.2071  154.4276 N   0  0  0  0  0  0  0  0  0  0  0  0
  149.2993  134.9688  154.7897 C   0  0  0  0  0  0  0  0  0  0  0  0
  149.5377  134.4351  155.8725 O   0  0  0  0  0  0  0  0  0  0  0  0
  148.5997  134.3715  153.8150 N   0  0  0  0  0  0  0  0  0  0  0  0
  148.0462  133.0239  153.8956 C   0  0  1  0  0  0  0  0  0  0  0  0
  147.0597  132.6624  152.7923 C   0  0  0  0  0  0  0  0  0  0  0  0
  147.0585  131.1366  152.8796 C   0  0  0  0  0  0  0  0  0  0  0  0
  148.4506  130.7406  153.2108 N   0  3  2  0  0  0  0  0  0  0  0  0
  148.5965  129.4989  154.0234 C   0  0  0  0  0  0  0  0  0  0  0  0
  150.0683  129.2629  154.4153 C   0  0  0  0  0  0  0  0  0  0  0  0
  148.0723  128.2575  153.2733 C   0  0  0  0  0  0  0  0  0  0  0  0
  149.1264  131.9477  153.7548 C   0  0  0  0  0  0  0  0  0  0  0  0
  150.4910  137.2129  156.5821 C   0  0  0  0  0  0  0  0  0  0  0  0
  151.2188  138.1260  157.2594 N   0  0  0  0  0  0  0  0  0  0  0  0
  153.2323  140.7951  159.0434 H   0  0  0  0  0  0  0  0  0  0  0  0
  152.9328  139.0614  159.0921 H   0  0  0  0  0  0  0  0  0  0  0  0
  151.5743  140.2048  158.9963 H   0  0  0  0  0  0  0  0  0  0  0  0
  152.5189  139.8046  154.6124 H   0  0  0  0  0  0  0  0  0  0  0  0
  151.1722  138.1114  153.3644 H   0  0  0  0  0  0  0  0  0  0  0  0
  149.3486  136.5240  153.5271 H   0  0  0  0  0  0  0  0  0  0  0  0
  148.4456  134.8823  152.9577 H   0  0  0  0  0  0  0  0  0  0  0  0
  147.5557  132.8977  154.8633 H   0  0  0  0  0  0  0  0  0  0  0  0
  146.0699  133.0946  152.9435 H   0  0  0  0  0  0  0  0  0  0  0  0
  147.4318  132.9873  151.8193 H   0  0  0  0  0  0  0  0  0  0  0  0
  146.3861  130.8357  153.6850 H   0  0  0  0  0  0  0  0  0  0  0  0
  146.7139  130.6667  151.9581 H   0  0  0  0  0  0  0  0  0  0  0  0
  148.0084  129.6189  154.9347 H   0  0  0  0  0  0  0  0  0  0  0  0
  150.1731  128.3485  155.0001 H   0  0  0  0  0  0  0  0  0  0  0  0
  150.4758  130.0707  155.0217 H   0  0  0  0  0  0  0  0  0  0  0  0
  150.6996  129.1609  153.5321 H   0  0  0  0  0  0  0  0  0  0  0  0
  148.2412  127.3502  153.8545 H   0  0  0  0  0  0  0  0  0  0  0  0
  148.5767  128.1315  152.3146 H   0  0  0  0  0  0  0  0  0  0  0  0
  147.0004  128.3100  153.0835 H   0  0  0  0  0  0  0  0  0  0  0  0
  149.8950  132.2517  153.0426 H   0  0  0  0  0  0  0  0  0  0  0  0
  149.6133  131.7753  154.7149 H   0  0  0  0  0  0  0  0  0  0  0  0
  149.9725  136.5041  157.2079 H   0  0  0  0  0  0  0  0  0  0  0  0
  148.9000  130.5526  152.3258 H   0  0  0  0  0  0  0  0  0  0  0  0
  1  2  1  0  0  0  0
  1 21  1  0  0  0  0
  1 22  1  0  0  0  0
  1 23  1  0  0  0  0
  2  3  1  0  0  0  0
  3 20  1  0  0  0  0
  3  4  2  0  0  0  0
  4  5  1  0  0  0  0
  4 24  1  0  0  0  0
  5  6  2  0  0  0  0
  5 25  1  0  0  0  0
  6  7  1  0  0  0  0
  6 19  1  0  0  0  0
  7  8  1  0  0  0  0
  7 26  1  0  0  0  0
  8  9  2  0  0  0  0
  8 10  1  0  0  0  0
 10 11  1  0  0  0  0
 10 27  1  0  0  0  0
 11 18  1  0  0  0  0
 11 12  1  0  0  0  0
 11 28  1  0  0  0  0
 12 13  1  0  0  0  0
 12 29  1  0  0  0  0
 12 30  1  0  0  0  0
 13 14  1  0  0  0  0
 13 31  1  0  0  0  0
 13 32  1  0  0  0  0
 14 15  1  0  0  0  0
 14 18  1  0  0  0  0
 14 43  1  0  0  0  0
 15 16  1  0  0  0  0
 15 17  1  0  0  0  0
 15 33  1  0  0  0  0
 16 34  1  0  0  0  0
 16 35  1  0  0  0  0
 16 36  1  0  0  0  0
 17 37  1  0  0  0  0
 17 38  1  0  0  0  0
 17 39  1  0  0  0  0
 18 40  1  0  0  0  0
 18 41  1  0  0  0  0
 19 20  2  0  0  0  0
 19 42  1  0  0  0  0
M  CHG  1  14   1
M  END
> <s_m_source_file>
AV-unprocessed.smi

> <i_m_source_file_index>
1564

> <i_lp_mmshare_version>
43012

> <i_f3d_flags>
0

> <s_epik_input>
W0NIM11PYzFbY0hdW2NIXWMoW2NIXW4xKVtOSF1DKD1PKVtOSF1bQ0BASF0yW0NIMl1bQ0gyXU4oW0NIMl0yKVtDSF0oW0NIM10pW0NIM10=

> <s_epik_cmdline>
J2VwaWtfcHl0aG9uJywgJy1waCcsICc3LjAnLCAnLXRuJywgJzgnLCAnLW1hJywgJzIwMCcsICctbWV0YWxfYmluZGluZycsICctaW1hZScsICc8aW5maWxlLm1hZT4nLCAnLW9tYWUnLCAnPG91dGZpbGUubWFlPic=

> <r_lp_tautomer_probability>
1

> <r_epik_Ionization_Penalty>
0.000679474

> <r_epik_Ionization_Penalty_Charging>
0.000606352

> <r_epik_Ionization_Penalty_Neutral>
7.31222e-05

> <r_epik_State_Penalty>
0.000382168

> <r_epik_Charging_Adjusted_Penalty>
0.00098852

> <i_epik_Tot_Q>
1

> <i_epik_Tot_abs_Q>
1

> <r_epik_Metal_State_Penalty>
-0

> <b_epik_Metal_Only>
0

> <s_lp_Force_Field>
OPLS_2005

> <r_lp_Energy>
33.6805

> <b_lp_Chiralities_Consistent>
1

> <s_lp_Variant>
AV-unprocessed.smi:1564-4

> <Gold.Version>
5.8.1

> <Gold.Id.Protein>
6NUR|6NUR_protein|mol2

> <Gold.PLP.Fitness>
42.6110

> <Gold.PLP.PLP>
-31.3579

> <Gold.PLP.part.hbond>
-4.2036

> <Gold.PLP.part.metal>
0.0000

> <Gold.PLP.part.buried>
-2.4433

> <Gold.PLP.part.nonpolar>
-24.2879

> <Gold.PLP.part.repulsive>
0.0883

> <Gold.PLP.ligand.clash>
0.0000

> <Gold.PLP.ligand.torsion>
0.3781

> <Gold.PLP.Chemscore.Hbond>
3.9920

> <Gold.PLP.Chemscore.CHOScore>
0.0000

> <Gold.PLP.Chemscore.Metal>
0.0000

> <Gold.Chemscore.Hbonds>
donor molecule, donor type, donor heavy atom, donor atom, acceptor molecule, acceptor atom, score
      L1  H     7    26       P1  7948  1.00
      L1  H    10    27       P1  7948  0.96
      L1  H    14    43       P1 10747  0.98
      P1  H  7997  8009       L1     2  1.00

> <Gold.PLP.Chemscore.Internal.Correction>
0.0334

> <Gold.Rescore>
     Score         DG    S(hbond)    S(metal)    S(lipo)     H(rot)  DE(clash)    DE(int)     intcor
     20.82     -21.52       3.54        0.00      67.66       1.44       0.05       0.65       ----

> <Gold.Chemscore.Fitness>
20.8154

> <Gold.Chemscore.DG>
-21.5151

> <Gold.Chemscore.ZeroCoef>
-5.4800

> <Gold.Chemscore.Hbond>
3.5380

> <Gold.Chemscore.Metal>
0.0000

> <Gold.Chemscore.Lipo>
67.6588

> <Gold.Chemscore.Internal_Hbond>
0.0000

> <Gold.Chemscore.DEClash>
0.0483

> <Gold.Chemscore.DEInternal>
0.6514

> <Gold.Chemscore.Rot>
1.4445

> <Gold.Chemscore.Internal.Correction>
   9.000000E+99

> <Gold.Chemscore.Hbonds>
donor molecule, donor type, donor heavy atom, donor atom, acceptor molecule, acceptor atom, score
      L1  H     7    26       P1  7948  0.84
      L1  H    10    27       P1  7948  0.56
      L1  H    14    43       P1 10747  0.30
      P1  H  7997  8009       L1     2  0.70

> <Gold.Chemscore.Hbond.Weighted>
-11.8169

> <Gold.Chemscore.Metal.Weighted>
-0.0000

> <Gold.Chemscore.Lipo.Weighted>
-7.9161

> <Gold.Chemscore.Internal_Hbond.Weighted>
0.0000

> <Gold.Chemscore.DEClash.Weighted>
0.0483

> <Gold.Chemscore.DEInternal.Weighted>
0.6514

> <Gold.Chemscore.Rot.Weighted>
3.6979

> <Gold.Chemscore.Internal.Correction.Weighted>
   9.000000E+99

> <Gold.Protein.RotatedTorsions>
[ 6907 6896 6895 6894 ] final  -77.19 input  -60.11 | X-H torsion
[ 7974 7965 7964 7962 ] final   59.70 input  175.53 | X-H torsion
[ 8008 7997 7996 7995 ] final -174.05 input   59.86 | X-H torsion
[ 10167 10162 10161 10158 ] final  -51.77 input  -65.29 | X-H torsion
[ 10718 10713 10712 10709 ] final   81.62 input   66.30 | X-H torsion
[ 10763 10752 10751 10750 ] final  170.57 input  -60.55 | X-H torsion
[ 11005 11000 10999 10996 ] final -165.33 input  -57.11 | X-H torsion

> <Gold.Protein.ActiveResidues>
 VAL166  LYS551  ARG553  GLY616  TRP617  ASP618  TYR619  PRO620  LYS621  CYS622 
 ASP623  PHE694  ASN695  SER759  ASP760  ASP761  ALA762  ILE779  LEU786  VAL792 
 PHE793  MET794  SER795  GLU796  ALA797  LYS798  CYS799  TRP800  GLU811  SER814 

> <Gold.Protein.RotatedAtoms>
  150.7005  134.4459  159.5313 H   0  0  0  0  0  0  0  0  0  0  0  0  # atno 6907 bound_to 6896
  152.2160  134.8454  160.0501 H   0  0  0  0  0  0  0  0  0  0  0  0  # atno 6908 bound_to 6896
  151.9322  133.3579  159.3972 H   0  0  0  0  0  0  0  0  0  0  0  0  # atno 6909 bound_to 6896
  145.9042  139.3604  143.0574 H   0  0  0  0  0  0  0  0  0  0  0  0  # atno 7974 bound_to 7965
  155.9652  140.1152  157.0861 H   0  0  0  0  0  0  0  0  0  0  0  0  # atno 8008 bound_to 7997
  154.4142  140.1174  156.5299 H   0  0  0  0  0  0  0  0  0  0  0  0  # atno 8009 bound_to 7997
  155.6668  140.3473  155.4805 H   0  0  0  0  0  0  0  0  0  0  0  0  # atno 8010 bound_to 7997
  140.6571  143.2607  151.4551 H   0  0  0  0  0  0  0  0  0  0  0  0  # atno 10167 bound_to 10162
  157.6837  131.0012  150.2253 H   0  0  0  0  0  0  0  0  0  0  0  0  # atno 10718 bound_to 10713
  154.3995  135.2755  155.2105 H   0  0  0  0  0  0  0  0  0  0  0  0  # atno 10763 bound_to 10752
  154.4137  135.6016  153.5972 H   0  0  0  0  0  0  0  0  0  0  0  0  # atno 10764 bound_to 10752
  152.9831  135.5956  154.4261 H   0  0  0  0  0  0  0  0  0  0  0  0  # atno 10765 bound_to 10752
  140.5769  134.5180  157.5172 H   0  0  0  0  0  0  0  0  0  0  0  0  # atno 11005 bound_to 11000
  145.8753  140.9395  143.0629 LP  0  0  0  0  0  0  0  0  0  0  0  0  # atno 17320 bound_to 7965
  144.6738  140.0708  143.7473 LP  0  0  0  0  0  0  0  0  0  0  0  0  # atno 17321 bound_to 7965
  139.5796  144.1739  152.1951 LP  0  0  0  0  0  0  0  0  0  0  0  0  # atno 17342 bound_to 10162
  140.1060  144.5498  150.6957 LP  0  0  0  0  0  0  0  0  0  0  0  0  # atno 17343 bound_to 10162
  156.2896  130.3744  149.7854 LP  0  0  0  0  0  0  0  0  0  0  0  0  # atno 17370 bound_to 10713
  156.5518  130.8345  151.3302 LP  0  0  0  0  0  0  0  0  0  0  0  0  # atno 17371 bound_to 10713
  139.9335  134.7919  156.0866 LP  0  0  0  0  0  0  0  0  0  0  0  0  # atno 17394 bound_to 11000
  141.1021  133.6673  156.2777 LP  0  0  0  0  0  0  0  0  0  0  0  0  # atno 17395 bound_to 11000

$$$$
