AV-unprocessed.smi:2858|AV-procd|sdf|11002|dock8
  -GOLD-   2272015463D 1   1.00000     0.00000
 Structure written by MMmdl.
 39 40  0  0  0  0  0  0  0  0  3 V2000
  152.9305  138.0463  154.5395 O   0  0  0  0  0  0  0  0  0  0  0  0
  151.7753  137.7291  154.8134 C   0  0  0  0  0  0  0  0  0  0  0  0
  150.6486  138.6533  154.2769 C   0  0  0  0  0  0  0  0  0  0  0  0
  149.3204  137.9745  154.2518 N   0  3  2  0  0  0  0  0  0  0  0  0
  148.2183  138.8660  153.8106 C   0  0  0  0  0  0  0  0  0  0  0  0
  147.9424  139.9962  154.8156 C   0  0  0  0  0  0  0  0  0  0  0  0
  148.3808  141.3705  154.2851 C   0  0  0  0  0  0  0  0  0  0  0  0
  149.0203  142.1630  155.3288 N   0  0  0  0  0  0  0  0  0  0  0  0
  149.8840  141.6831  156.2353 C   0  0  0  0  0  0  0  0  0  0  0  0
  150.2446  140.5060  156.2699 O   0  0  0  0  0  0  0  0  0  0  0  0
  150.2822  142.6454  157.0858 N   0  0  0  0  0  0  0  0  0  0  0  0
  151.1959  142.5377  158.1680 C   0  0  0  0  0  0  0  0  0  0  0  0
  151.7020  143.7668  158.6474 C   0  0  0  0  0  0  0  0  0  0  0  0
  152.6191  143.7688  159.7160 C   0  0  0  0  0  0  0  0  0  0  0  0
  153.0075  142.5398  160.2785 C   0  0  0  0  0  0  0  0  0  0  0  0
  152.4561  141.3616  159.7422 C   0  0  0  0  0  0  0  0  0  0  0  0
  151.5763  141.3573  158.7183 N   0  0  0  0  0  0  0  0  0  0  0  0
  149.0222  137.2908  155.5367 C   0  0  0  0  0  0  0  0  0  0  0  0
  150.0426  136.1659  155.7955 C   0  0  0  0  0  0  0  0  0  0  0  0
  151.4078  136.6609  155.5873 N   0  5  0  0  0  0  0  0  0  0  0  0
  150.6011  139.5411  154.9091 H   0  0  0  0  0  0  0  0  0  0  0  0
  150.9216  138.9824  153.2746 H   0  0  0  0  0  0  0  0  0  0  0  0
  148.4884  139.3247  152.8584 H   0  0  0  0  0  0  0  0  0  0  0  0
  147.3168  138.2801  153.6259 H   0  0  0  0  0  0  0  0  0  0  0  0
  146.8811  140.0377  155.0597 H   0  0  0  0  0  0  0  0  0  0  0  0
  148.4665  139.7796  155.7476 H   0  0  0  0  0  0  0  0  0  0  0  0
  149.0542  141.2574  153.4336 H   0  0  0  0  0  0  0  0  0  0  0  0
  147.5135  141.9234  153.9234 H   0  0  0  0  0  0  0  0  0  0  0  0
  148.7785  143.1422  155.3709 H   0  0  0  0  0  0  0  0  0  0  0  0
  149.8879  143.5631  156.9422 H   0  0  0  0  0  0  0  0  0  0  0  0
  151.3932  144.7023  158.2033 H   0  0  0  0  0  0  0  0  0  0  0  0
  153.0175  144.6978  160.0965 H   0  0  0  0  0  0  0  0  0  0  0  0
  153.7095  142.5008  161.0983 H   0  0  0  0  0  0  0  0  0  0  0  0
  152.7281  140.3972  160.1448 H   0  0  0  0  0  0  0  0  0  0  0  0
  149.0374  138.0187  156.3497 H   0  0  0  0  0  0  0  0  0  0  0  0
  148.0213  136.8585  155.5161 H   0  0  0  0  0  0  0  0  0  0  0  0
  149.8996  135.7733  156.8019 H   0  0  0  0  0  0  0  0  0  0  0  0
  149.8258  135.3381  155.1198 H   0  0  0  0  0  0  0  0  0  0  0  0
  149.3892  137.2339  153.5688 H   0  0  0  0  0  0  0  0  0  0  0  0
  1  2  2  0  0  0  0
  2 20  1  0  0  0  0
  2  3  1  0  0  0  0
  3  4  1  0  0  0  0
  3 21  1  0  0  0  0
  3 22  1  0  0  0  0
  4  5  1  0  0  0  0
  4 18  1  0  0  0  0
  4 39  1  0  0  0  0
  5  6  1  0  0  0  0
  5 23  1  0  0  0  0
  5 24  1  0  0  0  0
  6  7  1  0  0  0  0
  6 25  1  0  0  0  0
  6 26  1  0  0  0  0
  7  8  1  0  0  0  0
  7 27  1  0  0  0  0
  7 28  1  0  0  0  0
  8  9  1  0  0  0  0
  8 29  1  0  0  0  0
  9 10  2  0  0  0  0
  9 11  1  0  0  0  0
 11 12  1  0  0  0  0
 11 30  1  0  0  0  0
 12 17  1  0  0  0  0
 12 13  2  0  0  0  0
 13 14  1  0  0  0  0
 13 31  1  0  0  0  0
 14 15  2  0  0  0  0
 14 32  1  0  0  0  0
 15 16  1  0  0  0  0
 15 33  1  0  0  0  0
 16 17  2  0  0  0  0
 16 34  1  0  0  0  0
 18 19  1  0  0  0  0
 18 35  1  0  0  0  0
 18 36  1  0  0  0  0
 19 20  1  0  0  0  0
 19 37  1  0  0  0  0
 19 38  1  0  0  0  0
M  CHG  1   4   1
M  CHG  1  20  -1
M  END
> <s_m_source_file>
AV-unprocessed.smi

> <i_m_source_file_index>
2858

> <i_lp_mmshare_version>
43012

> <i_f3d_flags>
0

> <s_epik_input>
Tz1DMVtDSDJdTihbQ0gyXVtDSDJdW05IXTEpW0NIMl1bQ0gyXVtDSDJdW05IXUMoPU8pW05IXWMyW2NIXVtjSF1bY0hdW2NIXW4y

> <s_epik_cmdline>
J2VwaWtfcHl0aG9uJywgJy1waCcsICc3LjAnLCAnLXRuJywgJzgnLCAnLW1hJywgJzIwMCcsICctbWV0YWxfYmluZGluZycsICctaW1hZScsICc8aW5maWxlLm1hZT4nLCAnLW9tYWUnLCAnPG91dGZpbGUubWFlPic=

> <r_epik_Ionization_Penalty>
5.09835

> <r_epik_Ionization_Penalty_Charging>
5.09831

> <r_epik_Ionization_Penalty_Neutral>
4.20822e-05

> <r_epik_State_Penalty>
5.19693

> <r_epik_Charging_Adjusted_Penalty>
10.2952

> <i_epik_Tot_Q>
0

> <i_epik_Tot_abs_Q>
2

> <r_epik_Metal_State_Penalty>
1.27693

> <b_epik_Metal_Only>
1

> <s_lp_Force_Field>
OPLS_2005

> <r_lp_Energy>
13.8629

> <b_lp_Chiralities_Consistent>
1

> <s_lp_Variant>
AV-unprocessed.smi:2858-4

> <Gold.Version>
5.8.1

> <Gold.Id.Protein>
6NUR|6NUR_protein|mol2

> <Gold.PLP.Fitness>
53.9071

> <Gold.PLP.PLP>
-37.8618

> <Gold.PLP.part.hbond>
-4.8415

> <Gold.PLP.part.metal>
0.0000

> <Gold.PLP.part.buried>
-6.0096

> <Gold.PLP.part.nonpolar>
-28.5074

> <Gold.PLP.part.repulsive>
0.3549

> <Gold.PLP.ligand.clash>
0.0000

> <Gold.PLP.ligand.torsion>
0.8437

> <Gold.PLP.Chemscore.Hbond>
5.8960

> <Gold.PLP.Chemscore.CHOScore>
0.0000

> <Gold.PLP.Chemscore.Metal>
0.0000

> <Gold.Chemscore.Hbonds>
donor molecule, donor type, donor heavy atom, donor atom, acceptor molecule, acceptor atom, score
      L1  H     4    39       P1  7948  2.00
      L1  H     8    29       P1  8028  1.00
      L1  H    11    30       P1  8028  0.91
      P1  H 10752 10763       L1    20  0.94

> <Gold.PLP.Chemscore.Internal.Correction>
0.0447

> <Gold.Rescore>
     Score         DG    S(hbond)    S(metal)    S(lipo)     H(rot)  DE(clash)    DE(int)     intcor
     14.51     -19.78       3.01        0.00      80.50       2.02       0.34       4.92       ----

> <Gold.Chemscore.Fitness>
14.5123

> <Gold.Chemscore.DG>
-19.7762

> <Gold.Chemscore.ZeroCoef>
-5.4800

> <Gold.Chemscore.Hbond>
3.0096

> <Gold.Chemscore.Metal>
0.0000

> <Gold.Chemscore.Lipo>
80.5008

> <Gold.Chemscore.Internal_Hbond>
0.0000

> <Gold.Chemscore.DEClash>
0.3431

> <Gold.Chemscore.DEInternal>
4.9208

> <Gold.Chemscore.Rot>
2.0213

> <Gold.Chemscore.Internal.Correction>
   9.000000E+99

> <Gold.Chemscore.Hbonds>
donor molecule, donor type, donor heavy atom, donor atom, acceptor molecule, acceptor atom, score
      L1  H     4    39       P1  7948  0.91
      L1  H     8    29       P1  8028  0.98
      L1  H    11    30       P1  8028  0.87
      P1  H 10752 10763       L1    20  0.03

> <Gold.Chemscore.Hbond.Weighted>
-10.0520

> <Gold.Chemscore.Metal.Weighted>
-0.0000

> <Gold.Chemscore.Lipo.Weighted>
-9.4186

> <Gold.Chemscore.Internal_Hbond.Weighted>
0.0000

> <Gold.Chemscore.DEClash.Weighted>
0.3431

> <Gold.Chemscore.DEInternal.Weighted>
4.9208

> <Gold.Chemscore.Rot.Weighted>
5.1744

> <Gold.Chemscore.Internal.Correction.Weighted>
   9.000000E+99

> <Gold.Protein.RotatedTorsions>
[ 6907 6896 6895 6894 ] final -157.05 input  -60.11 | X-H torsion
[ 7974 7965 7964 7962 ] final  -22.82 input  175.53 | X-H torsion
[ 8008 7997 7996 7995 ] final   81.62 input   59.86 | X-H torsion
[ 10167 10162 10161 10158 ] final -146.06 input  -65.29 | X-H torsion
[ 10718 10713 10712 10709 ] final -100.23 input   66.30 | X-H torsion
[ 10763 10752 10751 10750 ] final   82.87 input  -60.55 | X-H torsion
[ 11005 11000 10999 10996 ] final  178.62 input  -57.11 | X-H torsion

> <Gold.Protein.ActiveResidues>
 VAL166  LYS551  ARG553  GLY616  TRP617  ASP618  TYR619  PRO620  LYS621  CYS622 
 ASP623  PHE694  ASN695  SER759  ASP760  ASP761  ALA762  ILE779  LEU786  VAL792 
 PHE793  MET794  SER795  GLU796  ALA797  LYS798  CYS799  TRP800  GLU811  SER814 

> <Gold.Protein.RotatedAtoms>
  151.2969  133.4140  159.2636 H   0  0  0  0  0  0  0  0  0  0  0  0  # atno 6907 bound_to 6896
  151.0228  134.9482  159.8079 H   0  0  0  0  0  0  0  0  0  0  0  0  # atno 6908 bound_to 6896
  152.5328  134.2932  159.9103 H   0  0  0  0  0  0  0  0  0  0  0  0  # atno 6909 bound_to 6896
  146.1653  140.4532  142.8554 H   0  0  0  0  0  0  0  0  0  0  0  0  # atno 7974 bound_to 7965
  155.8996  140.3434  155.6016 H   0  0  0  0  0  0  0  0  0  0  0  0  # atno 8008 bound_to 7997
  155.7516  140.0820  157.2217 H   0  0  0  0  0  0  0  0  0  0  0  0  # atno 8009 bound_to 7997
  154.4042  140.1552  156.2717 H   0  0  0  0  0  0  0  0  0  0  0  0  # atno 8010 bound_to 7997
  139.7748  143.8186  152.2630 H   0  0  0  0  0  0  0  0  0  0  0  0  # atno 10167 bound_to 10162
  156.0157  130.5318  150.6787 H   0  0  0  0  0  0  0  0  0  0  0  0  # atno 10718 bound_to 10713
  153.1241  135.4712  154.9243 H   0  0  0  0  0  0  0  0  0  0  0  0  # atno 10763 bound_to 10752
  154.7603  135.3129  154.8393 H   0  0  0  0  0  0  0  0  0  0  0  0  # atno 10764 bound_to 10752
  153.8951  135.6881  153.4812 H   0  0  0  0  0  0  0  0  0  0  0  0  # atno 10765 bound_to 10752
  140.3971  134.6810  157.4541 H   0  0  0  0  0  0  0  0  0  0  0  0  # atno 11005 bound_to 11000
  144.8083  140.6340  143.6432 LP  0  0  0  0  0  0  0  0  0  0  0  0  # atno 17320 bound_to 7965
  145.4484  139.1526  143.3932 LP  0  0  0  0  0  0  0  0  0  0  0  0  # atno 17321 bound_to 7965
  139.8231  144.7287  150.9547 LP  0  0  0  0  0  0  0  0  0  0  0  0  # atno 17342 bound_to 10162
  140.7816  143.4140  151.0946 LP  0  0  0  0  0  0  0  0  0  0  0  0  # atno 17343 bound_to 10162
  157.4494  131.0871  151.0862 LP  0  0  0  0  0  0  0  0  0  0  0  0  # atno 17370 bound_to 10713
  157.1382  130.6131  149.5548 LP  0  0  0  0  0  0  0  0  0  0  0  0  # atno 17371 bound_to 10713
  140.0363  134.6332  155.9039 LP  0  0  0  0  0  0  0  0  0  0  0  0  # atno 17394 bound_to 11000
  141.1870  133.6558  156.5263 LP  0  0  0  0  0  0  0  0  0  0  0  0  # atno 17395 bound_to 11000

$$$$
