AV-unprocessed.smi:1795|AV-procd|sdf|7244|dock6
  -GOLD-   22720 8493D 1   1.00000     0.00000
 Structure written by MMmdl.
 48 49  0  0  0  0  0  0  0  0  2 V2000
  145.2443  131.9245  149.9357 C   0  0  0  0  0  0  0  0  0  0  0  0
  145.5570  132.6402  151.2544 C   0  0  1  0  0  0  0  0  0  0  0  0
  146.8717  133.4496  151.1755 C   0  0  0  0  0  0  0  0  0  0  0  0
  147.1148  134.2303  152.4204 N   0  3  2  0  0  0  0  0  0  0  0  0
  147.6359  133.4156  153.5696 C   0  0  2  0  0  0  0  0  0  0  0  0
  146.6169  132.3733  154.0919 C   0  0  0  0  0  0  0  0  0  0  0  0
  148.0868  134.3416  154.7324 C   0  0  0  0  0  0  0  0  0  0  0  0
  149.2011  135.2083  154.3655 N   0  0  0  0  0  0  0  0  0  0  0  0
  149.8957  135.9729  155.2227 C   0  0  0  0  0  0  0  0  0  0  0  0
  149.6810  135.9929  156.4343 O   0  0  0  0  0  0  0  0  0  0  0  0
  150.9824  136.8712  154.6224 C   0  0  0  0  0  0  0  0  0  0  0  0
  150.6655  138.2997  154.7822 N   0  0  0  0  0  0  0  0  0  0  0  0
  149.4880  138.7598  154.1596 C   0  0  0  0  0  0  0  0  0  0  0  0
  149.1008  140.0433  154.2306 C   0  0  0  0  0  0  0  0  0  0  0  0
  149.9264  140.9646  154.9745 C   0  0  0  0  0  0  0  0  0  0  0  0
  151.0582  140.5373  155.5682 C   0  0  0  0  0  0  0  0  0  0  0  0
  151.4906  139.1376  155.4838 C   0  0  0  0  0  0  0  0  0  0  0  0
  152.5348  138.7450  156.0047 O   0  0  0  0  0  0  0  0  0  0  0  0
  145.9187  135.0759  152.6845 C   0  0  0  0  0  0  0  0  0  0  0  0
  144.6401  134.2182  152.7748 C   0  0  1  0  0  0  0  0  0  0  0  0
  143.3882  135.0711  153.0073 C   0  0  0  0  0  0  0  0  0  0  0  0
  144.4762  133.5208  151.5445 O   0  0  0  0  0  0  0  0  0  0  0  0
  146.0386  131.2264  149.6697 H   0  0  0  0  0  0  0  0  0  0  0  0
  145.1344  132.6349  149.1160 H   0  0  0  0  0  0  0  0  0  0  0  0
  144.3162  131.3573  150.0111 H   0  0  0  0  0  0  0  0  0  0  0  0
  145.6204  131.8849  152.0382 H   0  0  0  0  0  0  0  0  0  0  0  0
  147.7040  132.7932  150.9323 H   0  0  0  0  0  0  0  0  0  0  0  0
  146.8074  134.1555  150.3462 H   0  0  0  0  0  0  0  0  0  0  0  0
  148.5000  132.8520  153.2203 H   0  0  0  0  0  0  0  0  0  0  0  0
  146.9988  131.8293  154.9558 H   0  0  0  0  0  0  0  0  0  0  0  0
  146.3919  131.6106  153.3469 H   0  0  0  0  0  0  0  0  0  0  0  0
  145.6816  132.8463  154.3925 H   0  0  0  0  0  0  0  0  0  0  0  0
  147.2816  134.9781  155.0956 H   0  0  0  0  0  0  0  0  0  0  0  0
  148.3999  133.7368  155.5841 H   0  0  0  0  0  0  0  0  0  0  0  0
  149.4465  135.2513  153.3861 H   0  0  0  0  0  0  0  0  0  0  0  0
  151.9367  136.6465  155.1018 H   0  0  0  0  0  0  0  0  0  0  0  0
  151.1255  136.6075  153.5731 H   0  0  0  0  0  0  0  0  0  0  0  0
  148.9311  138.0074  153.6198 H   0  0  0  0  0  0  0  0  0  0  0  0
  148.1971  140.3782  153.7428 H   0  0  0  0  0  0  0  0  0  0  0  0
  149.6344  142.0012  155.0567 H   0  0  0  0  0  0  0  0  0  0  0  0
  151.6626  141.2408  156.1218 H   0  0  0  0  0  0  0  0  0  0  0  0
  146.0426  135.7101  153.5609 H   0  0  0  0  0  0  0  0  0  0  0  0
  145.8150  135.7748  151.8530 H   0  0  0  0  0  0  0  0  0  0  0  0
  144.7232  133.4987  153.5910 H   0  0  0  0  0  0  0  0  0  0  0  0
  143.4581  135.6232  153.9448 H   0  0  0  0  0  0  0  0  0  0  0  0
  142.4954  134.4473  153.0559 H   0  0  0  0  0  0  0  0  0  0  0  0
  143.2461  135.7931  152.2027 H   0  0  0  0  0  0  0  0  0  0  0  0
  147.8585  134.8804  152.2096 H   0  0  0  0  0  0  0  0  0  0  0  0
  1  2  1  0  0  0  0
  1 23  1  0  0  0  0
  1 24  1  0  0  0  0
  1 25  1  0  0  0  0
  2 22  1  0  0  0  0
  2  3  1  0  0  0  0
  2 26  1  0  0  0  0
  3  4  1  0  0  0  0
  3 27  1  0  0  0  0
  3 28  1  0  0  0  0
  4  5  1  0  0  0  0
  4 19  1  0  0  0  0
  4 48  1  0  0  0  0
  5  6  1  0  0  0  0
  5  7  1  0  0  0  0
  5 29  1  0  0  0  0
  6 30  1  0  0  0  0
  6 31  1  0  0  0  0
  6 32  1  0  0  0  0
  7  8  1  0  0  0  0
  7 33  1  0  0  0  0
  7 34  1  0  0  0  0
  8  9  1  0  0  0  0
  8 35  1  0  0  0  0
  9 10  2  0  0  0  0
  9 11  1  0  0  0  0
 11 12  1  0  0  0  0
 11 36  1  0  0  0  0
 11 37  1  0  0  0  0
 12 17  1  0  0  0  0
 12 13  1  0  0  0  0
 13 14  2  0  0  0  0
 13 38  1  0  0  0  0
 14 15  1  0  0  0  0
 14 39  1  0  0  0  0
 15 16  2  0  0  0  0
 15 40  1  0  0  0  0
 16 17  1  0  0  0  0
 16 41  1  0  0  0  0
 17 18  2  0  0  0  0
 19 20  1  0  0  0  0
 19 42  1  0  0  0  0
 19 43  1  0  0  0  0
 20 21  1  0  0  0  0
 20 22  1  0  0  0  0
 20 44  1  0  0  0  0
 21 45  1  0  0  0  0
 21 46  1  0  0  0  0
 21 47  1  0  0  0  0
M  CHG  1   4   1
M  END
> <s_m_source_file>
AV-unprocessed.smi

> <i_m_source_file_index>
1795

> <i_lp_mmshare_version>
43012

> <i_f3d_flags>
0

> <s_epik_input>
W0NIM11bQ0BASF0xW0NIMl1OKFtDSDJdW0NASF0oTzEpW0NIM10pW0NASF0oW0NIM10pW0NIMl1bTkhdQyg9TylbQ0gyXW4yW2NIXVtjSF1bY0hdW2NIXWMyPU8=

> <s_epik_cmdline>
J2VwaWtfcHl0aG9uJywgJy1waCcsICc3LjAnLCAnLXRuJywgJzgnLCAnLW1hJywgJzIwMCcsICctbWV0YWxfYmluZGluZycsICctaW1hZScsICc8aW5maWxlLm1hZT4nLCAnLW9tYWUnLCAnPG91dGZpbGUubWFlPic=

> <r_lp_tautomer_probability>
1

> <r_epik_Ionization_Penalty>
0.656654

> <r_epik_Ionization_Penalty_Charging>
0.656654

> <r_epik_Ionization_Penalty_Neutral>
8.90321e-08

> <r_epik_State_Penalty>
0.675641

> <r_epik_Charging_Adjusted_Penalty>
1.33229

> <i_epik_Tot_Q>
1

> <i_epik_Tot_abs_Q>
1

> <r_epik_Metal_State_Penalty>
0.675691

> <b_epik_Metal_Only>
0

> <s_lp_Force_Field>
OPLS_2005

> <r_lp_Energy>
32.228

> <b_lp_Chiralities_Consistent>
1

> <s_lp_Variant>
AV-unprocessed.smi:1795-8

> <Gold.Version>
5.8.1

> <Gold.Id.Protein>
6NUR|6NUR_protein|mol2

> <Gold.PLP.Fitness>
47.0497

> <Gold.PLP.PLP>
-36.3723

> <Gold.PLP.part.hbond>
-2.0399

> <Gold.PLP.part.metal>
0.0000

> <Gold.PLP.part.buried>
-4.1053

> <Gold.PLP.part.nonpolar>
-30.9807

> <Gold.PLP.part.repulsive>
0.1668

> <Gold.PLP.ligand.clash>
0.0000

> <Gold.PLP.ligand.torsion>
0.1266

> <Gold.PLP.Chemscore.Hbond>
2.6240

> <Gold.PLP.Chemscore.CHOScore>
1.0000

> <Gold.PLP.Chemscore.Metal>
0.0000

> <Gold.Chemscore.Hbonds>
donor molecule, donor type, donor heavy atom, donor atom, acceptor molecule, acceptor atom, score
      L1  H     4    48       P1  7948  2.00
      L1  H     8    35       P1  7948  0.56
      L1  C    13    38       P1  7948  1.00

> <Gold.PLP.Chemscore.Internal.Correction>
0.0585

> <Gold.Rescore>
     Score         DG    S(hbond)    S(metal)    S(lipo)     H(rot)  DE(clash)    DE(int)     intcor
     16.23     -17.84       2.70        0.00      69.98       1.89       0.24       1.37       ----

> <Gold.Chemscore.Fitness>
16.2321

> <Gold.Chemscore.DG>
-17.8388

> <Gold.Chemscore.ZeroCoef>
-5.4800

> <Gold.Chemscore.Hbond>
2.6952

> <Gold.Chemscore.Metal>
0.0000

> <Gold.Chemscore.Lipo>
69.9795

> <Gold.Chemscore.Internal_Hbond>
0.0000

> <Gold.Chemscore.DEClash>
0.2401

> <Gold.Chemscore.DEInternal>
1.3667

> <Gold.Chemscore.Rot>
1.8870

> <Gold.Chemscore.Internal.Correction>
   9.000000E+99

> <Gold.Chemscore.Hbonds>
donor molecule, donor type, donor heavy atom, donor atom, acceptor molecule, acceptor atom, score
      L1  H     4    48       P1  7948  0.74
      L1  H     8    35       P1  7948  0.06
      P1  H  7997  8010       L1    18  0.03

> <Gold.Chemscore.Hbond.Weighted>
-9.0020

> <Gold.Chemscore.Metal.Weighted>
-0.0000

> <Gold.Chemscore.Lipo.Weighted>
-8.1876

> <Gold.Chemscore.Internal_Hbond.Weighted>
0.0000

> <Gold.Chemscore.DEClash.Weighted>
0.2401

> <Gold.Chemscore.DEInternal.Weighted>
1.3667

> <Gold.Chemscore.Rot.Weighted>
4.8308

> <Gold.Chemscore.Internal.Correction.Weighted>
   9.000000E+99

> <Gold.Protein.RotatedTorsions>
[ 6907 6896 6895 6894 ] final -160.21 input  -60.11 | X-H torsion
[ 7974 7965 7964 7962 ] final -134.67 input  175.53 | X-H torsion
[ 8008 7997 7996 7995 ] final   47.63 input   59.86 | X-H torsion
[ 10167 10162 10161 10158 ] final -162.28 input  -65.29 | X-H torsion
[ 10718 10713 10712 10709 ] final  -78.66 input   66.30 | X-H torsion
[ 10763 10752 10751 10750 ] final -161.34 input  -60.55 | X-H torsion
[ 11005 11000 10999 10996 ] final -161.14 input  -57.11 | X-H torsion

> <Gold.Protein.ActiveResidues>
 VAL166  LYS551  ARG553  GLY616  TRP617  ASP618  TYR619  PRO620  LYS621  CYS622 
 ASP623  PHE694  ASN695  SER759  ASP760  ASP761  ALA762  ILE779  LEU786  VAL792 
 PHE793  MET794  SER795  GLU796  ALA797  LYS798  CYS799  TRP800  GLU811  SER814 

> <Gold.Protein.RotatedAtoms>
  151.3456  133.3945  159.2675 H   0  0  0  0  0  0  0  0  0  0  0  0  # atno 6907 bound_to 6896
  150.9843  134.9192  159.7873 H   0  0  0  0  0  0  0  0  0  0  0  0  # atno 6908 bound_to 6896
  152.5227  134.3420  159.9273 H   0  0  0  0  0  0  0  0  0  0  0  0  # atno 6909 bound_to 6896
  144.9082  140.6860  143.5042 H   0  0  0  0  0  0  0  0  0  0  0  0  # atno 7974 bound_to 7965
  155.3723  140.3424  155.4243 H   0  0  0  0  0  0  0  0  0  0  0  0  # atno 8008 bound_to 7997
  156.1655  140.1615  156.8572 H   0  0  0  0  0  0  0  0  0  0  0  0  # atno 8009 bound_to 7997
  154.5181  140.0773  156.8102 H   0  0  0  0  0  0  0  0  0  0  0  0  # atno 8010 bound_to 7997
  139.6404  144.0271  152.2087 H   0  0  0  0  0  0  0  0  0  0  0  0  # atno 10167 bound_to 10162
  156.0112  130.4524  150.3530 H   0  0  0  0  0  0  0  0  0  0  0  0  # atno 10718 bound_to 10713
  154.7312  135.3047  154.8888 H   0  0  0  0  0  0  0  0  0  0  0  0  # atno 10763 bound_to 10752
  153.9730  135.6739  153.4752 H   0  0  0  0  0  0  0  0  0  0  0  0  # atno 10764 bound_to 10752
  153.0920  135.4954  154.8629 H   0  0  0  0  0  0  0  0  0  0  0  0  # atno 10765 bound_to 10752
  140.6237  134.4723  157.5225 H   0  0  0  0  0  0  0  0  0  0  0  0  # atno 11005 bound_to 11000
  145.3500  139.1709  143.4440 LP  0  0  0  0  0  0  0  0  0  0  0  0  # atno 17320 bound_to 7965
  146.3145  140.3551  142.8659 LP  0  0  0  0  0  0  0  0  0  0  0  0  # atno 17321 bound_to 7965
  139.9959  144.6328  150.7773 LP  0  0  0  0  0  0  0  0  0  0  0  0  # atno 17342 bound_to 10162
  140.7487  143.2927  151.3286 LP  0  0  0  0  0  0  0  0  0  0  0  0  # atno 17343 bound_to 10162
  157.1622  131.0348  151.2835 LP  0  0  0  0  0  0  0  0  0  0  0  0  # atno 17370 bound_to 10713
  157.4301  130.7486  149.6983 LP  0  0  0  0  0  0  0  0  0  0  0  0  # atno 17371 bound_to 10713
  139.9143  134.8279  156.1420 LP  0  0  0  0  0  0  0  0  0  0  0  0  # atno 17394 bound_to 11000
  141.0724  133.6791  156.2167 LP  0  0  0  0  0  0  0  0  0  0  0  0  # atno 17395 bound_to 11000

$$$$
