AV-unprocessed.smi:1685|AV-procd|sdf|6757|dock10
  -GOLD-   22720 7513D 1   1.00000     0.00000
 Structure written by MMmdl.
 40 41  0  0  0  0  0  0  0  0  1 V2000
  154.3643  136.7134  162.7064 C   0  0  0  0  0  0  0  0  0  0  0  0
  154.5070  138.2072  162.3954 C   0  0  0  0  0  0  0  0  0  0  0  0
  154.5516  138.4866  160.9264 C   0  0  0  0  0  0  0  0  0  0  0  0
  154.5302  137.5641  159.9728 N   0  0  0  0  0  0  0  0  0  0  0  0
  154.6135  138.2959  158.8033 N   0  0  0  0  0  0  0  0  0  0  0  0
  154.6894  139.5721  159.0479 N   0  0  0  0  0  0  0  0  0  0  0  0
  154.6546  139.7141  160.3966 N   0  0  0  0  0  0  0  0  0  0  0  0
  154.7217  141.0313  161.0093 C   0  0  0  0  0  0  0  0  0  0  0  0
  153.4955  141.8752  160.6559 C   0  0  0  0  0  0  0  0  0  0  0  0
  152.5397  141.9230  161.4295 O   0  0  0  0  0  0  0  0  0  0  0  0
  153.5378  142.5369  159.4888 N   0  0  0  0  0  0  0  0  0  0  0  0
  152.4724  143.3765  158.9521 C   0  0  0  0  0  0  0  0  0  0  0  0
  152.1912  144.5372  159.9305 C   0  0  0  0  0  0  0  0  0  0  0  0
  150.9450  145.3349  159.5082 C   0  0  0  0  0  0  0  0  0  0  0  0
  149.8074  144.4124  159.4091 N   0  0  0  0  0  0  0  0  0  0  0  0
  148.7667  144.3551  160.2747 C   0  0  0  0  0  0  0  0  0  0  0  0
  148.6940  145.3618  161.4252 C   0  0  0  0  0  0  0  0  0  0  0  0
  147.8687  143.5182  160.1809 O   0  0  0  0  0  0  0  0  0  0  0  0
  150.0003  143.4332  158.3335 C   0  0  0  0  0  0  0  0  0  0  0  0
  151.2013  142.5372  158.6870 C   0  0  0  0  0  0  0  0  0  0  0  0
  154.3290  136.5421  163.7823 H   0  0  0  0  0  0  0  0  0  0  0  0
  155.2053  136.1466  162.3060 H   0  0  0  0  0  0  0  0  0  0  0  0
  153.4496  136.3067  162.2738 H   0  0  0  0  0  0  0  0  0  0  0  0
  153.6676  138.7536  162.8267 H   0  0  0  0  0  0  0  0  0  0  0  0
  155.4047  138.6036  162.8700 H   0  0  0  0  0  0  0  0  0  0  0  0
  154.8014  140.9147  162.0906 H   0  0  0  0  0  0  0  0  0  0  0  0
  155.6267  141.5415  160.6760 H   0  0  0  0  0  0  0  0  0  0  0  0
  154.3674  142.4385  158.9210 H   0  0  0  0  0  0  0  0  0  0  0  0
  152.7996  143.8146  158.0072 H   0  0  0  0  0  0  0  0  0  0  0  0
  152.0384  144.1455  160.9376 H   0  0  0  0  0  0  0  0  0  0  0  0
  153.0565  145.1989  159.9846 H   0  0  0  0  0  0  0  0  0  0  0  0
  150.7797  146.1602  160.1992 H   0  0  0  0  0  0  0  0  0  0  0  0
  151.1141  145.8009  158.5364 H   0  0  0  0  0  0  0  0  0  0  0  0
  149.5814  145.2950  162.0554 H   0  0  0  0  0  0  0  0  0  0  0  0
  147.8249  145.1648  162.0539 H   0  0  0  0  0  0  0  0  0  0  0  0
  148.6051  146.3790  161.0431 H   0  0  0  0  0  0  0  0  0  0  0  0
  149.1169  142.8177  158.1586 H   0  0  0  0  0  0  0  0  0  0  0  0
  150.1864  143.9569  157.3948 H   0  0  0  0  0  0  0  0  0  0  0  0
  151.3813  141.8246  157.8814 H   0  0  0  0  0  0  0  0  0  0  0  0
  150.9564  141.9474  159.5717 H   0  0  0  0  0  0  0  0  0  0  0  0
  1  2  1  0  0  0  0
  1 21  1  0  0  0  0
  1 22  1  0  0  0  0
  1 23  1  0  0  0  0
  2  3  1  0  0  0  0
  2 24  1  0  0  0  0
  2 25  1  0  0  0  0
  3  7  1  0  0  0  0
  3  4  2  0  0  0  0
  4  5  1  0  0  0  0
  5  6  2  0  0  0  0
  6  7  1  0  0  0  0
  7  8  1  0  0  0  0
  8  9  1  0  0  0  0
  8 26  1  0  0  0  0
  8 27  1  0  0  0  0
  9 10  2  0  0  0  0
  9 11  1  0  0  0  0
 11 12  1  0  0  0  0
 11 28  1  0  0  0  0
 12 20  1  0  0  0  0
 12 13  1  0  0  0  0
 12 29  1  0  0  0  0
 13 14  1  0  0  0  0
 13 30  1  0  0  0  0
 13 31  1  0  0  0  0
 14 15  1  0  0  0  0
 14 32  1  0  0  0  0
 14 33  1  0  0  0  0
 15 16  1  0  0  0  0
 15 19  1  0  0  0  0
 16 17  1  0  0  0  0
 16 18  2  0  0  0  0
 17 34  1  0  0  0  0
 17 35  1  0  0  0  0
 17 36  1  0  0  0  0
 19 20  1  0  0  0  0
 19 37  1  0  0  0  0
 19 38  1  0  0  0  0
 20 39  1  0  0  0  0
 20 40  1  0  0  0  0
M  END
> <s_m_source_file>
AV-unprocessed.smi

> <i_m_source_file_index>
1685

> <i_lp_mmshare_version>
43012

> <i_f3d_flags>
0

> <s_epik_input>
W0NIM11bQ0gyXWMxbm5ubjFbQ0gyXUMoPU8pW05IXVtDSF0yW0NIMl1bQ0gyXU4oQyg9TylbQ0gzXSlbQ0gyXVtDSDJdMg==

> <s_epik_cmdline>
J2VwaWtfcHl0aG9uJywgJy1waCcsICc3LjAnLCAnLXRuJywgJzgnLCAnLW1hJywgJzIwMCcsICctbWV0YWxfYmluZGluZycsICctaW1hZScsICc8aW5maWxlLm1hZT4nLCAnLW9tYWUnLCAnPG91dGZpbGUubWFlPic=

> <r_lp_tautomer_probability>
1

> <r_epik_Ionization_Penalty>
1.8486e-06

> <r_epik_Ionization_Penalty_Charging>
0

> <r_epik_Ionization_Penalty_Neutral>
1.8486e-06

> <r_epik_State_Penalty>
-0

> <r_epik_Charging_Adjusted_Penalty>
0

> <i_epik_Tot_Q>
0

> <i_epik_Tot_abs_Q>
0

> <r_epik_Metal_State_Penalty>
-0

> <b_epik_Metal_Only>
0

> <s_lp_Force_Field>
OPLS_2005

> <r_lp_Energy>
22.135

> <b_lp_Chiralities_Consistent>
1

> <s_lp_Variant>
AV-unprocessed.smi:1685-1

> <Gold.Version>
5.8.1

> <Gold.Id.Protein>
6NUR|6NUR_protein|mol2

> <Gold.PLP.Fitness>
40.3025

> <Gold.PLP.PLP>
-35.0461

> <Gold.PLP.part.hbond>
-2.0000

> <Gold.PLP.part.metal>
0.0000

> <Gold.PLP.part.buried>
-0.4278

> <Gold.PLP.part.nonpolar>
-33.5480

> <Gold.PLP.part.repulsive>
0.1879

> <Gold.PLP.ligand.clash>
0.0000

> <Gold.PLP.ligand.torsion>
0.3825

> <Gold.PLP.Chemscore.Hbond>
2.0000

> <Gold.PLP.Chemscore.CHOScore>
0.0000

> <Gold.PLP.Chemscore.Metal>
0.0000

> <Gold.Chemscore.Hbonds>
donor molecule, donor type, donor heavy atom, donor atom, acceptor molecule, acceptor atom, score
      P1  H  6933  6944       L1    18  0.85
      P1  H  7997  8008       L1     6  0.75

> <Gold.PLP.Chemscore.Internal.Correction>
0.0213

> <Gold.Rescore>
     Score         DG    S(hbond)    S(metal)    S(lipo)     H(rot)  DE(clash)    DE(int)     intcor
     11.40     -12.78       0.78        0.00      80.66       1.85       0.05       1.33       ----

> <Gold.Chemscore.Fitness>
11.4010

> <Gold.Chemscore.DG>
-12.7792

> <Gold.Chemscore.ZeroCoef>
-5.4800

> <Gold.Chemscore.Hbond>
0.7758

> <Gold.Chemscore.Metal>
0.0000

> <Gold.Chemscore.Lipo>
80.6639

> <Gold.Chemscore.Internal_Hbond>
0.0000

> <Gold.Chemscore.DEClash>
0.0519

> <Gold.Chemscore.DEInternal>
1.3263

> <Gold.Chemscore.Rot>
1.8476

> <Gold.Chemscore.Internal.Correction>
   9.000000E+99

> <Gold.Chemscore.Hbonds>
donor molecule, donor type, donor heavy atom, donor atom, acceptor molecule, acceptor atom, score
      P1  H  6933  6944       L1    18  0.14
      P1  H  7997  8008       L1     6  0.09

> <Gold.Chemscore.Hbond.Weighted>
-2.5913

> <Gold.Chemscore.Metal.Weighted>
-0.0000

> <Gold.Chemscore.Lipo.Weighted>
-9.4377

> <Gold.Chemscore.Internal_Hbond.Weighted>
0.0000

> <Gold.Chemscore.DEClash.Weighted>
0.0519

> <Gold.Chemscore.DEInternal.Weighted>
1.3263

> <Gold.Chemscore.Rot.Weighted>
4.7298

> <Gold.Chemscore.Internal.Correction.Weighted>
   9.000000E+99

> <Gold.Protein.RotatedTorsions>
[ 6907 6896 6895 6894 ] final -100.86 input  -60.11 | X-H torsion
[ 7974 7965 7964 7962 ] final -119.65 input  175.53 | X-H torsion
[ 8008 7997 7996 7995 ] final -129.13 input   59.86 | X-H torsion
[ 10167 10162 10161 10158 ] final   61.82 input  -65.29 | X-H torsion
[ 10718 10713 10712 10709 ] final  -21.78 input   66.30 | X-H torsion
[ 10763 10752 10751 10750 ] final   98.17 input  -60.55 | X-H torsion
[ 11005 11000 10999 10996 ] final -171.45 input  -57.11 | X-H torsion

> <Gold.Protein.ActiveResidues>
 VAL166  LYS551  ARG553  GLY616  TRP617  ASP618  TYR619  PRO620  LYS621  CYS622 
 ASP623  PHE694  ASN695  SER759  ASP760  ASP761  ALA762  ILE779  LEU786  VAL792 
 PHE793  MET794  SER795  GLU796  ALA797  LYS798  CYS799  TRP800  GLU811  SER814 

> <Gold.Protein.RotatedAtoms>
  150.7132  134.0823  159.3901 H   0  0  0  0  0  0  0  0  0  0  0  0  # atno 6907 bound_to 6896
  151.8807  135.0452  160.0498 H   0  0  0  0  0  0  0  0  0  0  0  0  # atno 6908 bound_to 6896
  152.2570  133.5228  159.5395 H   0  0  0  0  0  0  0  0  0  0  0  0  # atno 6909 bound_to 6896
  145.0602  140.8284  143.4157 H   0  0  0  0  0  0  0  0  0  0  0  0  # atno 7974 bound_to 7965
  155.2742  140.0441  157.3010 H   0  0  0  0  0  0  0  0  0  0  0  0  # atno 8008 bound_to 7997
  154.5635  140.2353  155.8267 H   0  0  0  0  0  0  0  0  0  0  0  0  # atno 8009 bound_to 7997
  156.2066  140.3010  155.9649 H   0  0  0  0  0  0  0  0  0  0  0  0  # atno 8010 bound_to 7997
  140.1506  144.4466  150.6761 H   0  0  0  0  0  0  0  0  0  0  0  0  # atno 10167 bound_to 10162
  156.5135  130.4615  149.6635 H   0  0  0  0  0  0  0  0  0  0  0  0  # atno 10718 bound_to 10713
  153.2858  135.4157  155.1121 H   0  0  0  0  0  0  0  0  0  0  0  0  # atno 10763 bound_to 10752
  154.8504  135.3506  154.6049 H   0  0  0  0  0  0  0  0  0  0  0  0  # atno 10764 bound_to 10752
  153.6470  135.7054  153.5279 H   0  0  0  0  0  0  0  0  0  0  0  0  # atno 10765 bound_to 10752
  140.5081  134.5828  157.5010 H   0  0  0  0  0  0  0  0  0  0  0  0  # atno 11005 bound_to 11000
  145.1418  139.2567  143.5486 LP  0  0  0  0  0  0  0  0  0  0  0  0  # atno 17320 bound_to 7965
  146.3524  140.1098  142.8604 LP  0  0  0  0  0  0  0  0  0  0  0  0  # atno 17321 bound_to 7965
  140.6705  143.2284  151.5638 LP  0  0  0  0  0  0  0  0  0  0  0  0  # atno 17342 bound_to 10162
  139.5428  144.2602  152.1383 LP  0  0  0  0  0  0  0  0  0  0  0  0  # atno 17343 bound_to 10162
  156.3217  130.7284  151.2197 LP  0  0  0  0  0  0  0  0  0  0  0  0  # atno 17370 bound_to 10713
  157.7447  131.0454  150.4840 LP  0  0  0  0  0  0  0  0  0  0  0  0  # atno 17371 bound_to 10713
  139.9674  134.7349  156.0109 LP  0  0  0  0  0  0  0  0  0  0  0  0  # atno 17394 bound_to 11000
  141.1400  133.6567  156.3703 LP  0  0  0  0  0  0  0  0  0  0  0  0  # atno 17395 bound_to 11000

$$$$
