AV-unprocessed.smi:72|AV-procd|sdf|701|dock6
  -GOLD-   2262017 23D 1   1.00000     0.00000
 Structure written by MMmdl.
 30 31  0  0  0  0  0  0  0  0  2 V2000
  145.9821  138.7835  152.2144 N   0  0  0  0  0  0  0  0  0  0  0  0
  146.9452  139.3715  153.0074 C   0  0  0  0  0  0  0  0  0  0  0  0
  148.1920  138.7754  153.0525 N   0  3  0  0  0  0  0  0  0  0  0  0
  149.2285  139.2086  153.7826 C   0  0  0  0  0  0  0  0  0  0  0  0
  149.0723  140.2685  154.5532 N   0  0  0  0  0  0  0  0  0  0  0  0
  150.1998  140.8160  155.3998 C   0  0  2  0  0  0  0  0  0  0  0  0
  151.3274  140.0246  155.2033 O   0  0  0  0  0  0  0  0  0  0  0  0
  151.3208  138.9659  156.1516 C   0  0  1  0  0  0  0  0  0  0  0  0
  152.7216  138.3458  156.2549 C   0  0  0  0  0  0  0  0  0  0  0  0
  153.6362  139.1064  155.4948 O   0  0  0  0  0  0  0  0  0  0  0  0
  150.8657  139.6857  157.4230 C   0  0  2  0  0  0  0  0  0  0  0  0
  150.2237  138.7755  158.2930 O   0  0  0  0  0  0  0  0  0  0  0  0
  149.8720  140.7267  156.9078 C   0  0  1  0  0  0  0  0  0  0  0  0
  150.0746  141.9653  157.5563 O   0  0  0  0  0  0  0  0  0  0  0  0
  147.8470  140.9846  154.5209 C   0  0  0  0  0  0  0  0  0  0  0  0
  147.7155  142.0213  155.1709 O   0  0  0  0  0  0  0  0  0  0  0  0
  146.8208  140.4515  153.7279 N   0  0  0  0  0  0  0  0  0  0  0  0
  150.3673  141.8269  155.0235 H   0  0  0  0  0  0  0  0  0  0  0  0
  150.5802  138.2144  155.8690 H   0  0  0  0  0  0  0  0  0  0  0  0
  151.7160  140.1582  157.9184 H   0  0  0  0  0  0  0  0  0  0  0  0
  148.8411  140.4023  157.0576 H   0  0  0  0  0  0  0  0  0  0  0  0
  145.0473  139.1532  152.1141 H   0  0  0  0  0  0  0  0  0  0  0  0
  146.1312  137.9437  151.6734 H   0  0  0  0  0  0  0  0  0  0  0  0
  150.1702  138.6809  153.7082 H   0  0  0  0  0  0  0  0  0  0  0  0
  153.0516  138.2755  157.2919 H   0  0  0  0  0  0  0  0  0  0  0  0
  152.7156  137.3348  155.8462 H   0  0  0  0  0  0  0  0  0  0  0  0
  153.9839  138.5583  154.8076 H   0  0  0  0  0  0  0  0  0  0  0  0
  150.2488  137.9166  157.8984 H   0  0  0  0  0  0  0  0  0  0  0  0
  149.5633  142.6257  157.1126 H   0  0  0  0  0  0  0  0  0  0  0  0
  148.3304  137.9509  152.4855 H   0  0  0  0  0  0  0  0  0  0  0  0
  1  2  1  0  0  0  0
  1 22  1  0  0  0  0
  1 23  1  0  0  0  0
  2 17  2  0  0  0  0
  2  3  1  0  0  0  0
  3  4  2  0  0  0  0
  3 30  1  0  0  0  0
  4  5  1  0  0  0  0
  4 24  1  0  0  0  0
  5  6  1  0  0  0  0
  5 15  1  0  0  0  0
  6 18  1  0  0  0  0
  6 13  1  0  0  0  0
  6  7  1  0  0  0  0
  7  8  1  0  0  0  0
  8 19  1  0  0  0  0
  8  9  1  0  0  0  0
  8 11  1  0  0  0  0
  9 10  1  0  0  0  0
  9 25  1  0  0  0  0
  9 26  1  0  0  0  0
 10 27  1  0  0  0  0
 11 20  1  0  0  0  0
 11 12  1  0  0  0  0
 11 13  1  0  0  0  0
 12 28  1  0  0  0  0
 13 21  1  0  0  0  0
 13 14  1  0  0  0  0
 14 29  1  0  0  0  0
 15 16  2  0  0  0  0
 15 17  1  0  0  0  0
M  CHG  1   3   1
M  END
> <s_m_source_file>
AV-unprocessed.smi

> <i_m_source_file_index>
72

> <i_lp_mmshare_version>
43012

> <i_f3d_flags>
0

> <s_epik_input>
W05IMl1jMW5bY0hdbihjKD1PKW4xKVtDQEBIXTJPW0NASF0oW0NIMl1bT0hdKVtDQEBIXShbT0hdKVtDQEhdMltPSF0=

> <s_epik_cmdline>
J2VwaWtfcHl0aG9uJywgJy1waCcsICc3LjAnLCAnLXRuJywgJzgnLCAnLW1hJywgJzIwMCcsICctbWV0YWxfYmluZGluZycsICctaW1hZScsICc8aW5maWxlLm1hZT4nLCAnLW9tYWUnLCAnPG91dGZpbGUubWFlPic=

> <r_lp_tautomer_probability>
4.77166e-05

> <r_epik_Ionization_Penalty>
0.104979

> <r_epik_Ionization_Penalty_Charging>
0.0999619

> <r_epik_Ionization_Penalty_Neutral>
0.00501745

> <r_epik_State_Penalty>
2.51541

> <r_epik_Charging_Adjusted_Penalty>
2.61537

> <i_epik_Tot_Q>
1

> <i_epik_Tot_abs_Q>
1

> <r_epik_Metal_State_Penalty>
3.53763

> <b_epik_Metal_Only>
0

> <s_epik_Chemistry_Notes>
This compound contains an acetal/aminal-like group ( X-CH(R)-Y where X, Y are N, S, or O) that may be acid/base labile, releasing an aldehyde.

> <s_lp_Force_Field>
OPLS_2005

> <r_lp_Energy>
25.3585

> <b_lp_Chiralities_Consistent>
1

> <s_lp_Variant>
AV-unprocessed.smi:72-39

> <Gold.Version>
5.8.1

> <Gold.Id.Protein>
6NUR|6NUR_protein|mol2

> <Gold.PLP.Fitness>
39.3615

> <Gold.PLP.PLP>
-24.0871

> <Gold.PLP.part.hbond>
-6.7639

> <Gold.PLP.part.metal>
0.0000

> <Gold.PLP.part.buried>
0.6976

> <Gold.PLP.part.nonpolar>
-19.5869

> <Gold.PLP.part.repulsive>
1.6861

> <Gold.PLP.ligand.clash>
0.0000

> <Gold.PLP.ligand.torsion>
0.7452

> <Gold.PLP.Chemscore.Hbond>
5.5730

> <Gold.PLP.Chemscore.CHOScore>
0.0000

> <Gold.PLP.Chemscore.Metal>
0.0000

> <Gold.Chemscore.Hbonds>
donor molecule, donor type, donor heavy atom, donor atom, acceptor molecule, acceptor atom, score
      L1  H     1    22       P1 10175  1.00
      L1  H     3    30       P1  7948  2.00
      P1  H  7989  7998       L1     7  0.55
      P1  H  7997  8008       L1    10  0.66

> <Gold.PLP.Chemscore.Internal.Correction>
0.0458

> <Gold.Rescore>
     Score         DG    S(hbond)    S(metal)    S(lipo)     H(rot)  DE(clash)    DE(int)     intcor
      4.68      -9.74       3.65        0.00      21.42       4.08       3.55       1.51       ----

> <Gold.Chemscore.Fitness>
4.6770

> <Gold.Chemscore.DG>
-9.7378

> <Gold.Chemscore.ZeroCoef>
-5.4800

> <Gold.Chemscore.Hbond>
3.6502

> <Gold.Chemscore.Metal>
0.0000

> <Gold.Chemscore.Lipo>
21.4239

> <Gold.Chemscore.Internal_Hbond>
0.0000

> <Gold.Chemscore.DEClash>
3.5539

> <Gold.Chemscore.DEInternal>
1.5069

> <Gold.Chemscore.Rot>
4.0783

> <Gold.Chemscore.Internal.Correction>
   9.000000E+99

> <Gold.Chemscore.Hbonds>
donor molecule, donor type, donor heavy atom, donor atom, acceptor molecule, acceptor atom, score
      L1  H     1    22       P1 10175  0.97
      L1  H     3    30       P1  7948  1.00
      P1  H  7989  7998       L1     7  0.03
      P1  H  7997  8008       L1    10  0.62

> <Gold.Chemscore.Hbond.Weighted>
-12.1916

> <Gold.Chemscore.Metal.Weighted>
-0.0000

> <Gold.Chemscore.Lipo.Weighted>
-2.5066

> <Gold.Chemscore.Internal_Hbond.Weighted>
0.0000

> <Gold.Chemscore.DEClash.Weighted>
3.5539

> <Gold.Chemscore.DEInternal.Weighted>
1.5069

> <Gold.Chemscore.Rot.Weighted>
10.4404

> <Gold.Chemscore.Internal.Correction.Weighted>
   9.000000E+99

> <Gold.Protein.RotatedTorsions>
[ 6907 6896 6895 6894 ] final -171.93 input  -60.11 | X-H torsion
[ 7974 7965 7964 7962 ] final  -98.53 input  175.53 | X-H torsion
[ 8008 7997 7996 7995 ] final  -32.44 input   59.86 | X-H torsion
[ 10167 10162 10161 10158 ] final  -58.52 input  -65.29 | X-H torsion
[ 10718 10713 10712 10709 ] final   -5.10 input   66.30 | X-H torsion
[ 10763 10752 10751 10750 ] final  -57.21 input  -60.55 | X-H torsion
[ 11005 11000 10999 10996 ] final  142.90 input  -57.11 | X-H torsion

> <Gold.Protein.ActiveResidues>
 VAL166  LYS551  ARG553  GLY616  TRP617  ASP618  TYR619  PRO620  LYS621  CYS622 
 ASP623  PHE694  ASN695  SER759  ASP760  ASP761  ALA762  ILE779  LEU786  VAL792 
 PHE793  MET794  SER795  GLU796  ALA797  LYS798  CYS799  TRP800  GLU811  SER814 

> <Gold.Protein.RotatedAtoms>
  151.5318  133.3448  159.2919 H   0  0  0  0  0  0  0  0  0  0  0  0  # atno 6907 bound_to 6896
  150.8589  134.7938  159.7078 H   0  0  0  0  0  0  0  0  0  0  0  0  # atno 6908 bound_to 6896
  152.4614  134.5183  159.9826 H   0  0  0  0  0  0  0  0  0  0  0  0  # atno 6909 bound_to 6896
  145.3194  140.9418  143.2724 H   0  0  0  0  0  0  0  0  0  0  0  0  # atno 7974 bound_to 7965
  154.4180  140.1737  156.1727 H   0  0  0  0  0  0  0  0  0  0  0  0  # atno 8008 bound_to 7997
  155.9747  140.3382  155.6583 H   0  0  0  0  0  0  0  0  0  0  0  0  # atno 8009 bound_to 7997
  155.6579  140.0697  157.2555 H   0  0  0  0  0  0  0  0  0  0  0  0  # atno 8010 bound_to 7997
  140.6192  143.2413  151.5521 H   0  0  0  0  0  0  0  0  0  0  0  0  # atno 10167 bound_to 10162
  156.7515  130.5241  149.5803 H   0  0  0  0  0  0  0  0  0  0  0  0  # atno 10718 bound_to 10713
  154.2188  135.6381  153.5138 H   0  0  0  0  0  0  0  0  0  0  0  0  # atno 10763 bound_to 10752
  152.9973  135.5491  154.6137 H   0  0  0  0  0  0  0  0  0  0  0  0  # atno 10764 bound_to 10752
  154.5592  135.2907  155.0910 H   0  0  0  0  0  0  0  0  0  0  0  0  # atno 10765 bound_to 10752
  140.0512  134.9254  157.1020 H   0  0  0  0  0  0  0  0  0  0  0  0  # atno 11005 bound_to 11000
  144.8951  139.4722  143.6659 LP  0  0  0  0  0  0  0  0  0  0  0  0  # atno 17320 bound_to 7965
  146.3088  139.7673  142.9036 LP  0  0  0  0  0  0  0  0  0  0  0  0  # atno 17321 bound_to 7965
  139.5424  144.2611  152.1377 LP  0  0  0  0  0  0  0  0  0  0  0  0  # atno 17342 bound_to 10162
  140.1827  144.4829  150.6520 LP  0  0  0  0  0  0  0  0  0  0  0  0  # atno 17343 bound_to 10162
  156.1398  130.6236  151.0451 LP  0  0  0  0  0  0  0  0  0  0  0  0  # atno 17370 bound_to 10713
  157.6775  131.0847  150.7457 LP  0  0  0  0  0  0  0  0  0  0  0  0  # atno 17371 bound_to 10713
  140.3914  134.2180  155.7166 LP  0  0  0  0  0  0  0  0  0  0  0  0  # atno 17394 bound_to 11000
  141.1931  133.8158  157.0812 LP  0  0  0  0  0  0  0  0  0  0  0  0  # atno 17395 bound_to 11000

$$$$
