AV-unprocessed.smi:2439|AV-procd|sdf|9608|dock2
  -GOLD-   2272013243D 1   1.00000     0.00000
 Structure written by MMmdl.
 41 43  0  0  0  0  0  0  0  0  2 V2000
  154.1065  140.3958  160.5752 N   0  0  0  0  0  0  0  0  0  0  0  0
  153.3034  141.0882  160.1125 C   0  0  0  0  0  0  0  0  0  0  0  0
  152.2919  141.9617  159.5302 C   0  0  0  0  0  0  0  0  0  0  0  0
  151.9602  143.1603  160.1964 C   0  0  0  0  0  0  0  0  0  0  0  0
  150.9833  144.0062  159.6405 C   0  0  0  0  0  0  0  0  0  0  0  0
  150.3750  143.6178  158.4334 C   0  0  0  0  0  0  0  0  0  0  0  0
  150.6824  142.4743  157.7863 N   0  0  0  0  0  0  0  0  0  0  0  0
  151.6226  141.6529  158.3152 C   0  0  0  0  0  0  0  0  0  0  0  0
  151.9242  140.4684  157.6170 N   0  0  0  0  0  0  0  0  0  0  0  0
  151.4576  140.2304  156.2560 C   0  0  0  0  0  0  0  0  0  0  0  0
  150.9704  138.7865  156.0442 C   0  0  1  0  0  0  0  0  0  0  0  0
  150.3643  138.5976  154.6361 C   0  0  0  0  0  0  0  0  0  0  0  0
  150.0060  137.1812  154.3811 N   0  3  2  0  0  0  0  0  0  0  0  0
  148.7439  136.7597  155.0483 C   0  0  0  0  0  0  0  0  0  0  0  0
  148.3827  135.3101  154.6933 C   0  0  0  0  0  0  0  0  0  0  0  0
  149.5269  134.3613  155.0667 C   0  0  0  0  0  0  0  0  0  0  0  0
  150.8211  134.8068  154.3723 C   0  0  0  0  0  0  0  0  0  0  0  0
  151.1651  136.2858  154.6510 C   0  0  2  0  0  0  0  0  0  0  0  0
  151.7342  136.5412  156.0624 C   0  0  0  0  0  0  0  0  0  0  0  0
  152.0888  137.9143  156.1825 O   0  0  0  0  0  0  0  0  0  0  0  0
  152.4457  143.4327  161.1226 H   0  0  0  0  0  0  0  0  0  0  0  0
  150.7086  144.9305  160.1271 H   0  0  0  0  0  0  0  0  0  0  0  0
  149.6210  144.2405  157.9752 H   0  0  0  0  0  0  0  0  0  0  0  0
  152.4034  139.7198  158.0972 H   0  0  0  0  0  0  0  0  0  0  0  0
  150.6626  140.9382  156.0185 H   0  0  0  0  0  0  0  0  0  0  0  0
  152.2731  140.4521  155.5671 H   0  0  0  0  0  0  0  0  0  0  0  0
  150.2242  138.5428  156.8010 H   0  0  0  0  0  0  0  0  0  0  0  0
  149.4899  139.2358  154.5019 H   0  0  0  0  0  0  0  0  0  0  0  0
  151.0900  138.9065  153.8825 H   0  0  0  0  0  0  0  0  0  0  0  0
  148.8285  136.8585  156.1303 H   0  0  0  0  0  0  0  0  0  0  0  0
  147.9343  137.4207  154.7370 H   0  0  0  0  0  0  0  0  0  0  0  0
  147.4699  135.0155  155.2123 H   0  0  0  0  0  0  0  0  0  0  0  0
  148.1711  135.2329  153.6261 H   0  0  0  0  0  0  0  0  0  0  0  0
  149.6645  134.3506  156.1484 H   0  0  0  0  0  0  0  0  0  0  0  0
  149.2779  133.3404  154.7750 H   0  0  0  0  0  0  0  0  0  0  0  0
  151.6487  134.1628  154.6715 H   0  0  0  0  0  0  0  0  0  0  0  0
  150.7055  134.6678  153.2963 H   0  0  0  0  0  0  0  0  0  0  0  0
  151.9476  136.5647  153.9433 H   0  0  0  0  0  0  0  0  0  0  0  0
  151.0273  136.2645  156.8455 H   0  0  0  0  0  0  0  0  0  0  0  0
  152.6294  135.9392  156.2202 H   0  0  0  0  0  0  0  0  0  0  0  0
  149.8189  137.1100  153.3909 H   0  0  0  0  0  0  0  0  0  0  0  0
  1  2  3  0  0  0  0
  2  3  1  0  0  0  0
  3  8  1  0  0  0  0
  3  4  2  0  0  0  0
  4  5  1  0  0  0  0
  4 21  1  0  0  0  0
  5  6  2  0  0  0  0
  5 22  1  0  0  0  0
  6  7  1  0  0  0  0
  6 23  1  0  0  0  0
  7  8  2  0  0  0  0
  8  9  1  0  0  0  0
  9 10  1  0  0  0  0
  9 24  1  0  0  0  0
 10 11  1  0  0  0  0
 10 25  1  0  0  0  0
 10 26  1  0  0  0  0
 11 20  1  0  0  0  0
 11 12  1  0  0  0  0
 11 27  1  0  0  0  0
 12 13  1  0  0  0  0
 12 28  1  0  0  0  0
 12 29  1  0  0  0  0
 13 18  1  0  0  0  0
 13 14  1  0  0  0  0
 13 41  1  0  0  0  0
 14 15  1  0  0  0  0
 14 30  1  0  0  0  0
 14 31  1  0  0  0  0
 15 16  1  0  0  0  0
 15 32  1  0  0  0  0
 15 33  1  0  0  0  0
 16 17  1  0  0  0  0
 16 34  1  0  0  0  0
 16 35  1  0  0  0  0
 17 18  1  0  0  0  0
 17 36  1  0  0  0  0
 17 37  1  0  0  0  0
 18 19  1  0  0  0  0
 18 38  1  0  0  0  0
 19 20  1  0  0  0  0
 19 39  1  0  0  0  0
 19 40  1  0  0  0  0
M  CHG  1  13   1
M  END
> <s_m_source_file>
AV-unprocessed.smi

> <i_m_source_file_index>
2439

> <i_lp_mmshare_version>
43012

> <i_f3d_flags>
0

> <s_epik_input>
TiNDYzFbY0hdW2NIXVtjSF1uYzFbTkhdW0NIMl1bQ0BIXShbQ0gyXTIpT1tDSDJdW0NAQEhdKE4yMylbQ0gyXVtDSDJdW0NIMl1bQ0gyXTM=

> <s_epik_cmdline>
J2VwaWtfcHl0aG9uJywgJy1waCcsICc3LjAnLCAnLXRuJywgJzgnLCAnLW1hJywgJzIwMCcsICctbWV0YWxfYmluZGluZycsICctaW1hZScsICc8aW5maWxlLm1hZT4nLCAnLW9tYWUnLCAnPG91dGZpbGUubWFlPic=

> <r_epik_Ionization_Penalty>
0.0803594

> <r_epik_Ionization_Penalty_Charging>
0.0803403

> <r_epik_Ionization_Penalty_Neutral>
1.90988e-05

> <r_epik_State_Penalty>
0.0711481

> <r_epik_Charging_Adjusted_Penalty>
0.151488

> <i_epik_Tot_Q>
1

> <i_epik_Tot_abs_Q>
1

> <r_epik_Metal_State_Penalty>
0.0711482

> <b_epik_Metal_Only>
0

> <s_lp_Force_Field>
OPLS_2005

> <r_lp_Energy>
31.3602

> <b_lp_Chiralities_Consistent>
1

> <s_lp_Variant>
AV-unprocessed.smi:2439-6

> <Gold.Version>
5.8.1

> <Gold.Id.Protein>
6NUR|6NUR_protein|mol2

> <Gold.PLP.Fitness>
42.4997

> <Gold.PLP.PLP>
-33.8437

> <Gold.PLP.part.hbond>
-1.0000

> <Gold.PLP.part.metal>
0.0000

> <Gold.PLP.part.buried>
-3.5715

> <Gold.PLP.part.nonpolar>
-29.6772

> <Gold.PLP.part.repulsive>
0.1994

> <Gold.PLP.ligand.clash>
0.0000

> <Gold.PLP.ligand.torsion>
0.1734

> <Gold.PLP.Chemscore.Hbond>
2.0000

> <Gold.PLP.Chemscore.CHOScore>
1.0000

> <Gold.PLP.Chemscore.Metal>
0.0000

> <Gold.Chemscore.Hbonds>
donor molecule, donor type, donor heavy atom, donor atom, acceptor molecule, acceptor atom, score
      L1  H    13    41       P1  7948  2.00
      L1  C     6    23       P1  8028  0.67
      L1  C     6    23       P1  8029  0.50

> <Gold.PLP.Chemscore.Internal.Correction>
0.0028

> <Gold.Rescore>
     Score         DG    S(hbond)    S(metal)    S(lipo)     H(rot)  DE(clash)    DE(int)     intcor
     15.35     -15.52       0.96        0.00      86.00       1.27       0.13       0.04       ----

> <Gold.Chemscore.Fitness>
15.3490

> <Gold.Chemscore.DG>
-15.5168

> <Gold.Chemscore.ZeroCoef>
-5.4800

> <Gold.Chemscore.Hbond>
0.9626

> <Gold.Chemscore.Metal>
0.0000

> <Gold.Chemscore.Lipo>
86.0046

> <Gold.Chemscore.Internal_Hbond>
0.0000

> <Gold.Chemscore.DEClash>
0.1279

> <Gold.Chemscore.DEInternal>
0.0399

> <Gold.Chemscore.Rot>
1.2659

> <Gold.Chemscore.Internal.Correction>
   9.000000E+99

> <Gold.Chemscore.Hbonds>
donor molecule, donor type, donor heavy atom, donor atom, acceptor molecule, acceptor atom, score
      L1  H    13    41       P1  7948  0.48

> <Gold.Chemscore.Hbond.Weighted>
-3.2150

> <Gold.Chemscore.Metal.Weighted>
-0.0000

> <Gold.Chemscore.Lipo.Weighted>
-10.0625

> <Gold.Chemscore.Internal_Hbond.Weighted>
0.0000

> <Gold.Chemscore.DEClash.Weighted>
0.1279

> <Gold.Chemscore.DEInternal.Weighted>
0.0399

> <Gold.Chemscore.Rot.Weighted>
3.2408

> <Gold.Chemscore.Internal.Correction.Weighted>
   9.000000E+99

> <Gold.Protein.RotatedTorsions>
[ 6907 6896 6895 6894 ] final   68.68 input  -60.11 | X-H torsion
[ 7974 7965 7964 7962 ] final -105.60 input  175.53 | X-H torsion
[ 8008 7997 7996 7995 ] final -116.35 input   59.86 | X-H torsion
[ 10167 10162 10161 10158 ] final -106.38 input  -65.29 | X-H torsion
[ 10718 10713 10712 10709 ] final  -59.62 input   66.30 | X-H torsion
[ 10763 10752 10751 10750 ] final   22.85 input  -60.55 | X-H torsion
[ 11005 11000 10999 10996 ] final  144.20 input  -57.11 | X-H torsion

> <Gold.Protein.ActiveResidues>
 VAL166  LYS551  ARG553  GLY616  TRP617  ASP618  TYR619  PRO620  LYS621  CYS622 
 ASP623  PHE694  ASN695  SER759  ASP760  ASP761  ALA762  ILE779  LEU786  VAL792 
 PHE793  MET794  SER795  GLU796  ALA797  LYS798  CYS799  TRP800  GLU811  SER814 

> <Gold.Protein.RotatedAtoms>
  152.4636  134.5127  159.9758 H   0  0  0  0  0  0  0  0  0  0  0  0  # atno 6907 bound_to 6896
  151.5170  133.3468  159.2902 H   0  0  0  0  0  0  0  0  0  0  0  0  # atno 6908 bound_to 6896
  150.8610  134.7991  159.7145 H   0  0  0  0  0  0  0  0  0  0  0  0  # atno 6909 bound_to 6896
  145.2285  140.9161  143.3218 H   0  0  0  0  0  0  0  0  0  0  0  0  # atno 7974 bound_to 7965
  155.0664  140.0393  157.2594 H   0  0  0  0  0  0  0  0  0  0  0  0  # atno 8008 bound_to 7997
  154.7018  140.2675  155.6688 H   0  0  0  0  0  0  0  0  0  0  0  0  # atno 8009 bound_to 7997
  156.2762  140.2739  156.1631 H   0  0  0  0  0  0  0  0  0  0  0  0  # atno 8010 bound_to 7997
  140.1884  143.3911  152.1226 H   0  0  0  0  0  0  0  0  0  0  0  0  # atno 10167 bound_to 10162
  156.1048  130.4181  150.0741 H   0  0  0  0  0  0  0  0  0  0  0  0  # atno 10718 bound_to 10713
  153.0883  135.6639  153.9904 H   0  0  0  0  0  0  0  0  0  0  0  0  # atno 10763 bound_to 10752
  153.9507  135.2984  155.3440 H   0  0  0  0  0  0  0  0  0  0  0  0  # atno 10764 bound_to 10752
  154.7295  135.5129  153.9013 H   0  0  0  0  0  0  0  0  0  0  0  0  # atno 10765 bound_to 10752
  140.0613  134.9203  157.1189 H   0  0  0  0  0  0  0  0  0  0  0  0  # atno 11005 bound_to 11000
  144.9699  139.3891  143.6314 LP  0  0  0  0  0  0  0  0  0  0  0  0  # atno 17320 bound_to 7965
  146.3359  139.8792  142.8827 LP  0  0  0  0  0  0  0  0  0  0  0  0  # atno 17321 bound_to 7965
  139.5266  144.7110  151.5206 LP  0  0  0  0  0  0  0  0  0  0  0  0  # atno 17342 bound_to 10162
  140.6473  143.8769  150.6749 LP  0  0  0  0  0  0  0  0  0  0  0  0  # atno 17343 bound_to 10162
  156.8719  130.9527  151.3608 LP  0  0  0  0  0  0  0  0  0  0  0  0  # atno 17370 bound_to 10713
  157.6224  130.8665  149.9131 LP  0  0  0  0  0  0  0  0  0  0  0  0  # atno 17371 bound_to 10713
  140.3765  134.2333  155.7174 LP  0  0  0  0  0  0  0  0  0  0  0  0  # atno 17394 bound_to 11000
  141.1974  133.8059  157.0628 LP  0  0  0  0  0  0  0  0  0  0  0  0  # atno 17395 bound_to 11000

$$$$
