AV-unprocessed.smi:813|AV-procd|sdf|3820|dock9
  -GOLD-   22720 1263D 1   1.00000     0.00000
 Structure written by MMmdl.
 35 36  0  0  0  0  0  0  0  0  2 V2000
  148.9412  141.1644  156.6348 C   0  0  0  0  0  0  0  0  0  0  0  0
  148.4741  142.3474  157.4991 C   0  0  1  0  0  0  0  0  0  0  0  0
  147.4200  141.8684  158.3927 N   0  0  0  0  0  0  0  0  0  0  0  0
  146.7207  142.6178  159.2587 C   0  0  0  0  0  0  0  0  0  0  0  0
  146.9443  143.8278  159.3453 O   0  0  0  0  0  0  0  0  0  0  0  0
  145.8077  141.9192  159.9711 N   0  5  0  0  0  0  0  0  0  0  0  0
  145.1415  142.5138  160.9745 C   0  0  0  0  0  0  0  0  0  0  0  0
  143.9966  142.0169  161.4699 N   0  0  0  0  0  0  0  0  0  0  0  0
  143.4727  142.7801  162.5048 N   0  0  0  0  0  0  0  0  0  0  0  0
  144.2455  143.8329  162.7709 C   0  0  0  0  0  0  0  0  0  0  0  0
  145.6828  143.9877  161.7829 S   0  0  0  0  0  0  0  0  0  0  0  0
  149.6744  142.8582  158.3117 C   0  0  0  0  0  0  0  0  0  0  0  0
  150.1943  142.1518  159.1773 O   0  0  0  0  0  0  0  0  0  0  0  0
  150.1082  144.0916  158.0117 N   0  0  0  0  0  0  0  0  0  0  0  0
  151.2157  144.7774  158.6710 C   0  0  0  0  0  0  0  0  0  0  0  0
  152.4737  143.8877  158.7279 C   0  0  0  0  0  0  0  0  0  0  0  0
  152.6085  143.4461  160.1848 C   0  0  0  0  0  0  0  0  0  0  0  0
  152.0336  144.6133  160.9807 C   0  0  0  0  0  0  0  0  0  0  0  0
  150.8608  145.1104  160.1333 C   0  0  0  0  0  0  0  0  0  0  0  0
  149.7305  141.4657  155.9450 H   0  0  0  0  0  0  0  0  0  0  0  0
  148.1181  140.7741  156.0351 H   0  0  0  0  0  0  0  0  0  0  0  0
  149.3238  140.3422  157.2414 H   0  0  0  0  0  0  0  0  0  0  0  0
  148.0851  143.1375  156.8537 H   0  0  0  0  0  0  0  0  0  0  0  0
  147.2101  140.8816  158.3604 H   0  0  0  0  0  0  0  0  0  0  0  0
  143.9689  144.5212  163.5554 H   0  0  0  0  0  0  0  0  0  0  0  0
  149.6196  144.6007  157.2896 H   0  0  0  0  0  0  0  0  0  0  0  0
  151.4455  145.6994  158.1334 H   0  0  0  0  0  0  0  0  0  0  0  0
  152.4396  143.0376  158.0448 H   0  0  0  0  0  0  0  0  0  0  0  0
  153.3448  144.4833  158.4516 H   0  0  0  0  0  0  0  0  0  0  0  0
  152.0071  142.5521  160.3553 H   0  0  0  0  0  0  0  0  0  0  0  0
  153.6379  143.2146  160.4597 H   0  0  0  0  0  0  0  0  0  0  0  0
  151.7321  144.3270  161.9886 H   0  0  0  0  0  0  0  0  0  0  0  0
  152.7838  145.4003  161.0681 H   0  0  0  0  0  0  0  0  0  0  0  0
  150.6789  146.1756  160.2792 H   0  0  0  0  0  0  0  0  0  0  0  0
  149.9541  144.5858  160.4394 H   0  0  0  0  0  0  0  0  0  0  0  0
  1  2  1  0  0  0  0
  1 20  1  0  0  0  0
  1 21  1  0  0  0  0
  1 22  1  0  0  0  0
  2  3  1  0  0  0  0
  2 12  1  0  0  0  0
  2 23  1  0  0  0  0
  3  4  1  0  0  0  0
  3 24  1  0  0  0  0
  4  5  2  0  0  0  0
  4  6  1  0  0  0  0
  6  7  1  0  0  0  0
  7 11  1  0  0  0  0
  7  8  2  0  0  0  0
  8  9  1  0  0  0  0
  9 10  2  0  0  0  0
 10 11  1  0  0  0  0
 10 25  1  0  0  0  0
 12 13  2  0  0  0  0
 12 14  1  0  0  0  0
 14 15  1  0  0  0  0
 14 26  1  0  0  0  0
 15 19  1  0  0  0  0
 15 16  1  0  0  0  0
 15 27  1  0  0  0  0
 16 17  1  0  0  0  0
 16 28  1  0  0  0  0
 16 29  1  0  0  0  0
 17 18  1  0  0  0  0
 17 30  1  0  0  0  0
 17 31  1  0  0  0  0
 18 19  1  0  0  0  0
 18 32  1  0  0  0  0
 18 33  1  0  0  0  0
 19 34  1  0  0  0  0
 19 35  1  0  0  0  0
M  CHG  1   6  -1
M  END
> <s_m_source_file>
AV-unprocessed.smi

> <i_m_source_file_index>
813

> <i_lp_mmshare_version>
43012

> <i_f3d_flags>
0

> <s_epik_input>
W0NIMl0xW0NIMl1bQ0gyXVtDSDJdW0NIXTFbTkhdQyg9TylbQ0BIXShbQ0gzXSlbTkhdQyg9TylbTkhdYzJubltjSF1zMg==

> <s_epik_cmdline>
J2VwaWtfcHl0aG9uJywgJy1waCcsICc3LjAnLCAnLXRuJywgJzgnLCAnLW1hJywgJzIwMCcsICctbWV0YWxfYmluZGluZycsICctaW1hZScsICc8aW5maWxlLm1hZT4nLCAnLW9tYWUnLCAnPG91dGZpbGUubWFlPic=

> <r_lp_tautomer_probability>
1

> <r_epik_Ionization_Penalty>
3.13682

> <r_epik_Ionization_Penalty_Charging>
3.09647

> <r_epik_Ionization_Penalty_Neutral>
0.0403479

> <r_epik_State_Penalty>
3.09328

> <r_epik_Charging_Adjusted_Penalty>
6.18976

> <i_epik_Tot_Q>
-1

> <i_epik_Tot_abs_Q>
1

> <r_epik_Metal_State_Penalty>
0.461392

> <b_epik_Metal_Only>
1

> <s_lp_Force_Field>
OPLS_2005

> <r_lp_Energy>
15.2454

> <b_lp_Chiralities_Consistent>
1

> <s_lp_Variant>
AV-unprocessed.smi:813-4

> <Gold.Version>
5.8.1

> <Gold.Id.Protein>
6NUR|6NUR_protein|mol2

> <Gold.PLP.Fitness>
46.2397

> <Gold.PLP.PLP>
-37.7713

> <Gold.PLP.part.hbond>
-5.8564

> <Gold.PLP.part.metal>
0.0000

> <Gold.PLP.part.buried>
-3.0958

> <Gold.PLP.part.nonpolar>
-29.2723

> <Gold.PLP.part.repulsive>
1.2952

> <Gold.PLP.ligand.clash>
0.0235

> <Gold.PLP.ligand.torsion>
0.2748

> <Gold.PLP.Chemscore.Hbond>
3.0000

> <Gold.PLP.Chemscore.CHOScore>
0.0000

> <Gold.PLP.Chemscore.Metal>
0.0000

> <Gold.Chemscore.Hbonds>
donor molecule, donor type, donor heavy atom, donor atom, acceptor molecule, acceptor atom, score
      L1  H    14    26       P1  8028  0.65
      P1  H  6934  6946       L1     6  1.70

> <Gold.PLP.Chemscore.Internal.Correction>
0.0416

> <Gold.Rescore>
     Score         DG    S(hbond)    S(metal)    S(lipo)     H(rot)  DE(clash)    DE(int)     intcor
      9.83     -15.52       1.45        0.00      82.05       1.72       1.37       4.31       ----

> <Gold.Chemscore.Fitness>
9.8300

> <Gold.Chemscore.DG>
-15.5154

> <Gold.Chemscore.ZeroCoef>
-5.4800

> <Gold.Chemscore.Hbond>
1.4482

> <Gold.Chemscore.Metal>
0.0000

> <Gold.Chemscore.Lipo>
82.0521

> <Gold.Chemscore.Internal_Hbond>
0.0000

> <Gold.Chemscore.DEClash>
1.3733

> <Gold.Chemscore.DEInternal>
4.3121

> <Gold.Chemscore.Rot>
1.7194

> <Gold.Chemscore.Internal.Correction>
   9.000000E+99

> <Gold.Chemscore.Hbonds>
donor molecule, donor type, donor heavy atom, donor atom, acceptor molecule, acceptor atom, score
      L1  H    14    26       P1  8028  0.05
      P1  H  6934  6946       L1     6  0.08

> <Gold.Chemscore.Hbond.Weighted>
-4.8369

> <Gold.Chemscore.Metal.Weighted>
-0.0000

> <Gold.Chemscore.Lipo.Weighted>
-9.6001

> <Gold.Chemscore.Internal_Hbond.Weighted>
0.0000

> <Gold.Chemscore.DEClash.Weighted>
1.3733

> <Gold.Chemscore.DEInternal.Weighted>
4.3121

> <Gold.Chemscore.Rot.Weighted>
4.4016

> <Gold.Chemscore.Internal.Correction.Weighted>
   9.000000E+99

> <Gold.Protein.RotatedTorsions>
[ 6907 6896 6895 6894 ] final -128.51 input  -60.11 | X-H torsion
[ 7974 7965 7964 7962 ] final -167.91 input  175.53 | X-H torsion
[ 8008 7997 7996 7995 ] final -145.49 input   59.86 | X-H torsion
[ 10167 10162 10161 10158 ] final   36.30 input  -65.29 | X-H torsion
[ 10718 10713 10712 10709 ] final  175.65 input   66.30 | X-H torsion
[ 10763 10752 10751 10750 ] final   70.45 input  -60.55 | X-H torsion
[ 11005 11000 10999 10996 ] final   15.63 input  -57.11 | X-H torsion

> <Gold.Protein.ActiveResidues>
 VAL166  LYS551  ARG553  GLY616  TRP617  ASP618  TYR619  PRO620  LYS621  CYS622 
 ASP623  PHE694  ASN695  SER759  ASP760  ASP761  ALA762  ILE779  LEU786  VAL792 
 PHE793  MET794  SER795  GLU796  ALA797  LYS798  CYS799  TRP800  GLU811  SER814 

> <Gold.Protein.RotatedAtoms>
  150.9187  133.6907  159.2837 H   0  0  0  0  0  0  0  0  0  0  0  0  # atno 6907 bound_to 6896
  151.4369  135.1014  159.9668 H   0  0  0  0  0  0  0  0  0  0  0  0  # atno 6908 bound_to 6896
  152.4968  133.8604  159.7302 H   0  0  0  0  0  0  0  0  0  0  0  0  # atno 6909 bound_to 6896
  144.7213  140.2448  143.6286 H   0  0  0  0  0  0  0  0  0  0  0  0  # atno 7974 bound_to 7965
  155.5441  140.0610  157.2864 H   0  0  0  0  0  0  0  0  0  0  0  0  # atno 8008 bound_to 7997
  154.4442  140.1914  156.0664 H   0  0  0  0  0  0  0  0  0  0  0  0  # atno 8009 bound_to 7997
  156.0564  140.3278  155.7414 H   0  0  0  0  0  0  0  0  0  0  0  0  # atno 8010 bound_to 7997
  140.4141  144.1552  150.6142 H   0  0  0  0  0  0  0  0  0  0  0  0  # atno 10167 bound_to 10162
  156.9317  130.9973  151.2986 H   0  0  0  0  0  0  0  0  0  0  0  0  # atno 10718 bound_to 10713
  153.0342  135.5173  154.7443 H   0  0  0  0  0  0  0  0  0  0  0  0  # atno 10763 bound_to 10752
  154.6433  135.2915  155.0079 H   0  0  0  0  0  0  0  0  0  0  0  0  # atno 10764 bound_to 10752
  154.0989  135.6639  153.4917 H   0  0  0  0  0  0  0  0  0  0  0  0  # atno 10765 bound_to 10752
  140.4561  134.1174  155.7709 H   0  0  0  0  0  0  0  0  0  0  0  0  # atno 11005 bound_to 11000
  145.8285  139.2075  143.1897 LP  0  0  0  0  0  0  0  0  0  0  0  0  # atno 17320 bound_to 7965
  146.0452  140.8125  142.9809 LP  0  0  0  0  0  0  0  0  0  0  0  0  # atno 17321 bound_to 7965
  140.4606  143.2450  151.9225 LP  0  0  0  0  0  0  0  0  0  0  0  0  # atno 17342 bound_to 10162
  139.4782  144.5471  151.8441 LP  0  0  0  0  0  0  0  0  0  0  0  0  # atno 17343 bound_to 10162
  157.5842  130.8398  149.8566 LP  0  0  0  0  0  0  0  0  0  0  0  0  # atno 17370 bound_to 10713
  156.0444  130.3731  150.1354 LP  0  0  0  0  0  0  0  0  0  0  0  0  # atno 17371 bound_to 10713
  141.1642  133.8735  157.1762 LP  0  0  0  0  0  0  0  0  0  0  0  0  # atno 17394 bound_to 11000
  139.9975  135.0041  157.0115 LP  0  0  0  0  0  0  0  0  0  0  0  0  # atno 17395 bound_to 11000

$$$$
