AV-unprocessed.smi:601|AV-procd|sdf|3033|dock5
  -GOLD-   2262023543D 1   1.00000     0.00000
 Structure written by MMmdl.
 49 50  0  0  0  0  0  0  0  0  2 V2000
  149.3916  135.3446  154.8620 C   0  0  0  0  0  0  0  0  0  0  0  0
  148.5124  135.6639  156.0785 C   0  0  0  0  0  0  0  0  0  0  0  0
  148.1787  137.1570  156.2251 C   0  0  0  0  0  0  0  0  0  0  0  0
  147.4768  137.5065  157.5520 C   0  0  0  0  0  0  0  0  0  0  0  0
  148.4229  137.5566  158.6770 N   0  0  0  0  0  0  0  0  0  0  0  0
  148.1879  136.8563  159.8185 C   0  0  0  0  0  0  0  0  0  0  0  0
  149.0130  136.8153  160.7342 O   0  0  0  0  0  0  0  0  0  0  0  0
  146.8324  136.1237  159.9994 C   0  0  2  0  0  0  0  0  0  0  0  0
  146.0429  136.5324  161.2504 C   0  0  0  0  0  0  0  0  0  0  0  0
  146.5820  135.6317  162.3553 C   0  0  0  0  0  0  0  0  0  0  0  0
  147.3610  134.5434  161.6110 C   0  0  0  0  0  0  0  0  0  0  0  0
  147.0458  134.7374  160.2372 O   0  0  0  0  0  0  0  0  0  0  0  0
  149.5973  138.3069  158.4835 C   0  0  0  0  0  0  0  0  0  0  0  0
  149.5638  139.6425  158.2331 C   0  0  0  0  0  0  0  0  0  0  0  0
  148.3547  140.3161  158.1323 N   0  0  0  0  0  0  0  0  0  0  0  0
  150.7764  140.3644  158.0695 N   0  0  0  0  0  0  0  0  0  0  0  0
  150.7174  141.8095  157.7628 C   0  0  0  0  0  0  0  0  0  0  0  0
  151.4690  142.6399  158.8175 C   0  0  0  0  0  0  0  0  0  0  0  0
  151.6743  144.0939  158.3802 C   0  0  0  0  0  0  0  0  0  0  0  0
  151.9862  139.7411  158.2152 C   0  0  0  0  0  0  0  0  0  0  0  0
  153.0212  140.4006  158.1084 O   0  0  0  0  0  0  0  0  0  0  0  0
  152.0148  138.4033  158.4791 N   0  5  0  0  0  0  0  0  0  0  0  0
  150.8981  137.6419  158.6232 C   0  0  0  0  0  0  0  0  0  0  0  0
  150.9545  136.4370  158.8709 O   0  0  0  0  0  0  0  0  0  0  0  0
  149.6558  134.2871  154.8446 H   0  0  0  0  0  0  0  0  0  0  0  0
  150.3192  135.9173  154.8854 H   0  0  0  0  0  0  0  0  0  0  0  0
  148.8810  135.5697  153.9260 H   0  0  0  0  0  0  0  0  0  0  0  0
  147.5922  135.0802  156.0343 H   0  0  0  0  0  0  0  0  0  0  0  0
  149.0354  135.3350  156.9770 H   0  0  0  0  0  0  0  0  0  0  0  0
  149.1081  137.7237  156.1614 H   0  0  0  0  0  0  0  0  0  0  0  0
  147.5730  137.4781  155.3770 H   0  0  0  0  0  0  0  0  0  0  0  0
  146.9490  138.4577  157.4724 H   0  0  0  0  0  0  0  0  0  0  0  0
  146.7042  136.7622  157.7519 H   0  0  0  0  0  0  0  0  0  0  0  0
  146.2151  136.2655  159.1119 H   0  0  0  0  0  0  0  0  0  0  0  0
  146.1240  137.5926  161.4936 H   0  0  0  0  0  0  0  0  0  0  0  0
  144.9849  136.3204  161.0919 H   0  0  0  0  0  0  0  0  0  0  0  0
  147.2408  136.1795  163.0299 H   0  0  0  0  0  0  0  0  0  0  0  0
  145.7682  135.2128  162.9479 H   0  0  0  0  0  0  0  0  0  0  0  0
  148.4349  134.6653  161.7593 H   0  0  0  0  0  0  0  0  0  0  0  0
  147.0877  133.5389  161.9334 H   0  0  0  0  0  0  0  0  0  0  0  0
  147.4703  139.8410  158.2404 H   0  0  0  0  0  0  0  0  0  0  0  0
  148.3152  141.3204  158.0355 H   0  0  0  0  0  0  0  0  0  0  0  0
  151.1298  142.0186  156.7743 H   0  0  0  0  0  0  0  0  0  0  0  0
  149.6853  142.1504  157.6822 H   0  0  0  0  0  0  0  0  0  0  0  0
  150.9217  142.6238  159.7606 H   0  0  0  0  0  0  0  0  0  0  0  0
  152.4399  142.1854  159.0182 H   0  0  0  0  0  0  0  0  0  0  0  0
  152.2183  144.6557  159.1397 H   0  0  0  0  0  0  0  0  0  0  0  0
  150.7188  144.5930  158.2166 H   0  0  0  0  0  0  0  0  0  0  0  0
  152.2452  144.1487  157.4530 H   0  0  0  0  0  0  0  0  0  0  0  0
  1  2  1  0  0  0  0
  1 25  1  0  0  0  0
  1 26  1  0  0  0  0
  1 27  1  0  0  0  0
  2  3  1  0  0  0  0
  2 28  1  0  0  0  0
  2 29  1  0  0  0  0
  3  4  1  0  0  0  0
  3 30  1  0  0  0  0
  3 31  1  0  0  0  0
  4  5  1  0  0  0  0
  4 32  1  0  0  0  0
  4 33  1  0  0  0  0
  5  6  1  0  0  0  0
  5 13  1  0  0  0  0
  6  7  2  0  0  0  0
  6  8  1  0  0  0  0
  8 12  1  0  0  0  0
  8  9  1  0  0  0  0
  8 34  1  0  0  0  0
  9 10  1  0  0  0  0
  9 35  1  0  0  0  0
  9 36  1  0  0  0  0
 10 11  1  0  0  0  0
 10 37  1  0  0  0  0
 10 38  1  0  0  0  0
 11 12  1  0  0  0  0
 11 39  1  0  0  0  0
 11 40  1  0  0  0  0
 13 23  1  0  0  0  0
 13 14  2  0  0  0  0
 14 15  1  0  0  0  0
 14 16  1  0  0  0  0
 15 41  1  0  0  0  0
 15 42  1  0  0  0  0
 16 17  1  0  0  0  0
 16 20  1  0  0  0  0
 17 18  1  0  0  0  0
 17 43  1  0  0  0  0
 17 44  1  0  0  0  0
 18 19  1  0  0  0  0
 18 45  1  0  0  0  0
 18 46  1  0  0  0  0
 19 47  1  0  0  0  0
 19 48  1  0  0  0  0
 19 49  1  0  0  0  0
 20 21  2  0  0  0  0
 20 22  1  0  0  0  0
 22 23  1  0  0  0  0
 23 24  2  0  0  0  0
M  CHG  1  22  -1
M  END
> <s_m_source_file>
AV-unprocessed.smi

> <i_m_source_file_index>
601

> <i_lp_mmshare_version>
43012

> <i_f3d_flags>
0

> <s_epik_input>
TzFbQ0gyXVtDSDJdW0NIMl1bQ0BIXTFDKD1PKU4oW0NIMl1bQ0gyXVtDSDJdW0NIM10pYzJjKFtOSDJdKW4oW0NIMl1bQ0gyXVtDSDNdKWMoPU8pW25IXWMyPU8=

> <s_epik_cmdline>
J2VwaWtfcHl0aG9uJywgJy1waCcsICc3LjAnLCAnLXRuJywgJzgnLCAnLW1hJywgJzIwMCcsICctbWV0YWxfYmluZGluZycsICctaW1hZScsICc8aW5maWxlLm1hZT4nLCAnLW9tYWUnLCAnPG91dGZpbGUubWFlPic=

> <r_lp_tautomer_probability>
1

> <r_epik_Ionization_Penalty>
5.90608

> <r_epik_Ionization_Penalty_Charging>
4.55687e-07

> <r_epik_Ionization_Penalty_Neutral>
5.90608

> <r_epik_State_Penalty>
5.90604

> <r_epik_Charging_Adjusted_Penalty>
5.90604

> <i_epik_Tot_Q>
-1

> <i_epik_Tot_abs_Q>
1

> <r_epik_Metal_State_Penalty>
1.84043

> <b_epik_Metal_Only>
1

> <s_lp_Force_Field>
OPLS_2005

> <r_lp_Energy>
51.8523

> <b_lp_Chiralities_Consistent>
1

> <s_lp_Variant>
AV-unprocessed.smi:601-3

> <Gold.Version>
5.8.1

> <Gold.Id.Protein>
6NUR|6NUR_protein|mol2

> <Gold.PLP.Fitness>
38.5271

> <Gold.PLP.PLP>
-30.4165

> <Gold.PLP.part.hbond>
-2.7562

> <Gold.PLP.part.metal>
0.0000

> <Gold.PLP.part.buried>
-4.8285

> <Gold.PLP.part.nonpolar>
-23.0791

> <Gold.PLP.part.repulsive>
0.1430

> <Gold.PLP.ligand.clash>
0.0000

> <Gold.PLP.ligand.torsion>
1.3444

> <Gold.PLP.Chemscore.Hbond>
2.8160

> <Gold.PLP.Chemscore.CHOScore>
0.0000

> <Gold.PLP.Chemscore.Metal>
0.0000

> <Gold.Chemscore.Hbonds>
donor molecule, donor type, donor heavy atom, donor atom, acceptor molecule, acceptor atom, score
      P1  H  6896  6907       L1    24  0.94
      P1  H  6931  6943       L1     7  0.85
      P1  H  7997  8010       L1    21  0.83

> <Gold.PLP.Chemscore.Internal.Correction>
2.3515

> <Gold.Rescore>
     Score         DG    S(hbond)    S(metal)    S(lipo)     H(rot)  DE(clash)    DE(int)     intcor
     12.91     -16.04       2.62        0.00      57.33       1.92       0.01       3.12       ----

> <Gold.Chemscore.Fitness>
12.9128

> <Gold.Chemscore.DG>
-16.0398

> <Gold.Chemscore.ZeroCoef>
-5.4800

> <Gold.Chemscore.Hbond>
2.6249

> <Gold.Chemscore.Metal>
0.0000

> <Gold.Chemscore.Lipo>
57.3326

> <Gold.Chemscore.Internal_Hbond>
0.0000

> <Gold.Chemscore.DEClash>
0.0103

> <Gold.Chemscore.DEInternal>
3.1167

> <Gold.Chemscore.Rot>
1.9201

> <Gold.Chemscore.Internal.Correction>
   9.000000E+99

> <Gold.Chemscore.Hbonds>
donor molecule, donor type, donor heavy atom, donor atom, acceptor molecule, acceptor atom, score
      P1  H  6896  6907       L1    24  0.91
      P1  H  6931  6943       L1     7  0.78
      P1  H  7997  8010       L1    21  0.83

> <Gold.Chemscore.Hbond.Weighted>
-8.7673

> <Gold.Chemscore.Metal.Weighted>
-0.0000

> <Gold.Chemscore.Lipo.Weighted>
-6.7079

> <Gold.Chemscore.Internal_Hbond.Weighted>
0.0000

> <Gold.Chemscore.DEClash.Weighted>
0.0103

> <Gold.Chemscore.DEInternal.Weighted>
3.1167

> <Gold.Chemscore.Rot.Weighted>
4.9154

> <Gold.Chemscore.Internal.Correction.Weighted>
   9.000000E+99

> <Gold.Protein.RotatedTorsions>
[ 6907 6896 6895 6894 ] final  -31.41 input  -60.11 | X-H torsion
[ 7974 7965 7964 7962 ] final  -79.58 input  175.53 | X-H torsion
[ 8008 7997 7996 7995 ] final   46.85 input   59.86 | X-H torsion
[ 10167 10162 10161 10158 ] final  -88.87 input  -65.29 | X-H torsion
[ 10718 10713 10712 10709 ] final  173.75 input   66.30 | X-H torsion
[ 10763 10752 10751 10750 ] final  -17.65 input  -60.55 | X-H torsion
[ 11005 11000 10999 10996 ] final   38.74 input  -57.11 | X-H torsion

> <Gold.Protein.ActiveResidues>
 VAL166  LYS551  ARG553  GLY616  TRP617  ASP618  TYR619  PRO620  LYS621  CYS622 
 ASP623  PHE694  ASN695  SER759  ASP760  ASP761  ALA762  ILE779  LEU786  VAL792 
 PHE793  MET794  SER795  GLU796  ALA797  LYS798  CYS799  TRP800  GLU811  SER814 

> <Gold.Protein.RotatedAtoms>
  151.0925  134.9924  159.8409 H   0  0  0  0  0  0  0  0  0  0  0  0  # atno 6907 bound_to 6896
  152.5430  134.2048  159.8736 H   0  0  0  0  0  0  0  0  0  0  0  0  # atno 6908 bound_to 6896
  151.2085  133.4525  159.2631 H   0  0  0  0  0  0  0  0  0  0  0  0  # atno 6909 bound_to 6896
  145.5713  140.9465  143.1394 H   0  0  0  0  0  0  0  0  0  0  0  0  # atno 7974 bound_to 7965
  155.3593  140.3418  155.4240 H   0  0  0  0  0  0  0  0  0  0  0  0  # atno 8008 bound_to 7997
  156.1722  140.1635  156.8461 H   0  0  0  0  0  0  0  0  0  0  0  0  # atno 8009 bound_to 7997
  154.5245  140.0759  156.8215 H   0  0  0  0  0  0  0  0  0  0  0  0  # atno 8010 bound_to 7997
  140.3704  143.2797  151.9507 H   0  0  0  0  0  0  0  0  0  0  0  0  # atno 10167 bound_to 10162
  156.9597  131.0057  151.2930 H   0  0  0  0  0  0  0  0  0  0  0  0  # atno 10718 bound_to 10713
  153.5772  135.7006  153.5479 H   0  0  0  0  0  0  0  0  0  0  0  0  # atno 10763 bound_to 10752
  153.3293  135.4052  155.1482 H   0  0  0  0  0  0  0  0  0  0  0  0  # atno 10764 bound_to 10752
  154.8623  135.3715  154.5297 H   0  0  0  0  0  0  0  0  0  0  0  0  # atno 10765 bound_to 10752
  140.2096  134.3771  155.8055 H   0  0  0  0  0  0  0  0  0  0  0  0  # atno 11005 bound_to 11000
  144.7436  139.7380  143.7301 LP  0  0  0  0  0  0  0  0  0  0  0  0  # atno 17320 bound_to 7965
  146.1782  139.4962  142.9883 LP  0  0  0  0  0  0  0  0  0  0  0  0  # atno 17321 bound_to 7965
  139.4804  144.5912  151.7768 LP  0  0  0  0  0  0  0  0  0  0  0  0  # atno 17342 bound_to 10162
  140.5039  144.1127  150.5978 LP  0  0  0  0  0  0  0  0  0  0  0  0  # atno 17343 bound_to 10162
  157.5666  130.8282  149.8335 LP  0  0  0  0  0  0  0  0  0  0  0  0  # atno 17370 bound_to 10713
  156.0327  130.3760  150.1643 LP  0  0  0  0  0  0  0  0  0  0  0  0  # atno 17371 bound_to 10713
  141.2226  133.7136  156.8396 LP  0  0  0  0  0  0  0  0  0  0  0  0  # atno 17394 bound_to 11000
  140.1965  134.8928  157.3120 LP  0  0  0  0  0  0  0  0  0  0  0  0  # atno 17395 bound_to 11000

$$$$
