AV-unprocessed.smi:1775|AV-procd|sdf|7171|dock1
  -GOLD-   22720 8413D 1   1.00000     0.00000
 Structure written by MMmdl.
 38 40  0  0  0  0  0  0  0  0  1 V2000
  149.9141  137.0368  156.2507 O   0  0  0  0  0  0  0  0  0  0  0  0
  149.6638  136.9066  155.0528 C   0  0  0  0  0  0  0  0  0  0  0  0
  149.8215  135.7781  154.3371 N   0  0  0  0  0  0  0  0  0  0  0  0
  150.2446  134.5095  154.7667 C   0  0  0  0  0  0  0  0  0  0  0  0
  149.6989  133.3332  154.3614 C   0  0  0  0  0  0  0  0  0  0  0  0
  150.1925  132.0506  154.8335 C   0  0  0  0  0  0  0  0  0  0  0  0
  149.5209  130.7457  154.4346 C   0  0  0  0  0  0  0  0  0  0  0  0
  148.9416  130.1578  155.4822 F   0  0  0  0  0  0  0  0  0  0  0  0
  148.5897  130.9540  153.5035 F   0  0  0  0  0  0  0  0  0  0  0  0
  150.4257  129.9057  153.9344 F   0  0  0  0  0  0  0  0  0  0  0  0
  151.2182  132.0860  155.7045 C   0  0  0  0  0  0  0  0  0  0  0  0
  151.7998  133.2901  156.1081 N   0  0  0  0  0  0  0  0  0  0  0  0
  151.3869  134.5096  155.6955 C   0  0  0  0  0  0  0  0  0  0  0  0
  151.9547  135.5255  156.0951 O   0  0  0  0  0  0  0  0  0  0  0  0
  149.2086  137.9022  154.2766 N   0  0  0  0  0  0  0  0  0  0  0  0
  148.9349  139.2780  154.6876 C   0  0  0  0  0  0  0  0  0  0  0  0
  147.7314  139.8973  153.9927 C   0  0  0  0  0  0  0  0  0  0  0  0
  147.4829  141.3862  154.0366 C   0  0  0  0  0  0  0  0  0  0  0  0
  146.5672  140.4427  154.7841 C   0  0  0  0  0  0  0  0  0  0  0  0
  150.1442  140.1983  154.6049 C   0  0  0  0  0  0  0  0  0  0  0  0
  151.3529  139.9775  155.4817 C   0  0  0  0  0  0  0  0  0  0  0  0
  150.4616  141.1785  155.7089 C   0  0  0  0  0  0  0  0  0  0  0  0
  152.5765  133.2319  156.7510 H   0  0  0  0  0  0  0  0  0  0  0  0
  149.6533  135.8495  153.3439 H   0  0  0  0  0  0  0  0  0  0  0  0
  148.8882  133.3138  153.6511 H   0  0  0  0  0  0  0  0  0  0  0  0
  151.6635  131.2117  156.1565 H   0  0  0  0  0  0  0  0  0  0  0  0
  149.0383  137.6897  153.3045 H   0  0  0  0  0  0  0  0  0  0  0  0
  148.6767  139.1960  155.7446 H   0  0  0  0  0  0  0  0  0  0  0  0
  147.4733  139.4128  153.0525 H   0  0  0  0  0  0  0  0  0  0  0  0
  148.1582  142.0000  154.6294 H   0  0  0  0  0  0  0  0  0  0  0  0
  147.0957  141.8565  153.1351 H   0  0  0  0  0  0  0  0  0  0  0  0
  145.5690  140.2833  154.3814 H   0  0  0  0  0  0  0  0  0  0  0  0
  146.6401  140.4269  155.8699 H   0  0  0  0  0  0  0  0  0  0  0  0
  150.3525  140.5564  153.5982 H   0  0  0  0  0  0  0  0  0  0  0  0
  151.3083  139.1735  156.2139 H   0  0  0  0  0  0  0  0  0  0  0  0
  152.3311  140.1506  155.0379 H   0  0  0  0  0  0  0  0  0  0  0  0
  150.8468  142.1537  155.4178 H   0  0  0  0  0  0  0  0  0  0  0  0
  149.8311  141.1720  156.5959 H   0  0  0  0  0  0  0  0  0  0  0  0
  1  2  2  0  0  0  0
  2  3  1  0  0  0  0
  2 15  1  0  0  0  0
  3  4  1  0  0  0  0
  3 24  1  0  0  0  0
  4 13  1  0  0  0  0
  4  5  2  0  0  0  0
  5  6  1  0  0  0  0
  5 25  1  0  0  0  0
  6  7  1  0  0  0  0
  6 11  2  0  0  0  0
  7  8  1  0  0  0  0
  7  9  1  0  0  0  0
  7 10  1  0  0  0  0
 11 12  1  0  0  0  0
 11 26  1  0  0  0  0
 12 23  1  0  0  0  0
 12 13  1  0  0  0  0
 13 14  2  0  0  0  0
 15 16  1  0  0  0  0
 15 27  1  0  0  0  0
 16 17  1  0  0  0  0
 16 20  1  0  0  0  0
 16 28  1  0  0  0  0
 17 19  1  0  0  0  0
 17 18  1  0  0  0  0
 17 29  1  0  0  0  0
 18 19  1  0  0  0  0
 18 30  1  0  0  0  0
 18 31  1  0  0  0  0
 19 32  1  0  0  0  0
 19 33  1  0  0  0  0
 20 22  1  0  0  0  0
 20 21  1  0  0  0  0
 20 34  1  0  0  0  0
 21 22  1  0  0  0  0
 21 35  1  0  0  0  0
 21 36  1  0  0  0  0
 22 37  1  0  0  0  0
 22 38  1  0  0  0  0
M  END
> <s_m_source_file>
AV-unprocessed.smi

> <i_m_source_file_index>
1775

> <i_lp_mmshare_version>
43012

> <i_f3d_flags>
0

> <s_epik_input>
W0NIMl0xW0NIMl1bQ0hdMVtDSF0oW0NIXTJbQ0gyXVtDSDJdMilbTkhdQyg9TylbTkhdYzNbY0hdYyhDKEYpKEYpRilbY0hdW25IXWMzPU8=

> <s_epik_cmdline>
J2VwaWtfcHl0aG9uJywgJy1waCcsICc3LjAnLCAnLXRuJywgJzgnLCAnLW1hJywgJzIwMCcsICctbWV0YWxfYmluZGluZycsICctaW1hZScsICc8aW5maWxlLm1hZT4nLCAnLW9tYWUnLCAnPG91dGZpbGUubWFlPic=

> <r_lp_tautomer_probability>
1

> <r_epik_Ionization_Penalty>
0.00370881

> <r_epik_Ionization_Penalty_Charging>
0.00368697

> <r_epik_Ionization_Penalty_Neutral>
2.18468e-05

> <r_epik_State_Penalty>
-0

> <r_epik_Charging_Adjusted_Penalty>
0.00368697

> <i_epik_Tot_Q>
0

> <i_epik_Tot_abs_Q>
0

> <r_epik_Metal_State_Penalty>
0.370005

> <b_epik_Metal_Only>
0

> <s_lp_Force_Field>
OPLS_2005

> <r_lp_Energy>
35.723

> <b_lp_Chiralities_Consistent>
1

> <s_lp_Variant>
AV-unprocessed.smi:1775-1

> <Gold.Version>
5.8.1

> <Gold.Id.Protein>
6NUR|6NUR_protein|mol2

> <Gold.PLP.Fitness>
41.7119

> <Gold.PLP.PLP>
-34.9963

> <Gold.PLP.part.hbond>
-3.1352

> <Gold.PLP.part.metal>
0.0000

> <Gold.PLP.part.buried>
-1.7866

> <Gold.PLP.part.nonpolar>
-30.5765

> <Gold.PLP.part.repulsive>
0.2005

> <Gold.PLP.ligand.clash>
0.0000

> <Gold.PLP.ligand.torsion>
2.2750

> <Gold.PLP.Chemscore.Hbond>
2.9100

> <Gold.PLP.Chemscore.CHOScore>
0.0000

> <Gold.PLP.Chemscore.Metal>
0.0000

> <Gold.Chemscore.Hbonds>
donor molecule, donor type, donor heavy atom, donor atom, acceptor molecule, acceptor atom, score
      L1  H     3    24       P1  7948  0.75
      L1  H    15    27       P1  7948  0.94
      P1  H 10752 10763       L1    14  0.75

> <Gold.PLP.Chemscore.Internal.Correction>
2.5356

> <Gold.Rescore>
     Score         DG    S(hbond)    S(metal)    S(lipo)     H(rot)  DE(clash)    DE(int)     intcor
     13.62     -17.50       2.55        0.00      62.87       1.51       0.04       3.83       ----

> <Gold.Chemscore.Fitness>
13.6236

> <Gold.Chemscore.DG>
-17.4976

> <Gold.Chemscore.ZeroCoef>
-5.4800

> <Gold.Chemscore.Hbond>
2.5496

> <Gold.Chemscore.Metal>
0.0000

> <Gold.Chemscore.Lipo>
62.8736

> <Gold.Chemscore.Internal_Hbond>
0.0000

> <Gold.Chemscore.DEClash>
0.0413

> <Gold.Chemscore.DEInternal>
3.8327

> <Gold.Chemscore.Rot>
1.5056

> <Gold.Chemscore.Internal.Correction>
   9.000000E+99

> <Gold.Chemscore.Hbonds>
donor molecule, donor type, donor heavy atom, donor atom, acceptor molecule, acceptor atom, score
      L1  H     3    24       P1  7948  0.09
      L1  H    15    27       P1  7948  0.85
      P1  H 10752 10763       L1    14  0.09

> <Gold.Chemscore.Hbond.Weighted>
-8.5156

> <Gold.Chemscore.Metal.Weighted>
-0.0000

> <Gold.Chemscore.Lipo.Weighted>
-7.3562

> <Gold.Chemscore.Internal_Hbond.Weighted>
0.0000

> <Gold.Chemscore.DEClash.Weighted>
0.0413

> <Gold.Chemscore.DEInternal.Weighted>
3.8327

> <Gold.Chemscore.Rot.Weighted>
3.8542

> <Gold.Chemscore.Internal.Correction.Weighted>
   9.000000E+99

> <Gold.Protein.RotatedTorsions>
[ 6907 6896 6895 6894 ] final   11.37 input  -60.11 | X-H torsion
[ 7974 7965 7964 7962 ] final -127.76 input  175.53 | X-H torsion
[ 8008 7997 7996 7995 ] final   95.45 input   59.86 | X-H torsion
[ 10167 10162 10161 10158 ] final  -50.65 input  -65.29 | X-H torsion
[ 10718 10713 10712 10709 ] final -110.79 input   66.30 | X-H torsion
[ 10763 10752 10751 10750 ] final   89.13 input  -60.55 | X-H torsion
[ 11005 11000 10999 10996 ] final  144.33 input  -57.11 | X-H torsion

> <Gold.Protein.ActiveResidues>
 VAL166  LYS551  ARG553  GLY616  TRP617  ASP618  TYR619  PRO620  LYS621  CYS622 
 ASP623  PHE694  ASN695  SER759  ASP760  ASP761  ALA762  ILE779  LEU786  VAL792 
 PHE793  MET794  SER795  GLU796  ALA797  LYS798  CYS799  TRP800  GLU811  SER814 

> <Gold.Protein.RotatedAtoms>
  151.7532  135.0827  160.0333 H   0  0  0  0  0  0  0  0  0  0  0  0  # atno 6907 bound_to 6896
  152.3403  133.6054  159.5880 H   0  0  0  0  0  0  0  0  0  0  0  0  # atno 6908 bound_to 6896
  150.7475  133.9649  159.3569 H   0  0  0  0  0  0  0  0  0  0  0  0  # atno 6909 bound_to 6896
  144.9738  140.7572  143.4654 H   0  0  0  0  0  0  0  0  0  0  0  0  # atno 7974 bound_to 7965
  156.0690  140.3286  155.7552 H   0  0  0  0  0  0  0  0  0  0  0  0  # atno 8008 bound_to 7997
  155.5336  140.0595  157.2901 H   0  0  0  0  0  0  0  0  0  0  0  0  # atno 8009 bound_to 7997
  154.4520  140.1923  156.0508 H   0  0  0  0  0  0  0  0  0  0  0  0  # atno 8010 bound_to 7997
  140.6627  143.2649  151.4389 H   0  0  0  0  0  0  0  0  0  0  0  0  # atno 10167 bound_to 10162
  156.0610  130.5834  150.8285 H   0  0  0  0  0  0  0  0  0  0  0  0  # atno 10718 bound_to 10713
  153.1839  135.4482  155.0063 H   0  0  0  0  0  0  0  0  0  0  0  0  # atno 10763 bound_to 10752
  154.8048  135.3270  154.7462 H   0  0  0  0  0  0  0  0  0  0  0  0  # atno 10764 bound_to 10752
  153.7924  135.6969  153.4924 H   0  0  0  0  0  0  0  0  0  0  0  0  # atno 10765 bound_to 10752
  140.0624  134.9197  157.1207 H   0  0  0  0  0  0  0  0  0  0  0  0  # atno 11005 bound_to 11000
  145.2520  139.2028  143.4937 LP  0  0  0  0  0  0  0  0  0  0  0  0  # atno 17320 bound_to 7965
  146.3389  140.2435  142.8596 LP  0  0  0  0  0  0  0  0  0  0  0  0  # atno 17321 bound_to 7965
  139.5866  144.1591  152.2036 LP  0  0  0  0  0  0  0  0  0  0  0  0  # atno 17342 bound_to 10162
  140.0932  144.5602  150.7040 LP  0  0  0  0  0  0  0  0  0  0  0  0  # atno 17343 bound_to 10162
  157.5619  131.0946  150.9546 LP  0  0  0  0  0  0  0  0  0  0  0  0  # atno 17370 bound_to 10713
  156.9782  130.5517  149.5294 LP  0  0  0  0  0  0  0  0  0  0  0  0  # atno 17371 bound_to 10713
  140.3750  134.2349  155.7175 LP  0  0  0  0  0  0  0  0  0  0  0  0  # atno 17394 bound_to 11000
  141.1979  133.8049  157.0608 LP  0  0  0  0  0  0  0  0  0  0  0  0  # atno 17395 bound_to 11000

$$$$
