AV-unprocessed.smi:2136|AV-procd|sdf|8705|dock4
  -GOLD-   2272011463D 1   1.00000     0.00000
 Structure written by MMmdl.
 43 44  0  0  0  0  0  0  0  0  2 V2000
  155.7321  139.5265  161.1486 C   0  0  0  0  0  0  0  0  0  0  0  0
  154.2939  139.2408  160.0364 S   0  0  0  0  0  0  0  0  0  0  0  0
  154.7889  139.2028  158.6524 O   0  0  0  0  0  0  0  0  0  0  0  0
  153.5376  138.0903  160.5544 O   0  0  0  0  0  0  0  0  0  0  0  0
  153.3182  140.6793  160.2779 N   0  0  0  0  0  0  0  0  0  0  0  0
  153.7995  141.5603  161.3713 C   0  0  0  0  0  0  0  0  0  0  0  0
  152.8082  142.6695  161.7424 C   0  0  0  0  0  0  0  0  0  0  0  0
  152.4519  143.5006  160.5165 C   0  0  0  0  0  0  0  0  0  0  0  0
  151.8247  142.5709  159.4833 C   0  0  0  0  0  0  0  0  0  0  0  0
  152.7593  141.4011  159.0874 C   0  0  2  0  0  0  0  0  0  0  0  0
  152.0134  140.5454  158.0527 C   0  0  0  0  0  0  0  0  0  0  0  0
  151.9114  139.3303  158.2210 O   0  0  0  0  0  0  0  0  0  0  0  0
  151.4979  141.1867  156.9910 N   0  0  0  0  0  0  0  0  0  0  0  0
  150.7300  140.5553  155.9257 C   0  0  0  0  0  0  0  0  0  0  0  0
  149.6095  141.4741  155.4121 C   0  0  0  0  0  0  0  0  0  0  0  0
  148.6552  140.7460  154.4862 C   0  0  0  0  0  0  0  0  0  0  0  0
  147.5557  141.4185  153.9082 C   0  0  0  0  0  0  0  0  0  0  0  0
  146.6845  140.7113  153.0535 C   0  0  0  0  0  0  0  0  0  0  0  0
  146.9318  139.3469  152.7974 C   0  0  0  0  0  0  0  0  0  0  0  0
  147.9930  138.7368  153.3698 N   0  3  0  0  0  0  0  0  0  0  0  0
  148.8508  139.3789  154.1928 C   0  0  0  0  0  0  0  0  0  0  0  0
  156.3962  138.6637  161.1048 H   0  0  0  0  0  0  0  0  0  0  0  0
  155.3873  139.6619  162.1729 H   0  0  0  0  0  0  0  0  0  0  0  0
  156.2770  140.4129  160.8252 H   0  0  0  0  0  0  0  0  0  0  0  0
  153.9981  140.9664  162.2630 H   0  0  0  0  0  0  0  0  0  0  0  0
  154.7499  142.0035  161.0729 H   0  0  0  0  0  0  0  0  0  0  0  0
  151.9068  142.2337  162.1758 H   0  0  0  0  0  0  0  0  0  0  0  0
  153.2423  143.3101  162.5105 H   0  0  0  0  0  0  0  0  0  0  0  0
  151.7540  144.2940  160.7850 H   0  0  0  0  0  0  0  0  0  0  0  0
  153.3417  143.9812  160.1079 H   0  0  0  0  0  0  0  0  0  0  0  0
  150.8868  142.1839  159.8858 H   0  0  0  0  0  0  0  0  0  0  0  0
  151.5568  143.1512  158.5989 H   0  0  0  0  0  0  0  0  0  0  0  0
  153.6120  141.8414  158.5683 H   0  0  0  0  0  0  0  0  0  0  0  0
  151.6216  142.1877  156.9376 H   0  0  0  0  0  0  0  0  0  0  0  0
  151.3978  140.2696  155.1108 H   0  0  0  0  0  0  0  0  0  0  0  0
  150.3047  139.6306  156.3167 H   0  0  0  0  0  0  0  0  0  0  0  0
  149.0505  141.8889  156.2523 H   0  0  0  0  0  0  0  0  0  0  0  0
  150.0314  142.3248  154.8752 H   0  0  0  0  0  0  0  0  0  0  0  0
  147.3795  142.4638  154.1173 H   0  0  0  0  0  0  0  0  0  0  0  0
  145.8387  141.2085  152.6019 H   0  0  0  0  0  0  0  0  0  0  0  0
  146.3177  138.7299  152.1577 H   0  0  0  0  0  0  0  0  0  0  0  0
  149.6603  138.7836  154.5904 H   0  0  0  0  0  0  0  0  0  0  0  0
  148.1533  137.7484  153.1728 H   0  0  0  0  0  0  0  0  0  0  0  0
  1  2  1  0  0  0  0
  1 22  1  0  0  0  0
  1 23  1  0  0  0  0
  1 24  1  0  0  0  0
  2  3  2  0  0  0  0
  2  4  2  0  0  0  0
  2  5  1  0  0  0  0
  5 10  1  0  0  0  0
  5  6  1  0  0  0  0
  6  7  1  0  0  0  0
  6 25  1  0  0  0  0
  6 26  1  0  0  0  0
  7  8  1  0  0  0  0
  7 27  1  0  0  0  0
  7 28  1  0  0  0  0
  8  9  1  0  0  0  0
  8 29  1  0  0  0  0
  8 30  1  0  0  0  0
  9 10  1  0  0  0  0
  9 31  1  0  0  0  0
  9 32  1  0  0  0  0
 10 11  1  0  0  0  0
 10 33  1  0  0  0  0
 11 12  2  0  0  0  0
 11 13  1  0  0  0  0
 13 14  1  0  0  0  0
 13 34  1  0  0  0  0
 14 15  1  0  0  0  0
 14 35  1  0  0  0  0
 14 36  1  0  0  0  0
 15 16  1  0  0  0  0
 15 37  1  0  0  0  0
 15 38  1  0  0  0  0
 16 21  1  0  0  0  0
 16 17  2  0  0  0  0
 17 18  1  0  0  0  0
 17 39  1  0  0  0  0
 18 19  2  0  0  0  0
 18 40  1  0  0  0  0
 19 20  1  0  0  0  0
 19 41  1  0  0  0  0
 20 21  2  0  0  0  0
 20 43  1  0  0  0  0
 21 42  1  0  0  0  0
M  CHG  1  20   1
M  END
> <s_m_source_file>
AV-unprocessed.smi

> <i_m_source_file_index>
2136

> <i_lp_mmshare_version>
43012

> <i_f3d_flags>
0

> <s_epik_input>
W0NIM11TKD1PKSg9TylOMVtDSDJdW0NIMl1bQ0gyXVtDSDJdW0NASF0xQyg9TylbTkhdW0NIMl1bQ0gyXWMyW2NIXVtjSF1bY0hdbltjSF0y

> <s_epik_cmdline>
J2VwaWtfcHl0aG9uJywgJy1waCcsICc3LjAnLCAnLXRuJywgJzgnLCAnLW1hJywgJzIwMCcsICctbWV0YWxfYmluZGluZycsICctaW1hZScsICc8aW5maWxlLm1hZT4nLCAnLW9tYWUnLCAnPG91dGZpbGUubWFlPic=

> <r_epik_Ionization_Penalty>
2.2835

> <r_epik_Ionization_Penalty_Charging>
2.2835

> <r_epik_Ionization_Penalty_Neutral>
1.35461e-07

> <r_epik_State_Penalty>
2.43297

> <r_epik_Charging_Adjusted_Penalty>
4.71647

> <i_epik_Tot_Q>
1

> <i_epik_Tot_abs_Q>
1

> <r_epik_Metal_State_Penalty>
2.44557

> <b_epik_Metal_Only>
0

> <s_lp_Force_Field>
OPLS_2005

> <r_lp_Energy>
10.903

> <b_lp_Chiralities_Consistent>
1

> <s_lp_Variant>
AV-unprocessed.smi:2136-4

> <Gold.Version>
5.8.1

> <Gold.Id.Protein>
6NUR|6NUR_protein|mol2

> <Gold.PLP.Fitness>
51.0162

> <Gold.PLP.PLP>
-42.4915

> <Gold.PLP.part.hbond>
-3.0000

> <Gold.PLP.part.metal>
0.0000

> <Gold.PLP.part.buried>
-1.5928

> <Gold.PLP.part.nonpolar>
-37.6964

> <Gold.PLP.part.repulsive>
0.1579

> <Gold.PLP.ligand.clash>
0.0000

> <Gold.PLP.ligand.torsion>
0.6146

> <Gold.PLP.Chemscore.Hbond>
3.0000

> <Gold.PLP.Chemscore.CHOScore>
0.0000

> <Gold.PLP.Chemscore.Metal>
0.0000

> <Gold.Chemscore.Hbonds>
donor molecule, donor type, donor heavy atom, donor atom, acceptor molecule, acceptor atom, score
      L1  H    20    43       P1  7948  1.34
      P1  H  7997  8010       L1     3  1.00

> <Gold.PLP.Chemscore.Internal.Correction>
0.7538

> <Gold.Rescore>
     Score         DG    S(hbond)    S(metal)    S(lipo)     H(rot)  DE(clash)    DE(int)     intcor
     18.22     -19.20       1.99        0.00     103.07       1.95       0.41       0.57       ----

> <Gold.Chemscore.Fitness>
18.2190

> <Gold.Chemscore.DG>
-19.2027

> <Gold.Chemscore.ZeroCoef>
-5.4800

> <Gold.Chemscore.Hbond>
1.9899

> <Gold.Chemscore.Metal>
0.0000

> <Gold.Chemscore.Lipo>
103.0749

> <Gold.Chemscore.Internal_Hbond>
0.0000

> <Gold.Chemscore.DEClash>
0.4147

> <Gold.Chemscore.DEInternal>
0.5689

> <Gold.Chemscore.Rot>
1.9466

> <Gold.Chemscore.Internal.Correction>
   9.000000E+99

> <Gold.Chemscore.Hbonds>
donor molecule, donor type, donor heavy atom, donor atom, acceptor molecule, acceptor atom, score
      L1  H    20    43       P1  7948  0.65
      P1  H  7997  8010       L1     3  0.97

> <Gold.Chemscore.Hbond.Weighted>
-6.6461

> <Gold.Chemscore.Metal.Weighted>
-0.0000

> <Gold.Chemscore.Lipo.Weighted>
-12.0598

> <Gold.Chemscore.Internal_Hbond.Weighted>
0.0000

> <Gold.Chemscore.DEClash.Weighted>
0.4147

> <Gold.Chemscore.DEInternal.Weighted>
0.5689

> <Gold.Chemscore.Rot.Weighted>
4.9832

> <Gold.Chemscore.Internal.Correction.Weighted>
   9.000000E+99

> <Gold.Protein.RotatedTorsions>
[ 6907 6896 6895 6894 ] final   38.16 input  -60.11 | X-H torsion
[ 7974 7965 7964 7962 ] final -127.95 input  175.53 | X-H torsion
[ 8008 7997 7996 7995 ] final    4.79 input   59.86 | X-H torsion
[ 10167 10162 10161 10158 ] final  115.35 input  -65.29 | X-H torsion
[ 10718 10713 10712 10709 ] final   32.93 input   66.30 | X-H torsion
[ 10763 10752 10751 10750 ] final -120.35 input  -60.55 | X-H torsion
[ 11005 11000 10999 10996 ] final   89.19 input  -57.11 | X-H torsion

> <Gold.Protein.ActiveResidues>
 VAL166  LYS551  ARG553  GLY616  TRP617  ASP618  TYR619  PRO620  LYS621  CYS622 
 ASP623  PHE694  ASN695  SER759  ASP760  ASP761  ALA762  ILE779  LEU786  VAL792 
 PHE793  MET794  SER795  GLU796  ALA797  LYS798  CYS799  TRP800  GLU811  SER814 

> <Gold.Protein.RotatedAtoms>
  152.1528  134.8974  160.0546 H   0  0  0  0  0  0  0  0  0  0  0  0  # atno 6907 bound_to 6896
  152.0000  133.3817  159.4186 H   0  0  0  0  0  0  0  0  0  0  0  0  # atno 6908 bound_to 6896
  150.6878  134.3767  159.5060 H   0  0  0  0  0  0  0  0  0  0  0  0  # atno 6909 bound_to 6896
  144.9719  140.7554  143.4665 H   0  0  0  0  0  0  0  0  0  0  0  0  # atno 7974 bound_to 7965
  154.7203  140.2710  155.6548 H   0  0  0  0  0  0  0  0  0  0  0  0  # atno 8008 bound_to 7997
  156.2821  140.2736  156.1797 H   0  0  0  0  0  0  0  0  0  0  0  0  # atno 8009 bound_to 7997
  155.0516  140.0371  157.2536 H   0  0  0  0  0  0  0  0  0  0  0  0  # atno 8010 bound_to 7997
  139.6324  144.7116  151.2405 H   0  0  0  0  0  0  0  0  0  0  0  0  # atno 10167 bound_to 10162
  157.2915  130.7305  149.6613 H   0  0  0  0  0  0  0  0  0  0  0  0  # atno 10718 bound_to 10713
  154.8642  135.4206  154.2445 H   0  0  0  0  0  0  0  0  0  0  0  0  # atno 10763 bound_to 10752
  153.3403  135.6993  153.6878 H   0  0  0  0  0  0  0  0  0  0  0  0  # atno 10764 bound_to 10752
  153.5859  135.3564  155.2865 H   0  0  0  0  0  0  0  0  0  0  0  0  # atno 10765 bound_to 10752
  139.8880  134.8536  156.3107 H   0  0  0  0  0  0  0  0  0  0  0  0  # atno 11005 bound_to 11000
  145.2546  139.2017  143.4924 LP  0  0  0  0  0  0  0  0  0  0  0  0  # atno 17320 bound_to 7965
  146.3384  140.2465  142.8597 LP  0  0  0  0  0  0  0  0  0  0  0  0  # atno 17321 bound_to 7965
  140.7446  143.6457  150.8294 LP  0  0  0  0  0  0  0  0  0  0  0  0  # atno 17342 bound_to 10162
  140.0084  143.5669  152.2849 LP  0  0  0  0  0  0  0  0  0  0  0  0  # atno 17343 bound_to 10162
  155.9667  130.4307  150.4889 LP  0  0  0  0  0  0  0  0  0  0  0  0  # atno 17370 bound_to 10713
  157.2853  131.0615  151.2170 LP  0  0  0  0  0  0  0  0  0  0  0  0  # atno 17371 bound_to 10713
  140.9852  133.7242  156.0731 LP  0  0  0  0  0  0  0  0  0  0  0  0  # atno 17394 bound_to 11000
  140.7697  134.3846  157.5510 LP  0  0  0  0  0  0  0  0  0  0  0  0  # atno 17395 bound_to 11000

$$$$
