AV-unprocessed.smi:1406|AV-procd|sdf|5722|dock8
  -GOLD-   22720 5353D 1   1.00000     0.00000
 Structure written by MMmdl.
 41 43  0  0  0  0  0  0  0  0  2 V2000
  151.4225  138.3686  154.7251 C   0  0  0  0  0  0  0  0  0  0  0  0
  151.9253  139.0402  156.0190 C   0  0  1  0  0  0  0  0  0  0  0  0
  151.3777  140.4638  156.2097 C   0  0  0  0  0  0  0  0  0  0  0  0
  150.7545  141.0294  155.3107 O   0  0  0  0  0  0  0  0  0  0  0  0
  151.5937  141.0245  157.4103 N   0  0  0  0  0  0  0  0  0  0  0  0
  151.0484  142.3087  157.8380 C   0  0  2  0  0  0  0  0  0  0  0  0
  151.6340  143.4962  157.0849 C   0  0  0  0  0  0  0  0  0  0  0  0
  151.3060  144.6798  158.0010 C   0  0  0  0  0  0  0  0  0  0  0  0
  151.2136  144.1426  159.3810 N   0  3  2  0  0  0  0  0  0  0  0  0
  152.1213  144.8109  160.3518 C   0  0  0  0  0  0  0  0  0  0  0  0
  152.2693  143.9750  161.6318 C   0  0  0  0  0  0  0  0  0  0  0  0
  152.8941  142.5981  161.3380 C   0  0  0  0  0  0  0  0  0  0  0  0
  152.6822  142.1540  159.8784 C   0  0  0  0  0  0  0  0  0  0  0  0
  151.3304  142.6580  159.3127 C   0  0  2  0  0  0  0  0  0  0  0  0
  151.6363  138.2350  157.2002 N   0  0  0  0  0  0  0  0  0  0  0  0
  151.0063  137.0634  157.3069 C   0  0  0  0  0  0  0  0  0  0  0  0
  150.9747  136.5788  158.5402 N   0  0  0  0  0  0  0  0  0  0  0  0
  151.6530  137.5691  159.1921 C   0  0  0  0  0  0  0  0  0  0  0  0
  152.0820  138.5783  158.4347 N   0  0  0  0  0  0  0  0  0  0  0  0
  151.6969  138.9531  153.8461 H   0  0  0  0  0  0  0  0  0  0  0  0
  150.3379  138.2509  154.7188 H   0  0  0  0  0  0  0  0  0  0  0  0
  151.8615  137.3775  154.6068 H   0  0  0  0  0  0  0  0  0  0  0  0
  153.0108  139.1213  155.9420 H   0  0  0  0  0  0  0  0  0  0  0  0
  152.1219  140.4994  158.0922 H   0  0  0  0  0  0  0  0  0  0  0  0
  149.9686  142.3106  157.6739 H   0  0  0  0  0  0  0  0  0  0  0  0
  152.7160  143.3900  156.9918 H   0  0  0  0  0  0  0  0  0  0  0  0
  151.2193  143.6113  156.0829 H   0  0  0  0  0  0  0  0  0  0  0  0
  152.0385  145.4816  157.8987 H   0  0  0  0  0  0  0  0  0  0  0  0
  150.3325  145.0956  157.7389 H   0  0  0  0  0  0  0  0  0  0  0  0
  153.1065  144.9594  159.9059 H   0  0  0  0  0  0  0  0  0  0  0  0
  151.7268  145.8009  160.5827 H   0  0  0  0  0  0  0  0  0  0  0  0
  152.8710  144.5068  162.3695 H   0  0  0  0  0  0  0  0  0  0  0  0
  151.2850  143.8403  162.0827 H   0  0  0  0  0  0  0  0  0  0  0  0
  153.9639  142.6180  161.5492 H   0  0  0  0  0  0  0  0  0  0  0  0
  152.4652  141.8614  162.0183 H   0  0  0  0  0  0  0  0  0  0  0  0
  153.4968  142.5370  159.2621 H   0  0  0  0  0  0  0  0  0  0  0  0
  152.7524  141.0675  159.8298 H   0  0  0  0  0  0  0  0  0  0  0  0
  150.5390  142.2310  159.9306 H   0  0  0  0  0  0  0  0  0  0  0  0
  150.5706  136.5489  156.4630 H   0  0  0  0  0  0  0  0  0  0  0  0
  151.8446  137.5409  160.2547 H   0  0  0  0  0  0  0  0  0  0  0  0
  150.2710  144.3281  159.6937 H   0  0  0  0  0  0  0  0  0  0  0  0
  1  2  1  0  0  0  0
  1 20  1  0  0  0  0
  1 21  1  0  0  0  0
  1 22  1  0  0  0  0
  2  3  1  0  0  0  0
  2 15  1  0  0  0  0
  2 23  1  0  0  0  0
  3  4  2  0  0  0  0
  3  5  1  0  0  0  0
  5  6  1  0  0  0  0
  5 24  1  0  0  0  0
  6 14  1  0  0  0  0
  6  7  1  0  0  0  0
  6 25  1  0  0  0  0
  7  8  1  0  0  0  0
  7 26  1  0  0  0  0
  7 27  1  0  0  0  0
  8  9  1  0  0  0  0
  8 28  1  0  0  0  0
  8 29  1  0  0  0  0
  9 14  1  0  0  0  0
  9 10  1  0  0  0  0
  9 41  1  0  0  0  0
 10 11  1  0  0  0  0
 10 30  1  0  0  0  0
 10 31  1  0  0  0  0
 11 12  1  0  0  0  0
 11 32  1  0  0  0  0
 11 33  1  0  0  0  0
 12 13  1  0  0  0  0
 12 34  1  0  0  0  0
 12 35  1  0  0  0  0
 13 14  1  0  0  0  0
 13 36  1  0  0  0  0
 13 37  1  0  0  0  0
 14 38  1  0  0  0  0
 15 19  1  0  0  0  0
 15 16  1  0  0  0  0
 16 17  2  0  0  0  0
 16 39  1  0  0  0  0
 17 18  1  0  0  0  0
 18 19  2  0  0  0  0
 18 40  1  0  0  0  0
M  CHG  1   9   1
M  END
> <s_m_source_file>
AV-unprocessed.smi

> <i_m_source_file_index>
1406

> <i_lp_mmshare_version>
43012

> <i_f3d_flags>
0

> <s_epik_input>
bjFbY0hdbltjSF1uMVtDQEhdKFtDSDNdKUMoPU8pW05IXVtDQEhdKFtDSDJdW0NIMl0yKVtDQEBIXShOMjMpW0NIMl1bQ0gyXVtDSDJdW0NIMl0z

> <s_epik_cmdline>
J2VwaWtfcHl0aG9uJywgJy1waCcsICc3LjAnLCAnLXRuJywgJzgnLCAnLW1hJywgJzIwMCcsICctbWV0YWxfYmluZGluZycsICctaW1hZScsICc8aW5maWxlLm1hZT4nLCAnLW9tYWUnLCAnPG91dGZpbGUubWFlPic=

> <r_lp_tautomer_probability>
1

> <r_epik_Ionization_Penalty>
0.00197066

> <r_epik_Ionization_Penalty_Charging>
0.00196223

> <r_epik_Ionization_Penalty_Neutral>
8.43107e-06

> <r_epik_State_Penalty>
0.00133866

> <r_epik_Charging_Adjusted_Penalty>
0.00330089

> <i_epik_Tot_Q>
1

> <i_epik_Tot_abs_Q>
1

> <r_epik_Metal_State_Penalty>
-0

> <b_epik_Metal_Only>
0

> <s_lp_Force_Field>
OPLS_2005

> <r_lp_Energy>
45.0436

> <b_lp_Chiralities_Consistent>
1

> <s_lp_Variant>
AV-unprocessed.smi:1406-14

> <Gold.Version>
5.8.1

> <Gold.Id.Protein>
6NUR|6NUR_protein|mol2

> <Gold.PLP.Fitness>
41.8505

> <Gold.PLP.PLP>
-37.8290

> <Gold.PLP.part.hbond>
-2.0000

> <Gold.PLP.part.metal>
0.0000

> <Gold.PLP.part.buried>
-5.5677

> <Gold.PLP.part.nonpolar>
-30.6319

> <Gold.PLP.part.repulsive>
0.2448

> <Gold.PLP.ligand.clash>
0.0000

> <Gold.PLP.ligand.torsion>
0.3685

> <Gold.PLP.Chemscore.Hbond>
1.5520

> <Gold.PLP.Chemscore.CHOScore>
0.0000

> <Gold.PLP.Chemscore.Metal>
0.0000

> <Gold.Chemscore.Hbonds>
donor molecule, donor type, donor heavy atom, donor atom, acceptor molecule, acceptor atom, score
      P1  H  6896  6907       L1    17  0.85
      P1  H  7989  7998       L1     4  0.70

> <Gold.PLP.Chemscore.Internal.Correction>
0.1025

> <Gold.Rescore>
     Score         DG    S(hbond)    S(metal)    S(lipo)     H(rot)  DE(clash)    DE(int)     intcor
     15.07     -17.42       1.52        0.00      99.90       1.89       0.31       2.05       ----

> <Gold.Chemscore.Fitness>
15.0674

> <Gold.Chemscore.DG>
-17.4244

> <Gold.Chemscore.ZeroCoef>
-5.4800

> <Gold.Chemscore.Hbond>
1.5228

> <Gold.Chemscore.Metal>
0.0000

> <Gold.Chemscore.Lipo>
99.8973

> <Gold.Chemscore.Internal_Hbond>
0.0000

> <Gold.Chemscore.DEClash>
0.3114

> <Gold.Chemscore.DEInternal>
2.0456

> <Gold.Chemscore.Rot>
1.8865

> <Gold.Chemscore.Internal.Correction>
   9.000000E+99

> <Gold.Chemscore.Hbonds>
donor molecule, donor type, donor heavy atom, donor atom, acceptor molecule, acceptor atom, score
      P1  H  6896  6907       L1    17  0.21
      P1  H  7989  7998       L1     4  0.59

> <Gold.Chemscore.Hbond.Weighted>
-5.0860

> <Gold.Chemscore.Metal.Weighted>
-0.0000

> <Gold.Chemscore.Lipo.Weighted>
-11.6880

> <Gold.Chemscore.Internal_Hbond.Weighted>
0.0000

> <Gold.Chemscore.DEClash.Weighted>
0.3114

> <Gold.Chemscore.DEInternal.Weighted>
2.0456

> <Gold.Chemscore.Rot.Weighted>
4.8295

> <Gold.Chemscore.Internal.Correction.Weighted>
   9.000000E+99

> <Gold.Protein.RotatedTorsions>
[ 6907 6896 6895 6894 ] final  -24.73 input  -60.11 | X-H torsion
[ 7974 7965 7964 7962 ] final   83.35 input  175.53 | X-H torsion
[ 8008 7997 7996 7995 ] final  157.63 input   59.86 | X-H torsion
[ 10167 10162 10161 10158 ] final  125.22 input  -65.29 | X-H torsion
[ 10718 10713 10712 10709 ] final   56.12 input   66.30 | X-H torsion
[ 10763 10752 10751 10750 ] final   23.79 input  -60.55 | X-H torsion
[ 11005 11000 10999 10996 ] final -163.99 input  -57.11 | X-H torsion

> <Gold.Protein.ActiveResidues>
 VAL166  LYS551  ARG553  GLY616  TRP617  ASP618  TYR619  PRO620  LYS621  CYS622 
 ASP623  PHE694  ASN695  SER759  ASP760  ASP761  ALA762  ILE779  LEU786  VAL792 
 PHE793  MET794  SER795  GLU796  ALA797  LYS798  CYS799  TRP800  GLU811  SER814 

> <Gold.Protein.RotatedAtoms>
  151.1854  135.0379  159.8809 H   0  0  0  0  0  0  0  0  0  0  0  0  # atno 6907 bound_to 6896
  152.5442  134.1016  159.8330 H   0  0  0  0  0  0  0  0  0  0  0  0  # atno 6908 bound_to 6896
  151.1138  133.5106  159.2637 H   0  0  0  0  0  0  0  0  0  0  0  0  # atno 6909 bound_to 6896
  145.6130  139.2372  143.2181 H   0  0  0  0  0  0  0  0  0  0  0  0  # atno 7974 bound_to 7965
  156.2352  140.1880  156.7137 H   0  0  0  0  0  0  0  0  0  0  0  0  # atno 8008 bound_to 7997
  154.6094  140.0624  156.9501 H   0  0  0  0  0  0  0  0  0  0  0  0  # atno 8009 bound_to 7997
  155.2041  140.3294  155.4341 H   0  0  0  0  0  0  0  0  0  0  0  0  # atno 8010 bound_to 7997
  139.5698  144.6932  151.3811 H   0  0  0  0  0  0  0  0  0  0  0  0  # atno 10167 bound_to 10162
  157.5404  130.8693  149.8813 H   0  0  0  0  0  0  0  0  0  0  0  0  # atno 10718 bound_to 10713
  153.0812  135.6619  154.0042 H   0  0  0  0  0  0  0  0  0  0  0  0  # atno 10763 bound_to 10752
  153.9663  135.2969  155.3431 H   0  0  0  0  0  0  0  0  0  0  0  0  # atno 10764 bound_to 10752
  154.7211  135.5164  153.8885 H   0  0  0  0  0  0  0  0  0  0  0  0  # atno 10765 bound_to 10752
  140.5919  134.5036  157.5194 H   0  0  0  0  0  0  0  0  0  0  0  0  # atno 11005 bound_to 11000
  146.1490  140.6952  142.9331 LP  0  0  0  0  0  0  0  0  0  0  0  0  # atno 17320 bound_to 7965
  144.7262  140.4531  143.6971 LP  0  0  0  0  0  0  0  0  0  0  0  0  # atno 17321 bound_to 7965
  140.6982  143.7697  150.7360 LP  0  0  0  0  0  0  0  0  0  0  0  0  # atno 17342 bound_to 10162
  140.1200  143.4621  152.2319 LP  0  0  0  0  0  0  0  0  0  0  0  0  # atno 17343 bound_to 10162
  156.0492  130.3721  150.1243 LP  0  0  0  0  0  0  0  0  0  0  0  0  # atno 17370 bound_to 10713
  156.9423  130.9748  151.3514 LP  0  0  0  0  0  0  0  0  0  0  0  0  # atno 17371 bound_to 10713
  139.9270  134.8036  156.1039 LP  0  0  0  0  0  0  0  0  0  0  0  0  # atno 17394 bound_to 11000
  141.0929  133.6707  156.2581 LP  0  0  0  0  0  0  0  0  0  0  0  0  # atno 17395 bound_to 11000

$$$$
