AV-unprocessed.smi:1918|AV-procd|sdf|7771|dock3
  -GOLD-   22720 9513D 1   1.00000     0.00000
 Structure written by MMmdl.
 36 38  0  0  0  0  0  0  0  0  2 V2000
  151.7856  137.5824  154.8257 C   0  0  0  0  0  0  0  0  0  0  0  0
  150.6975  138.5730  154.5800 C   0  0  0  0  0  0  0  0  0  0  0  0
  149.5520  138.3439  153.8782 N   0  3  0  0  0  0  0  0  0  0  0  0
  148.7689  139.4988  153.8609 C   0  0  0  0  0  0  0  0  0  0  0  0
  147.5304  139.7519  153.2797 C   0  0  0  0  0  0  0  0  0  0  0  0
  147.0049  141.0496  153.4506 C   0  0  0  0  0  0  0  0  0  0  0  0
  147.7050  142.0361  154.1752 C   0  0  0  0  0  0  0  0  0  0  0  0
  148.9599  141.7675  154.7605 C   0  0  0  0  0  0  0  0  0  0  0  0
  149.4717  140.4818  154.5870 C   0  0  0  0  0  0  0  0  0  0  0  0
  150.6517  139.8650  155.0165 N   0  0  0  0  0  0  0  0  0  0  0  0
  151.6096  140.6344  155.8252 C   0  0  0  0  0  0  0  0  0  0  0  0
  151.3784  140.4729  157.3417 C   0  0  2  0  0  0  0  0  0  0  0  0
  150.0993  139.9018  157.5282 O   0  0  0  0  0  0  0  0  0  0  0  0
  151.5456  141.7883  158.0943 C   0  0  0  0  0  0  0  0  0  0  0  0
  150.7758  142.9183  157.7374 C   0  0  0  0  0  0  0  0  0  0  0  0
  150.9453  144.1394  158.4179 C   0  0  0  0  0  0  0  0  0  0  0  0
  151.8875  144.2407  159.4584 C   0  0  0  0  0  0  0  0  0  0  0  0
  152.0525  145.4153  160.1113 F   0  0  0  0  0  0  0  0  0  0  0  0
  152.6606  143.1206  159.8174 C   0  0  0  0  0  0  0  0  0  0  0  0
  152.4926  141.8981  159.1387 C   0  0  0  0  0  0  0  0  0  0  0  0
  153.2555  140.8344  159.4887 F   0  0  0  0  0  0  0  0  0  0  0  0
  151.5870  136.6547  154.2887 H   0  0  0  0  0  0  0  0  0  0  0  0
  151.8575  137.3566  155.8893 H   0  0  0  0  0  0  0  0  0  0  0  0
  152.7424  137.9801  154.4869 H   0  0  0  0  0  0  0  0  0  0  0  0
  146.9922  138.9978  152.7242 H   0  0  0  0  0  0  0  0  0  0  0  0
  146.0459  141.2937  153.0169 H   0  0  0  0  0  0  0  0  0  0  0  0
  147.2703  143.0192  154.2846 H   0  0  0  0  0  0  0  0  0  0  0  0
  149.4879  142.5293  155.3150 H   0  0  0  0  0  0  0  0  0  0  0  0
  152.6162  140.3134  155.5549 H   0  0  0  0  0  0  0  0  0  0  0  0
  151.5323  141.6816  155.5294 H   0  0  0  0  0  0  0  0  0  0  0  0
  152.0876  139.7473  157.7402 H   0  0  0  0  0  0  0  0  0  0  0  0
  150.0651  139.5162  158.3906 H   0  0  0  0  0  0  0  0  0  0  0  0
  150.0562  142.8562  156.9342 H   0  0  0  0  0  0  0  0  0  0  0  0
  150.3544  144.9995  158.1392 H   0  0  0  0  0  0  0  0  0  0  0  0
  153.3865  143.2002  160.6132 H   0  0  0  0  0  0  0  0  0  0  0  0
  149.3242  137.4589  153.4435 H   0  0  0  0  0  0  0  0  0  0  0  0
  1  2  1  0  0  0  0
  1 22  1  0  0  0  0
  1 23  1  0  0  0  0
  1 24  1  0  0  0  0
  2 10  1  0  0  0  0
  2  3  2  0  0  0  0
  3  4  1  0  0  0  0
  3 36  1  0  0  0  0
  4  9  2  0  0  0  0
  4  5  1  0  0  0  0
  5  6  2  0  0  0  0
  5 25  1  0  0  0  0
  6  7  1  0  0  0  0
  6 26  1  0  0  0  0
  7  8  2  0  0  0  0
  7 27  1  0  0  0  0
  8  9  1  0  0  0  0
  8 28  1  0  0  0  0
  9 10  1  0  0  0  0
 10 11  1  0  0  0  0
 11 12  1  0  0  0  0
 11 29  1  0  0  0  0
 11 30  1  0  0  0  0
 12 13  1  0  0  0  0
 12 14  1  0  0  0  0
 12 31  1  0  0  0  0
 13 32  1  0  0  0  0
 14 20  1  0  0  0  0
 14 15  2  0  0  0  0
 15 16  1  0  0  0  0
 15 33  1  0  0  0  0
 16 17  2  0  0  0  0
 16 34  1  0  0  0  0
 17 18  1  0  0  0  0
 17 19  1  0  0  0  0
 19 20  2  0  0  0  0
 19 35  1  0  0  0  0
 20 21  1  0  0  0  0
M  CHG  1   3   1
M  END
> <s_m_source_file>
AV-unprocessed.smi

> <i_m_source_file_index>
1918

> <i_lp_mmshare_version>
43012

> <i_f3d_flags>
0

> <s_epik_input>
W2NIXTFbY0hdW2NIXVtjSF1jKGMxMiluKGMobjIpW0NIM10pW0NIMl1bQ0BIXShbT0hdKWMzW2NIXVtjSF1jKEYpW2NIXWMzRg==

> <s_epik_cmdline>
J2VwaWtfcHl0aG9uJywgJy1waCcsICc3LjAnLCAnLXRuJywgJzgnLCAnLW1hJywgJzIwMCcsICctbWV0YWxfYmluZGluZycsICctaW1hZScsICc8aW5maWxlLm1hZT4nLCAnLW9tYWUnLCAnPG91dGZpbGUubWFlPic=

> <r_epik_Ionization_Penalty>
0.963869

> <r_epik_Ionization_Penalty_Charging>
0.963868

> <r_epik_Ionization_Penalty_Neutral>
1.79538e-06

> <r_epik_State_Penalty>
1.00924

> <r_epik_Charging_Adjusted_Penalty>
1.9731

> <i_epik_Tot_Q>
1

> <i_epik_Tot_abs_Q>
1

> <r_epik_Metal_State_Penalty>
4.98304

> <b_epik_Metal_Only>
0

> <s_lp_Force_Field>
OPLS_2005

> <r_lp_Energy>
15.6488

> <b_lp_Chiralities_Consistent>
1

> <s_lp_Variant>
AV-unprocessed.smi:1918-3

> <Gold.Version>
5.8.1

> <Gold.Id.Protein>
6NUR|6NUR_protein|mol2

> <Gold.PLP.Fitness>
54.5251

> <Gold.PLP.PLP>
-50.5741

> <Gold.PLP.part.hbond>
-1.1234

> <Gold.PLP.part.metal>
0.0000

> <Gold.PLP.part.buried>
-0.5025

> <Gold.PLP.part.nonpolar>
-49.3278

> <Gold.PLP.part.repulsive>
0.0374

> <Gold.PLP.ligand.clash>
0.0000

> <Gold.PLP.ligand.torsion>
1.0089

> <Gold.PLP.Chemscore.Hbond>
1.9840

> <Gold.PLP.Chemscore.CHOScore>
0.0000

> <Gold.PLP.Chemscore.Metal>
0.0000

> <Gold.Chemscore.Hbonds>
donor molecule, donor type, donor heavy atom, donor atom, acceptor molecule, acceptor atom, score
      L1  H     3    36       P1  7948  2.00

> <Gold.PLP.Chemscore.Internal.Correction>
0.0167

> <Gold.Rescore>
     Score         DG    S(hbond)    S(metal)    S(lipo)     H(rot)  DE(clash)    DE(int)     intcor
     16.21     -17.33       0.82        0.00     120.18       1.94       0.18       0.94       ----

> <Gold.Chemscore.Fitness>
16.2081

> <Gold.Chemscore.DG>
-17.3326

> <Gold.Chemscore.ZeroCoef>
-5.4800

> <Gold.Chemscore.Hbond>
0.8237

> <Gold.Chemscore.Metal>
0.0000

> <Gold.Chemscore.Lipo>
120.1817

> <Gold.Chemscore.Internal_Hbond>
0.0000

> <Gold.Chemscore.DEClash>
0.1797

> <Gold.Chemscore.DEInternal>
0.9448

> <Gold.Chemscore.Rot>
1.9375

> <Gold.Chemscore.Internal.Correction>
   9.000000E+99

> <Gold.Chemscore.Hbonds>
donor molecule, donor type, donor heavy atom, donor atom, acceptor molecule, acceptor atom, score
      L1  H     3    36       P1  7948  0.91

> <Gold.Chemscore.Hbond.Weighted>
-2.7512

> <Gold.Chemscore.Metal.Weighted>
-0.0000

> <Gold.Chemscore.Lipo.Weighted>
-14.0613

> <Gold.Chemscore.Internal_Hbond.Weighted>
0.0000

> <Gold.Chemscore.DEClash.Weighted>
0.1797

> <Gold.Chemscore.DEInternal.Weighted>
0.9448

> <Gold.Chemscore.Rot.Weighted>
4.9599

> <Gold.Chemscore.Internal.Correction.Weighted>
   9.000000E+99

> <Gold.Protein.RotatedTorsions>
[ 6907 6896 6895 6894 ] final  125.23 input  -60.11 | X-H torsion
[ 7974 7965 7964 7962 ] final   43.84 input  175.53 | X-H torsion
[ 8008 7997 7996 7995 ] final   87.47 input   59.86 | X-H torsion
[ 10167 10162 10161 10158 ] final -153.44 input  -65.29 | X-H torsion
[ 10718 10713 10712 10709 ] final -167.91 input   66.30 | X-H torsion
[ 10763 10752 10751 10750 ] final  133.15 input  -60.55 | X-H torsion
[ 11005 11000 10999 10996 ] final  -71.00 input  -57.11 | X-H torsion

> <Gold.Protein.ActiveResidues>
 VAL166  LYS551  ARG553  GLY616  TRP617  ASP618  TYR619  PRO620  LYS621  CYS622 
 ASP623  PHE694  ASN695  SER759  ASP760  ASP761  ALA762  ILE779  LEU786  VAL792 
 PHE793  MET794  SER795  GLU796  ALA797  LYS798  CYS799  TRP800  GLU811  SER814 

> <Gold.Protein.RotatedAtoms>
  152.4010  133.6817  159.6315 H   0  0  0  0  0  0  0  0  0  0  0  0  # atno 6907 bound_to 6896
  150.7901  133.8792  159.3289 H   0  0  0  0  0  0  0  0  0  0  0  0  # atno 6908 bound_to 6896
  151.6557  135.0997  160.0221 H   0  0  0  0  0  0  0  0  0  0  0  0  # atno 6909 bound_to 6896
  146.0620  139.5141  142.9652 H   0  0  0  0  0  0  0  0  0  0  0  0  # atno 7974 bound_to 7965
  155.9758  140.3381  155.6617 H   0  0  0  0  0  0  0  0  0  0  0  0  # atno 8008 bound_to 7997
  155.6614  140.0716  157.2571 H   0  0  0  0  0  0  0  0  0  0  0  0  # atno 8009 bound_to 7997
  154.4178  140.1708  156.1768 H   0  0  0  0  0  0  0  0  0  0  0  0  # atno 8010 bound_to 7997
  139.7096  143.9130  152.2463 H   0  0  0  0  0  0  0  0  0  0  0  0  # atno 10167 bound_to 10162
  156.6892  130.9152  151.3067 H   0  0  0  0  0  0  0  0  0  0  0  0  # atno 10718 bound_to 10713
  153.8024  135.3140  155.3391 H   0  0  0  0  0  0  0  0  0  0  0  0  # atno 10763 bound_to 10752
  154.8084  135.4683  154.0454 H   0  0  0  0  0  0  0  0  0  0  0  0  # atno 10764 bound_to 10752
  153.1806  135.6893  153.8570 H   0  0  0  0  0  0  0  0  0  0  0  0  # atno 10765 bound_to 10752
  141.1584  133.6805  156.6839 H   0  0  0  0  0  0  0  0  0  0  0  0  # atno 11005 bound_to 11000
  145.6543  141.0256  143.1743 LP  0  0  0  0  0  0  0  0  0  0  0  0  # atno 17320 bound_to 7965
  144.7180  139.8127  143.7392 LP  0  0  0  0  0  0  0  0  0  0  0  0  # atno 17321 bound_to 7965
  139.8995  144.6920  150.8681 LP  0  0  0  0  0  0  0  0  0  0  0  0  # atno 17342 bound_to 10162
  140.7730  143.3524  151.1987 LP  0  0  0  0  0  0  0  0  0  0  0  0  # atno 17343 bound_to 10162
  157.7015  130.9338  150.0800 LP  0  0  0  0  0  0  0  0  0  0  0  0  # atno 17370 bound_to 10713
  156.1810  130.3650  149.9035 LP  0  0  0  0  0  0  0  0  0  0  0  0  # atno 17371 bound_to 10713
  140.3081  134.8108  157.4154 LP  0  0  0  0  0  0  0  0  0  0  0  0  # atno 17394 bound_to 11000
  140.1202  134.5229  155.8190 LP  0  0  0  0  0  0  0  0  0  0  0  0  # atno 17395 bound_to 11000

$$$$
