AV-unprocessed.smi:789|AV-procd|sdf|3739|dock6
  -GOLD-   22720 1173D 1   1.00000     0.00000
 Structure written by MMmdl.
 34 35  0  0  0  0  0  0  0  0  1 V2000
  148.9202  137.7054  154.0094 C   0  0  0  0  0  0  0  0  0  0  0  0
  148.9391  139.1583  154.3821 C   0  0  0  0  0  0  0  0  0  0  0  0
  149.8843  139.8423  155.2004 C   0  0  0  0  0  0  0  0  0  0  0  0
  149.4120  141.1261  155.1969 C   0  0  0  0  0  0  0  0  0  0  0  0
  149.9201  142.2233  155.8171 N   0  0  0  0  0  0  0  0  0  0  0  0
  150.9614  142.3133  156.6678 C   0  0  0  0  0  0  0  0  0  0  0  0
  151.6645  141.3690  157.0219 O   0  0  0  0  0  0  0  0  0  0  0  0
  151.1824  143.5573  157.1309 N   0  0  0  0  0  0  0  0  0  0  0  0
  152.2218  144.0045  158.0624 C   0  0  0  0  0  0  0  0  0  0  0  0
  152.4813  142.9359  159.1418 C   0  0  0  0  0  0  0  0  0  0  0  0
  152.4905  143.6769  160.4796 C   0  0  0  0  0  0  0  0  0  0  0  0
  151.5440  144.8529  160.2644 C   0  0  0  0  0  0  0  0  0  0  0  0
  151.8026  145.2821  158.8201 C   0  0  0  0  0  0  0  0  0  0  0  0
  148.2707  141.1792  154.4259 N   0  0  0  0  0  0  0  0  0  0  0  0
  147.4055  142.2999  154.1108 C   0  0  0  0  0  0  0  0  0  0  0  0
  147.9835  139.9590  153.9239 N   0  0  0  0  0  0  0  0  0  0  0  0
  149.7229  137.1607  154.5068 H   0  0  0  0  0  0  0  0  0  0  0  0
  149.0466  137.5744  152.9346 H   0  0  0  0  0  0  0  0  0  0  0  0
  147.9772  137.2386  154.2950 H   0  0  0  0  0  0  0  0  0  0  0  0
  150.7542  139.4391  155.6961 H   0  0  0  0  0  0  0  0  0  0  0  0
  149.4345  143.0873  155.6260 H   0  0  0  0  0  0  0  0  0  0  0  0
  150.5443  144.2726  156.8132 H   0  0  0  0  0  0  0  0  0  0  0  0
  153.1505  144.1896  157.5191 H   0  0  0  0  0  0  0  0  0  0  0  0
  151.6781  142.1971  159.1534 H   0  0  0  0  0  0  0  0  0  0  0  0
  153.4122  142.3946  158.9699 H   0  0  0  0  0  0  0  0  0  0  0  0
  152.1902  143.0419  161.3135 H   0  0  0  0  0  0  0  0  0  0  0  0
  153.4948  144.0481  160.6879 H   0  0  0  0  0  0  0  0  0  0  0  0
  150.5115  144.5167  160.3689 H   0  0  0  0  0  0  0  0  0  0  0  0
  151.7064  145.6606  160.9786 H   0  0  0  0  0  0  0  0  0  0  0  0
  152.6265  145.9967  158.7991 H   0  0  0  0  0  0  0  0  0  0  0  0
  150.9364  145.7832  158.3861 H   0  0  0  0  0  0  0  0  0  0  0  0
  147.7062  143.1882  154.6663 H   0  0  0  0  0  0  0  0  0  0  0  0
  146.3758  142.0552  154.3732 H   0  0  0  0  0  0  0  0  0  0  0  0
  147.4598  142.5155  153.0435 H   0  0  0  0  0  0  0  0  0  0  0  0
  1  2  1  0  0  0  0
  1 17  1  0  0  0  0
  1 18  1  0  0  0  0
  1 19  1  0  0  0  0
  2 16  2  0  0  0  0
  2  3  1  0  0  0  0
  3  4  2  0  0  0  0
  3 20  1  0  0  0  0
  4  5  1  0  0  0  0
  4 14  1  0  0  0  0
  5  6  1  0  0  0  0
  5 21  1  0  0  0  0
  6  7  2  0  0  0  0
  6  8  1  0  0  0  0
  8  9  1  0  0  0  0
  8 22  1  0  0  0  0
  9 13  1  0  0  0  0
  9 10  1  0  0  0  0
  9 23  1  0  0  0  0
 10 11  1  0  0  0  0
 10 24  1  0  0  0  0
 10 25  1  0  0  0  0
 11 12  1  0  0  0  0
 11 26  1  0  0  0  0
 11 27  1  0  0  0  0
 12 13  1  0  0  0  0
 12 28  1  0  0  0  0
 12 29  1  0  0  0  0
 13 30  1  0  0  0  0
 13 31  1  0  0  0  0
 14 15  1  0  0  0  0
 14 16  1  0  0  0  0
 15 32  1  0  0  0  0
 15 33  1  0  0  0  0
 15 34  1  0  0  0  0
M  END
> <s_m_source_file>
AV-unprocessed.smi

> <i_m_source_file_index>
789

> <i_lp_mmshare_version>
43012

> <i_f3d_flags>
0

> <s_epik_input>
W0NIM11jMVtjSF1jKG4objEpW0NIM10pW05IXUMoPU8pW05IXVtDSF0yW0NIMl1bQ0gyXVtDSDJdW0NIMl0y

> <s_epik_cmdline>
J2VwaWtfcHl0aG9uJywgJy1waCcsICc3LjAnLCAnLXRuJywgJzgnLCAnLW1hJywgJzIwMCcsICctbWV0YWxfYmluZGluZycsICctaW1hZScsICc8aW5maWxlLm1hZT4nLCAnLW9tYWUnLCAnPG91dGZpbGUubWFlPic=

> <r_lp_tautomer_probability>
1

> <r_epik_Ionization_Penalty>
0.000101808

> <r_epik_Ionization_Penalty_Charging>
0

> <r_epik_Ionization_Penalty_Neutral>
0.000101808

> <r_epik_State_Penalty>
-0

> <r_epik_Charging_Adjusted_Penalty>
0

> <i_epik_Tot_Q>
0

> <i_epik_Tot_abs_Q>
0

> <r_epik_Metal_State_Penalty>
-0

> <b_epik_Metal_Only>
0

> <s_lp_Force_Field>
OPLS_2005

> <r_lp_Energy>
29.7198

> <b_lp_Chiralities_Consistent>
1

> <s_lp_Variant>
AV-unprocessed.smi:789-1

> <Gold.Version>
5.8.1

> <Gold.Id.Protein>
6NUR|6NUR_protein|mol2

> <Gold.PLP.Fitness>
40.5434

> <Gold.PLP.PLP>
-35.3802

> <Gold.PLP.part.hbond>
-2.0000

> <Gold.PLP.part.metal>
0.0000

> <Gold.PLP.part.buried>
-0.1161

> <Gold.PLP.part.nonpolar>
-33.4063

> <Gold.PLP.part.repulsive>
0.3252

> <Gold.PLP.ligand.clash>
0.0000

> <Gold.PLP.ligand.torsion>
0.3469

> <Gold.PLP.Chemscore.Hbond>
1.9516

> <Gold.PLP.Chemscore.CHOScore>
0.0000

> <Gold.PLP.Chemscore.Metal>
0.0000

> <Gold.Chemscore.Hbonds>
donor molecule, donor type, donor heavy atom, donor atom, acceptor molecule, acceptor atom, score
      L1  H     5    21       P1  8028  1.00
      L1  H     8    22       P1  8028  0.94

> <Gold.PLP.Chemscore.Internal.Correction>
0.0022

> <Gold.Rescore>
     Score         DG    S(hbond)    S(metal)    S(lipo)     H(rot)  DE(clash)    DE(int)     intcor
     15.06     -19.48       1.94        0.00      86.02       1.00       1.51       2.91       ----

> <Gold.Chemscore.Fitness>
15.0604

> <Gold.Chemscore.DG>
-19.4755

> <Gold.Chemscore.ZeroCoef>
-5.4800

> <Gold.Chemscore.Hbond>
1.9436

> <Gold.Chemscore.Metal>
0.0000

> <Gold.Chemscore.Lipo>
86.0153

> <Gold.Chemscore.Internal_Hbond>
0.0000

> <Gold.Chemscore.DEClash>
1.5065

> <Gold.Chemscore.DEInternal>
2.9086

> <Gold.Chemscore.Rot>
1.0000

> <Gold.Chemscore.Internal.Correction>
   9.000000E+99

> <Gold.Chemscore.Hbonds>
donor molecule, donor type, donor heavy atom, donor atom, acceptor molecule, acceptor atom, score
      L1  H     5    21       P1  8028  1.00
      L1  H     8    22       P1  8028  0.83

> <Gold.Chemscore.Hbond.Weighted>
-6.4917

> <Gold.Chemscore.Metal.Weighted>
-0.0000

> <Gold.Chemscore.Lipo.Weighted>
-10.0638

> <Gold.Chemscore.Internal_Hbond.Weighted>
0.0000

> <Gold.Chemscore.DEClash.Weighted>
1.5065

> <Gold.Chemscore.DEInternal.Weighted>
2.9086

> <Gold.Chemscore.Rot.Weighted>
2.5600

> <Gold.Chemscore.Internal.Correction.Weighted>
   9.000000E+99

> <Gold.Protein.RotatedTorsions>
[ 6907 6896 6895 6894 ] final  -51.95 input  -60.11 | X-H torsion
[ 7974 7965 7964 7962 ] final -121.95 input  175.53 | X-H torsion
[ 8008 7997 7996 7995 ] final   81.13 input   59.86 | X-H torsion
[ 10167 10162 10161 10158 ] final  121.43 input  -65.29 | X-H torsion
[ 10718 10713 10712 10709 ] final  120.62 input   66.30 | X-H torsion
[ 10763 10752 10751 10750 ] final   50.75 input  -60.55 | X-H torsion
[ 11005 11000 10999 10996 ] final  161.33 input  -57.11 | X-H torsion

> <Gold.Protein.ActiveResidues>
 VAL166  LYS551  ARG553  GLY616  TRP617  ASP618  TYR619  PRO620  LYS621  CYS622 
 ASP623  PHE694  ASN695  SER759  ASP760  ASP761  ALA762  ILE779  LEU786  VAL792 
 PHE793  MET794  SER795  GLU796  ALA797  LYS798  CYS799  TRP800  GLU811  SER814 

> <Gold.Protein.RotatedAtoms>
  150.8564  134.7903  159.7048 H   0  0  0  0  0  0  0  0  0  0  0  0  # atno 6907 bound_to 6896
  152.4614  134.5172  159.9781 H   0  0  0  0  0  0  0  0  0  0  0  0  # atno 6908 bound_to 6896
  151.5284  133.3415  159.2949 H   0  0  0  0  0  0  0  0  0  0  0  0  # atno 6909 bound_to 6896
  145.0347  140.8096  143.4302 H   0  0  0  0  0  0  0  0  0  0  0  0  # atno 7974 bound_to 7965
  155.8930  140.3437  155.5970 H   0  0  0  0  0  0  0  0  0  0  0  0  # atno 8008 bound_to 7997
  155.7589  140.0830  157.2184 H   0  0  0  0  0  0  0  0  0  0  0  0  # atno 8009 bound_to 7997
  154.4035  140.1539  156.2796 H   0  0  0  0  0  0  0  0  0  0  0  0  # atno 8010 bound_to 7997
  139.5920  144.7028  151.3268 H   0  0  0  0  0  0  0  0  0  0  0  0  # atno 10167 bound_to 10162
  157.5877  131.1068  150.8061 H   0  0  0  0  0  0  0  0  0  0  0  0  # atno 10718 bound_to 10713
  152.9784  135.5868  154.4303 H   0  0  0  0  0  0  0  0  0  0  0  0  # atno 10763 bound_to 10752
  154.3917  135.2768  155.2152 H   0  0  0  0  0  0  0  0  0  0  0  0  # atno 10764 bound_to 10752
  154.4022  135.6101  153.5958 H   0  0  0  0  0  0  0  0  0  0  0  0  # atno 10765 bound_to 10752
  140.2147  134.8241  157.3158 H   0  0  0  0  0  0  0  0  0  0  0  0  # atno 11005 bound_to 11000
  145.1725  139.2396  143.5334 LP  0  0  0  0  0  0  0  0  0  0  0  0  # atno 17320 bound_to 7965
  146.3503  140.1479  142.8593 LP  0  0  0  0  0  0  0  0  0  0  0  0  # atno 17321 bound_to 7965
  140.7181  143.7212  150.7694 LP  0  0  0  0  0  0  0  0  0  0  0  0  # atno 17342 bound_to 10162
  140.0770  143.5006  152.2550 LP  0  0  0  0  0  0  0  0  0  0  0  0  # atno 17343 bound_to 10162
  156.8491  130.5074  149.5313 LP  0  0  0  0  0  0  0  0  0  0  0  0  # atno 17370 bound_to 10713
  156.0928  130.5909  150.9762 LP  0  0  0  0  0  0  0  0  0  0  0  0  # atno 17371 bound_to 10713
  140.1913  134.4368  155.7714 LP  0  0  0  0  0  0  0  0  0  0  0  0  # atno 17394 bound_to 11000
  141.2225  133.7028  156.8032 LP  0  0  0  0  0  0  0  0  0  0  0  0  # atno 17395 bound_to 11000

$$$$
