AV-unprocessed.smi:2858|AV-procd|sdf|11003|dock1
  -GOLD-   2272015463D 1   1.00000     0.00000
 Structure written by MMmdl.
 39 40  0  0  0  0  0  0  0  0  3 V2000
  153.4723  138.8556  155.0345 O   0  0  0  0  0  0  0  0  0  0  0  0
  152.4348  138.2065  155.1472 C   0  0  0  0  0  0  0  0  0  0  0  0
  151.1619  138.7978  154.4822 C   0  0  0  0  0  0  0  0  0  0  0  0
  149.9074  138.2193  155.0454 N   0  3  1  0  0  0  0  0  0  0  0  0
  148.6775  138.7144  154.3765 C   0  0  0  0  0  0  0  0  0  0  0  0
  148.2962  140.1404  154.8091 C   0  0  0  0  0  0  0  0  0  0  0  0
  149.2531  141.1991  154.2358 C   0  0  0  0  0  0  0  0  0  0  0  0
  149.6303  142.1878  155.2396 N   0  0  0  0  0  0  0  0  0  0  0  0
  150.3488  141.9284  156.3417 C   0  0  0  0  0  0  0  0  0  0  0  0
  150.7769  140.8082  156.6220 O   0  0  0  0  0  0  0  0  0  0  0  0
  150.5278  143.0381  157.0801 N   0  0  0  0  0  0  0  0  0  0  0  0
  151.2513  143.1773  158.2947 C   0  0  0  0  0  0  0  0  0  0  0  0
  152.2095  142.1677  158.5397 C   0  0  0  0  0  0  0  0  0  0  0  0
  152.9773  142.2131  159.7197 C   0  0  0  0  0  0  0  0  0  0  0  0
  152.7672  143.2683  160.6252 C   0  0  0  0  0  0  0  0  0  0  0  0
  151.7929  144.2319  160.3057 C   0  0  0  0  0  0  0  0  0  0  0  0
  151.0553  144.1899  159.1759 N   0  0  0  0  0  0  0  0  0  0  0  0
  149.9607  136.7354  155.1017 C   0  0  0  0  0  0  0  0  0  0  0  0
  151.0774  136.2721  156.0564 C   0  0  0  0  0  0  0  0  0  0  0  0
  152.3230  136.9912  155.7683 N   0  5  0  0  0  0  0  0  0  0  0  0
  151.1750  139.8781  154.6216 H   0  0  0  0  0  0  0  0  0  0  0  0
  151.2105  138.6066  153.4092 H   0  0  0  0  0  0  0  0  0  0  0  0
  148.7969  138.6589  153.2936 H   0  0  0  0  0  0  0  0  0  0  0  0
  147.8489  138.0521  154.6314 H   0  0  0  0  0  0  0  0  0  0  0  0
  147.2770  140.3516  154.4826 H   0  0  0  0  0  0  0  0  0  0  0  0
  148.2980  140.2197  155.8961 H   0  0  0  0  0  0  0  0  0  0  0  0
  150.1641  140.7205  153.8757 H   0  0  0  0  0  0  0  0  0  0  0  0
  148.8032  141.6975  153.3754 H   0  0  0  0  0  0  0  0  0  0  0  0
  149.3167  143.1353  155.0869 H   0  0  0  0  0  0  0  0  0  0  0  0
  150.0994  143.8832  156.7323 H   0  0  0  0  0  0  0  0  0  0  0  0
  152.3594  141.3646  157.8326 H   0  0  0  0  0  0  0  0  0  0  0  0
  153.7151  141.4517  159.9252 H   0  0  0  0  0  0  0  0  0  0  0  0
  153.3370  143.3379  161.5398 H   0  0  0  0  0  0  0  0  0  0  0  0
  151.5999  145.0576  160.9743 H   0  0  0  0  0  0  0  0  0  0  0  0
  149.0091  136.3310  155.4487 H   0  0  0  0  0  0  0  0  0  0  0  0
  150.1258  136.3394  154.0981 H   0  0  0  0  0  0  0  0  0  0  0  0
  150.7553  136.4539  157.0820 H   0  0  0  0  0  0  0  0  0  0  0  0
  151.2007  135.1928  155.9705 H   0  0  0  0  0  0  0  0  0  0  0  0
  149.8603  138.5211  156.0081 H   0  0  0  0  0  0  0  0  0  0  0  0
  1  2  2  0  0  0  0
  2 20  1  0  0  0  0
  2  3  1  0  0  0  0
  3  4  1  0  0  0  0
  3 21  1  0  0  0  0
  3 22  1  0  0  0  0
  4  5  1  0  0  0  0
  4 18  1  0  0  0  0
  4 39  1  0  0  0  0
  5  6  1  0  0  0  0
  5 23  1  0  0  0  0
  5 24  1  0  0  0  0
  6  7  1  0  0  0  0
  6 25  1  0  0  0  0
  6 26  1  0  0  0  0
  7  8  1  0  0  0  0
  7 27  1  0  0  0  0
  7 28  1  0  0  0  0
  8  9  1  0  0  0  0
  8 29  1  0  0  0  0
  9 10  2  0  0  0  0
  9 11  1  0  0  0  0
 11 12  1  0  0  0  0
 11 30  1  0  0  0  0
 12 17  1  0  0  0  0
 12 13  2  0  0  0  0
 13 14  1  0  0  0  0
 13 31  1  0  0  0  0
 14 15  2  0  0  0  0
 14 32  1  0  0  0  0
 15 16  1  0  0  0  0
 15 33  1  0  0  0  0
 16 17  2  0  0  0  0
 16 34  1  0  0  0  0
 18 19  1  0  0  0  0
 18 35  1  0  0  0  0
 18 36  1  0  0  0  0
 19 20  1  0  0  0  0
 19 37  1  0  0  0  0
 19 38  1  0  0  0  0
M  CHG  1   4   1
M  CHG  1  20  -1
M  END
> <s_m_source_file>
AV-unprocessed.smi

> <i_m_source_file_index>
2858

> <i_lp_mmshare_version>
43012

> <i_f3d_flags>
0

> <s_epik_input>
Tz1DMVtDSDJdTihbQ0gyXVtDSDJdW05IXTEpW0NIMl1bQ0gyXVtDSDJdW05IXUMoPU8pW05IXWMyW2NIXVtjSF1bY0hdW2NIXW4y

> <s_epik_cmdline>
J2VwaWtfcHl0aG9uJywgJy1waCcsICc3LjAnLCAnLXRuJywgJzgnLCAnLW1hJywgJzIwMCcsICctbWV0YWxfYmluZGluZycsICctaW1hZScsICc8aW5maWxlLm1hZT4nLCAnLW9tYWUnLCAnPG91dGZpbGUubWFlPic=

> <r_epik_Ionization_Penalty>
5.09835

> <r_epik_Ionization_Penalty_Charging>
5.09831

> <r_epik_Ionization_Penalty_Neutral>
4.20822e-05

> <r_epik_State_Penalty>
5.19693

> <r_epik_Charging_Adjusted_Penalty>
10.2952

> <i_epik_Tot_Q>
0

> <i_epik_Tot_abs_Q>
2

> <r_epik_Metal_State_Penalty>
1.27693

> <b_epik_Metal_Only>
1

> <s_lp_Force_Field>
OPLS_2005

> <r_lp_Energy>
14.6847

> <b_lp_Chiralities_Consistent>
1

> <s_lp_Variant>
AV-unprocessed.smi:2858-5

> <Gold.Version>
5.8.1

> <Gold.Id.Protein>
6NUR|6NUR_protein|mol2

> <Gold.PLP.Fitness>
50.5628

> <Gold.PLP.PLP>
-36.7959

> <Gold.PLP.part.hbond>
-4.0000

> <Gold.PLP.part.metal>
0.0000

> <Gold.PLP.part.buried>
-6.1975

> <Gold.PLP.part.nonpolar>
-28.0198

> <Gold.PLP.part.repulsive>
0.3750

> <Gold.PLP.ligand.clash>
0.0000

> <Gold.PLP.ligand.torsion>
0.6553

> <Gold.PLP.Chemscore.Hbond>
4.9760

> <Gold.PLP.Chemscore.CHOScore>
0.0000

> <Gold.PLP.Chemscore.Metal>
0.0000

> <Gold.Chemscore.Hbonds>
donor molecule, donor type, donor heavy atom, donor atom, acceptor molecule, acceptor atom, score
      L1  H     8    29       P1  8028  1.00
      L1  H    11    30       P1  8028  1.00
      P1  H  7997  8009       L1     1  0.96
      P1  H 10752 10763       L1    20  1.12

> <Gold.PLP.Chemscore.Internal.Correction>
0.1495

> <Gold.Rescore>
     Score         DG    S(hbond)    S(metal)    S(lipo)     H(rot)  DE(clash)    DE(int)     intcor
     16.85     -19.00       2.88        0.00      77.49       2.02       0.02       2.13       ----

> <Gold.Chemscore.Fitness>
16.8501

> <Gold.Chemscore.DG>
-18.9996

> <Gold.Chemscore.ZeroCoef>
-5.4800

> <Gold.Chemscore.Hbond>
2.8825

> <Gold.Chemscore.Metal>
0.0000

> <Gold.Chemscore.Lipo>
77.4897

> <Gold.Chemscore.Internal_Hbond>
0.0000

> <Gold.Chemscore.DEClash>
0.0207

> <Gold.Chemscore.DEInternal>
2.1288

> <Gold.Chemscore.Rot>
2.0213

> <Gold.Chemscore.Internal.Correction>
   9.000000E+99

> <Gold.Chemscore.Hbonds>
donor molecule, donor type, donor heavy atom, donor atom, acceptor molecule, acceptor atom, score
      L1  H     8    29       P1  8028  0.97
      L1  H    11    30       P1  8028  0.96
      P1  H  7997  8009       L1     1  0.92
      P1  H 10752 10763       L1    20  0.04

> <Gold.Chemscore.Hbond.Weighted>
-9.6277

> <Gold.Chemscore.Metal.Weighted>
-0.0000

> <Gold.Chemscore.Lipo.Weighted>
-9.0663

> <Gold.Chemscore.Internal_Hbond.Weighted>
0.0000

> <Gold.Chemscore.DEClash.Weighted>
0.0207

> <Gold.Chemscore.DEInternal.Weighted>
2.1288

> <Gold.Chemscore.Rot.Weighted>
5.1744

> <Gold.Chemscore.Internal.Correction.Weighted>
   9.000000E+99

> <Gold.Protein.RotatedTorsions>
[ 6907 6896 6895 6894 ] final  -51.21 input  -60.11 | X-H torsion
[ 7974 7965 7964 7962 ] final  -60.23 input  175.53 | X-H torsion
[ 8008 7997 7996 7995 ] final -145.73 input   59.86 | X-H torsion
[ 10167 10162 10161 10158 ] final  168.49 input  -65.29 | X-H torsion
[ 10718 10713 10712 10709 ] final  122.58 input   66.30 | X-H torsion
[ 10763 10752 10751 10750 ] final   74.24 input  -60.55 | X-H torsion
[ 11005 11000 10999 10996 ] final  -84.26 input  -57.11 | X-H torsion

> <Gold.Protein.ActiveResidues>
 VAL166  LYS551  ARG553  GLY616  TRP617  ASP618  TYR619  PRO620  LYS621  CYS622 
 ASP623  PHE694  ASN695  SER759  ASP760  ASP761  ALA762  ILE779  LEU786  VAL792 
 PHE793  MET794  SER795  GLU796  ALA797  LYS798  CYS799  TRP800  GLU811  SER814 

> <Gold.Protein.RotatedAtoms>
  150.8633  134.7990  159.7099 H   0  0  0  0  0  0  0  0  0  0  0  0  # atno 6907 bound_to 6896
  152.4663  134.5065  159.9750 H   0  0  0  0  0  0  0  0  0  0  0  0  # atno 6908 bound_to 6896
  151.5165  133.3436  159.2929 H   0  0  0  0  0  0  0  0  0  0  0  0  # atno 6909 bound_to 6896
  145.8180  140.8558  143.0147 H   0  0  0  0  0  0  0  0  0  0  0  0  # atno 7974 bound_to 7965
  155.5479  140.0614  157.2856 H   0  0  0  0  0  0  0  0  0  0  0  0  # atno 8008 bound_to 7997
  154.4430  140.1907  156.0701 H   0  0  0  0  0  0  0  0  0  0  0  0  # atno 8009 bound_to 7997
  156.0538  140.3281  155.7385 H   0  0  0  0  0  0  0  0  0  0  0  0  # atno 8010 bound_to 7997
  139.4969  144.3809  151.9623 H   0  0  0  0  0  0  0  0  0  0  0  0  # atno 10167 bound_to 10162
  157.5731  131.1081  150.8329 H   0  0  0  0  0  0  0  0  0  0  0  0  # atno 10718 bound_to 10713
  153.0574  135.5033  154.8013 H   0  0  0  0  0  0  0  0  0  0  0  0  # atno 10763 bound_to 10752
  154.6829  135.2971  154.9591 H   0  0  0  0  0  0  0  0  0  0  0  0  # atno 10764 bound_to 10752
  154.0371  135.6722  153.4839 H   0  0  0  0  0  0  0  0  0  0  0  0  # atno 10765 bound_to 10752
  141.1652  133.7337  156.8842 H   0  0  0  0  0  0  0  0  0  0  0  0  # atno 11005 bound_to 11000
  144.6750  140.0492  143.7479 LP  0  0  0  0  0  0  0  0  0  0  0  0  # atno 17320 bound_to 7965
  145.9705  139.2866  143.1101 LP  0  0  0  0  0  0  0  0  0  0  0  0  # atno 17321 bound_to 7965
  140.3245  144.3389  150.6001 LP  0  0  0  0  0  0  0  0  0  0  0  0  # atno 17342 bound_to 10162
  140.5695  143.2182  151.7623 LP  0  0  0  0  0  0  0  0  0  0  0  0  # atno 17343 bound_to 10162
  156.8795  130.5174  149.5292 LP  0  0  0  0  0  0  0  0  0  0  0  0  # atno 17370 bound_to 10713
  156.0776  130.5794  150.9503 LP  0  0  0  0  0  0  0  0  0  0  0  0  # atno 17371 bound_to 10713
  140.1694  134.9111  157.2814 LP  0  0  0  0  0  0  0  0  0  0  0  0  # atno 17394 bound_to 11000
  140.2520  134.3672  155.7439 LP  0  0  0  0  0  0  0  0  0  0  0  0  # atno 17395 bound_to 11000

$$$$
