AV-unprocessed.smi:1703|AV-procd|sdf|6869|dock4
  -GOLD-   22720 8 63D 1   1.00000     0.00000
 Structure written by MMmdl.
 49 51  0  0  0  0  0  0  0  0  2 V2000
  154.9102  140.4993  162.9661 C   0  0  0  0  0  0  0  0  0  0  0  0
  155.5087  139.2182  162.3645 C   0  0  2  0  0  0  0  0  0  0  0  0
  155.0412  138.9372  160.9213 C   0  0  0  0  0  0  0  0  0  0  0  0
  153.6735  138.4261  160.8503 N   0  0  0  0  0  0  0  0  0  0  0  0
  153.2657  138.1116  159.4802 C   0  0  0  0  0  0  0  0  0  0  0  0
  152.9371  139.3216  158.5767 C   0  0  1  0  0  0  0  0  0  0  0  0
  153.3462  138.9961  157.2655 O   0  0  0  0  0  0  0  0  0  0  0  0
  151.4359  139.6774  158.4981 C   0  0  0  0  0  0  0  0  0  0  0  0
  151.1654  140.9920  157.8960 N   0  0  0  0  0  0  0  0  0  0  0  0
  150.5132  141.3284  156.7442 C   0  0  0  0  0  0  0  0  0  0  0  0
  149.8611  140.4004  155.7700 C   0  0  0  0  0  0  0  0  0  0  0  0
  150.4515  140.4488  154.4886 O   0  0  0  0  0  0  0  0  0  0  0  0
  150.5620  142.6868  156.6378 N   0  3  0  0  0  0  0  0  0  0  0  0
  151.2382  143.2245  157.7326 C   0  0  0  0  0  0  0  0  0  0  0  0
  151.5270  144.5438  158.0668 C   0  0  0  0  0  0  0  0  0  0  0  0
  152.2307  144.7511  159.2714 C   0  0  0  0  0  0  0  0  0  0  0  0
  152.6216  143.6705  160.0889 C   0  0  0  0  0  0  0  0  0  0  0  0
  152.3262  142.3369  159.7366 C   0  0  0  0  0  0  0  0  0  0  0  0
  151.6263  142.1416  158.5467 C   0  0  0  0  0  0  0  0  0  0  0  0
  153.5602  137.2546  161.7087 C   0  0  0  0  0  0  0  0  0  0  0  0
  153.9393  137.5728  163.1649 C   0  0  1  0  0  0  0  0  0  0  0  0
  153.8817  136.3313  164.0606 C   0  0  0  0  0  0  0  0  0  0  0  0
  155.2700  138.0850  163.2006 O   0  0  0  0  0  0  0  0  0  0  0  0
  155.1596  141.3694  162.3584 H   0  0  0  0  0  0  0  0  0  0  0  0
  155.2970  140.6744  163.9699 H   0  0  0  0  0  0  0  0  0  0  0  0
  153.8254  140.4466  163.0343 H   0  0  0  0  0  0  0  0  0  0  0  0
  156.5897  139.3580  162.3402 H   0  0  0  0  0  0  0  0  0  0  0  0
  155.1421  139.8497  160.3353 H   0  0  0  0  0  0  0  0  0  0  0  0
  155.7196  138.2094  160.4733 H   0  0  0  0  0  0  0  0  0  0  0  0
  154.0530  137.5178  159.0124 H   0  0  0  0  0  0  0  0  0  0  0  0
  152.3892  137.4627  159.5006 H   0  0  0  0  0  0  0  0  0  0  0  0
  153.5146  140.1963  158.8716 H   0  0  0  0  0  0  0  0  0  0  0  0
  153.2442  138.0649  157.1407 H   0  0  0  0  0  0  0  0  0  0  0  0
  150.8922  138.9268  157.9226 H   0  0  0  0  0  0  0  0  0  0  0  0
  150.9916  139.6700  159.4939 H   0  0  0  0  0  0  0  0  0  0  0  0
  149.9202  139.3818  156.1535 H   0  0  0  0  0  0  0  0  0  0  0  0
  148.8053  140.6492  155.6701 H   0  0  0  0  0  0  0  0  0  0  0  0
  149.7648  140.5381  153.8451 H   0  0  0  0  0  0  0  0  0  0  0  0
  151.2268  145.3726  157.4425 H   0  0  0  0  0  0  0  0  0  0  0  0
  152.4751  145.7590  159.5743 H   0  0  0  0  0  0  0  0  0  0  0  0
  153.1602  143.8678  161.0045 H   0  0  0  0  0  0  0  0  0  0  0  0
  152.6302  141.5155  160.3685 H   0  0  0  0  0  0  0  0  0  0  0  0
  152.5377  136.8760  161.6813 H   0  0  0  0  0  0  0  0  0  0  0  0
  154.1985  136.4546  161.3296 H   0  0  0  0  0  0  0  0  0  0  0  0
  153.2500  138.3162  163.5663 H   0  0  0  0  0  0  0  0  0  0  0  0
  152.8780  135.9062  164.0778 H   0  0  0  0  0  0  0  0  0  0  0  0
  154.1558  136.5783  165.0866 H   0  0  0  0  0  0  0  0  0  0  0  0
  154.5665  135.5588  163.7095 H   0  0  0  0  0  0  0  0  0  0  0  0
  150.1495  143.2038  155.8719 H   0  0  0  0  0  0  0  0  0  0  0  0
  1  2  1  0  0  0  0
  1 24  1  0  0  0  0
  1 25  1  0  0  0  0
  1 26  1  0  0  0  0
  2 23  1  0  0  0  0
  2  3  1  0  0  0  0
  2 27  1  0  0  0  0
  3  4  1  0  0  0  0
  3 28  1  0  0  0  0
  3 29  1  0  0  0  0
  4  5  1  0  0  0  0
  4 20  1  0  0  0  0
  5  6  1  0  0  0  0
  5 30  1  0  0  0  0
  5 31  1  0  0  0  0
  6  7  1  0  0  0  0
  6  8  1  0  0  0  0
  6 32  1  0  0  0  0
  7 33  1  0  0  0  0
  8  9  1  0  0  0  0
  8 34  1  0  0  0  0
  8 35  1  0  0  0  0
  9 19  1  0  0  0  0
  9 10  1  0  0  0  0
 10 11  1  0  0  0  0
 10 13  2  0  0  0  0
 11 12  1  0  0  0  0
 11 36  1  0  0  0  0
 11 37  1  0  0  0  0
 12 38  1  0  0  0  0
 13 14  1  0  0  0  0
 13 49  1  0  0  0  0
 14 19  2  0  0  0  0
 14 15  1  0  0  0  0
 15 16  2  0  0  0  0
 15 39  1  0  0  0  0
 16 17  1  0  0  0  0
 16 40  1  0  0  0  0
 17 18  2  0  0  0  0
 17 41  1  0  0  0  0
 18 19  1  0  0  0  0
 18 42  1  0  0  0  0
 20 21  1  0  0  0  0
 20 43  1  0  0  0  0
 20 44  1  0  0  0  0
 21 22  1  0  0  0  0
 21 23  1  0  0  0  0
 21 45  1  0  0  0  0
 22 46  1  0  0  0  0
 22 47  1  0  0  0  0
 22 48  1  0  0  0  0
M  CHG  1  13   1
M  END
> <s_m_source_file>
AV-unprocessed.smi

> <i_m_source_file_index>
1703

> <i_lp_mmshare_version>
43012

> <i_f3d_flags>
0

> <s_epik_input>
W0NIM11bQ0BASF0xW0NIMl1OKFtDSDJdW0NASF0oTzEpW0NIM10pW0NIMl1bQ0BIXShbT0hdKVtDSDJdbihjKG4yKVtDSDJdW09IXSljKGMyMylbY0hdW2NIXVtjSF1bY0hdMw==

> <s_epik_cmdline>
J2VwaWtfcHl0aG9uJywgJy1waCcsICc3LjAnLCAnLXRuJywgJzgnLCAnLW1hJywgJzIwMCcsICctbWV0YWxfYmluZGluZycsICctaW1hZScsICc8aW5maWxlLm1hZT4nLCAnLW9tYWUnLCAnPG91dGZpbGUubWFlPic=

> <r_epik_Ionization_Penalty>
1.7682

> <r_epik_Ionization_Penalty_Charging>
1.55298

> <r_epik_Ionization_Penalty_Neutral>
0.215215

> <r_epik_State_Penalty>
1.83821

> <r_epik_Charging_Adjusted_Penalty>
3.39119

> <i_epik_Tot_Q>
1

> <i_epik_Tot_abs_Q>
1

> <r_epik_Metal_State_Penalty>
5.89206

> <b_epik_Metal_Only>
0

> <s_lp_Force_Field>
OPLS_2005

> <r_lp_Energy>
30.0096

> <b_lp_Chiralities_Consistent>
1

> <s_lp_Variant>
AV-unprocessed.smi:1703-17

> <Gold.Version>
5.8.1

> <Gold.Id.Protein>
6NUR|6NUR_protein|mol2

> <Gold.PLP.Fitness>
57.6961

> <Gold.PLP.PLP>
-48.2081

> <Gold.PLP.part.hbond>
-3.0000

> <Gold.PLP.part.metal>
0.0000

> <Gold.PLP.part.buried>
-6.0042

> <Gold.PLP.part.nonpolar>
-39.3074

> <Gold.PLP.part.repulsive>
0.0520

> <Gold.PLP.ligand.clash>
0.0000

> <Gold.PLP.ligand.torsion>
0.7212

> <Gold.PLP.Chemscore.Hbond>
3.6400

> <Gold.PLP.Chemscore.CHOScore>
0.0000

> <Gold.PLP.Chemscore.Metal>
0.0000

> <Gold.Chemscore.Hbonds>
donor molecule, donor type, donor heavy atom, donor atom, acceptor molecule, acceptor atom, score
      L1  H    13    49       P1  8028  1.50
      P1  H  7989  7998       L1    12  0.70
      P1  H  7997  8010       L1     7  0.99

> <Gold.PLP.Chemscore.Internal.Correction>
0.0105

> <Gold.Rescore>
     Score         DG    S(hbond)    S(metal)    S(lipo)     H(rot)  DE(clash)    DE(int)     intcor
     20.99     -21.61       2.42        0.00     133.28       2.96       0.01       0.60       ----

> <Gold.Chemscore.Fitness>
20.9928

> <Gold.Chemscore.DG>
-21.6071

> <Gold.Chemscore.ZeroCoef>
-5.4800

> <Gold.Chemscore.Hbond>
2.4249

> <Gold.Chemscore.Metal>
0.0000

> <Gold.Chemscore.Lipo>
133.2814

> <Gold.Chemscore.Internal_Hbond>
0.0000

> <Gold.Chemscore.DEClash>
0.0098

> <Gold.Chemscore.DEInternal>
0.6046

> <Gold.Chemscore.Rot>
2.9555

> <Gold.Chemscore.Internal.Correction>
   9.000000E+99

> <Gold.Chemscore.Hbonds>
donor molecule, donor type, donor heavy atom, donor atom, acceptor molecule, acceptor atom, score
      L1  H    13    49       P1  8028  0.72
      P1  H  7989  7998       L1    12  0.07
      P1  H  7997  8010       L1     7  0.87

> <Gold.Chemscore.Hbond.Weighted>
-8.0992

> <Gold.Chemscore.Metal.Weighted>
-0.0000

> <Gold.Chemscore.Lipo.Weighted>
-15.5939

> <Gold.Chemscore.Internal_Hbond.Weighted>
0.0000

> <Gold.Chemscore.DEClash.Weighted>
0.0098

> <Gold.Chemscore.DEInternal.Weighted>
0.6046

> <Gold.Chemscore.Rot.Weighted>
7.5660

> <Gold.Chemscore.Internal.Correction.Weighted>
   9.000000E+99

> <Gold.Protein.RotatedTorsions>
[ 6907 6896 6895 6894 ] final -153.21 input  -60.11 | X-H torsion
[ 7974 7965 7964 7962 ] final  105.06 input  175.53 | X-H torsion
[ 8008 7997 7996 7995 ] final   67.57 input   59.86 | X-H torsion
[ 10167 10162 10161 10158 ] final  -10.54 input  -65.29 | X-H torsion
[ 10718 10713 10712 10709 ] final -112.68 input   66.30 | X-H torsion
[ 10763 10752 10751 10750 ] final   32.70 input  -60.55 | X-H torsion
[ 11005 11000 10999 10996 ] final  -64.25 input  -57.11 | X-H torsion

> <Gold.Protein.ActiveResidues>
 VAL166  LYS551  ARG553  GLY616  TRP617  ASP618  TYR619  PRO620  LYS621  CYS622 
 ASP623  PHE694  ASN695  SER759  ASP760  ASP761  ALA762  ILE779  LEU786  VAL792 
 PHE793  MET794  SER795  GLU796  ALA797  LYS798  CYS799  TRP800  GLU811  SER814 

> <Gold.Protein.RotatedAtoms>
  151.2391  133.4409  159.2606 H   0  0  0  0  0  0  0  0  0  0  0  0  # atno 6907 bound_to 6896
  151.0722  134.9805  159.8324 H   0  0  0  0  0  0  0  0  0  0  0  0  # atno 6908 bound_to 6896
  152.5413  134.2336  159.8887 H   0  0  0  0  0  0  0  0  0  0  0  0  # atno 6909 bound_to 6896
  145.3246  139.2503  143.3693 H   0  0  0  0  0  0  0  0  0  0  0  0  # atno 7974 bound_to 7965
  155.6949  140.3496  155.4909 H   0  0  0  0  0  0  0  0  0  0  0  0  # atno 8008 bound_to 7997
  155.9492  140.1116  157.1013 H   0  0  0  0  0  0  0  0  0  0  0  0  # atno 8009 bound_to 7997
  154.4118  140.1197  156.5016 H   0  0  0  0  0  0  0  0  0  0  0  0  # atno 8010 bound_to 7997
  140.7116  143.5737  150.9065 H   0  0  0  0  0  0  0  0  0  0  0  0  # atno 10167 bound_to 10162
  156.0720  130.5932  150.8540 H   0  0  0  0  0  0  0  0  0  0  0  0  # atno 10718 bound_to 10713
  153.0249  135.6406  154.1396 H   0  0  0  0  0  0  0  0  0  0  0  0  # atno 10763 bound_to 10752
  154.1126  135.2852  155.3228 H   0  0  0  0  0  0  0  0  0  0  0  0  # atno 10764 bound_to 10752
  154.6320  135.5489  153.7754 H   0  0  0  0  0  0  0  0  0  0  0  0  # atno 10765 bound_to 10752
  141.1419  133.6663  156.5805 H   0  0  0  0  0  0  0  0  0  0  0  0  # atno 11005 bound_to 11000
  146.3069  140.3811  142.8684 LP  0  0  0  0  0  0  0  0  0  0  0  0  # atno 17320 bound_to 7965
  144.8912  140.7526  143.5925 LP  0  0  0  0  0  0  0  0  0  0  0  0  # atno 17321 bound_to 7965
  139.9463  143.6323  152.3041 LP  0  0  0  0  0  0  0  0  0  0  0  0  # atno 17342 bound_to 10162
  139.6826  144.7654  151.1581 LP  0  0  0  0  0  0  0  0  0  0  0  0  # atno 17343 bound_to 10162
  157.5796  131.0946  150.9292 LP  0  0  0  0  0  0  0  0  0  0  0  0  # atno 17370 bound_to 10713
  156.9491  130.5413  149.5282 LP  0  0  0  0  0  0  0  0  0  0  0  0  # atno 17371 bound_to 10713
  140.3842  134.7497  157.4680 LP  0  0  0  0  0  0  0  0  0  0  0  0  # atno 17394 bound_to 11000
  140.0615  134.5989  155.8744 LP  0  0  0  0  0  0  0  0  0  0  0  0  # atno 17395 bound_to 11000

$$$$
