AV-unprocessed.smi:861|AV-procd|sdf|3970|dock5
  -GOLD-   22720 1443D 1   1.00000     0.00000
 Structure written by MMmdl.
 43 44  0  0  0  0  0  0  0  0  1 V2000
  153.2439  142.5231  160.5530 C   0  0  0  0  0  0  0  0  0  0  0  0
  152.6468  142.9344  159.1968 C   0  0  0  0  0  0  0  0  0  0  0  0
  151.9032  144.2727  159.3236 C   0  0  0  0  0  0  0  0  0  0  0  0
  151.7227  141.8493  158.6080 C   0  0  0  0  0  0  0  0  0  0  0  0
  151.0041  142.2812  157.3148 C   0  0  0  0  0  0  0  0  0  0  0  0
  150.4659  141.1843  156.5116 N   0  0  0  0  0  0  0  0  0  0  0  0
  149.6767  141.6936  155.3957 C   0  0  0  0  0  0  0  0  0  0  0  0
  149.1058  140.5588  154.5293 C   0  0  0  0  0  0  0  0  0  0  0  0
  150.1701  139.7339  154.0666 O   0  0  0  0  0  0  0  0  0  0  0  0
  150.9341  139.1649  155.1262 C   0  0  1  0  0  0  0  0  0  0  0  0
  152.0277  138.2859  154.5026 C   0  0  0  0  0  0  0  0  0  0  0  0
  151.4758  137.0728  153.9145 N   0  0  0  0  0  0  0  0  0  0  0  0
  151.2272  135.9398  154.6996 C   0  0  0  0  0  0  0  0  0  0  0  0
  150.1193  135.1268  154.3885 C   0  0  0  0  0  0  0  0  0  0  0  0
  149.8926  133.9971  155.1935 C   0  0  0  0  0  0  0  0  0  0  0  0
  150.7931  133.7664  156.2493 C   0  0  0  0  0  0  0  0  0  0  0  0
  151.8423  134.5807  156.5027 N   0  0  0  0  0  0  0  0  0  0  0  0
  152.0565  135.6558  155.7355 N   0  0  0  0  0  0  0  0  0  0  0  0
  151.5111  140.3072  155.9897 C   0  0  0  0  0  0  0  0  0  0  0  0
  152.4618  142.3154  161.2839 H   0  0  0  0  0  0  0  0  0  0  0  0
  153.8749  143.3144  160.9589 H   0  0  0  0  0  0  0  0  0  0  0  0
  153.8648  141.6320  160.4659 H   0  0  0  0  0  0  0  0  0  0  0  0
  153.4720  143.0892  158.5006 H   0  0  0  0  0  0  0  0  0  0  0  0
  151.0608  144.1941  160.0114 H   0  0  0  0  0  0  0  0  0  0  0  0
  151.5161  144.6022  158.3591 H   0  0  0  0  0  0  0  0  0  0  0  0
  152.5639  145.0566  159.6952 H   0  0  0  0  0  0  0  0  0  0  0  0
  152.3034  140.9429  158.4361 H   0  0  0  0  0  0  0  0  0  0  0  0
  150.9667  141.5907  159.3508 H   0  0  0  0  0  0  0  0  0  0  0  0
  150.1816  142.9399  157.5976 H   0  0  0  0  0  0  0  0  0  0  0  0
  151.6746  142.8846  156.7019 H   0  0  0  0  0  0  0  0  0  0  0  0
  148.8567  142.3067  155.7715 H   0  0  0  0  0  0  0  0  0  0  0  0
  150.2932  142.3443  154.7735 H   0  0  0  0  0  0  0  0  0  0  0  0
  148.3906  139.9608  155.0960 H   0  0  0  0  0  0  0  0  0  0  0  0
  148.5730  140.9680  153.6711 H   0  0  0  0  0  0  0  0  0  0  0  0
  150.2740  138.5394  155.7303 H   0  0  0  0  0  0  0  0  0  0  0  0
  152.5414  138.8450  153.7195 H   0  0  0  0  0  0  0  0  0  0  0  0
  152.7743  138.0283  155.2551 H   0  0  0  0  0  0  0  0  0  0  0  0
  151.2429  137.0674  152.9321 H   0  0  0  0  0  0  0  0  0  0  0  0
  149.4636  135.3597  153.5624 H   0  0  0  0  0  0  0  0  0  0  0  0
  149.0613  133.3332  155.0091 H   0  0  0  0  0  0  0  0  0  0  0  0
  150.6712  132.9149  156.9021 H   0  0  0  0  0  0  0  0  0  0  0  0
  152.2194  140.8886  155.3973 H   0  0  0  0  0  0  0  0  0  0  0  0
  152.0768  139.8711  156.8121 H   0  0  0  0  0  0  0  0  0  0  0  0
  1  2  1  0  0  0  0
  1 20  1  0  0  0  0
  1 21  1  0  0  0  0
  1 22  1  0  0  0  0
  2  3  1  0  0  0  0
  2  4  1  0  0  0  0
  2 23  1  0  0  0  0
  3 24  1  0  0  0  0
  3 25  1  0  0  0  0
  3 26  1  0  0  0  0
  4  5  1  0  0  0  0
  4 27  1  0  0  0  0
  4 28  1  0  0  0  0
  5  6  1  0  0  0  0
  5 29  1  0  0  0  0
  5 30  1  0  0  0  0
  6 19  1  0  0  0  0
  6  7  1  0  0  0  0
  7  8  1  0  0  0  0
  7 31  1  0  0  0  0
  7 32  1  0  0  0  0
  8  9  1  0  0  0  0
  8 33  1  0  0  0  0
  8 34  1  0  0  0  0
  9 10  1  0  0  0  0
 10 11  1  0  0  0  0
 10 19  1  0  0  0  0
 10 35  1  0  0  0  0
 11 12  1  0  0  0  0
 11 36  1  0  0  0  0
 11 37  1  0  0  0  0
 12 13  1  0  0  0  0
 12 38  1  0  0  0  0
 13 18  1  0  0  0  0
 13 14  2  0  0  0  0
 14 15  1  0  0  0  0
 14 39  1  0  0  0  0
 15 16  2  0  0  0  0
 15 40  1  0  0  0  0
 16 17  1  0  0  0  0
 16 41  1  0  0  0  0
 17 18  2  0  0  0  0
 19 42  1  0  0  0  0
 19 43  1  0  0  0  0
M  END
> <s_m_source_file>
AV-unprocessed.smi

> <i_m_source_file_index>
861

> <i_lp_mmshare_version>
43012

> <i_f3d_flags>
0

> <s_epik_input>
W0NIM11bQ0hdKFtDSDNdKVtDSDJdW0NIMl1OMVtDSDJdW0NIMl1PW0NASF0oW0NIMl0xKVtDSDJdW05IXWMyW2NIXVtjSF1bY0hdbm4y

> <s_epik_cmdline>
J2VwaWtfcHl0aG9uJywgJy1waCcsICc3LjAnLCAnLXRuJywgJzgnLCAnLW1hJywgJzIwMCcsICctbWV0YWxfYmluZGluZycsICctaW1hZScsICc8aW5maWxlLm1hZT4nLCAnLW9tYWUnLCAnPG91dGZpbGUubWFlPic=

> <r_lp_tautomer_probability>
0.999978

> <r_epik_Ionization_Penalty>
1.1508

> <r_epik_Ionization_Penalty_Charging>
0

> <r_epik_Ionization_Penalty_Neutral>
1.1508

> <r_epik_State_Penalty>
1.22808

> <r_epik_Charging_Adjusted_Penalty>
1.22808

> <i_epik_Tot_Q>
0

> <i_epik_Tot_abs_Q>
0

> <r_epik_Metal_State_Penalty>
1.22149

> <b_epik_Metal_Only>
0

> <s_lp_Force_Field>
OPLS_2005

> <r_lp_Energy>
29.6071

> <b_lp_Chiralities_Consistent>
1

> <s_lp_Variant>
AV-unprocessed.smi:861-5

> <Gold.Version>
5.8.1

> <Gold.Id.Protein>
6NUR|6NUR_protein|mol2

> <Gold.PLP.Fitness>
48.2891

> <Gold.PLP.PLP>
-40.7162

> <Gold.PLP.part.hbond>
-4.2783

> <Gold.PLP.part.metal>
0.0000

> <Gold.PLP.part.buried>
-3.0411

> <Gold.PLP.part.nonpolar>
-34.8447

> <Gold.PLP.part.repulsive>
1.1407

> <Gold.PLP.ligand.clash>
0.0000

> <Gold.PLP.ligand.torsion>
0.5960

> <Gold.PLP.Chemscore.Hbond>
2.8920

> <Gold.PLP.Chemscore.CHOScore>
0.0000

> <Gold.PLP.Chemscore.Metal>
0.0000

> <Gold.Chemscore.Hbonds>
donor molecule, donor type, donor heavy atom, donor atom, acceptor molecule, acceptor atom, score
      L1  H    12    38       P1  7949  0.85
      P1  H  7989  7998       L1     9  0.70
      P1  H 10752 10763       L1    18  0.56

> <Gold.PLP.Chemscore.Internal.Correction>
0.0888

> <Gold.Rescore>
     Score         DG    S(hbond)    S(metal)    S(lipo)     H(rot)  DE(clash)    DE(int)     intcor
     14.96     -16.08       0.78        0.00     104.52       1.66       0.53       0.60       ----

> <Gold.Chemscore.Fitness>
14.9591

> <Gold.Chemscore.DG>
-16.0832

> <Gold.Chemscore.ZeroCoef>
-5.4800

> <Gold.Chemscore.Hbond>
0.7848

> <Gold.Chemscore.Metal>
0.0000

> <Gold.Chemscore.Lipo>
104.5236

> <Gold.Chemscore.Internal_Hbond>
0.0000

> <Gold.Chemscore.DEClash>
0.5270

> <Gold.Chemscore.DEInternal>
0.5972

> <Gold.Chemscore.Rot>
1.6591

> <Gold.Chemscore.Internal.Correction>
   9.000000E+99

> <Gold.Chemscore.Hbonds>
donor molecule, donor type, donor heavy atom, donor atom, acceptor molecule, acceptor atom, score
      L1  H    12    38       P1  7949  0.55
      P1  H  7989  7998       L1     9  0.05
      P1  H 10752 10763       L1    18  0.13

> <Gold.Chemscore.Hbond.Weighted>
-2.6214

> <Gold.Chemscore.Metal.Weighted>
-0.0000

> <Gold.Chemscore.Lipo.Weighted>
-12.2293

> <Gold.Chemscore.Internal_Hbond.Weighted>
0.0000

> <Gold.Chemscore.DEClash.Weighted>
0.5270

> <Gold.Chemscore.DEInternal.Weighted>
0.5972

> <Gold.Chemscore.Rot.Weighted>
4.2474

> <Gold.Chemscore.Internal.Correction.Weighted>
   9.000000E+99

> <Gold.Protein.RotatedTorsions>
[ 6907 6896 6895 6894 ] final  -76.28 input  -60.11 | X-H torsion
[ 7974 7965 7964 7962 ] final -104.10 input  175.53 | X-H torsion
[ 8008 7997 7996 7995 ] final  112.14 input   59.86 | X-H torsion
[ 10167 10162 10161 10158 ] final  -80.11 input  -65.29 | X-H torsion
[ 10718 10713 10712 10709 ] final -154.94 input   66.30 | X-H torsion
[ 10763 10752 10751 10750 ] final  101.81 input  -60.55 | X-H torsion
[ 11005 11000 10999 10996 ] final -137.82 input  -57.11 | X-H torsion

> <Gold.Protein.ActiveResidues>
 VAL166  LYS551  ARG553  GLY616  TRP617  ASP618  TYR619  PRO620  LYS621  CYS622 
 ASP623  PHE694  ASN695  SER759  ASP760  ASP761  ALA762  ILE779  LEU786  VAL792 
 PHE793  MET794  SER795  GLU796  ALA797  LYS798  CYS799  TRP800  GLU811  SER814 

> <Gold.Protein.RotatedAtoms>
  150.7032  134.4595  159.5373 H   0  0  0  0  0  0  0  0  0  0  0  0  # atno 6907 bound_to 6896
  152.2273  134.8353  160.0487 H   0  0  0  0  0  0  0  0  0  0  0  0  # atno 6908 bound_to 6896
  151.9182  133.3543  159.3924 H   0  0  0  0  0  0  0  0  0  0  0  0  # atno 6909 bound_to 6896
  145.2474  140.9226  143.3115 H   0  0  0  0  0  0  0  0  0  0  0  0  # atno 7974 bound_to 7965
  156.2172  140.3005  155.9867 H   0  0  0  0  0  0  0  0  0  0  0  0  # atno 8008 bound_to 7997
  155.2575  140.0428  157.3010 H   0  0  0  0  0  0  0  0  0  0  0  0  # atno 8009 bound_to 7997
  154.5786  140.2368  155.8095 H   0  0  0  0  0  0  0  0  0  0  0  0  # atno 8010 bound_to 7997
  140.4532  143.2476  151.8458 H   0  0  0  0  0  0  0  0  0  0  0  0  # atno 10167 bound_to 10162
  156.5061  130.8413  151.2628 H   0  0  0  0  0  0  0  0  0  0  0  0  # atno 10718 bound_to 10713
  153.3314  135.4032  155.1499 H   0  0  0  0  0  0  0  0  0  0  0  0  # atno 10763 bound_to 10752
  154.8624  135.3611  154.5465 H   0  0  0  0  0  0  0  0  0  0  0  0  # atno 10764 bound_to 10752
  153.5904  135.7074  153.5485 H   0  0  0  0  0  0  0  0  0  0  0  0  # atno 10765 bound_to 10752
  140.8674  134.2093  157.4671 H   0  0  0  0  0  0  0  0  0  0  0  0  # atno 11005 bound_to 11000
  144.9534  139.4058  143.6391 LP  0  0  0  0  0  0  0  0  0  0  0  0  # atno 17320 bound_to 7965
  146.3312  139.8552  142.8866 LP  0  0  0  0  0  0  0  0  0  0  0  0  # atno 17321 bound_to 7965
  139.4798  144.5095  151.8952 LP  0  0  0  0  0  0  0  0  0  0  0  0  # atno 17342 bound_to 10162
  140.4182  144.2279  150.5887 LP  0  0  0  0  0  0  0  0  0  0  0  0  # atno 17343 bound_to 10162
  157.7457  130.9965  150.2783 LP  0  0  0  0  0  0  0  0  0  0  0  0  # atno 17370 bound_to 10713
  156.3286  130.3797  149.7511 LP  0  0  0  0  0  0  0  0  0  0  0  0  # atno 17371 bound_to 10713
  139.8710  134.9758  156.4898 LP  0  0  0  0  0  0  0  0  0  0  0  0  # atno 17394 bound_to 11000
  140.8613  133.8058  155.9268 LP  0  0  0  0  0  0  0  0  0  0  0  0  # atno 17395 bound_to 11000

$$$$
