AV-unprocessed.smi:2718|AV-procd|sdf|10490|dock10
  -GOLD-   2272014533D 1   1.00000     0.00000
 Structure written by MMmdl.
 47 48  0  0  0  0  0  0  0  0  1 V2000
  150.3273  144.9251  159.6315 C   0  0  0  0  0  0  0  0  0  0  0  0
  151.4533  144.0552  159.1091 C   0  0  0  0  0  0  0  0  0  0  0  0
  152.1892  144.6221  157.9077 C   0  0  0  0  0  0  0  0  0  0  0  0
  151.7606  142.8761  159.6825 C   0  0  0  0  0  0  0  0  0  0  0  0
  152.8404  141.9436  159.2653 C   0  0  2  0  0  0  0  0  0  0  0  0
  152.7457  140.4611  159.5747 C   0  0  1  0  0  0  0  0  0  0  0  0
  153.1945  139.4833  158.5334 C   0  0  0  0  0  0  0  0  0  0  0  0
  154.1889  138.7663  158.6525 O   0  0  0  0  0  0  0  0  0  0  0  0
  152.4237  139.4768  157.4359 N   0  0  0  0  0  0  0  0  0  0  0  0
  152.6579  138.6614  156.2474 C   0  0  0  0  0  0  0  0  0  0  0  0
  151.3531  138.2905  155.5074 C   0  0  1  0  0  0  0  0  0  0  0  0
  150.5787  137.1839  156.2384 C   0  0  0  0  0  0  0  0  0  0  0  0
  150.4830  139.4885  155.2323 C   0  0  0  0  0  0  0  0  0  0  0  0
  150.8074  140.7357  155.5996 N   0  0  0  0  0  0  0  0  0  0  0  0
  149.7764  141.5379  155.1549 N   0  0  0  0  0  0  0  0  0  0  0  0
  148.9309  140.6972  154.5610 C   0  0  0  0  0  0  0  0  0  0  0  0
  149.3079  139.4100  154.5710 N   0  0  0  0  0  0  0  0  0  0  0  0
  148.6149  138.2672  154.0094 C   0  0  0  0  0  0  0  0  0  0  0  0
  153.7811  141.3252  160.2872 C   0  0  0  0  0  0  0  0  0  0  0  0
  155.2718  141.2764  159.9726 C   0  0  0  0  0  0  0  0  0  0  0  0
  153.5907  141.5581  161.7787 C   0  0  0  0  0  0  0  0  0  0  0  0
  150.7110  145.9021  159.9261 H   0  0  0  0  0  0  0  0  0  0  0  0
  149.8421  144.4764  160.4990 H   0  0  0  0  0  0  0  0  0  0  0  0
  149.5725  145.0713  158.8586 H   0  0  0  0  0  0  0  0  0  0  0  0
  152.6462  145.5778  158.1650 H   0  0  0  0  0  0  0  0  0  0  0  0
  151.4922  144.7877  157.0859 H   0  0  0  0  0  0  0  0  0  0  0  0
  152.9773  143.9607  157.5489 H   0  0  0  0  0  0  0  0  0  0  0  0
  151.1779  142.5502  160.5321 H   0  0  0  0  0  0  0  0  0  0  0  0
  153.2624  142.2270  158.3021 H   0  0  0  0  0  0  0  0  0  0  0  0
  151.8984  140.1392  160.1795 H   0  0  0  0  0  0  0  0  0  0  0  0
  151.6282  140.0985  157.4115 H   0  0  0  0  0  0  0  0  0  0  0  0
  153.3492  139.1717  155.5746 H   0  0  0  0  0  0  0  0  0  0  0  0
  153.1638  137.7526  156.5747 H   0  0  0  0  0  0  0  0  0  0  0  0
  151.6481  137.8631  154.5495 H   0  0  0  0  0  0  0  0  0  0  0  0
  149.7009  136.8781  155.6683 H   0  0  0  0  0  0  0  0  0  0  0  0
  150.2397  137.5167  157.2200 H   0  0  0  0  0  0  0  0  0  0  0  0
  151.2012  136.3009  156.3845 H   0  0  0  0  0  0  0  0  0  0  0  0
  148.0107  141.0313  154.1043 H   0  0  0  0  0  0  0  0  0  0  0  0
  147.6593  138.5782  153.5863 H   0  0  0  0  0  0  0  0  0  0  0  0
  148.4309  137.5270  154.7884 H   0  0  0  0  0  0  0  0  0  0  0  0
  149.2197  137.8188  153.2210 H   0  0  0  0  0  0  0  0  0  0  0  0
  155.7069  140.3493  160.3464 H   0  0  0  0  0  0  0  0  0  0  0  0
  155.7868  142.1141  160.4434 H   0  0  0  0  0  0  0  0  0  0  0  0
  155.4603  141.3429  158.9017 H   0  0  0  0  0  0  0  0  0  0  0  0
  154.0902  140.7760  162.3511 H   0  0  0  0  0  0  0  0  0  0  0  0
  152.5336  141.5504  162.0466 H   0  0  0  0  0  0  0  0  0  0  0  0
  154.0075  142.5229  162.0692 H   0  0  0  0  0  0  0  0  0  0  0  0
  1  2  1  0  0  0  0
  1 22  1  0  0  0  0
  1 23  1  0  0  0  0
  1 24  1  0  0  0  0
  2  3  1  0  0  0  0
  2  4  2  0  0  0  0
  3 25  1  0  0  0  0
  3 26  1  0  0  0  0
  3 27  1  0  0  0  0
  4  5  1  0  0  0  0
  4 28  1  0  0  0  0
  5 19  1  0  0  0  0
  5  6  1  0  0  0  0
  5 29  1  0  0  0  0
  6  7  1  0  0  0  0
  6 19  1  0  0  0  0
  6 30  1  0  0  0  0
  7  8  2  0  0  0  0
  7  9  1  0  0  0  0
  9 10  1  0  0  0  0
  9 31  1  0  0  0  0
 10 11  1  0  0  0  0
 10 32  1  0  0  0  0
 10 33  1  0  0  0  0
 11 12  1  0  0  0  0
 11 13  1  0  0  0  0
 11 34  1  0  0  0  0
 12 35  1  0  0  0  0
 12 36  1  0  0  0  0
 12 37  1  0  0  0  0
 13 17  1  0  0  0  0
 13 14  2  0  0  0  0
 14 15  1  0  0  0  0
 15 16  2  0  0  0  0
 16 17  1  0  0  0  0
 16 38  1  0  0  0  0
 17 18  1  0  0  0  0
 18 39  1  0  0  0  0
 18 40  1  0  0  0  0
 18 41  1  0  0  0  0
 19 20  1  0  0  0  0
 19 21  1  0  0  0  0
 20 42  1  0  0  0  0
 20 43  1  0  0  0  0
 20 44  1  0  0  0  0
 21 45  1  0  0  0  0
 21 46  1  0  0  0  0
 21 47  1  0  0  0  0
M  END
> <s_m_source_file>
AV-unprocessed.smi

> <i_m_source_file_index>
2718

> <i_lp_mmshare_version>
43012

> <i_f3d_flags>
0

> <s_epik_input>
W0NIM11DKFtDSDNdKT1bQ0hdW0NAQEhdKEMxKFtDSDNdKVtDSDNdKVtDQEhdMUMoPU8pW05IXVtDSDJdW0NASF0oW0NIM10pYzJubltjSF1uMltDSDNd

> <s_epik_cmdline>
J2VwaWtfcHl0aG9uJywgJy1waCcsICc3LjAnLCAnLXRuJywgJzgnLCAnLW1hJywgJzIwMCcsICctbWV0YWxfYmluZGluZycsICctaW1hZScsICc8aW5maWxlLm1hZT4nLCAnLW9tYWUnLCAnPG91dGZpbGUubWFlPic=

> <r_lp_tautomer_probability>
1

> <r_epik_Ionization_Penalty>
0.000449586

> <r_epik_Ionization_Penalty_Charging>
0

> <r_epik_Ionization_Penalty_Neutral>
0.000449586

> <r_epik_State_Penalty>
0.000243372

> <r_epik_Charging_Adjusted_Penalty>
0.000243372

> <i_epik_Tot_Q>
0

> <i_epik_Tot_abs_Q>
0

> <r_epik_Metal_State_Penalty>
-0

> <b_epik_Metal_Only>
0

> <s_lp_Force_Field>
OPLS_2005

> <r_lp_Energy>
15.9496

> <b_lp_Chiralities_Consistent>
1

> <s_lp_Variant>
AV-unprocessed.smi:2718-5

> <Gold.Version>
5.8.1

> <Gold.Id.Protein>
6NUR|6NUR_protein|mol2

> <Gold.PLP.Fitness>
43.8804

> <Gold.PLP.PLP>
-45.3453

> <Gold.PLP.part.hbond>
-2.4548

> <Gold.PLP.part.metal>
0.0000

> <Gold.PLP.part.buried>
-0.8155

> <Gold.PLP.part.nonpolar>
-42.8487

> <Gold.PLP.part.repulsive>
1.2326

> <Gold.PLP.ligand.clash>
0.0000

> <Gold.PLP.ligand.torsion>
0.8445

> <Gold.PLP.Chemscore.Hbond>
0.0000

> <Gold.PLP.Chemscore.CHOScore>
0.0000

> <Gold.PLP.Chemscore.Metal>
0.0000

> <Gold.Chemscore.Hbonds>
donor molecule, donor type, donor heavy atom, donor atom, acceptor molecule, acceptor atom, score
      P1  H  7989  7998       L1    14  0.02
      P1  H  7997  8008       L1     8  0.05

> <Gold.PLP.Chemscore.Internal.Correction>
0.2241

> <Gold.Rescore>
     Score         DG    S(hbond)    S(metal)    S(lipo)     H(rot)  DE(clash)    DE(int)     intcor
     11.34     -13.65       0.00        0.00     112.53       1.95       0.02       2.28       ----

> <Gold.Chemscore.Fitness>
11.3437

> <Gold.Chemscore.DG>
-13.6459

> <Gold.Chemscore.ZeroCoef>
-5.4800

> <Gold.Chemscore.Hbond>
0.0000

> <Gold.Chemscore.Metal>
0.0000

> <Gold.Chemscore.Lipo>
112.5336

> <Gold.Chemscore.Internal_Hbond>
0.0000

> <Gold.Chemscore.DEClash>
0.0222

> <Gold.Chemscore.DEInternal>
2.2800

> <Gold.Chemscore.Rot>
1.9533

> <Gold.Chemscore.Internal.Correction>
   9.000000E+99

> <Gold.Chemscore.Hbond.Weighted>
-0.0000

> <Gold.Chemscore.Metal.Weighted>
-0.0000

> <Gold.Chemscore.Lipo.Weighted>
-13.1664

> <Gold.Chemscore.Internal_Hbond.Weighted>
0.0000

> <Gold.Chemscore.DEClash.Weighted>
0.0222

> <Gold.Chemscore.DEInternal.Weighted>
2.2800

> <Gold.Chemscore.Rot.Weighted>
5.0005

> <Gold.Chemscore.Internal.Correction.Weighted>
   9.000000E+99

> <Gold.Protein.RotatedTorsions>
[ 6907 6896 6895 6894 ] final  -78.28 input  -60.11 | X-H torsion
[ 7974 7965 7964 7962 ] final   35.03 input  175.53 | X-H torsion
[ 8008 7997 7996 7995 ] final -105.65 input   59.86 | X-H torsion
[ 10167 10162 10161 10158 ] final   21.59 input  -65.29 | X-H torsion
[ 10718 10713 10712 10709 ] final -157.31 input   66.30 | X-H torsion
[ 10763 10752 10751 10750 ] final  -83.96 input  -60.55 | X-H torsion
[ 11005 11000 10999 10996 ] final  156.12 input  -57.11 | X-H torsion

> <Gold.Protein.ActiveResidues>
 VAL166  LYS551  ARG553  GLY616  TRP617  ASP618  TYR619  PRO620  LYS621  CYS622 
 ASP623  PHE694  ASN695  SER759  ASP760  ASP761  ALA762  ILE779  LEU786  VAL792 
 PHE793  MET794  SER795  GLU796  ALA797  LYS798  CYS799  TRP800  GLU811  SER814 

> <Gold.Protein.RotatedAtoms>
  150.6977  134.4295  159.5241 H   0  0  0  0  0  0  0  0  0  0  0  0  # atno 6907 bound_to 6896
  152.2024  134.8573  160.0515 H   0  0  0  0  0  0  0  0  0  0  0  0  # atno 6908 bound_to 6896
  151.9488  133.3625  159.4029 H   0  0  0  0  0  0  0  0  0  0  0  0  # atno 6909 bound_to 6896
  146.1312  139.6194  142.9225 H   0  0  0  0  0  0  0  0  0  0  0  0  # atno 7974 bound_to 7965
  154.9030  140.0412  157.1904 H   0  0  0  0  0  0  0  0  0  0  0  0  # atno 8008 bound_to 7997
  154.8425  140.2916  155.5629 H   0  0  0  0  0  0  0  0  0  0  0  0  # atno 8009 bound_to 7997
  156.2993  140.2480  156.3369 H   0  0  0  0  0  0  0  0  0  0  0  0  # atno 8010 bound_to 7997
  140.5414  143.9670  150.6522 H   0  0  0  0  0  0  0  0  0  0  0  0  # atno 10167 bound_to 10162
  156.5386  130.8553  151.2741 H   0  0  0  0  0  0  0  0  0  0  0  0  # atno 10718 bound_to 10713
  154.5939  135.5537  153.7306 H   0  0  0  0  0  0  0  0  0  0  0  0  # atno 10763 bound_to 10752
  153.0127  135.6350  154.1811 H   0  0  0  0  0  0  0  0  0  0  0  0  # atno 10764 bound_to 10752
  154.1751  135.2890  155.3049 H   0  0  0  0  0  0  0  0  0  0  0  0  # atno 10765 bound_to 10752
  140.1645  134.8586  157.2615 H   0  0  0  0  0  0  0  0  0  0  0  0  # atno 11005 bound_to 11000
  145.5257  141.0430  143.2411 LP  0  0  0  0  0  0  0  0  0  0  0  0  # atno 17320 bound_to 7965
  144.7692  139.6774  143.7202 LP  0  0  0  0  0  0  0  0  0  0  0  0  # atno 17321 bound_to 7965
  140.3071  143.3222  152.0915 LP  0  0  0  0  0  0  0  0  0  0  0  0  # atno 17342 bound_to 10162
  139.4990  144.6660  151.6356 LP  0  0  0  0  0  0  0  0  0  0  0  0  # atno 17343 bound_to 10162
  157.7409  130.9860  150.2411 LP  0  0  0  0  0  0  0  0  0  0  0  0  # atno 17370 bound_to 10713
  156.2993  130.3756  149.7766 LP  0  0  0  0  0  0  0  0  0  0  0  0  # atno 17371 bound_to 10713
  140.2450  134.3750  155.7465 LP  0  0  0  0  0  0  0  0  0  0  0  0  # atno 17394 bound_to 11000
  141.2212  133.7286  156.8848 LP  0  0  0  0  0  0  0  0  0  0  0  0  # atno 17395 bound_to 11000

$$$$
