AV-unprocessed.smi:589|AV-procd|sdf|3005|dock6
  -GOLD-   2262023513D 1   1.00000     0.00000
 Structure written by MMmdl.
 40 41  0  0  0  0  0  0  0  0  1 V2000
  152.0421  144.9530  158.8945 C   0  0  0  0  0  0  0  0  0  0  0  0
  152.2649  143.4553  158.9057 C   0  0  0  0  0  0  0  0  0  0  0  0
  153.1191  142.8562  159.8482 C   0  0  0  0  0  0  0  0  0  0  0  0
  153.2886  141.4569  159.8216 C   0  0  0  0  0  0  0  0  0  0  0  0
  154.1826  140.8199  160.8756 C   0  0  0  0  0  0  0  0  0  0  0  0
  152.6002  140.7007  158.8301 C   0  0  0  0  0  0  0  0  0  0  0  0
  152.7314  139.1997  158.7514 C   0  0  0  0  0  0  0  0  0  0  0  0
  151.8392  138.4961  159.4540 N   0  0  0  0  0  0  0  0  0  0  0  0
  153.6306  138.6673  158.1032 O   0  0  0  0  0  0  0  0  0  0  0  0
  151.7490  141.4071  157.9312 C   0  0  0  0  0  0  0  0  0  0  0  0
  151.0353  140.7316  156.9254 N   0  0  0  0  0  0  0  0  0  0  0  0
  151.8785  139.9834  156.0037 C   0  0  0  0  0  0  0  0  0  0  0  0
  151.0018  139.1396  155.0586 C   0  0  2  0  0  0  0  0  0  0  0  0
  151.8327  138.4139  153.9954 C   0  0  0  0  0  0  0  0  0  0  0  0
  150.0730  139.9943  154.3939 O   0  0  0  0  0  0  0  0  0  0  0  0
  149.2005  140.6690  155.2987 C   0  0  2  0  0  0  0  0  0  0  0  0
  148.2013  141.4940  154.4815 C   0  0  0  0  0  0  0  0  0  0  0  0
  150.0407  141.5483  156.2429 C   0  0  0  0  0  0  0  0  0  0  0  0
  151.5954  142.7523  157.9723 N   0  0  0  0  0  0  0  0  0  0  0  0
  152.5885  145.4411  159.7021 H   0  0  0  0  0  0  0  0  0  0  0  0
  150.9826  145.1794  159.0164 H   0  0  0  0  0  0  0  0  0  0  0  0
  152.3785  145.3794  157.9491 H   0  0  0  0  0  0  0  0  0  0  0  0
  153.6280  143.4594  160.5857 H   0  0  0  0  0  0  0  0  0  0  0  0
  153.7011  139.9514  161.3259 H   0  0  0  0  0  0  0  0  0  0  0  0
  154.4043  141.5230  161.6790 H   0  0  0  0  0  0  0  0  0  0  0  0
  155.1299  140.5081  160.4357 H   0  0  0  0  0  0  0  0  0  0  0  0
  151.8695  137.4873  159.4397 H   0  0  0  0  0  0  0  0  0  0  0  0
  151.1344  138.9779  159.9933 H   0  0  0  0  0  0  0  0  0  0  0  0
  152.4940  140.6758  155.4274 H   0  0  0  0  0  0  0  0  0  0  0  0
  152.5557  139.3384  156.5653 H   0  0  0  0  0  0  0  0  0  0  0  0
  150.4508  138.3957  155.6369 H   0  0  0  0  0  0  0  0  0  0  0  0
  152.5548  137.7389  154.4552 H   0  0  0  0  0  0  0  0  0  0  0  0
  152.3829  139.1213  153.3745 H   0  0  0  0  0  0  0  0  0  0  0  0
  151.1944  137.8215  153.3395 H   0  0  0  0  0  0  0  0  0  0  0  0
  148.6475  139.9295  155.8811 H   0  0  0  0  0  0  0  0  0  0  0  0
  147.5063  142.0244  155.1329 H   0  0  0  0  0  0  0  0  0  0  0  0
  147.6157  140.8545  153.8208 H   0  0  0  0  0  0  0  0  0  0  0  0
  148.7123  142.2333  153.8639 H   0  0  0  0  0  0  0  0  0  0  0  0
  149.3977  142.0333  156.9784 H   0  0  0  0  0  0  0  0  0  0  0  0
  150.5373  142.3364  155.6752 H   0  0  0  0  0  0  0  0  0  0  0  0
  1  2  1  0  0  0  0
  1 20  1  0  0  0  0
  1 21  1  0  0  0  0
  1 22  1  0  0  0  0
  2 19  1  0  0  0  0
  2  3  2  0  0  0  0
  3  4  1  0  0  0  0
  3 23  1  0  0  0  0
  4  5  1  0  0  0  0
  4  6  2  0  0  0  0
  5 24  1  0  0  0  0
  5 25  1  0  0  0  0
  5 26  1  0  0  0  0
  6  7  1  0  0  0  0
  6 10  1  0  0  0  0
  7  8  1  0  0  0  0
  7  9  2  0  0  0  0
  8 27  1  0  0  0  0
  8 28  1  0  0  0  0
 10 11  1  0  0  0  0
 10 19  2  0  0  0  0
 11 18  1  0  0  0  0
 11 12  1  0  0  0  0
 12 13  1  0  0  0  0
 12 29  1  0  0  0  0
 12 30  1  0  0  0  0
 13 14  1  0  0  0  0
 13 15  1  0  0  0  0
 13 31  1  0  0  0  0
 14 32  1  0  0  0  0
 14 33  1  0  0  0  0
 14 34  1  0  0  0  0
 15 16  1  0  0  0  0
 16 17  1  0  0  0  0
 16 18  1  0  0  0  0
 16 35  1  0  0  0  0
 17 36  1  0  0  0  0
 17 37  1  0  0  0  0
 17 38  1  0  0  0  0
 18 39  1  0  0  0  0
 18 40  1  0  0  0  0
M  END
> <s_m_source_file>
AV-unprocessed.smi

> <i_m_source_file_index>
589

> <i_lp_mmshare_version>
43012

> <i_f3d_flags>
0

> <s_epik_input>
W0NIM11jMVtjSF1jKFtDSDNdKWMoQyg9TylbTkgyXSljKG4xKU4yW0NIMl1bQ0BASF0oW0NIM10pT1tDQEBIXShbQ0gzXSlbQ0gyXTI=

> <s_epik_cmdline>
J2VwaWtfcHl0aG9uJywgJy1waCcsICc3LjAnLCAnLXRuJywgJzgnLCAnLW1hJywgJzIwMCcsICctbWV0YWxfYmluZGluZycsICctaW1hZScsICc8aW5maWxlLm1hZT4nLCAnLW9tYWUnLCAnPG91dGZpbGUubWFlPic=

> <r_lp_tautomer_probability>
1

> <r_epik_Ionization_Penalty>
0.000626871

> <r_epik_Ionization_Penalty_Charging>
0

> <r_epik_Ionization_Penalty_Neutral>
0.000626871

> <r_epik_State_Penalty>
0.000395665

> <r_epik_Charging_Adjusted_Penalty>
0.000395665

> <i_epik_Tot_Q>
0

> <i_epik_Tot_abs_Q>
0

> <r_epik_Metal_State_Penalty>
-0

> <b_epik_Metal_Only>
0

> <s_lp_Force_Field>
OPLS_2005

> <r_lp_Energy>
24.7039

> <b_lp_Chiralities_Consistent>
1

> <s_lp_Variant>
AV-unprocessed.smi:589-1

> <Gold.Version>
5.8.1

> <Gold.Id.Protein>
6NUR|6NUR_protein|mol2

> <Gold.PLP.Fitness>
44.4001

> <Gold.PLP.PLP>
-41.8802

> <Gold.PLP.part.hbond>
-2.0000

> <Gold.PLP.part.metal>
0.0000

> <Gold.PLP.part.buried>
-4.8158

> <Gold.PLP.part.nonpolar>
-35.1859

> <Gold.PLP.part.repulsive>
0.2950

> <Gold.PLP.ligand.clash>
0.6054

> <Gold.PLP.ligand.torsion>
1.6044

> <Gold.PLP.Chemscore.Hbond>
2.0000

> <Gold.PLP.Chemscore.CHOScore>
0.0000

> <Gold.PLP.Chemscore.Metal>
0.0000

> <Gold.Chemscore.Hbonds>
donor molecule, donor type, donor heavy atom, donor atom, acceptor molecule, acceptor atom, score
      P1  H  7989  7998       L1    15  0.45
      P1  H  7997  8009       L1     9  0.90

> <Gold.PLP.Chemscore.Internal.Correction>
0.3340

> <Gold.Rescore>
     Score         DG    S(hbond)    S(metal)    S(lipo)     H(rot)  DE(clash)    DE(int)     intcor
     15.60     -20.35       1.45        0.00     107.50       1.00       0.75       4.01       ----

> <Gold.Chemscore.Fitness>
15.5955

> <Gold.Chemscore.DG>
-20.3535

> <Gold.Chemscore.ZeroCoef>
-5.4800

> <Gold.Chemscore.Hbond>
1.4539

> <Gold.Chemscore.Metal>
0.0000

> <Gold.Chemscore.Lipo>
107.5010

> <Gold.Chemscore.Internal_Hbond>
0.0000

> <Gold.Chemscore.DEClash>
0.7494

> <Gold.Chemscore.DEInternal>
4.0086

> <Gold.Chemscore.Rot>
1.0000

> <Gold.Chemscore.Internal.Correction>
   9.000000E+99

> <Gold.Chemscore.Hbonds>
donor molecule, donor type, donor heavy atom, donor atom, acceptor molecule, acceptor atom, score
      P1  H  7989  7998       L1    15  0.01
      P1  H  7997  8009       L1     9  0.73

> <Gold.Chemscore.Hbond.Weighted>
-4.8559

> <Gold.Chemscore.Metal.Weighted>
-0.0000

> <Gold.Chemscore.Lipo.Weighted>
-12.5776

> <Gold.Chemscore.Internal_Hbond.Weighted>
0.0000

> <Gold.Chemscore.DEClash.Weighted>
0.7494

> <Gold.Chemscore.DEInternal.Weighted>
4.0086

> <Gold.Chemscore.Rot.Weighted>
2.5600

> <Gold.Chemscore.Internal.Correction.Weighted>
   9.000000E+99

> <Gold.Protein.RotatedTorsions>
[ 6907 6896 6895 6894 ] final  -92.17 input  -60.11 | X-H torsion
[ 7974 7965 7964 7962 ] final   74.98 input  175.53 | X-H torsion
[ 8008 7997 7996 7995 ] final  127.73 input   59.86 | X-H torsion
[ 10167 10162 10161 10158 ] final   20.11 input  -65.29 | X-H torsion
[ 10718 10713 10712 10709 ] final  179.26 input   66.30 | X-H torsion
[ 10763 10752 10751 10750 ] final   48.62 input  -60.55 | X-H torsion
[ 11005 11000 10999 10996 ] final   30.03 input  -57.11 | X-H torsion

> <Gold.Protein.ActiveResidues>
 VAL166  LYS551  ARG553  GLY616  TRP617  ASP618  TYR619  PRO620  LYS621  CYS622 
 ASP623  PHE694  ASN695  SER759  ASP760  ASP761  ALA762  ILE779  LEU786  VAL792 
 PHE793  MET794  SER795  GLU796  ALA797  LYS798  CYS799  TRP800  GLU811  SER814 

> <Gold.Protein.RotatedAtoms>
  150.6902  134.2163  159.4378 H   0  0  0  0  0  0  0  0  0  0  0  0  # atno 6907 bound_to 6896
  152.0122  134.9867  160.0577 H   0  0  0  0  0  0  0  0  0  0  0  0  # atno 6908 bound_to 6896
  152.1478  133.4468  159.4835 H   0  0  0  0  0  0  0  0  0  0  0  0  # atno 6909 bound_to 6896
  145.7214  139.2650  143.1594 H   0  0  0  0  0  0  0  0  0  0  0  0  # atno 7974 bound_to 7965
  156.2898  140.2662  156.2320 H   0  0  0  0  0  0  0  0  0  0  0  0  # atno 8008 bound_to 7997
  155.0063  140.0387  157.2399 H   0  0  0  0  0  0  0  0  0  0  0  0  # atno 8009 bound_to 7997
  154.7557  140.2751  155.6260 H   0  0  0  0  0  0  0  0  0  0  0  0  # atno 8010 bound_to 7997
  140.5528  143.9478  150.6589 H   0  0  0  0  0  0  0  0  0  0  0  0  # atno 10167 bound_to 10162
  156.8783  130.9807  151.3065 H   0  0  0  0  0  0  0  0  0  0  0  0  # atno 10718 bound_to 10713
  152.9791  135.5938  154.3956 H   0  0  0  0  0  0  0  0  0  0  0  0  # atno 10763 bound_to 10752
  154.3607  135.2767  155.2323 H   0  0  0  0  0  0  0  0  0  0  0  0  # atno 10764 bound_to 10752
  154.4322  135.6033  153.6131 H   0  0  0  0  0  0  0  0  0  0  0  0  # atno 10765 bound_to 10752
  140.2987  134.2781  155.7759 H   0  0  0  0  0  0  0  0  0  0  0  0  # atno 11005 bound_to 11000
  146.0622  140.7958  142.9729 LP  0  0  0  0  0  0  0  0  0  0  0  0  # atno 17320 bound_to 7965
  144.6916  140.3214  143.7231 LP  0  0  0  0  0  0  0  0  0  0  0  0  # atno 17321 bound_to 7965
  140.2909  143.3325  152.1064 LP  0  0  0  0  0  0  0  0  0  0  0  0  # atno 17342 bound_to 10162
  139.5035  144.6756  151.6136 LP  0  0  0  0  0  0  0  0  0  0  0  0  # atno 17343 bound_to 10162
  157.6155  130.8615  149.9021 LP  0  0  0  0  0  0  0  0  0  0  0  0  # atno 17370 bound_to 10713
  156.0690  130.3688  150.0816 LP  0  0  0  0  0  0  0  0  0  0  0  0  # atno 17371 bound_to 10713
  141.2132  133.7632  156.9734 LP  0  0  0  0  0  0  0  0  0  0  0  0  # atno 17394 bound_to 11000
  140.1129  134.9466  157.2091 LP  0  0  0  0  0  0  0  0  0  0  0  0  # atno 17395 bound_to 11000

$$$$
