AV-unprocessed.smi:290|AV-procd|sdf|2230|dock9
  -GOLD-   2262022 93D 1   1.00000     0.00000
 Structure written by MMmdl.
 59 62  0  0  0  0  0  0  0  0  2 V2000
  149.5969  141.4954  157.1365 C   0  0  0  0  0  0  0  0  0  0  0  0
  150.2119  141.2291  155.7540 C   0  0  1  0  0  0  0  0  0  0  0  0
  151.4173  140.5058  156.0080 O   0  0  0  0  0  0  0  0  0  0  0  0
  151.5870  139.4851  155.0404 C   0  0  0  0  0  0  0  0  0  0  0  0
  150.1598  139.0364  154.7673 C   0  0  0  0  0  0  0  0  0  0  0  0
  149.3889  140.3507  154.7651 C   0  0  2  0  0  0  0  0  0  0  0  0
  149.5293  140.9071  153.4687 O   0  0  0  0  0  0  0  0  0  0  0  0
  147.8734  140.1347  155.0386 C   0  0  0  0  0  0  0  0  0  0  0  0
  147.1872  139.2048  154.1462 N   0  0  0  0  0  0  0  0  0  0  0  0
  147.7089  138.5262  153.0652 C   0  0  0  0  0  0  0  0  0  0  0  0
  146.8770  137.7324  152.4484 N   0  0  0  0  0  0  0  0  0  0  0  0
  145.6962  137.8466  153.1707 C   0  0  0  0  0  0  0  0  0  0  0  0
  144.4030  137.2591  153.0581 C   0  0  0  0  0  0  0  0  0  0  0  0
  144.0696  136.3898  152.0673 N   0  0  0  0  0  0  0  0  0  0  0  0
  143.1069  135.3432  152.4052 C   0  0  0  0  0  0  0  0  0  0  0  0
  143.5382  134.0886  151.6383 C   0  0  0  0  0  0  0  0  0  0  0  0
  144.3758  134.6608  150.4898 C   0  0  2  0  0  0  0  0  0  0  0  0
  145.2976  133.7022  149.8152 N   0  3  2  0  0  0  0  0  0  0  0  0
  144.5725  132.5376  149.2543 C   0  0  0  0  0  0  0  0  0  0  0  0
  146.5008  133.3052  150.5971 C   0  0  0  0  0  0  0  0  0  0  0  0
  146.1366  132.4031  151.7872 C   0  0  0  0  0  0  0  0  0  0  0  0
  146.8557  131.1898  151.7119 O   0  0  0  0  0  0  0  0  0  0  0  0
  145.0705  135.8671  151.1371 C   0  0  1  0  0  0  0  0  0  0  0  0
  145.5297  136.9167  150.1093 C   0  0  0  0  0  0  0  0  0  0  0  0
  143.4800  137.6047  153.9945 N   0  0  0  0  0  0  0  0  0  0  0  0
  143.7912  138.4649  154.9680 C   0  0  0  0  0  0  0  0  0  0  0  0
  144.9475  139.0916  155.1876 N   0  0  0  0  0  0  0  0  0  0  0  0
  145.8821  138.7509  154.2544 C   0  0  0  0  0  0  0  0  0  0  0  0
  143.6844  135.0523  149.7404 H   0  0  0  0  0  0  0  0  0  0  0  0
  145.9324  135.5378  151.7158 H   0  0  0  0  0  0  0  0  0  0  0  0
  148.7649  142.1940  157.0784 H   0  0  0  0  0  0  0  0  0  0  0  0
  150.3330  141.9459  157.8025 H   0  0  0  0  0  0  0  0  0  0  0  0
  149.2482  140.5757  157.6067 H   0  0  0  0  0  0  0  0  0  0  0  0
  150.4722  142.1861  155.2979 H   0  0  0  0  0  0  0  0  0  0  0  0
  152.0476  139.9023  154.1437 H   0  0  0  0  0  0  0  0  0  0  0  0
  152.2207  138.6797  155.4120 H   0  0  0  0  0  0  0  0  0  0  0  0
  150.0601  138.4642  153.8438 H   0  0  0  0  0  0  0  0  0  0  0  0
  149.8240  138.4018  155.5889 H   0  0  0  0  0  0  0  0  0  0  0  0
  149.3779  140.2256  152.8317 H   0  0  0  0  0  0  0  0  0  0  0  0
  147.7298  139.7770  156.0591 H   0  0  0  0  0  0  0  0  0  0  0  0
  147.3581  141.0944  154.9917 H   0  0  0  0  0  0  0  0  0  0  0  0
  148.7322  138.6289  152.7379 H   0  0  0  0  0  0  0  0  0  0  0  0
  143.0607  135.1486  153.4780 H   0  0  0  0  0  0  0  0  0  0  0  0
  142.1173  135.6652  152.0794 H   0  0  0  0  0  0  0  0  0  0  0  0
  144.1352  133.4615  152.3003 H   0  0  0  0  0  0  0  0  0  0  0  0
  142.6899  133.4970  151.2933 H   0  0  0  0  0  0  0  0  0  0  0  0
  144.1303  131.9332  150.0473 H   0  0  0  0  0  0  0  0  0  0  0  0
  145.2366  131.8993  148.6725 H   0  0  0  0  0  0  0  0  0  0  0  0
  143.7726  132.8628  148.5882 H   0  0  0  0  0  0  0  0  0  0  0  0
  147.2257  132.7759  149.9805 H   0  0  0  0  0  0  0  0  0  0  0  0
  147.0135  134.2010  150.9507 H   0  0  0  0  0  0  0  0  0  0  0  0
  146.3973  132.8971  152.7237 H   0  0  0  0  0  0  0  0  0  0  0  0
  145.0681  132.1932  151.8266 H   0  0  0  0  0  0  0  0  0  0  0  0
  147.5217  131.2716  151.0455 H   0  0  0  0  0  0  0  0  0  0  0  0
  146.2442  136.4864  149.4071 H   0  0  0  0  0  0  0  0  0  0  0  0
  146.0176  137.7654  150.5879 H   0  0  0  0  0  0  0  0  0  0  0  0
  144.6881  137.3022  149.5330 H   0  0  0  0  0  0  0  0  0  0  0  0
  142.9999  138.6849  155.6695 H   0  0  0  0  0  0  0  0  0  0  0  0
  145.6542  134.2100  149.0174 H   0  0  0  0  0  0  0  0  0  0  0  0
  1  2  1  0  0  0  0
  1 31  1  0  0  0  0
  1 32  1  0  0  0  0
  1 33  1  0  0  0  0
  2  6  1  0  0  0  0
  2  3  1  0  0  0  0
  2 34  1  0  0  0  0
  3  4  1  0  0  0  0
  4  5  1  0  0  0  0
  4 35  1  0  0  0  0
  4 36  1  0  0  0  0
  5  6  1  0  0  0  0
  5 37  1  0  0  0  0
  5 38  1  0  0  0  0
  6  7  1  0  0  0  0
  6  8  1  0  0  0  0
  7 39  1  0  0  0  0
  8  9  1  0  0  0  0
  8 40  1  0  0  0  0
  8 41  1  0  0  0  0
  9 28  1  0  0  0  0
  9 10  1  0  0  0  0
 10 11  2  0  0  0  0
 10 42  1  0  0  0  0
 11 12  1  0  0  0  0
 12 28  2  0  0  0  0
 12 13  1  0  0  0  0
 13 14  1  0  0  0  0
 13 25  2  0  0  0  0
 14 23  1  0  0  0  0
 14 15  1  0  0  0  0
 15 16  1  0  0  0  0
 15 43  1  0  0  0  0
 15 44  1  0  0  0  0
 16 17  1  0  0  0  0
 16 45  1  0  0  0  0
 16 46  1  0  0  0  0
 17 29  1  0  0  0  0
 17 18  1  0  0  0  0
 17 23  1  0  0  0  0
 18 19  1  0  0  0  0
 18 20  1  0  0  0  0
 18 59  1  0  0  0  0
 19 47  1  0  0  0  0
 19 48  1  0  0  0  0
 19 49  1  0  0  0  0
 20 21  1  0  0  0  0
 20 50  1  0  0  0  0
 20 51  1  0  0  0  0
 21 22  1  0  0  0  0
 21 52  1  0  0  0  0
 21 53  1  0  0  0  0
 22 54  1  0  0  0  0
 23 30  1  0  0  0  0
 23 24  1  0  0  0  0
 24 55  1  0  0  0  0
 24 56  1  0  0  0  0
 24 57  1  0  0  0  0
 25 26  1  0  0  0  0
 26 27  2  0  0  0  0
 26 58  1  0  0  0  0
 27 28  1  0  0  0  0
M  CHG  1  18   1
M  END
> <s_m_source_file>
AV-unprocessed.smi

> <i_m_source_file_index>
290

> <i_lp_mmshare_version>
43012

> <i_f3d_flags>
0

> <s_epik_input>
W0NIMl0xW0NIMl1PW0NAQEhdKFtDSDNdKVtDQEBdMShbT0hdKVtDSDJdbihbY0hdbjIpYyhjMjMpbltjSF1uYzNONFtDSDJdW0NIMl1bQ0BIXShbQ0BIXTRbQ0gzXSlOKFtDSDNdKVtDSDJdW0NIMl1bT0hd

> <s_epik_cmdline>
J2VwaWtfcHl0aG9uJywgJy1waCcsICc3LjAnLCAnLXRuJywgJzgnLCAnLW1hJywgJzIwMCcsICctbWV0YWxfYmluZGluZycsICctaW1hZScsICc8aW5maWxlLm1hZT4nLCAnLW9tYWUnLCAnPG91dGZpbGUubWFlPic=

> <r_lp_tautomer_probability>
1

> <r_epik_Ionization_Penalty>
0.0036983

> <r_epik_Ionization_Penalty_Charging>
0.0032725

> <r_epik_Ionization_Penalty_Neutral>
0.000425798

> <r_epik_State_Penalty>
-0

> <r_epik_Charging_Adjusted_Penalty>
0.0032725

> <i_epik_Tot_Q>
1

> <i_epik_Tot_abs_Q>
1

> <r_epik_Metal_State_Penalty>
-0

> <b_epik_Metal_Only>
0

> <s_lp_Force_Field>
OPLS_2005

> <r_lp_Energy>
62.8721

> <b_lp_Chiralities_Consistent>
1

> <s_lp_Variant>
AV-unprocessed.smi:290-16

> <Gold.Version>
5.8.1

> <Gold.Id.Protein>
6NUR|6NUR_protein|mol2

> <Gold.PLP.Fitness>
51.8548

> <Gold.PLP.PLP>
-37.5274

> <Gold.PLP.part.hbond>
-4.8556

> <Gold.PLP.part.metal>
0.0000

> <Gold.PLP.part.buried>
0.7464

> <Gold.PLP.part.nonpolar>
-38.0459

> <Gold.PLP.part.repulsive>
3.8627

> <Gold.PLP.ligand.clash>
0.0000

> <Gold.PLP.ligand.torsion>
0.9397

> <Gold.PLP.Chemscore.Hbond>
3.8694

> <Gold.PLP.Chemscore.CHOScore>
1.3487

> <Gold.PLP.Chemscore.Metal>
0.0000

> <Gold.Chemscore.Hbonds>
donor molecule, donor type, donor heavy atom, donor atom, acceptor molecule, acceptor atom, score
      L1  H     7    39       P1  7957  0.72
      L1  H    18    59       P1  7921  1.00
      L1  H    22    54       P1 10747  1.00
      P1  H  7989  7998       L1     7  0.20
      P1  H  8011  8017       L1     7  1.00
      L1  C    10    42       P1  7948  0.33
      L1  C    10    42       P1  7957  0.98

> <Gold.PLP.Chemscore.Internal.Correction>
0.5524

> <Gold.Rescore>
     Score         DG    S(hbond)    S(metal)    S(lipo)     H(rot)  DE(clash)    DE(int)     intcor
      9.17     -17.33       2.97        0.00      96.66       3.67       3.38       4.78       ----

> <Gold.Chemscore.Fitness>
9.1695

> <Gold.Chemscore.DG>
-17.3339

> <Gold.Chemscore.ZeroCoef>
-5.4800

> <Gold.Chemscore.Hbond>
2.9729

> <Gold.Chemscore.Metal>
0.0000

> <Gold.Chemscore.Lipo>
96.6563

> <Gold.Chemscore.Internal_Hbond>
0.0000

> <Gold.Chemscore.DEClash>
3.3806

> <Gold.Chemscore.DEInternal>
4.7837

> <Gold.Chemscore.Rot>
3.6658

> <Gold.Chemscore.Internal.Correction>
   9.000000E+99

> <Gold.Chemscore.Hbonds>
donor molecule, donor type, donor heavy atom, donor atom, acceptor molecule, acceptor atom, score
      L1  H     7    39       P1  7957  0.72
      L1  H    18    59       P1  7921  0.72
      L1  H    22    54       P1 10747  0.98
      P1  H  7989  7998       L1     7  0.01
      P1  H  8011  8017       L1     7  0.29

> <Gold.Chemscore.Hbond.Weighted>
-9.9295

> <Gold.Chemscore.Metal.Weighted>
-0.0000

> <Gold.Chemscore.Lipo.Weighted>
-11.3088

> <Gold.Chemscore.Internal_Hbond.Weighted>
0.0000

> <Gold.Chemscore.DEClash.Weighted>
3.3806

> <Gold.Chemscore.DEInternal.Weighted>
4.7837

> <Gold.Chemscore.Rot.Weighted>
9.3844

> <Gold.Chemscore.Internal.Correction.Weighted>
   9.000000E+99

> <Gold.Protein.RotatedTorsions>
[ 6907 6896 6895 6894 ] final  -68.00 input  -60.11 | X-H torsion
[ 7974 7965 7964 7962 ] final  -22.75 input  175.53 | X-H torsion
[ 8008 7997 7996 7995 ] final  171.90 input   59.86 | X-H torsion
[ 10167 10162 10161 10158 ] final   82.67 input  -65.29 | X-H torsion
[ 10718 10713 10712 10709 ] final  -19.29 input   66.30 | X-H torsion
[ 10763 10752 10751 10750 ] final   58.54 input  -60.55 | X-H torsion
[ 11005 11000 10999 10996 ] final   68.04 input  -57.11 | X-H torsion

> <Gold.Protein.ActiveResidues>
 VAL166  LYS551  ARG553  GLY616  TRP617  ASP618  TYR619  PRO620  LYS621  CYS622 
 ASP623  PHE694  ASN695  SER759  ASP760  ASP761  ALA762  ILE779  LEU786  VAL792 
 PHE793  MET794  SER795  GLU796  ALA797  LYS798  CYS799  TRP800  GLU811  SER814 

> <Gold.Protein.RotatedAtoms>
  150.7379  134.5801  159.5934 H   0  0  0  0  0  0  0  0  0  0  0  0  # atno 6907 bound_to 6896
  152.3217  134.7369  160.0321 H   0  0  0  0  0  0  0  0  0  0  0  0  # atno 6908 bound_to 6896
  151.7882  133.3321  159.3528 H   0  0  0  0  0  0  0  0  0  0  0  0  # atno 6909 bound_to 6896
  146.1657  140.4522  142.8553 H   0  0  0  0  0  0  0  0  0  0  0  0  # atno 7974 bound_to 7965
  156.1226  140.1500  156.9182 H   0  0  0  0  0  0  0  0  0  0  0  0  # atno 8008 bound_to 7997
  154.4847  140.0868  156.7501 H   0  0  0  0  0  0  0  0  0  0  0  0  # atno 8009 bound_to 7997
  155.4400  140.3430  155.4291 H   0  0  0  0  0  0  0  0  0  0  0  0  # atno 8010 bound_to 7997
  139.9264  144.6180  150.8389 H   0  0  0  0  0  0  0  0  0  0  0  0  # atno 10167 bound_to 10162
  156.5476  130.4694  149.6467 H   0  0  0  0  0  0  0  0  0  0  0  0  # atno 10718 bound_to 10713
  152.9873  135.5603  154.5569 H   0  0  0  0  0  0  0  0  0  0  0  0  # atno 10763 bound_to 10752
  154.4995  135.2796  155.1434 H   0  0  0  0  0  0  0  0  0  0  0  0  # atno 10764 bound_to 10752
  154.2870  135.6333  153.5423 H   0  0  0  0  0  0  0  0  0  0  0  0  # atno 10765 bound_to 10752
  139.9735  134.6861  156.0400 H   0  0  0  0  0  0  0  0  0  0  0  0  # atno 11005 bound_to 11000
  144.8089  140.6350  143.6428 LP  0  0  0  0  0  0  0  0  0  0  0  0  # atno 17320 bound_to 7965
  145.4473  139.1528  143.3937 LP  0  0  0  0  0  0  0  0  0  0  0  0  # atno 17321 bound_to 7965
  140.7649  143.3261  151.2513 LP  0  0  0  0  0  0  0  0  0  0  0  0  # atno 17342 bound_to 10162
  139.6819  143.9840  152.2813 LP  0  0  0  0  0  0  0  0  0  0  0  0  # atno 17343 bound_to 10162
  156.2914  130.7126  151.1975 LP  0  0  0  0  0  0  0  0  0  0  0  0  # atno 17370 bound_to 10713
  157.7393  131.0530  150.5237 LP  0  0  0  0  0  0  0  0  0  0  0  0  # atno 17371 bound_to 10713
  141.1413  133.6564  156.3739 LP  0  0  0  0  0  0  0  0  0  0  0  0  # atno 17394 bound_to 11000
  140.5244  134.6273  157.5329 LP  0  0  0  0  0  0  0  0  0  0  0  0  # atno 17395 bound_to 11000

$$$$
