AV-unprocessed.smi:3315|AV-procd|sdf|12750|dock9
  -GOLD-   2272019 93D 1   1.00000     0.00000
 Structure written by MMmdl.
 37 38  0  0  0  0  0  0  0  0  1 V2000
  146.1545  142.7822  154.4466 C   0  0  0  0  0  0  0  0  0  0  0  0
  146.5384  141.4777  154.8639 O   0  0  0  0  0  0  0  0  0  0  0  0
  147.6362  140.8620  154.1758 C   0  0  2  0  0  0  0  0  0  0  0  0
  148.8941  141.7333  154.2824 C   0  0  0  0  0  0  0  0  0  0  0  0
  147.1817  140.3537  152.7935 C   0  0  0  0  0  0  0  0  0  0  0  0
  146.6600  139.1085  153.5079 C   0  0  1  0  0  0  0  0  0  0  0  0
  146.8586  137.8874  152.7343 N   0  0  0  0  0  0  0  0  0  0  0  0
  145.8733  137.0521  152.3777 C   0  0  0  0  0  0  0  0  0  0  0  0
  144.6925  137.2331  152.6747 O   0  0  0  0  0  0  0  0  0  0  0  0
  146.3488  136.0117  151.6729 N   0  0  0  0  0  0  0  0  0  0  0  0
  145.6286  134.9296  151.1041 C   0  0  0  0  0  0  0  0  0  0  0  0
  144.2321  134.9017  150.8189 C   0  0  0  0  0  0  0  0  0  0  0  0
  144.0585  133.6570  150.2844 C   0  0  0  0  0  0  0  0  0  0  0  0
  145.2377  132.9824  150.2438 O   0  0  0  0  0  0  0  0  0  0  0  0
  146.2394  133.8067  150.7703 N   0  0  0  0  0  0  0  0  0  0  0  0
  147.7153  139.3629  154.6148 C   0  0  0  0  0  0  0  0  0  0  0  0
  149.0842  138.6785  154.4366 C   0  0  0  0  0  0  0  0  0  0  0  0
  147.2752  139.0457  156.0481 C   0  0  0  0  0  0  0  0  0  0  0  0
  145.2193  143.0508  154.9373 H   0  0  0  0  0  0  0  0  0  0  0  0
  145.9923  142.8447  153.3712 H   0  0  0  0  0  0  0  0  0  0  0  0
  146.8938  143.5294  154.7342 H   0  0  0  0  0  0  0  0  0  0  0  0
  149.7658  141.2405  153.8535 H   0  0  0  0  0  0  0  0  0  0  0  0
  149.1275  141.9642  155.3219 H   0  0  0  0  0  0  0  0  0  0  0  0
  148.7856  142.6754  153.7457 H   0  0  0  0  0  0  0  0  0  0  0  0
  146.4098  140.9389  152.2952 H   0  0  0  0  0  0  0  0  0  0  0  0
  148.0167  140.1544  152.1195 H   0  0  0  0  0  0  0  0  0  0  0  0
  145.6343  139.2474  153.8577 H   0  0  0  0  0  0  0  0  0  0  0  0
  147.8029  137.6689  152.4525 H   0  0  0  0  0  0  0  0  0  0  0  0
  147.3467  135.9909  151.5228 H   0  0  0  0  0  0  0  0  0  0  0  0
  143.4742  135.6549  150.9705 H   0  0  0  0  0  0  0  0  0  0  0  0
  143.1977  133.1287  149.9019 H   0  0  0  0  0  0  0  0  0  0  0  0
  149.0201  137.6014  154.5951 H   0  0  0  0  0  0  0  0  0  0  0  0
  149.8186  139.0640  155.1446 H   0  0  0  0  0  0  0  0  0  0  0  0
  149.4931  138.8277  153.4372 H   0  0  0  0  0  0  0  0  0  0  0  0
  147.3063  137.9746  156.2510 H   0  0  0  0  0  0  0  0  0  0  0  0
  146.2523  139.3687  156.2417 H   0  0  0  0  0  0  0  0  0  0  0  0
  147.9155  139.5397  156.7793 H   0  0  0  0  0  0  0  0  0  0  0  0
  1  2  1  0  0  0  0
  1 19  1  0  0  0  0
  1 20  1  0  0  0  0
  1 21  1  0  0  0  0
  2  3  1  0  0  0  0
  3 16  1  0  0  0  0
  3  4  1  0  0  0  0
  3  5  1  0  0  0  0
  4 22  1  0  0  0  0
  4 23  1  0  0  0  0
  4 24  1  0  0  0  0
  5  6  1  0  0  0  0
  5 25  1  0  0  0  0
  5 26  1  0  0  0  0
  6  7  1  0  0  0  0
  6 16  1  0  0  0  0
  6 27  1  0  0  0  0
  7  8  1  0  0  0  0
  7 28  1  0  0  0  0
  8  9  2  0  0  0  0
  8 10  1  0  0  0  0
 10 11  1  0  0  0  0
 10 29  1  0  0  0  0
 11 15  2  0  0  0  0
 11 12  1  0  0  0  0
 12 13  2  0  0  0  0
 12 30  1  0  0  0  0
 13 14  1  0  0  0  0
 13 31  1  0  0  0  0
 14 15  1  0  0  0  0
 16 17  1  0  0  0  0
 16 18  1  0  0  0  0
 17 32  1  0  0  0  0
 17 33  1  0  0  0  0
 17 34  1  0  0  0  0
 18 35  1  0  0  0  0
 18 36  1  0  0  0  0
 18 37  1  0  0  0  0
M  END
> <s_m_source_file>
AV-unprocessed.smi

> <i_m_source_file_index>
3315

> <i_lp_mmshare_version>
43012

> <i_f3d_flags>
0

> <s_epik_input>
W0NIM11PW0NAQF0xKFtDSDNdKVtDSDJdW0NASF0oQzEoW0NIM10pW0NIM10pW05IXUMoPU8pW05IXWMyW2NIXVtjSF1vbjI=

> <s_epik_cmdline>
J2VwaWtfcHl0aG9uJywgJy1waCcsICc3LjAnLCAnLXRuJywgJzgnLCAnLW1hJywgJzIwMCcsICctbWV0YWxfYmluZGluZycsICctaW1hZScsICc8aW5maWxlLm1hZT4nLCAnLW9tYWUnLCAnPG91dGZpbGUubWFlPic=

> <r_lp_tautomer_probability>
1

> <r_epik_Ionization_Penalty>
2.28875e-05

> <r_epik_Ionization_Penalty_Charging>
0

> <r_epik_Ionization_Penalty_Neutral>
2.28875e-05

> <r_epik_State_Penalty>
-0

> <r_epik_Charging_Adjusted_Penalty>
0

> <i_epik_Tot_Q>
0

> <i_epik_Tot_abs_Q>
0

> <r_epik_Metal_State_Penalty>
-0

> <b_epik_Metal_Only>
0

> <s_lp_Force_Field>
OPLS_2005

> <r_lp_Energy>
24.1983

> <b_lp_Chiralities_Consistent>
1

> <s_lp_Variant>
AV-unprocessed.smi:3315-2

> <Gold.Version>
5.8.1

> <Gold.Id.Protein>
6NUR|6NUR_protein|mol2

> <Gold.PLP.Fitness>
32.7281

> <Gold.PLP.PLP>
-24.8866

> <Gold.PLP.part.hbond>
-2.0000

> <Gold.PLP.part.metal>
0.0000

> <Gold.PLP.part.buried>
-1.5911

> <Gold.PLP.part.nonpolar>
-22.7735

> <Gold.PLP.part.repulsive>
0.8157

> <Gold.PLP.ligand.clash>
0.0000

> <Gold.PLP.ligand.torsion>
0.2973

> <Gold.PLP.Chemscore.Hbond>
1.8960

> <Gold.PLP.Chemscore.CHOScore>
0.7915

> <Gold.PLP.Chemscore.Metal>
0.0000

> <Gold.Chemscore.Hbonds>
donor molecule, donor type, donor heavy atom, donor atom, acceptor molecule, acceptor atom, score
      L1  H     7    28       P1  7948  0.88
      L1  H    10    29       P1  7948  1.00
      L1  C    13    31       P1 10186  0.71

> <Gold.PLP.Chemscore.Internal.Correction>
0.3736

> <Gold.Rescore>
     Score         DG    S(hbond)    S(metal)    S(lipo)     H(rot)  DE(clash)    DE(int)     intcor
     13.89     -15.28       1.89        0.00      58.43       1.30       0.19       1.20       ----

> <Gold.Chemscore.Fitness>
13.8889

> <Gold.Chemscore.DG>
-15.2765

> <Gold.Chemscore.ZeroCoef>
-5.4800

> <Gold.Chemscore.Hbond>
1.8855

> <Gold.Chemscore.Metal>
0.0000

> <Gold.Chemscore.Lipo>
58.4331

> <Gold.Chemscore.Internal_Hbond>
0.0000

> <Gold.Chemscore.DEClash>
0.1905

> <Gold.Chemscore.DEInternal>
1.1970

> <Gold.Chemscore.Rot>
1.3038

> <Gold.Chemscore.Internal.Correction>
   9.000000E+99

> <Gold.Chemscore.Hbonds>
donor molecule, donor type, donor heavy atom, donor atom, acceptor molecule, acceptor atom, score
      L1  H     7    28       P1  7948  0.86
      L1  H    10    29       P1  7948  0.99

> <Gold.Chemscore.Hbond.Weighted>
-6.2975

> <Gold.Chemscore.Metal.Weighted>
-0.0000

> <Gold.Chemscore.Lipo.Weighted>
-6.8367

> <Gold.Chemscore.Internal_Hbond.Weighted>
0.0000

> <Gold.Chemscore.DEClash.Weighted>
0.1905

> <Gold.Chemscore.DEInternal.Weighted>
1.1970

> <Gold.Chemscore.Rot.Weighted>
3.3377

> <Gold.Chemscore.Internal.Correction.Weighted>
   9.000000E+99

> <Gold.Protein.RotatedTorsions>
[ 6907 6896 6895 6894 ] final  -43.30 input  -60.11 | X-H torsion
[ 7974 7965 7964 7962 ] final  -19.29 input  175.53 | X-H torsion
[ 8008 7997 7996 7995 ] final  -52.33 input   59.86 | X-H torsion
[ 10167 10162 10161 10158 ] final  -55.46 input  -65.29 | X-H torsion
[ 10718 10713 10712 10709 ] final  126.13 input   66.30 | X-H torsion
[ 10763 10752 10751 10750 ] final    1.12 input  -60.55 | X-H torsion
[ 11005 11000 10999 10996 ] final  -64.55 input  -57.11 | X-H torsion

> <Gold.Protein.ActiveResidues>
 VAL166  LYS551  ARG553  GLY616  TRP617  ASP618  TYR619  PRO620  LYS621  CYS622 
 ASP623  PHE694  ASN695  SER759  ASP760  ASP761  ALA762  ILE779  LEU786  VAL792 
 PHE793  MET794  SER795  GLU796  ALA797  LYS798  CYS799  TRP800  GLU811  SER814 

> <Gold.Protein.RotatedAtoms>
  150.9455  134.8860  159.7638 H   0  0  0  0  0  0  0  0  0  0  0  0  # atno 6907 bound_to 6896
  152.5098  134.3881  159.9384 H   0  0  0  0  0  0  0  0  0  0  0  0  # atno 6908 bound_to 6896
  151.3899  133.3752  159.2754 H   0  0  0  0  0  0  0  0  0  0  0  0  # atno 6909 bound_to 6896
  146.1849  140.4041  142.8480 H   0  0  0  0  0  0  0  0  0  0  0  0  # atno 7974 bound_to 7965
  154.4104  140.1226  156.4973 H   0  0  0  0  0  0  0  0  0  0  0  0  # atno 8008 bound_to 7997
  155.6930  140.3495  155.4882 H   0  0  0  0  0  0  0  0  0  0  0  0  # atno 8009 bound_to 7997
  155.9452  140.1094  157.1012 H   0  0  0  0  0  0  0  0  0  0  0  0  # atno 8010 bound_to 7997
  140.6373  143.2489  151.5083 H   0  0  0  0  0  0  0  0  0  0  0  0  # atno 10167 bound_to 10162
  157.5445  131.1096  150.8804 H   0  0  0  0  0  0  0  0  0  0  0  0  # atno 10718 bound_to 10713
  153.3120  135.6963  153.7107 H   0  0  0  0  0  0  0  0  0  0  0  0  # atno 10763 bound_to 10752
  153.5981  135.3467  155.2936 H   0  0  0  0  0  0  0  0  0  0  0  0  # atno 10764 bound_to 10752
  154.8577  135.4334  154.2260 H   0  0  0  0  0  0  0  0  0  0  0  0  # atno 10765 bound_to 10752
  141.1428  133.6667  156.5851 H   0  0  0  0  0  0  0  0  0  0  0  0  # atno 11005 bound_to 11000
  144.8379  140.6811  143.6248 LP  0  0  0  0  0  0  0  0  0  0  0  0  # atno 17320 bound_to 7965
  145.3968  139.1605  143.4199 LP  0  0  0  0  0  0  0  0  0  0  0  0  # atno 17321 bound_to 7965
  139.5583  144.2219  152.1650 LP  0  0  0  0  0  0  0  0  0  0  0  0  # atno 17342 bound_to 10162
  140.1480  144.5141  150.6704 LP  0  0  0  0  0  0  0  0  0  0  0  0  # atno 17343 bound_to 10162
  156.9347  130.5362  149.5279 LP  0  0  0  0  0  0  0  0  0  0  0  0  # atno 17370 bound_to 10713
  156.0524  130.5591  150.9019 LP  0  0  0  0  0  0  0  0  0  0  0  0  # atno 17371 bound_to 10713
  140.3807  134.7526  157.4659 LP  0  0  0  0  0  0  0  0  0  0  0  0  # atno 17394 bound_to 11000
  140.0640  134.5956  155.8717 LP  0  0  0  0  0  0  0  0  0  0  0  0  # atno 17395 bound_to 11000

$$$$
