AV-unprocessed.smi:72|AV-procd|sdf|713|dock5
  -GOLD-   2262017 33D 1   1.00000     0.00000
 Structure written by MMmdl.
 28 29  0  0  0  0  0  0  0  0  2 V2000
  154.0268  138.0260  155.0714 N   0  0  0  0  0  0  0  0  0  0  0  0
  152.8135  138.3654  155.1085 C   0  0  0  0  0  0  0  0  0  0  0  0
  151.7979  137.4922  154.5633 N   0  0  0  0  0  0  0  0  0  0  0  0
  150.5667  137.9007  154.5968 C   0  0  0  0  0  0  0  0  0  0  0  0
  150.1997  139.2027  155.1450 N   0  0  0  0  0  0  0  0  0  0  0  0
  148.7608  139.6967  155.1943 C   0  0  2  0  0  0  0  0  0  0  0  0
  147.9063  138.7400  154.6346 O   0  0  0  0  0  0  0  0  0  0  0  0
  147.6204  139.0802  153.2808 C   0  0  1  0  0  0  0  0  0  0  0  0
  146.3852  138.3234  152.7627 C   0  0  0  0  0  0  0  0  0  0  0  0
  146.0508  138.7723  151.4665 O   0  0  0  0  0  0  0  0  0  0  0  0
  147.4829  140.6032  153.3631 C   0  0  1  0  0  0  0  0  0  0  0  0
  146.1911  140.9616  153.8281 O   0  0  0  0  0  0  0  0  0  0  0  0
  148.5888  140.9791  154.3492 C   0  0  1  0  0  0  0  0  0  0  0  0
  148.2624  142.1211  155.1195 O   0  0  0  0  0  0  0  0  0  0  0  0
  151.2161  140.0154  155.7168 C   0  0  0  0  0  0  0  0  0  0  0  0
  150.8848  141.0871  156.2243 O   0  0  0  0  0  0  0  0  0  0  0  0
  152.5059  139.5788  155.6816 N   0  5  0  0  0  0  0  0  0  0  0  0
  148.5333  139.8147  156.2552 H   0  0  0  0  0  0  0  0  0  0  0  0
  148.4857  138.8523  152.6556 H   0  0  0  0  0  0  0  0  0  0  0  0
  147.6357  141.0758  152.3924 H   0  0  0  0  0  0  0  0  0  0  0  0
  149.5085  141.1734  153.7951 H   0  0  0  0  0  0  0  0  0  0  0  0
  154.1588  137.1250  154.6354 H   0  0  0  0  0  0  0  0  0  0  0  0
  149.7442  137.2936  154.2191 H   0  0  0  0  0  0  0  0  0  0  0  0
  146.5509  137.2457  152.7575 H   0  0  0  0  0  0  0  0  0  0  0  0
  145.5274  138.5192  153.4067 H   0  0  0  0  0  0  0  0  0  0  0  0
  145.3096  139.3545  151.5330 H   0  0  0  0  0  0  0  0  0  0  0  0
  145.6048  140.9704  153.0865 H   0  0  0  0  0  0  0  0  0  0  0  0
  148.8786  142.8060  154.9052 H   0  0  0  0  0  0  0  0  0  0  0  0
  1  2  2  0  0  0  0
  1 22  1  0  0  0  0
  2 17  1  0  0  0  0
  2  3  1  0  0  0  0
  3  4  2  0  0  0  0
  4  5  1  0  0  0  0
  4 23  1  0  0  0  0
  5  6  1  0  0  0  0
  5 15  1  0  0  0  0
  6 18  1  0  0  0  0
  6 13  1  0  0  0  0
  6  7  1  0  0  0  0
  7  8  1  0  0  0  0
  8 19  1  0  0  0  0
  8  9  1  0  0  0  0
  8 11  1  0  0  0  0
  9 10  1  0  0  0  0
  9 24  1  0  0  0  0
  9 25  1  0  0  0  0
 10 26  1  0  0  0  0
 11 20  1  0  0  0  0
 11 12  1  0  0  0  0
 11 13  1  0  0  0  0
 12 27  1  0  0  0  0
 13 21  1  0  0  0  0
 13 14  1  0  0  0  0
 14 28  1  0  0  0  0
 15 16  2  0  0  0  0
 15 17  1  0  0  0  0
M  CHG  1  17  -1
M  END
> <s_m_source_file>
AV-unprocessed.smi

> <i_m_source_file_index>
72

> <i_lp_mmshare_version>
43012

> <i_f3d_flags>
0

> <s_epik_input>
W05IMl1jMW5bY0hdbihjKD1PKW4xKVtDQEBIXTJPW0NASF0oW0NIMl1bT0hdKVtDQEBIXShbT0hdKVtDQEhdMltPSF0=

> <s_epik_cmdline>
J2VwaWtfcHl0aG9uJywgJy1waCcsICc3LjAnLCAnLXRuJywgJzgnLCAnLW1hJywgJzIwMCcsICctbWV0YWxfYmluZGluZycsICctaW1hZScsICc8aW5maWxlLm1hZT4nLCAnLW9tYWUnLCAnPG91dGZpbGUubWFlPic=

> <r_lp_tautomer_probability>
7.17554e-07

> <r_epik_Ionization_Penalty>
12.8705

> <r_epik_Ionization_Penalty_Charging>
5.64144

> <r_epik_Ionization_Penalty_Neutral>
7.22905

> <r_epik_State_Penalty>
3.30104

> <r_epik_Charging_Adjusted_Penalty>
8.94249

> <i_epik_Tot_Q>
-1

> <i_epik_Tot_abs_Q>
1

> <r_epik_Metal_State_Penalty>
0.529074

> <b_epik_Metal_Only>
1

> <s_epik_Chemistry_Notes>
This compound contains an acetal/aminal-like group ( X-CH(R)-Y where X, Y are N, S, or O) that may be acid/base labile, releasing an aldehyde.

> <s_lp_Force_Field>
OPLS_2005

> <r_lp_Energy>
36.0241

> <b_lp_Chiralities_Consistent>
1

> <s_lp_Variant>
AV-unprocessed.smi:72-51

> <Gold.Version>
5.8.1

> <Gold.Id.Protein>
6NUR|6NUR_protein|mol2

> <Gold.PLP.Fitness>
50.3331

> <Gold.PLP.PLP>
-32.0051

> <Gold.PLP.part.hbond>
-8.2589

> <Gold.PLP.part.metal>
0.0000

> <Gold.PLP.part.buried>
-4.3997

> <Gold.PLP.part.nonpolar>
-22.0907

> <Gold.PLP.part.repulsive>
0.3312

> <Gold.PLP.ligand.clash>
0.0000

> <Gold.PLP.ligand.torsion>
0.0271

> <Gold.PLP.Chemscore.Hbond>
5.1198

> <Gold.PLP.Chemscore.CHOScore>
1.0000

> <Gold.PLP.Chemscore.Metal>
0.0000

> <Gold.Chemscore.Hbonds>
donor molecule, donor type, donor heavy atom, donor atom, acceptor molecule, acceptor atom, score
      L1  H    10    26       P1 10175  0.67
      L1  H    12    27       P1 10175  0.80
      L1  H    14    28       P1  8028  0.51
      P1  H  7997  8010       L1    17  1.80
      P1  H 10752 10765       L1     3  0.59
      L1  C     4    23       P1  7948  0.64

> <Gold.PLP.Chemscore.Internal.Correction>
0.0229

> <Gold.Rescore>
     Score         DG    S(hbond)    S(metal)    S(lipo)     H(rot)  DE(clash)    DE(int)     intcor
      7.92      -8.34       3.03        0.00      26.52       4.04       0.22       0.20       ----

> <Gold.Chemscore.Fitness>
7.9197

> <Gold.Chemscore.DG>
-8.3447

> <Gold.Chemscore.ZeroCoef>
-5.4800

> <Gold.Chemscore.Hbond>
3.0254

> <Gold.Chemscore.Metal>
0.0000

> <Gold.Chemscore.Lipo>
26.5204

> <Gold.Chemscore.Internal_Hbond>
0.0000

> <Gold.Chemscore.DEClash>
0.2217

> <Gold.Chemscore.DEInternal>
0.2032

> <Gold.Chemscore.Rot>
4.0403

> <Gold.Chemscore.Internal.Correction>
   9.000000E+99

> <Gold.Chemscore.Hbonds>
donor molecule, donor type, donor heavy atom, donor atom, acceptor molecule, acceptor atom, score
      L1  H    10    26       P1 10175  0.49
      L1  H    12    27       P1 10175  0.30
      L1  H    14    28       P1  8028  0.47
      P1  H  7997  8010       L1    17  0.17
      P1  H 10752 10765       L1     3  0.14

> <Gold.Chemscore.Hbond.Weighted>
-10.1049

> <Gold.Chemscore.Metal.Weighted>
-0.0000

> <Gold.Chemscore.Lipo.Weighted>
-3.1029

> <Gold.Chemscore.Internal_Hbond.Weighted>
0.0000

> <Gold.Chemscore.DEClash.Weighted>
0.2217

> <Gold.Chemscore.DEInternal.Weighted>
0.2032

> <Gold.Chemscore.Rot.Weighted>
10.3431

> <Gold.Chemscore.Internal.Correction.Weighted>
   9.000000E+99

> <Gold.Protein.RotatedTorsions>
[ 6907 6896 6895 6894 ] final   -1.91 input  -60.11 | X-H torsion
[ 7974 7965 7964 7962 ] final -169.23 input  175.53 | X-H torsion
[ 8008 7997 7996 7995 ] final   86.82 input   59.86 | X-H torsion
[ 10167 10162 10161 10158 ] final  -25.00 input  -65.29 | X-H torsion
[ 10718 10713 10712 10709 ] final -124.24 input   66.30 | X-H torsion
[ 10763 10752 10751 10750 ] final  155.37 input  -60.55 | X-H torsion
[ 11005 11000 10999 10996 ] final  143.77 input  -57.11 | X-H torsion

> <Gold.Protein.ActiveResidues>
 VAL166  LYS551  ARG553  GLY616  TRP617  ASP618  TYR619  PRO620  LYS621  CYS622 
 ASP623  PHE694  ASN695  SER759  ASP760  ASP761  ALA762  ILE779  LEU786  VAL792 
 PHE793  MET794  SER795  GLU796  ALA797  LYS798  CYS799  TRP800  GLU811  SER814 

> <Gold.Protein.RotatedAtoms>
  151.5384  135.1068  159.9920 H   0  0  0  0  0  0  0  0  0  0  0  0  # atno 6907 bound_to 6896
  152.4546  133.7694  159.6801 H   0  0  0  0  0  0  0  0  0  0  0  0  # atno 6908 bound_to 6896
  150.8486  133.7757  159.3058 H   0  0  0  0  0  0  0  0  0  0  0  0  # atno 6909 bound_to 6896
  144.7189  140.2252  143.6311 H   0  0  0  0  0  0  0  0  0  0  0  0  # atno 7974 bound_to 7965
  155.9677  140.3388  155.6547 H   0  0  0  0  0  0  0  0  0  0  0  0  # atno 8008 bound_to 7997
  155.6716  140.0727  157.2536 H   0  0  0  0  0  0  0  0  0  0  0  0  # atno 8009 bound_to 7997
  154.4158  140.1690  156.1873 H   0  0  0  0  0  0  0  0  0  0  0  0  # atno 8010 bound_to 7997
  140.7287  143.4303  151.0812 H   0  0  0  0  0  0  0  0  0  0  0  0  # atno 10167 bound_to 10162
  156.1570  130.6575  150.9996 H   0  0  0  0  0  0  0  0  0  0  0  0  # atno 10718 bound_to 10713
  154.1672  135.2806  155.3091 H   0  0  0  0  0  0  0  0  0  0  0  0  # atno 10763 bound_to 10752
  154.6102  135.5501  153.7469 H   0  0  0  0  0  0  0  0  0  0  0  0  # atno 10764 bound_to 10752
  153.0175  135.6413  154.1813 H   0  0  0  0  0  0  0  0  0  0  0  0  # atno 10765 bound_to 10752
  140.0580  134.9220  157.1134 H   0  0  0  0  0  0  0  0  0  0  0  0  # atno 11005 bound_to 11000
  145.8463  139.2154  143.1798 LP  0  0  0  0  0  0  0  0  0  0  0  0  # atno 17320 bound_to 7965
  146.0301  140.8266  142.9880 LP  0  0  0  0  0  0  0  0  0  0  0  0  # atno 17321 bound_to 7965
  139.7960  143.8151  152.3157 LP  0  0  0  0  0  0  0  0  0  0  0  0  # atno 17342 bound_to 10162
  139.8151  144.7319  150.9645 LP  0  0  0  0  0  0  0  0  0  0  0  0  # atno 17343 bound_to 10162
  157.6703  131.0863  150.7628 LP  0  0  0  0  0  0  0  0  0  0  0  0  # atno 17370 bound_to 10713
  156.7693  130.4823  149.5421 LP  0  0  0  0  0  0  0  0  0  0  0  0  # atno 17371 bound_to 10713
  140.3814  134.2283  155.7171 LP  0  0  0  0  0  0  0  0  0  0  0  0  # atno 17394 bound_to 11000
  141.1960  133.8091  157.0689 LP  0  0  0  0  0  0  0  0  0  0  0  0  # atno 17395 bound_to 11000

$$$$
