AV-unprocessed.smi:3282|AV-procd|sdf|12563|dock3
  -GOLD-   2272018483D 1   1.00000     0.00000
 Structure written by MMmdl.
 34 35  0  0  0  0  0  0  0  0  1 V2000
  152.9527  142.2115  162.5623 C   0  0  0  0  0  0  0  0  0  0  0  0
  153.5892  142.5572  161.2062 C   0  0  0  0  0  0  0  0  0  0  0  0
  153.0234  141.7421  160.0311 C   0  0  0  0  0  0  0  0  0  0  0  0
  153.1455  140.5161  160.0199 O   0  0  0  0  0  0  0  0  0  0  0  0
  152.4029  142.4074  159.0347 N   0  0  0  0  0  0  0  0  0  0  0  0
  152.2250  143.8569  159.0232 C   0  0  0  0  0  0  0  0  0  0  0  0
  151.2761  144.1549  157.8627 C   0  0  0  0  0  0  0  0  0  0  0  0
  151.4418  142.9702  156.9153 C   0  0  2  0  0  0  0  0  0  0  0  0
  150.2177  142.7060  156.1656 N   0  0  0  0  0  0  0  0  0  0  0  0
  149.9963  141.6276  155.3996 C   0  0  0  0  0  0  0  0  0  0  0  0
  150.8476  140.7440  155.2584 O   0  0  0  0  0  0  0  0  0  0  0  0
  148.7474  141.7066  154.8035 N   0  0  0  0  0  0  0  0  0  0  0  0
  148.2602  140.6553  154.2189 C   0  0  0  0  0  0  0  0  0  0  0  0
  148.7561  139.3697  154.0166 N   0  0  0  0  0  0  0  0  0  0  0  0
  147.8200  138.6575  153.3203 C   0  0  0  0  0  0  0  0  0  0  0  0
  146.7807  139.4550  153.0927 C   0  0  0  0  0  0  0  0  0  0  0  0
  147.0212  140.6838  153.6303 O   0  0  0  0  0  0  0  0  0  0  0  0
  151.8240  141.8032  157.8361 C   0  0  0  0  0  0  0  0  0  0  0  0
  153.3990  142.8063  163.3594 H   0  0  0  0  0  0  0  0  0  0  0  0
  153.0992  141.1608  162.8153 H   0  0  0  0  0  0  0  0  0  0  0  0
  151.8810  142.4138  162.5630 H   0  0  0  0  0  0  0  0  0  0  0  0
  153.4408  143.6178  161.0015 H   0  0  0  0  0  0  0  0  0  0  0  0
  154.6651  142.3917  161.2684 H   0  0  0  0  0  0  0  0  0  0  0  0
  151.8244  144.2292  159.9674 H   0  0  0  0  0  0  0  0  0  0  0  0
  153.1933  144.3307  158.8557 H   0  0  0  0  0  0  0  0  0  0  0  0
  150.2537  144.1937  158.2427 H   0  0  0  0  0  0  0  0  0  0  0  0
  151.4860  145.1109  157.3822 H   0  0  0  0  0  0  0  0  0  0  0  0
  152.2689  143.1819  156.2349 H   0  0  0  0  0  0  0  0  0  0  0  0
  149.4853  143.3985  156.2281 H   0  0  0  0  0  0  0  0  0  0  0  0
  149.6420  138.9867  154.3138 H   0  0  0  0  0  0  0  0  0  0  0  0
  148.0032  137.6268  153.0550 H   0  0  0  0  0  0  0  0  0  0  0  0
  145.8383  139.3055  152.5866 H   0  0  0  0  0  0  0  0  0  0  0  0
  152.5210  141.1284  157.3372 H   0  0  0  0  0  0  0  0  0  0  0  0
  150.9438  141.2272  158.1269 H   0  0  0  0  0  0  0  0  0  0  0  0
  1  2  1  0  0  0  0
  1 19  1  0  0  0  0
  1 20  1  0  0  0  0
  1 21  1  0  0  0  0
  2  3  1  0  0  0  0
  2 22  1  0  0  0  0
  2 23  1  0  0  0  0
  3  4  2  0  0  0  0
  3  5  1  0  0  0  0
  5 18  1  0  0  0  0
  5  6  1  0  0  0  0
  6  7  1  0  0  0  0
  6 24  1  0  0  0  0
  6 25  1  0  0  0  0
  7  8  1  0  0  0  0
  7 26  1  0  0  0  0
  7 27  1  0  0  0  0
  8  9  1  0  0  0  0
  8 18  1  0  0  0  0
  8 28  1  0  0  0  0
  9 29  1  0  0  0  0
  9 10  1  0  0  0  0
 10 12  1  0  0  0  0
 10 11  2  0  0  0  0
 12 13  2  0  0  0  0
 13 17  1  0  0  0  0
 13 14  1  0  0  0  0
 14 30  1  0  0  0  0
 14 15  1  0  0  0  0
 15 31  1  0  0  0  0
 15 16  2  0  0  0  0
 16 32  1  0  0  0  0
 16 17  1  0  0  0  0
 18 33  1  0  0  0  0
 18 34  1  0  0  0  0
M  END
> <s_m_source_file>
AV-unprocessed.smi

> <i_m_source_file_index>
3282

> <i_lp_mmshare_version>
43012

> <i_f3d_flags>
0

> <s_epik_input>
W0NIM11bQ0gyXUMoPU8pTjFbQ0gyXVtDSDJdW0NASF0oW0NIMl0xKVtOSF1DKD1PKVtOSF1jMm5bY0hdW2NIXW8y

> <s_epik_cmdline>
J2VwaWtfcHl0aG9uJywgJy1waCcsICc3LjAnLCAnLXRuJywgJzgnLCAnLW1hJywgJzIwMCcsICctbWV0YWxfYmluZGluZycsICctaW1hZScsICc8aW5maWxlLm1hZT4nLCAnLW9tYWUnLCAnPG91dGZpbGUubWFlPic=

> <r_lp_tautomer_probability>
0.107061

> <r_epik_Ionization_Penalty>
0.434703

> <r_epik_Ionization_Penalty_Charging>
0.434345

> <r_epik_Ionization_Penalty_Neutral>
0.000358141

> <r_epik_State_Penalty>
2.49584

> <r_epik_Charging_Adjusted_Penalty>
2.93019

> <i_epik_Tot_Q>
0

> <i_epik_Tot_abs_Q>
0

> <r_epik_Metal_State_Penalty>
4.06361

> <b_epik_Metal_Only>
0

> <s_lp_Force_Field>
OPLS_2005

> <r_lp_Energy>
50.3275

> <b_lp_Chiralities_Consistent>
1

> <s_lp_Variant>
AV-unprocessed.smi:3282-4

> <Gold.Version>
5.8.1

> <Gold.Id.Protein>
6NUR|6NUR_protein|mol2

> <Gold.PLP.Fitness>
44.8306

> <Gold.PLP.PLP>
-33.4583

> <Gold.PLP.part.hbond>
-2.6633

> <Gold.PLP.part.metal>
0.0000

> <Gold.PLP.part.buried>
-2.7475

> <Gold.PLP.part.nonpolar>
-29.0590

> <Gold.PLP.part.repulsive>
0.5740

> <Gold.PLP.ligand.clash>
0.0000

> <Gold.PLP.ligand.torsion>
0.1054

> <Gold.PLP.Chemscore.Hbond>
1.8553

> <Gold.PLP.Chemscore.CHOScore>
2.0000

> <Gold.PLP.Chemscore.Metal>
0.0000

> <Gold.Chemscore.Hbonds>
donor molecule, donor type, donor heavy atom, donor atom, acceptor molecule, acceptor atom, score
      L1  H     9    29       P1  8028  0.94
      P1  H  7989  7998       L1    11  0.85
      L1  C    15    31       P1  7948  1.00
      L1  C    16    32       P1 10175  1.00

> <Gold.PLP.Chemscore.Internal.Correction>
0.0174

> <Gold.Rescore>
     Score         DG    S(hbond)    S(metal)    S(lipo)     H(rot)  DE(clash)    DE(int)     intcor
     13.11     -15.29       1.11        0.00      81.17       1.32       0.88       1.30       ----

> <Gold.Chemscore.Fitness>
13.1109

> <Gold.Chemscore.DG>
-15.2916

> <Gold.Chemscore.ZeroCoef>
-5.4800

> <Gold.Chemscore.Hbond>
1.1060

> <Gold.Chemscore.Metal>
0.0000

> <Gold.Chemscore.Lipo>
81.1677

> <Gold.Chemscore.Internal_Hbond>
0.0000

> <Gold.Chemscore.DEClash>
0.8809

> <Gold.Chemscore.DEInternal>
1.2998

> <Gold.Chemscore.Rot>
1.3199

> <Gold.Chemscore.Internal.Correction>
   9.000000E+99

> <Gold.Chemscore.Hbonds>
donor molecule, donor type, donor heavy atom, donor atom, acceptor molecule, acceptor atom, score
      L1  H     9    29       P1  8028  0.87
      P1  H  7989  7998       L1    11  0.59

> <Gold.Chemscore.Hbond.Weighted>
-3.6940

> <Gold.Chemscore.Metal.Weighted>
-0.0000

> <Gold.Chemscore.Lipo.Weighted>
-9.4966

> <Gold.Chemscore.Internal_Hbond.Weighted>
0.0000

> <Gold.Chemscore.DEClash.Weighted>
0.8809

> <Gold.Chemscore.DEInternal.Weighted>
1.2998

> <Gold.Chemscore.Rot.Weighted>
3.3789

> <Gold.Chemscore.Internal.Correction.Weighted>
   9.000000E+99

> <Gold.Protein.RotatedTorsions>
[ 6907 6896 6895 6894 ] final  155.30 input  -60.11 | X-H torsion
[ 7974 7965 7964 7962 ] final   32.86 input  175.53 | X-H torsion
[ 8008 7997 7996 7995 ] final  -40.65 input   59.86 | X-H torsion
[ 10167 10162 10161 10158 ] final  -11.92 input  -65.29 | X-H torsion
[ 10718 10713 10712 10709 ] final  139.13 input   66.30 | X-H torsion
[ 10763 10752 10751 10750 ] final   46.61 input  -60.55 | X-H torsion
[ 11005 11000 10999 10996 ] final -136.05 input  -57.11 | X-H torsion

> <Gold.Protein.ActiveResidues>
 VAL166  LYS551  ARG553  GLY616  TRP617  ASP618  TYR619  PRO620  LYS621  CYS622 
 ASP623  PHE694  ASN695  SER759  ASP760  ASP761  ALA762  ILE779  LEU786  VAL792 
 PHE793  MET794  SER795  GLU796  ALA797  LYS798  CYS799  TRP800  GLU811  SER814 

> <Gold.Protein.RotatedAtoms>
  152.0461  133.3998  159.4356 H   0  0  0  0  0  0  0  0  0  0  0  0  # atno 6907 bound_to 6896
  150.6872  134.3360  159.4857 H   0  0  0  0  0  0  0  0  0  0  0  0  # atno 6908 bound_to 6896
  152.1165  134.9236  160.0615 H   0  0  0  0  0  0  0  0  0  0  0  0  # atno 6909 bound_to 6896
  146.1459  139.6472  142.9132 H   0  0  0  0  0  0  0  0  0  0  0  0  # atno 7974 bound_to 7965
  154.4010  140.1520  156.3062 H   0  0  0  0  0  0  0  0  0  0  0  0  # atno 8008 bound_to 7997
  155.8656  140.3451  155.5765 H   0  0  0  0  0  0  0  0  0  0  0  0  # atno 8009 bound_to 7997
  155.7831  140.0846  157.2039 H   0  0  0  0  0  0  0  0  0  0  0  0  # atno 8010 bound_to 7997
  140.7150  143.5587  150.9219 H   0  0  0  0  0  0  0  0  0  0  0  0  # atno 10167 bound_to 10162
  157.4178  131.1035  151.0386 H   0  0  0  0  0  0  0  0  0  0  0  0  # atno 10718 bound_to 10713
  152.9809  135.6002  154.3628 H   0  0  0  0  0  0  0  0  0  0  0  0  # atno 10763 bound_to 10752
  154.3308  135.2768  155.2474 H   0  0  0  0  0  0  0  0  0  0  0  0  # atno 10764 bound_to 10752
  154.4599  135.5968  153.6304 H   0  0  0  0  0  0  0  0  0  0  0  0  # atno 10765 bound_to 10752
  140.8841  134.1894  157.4571 H   0  0  0  0  0  0  0  0  0  0  0  0  # atno 11005 bound_to 11000
  145.4939  141.0438  143.2578 LP  0  0  0  0  0  0  0  0  0  0  0  0  # atno 17320 bound_to 7965
  144.7846  139.6455  143.7140 LP  0  0  0  0  0  0  0  0  0  0  0  0  # atno 17321 bound_to 7965
  139.9312  143.6490  152.3076 LP  0  0  0  0  0  0  0  0  0  0  0  0  # atno 17342 bound_to 10162
  139.6942  144.7643  151.1385 LP  0  0  0  0  0  0  0  0  0  0  0  0  # atno 17343 bound_to 10162
  157.1327  130.6109  149.5534 LP  0  0  0  0  0  0  0  0  0  0  0  0  # atno 17370 bound_to 10713
  155.9871  130.4908  150.7108 LP  0  0  0  0  0  0  0  0  0  0  0  0  # atno 17371 bound_to 10713
  139.8722  134.9830  156.5180 LP  0  0  0  0  0  0  0  0  0  0  0  0  # atno 17394 bound_to 11000
  140.8426  133.8193  155.9089 LP  0  0  0  0  0  0  0  0  0  0  0  0  # atno 17395 bound_to 11000

$$$$
