AV-unprocessed.smi:2735|AV-procd|sdf|10541|dock4
  -GOLD-   2272014593D 1   1.00000     0.00000
 Structure written by MMmdl.
 42 42  0  0  0  0  0  0  0  0  2 V2000
  146.4806  138.1552  151.6298 C   0  0  0  0  0  0  0  0  0  0  0  0
  146.4958  138.7342  153.0135 C   0  0  0  0  0  0  0  0  0  0  0  0
  146.1152  138.1119  154.2335 C   0  0  0  0  0  0  0  0  0  0  0  0
  146.3310  139.0703  155.1831 C   0  0  0  0  0  0  0  0  0  0  0  0
  146.1339  139.0065  156.6624 C   0  0  0  0  0  0  0  0  0  0  0  0
  146.7969  140.1987  154.5263 N   0  0  0  0  0  0  0  0  0  0  0  0
  147.2205  141.4790  155.0951 C   0  0  2  0  0  0  0  0  0  0  0  0
  146.4465  142.6804  154.5139 C   0  0  0  0  0  0  0  0  0  0  0  0
  148.7378  141.6509  154.9327 C   0  0  0  0  0  0  0  0  0  0  0  0
  149.2597  141.5694  153.8203 O   0  0  0  0  0  0  0  0  0  0  0  0
  149.4319  141.8830  156.0580 N   0  0  0  0  0  0  0  0  0  0  0  0
  150.8855  142.0059  156.1544 C   0  0  1  0  0  0  0  0  0  0  0  0
  151.2579  142.5367  157.5597 C   0  0  0  0  0  0  0  0  0  0  0  0
  151.3608  144.0751  157.6751 C   0  0  0  0  0  0  0  0  0  0  0  0
  152.8152  144.5625  157.7867 C   0  0  0  0  0  0  0  0  0  0  0  0
  150.5341  144.5824  158.8662 C   0  0  0  0  0  0  0  0  0  0  0  0
  151.5252  140.6187  155.9803 C   0  0  0  0  0  0  0  0  0  0  0  0
  151.2122  139.9759  154.9547 O   0  0  0  0  0  0  0  0  0  0  0  0
  152.3195  140.2255  156.8648 O   0  5  0  0  0  0  0  0  0  0  0  0
  146.9095  139.9763  153.1950 N   0  0  0  0  0  0  0  0  0  0  0  0
  151.2719  142.6737  155.3830 H   0  0  0  0  0  0  0  0  0  0  0  0
  146.1388  137.1200  151.6402 H   0  0  0  0  0  0  0  0  0  0  0  0
  147.4763  138.1713  151.1861 H   0  0  0  0  0  0  0  0  0  0  0  0
  145.8141  138.7183  150.9765 H   0  0  0  0  0  0  0  0  0  0  0  0
  145.7482  137.1085  154.3904 H   0  0  0  0  0  0  0  0  0  0  0  0
  145.7332  138.0373  156.9592 H   0  0  0  0  0  0  0  0  0  0  0  0
  145.4348  139.7730  156.9964 H   0  0  0  0  0  0  0  0  0  0  0  0
  147.0776  139.1507  157.1877 H   0  0  0  0  0  0  0  0  0  0  0  0
  146.9937  141.4499  156.1618 H   0  0  0  0  0  0  0  0  0  0  0  0
  146.7322  143.6066  155.0135 H   0  0  0  0  0  0  0  0  0  0  0  0
  145.3724  142.5545  154.6522 H   0  0  0  0  0  0  0  0  0  0  0  0
  146.6306  142.8143  153.4471 H   0  0  0  0  0  0  0  0  0  0  0  0
  148.9214  141.9232  156.9277 H   0  0  0  0  0  0  0  0  0  0  0  0
  150.5211  142.1834  158.2837 H   0  0  0  0  0  0  0  0  0  0  0  0
  152.2089  142.1002  157.8698 H   0  0  0  0  0  0  0  0  0  0  0  0
  150.9291  144.5209  156.7785 H   0  0  0  0  0  0  0  0  0  0  0  0
  153.3223  144.1079  158.6383 H   0  0  0  0  0  0  0  0  0  0  0  0
  152.8567  145.6445  157.9142 H   0  0  0  0  0  0  0  0  0  0  0  0
  153.3879  144.3260  156.8903 H   0  0  0  0  0  0  0  0  0  0  0  0
  150.9096  144.1815  159.8083 H   0  0  0  0  0  0  0  0  0  0  0  0
  149.4880  144.2894  158.7731 H   0  0  0  0  0  0  0  0  0  0  0  0
  150.5638  145.6703  158.9317 H   0  0  0  0  0  0  0  0  0  0  0  0
  1  2  1  0  0  0  0
  1 22  1  0  0  0  0
  1 23  1  0  0  0  0
  1 24  1  0  0  0  0
  2 20  2  0  0  0  0
  2  3  1  0  0  0  0
  3  4  2  0  0  0  0
  3 25  1  0  0  0  0
  4  5  1  0  0  0  0
  4  6  1  0  0  0  0
  5 26  1  0  0  0  0
  5 27  1  0  0  0  0
  5 28  1  0  0  0  0
  6  7  1  0  0  0  0
  6 20  1  0  0  0  0
  7  8  1  0  0  0  0
  7  9  1  0  0  0  0
  7 29  1  0  0  0  0
  8 30  1  0  0  0  0
  8 31  1  0  0  0  0
  8 32  1  0  0  0  0
  9 10  2  0  0  0  0
  9 11  1  0  0  0  0
 11 12  1  0  0  0  0
 11 33  1  0  0  0  0
 12 21  1  0  0  0  0
 12 13  1  0  0  0  0
 12 17  1  0  0  0  0
 13 14  1  0  0  0  0
 13 34  1  0  0  0  0
 13 35  1  0  0  0  0
 14 15  1  0  0  0  0
 14 16  1  0  0  0  0
 14 36  1  0  0  0  0
 15 37  1  0  0  0  0
 15 38  1  0  0  0  0
 15 39  1  0  0  0  0
 16 40  1  0  0  0  0
 16 41  1  0  0  0  0
 16 42  1  0  0  0  0
 17 18  2  0  0  0  0
 17 19  1  0  0  0  0
M  CHG  1  19  -1
M  END
> <s_m_source_file>
AV-unprocessed.smi

> <i_m_source_file_index>
2735

> <i_lp_mmshare_version>
43012

> <i_f3d_flags>
0

> <s_epik_input>
W0NIM11jMVtjSF1jKFtDSDNdKW4objEpW0NASF0oW0NIM10pQyg9TylbTkhdW0NASF0oQyg9TylbT0hdKVtDSDJdW0NIXShbQ0gzXSlbQ0gzXQ==

> <s_epik_cmdline>
J2VwaWtfcHl0aG9uJywgJy1waCcsICc3LjAnLCAnLXRuJywgJzgnLCAnLW1hJywgJzIwMCcsICctbWV0YWxfYmluZGluZycsICctaW1hZScsICc8aW5maWxlLm1hZT4nLCAnLW9tYWUnLCAnPG91dGZpbGUubWFlPic=

> <r_lp_tautomer_probability>
1

> <r_epik_Ionization_Penalty>
0.0012303

> <r_epik_Ionization_Penalty_Charging>
0.000186407

> <r_epik_Ionization_Penalty_Neutral>
0.0010439

> <r_epik_State_Penalty>
-0

> <r_epik_Charging_Adjusted_Penalty>
0.000186407

> <i_epik_Tot_Q>
-1

> <i_epik_Tot_abs_Q>
1

> <r_epik_Metal_State_Penalty>
-0

> <b_epik_Metal_Only>
0

> <s_lp_Force_Field>
OPLS_2005

> <r_lp_Energy>
6.85708

> <b_lp_Chiralities_Consistent>
1

> <s_lp_Variant>
AV-unprocessed.smi:2735-1

> <Gold.Version>
5.8.1

> <Gold.Id.Protein>
6NUR|6NUR_protein|mol2

> <Gold.PLP.Fitness>
45.4706

> <Gold.PLP.PLP>
-37.3763

> <Gold.PLP.part.hbond>
-4.9600

> <Gold.PLP.part.metal>
0.0000

> <Gold.PLP.part.buried>
-0.2845

> <Gold.PLP.part.nonpolar>
-31.7324

> <Gold.PLP.part.repulsive>
0.5833

> <Gold.PLP.ligand.clash>
0.0000

> <Gold.PLP.ligand.torsion>
1.4742

> <Gold.PLP.Chemscore.Hbond>
3.6400

> <Gold.PLP.Chemscore.CHOScore>
0.0000

> <Gold.PLP.Chemscore.Metal>
0.0000

> <Gold.Chemscore.Hbonds>
donor molecule, donor type, donor heavy atom, donor atom, acceptor molecule, acceptor atom, score
      P1  H  7989  7998       L1    18  1.00
      P1  H  7997  8010       L1    19  1.85
      P1  H  8011  8017       L1    10  0.70

> <Gold.PLP.Chemscore.Internal.Correction>
0.1227

> <Gold.Rescore>
     Score         DG    S(hbond)    S(metal)    S(lipo)     H(rot)  DE(clash)    DE(int)     intcor
     13.04     -18.07       2.50        0.00      85.20       2.24       0.09       4.94       ----

> <Gold.Chemscore.Fitness>
13.0353

> <Gold.Chemscore.DG>
-18.0675

> <Gold.Chemscore.ZeroCoef>
-5.4800

> <Gold.Chemscore.Hbond>
2.5000

> <Gold.Chemscore.Metal>
0.0000

> <Gold.Chemscore.Lipo>
85.2040

> <Gold.Chemscore.Internal_Hbond>
0.0000

> <Gold.Chemscore.DEClash>
0.0924

> <Gold.Chemscore.DEInternal>
4.9398

> <Gold.Chemscore.Rot>
2.2388

> <Gold.Chemscore.Internal.Correction>
   9.000000E+99

> <Gold.Chemscore.Hbonds>
donor molecule, donor type, donor heavy atom, donor atom, acceptor molecule, acceptor atom, score
      P1  H  7989  7998       L1    18  0.78
      P1  H  7997  8010       L1    19  0.84
      P1  H  8011  8017       L1    10  0.70

> <Gold.Chemscore.Hbond.Weighted>
-8.3500

> <Gold.Chemscore.Metal.Weighted>
-0.0000

> <Gold.Chemscore.Lipo.Weighted>
-9.9689

> <Gold.Chemscore.Internal_Hbond.Weighted>
0.0000

> <Gold.Chemscore.DEClash.Weighted>
0.0924

> <Gold.Chemscore.DEInternal.Weighted>
4.9398

> <Gold.Chemscore.Rot.Weighted>
5.7314

> <Gold.Chemscore.Internal.Correction.Weighted>
   9.000000E+99

> <Gold.Protein.RotatedTorsions>
[ 6907 6896 6895 6894 ] final  -49.40 input  -60.11 | X-H torsion
[ 7974 7965 7964 7962 ] final   41.59 input  175.53 | X-H torsion
[ 8008 7997 7996 7995 ] final   69.70 input   59.86 | X-H torsion
[ 10167 10162 10161 10158 ] final  139.78 input  -65.29 | X-H torsion
[ 10718 10713 10712 10709 ] final  137.37 input   66.30 | X-H torsion
[ 10763 10752 10751 10750 ] final  -12.56 input  -60.55 | X-H torsion
[ 11005 11000 10999 10996 ] final -170.67 input  -57.11 | X-H torsion

> <Gold.Protein.ActiveResidues>
 VAL166  LYS551  ARG553  GLY616  TRP617  ASP618  TYR619  PRO620  LYS621  CYS622 
 ASP623  PHE694  ASN695  SER759  ASP760  ASP761  ALA762  ILE779  LEU786  VAL792 
 PHE793  MET794  SER795  GLU796  ALA797  LYS798  CYS799  TRP800  GLU811  SER814 

> <Gold.Protein.RotatedAtoms>
  150.8809  134.8199  159.7223 H   0  0  0  0  0  0  0  0  0  0  0  0  # atno 6907 bound_to 6896
  152.4777  134.4798  159.9672 H   0  0  0  0  0  0  0  0  0  0  0  0  # atno 6908 bound_to 6896
  151.4873  133.3494  159.2883 H   0  0  0  0  0  0  0  0  0  0  0  0  # atno 6909 bound_to 6896
  146.0811  139.5398  142.9536 H   0  0  0  0  0  0  0  0  0  0  0  0  # atno 7974 bound_to 7965
  155.7276  140.3492  155.5045 H   0  0  0  0  0  0  0  0  0  0  0  0  # atno 8008 bound_to 7997
  155.9212  140.1067  157.1227 H   0  0  0  0  0  0  0  0  0  0  0  0  # atno 8009 bound_to 7997
  154.4070  140.1249  156.4668 H   0  0  0  0  0  0  0  0  0  0  0  0  # atno 8010 bound_to 7997
  139.5068  144.6274  151.5904 H   0  0  0  0  0  0  0  0  0  0  0  0  # atno 10167 bound_to 10162
  157.4368  131.1054  151.0188 H   0  0  0  0  0  0  0  0  0  0  0  0  # atno 10718 bound_to 10713
  153.5003  135.7017  153.5836 H   0  0  0  0  0  0  0  0  0  0  0  0  # atno 10763 bound_to 10752
  153.3970  135.3881  155.1962 H   0  0  0  0  0  0  0  0  0  0  0  0  # atno 10764 bound_to 10752
  154.8711  135.3872  154.4472 H   0  0  0  0  0  0  0  0  0  0  0  0  # atno 10765 bound_to 10752
  140.5169  134.5747  157.5036 H   0  0  0  0  0  0  0  0  0  0  0  0  # atno 11005 bound_to 11000
  145.6216  141.0321  143.1911 LP  0  0  0  0  0  0  0  0  0  0  0  0  # atno 17320 bound_to 7965
  144.7294  139.7774  143.7353 LP  0  0  0  0  0  0  0  0  0  0  0  0  # atno 17321 bound_to 7965
  140.5995  143.9635  150.6377 LP  0  0  0  0  0  0  0  0  0  0  0  0  # atno 17342 bound_to 10162
  140.2842  143.3368  152.1123 LP  0  0  0  0  0  0  0  0  0  0  0  0  # atno 17343 bound_to 10162
  157.1065  130.6004  149.5472 LP  0  0  0  0  0  0  0  0  0  0  0  0  # atno 17370 bound_to 10713
  155.9933  130.4994  150.7377 LP  0  0  0  0  0  0  0  0  0  0  0  0  # atno 17371 bound_to 10713
  139.9627  134.7424  156.0202 LP  0  0  0  0  0  0  0  0  0  0  0  0  # atno 17394 bound_to 11000
  141.1355  133.6576  156.3583 LP  0  0  0  0  0  0  0  0  0  0  0  0  # atno 17395 bound_to 11000

$$$$
