AV-unprocessed.smi:2479|AV-procd|sdf|9767|dock1
  -GOLD-   2272013413D 1   1.00000     0.00000
 Structure written by MMmdl.
 29 30  0  0  0  0  0  0  0  0  1 V2000
  155.4043  138.6086  162.0345 N   0  0  0  0  0  0  0  0  0  0  0  0
  154.6737  138.7531  161.1491 C   0  0  0  0  0  0  0  0  0  0  0  0
  153.7564  138.9347  160.0377 C   0  0  0  0  0  0  0  0  0  0  0  0
  153.9266  139.9958  159.1267 C   0  0  0  0  0  0  0  0  0  0  0  0
  153.1043  140.2082  158.0775 N   0  0  0  0  0  0  0  0  0  0  0  0
  152.0584  139.3654  157.8904 C   0  0  0  0  0  0  0  0  0  0  0  0
  151.2169  139.5929  156.7835 N   0  0  0  0  0  0  0  0  0  0  0  0
  151.7183  138.9074  155.5959 C   0  0  0  0  0  0  0  0  0  0  0  0
  150.7027  139.0071  154.4487 C   0  0  0  0  0  0  0  0  0  0  0  0
  150.4178  140.3770  154.1969 O   0  0  0  0  0  0  0  0  0  0  0  0
  149.8237  141.0062  155.3266 C   0  0  0  0  0  0  0  0  0  0  0  0
  150.7909  140.9778  156.5331 C   0  0  1  0  0  0  0  0  0  0  0  0
  150.1023  141.6628  157.7276 C   0  0  0  0  0  0  0  0  0  0  0  0
  149.6824  142.9177  157.5479 N   0  0  0  0  0  0  0  0  0  0  0  0
  149.9390  141.0654  158.7904 O   0  0  0  0  0  0  0  0  0  0  0  0
  151.8106  138.2678  158.7508 C   0  0  0  0  0  0  0  0  0  0  0  0
  150.4726  137.2018  158.4994 Cl  0  0  0  0  0  0  0  0  0  0  0  0
  152.6746  138.0541  159.8428 C   0  0  0  0  0  0  0  0  0  0  0  0
  154.7428  140.6955  159.2362 H   0  0  0  0  0  0  0  0  0  0  0  0
  152.6668  139.3528  155.2909 H   0  0  0  0  0  0  0  0  0  0  0  0
  151.9154  137.8574  155.8175 H   0  0  0  0  0  0  0  0  0  0  0  0
  151.1108  138.5569  153.5436 H   0  0  0  0  0  0  0  0  0  0  0  0
  149.7853  138.4668  154.6888 H   0  0  0  0  0  0  0  0  0  0  0  0
  149.5829  142.0347  155.0553 H   0  0  0  0  0  0  0  0  0  0  0  0
  148.8784  140.5135  155.5641 H   0  0  0  0  0  0  0  0  0  0  0  0
  151.6751  141.5592  156.2638 H   0  0  0  0  0  0  0  0  0  0  0  0
  149.2217  143.4084  158.3006 H   0  0  0  0  0  0  0  0  0  0  0  0
  149.8248  143.3703  156.6565 H   0  0  0  0  0  0  0  0  0  0  0  0
  152.5051  137.2272  160.5173 H   0  0  0  0  0  0  0  0  0  0  0  0
  1  2  3  0  0  0  0
  2  3  1  0  0  0  0
  3 18  1  0  0  0  0
  3  4  2  0  0  0  0
  4  5  1  0  0  0  0
  4 19  1  0  0  0  0
  5  6  2  0  0  0  0
  6  7  1  0  0  0  0
  6 16  1  0  0  0  0
  7 12  1  0  0  0  0
  7  8  1  0  0  0  0
  8  9  1  0  0  0  0
  8 20  1  0  0  0  0
  8 21  1  0  0  0  0
  9 10  1  0  0  0  0
  9 22  1  0  0  0  0
  9 23  1  0  0  0  0
 10 11  1  0  0  0  0
 11 12  1  0  0  0  0
 11 24  1  0  0  0  0
 11 25  1  0  0  0  0
 12 13  1  0  0  0  0
 12 26  1  0  0  0  0
 13 14  1  0  0  0  0
 13 15  2  0  0  0  0
 14 27  1  0  0  0  0
 14 28  1  0  0  0  0
 16 17  1  0  0  0  0
 16 18  2  0  0  0  0
 18 29  1  0  0  0  0
M  END
> <s_m_source_file>
AV-unprocessed.smi

> <i_m_source_file_index>
2479

> <i_lp_mmshare_version>
43012

> <i_f3d_flags>
0

> <s_epik_input>
TiNDYzFbY0hdbmMoYyhDbClbY0hdMSlOMltDSDJdW0NIMl1PW0NIMl1bQ0BIXTJDKD1PKVtOSDJd

> <s_epik_cmdline>
J2VwaWtfcHl0aG9uJywgJy1waCcsICc3LjAnLCAnLXRuJywgJzgnLCAnLW1hJywgJzIwMCcsICctbWV0YWxfYmluZGluZycsICctaW1hZScsICc8aW5maWxlLm1hZT4nLCAnLW9tYWUnLCAnPG91dGZpbGUubWFlPic=

> <r_lp_tautomer_probability>
1

> <r_epik_Ionization_Penalty>
1.61078e-07

> <r_epik_Ionization_Penalty_Charging>
0

> <r_epik_Ionization_Penalty_Neutral>
1.61078e-07

> <r_epik_State_Penalty>
-0

> <r_epik_Charging_Adjusted_Penalty>
0

> <i_epik_Tot_Q>
0

> <i_epik_Tot_abs_Q>
0

> <r_epik_Metal_State_Penalty>
-0

> <b_epik_Metal_Only>
0

> <s_lp_Force_Field>
OPLS_2005

> <r_lp_Energy>
18.2822

> <b_lp_Chiralities_Consistent>
1

> <s_lp_Variant>
AV-unprocessed.smi:2479-1

> <Gold.Version>
5.8.1

> <Gold.Id.Protein>
6NUR|6NUR_protein|mol2

> <Gold.PLP.Fitness>
30.7346

> <Gold.PLP.PLP>
-24.3914

> <Gold.PLP.part.hbond>
-3.7335

> <Gold.PLP.part.metal>
0.0000

> <Gold.PLP.part.buried>
-1.0468

> <Gold.PLP.part.nonpolar>
-19.5032

> <Gold.PLP.part.repulsive>
0.1562

> <Gold.PLP.ligand.clash>
0.0000

> <Gold.PLP.ligand.torsion>
0.5774

> <Gold.PLP.Chemscore.Hbond>
2.4393

> <Gold.PLP.Chemscore.CHOScore>
0.0000

> <Gold.PLP.Chemscore.Metal>
0.0000

> <Gold.Chemscore.Hbonds>
donor molecule, donor type, donor heavy atom, donor atom, acceptor molecule, acceptor atom, score
      L1  H    14    28       P1  8028  0.69
      P1  H  7989  7998       L1    10  0.85
      P1  H  7997  8009       L1     5  0.68

> <Gold.PLP.Chemscore.Internal.Correction>
0.1801

> <Gold.Rescore>
     Score         DG    S(hbond)    S(metal)    S(lipo)     H(rot)  DE(clash)    DE(int)     intcor
     10.87     -12.83       1.40        0.00      55.72       1.50       0.09       1.87       ----

> <Gold.Chemscore.Fitness>
10.8721

> <Gold.Chemscore.DG>
-12.8263

> <Gold.Chemscore.ZeroCoef>
-5.4800

> <Gold.Chemscore.Hbond>
1.3977

> <Gold.Chemscore.Metal>
0.0000

> <Gold.Chemscore.Lipo>
55.7219

> <Gold.Chemscore.Internal_Hbond>
0.0000

> <Gold.Chemscore.DEClash>
0.0879

> <Gold.Chemscore.DEInternal>
1.8664

> <Gold.Chemscore.Rot>
1.5006

> <Gold.Chemscore.Internal.Correction>
   9.000000E+99

> <Gold.Chemscore.Hbonds>
donor molecule, donor type, donor heavy atom, donor atom, acceptor molecule, acceptor atom, score
      L1  H    14    28       P1  8028  0.68
      P1  H  7989  7998       L1    10  0.39
      P1  H  7997  8009       L1     5  0.11

> <Gold.Chemscore.Hbond.Weighted>
-4.6685

> <Gold.Chemscore.Metal.Weighted>
-0.0000

> <Gold.Chemscore.Lipo.Weighted>
-6.5195

> <Gold.Chemscore.Internal_Hbond.Weighted>
0.0000

> <Gold.Chemscore.DEClash.Weighted>
0.0879

> <Gold.Chemscore.DEInternal.Weighted>
1.8664

> <Gold.Chemscore.Rot.Weighted>
3.8416

> <Gold.Chemscore.Internal.Correction.Weighted>
   9.000000E+99

> <Gold.Protein.RotatedTorsions>
[ 6907 6896 6895 6894 ] final  -55.91 input  -60.11 | X-H torsion
[ 7974 7965 7964 7962 ] final  -10.63 input  175.53 | X-H torsion
[ 8008 7997 7996 7995 ] final  179.31 input   59.86 | X-H torsion
[ 10167 10162 10161 10158 ] final   96.75 input  -65.29 | X-H torsion
[ 10718 10713 10712 10709 ] final -176.46 input   66.30 | X-H torsion
[ 10763 10752 10751 10750 ] final  146.57 input  -60.55 | X-H torsion
[ 11005 11000 10999 10996 ] final -143.05 input  -57.11 | X-H torsion

> <Gold.Protein.ActiveResidues>
 VAL166  LYS551  ARG553  GLY616  TRP617  ASP618  TYR619  PRO620  LYS621  CYS622 
 ASP623  PHE694  ASN695  SER759  ASP760  ASP761  ALA762  ILE779  LEU786  VAL792 
 PHE793  MET794  SER795  GLU796  ALA797  LYS798  CYS799  TRP800  GLU811  SER814 

> <Gold.Protein.RotatedAtoms>
  150.8211  134.7419  159.6772 H   0  0  0  0  0  0  0  0  0  0  0  0  # atno 6907 bound_to 6896
  152.4327  134.5744  159.9940 H   0  0  0  0  0  0  0  0  0  0  0  0  # atno 6908 bound_to 6896
  151.5928  133.3327  159.3067 H   0  0  0  0  0  0  0  0  0  0  0  0  # atno 6909 bound_to 6896
  146.2214  140.2793  142.8361 H   0  0  0  0  0  0  0  0  0  0  0  0  # atno 7974 bound_to 7965
  156.0449  140.1312  157.0115 H   0  0  0  0  0  0  0  0  0  0  0  0  # atno 8008 bound_to 7997
  154.4407  140.1023  156.6361 H   0  0  0  0  0  0  0  0  0  0  0  0  # atno 8009 bound_to 7997
  155.5611  140.3465  155.4494 H   0  0  0  0  0  0  0  0  0  0  0  0  # atno 8010 bound_to 7997
  139.7865  144.6868  150.9950 H   0  0  0  0  0  0  0  0  0  0  0  0  # atno 10167 bound_to 10162
  156.8150  130.9600  151.3114 H   0  0  0  0  0  0  0  0  0  0  0  0  # atno 10718 bound_to 10713
  154.0240  135.2903  155.3377 H   0  0  0  0  0  0  0  0  0  0  0  0  # atno 10763 bound_to 10752
  154.7029  135.5181  153.8555 H   0  0  0  0  0  0  0  0  0  0  0  0  # atno 10764 bound_to 10752
  153.0669  135.6634  154.0459 H   0  0  0  0  0  0  0  0  0  0  0  0  # atno 10765 bound_to 10752
  140.8164  134.2684  157.4919 H   0  0  0  0  0  0  0  0  0  0  0  0  # atno 11005 bound_to 11000
  144.9209  140.7867  143.5749 LP  0  0  0  0  0  0  0  0  0  0  0  0  # atno 17320 bound_to 7965
  145.2729  139.1947  143.4832 LP  0  0  0  0  0  0  0  0  0  0  0  0  # atno 17321 bound_to 7965
  140.7819  143.4426  151.0529 LP  0  0  0  0  0  0  0  0  0  0  0  0  # atno 17342 bound_to 10162
  139.8105  143.7958  152.3171 LP  0  0  0  0  0  0  0  0  0  0  0  0  # atno 17343 bound_to 10162
  157.6486  130.8865  149.9588 LP  0  0  0  0  0  0  0  0  0  0  0  0  # atno 17370 bound_to 10713
  156.1022  130.3655  150.0198 LP  0  0  0  0  0  0  0  0  0  0  0  0  # atno 17371 bound_to 10713
  139.8711  134.9511  156.4075 LP  0  0  0  0  0  0  0  0  0  0  0  0  # atno 17394 bound_to 11000
  140.9145  133.7688  155.9831 LP  0  0  0  0  0  0  0  0  0  0  0  0  # atno 17395 bound_to 11000

$$$$
