AV-unprocessed.smi:157|AV-procd|sdf|1312|dock3
  -GOLD-   2262019 03D 1   1.00000     0.00000
 Structure written by MMmdl.
 36 38  0  0  0  0  0  0  0  0  2 V2000
  155.8346  138.0114  155.5366 O   0  0  0  0  0  0  0  0  0  0  0  0
  154.6140  137.5156  155.0294 C   0  0  0  0  0  0  0  0  0  0  0  0
  153.5875  138.6550  154.9025 C   0  0  2  0  0  0  0  0  0  0  0  0
  153.0291  138.9861  156.1717 O   0  0  0  0  0  0  0  0  0  0  0  0
  151.7002  139.3937  156.0265 C   0  0  1  0  0  0  0  0  0  0  0  0
  151.5615  140.7699  156.5918 N   0  0  0  0  0  0  0  0  0  0  0  0
  151.1098  141.8602  155.9369 C   0  0  0  0  0  0  0  0  0  0  0  0
  151.0802  142.9616  156.6678 N   0  3  0  0  0  0  0  0  0  0  0  0
  151.5428  142.6127  157.9191 C   0  0  0  0  0  0  0  0  0  0  0  0
  151.8246  141.2454  157.8560 C   0  0  0  0  0  0  0  0  0  0  0  0
  152.3062  140.3795  158.8499 N   0  0  0  0  0  0  0  0  0  0  0  0
  152.3069  140.6812  160.1077 C   0  0  0  0  0  0  0  0  0  0  0  0
  151.9507  141.8704  160.7215 N   0  0  0  0  0  0  0  0  0  0  0  0
  152.3919  143.1710  160.2502 C   0  0  0  0  0  0  0  0  0  0  0  0
  151.6576  143.6509  158.9914 C   0  0  2  0  0  0  0  0  0  0  0  0
  150.4037  144.1783  159.3731 O   0  0  0  0  0  0  0  0  0  0  0  0
  151.3759  139.3992  154.5302 C   0  0  0  0  0  0  0  0  0  0  0  0
  152.3784  138.4014  153.9899 C   0  0  2  0  0  0  0  0  0  0  0  0
  151.8813  137.0813  154.1028 O   0  0  0  0  0  0  0  0  0  0  0  0
  154.0975  139.5541  154.5514 H   0  0  0  0  0  0  0  0  0  0  0  0
  151.0447  138.7539  156.6182 H   0  0  0  0  0  0  0  0  0  0  0  0
  152.2219  144.4885  158.5801 H   0  0  0  0  0  0  0  0  0  0  0  0
  152.6160  138.5918  152.9427 H   0  0  0  0  0  0  0  0  0  0  0  0
  156.2960  137.3012  155.9563 H   0  0  0  0  0  0  0  0  0  0  0  0
  154.7848  137.0202  154.0735 H   0  0  0  0  0  0  0  0  0  0  0  0
  154.2416  136.7558  155.7170 H   0  0  0  0  0  0  0  0  0  0  0  0
  150.8028  141.8299  154.9068 H   0  0  0  0  0  0  0  0  0  0  0  0
  152.6315  139.9306  160.8297 H   0  0  0  0  0  0  0  0  0  0  0  0
  151.7975  141.8716  161.7201 H   0  0  0  0  0  0  0  0  0  0  0  0
  152.3011  143.9022  161.0543 H   0  0  0  0  0  0  0  0  0  0  0  0
  153.4579  143.0941  160.0300 H   0  0  0  0  0  0  0  0  0  0  0  0
  149.7465  143.5082  159.2657 H   0  0  0  0  0  0  0  0  0  0  0  0
  150.3324  139.1406  154.3461 H   0  0  0  0  0  0  0  0  0  0  0  0
  151.5735  140.3874  154.1114 H   0  0  0  0  0  0  0  0  0  0  0  0
  151.6002  136.7931  153.2474 H   0  0  0  0  0  0  0  0  0  0  0  0
  150.7821  143.8788  156.3609 H   0  0  0  0  0  0  0  0  0  0  0  0
  1  2  1  0  0  0  0
  1 24  1  0  0  0  0
  2  3  1  0  0  0  0
  2 25  1  0  0  0  0
  2 26  1  0  0  0  0
  3 20  1  0  0  0  0
  3 18  1  0  0  0  0
  3  4  1  0  0  0  0
  4  5  1  0  0  0  0
  5 21  1  0  0  0  0
  5  6  1  0  0  0  0
  5 17  1  0  0  0  0
  6 10  1  0  0  0  0
  6  7  1  0  0  0  0
  7  8  2  0  0  0  0
  7 27  1  0  0  0  0
  8  9  1  0  0  0  0
  8 36  1  0  0  0  0
  9 15  1  0  0  0  0
  9 10  2  0  0  0  0
 10 11  1  0  0  0  0
 11 12  2  0  0  0  0
 12 13  1  0  0  0  0
 12 28  1  0  0  0  0
 13 14  1  0  0  0  0
 13 29  1  0  0  0  0
 14 15  1  0  0  0  0
 14 30  1  0  0  0  0
 14 31  1  0  0  0  0
 15 22  1  0  0  0  0
 15 16  1  0  0  0  0
 16 32  1  0  0  0  0
 17 18  1  0  0  0  0
 17 33  1  0  0  0  0
 17 34  1  0  0  0  0
 18 23  1  0  0  0  0
 18 19  1  0  0  0  0
 19 35  1  0  0  0  0
M  CHG  1   8   1
M  END
> <s_m_source_file>
AV-unprocessed.smi

> <i_m_source_file_index>
157

> <i_lp_mmshare_version>
43012

> <i_f3d_flags>
0

> <s_epik_input>
W09IXVtDSDJdW0NASF0xT1tDQEhdKFtDSDJdW0NAQEhdMVtPSF0pbihbY0hdbjIpYyhjMjMpTj1bQ0hdW05IXVtDSDJdW0NASF0zW09IXQ==

> <s_epik_cmdline>
J2VwaWtfcHl0aG9uJywgJy1waCcsICc3LjAnLCAnLXRuJywgJzgnLCAnLW1hJywgJzIwMCcsICctbWV0YWxfYmluZGluZycsICctaW1hZScsICc8aW5maWxlLm1hZT4nLCAnLW9tYWUnLCAnPG91dGZpbGUubWFlPic=

> <r_epik_Ionization_Penalty>
1.68594

> <r_epik_Ionization_Penalty_Charging>
0

> <r_epik_Ionization_Penalty_Neutral>
1.68594

> <r_epik_State_Penalty>
1.79006

> <r_epik_Charging_Adjusted_Penalty>
1.79006

> <i_epik_Tot_Q>
1

> <i_epik_Tot_abs_Q>
1

> <r_epik_Metal_State_Penalty>
5.85324

> <b_epik_Metal_Only>
0

> <s_epik_Chemistry_Notes>
This compound has an imine and may undergo hydrolysis. This compound contains an acetal/aminal-like group ( X-CH(R)-Y where X, Y are N, S, or O) that may be acid/base labile, releasing an aldehyde.

> <s_lp_Force_Field>
OPLS_2005

> <r_lp_Energy>
55.0153

> <b_lp_Chiralities_Consistent>
1

> <s_lp_Variant>
AV-unprocessed.smi:157-22

> <Gold.Version>
5.8.1

> <Gold.Id.Protein>
6NUR|6NUR_protein|mol2

> <Gold.PLP.Fitness>
51.4960

> <Gold.PLP.PLP>
-35.0499

> <Gold.PLP.part.hbond>
-5.9063

> <Gold.PLP.part.metal>
0.0000

> <Gold.PLP.part.buried>
-4.6592

> <Gold.PLP.part.nonpolar>
-24.0477

> <Gold.PLP.part.repulsive>
0.1037

> <Gold.PLP.ligand.clash>
0.0000

> <Gold.PLP.ligand.torsion>
0.1801

> <Gold.PLP.Chemscore.Hbond>
5.6000

> <Gold.PLP.Chemscore.CHOScore>
0.0000

> <Gold.PLP.Chemscore.Metal>
0.0000

> <Gold.Chemscore.Hbonds>
donor molecule, donor type, donor heavy atom, donor atom, acceptor molecule, acceptor atom, score
      L1  H     8    36       P1  8028  0.94
      L1  H    19    35       P1  7949  1.00
      P1  H  7997  8009       L1     4  0.45
      P1  H  7997  8010       L1     1  0.01
      P1  H 10752 10765       L1    19  0.73

> <Gold.PLP.Chemscore.Internal.Correction>
0.0063

> <Gold.Rescore>
     Score         DG    S(hbond)    S(metal)    S(lipo)     H(rot)  DE(clash)    DE(int)     intcor
     13.56     -15.22       3.31        0.00      68.96       3.67       1.57       0.09       ----

> <Gold.Chemscore.Fitness>
13.5574

> <Gold.Chemscore.DG>
-15.2221

> <Gold.Chemscore.ZeroCoef>
-5.4800

> <Gold.Chemscore.Hbond>
3.3110

> <Gold.Chemscore.Metal>
0.0000

> <Gold.Chemscore.Lipo>
68.9578

> <Gold.Chemscore.Internal_Hbond>
0.0000

> <Gold.Chemscore.DEClash>
1.5718

> <Gold.Chemscore.DEInternal>
0.0930

> <Gold.Chemscore.Rot>
3.6659

> <Gold.Chemscore.Internal.Correction>
   9.000000E+99

> <Gold.Chemscore.Hbonds>
donor molecule, donor type, donor heavy atom, donor atom, acceptor molecule, acceptor atom, score
      L1  H     8    36       P1  8028  0.46
      L1  H    19    35       P1  7949  0.92
      P1  H  7997  8009       L1     4  0.02
      P1  H  7997  8010       L1     1  0.02
      P1  H 10752 10765       L1    19  0.14

> <Gold.Chemscore.Hbond.Weighted>
-11.0589

> <Gold.Chemscore.Metal.Weighted>
-0.0000

> <Gold.Chemscore.Lipo.Weighted>
-8.0681

> <Gold.Chemscore.Internal_Hbond.Weighted>
0.0000

> <Gold.Chemscore.DEClash.Weighted>
1.5718

> <Gold.Chemscore.DEInternal.Weighted>
0.0930

> <Gold.Chemscore.Rot.Weighted>
9.3848

> <Gold.Chemscore.Internal.Correction.Weighted>
   9.000000E+99

> <Gold.Protein.RotatedTorsions>
[ 6907 6896 6895 6894 ] final   40.74 input  -60.11 | X-H torsion
[ 7974 7965 7964 7962 ] final  -88.19 input  175.53 | X-H torsion
[ 8008 7997 7996 7995 ] final -169.81 input   59.86 | X-H torsion
[ 10167 10162 10161 10158 ] final   62.29 input  -65.29 | X-H torsion
[ 10718 10713 10712 10709 ] final   57.11 input   66.30 | X-H torsion
[ 10763 10752 10751 10750 ] final  178.47 input  -60.55 | X-H torsion
[ 11005 11000 10999 10996 ] final   71.72 input  -57.11 | X-H torsion

> <Gold.Protein.ActiveResidues>
 VAL166  LYS551  ARG553  GLY616  TRP617  ASP618  TYR619  PRO620  LYS621  CYS622 
 ASP623  PHE694  ASN695  SER759  ASP760  ASP761  ALA762  ILE779  LEU786  VAL792 
 PHE793  MET794  SER795  GLU796  ALA797  LYS798  CYS799  TRP800  GLU811  SER814 

> <Gold.Protein.RotatedAtoms>
  152.1864  134.8710  160.0521 H   0  0  0  0  0  0  0  0  0  0  0  0  # atno 6907 bound_to 6896
  151.9615  133.3692  159.4045 H   0  0  0  0  0  0  0  0  0  0  0  0  # atno 6908 bound_to 6896
  150.6927  134.4159  159.5227 H   0  0  0  0  0  0  0  0  0  0  0  0  # atno 6909 bound_to 6896
  145.4564  140.9561  143.1994 H   0  0  0  0  0  0  0  0  0  0  0  0  # atno 7974 bound_to 7965
  155.9099  140.1055  157.1287 H   0  0  0  0  0  0  0  0  0  0  0  0  # atno 8008 bound_to 7997
  154.4038  140.1276  156.4608 H   0  0  0  0  0  0  0  0  0  0  0  0  # atno 8009 bound_to 7997
  155.7323  140.3468  155.5067 H   0  0  0  0  0  0  0  0  0  0  0  0  # atno 8010 bound_to 7997
  140.1455  144.4512  150.6787 H   0  0  0  0  0  0  0  0  0  0  0  0  # atno 10167 bound_to 10162
  157.5487  130.8750  149.8930 H   0  0  0  0  0  0  0  0  0  0  0  0  # atno 10718 bound_to 10713
  154.5081  135.2787  155.1366 H   0  0  0  0  0  0  0  0  0  0  0  0  # atno 10763 bound_to 10752
  154.2972  135.6255  153.5413 H   0  0  0  0  0  0  0  0  0  0  0  0  # atno 10764 bound_to 10752
  152.9914  135.5688  154.5539 H   0  0  0  0  0  0  0  0  0  0  0  0  # atno 10765 bound_to 10752
  139.9529  134.7196  156.0821 H   0  0  0  0  0  0  0  0  0  0  0  0  # atno 11005 bound_to 11000
  144.8029  139.6106  143.7063 LP  0  0  0  0  0  0  0  0  0  0  0  0  # atno 17320 bound_to 7965
  146.2475  139.6130  142.9449 LP  0  0  0  0  0  0  0  0  0  0  0  0  # atno 17321 bound_to 7965
  140.6734  143.2295  151.5568 LP  0  0  0  0  0  0  0  0  0  0  0  0  # atno 17342 bound_to 10162
  139.5451  144.2543  152.1426 LP  0  0  0  0  0  0  0  0  0  0  0  0  # atno 17343 bound_to 10162
  156.0558  130.3709  150.1095 LP  0  0  0  0  0  0  0  0  0  0  0  0  # atno 17370 bound_to 10713
  156.9269  130.9701  151.3539 LP  0  0  0  0  0  0  0  0  0  0  0  0  # atno 17371 bound_to 10713
  141.1195  133.6617  156.3178 LP  0  0  0  0  0  0  0  0  0  0  0  0  # atno 17394 bound_to 11000
  140.5678  134.5871  157.5450 LP  0  0  0  0  0  0  0  0  0  0  0  0  # atno 17395 bound_to 11000

$$$$
