AV-unprocessed.smi:1672|AV-procd|sdf|6707|dock8
  -GOLD-   22720 7453D 1   1.00000     0.00000
 Structure written by MMmdl.
 49 51  0  0  0  0  0  0  0  0  3 V2000
  147.6335  133.4468  156.2246 C   0  0  0  0  0  0  0  0  0  0  0  0
  147.6872  134.0766  154.8217 C   0  0  2  0  0  0  0  0  0  0  0  0
  149.0060  133.7790  154.0852 C   0  0  0  0  0  0  0  0  0  0  0  0
  150.1839  134.5974  154.6443 C   0  0  0  0  0  0  0  0  0  0  0  0
  149.8878  136.0528  154.6210 N   0  3  2  0  0  0  0  0  0  0  0  0
  151.0594  136.8747  155.0206 C   0  0  0  0  0  0  0  0  0  0  0  0
  150.7308  138.3795  155.0815 C   0  0  2  0  0  0  0  0  0  0  0  0
  151.7354  139.0919  154.3857 O   0  0  0  0  0  0  0  0  0  0  0  0
  150.6461  138.8906  156.5337 C   0  0  0  0  0  0  0  0  0  0  0  0
  150.5806  140.3590  156.6202 N   0  0  0  0  0  0  0  0  0  0  0  0
  149.8682  141.2491  155.8698 C   0  0  0  0  0  0  0  0  0  0  0  0
  148.9425  140.9328  154.7419 C   0  0  0  0  0  0  0  0  0  0  0  0
  149.5123  141.2210  153.4847 O   0  0  0  0  0  0  0  0  0  0  0  0
  150.1454  142.4946  156.3472 N   0  3  0  0  0  0  0  0  0  0  0  0
  151.0440  142.4044  157.4104 C   0  0  0  0  0  0  0  0  0  0  0  0
  151.6144  143.3937  158.2055 C   0  0  0  0  0  0  0  0  0  0  0  0
  152.4986  142.9622  159.2157 C   0  0  0  0  0  0  0  0  0  0  0  0
  152.7860  141.5950  159.4041 C   0  0  0  0  0  0  0  0  0  0  0  0
  152.2015  140.6011  158.5915 C   0  0  0  0  0  0  0  0  0  0  0  0
  151.3273  141.0350  157.5944 C   0  0  0  0  0  0  0  0  0  0  0  0
  148.6552  136.3724  155.3892 C   0  0  0  0  0  0  0  0  0  0  0  0
  147.4439  135.5968  154.8416 C   0  0  0  0  0  0  0  0  0  0  0  0
  148.4141  133.8323  156.8798 H   0  0  0  0  0  0  0  0  0  0  0  0
  147.7544  132.3644  156.1708 H   0  0  0  0  0  0  0  0  0  0  0  0
  146.6744  133.6440  156.7043 H   0  0  0  0  0  0  0  0  0  0  0  0
  146.8788  133.6206  154.2484 H   0  0  0  0  0  0  0  0  0  0  0  0
  149.2337  132.7136  154.1334 H   0  0  0  0  0  0  0  0  0  0  0  0
  148.8843  134.0134  153.0267 H   0  0  0  0  0  0  0  0  0  0  0  0
  150.4210  134.2867  155.6627 H   0  0  0  0  0  0  0  0  0  0  0  0
  151.0697  134.3946  154.0408 H   0  0  0  0  0  0  0  0  0  0  0  0
  151.4312  136.5224  155.9841 H   0  0  0  0  0  0  0  0  0  0  0  0
  151.8763  136.7295  154.3116 H   0  0  0  0  0  0  0  0  0  0  0  0
  149.7794  138.5785  154.5901 H   0  0  0  0  0  0  0  0  0  0  0  0
  152.4478  138.5013  154.1926 H   0  0  0  0  0  0  0  0  0  0  0  0
  149.7449  138.5026  157.0098 H   0  0  0  0  0  0  0  0  0  0  0  0
  151.4812  138.5281  157.1333 H   0  0  0  0  0  0  0  0  0  0  0  0
  148.6782  139.8755  154.7761 H   0  0  0  0  0  0  0  0  0  0  0  0
  148.0171  141.4976  154.8548 H   0  0  0  0  0  0  0  0  0  0  0  0
  149.3746  140.4811  152.9130 H   0  0  0  0  0  0  0  0  0  0  0  0
  151.3960  144.4419  158.0625 H   0  0  0  0  0  0  0  0  0  0  0  0
  152.9656  143.6943  159.8589 H   0  0  0  0  0  0  0  0  0  0  0  0
  153.4692  141.3025  160.1884 H   0  0  0  0  0  0  0  0  0  0  0  0
  152.4331  139.5583  158.7469 H   0  0  0  0  0  0  0  0  0  0  0  0
  148.8096  136.1416  156.4440 H   0  0  0  0  0  0  0  0  0  0  0  0
  148.4406  137.4390  155.3345 H   0  0  0  0  0  0  0  0  0  0  0  0
  147.2348  135.9387  153.8269 H   0  0  0  0  0  0  0  0  0  0  0  0
  146.5537  135.8294  155.4270 H   0  0  0  0  0  0  0  0  0  0  0  0
  149.7001  136.2824  153.6550 H   0  0  0  0  0  0  0  0  0  0  0  0
  149.7428  143.3444  155.9725 H   0  0  0  0  0  0  0  0  0  0  0  0
  1  2  1  0  0  0  0
  1 23  1  0  0  0  0
  1 24  1  0  0  0  0
  1 25  1  0  0  0  0
  2 22  1  0  0  0  0
  2  3  1  0  0  0  0
  2 26  1  0  0  0  0
  3  4  1  0  0  0  0
  3 27  1  0  0  0  0
  3 28  1  0  0  0  0
  4  5  1  0  0  0  0
  4 29  1  0  0  0  0
  4 30  1  0  0  0  0
  5  6  1  0  0  0  0
  5 21  1  0  0  0  0
  5 48  1  0  0  0  0
  6  7  1  0  0  0  0
  6 31  1  0  0  0  0
  6 32  1  0  0  0  0
  7  8  1  0  0  0  0
  7  9  1  0  0  0  0
  7 33  1  0  0  0  0
  8 34  1  0  0  0  0
  9 10  1  0  0  0  0
  9 35  1  0  0  0  0
  9 36  1  0  0  0  0
 10 20  1  0  0  0  0
 10 11  1  0  0  0  0
 11 12  1  0  0  0  0
 11 14  2  0  0  0  0
 12 13  1  0  0  0  0
 12 37  1  0  0  0  0
 12 38  1  0  0  0  0
 13 39  1  0  0  0  0
 14 15  1  0  0  0  0
 14 49  1  0  0  0  0
 15 20  2  0  0  0  0
 15 16  1  0  0  0  0
 16 17  2  0  0  0  0
 16 40  1  0  0  0  0
 17 18  1  0  0  0  0
 17 41  1  0  0  0  0
 18 19  2  0  0  0  0
 18 42  1  0  0  0  0
 19 20  1  0  0  0  0
 19 43  1  0  0  0  0
 21 22  1  0  0  0  0
 21 44  1  0  0  0  0
 21 45  1  0  0  0  0
 22 46  1  0  0  0  0
 22 47  1  0  0  0  0
M  CHG  1   5   1
M  CHG  1  14   1
M  END
> <s_m_source_file>
AV-unprocessed.smi

> <i_m_source_file_index>
1672

> <i_lp_mmshare_version>
43012

> <i_f3d_flags>
0

> <s_epik_input>
W0NIM11bQ0hdMVtDSDJdW0NIMl1OKFtDSDJdW0NIMl0xKVtDSDJdW0NASF0oW09IXSlbQ0gyXW4oYyhuMilbQ0gyXVtPSF0pYyhjMjMpW2NIXVtjSF1bY0hdW2NIXTM=

> <s_epik_cmdline>
J2VwaWtfcHl0aG9uJywgJy1waCcsICc3LjAnLCAnLXRuJywgJzgnLCAnLW1hJywgJzIwMCcsICctbWV0YWxfYmluZGluZycsICctaW1hZScsICc8aW5maWxlLm1hZT4nLCAnLW9tYWUnLCAnPG91dGZpbGUubWFlPic=

> <r_epik_Ionization_Penalty>
1.51642

> <r_epik_Ionization_Penalty_Charging>
1.51557

> <r_epik_Ionization_Penalty_Neutral>
0.000856474

> <r_epik_State_Penalty>
1.6048

> <r_epik_Charging_Adjusted_Penalty>
3.12037

> <i_epik_Tot_Q>
2

> <i_epik_Tot_abs_Q>
2

> <r_epik_Metal_State_Penalty>
5.65673

> <b_epik_Metal_Only>
0

> <s_lp_Force_Field>
OPLS_2005

> <r_lp_Energy>
31.2365

> <b_lp_Chiralities_Consistent>
1

> <s_lp_Variant>
AV-unprocessed.smi:1672-7

> <Gold.Version>
5.8.1

> <Gold.Id.Protein>
6NUR|6NUR_protein|mol2

> <Gold.PLP.Fitness>
56.0518

> <Gold.PLP.PLP>
-38.2380

> <Gold.PLP.part.hbond>
-6.0000

> <Gold.PLP.part.metal>
0.0000

> <Gold.PLP.part.buried>
-3.9221

> <Gold.PLP.part.nonpolar>
-29.1647

> <Gold.PLP.part.repulsive>
0.1308

> <Gold.PLP.ligand.clash>
0.0000

> <Gold.PLP.ligand.torsion>
1.2126

> <Gold.PLP.Chemscore.Hbond>
6.7280

> <Gold.PLP.Chemscore.CHOScore>
0.0000

> <Gold.PLP.Chemscore.Metal>
0.0000

> <Gold.Chemscore.Hbonds>
donor molecule, donor type, donor heavy atom, donor atom, acceptor molecule, acceptor atom, score
      L1  H     5    48       P1  7948  2.00
      L1  H    13    39       P1  7957  0.77
      L1  H    14    49       P1  8028  2.00
      P1  H  7989  7998       L1     8  0.99
      P1  H  8011  8017       L1    13  0.95

> <Gold.PLP.Chemscore.Internal.Correction>
0.0549

> <Gold.Rescore>
     Score         DG    S(hbond)    S(metal)    S(lipo)     H(rot)  DE(clash)    DE(int)     intcor
     20.39     -22.05       3.81        0.00      97.46       2.96       0.43       1.24       ----

> <Gold.Chemscore.Fitness>
20.3879

> <Gold.Chemscore.DG>
-22.0545

> <Gold.Chemscore.ZeroCoef>
-5.4800

> <Gold.Chemscore.Hbond>
3.8138

> <Gold.Chemscore.Metal>
0.0000

> <Gold.Chemscore.Lipo>
97.4567

> <Gold.Chemscore.Internal_Hbond>
0.0000

> <Gold.Chemscore.DEClash>
0.4270

> <Gold.Chemscore.DEInternal>
1.2396

> <Gold.Chemscore.Rot>
2.9555

> <Gold.Chemscore.Internal.Correction>
   9.000000E+99

> <Gold.Chemscore.Hbonds>
donor molecule, donor type, donor heavy atom, donor atom, acceptor molecule, acceptor atom, score
      L1  H     5    48       P1  7948  0.39
      L1  H    13    39       P1  7957  0.76
      L1  H    14    49       P1  8028  1.00
      P1  H  7989  7998       L1     8  0.88
      P1  H  8011  8017       L1    13  0.20

> <Gold.Chemscore.Hbond.Weighted>
-12.7381

> <Gold.Chemscore.Metal.Weighted>
-0.0000

> <Gold.Chemscore.Lipo.Weighted>
-11.4024

> <Gold.Chemscore.Internal_Hbond.Weighted>
0.0000

> <Gold.Chemscore.DEClash.Weighted>
0.4270

> <Gold.Chemscore.DEInternal.Weighted>
1.2396

> <Gold.Chemscore.Rot.Weighted>
7.5660

> <Gold.Chemscore.Internal.Correction.Weighted>
   9.000000E+99

> <Gold.Protein.RotatedTorsions>
[ 6907 6896 6895 6894 ] final  131.44 input  -60.11 | X-H torsion
[ 7974 7965 7964 7962 ] final  179.22 input  175.53 | X-H torsion
[ 8008 7997 7996 7995 ] final  170.59 input   59.86 | X-H torsion
[ 10167 10162 10161 10158 ] final  102.29 input  -65.29 | X-H torsion
[ 10718 10713 10712 10709 ] final  158.48 input   66.30 | X-H torsion
[ 10763 10752 10751 10750 ] final  157.19 input  -60.55 | X-H torsion
[ 11005 11000 10999 10996 ] final  171.76 input  -57.11 | X-H torsion

> <Gold.Protein.ActiveResidues>
 VAL166  LYS551  ARG553  GLY616  TRP617  ASP618  TYR619  PRO620  LYS621  CYS622 
 ASP623  PHE694  ASN695  SER759  ASP760  ASP761  ALA762  ILE779  LEU786  VAL792 
 PHE793  MET794  SER795  GLU796  ALA797  LYS798  CYS799  TRP800  GLU811  SER814 

> <Gold.Protein.RotatedAtoms>
  152.3426  133.6085  159.5886 H   0  0  0  0  0  0  0  0  0  0  0  0  # atno 6907 bound_to 6896
  150.7488  133.9699  159.3551 H   0  0  0  0  0  0  0  0  0  0  0  0  # atno 6908 bound_to 6896
  151.7561  135.0822  160.0389 H   0  0  0  0  0  0  0  0  0  0  0  0  # atno 6909 bound_to 6896
  144.7148  140.0515  143.6435 H   0  0  0  0  0  0  0  0  0  0  0  0  # atno 7974 bound_to 7965
  156.1351  140.1534  156.9007 H   0  0  0  0  0  0  0  0  0  0  0  0  # atno 8008 bound_to 7997
  154.4940  140.0843  156.7696 H   0  0  0  0  0  0  0  0  0  0  0  0  # atno 8009 bound_to 7997
  155.4184  140.3422  155.4271 H   0  0  0  0  0  0  0  0  0  0  0  0  # atno 8010 bound_to 7997
  139.7363  144.7023  151.0644 H   0  0  0  0  0  0  0  0  0  0  0  0  # atno 10167 bound_to 10162
  157.1773  131.0624  151.2151 H   0  0  0  0  0  0  0  0  0  0  0  0  # atno 10718 bound_to 10713
  154.1963  135.2792  155.3005 H   0  0  0  0  0  0  0  0  0  0  0  0  # atno 10763 bound_to 10752
  154.5890  135.5566  153.7262 H   0  0  0  0  0  0  0  0  0  0  0  0  # atno 10764 bound_to 10752
  153.0099  135.6363  154.2101 H   0  0  0  0  0  0  0  0  0  0  0  0  # atno 10765 bound_to 10752
  140.3224  134.7426  157.4074 H   0  0  0  0  0  0  0  0  0  0  0  0  # atno 11005 bound_to 11000
  145.9940  139.3038  143.0967 LP  0  0  0  0  0  0  0  0  0  0  0  0  # atno 17320 bound_to 7965
  145.8870  140.9327  143.0572 LP  0  0  0  0  0  0  0  0  0  0  0  0  # atno 17321 bound_to 7965
  140.7779  143.4980  150.9807 LP  0  0  0  0  0  0  0  0  0  0  0  0  # atno 17342 bound_to 10162
  139.8668  143.7243  152.3169 LP  0  0  0  0  0  0  0  0  0  0  0  0  # atno 17343 bound_to 10162
  157.3987  130.7321  149.6750 LP  0  0  0  0  0  0  0  0  0  0  0  0  # atno 17370 bound_to 10713
  155.9729  130.4127  150.4044 LP  0  0  0  0  0  0  0  0  0  0  0  0  # atno 17371 bound_to 10713
  140.0930  134.5575  155.8425 LP  0  0  0  0  0  0  0  0  0  0  0  0  # atno 17394 bound_to 11000
  141.2083  133.6672  156.6364 LP  0  0  0  0  0  0  0  0  0  0  0  0  # atno 17395 bound_to 11000

$$$$
