AV-unprocessed.smi:1|AV-procd|sdf|15|dock8
  -GOLD-   2262015113D 1   1.00000     0.00000
 Structure written by MMmdl.
 57 62  0  0  0  0  0  0  0  0  1 V2000
  152.5308  139.7679  157.0370 O   0  0  0  0  0  0  0  0  0  0  0  0
  152.0061  139.8175  158.1529 C   0  0  0  0  0  0  0  0  0  0  0  0
  151.2062  138.8728  158.7822 N   0  0  0  0  0  0  0  0  0  0  0  0
  150.6991  137.8903  158.1015 C   0  0  0  0  0  0  0  0  0  0  0  0
  150.7891  137.5274  156.7514 N   0  0  0  0  0  0  0  0  0  0  0  0
  150.1828  136.4093  156.1578 C   0  0  0  0  0  0  0  0  0  0  0  0
  149.4380  135.5411  156.7884 N   0  0  0  0  0  0  0  0  0  0  0  0
  149.3130  135.8574  158.1345 C   0  0  0  0  0  0  0  0  0  0  0  0
  149.8551  136.9178  158.8284 C   0  0  0  0  0  0  0  0  0  0  0  0
  149.4876  136.8726  160.1694 N   0  0  0  0  0  0  0  0  0  0  0  0
  148.7359  135.7765  160.2284 C   0  0  0  0  0  0  0  0  0  0  0  0
  148.5834  135.1195  159.0641 N   0  0  0  0  0  0  0  0  0  0  0  0
  147.8065  133.8640  158.8510 C   0  0  2  0  0  0  0  0  0  0  0  0
  148.6535  132.8992  158.3150 O   0  0  0  0  0  0  0  0  0  0  0  0
  147.9350  132.0535  157.4186 C   0  0  2  0  0  0  0  0  0  0  0  0
  148.7082  132.0068  156.0948 C   0  0  0  0  0  0  0  0  0  0  0  0
  147.9495  131.2965  155.1301 O   0  0  0  0  0  0  0  0  0  0  0  0
  148.5493  130.8059  154.0283 C   0  0  0  0  0  0  0  0  0  0  0  0
  149.7631  130.8769  153.8236 O   0  0  0  0  0  0  0  0  0  0  0  0
  147.5905  130.1633  153.0835 C   0  0  0  0  0  0  0  0  0  0  0  0
  148.0514  129.1501  152.2106 C   0  0  0  0  0  0  0  0  0  0  0  0
  147.1686  128.5223  151.3105 C   0  0  0  0  0  0  0  0  0  0  0  0
  145.8141  128.9011  151.2710 C   0  0  0  0  0  0  0  0  0  0  0  0
  145.3436  129.9090  152.1329 C   0  0  0  0  0  0  0  0  0  0  0  0
  146.2249  130.5374  153.0343 C   0  0  0  0  0  0  0  0  0  0  0  0
  146.5308  132.6588  157.2790 C   0  0  1  0  0  0  0  0  0  0  0  0
  145.6102  131.9462  158.0881 O   0  0  0  0  0  0  0  0  0  0  0  0
  144.6192  133.0478  158.8597 S   0  0  0  0  0  0  0  0  0  0  0  0
  143.3355  133.0956  158.1434 O   0  0  0  0  0  0  0  0  0  0  0  0
  144.7101  132.8129  160.3089 O   0  0  0  0  0  0  0  0  0  0  0  0
  145.4714  134.4393  158.4977 O   0  0  0  0  0  0  0  0  0  0  0  0
  146.6750  134.0724  157.8467 C   0  0  1  0  0  0  0  0  0  0  0  0
  152.2479  141.0330  158.9869 C   0  0  0  0  0  0  0  0  0  0  0  0
  153.1214  140.9690  160.0930 C   0  0  0  0  0  0  0  0  0  0  0  0
  153.3411  142.1120  160.8865 C   0  0  0  0  0  0  0  0  0  0  0  0
  152.6873  143.3205  160.5776 C   0  0  0  0  0  0  0  0  0  0  0  0
  151.8134  143.3866  159.4749 C   0  0  0  0  0  0  0  0  0  0  0  0
  151.5924  142.2443  158.6808 C   0  0  0  0  0  0  0  0  0  0  0  0
  150.3841  136.3100  155.0901 H   0  0  0  0  0  0  0  0  0  0  0  0
  148.2818  135.4401  161.1490 H   0  0  0  0  0  0  0  0  0  0  0  0
  147.4649  133.5505  159.8387 H   0  0  0  0  0  0  0  0  0  0  0  0
  147.8843  131.0522  157.8489 H   0  0  0  0  0  0  0  0  0  0  0  0
  148.9275  133.0161  155.7434 H   0  0  0  0  0  0  0  0  0  0  0  0
  149.6611  131.4966  156.2423 H   0  0  0  0  0  0  0  0  0  0  0  0
  149.0869  128.8417  152.2235 H   0  0  0  0  0  0  0  0  0  0  0  0
  147.5316  127.7486  150.6500 H   0  0  0  0  0  0  0  0  0  0  0  0
  145.1376  128.4194  150.5806 H   0  0  0  0  0  0  0  0  0  0  0  0
  144.3042  130.2009  152.1035 H   0  0  0  0  0  0  0  0  0  0  0  0
  145.8310  131.3076  153.6813 H   0  0  0  0  0  0  0  0  0  0  0  0
  146.1636  132.6625  156.2520 H   0  0  0  0  0  0  0  0  0  0  0  0
  146.9641  134.7831  157.0721 H   0  0  0  0  0  0  0  0  0  0  0  0
  153.6253  140.0448  160.3372 H   0  0  0  0  0  0  0  0  0  0  0  0
  154.0096  142.0611  161.7331 H   0  0  0  0  0  0  0  0  0  0  0  0
  152.8552  144.1963  161.1869 H   0  0  0  0  0  0  0  0  0  0  0  0
  151.3118  144.3134  159.2388 H   0  0  0  0  0  0  0  0  0  0  0  0
  150.9181  142.3017  157.8386 H   0  0  0  0  0  0  0  0  0  0  0  0
  151.3437  138.1231  156.1530 H   0  0  0  0  0  0  0  0  0  0  0  0
  1  2  2  0  0  0  0
  2  3  1  0  0  0  0
  2 33  1  0  0  0  0
  3  4  2  0  0  0  0
  4  9  1  0  0  0  0
  4  5  1  0  0  0  0
  5  6  1  0  0  0  0
  5 57  1  0  0  0  0
  6  7  2  0  0  0  0
  6 39  1  0  0  0  0
  7  8  1  0  0  0  0
  8 12  1  0  0  0  0
  8  9  2  0  0  0  0
  9 10  1  0  0  0  0
 10 11  2  0  0  0  0
 11 12  1  0  0  0  0
 11 40  1  0  0  0  0
 12 13  1  0  0  0  0
 13 32  1  0  0  0  0
 13 14  1  0  0  0  0
 13 41  1  0  0  0  0
 14 15  1  0  0  0  0
 15 16  1  0  0  0  0
 15 26  1  0  0  0  0
 15 42  1  0  0  0  0
 16 17  1  0  0  0  0
 16 43  1  0  0  0  0
 16 44  1  0  0  0  0
 17 18  1  0  0  0  0
 18 19  2  0  0  0  0
 18 20  1  0  0  0  0
 20 25  1  0  0  0  0
 20 21  2  0  0  0  0
 21 22  1  0  0  0  0
 21 45  1  0  0  0  0
 22 23  2  0  0  0  0
 22 46  1  0  0  0  0
 23 24  1  0  0  0  0
 23 47  1  0  0  0  0
 24 25  2  0  0  0  0
 24 48  1  0  0  0  0
 25 49  1  0  0  0  0
 26 32  1  0  0  0  0
 26 27  1  0  0  0  0
 26 50  1  0  0  0  0
 27 28  1  0  0  0  0
 28 29  2  0  0  0  0
 28 30  2  0  0  0  0
 28 31  1  0  0  0  0
 31 32  1  0  0  0  0
 32 51  1  0  0  0  0
 33 38  1  0  0  0  0
 33 34  2  0  0  0  0
 34 35  1  0  0  0  0
 34 52  1  0  0  0  0
 35 36  2  0  0  0  0
 35 53  1  0  0  0  0
 36 37  1  0  0  0  0
 36 54  1  0  0  0  0
 37 38  2  0  0  0  0
 37 55  1  0  0  0  0
 38 56  1  0  0  0  0
M  END
> <s_m_source_file>
AV-unprocessed.smi

> <i_m_source_file_index>
1

> <i_lp_mmshare_version>
43012

> <i_f3d_flags>
0

> <s_epik_input>
W2NIXTFbY0hdW2NIXVtjSF1bY0hdYzFDKD1PKVtOSF1jKG5bY0hdbjIpYyhjMjMpbltjSF1uM1tDQEBIXShbQ0BIXShbQ0BIXTQ1KU9TKE81KSg9Tyk9TylPW0NASF00W0NIMl1PQyg9TyljNltjSF1bY0hdW2NIXVtjSF1bY0hdNg==

> <s_epik_cmdline>
J2VwaWtfcHl0aG9uJywgJy1waCcsICc3LjAnLCAnLXRuJywgJzgnLCAnLW1hJywgJzIwMCcsICctbWV0YWxfYmluZGluZycsICctaW1hZScsICc8aW5maWxlLm1hZT4nLCAnLW9tYWUnLCAnPG91dGZpbGUubWFlPic=

> <r_epik_Ionization_Penalty>
0.122545

> <r_epik_Ionization_Penalty_Charging>
0.122545

> <r_epik_Ionization_Penalty_Neutral>
7.8935e-16

> <r_epik_State_Penalty>
2.69178

> <r_epik_Charging_Adjusted_Penalty>
2.81433

> <i_epik_Tot_Q>
0

> <i_epik_Tot_abs_Q>
0

> <r_epik_Metal_State_Penalty>
3.02665

> <b_epik_Metal_Only>
0

> <s_epik_Chemistry_Notes>
This compound has an ester and may undergo hydrolysis at high or low pH. This compound contains an acetal/aminal-like group ( X-CH(R)-Y where X, Y are N, S, or O) that may be acid/base labile, releasing an aldehyde.

> <s_lp_Force_Field>
OPLS_2005

> <r_lp_Energy>
60.8199

> <b_lp_Chiralities_Consistent>
1

> <s_lp_Variant>
AV-unprocessed.smi:1-15

> <Gold.Version>
5.8.1

> <Gold.Id.Protein>
6NUR|6NUR_protein|mol2

> <Gold.PLP.Fitness>
54.0899

> <Gold.PLP.PLP>
-50.3623

> <Gold.PLP.part.hbond>
-3.4510

> <Gold.PLP.part.metal>
0.0000

> <Gold.PLP.part.buried>
-7.9579

> <Gold.PLP.part.nonpolar>
-40.3658

> <Gold.PLP.part.repulsive>
0.2692

> <Gold.PLP.ligand.clash>
0.0000

> <Gold.PLP.ligand.torsion>
1.8370

> <Gold.PLP.Chemscore.Hbond>
2.4160

> <Gold.PLP.Chemscore.CHOScore>
0.0000

> <Gold.PLP.Chemscore.Metal>
0.0000

> <Gold.Chemscore.Hbonds>
donor molecule, donor type, donor heavy atom, donor atom, acceptor molecule, acceptor atom, score
      P1  H  6931  6943       L1    10  0.25
      P1  H  7997  8009       L1     1  0.99

> <Gold.PLP.Chemscore.Internal.Correction>
0.1536

> <Gold.Rescore>
     Score         DG    S(hbond)    S(metal)    S(lipo)     H(rot)  DE(clash)    DE(int)     intcor
     19.05     -21.17       2.24        0.00     116.75       2.13       0.11       2.01       ----

> <Gold.Chemscore.Fitness>
19.0530

> <Gold.Chemscore.DG>
-21.1741

> <Gold.Chemscore.ZeroCoef>
-5.4800

> <Gold.Chemscore.Hbond>
2.2443

> <Gold.Chemscore.Metal>
0.0000

> <Gold.Chemscore.Lipo>
116.7470

> <Gold.Chemscore.Internal_Hbond>
0.0000

> <Gold.Chemscore.DEClash>
0.1091

> <Gold.Chemscore.DEInternal>
2.0120

> <Gold.Chemscore.Rot>
2.1333

> <Gold.Chemscore.Internal.Correction>
   9.000000E+99

> <Gold.Chemscore.Hbonds>
donor molecule, donor type, donor heavy atom, donor atom, acceptor molecule, acceptor atom, score
      P1  H  6931  6943       L1    10  0.20
      P1  H  7997  8009       L1     1  0.89
      P1  H 11000 11005       L1    29  0.03

> <Gold.Chemscore.Hbond.Weighted>
-7.4961

> <Gold.Chemscore.Metal.Weighted>
-0.0000

> <Gold.Chemscore.Lipo.Weighted>
-13.6594

> <Gold.Chemscore.Internal_Hbond.Weighted>
0.0000

> <Gold.Chemscore.DEClash.Weighted>
0.1091

> <Gold.Chemscore.DEInternal.Weighted>
2.0120

> <Gold.Chemscore.Rot.Weighted>
5.4614

> <Gold.Chemscore.Internal.Correction.Weighted>
   9.000000E+99

> <Gold.Protein.RotatedTorsions>
[ 6907 6896 6895 6894 ] final  142.66 input  -60.11 | X-H torsion
[ 7974 7965 7964 7962 ] final    2.74 input  175.53 | X-H torsion
[ 8008 7997 7996 7995 ] final  163.72 input   59.86 | X-H torsion
[ 10167 10162 10161 10158 ] final  -27.74 input  -65.29 | X-H torsion
[ 10718 10713 10712 10709 ] final  -28.09 input   66.30 | X-H torsion
[ 10763 10752 10751 10750 ] final  -13.23 input  -60.55 | X-H torsion
[ 11005 11000 10999 10996 ] final  -97.83 input  -57.11 | X-H torsion

> <Gold.Protein.ActiveResidues>
 VAL166  LYS551  ARG553  GLY616  TRP617  ASP618  TYR619  PRO620  LYS621  CYS622 
 ASP623  PHE694  ASN695  SER759  ASP760  ASP761  ALA762  ILE779  LEU786  VAL792 
 PHE793  MET794  SER795  GLU796  ALA797  LYS798  CYS799  TRP800  GLU811  SER814 

> <Gold.Protein.RotatedAtoms>
  152.2159  133.4946  159.5135 H   0  0  0  0  0  0  0  0  0  0  0  0  # atno 6907 bound_to 6896
  150.7001  134.1406  159.4112 H   0  0  0  0  0  0  0  0  0  0  0  0  # atno 6908 bound_to 6896
  151.9326  135.0249  160.0581 H   0  0  0  0  0  0  0  0  0  0  0  0  # atno 6909 bound_to 6896
  146.2444  140.0791  142.8358 H   0  0  0  0  0  0  0  0  0  0  0  0  # atno 7974 bound_to 7965
  156.1935  140.1716  156.8045 H   0  0  0  0  0  0  0  0  0  0  0  0  # atno 8008 bound_to 7997
  154.5500  140.0719  156.8684 H   0  0  0  0  0  0  0  0  0  0  0  0  # atno 8009 bound_to 7997
  155.3046  140.3363  155.4248 H   0  0  0  0  0  0  0  0  0  0  0  0  # atno 8010 bound_to 7997
  140.7275  143.4068  151.1172 H   0  0  0  0  0  0  0  0  0  0  0  0  # atno 10167 bound_to 10162
  156.4298  130.4443  149.7125 H   0  0  0  0  0  0  0  0  0  0  0  0  # atno 10718 bound_to 10713
  153.5102  135.7016  153.5785 H   0  0  0  0  0  0  0  0  0  0  0  0  # atno 10763 bound_to 10752
  153.3878  135.3903  155.1902 H   0  0  0  0  0  0  0  0  0  0  0  0  # atno 10764 bound_to 10752
  154.8704  135.3851  154.4581 H   0  0  0  0  0  0  0  0  0  0  0  0  # atno 10765 bound_to 10752
  141.1365  133.8200  157.0759 H   0  0  0  0  0  0  0  0  0  0  0  0  # atno 11005 bound_to 11000
  145.0749  140.9181  143.4860 LP  0  0  0  0  0  0  0  0  0  0  0  0  # atno 17320 bound_to 7965
  145.0932  139.2875  143.5724 LP  0  0  0  0  0  0  0  0  0  0  0  0  # atno 17321 bound_to 7965
  139.7695  143.8515  152.3117 LP  0  0  0  0  0  0  0  0  0  0  0  0  # atno 17342 bound_to 10162
  139.8428  144.7201  150.9309 LP  0  0  0  0  0  0  0  0  0  0  0  0  # atno 17343 bound_to 10162
  156.4033  130.7685  151.2694 LP  0  0  0  0  0  0  0  0  0  0  0  0  # atno 17370 bound_to 10713
  157.7508  131.0233  150.3829 LP  0  0  0  0  0  0  0  0  0  0  0  0  # atno 17371 bound_to 10713
  140.0482  134.9819  157.1088 LP  0  0  0  0  0  0  0  0  0  0  0  0  # atno 17394 bound_to 11000
  140.4030  134.2062  155.7163 LP  0  0  0  0  0  0  0  0  0  0  0  0  # atno 17395 bound_to 11000

$$$$
