AV-unprocessed.smi:39|AV-procd|sdf|359|dock2
  -GOLD-   2262016193D 1   1.00000     0.00000
 Structure written by MMmdl.
 31 32  0  0  0  0  0  0  0  0  4 V2000
  150.1924  143.8576  158.6852 C   0  0  0  0  0  0  0  0  0  0  0  0
  151.0571  142.6194  158.5253 C   0  0  0  0  0  0  0  0  0  0  0  0
  151.0849  141.9021  157.3803 C   0  0  0  0  0  0  0  0  0  0  0  0
  151.8715  140.7717  157.2397 N   0  0  0  0  0  0  0  0  0  0  0  0
  151.8753  139.9768  155.9507 C   0  0  1  0  0  0  0  0  0  0  0  0
  151.4193  138.5387  156.2123 C   0  0  0  0  0  0  0  0  0  0  0  0
  149.9500  138.6090  155.8414 C   0  0  2  0  0  0  0  0  0  0  0  0
  149.3920  137.3050  155.4762 N   0  0  0  0  0  0  0  0  0  0  0  0
  150.2005  136.3752  155.3562 N   0  3  0  0  0  0  0  0  0  0  0  0
  151.0179  135.6015  155.1885 N   0  5  0  0  0  0  0  0  0  0  0  0
  149.9885  139.5839  154.6617 C   0  0  1  0  0  0  0  0  0  0  0  0
  148.6429  140.2765  154.3940 C   0  0  0  0  0  0  0  0  0  0  0  0
  148.6925  140.9807  153.1715 O   0  0  0  0  0  0  0  0  0  0  0  0
  150.9655  140.5468  155.0534 O   0  0  0  0  0  0  0  0  0  0  0  0
  152.6598  140.3269  158.3334 C   0  0  0  0  0  0  0  0  0  0  0  0
  153.3210  139.2981  158.1909 O   0  0  0  0  0  0  0  0  0  0  0  0
  152.6442  141.0486  159.4902 N   0  5  0  0  0  0  0  0  0  0  0  0
  151.8909  142.1746  159.6482 C   0  0  0  0  0  0  0  0  0  0  0  0
  151.8901  142.8194  160.6963 O   0  0  0  0  0  0  0  0  0  0  0  0
  152.8849  140.0550  155.5444 H   0  0  0  0  0  0  0  0  0  0  0  0
  149.3898  139.0614  156.6625 H   0  0  0  0  0  0  0  0  0  0  0  0
  150.3450  139.0616  153.7715 H   0  0  0  0  0  0  0  0  0  0  0  0
  149.6345  144.0719  157.7735 H   0  0  0  0  0  0  0  0  0  0  0  0
  150.8096  144.7262  158.9162 H   0  0  0  0  0  0  0  0  0  0  0  0
  149.4757  143.7186  159.4951 H   0  0  0  0  0  0  0  0  0  0  0  0
  150.4667  142.2250  156.5571 H   0  0  0  0  0  0  0  0  0  0  0  0
  151.9641  137.8767  155.5377 H   0  0  0  0  0  0  0  0  0  0  0  0
  151.6032  138.2236  157.2403 H   0  0  0  0  0  0  0  0  0  0  0  0
  147.8490  139.5342  154.3088 H   0  0  0  0  0  0  0  0  0  0  0  0
  148.3705  140.9477  155.2087 H   0  0  0  0  0  0  0  0  0  0  0  0
  148.6570  140.3558  152.4636 H   0  0  0  0  0  0  0  0  0  0  0  0
  1  2  1  0  0  0  0
  1 23  1  0  0  0  0
  1 24  1  0  0  0  0
  1 25  1  0  0  0  0
  2 18  1  0  0  0  0
  2  3  2  0  0  0  0
  3  4  1  0  0  0  0
  3 26  1  0  0  0  0
  4  5  1  0  0  0  0
  4 15  1  0  0  0  0
  5 20  1  0  0  0  0
  5 14  1  0  0  0  0
  5  6  1  0  0  0  0
  6  7  1  0  0  0  0
  6 27  1  0  0  0  0
  6 28  1  0  0  0  0
  7 21  1  0  0  0  0
  7  8  1  0  0  0  0
  7 11  1  0  0  0  0
  8  9  2  0  0  0  0
  9 10  2  0  0  0  0
 11 22  1  0  0  0  0
 11 12  1  0  0  0  0
 11 14  1  0  0  0  0
 12 13  1  0  0  0  0
 12 29  1  0  0  0  0
 12 30  1  0  0  0  0
 13 31  1  0  0  0  0
 15 16  2  0  0  0  0
 15 17  1  0  0  0  0
 17 18  1  0  0  0  0
 18 19  2  0  0  0  0
M  CHG  1   9   1
M  CHG  1  10  -1
M  CHG  1  17  -1
M  END
> <s_m_source_file>
AV-unprocessed.smi

> <i_m_source_file_index>
39

> <i_lp_mmshare_version>
43012

> <i_f3d_flags>
0

> <s_epik_input>
Tz1jMVtuSF1jKD1PKW4oW2NIXWMxW0NIM10pW0NASF0yW0NIMl1bQ0BIXShOPVtOK109W04tXSlbQ0BIXShPMilbQ0gyXVtPSF0=

> <s_epik_cmdline>
J2VwaWtfcHl0aG9uJywgJy1waCcsICc3LjAnLCAnLXRuJywgJzgnLCAnLW1hJywgJzIwMCcsICctbWV0YWxfYmluZGluZycsICctaW1hZScsICc8aW5maWxlLm1hZT4nLCAnLW9tYWUnLCAnPG91dGZpbGUubWFlPic=

> <r_lp_tautomer_probability>
0.999537

> <r_epik_Ionization_Penalty>
3.6393

> <r_epik_Ionization_Penalty_Charging>
9.76484e-08

> <r_epik_Ionization_Penalty_Neutral>
3.6393

> <r_epik_State_Penalty>
3.63887

> <r_epik_Charging_Adjusted_Penalty>
3.63887

> <i_epik_Tot_Q>
-1

> <i_epik_Tot_abs_Q>
3

> <r_epik_Metal_State_Penalty>
0.225911

> <b_epik_Metal_Only>
1

> <s_epik_Chemistry_Notes>
This compound contains an acetal/aminal-like group ( X-CH(R)-Y where X, Y are N, S, or O) that may be acid/base labile, releasing an aldehyde.

> <s_lp_Force_Field>
OPLS_2005

> <r_lp_Energy>
34.0218

> <b_lp_Chiralities_Consistent>
1

> <s_lp_Variant>
AV-unprocessed.smi:39-9

> <Gold.Version>
5.8.1

> <Gold.Id.Protein>
6NUR|6NUR_protein|mol2

> <Gold.PLP.Fitness>
40.8371

> <Gold.PLP.PLP>
-27.2868

> <Gold.PLP.part.hbond>
-4.9426

> <Gold.PLP.part.metal>
0.0000

> <Gold.PLP.part.buried>
-4.6351

> <Gold.PLP.part.nonpolar>
-17.8079

> <Gold.PLP.part.repulsive>
0.4381

> <Gold.PLP.ligand.clash>
0.0000

> <Gold.PLP.ligand.torsion>
0.2118

> <Gold.PLP.Chemscore.Hbond>
4.6464

> <Gold.PLP.Chemscore.CHOScore>
0.0000

> <Gold.PLP.Chemscore.Metal>
0.0000

> <Gold.Chemscore.Hbonds>
donor molecule, donor type, donor heavy atom, donor atom, acceptor molecule, acceptor atom, score
      L1  H    13    31       P1  7957  0.69
      P1  H  7989  7998       L1    14  0.94
      P1  H  7997  8008       L1    16  1.00
      P1  H  8011  8017       L1    13  1.00
      P1  H 10752 10765       L1    10  1.00

> <Gold.PLP.Chemscore.Internal.Correction>
0.0346

> <Gold.Rescore>
     Score         DG    S(hbond)    S(metal)    S(lipo)     H(rot)  DE(clash)    DE(int)     intcor
     11.80     -13.39       2.93        0.00      43.21       2.72       0.13       1.45       ----

> <Gold.Chemscore.Fitness>
11.7999

> <Gold.Chemscore.DG>
-13.3861

> <Gold.Chemscore.ZeroCoef>
-5.4800

> <Gold.Chemscore.Hbond>
2.9345

> <Gold.Chemscore.Metal>
0.0000

> <Gold.Chemscore.Lipo>
43.2136

> <Gold.Chemscore.Internal_Hbond>
0.0000

> <Gold.Chemscore.DEClash>
0.1338

> <Gold.Chemscore.DEInternal>
1.4524

> <Gold.Chemscore.Rot>
2.7153

> <Gold.Chemscore.Internal.Correction>
   9.000000E+99

> <Gold.Chemscore.Hbonds>
donor molecule, donor type, donor heavy atom, donor atom, acceptor molecule, acceptor atom, score
      L1  H    13    31       P1  7957  0.70
      P1  H  7989  7998       L1    14  0.18
      P1  H  7997  8008       L1    16  0.25
      P1  H  8011  8017       L1    13  0.24
      P1  H 10752 10765       L1    10  0.93

> <Gold.Chemscore.Hbond.Weighted>
-9.8013

> <Gold.Chemscore.Metal.Weighted>
-0.0000

> <Gold.Chemscore.Lipo.Weighted>
-5.0560

> <Gold.Chemscore.Internal_Hbond.Weighted>
0.0000

> <Gold.Chemscore.DEClash.Weighted>
0.1338

> <Gold.Chemscore.DEInternal.Weighted>
1.4524

> <Gold.Chemscore.Rot.Weighted>
6.9512

> <Gold.Chemscore.Internal.Correction.Weighted>
   9.000000E+99

> <Gold.Protein.RotatedTorsions>
[ 6907 6896 6895 6894 ] final -169.25 input  -60.11 | X-H torsion
[ 7974 7965 7964 7962 ] final   19.90 input  175.53 | X-H torsion
[ 8008 7997 7996 7995 ] final -105.73 input   59.86 | X-H torsion
[ 10167 10162 10161 10158 ] final  -94.25 input  -65.29 | X-H torsion
[ 10718 10713 10712 10709 ] final -175.55 input   66.30 | X-H torsion
[ 10763 10752 10751 10750 ] final -165.36 input  -60.55 | X-H torsion
[ 11005 11000 10999 10996 ] final  -66.87 input  -57.11 | X-H torsion

> <Gold.Protein.ActiveResidues>
 VAL166  LYS551  ARG553  GLY616  TRP617  ASP618  TYR619  PRO620  LYS621  CYS622 
 ASP623  PHE694  ASN695  SER759  ASP760  ASP761  ALA762  ILE779  LEU786  VAL792 
 PHE793  MET794  SER795  GLU796  ALA797  LYS798  CYS799  TRP800  GLU811  SER814 

> <Gold.Protein.RotatedAtoms>
  151.4886  133.3530  159.2849 H   0  0  0  0  0  0  0  0  0  0  0  0  # atno 6907 bound_to 6896
  150.8849  134.8248  159.7263 H   0  0  0  0  0  0  0  0  0  0  0  0  # atno 6908 bound_to 6896
  152.4787  134.4789  159.9711 H   0  0  0  0  0  0  0  0  0  0  0  0  # atno 6909 bound_to 6896
  146.2132  139.8246  142.8672 H   0  0  0  0  0  0  0  0  0  0  0  0  # atno 7974 bound_to 7965
  154.9041  140.0412  157.1910 H   0  0  0  0  0  0  0  0  0  0  0  0  # atno 8008 bound_to 7997
  154.8414  140.2915  155.5636 H   0  0  0  0  0  0  0  0  0  0  0  0  # atno 8009 bound_to 7997
  156.2992  140.2482  156.3357 H   0  0  0  0  0  0  0  0  0  0  0  0  # atno 8010 bound_to 7997
  140.3164  143.3075  152.0094 H   0  0  0  0  0  0  0  0  0  0  0  0  # atno 10167 bound_to 10162
  156.8015  130.9554  151.3118 H   0  0  0  0  0  0  0  0  0  0  0  0  # atno 10718 bound_to 10713
  154.6940  135.2976  154.9439 H   0  0  0  0  0  0  0  0  0  0  0  0  # atno 10763 bound_to 10752
  154.0393  135.6659  153.4792 H   0  0  0  0  0  0  0  0  0  0  0  0  # atno 10764 bound_to 10752
  153.0632  135.5103  154.8047 H   0  0  0  0  0  0  0  0  0  0  0  0  # atno 10765 bound_to 10752
  141.1493  133.6708  156.6205 H   0  0  0  0  0  0  0  0  0  0  0  0  # atno 11005 bound_to 11000
  145.3061  141.0207  143.3581 LP  0  0  0  0  0  0  0  0  0  0  0  0  # atno 17320 bound_to 7965
  144.8970  139.4699  143.6650 LP  0  0  0  0  0  0  0  0  0  0  0  0  # atno 17321 bound_to 7965
  139.4883  144.6345  151.7003 LP  0  0  0  0  0  0  0  0  0  0  0  0  # atno 17342 bound_to 10162
  140.5523  144.0405  150.6132 LP  0  0  0  0  0  0  0  0  0  0  0  0  # atno 17343 bound_to 10162
  157.6551  130.8918  149.9713 LP  0  0  0  0  0  0  0  0  0  0  0  0  # atno 17370 bound_to 10713
  156.1098  130.3650  150.0068 LP  0  0  0  0  0  0  0  0  0  0  0  0  # atno 17371 bound_to 10713
  140.3544  134.7741  157.4489 LP  0  0  0  0  0  0  0  0  0  0  0  0  # atno 17394 bound_to 11000
  140.0835  134.5698  155.8516 LP  0  0  0  0  0  0  0  0  0  0  0  0  # atno 17395 bound_to 11000

$$$$
