AV-unprocessed.smi:2793|AV-procd|sdf|10774|dock3
  -GOLD-   2272015213D 1   1.00000     0.00000
 Structure written by MMmdl.
 28 29  0  0  0  0  0  0  0  0  1 V2000
  150.3195  141.7846  157.1161 O   0  0  0  0  0  0  0  0  0  0  0  0
  151.4977  141.5887  157.4177 C   0  0  0  0  0  0  0  0  0  0  0  0
  152.2551  140.5999  156.9055 N   0  0  0  0  0  0  0  0  0  0  0  0
  151.8926  139.6270  155.9370 C   0  0  0  0  0  0  0  0  0  0  0  0
  152.5837  138.3948  156.0141 C   0  0  0  0  0  0  0  0  0  0  0  0
  152.3473  137.3708  155.1638 N   0  0  0  0  0  0  0  0  0  0  0  0
  151.4068  137.5768  154.2174 C   0  0  0  0  0  0  0  0  0  0  0  0
  150.7101  138.7981  154.1235 C   0  0  0  0  0  0  0  0  0  0  0  0
  150.9505  139.8167  154.9776 N   0  0  0  0  0  0  0  0  0  0  0  0
  152.1879  142.4820  158.4604 C   0  0  2  0  0  0  0  0  0  0  0  0
  152.6495  141.7030  159.7142 C   0  0  0  0  0  0  0  0  0  0  0  0
  153.2566  142.6553  160.7510 C   0  0  0  0  0  0  0  0  0  0  0  0
  152.2791  143.7981  161.0416 C   0  0  0  0  0  0  0  0  0  0  0  0
  151.8472  144.4744  159.7316 C   0  0  0  0  0  0  0  0  0  0  0  0
  151.2767  143.5103  158.8518 O   0  0  0  0  0  0  0  0  0  0  0  0
  153.2030  140.5431  157.2490 H   0  0  0  0  0  0  0  0  0  0  0  0
  153.3368  138.2239  156.7699 H   0  0  0  0  0  0  0  0  0  0  0  0
  151.2089  136.7651  153.5330 H   0  0  0  0  0  0  0  0  0  0  0  0
  149.9593  138.9580  153.3639 H   0  0  0  0  0  0  0  0  0  0  0  0
  153.0523  142.9386  157.9752 H   0  0  0  0  0  0  0  0  0  0  0  0
  151.8033  141.1764  160.1586 H   0  0  0  0  0  0  0  0  0  0  0  0
  153.3848  140.9436  159.4448 H   0  0  0  0  0  0  0  0  0  0  0  0
  153.4959  142.1166  161.6682 H   0  0  0  0  0  0  0  0  0  0  0  0
  154.1949  143.0615  160.3714 H   0  0  0  0  0  0  0  0  0  0  0  0
  151.4006  143.4083  161.5574 H   0  0  0  0  0  0  0  0  0  0  0  0
  152.7380  144.5269  161.7104 H   0  0  0  0  0  0  0  0  0  0  0  0
  151.1052  145.2465  159.9355 H   0  0  0  0  0  0  0  0  0  0  0  0
  152.6935  144.9664  159.2495 H   0  0  0  0  0  0  0  0  0  0  0  0
  1  2  2  0  0  0  0
  2  3  1  0  0  0  0
  2 10  1  0  0  0  0
  3  4  1  0  0  0  0
  3 16  1  0  0  0  0
  4  9  1  0  0  0  0
  4  5  2  0  0  0  0
  5  6  1  0  0  0  0
  5 17  1  0  0  0  0
  6  7  2  0  0  0  0
  7  8  1  0  0  0  0
  7 18  1  0  0  0  0
  8  9  2  0  0  0  0
  8 19  1  0  0  0  0
 10 15  1  0  0  0  0
 10 11  1  0  0  0  0
 10 20  1  0  0  0  0
 11 12  1  0  0  0  0
 11 21  1  0  0  0  0
 11 22  1  0  0  0  0
 12 13  1  0  0  0  0
 12 23  1  0  0  0  0
 12 24  1  0  0  0  0
 13 14  1  0  0  0  0
 13 25  1  0  0  0  0
 13 26  1  0  0  0  0
 14 15  1  0  0  0  0
 14 27  1  0  0  0  0
 14 28  1  0  0  0  0
M  END
> <s_m_source_file>
AV-unprocessed.smi

> <i_m_source_file_index>
2793

> <i_lp_mmshare_version>
43012

> <i_f3d_flags>
0

> <s_epik_input>
TzFbQ0gyXVtDSDJdW0NIMl1bQ0gyXVtDQEhdMUMoPU8pW05IXWMyW2NIXW5bY0hdW2NIXW4y

> <s_epik_cmdline>
J2VwaWtfcHl0aG9uJywgJy1waCcsICc3LjAnLCAnLXRuJywgJzgnLCAnLW1hJywgJzIwMCcsICctbWV0YWxfYmluZGluZycsICctaW1hZScsICc8aW5maWxlLm1hZT4nLCAnLW9tYWUnLCAnPG91dGZpbGUubWFlPic=

> <r_lp_tautomer_probability>
1

> <r_epik_Ionization_Penalty>
2.82919e-06

> <r_epik_Ionization_Penalty_Charging>
0

> <r_epik_Ionization_Penalty_Neutral>
2.82919e-06

> <r_epik_State_Penalty>
-0

> <r_epik_Charging_Adjusted_Penalty>
0

> <i_epik_Tot_Q>
0

> <i_epik_Tot_abs_Q>
0

> <r_epik_Metal_State_Penalty>
-0

> <b_epik_Metal_Only>
0

> <s_lp_Force_Field>
OPLS_2005

> <r_lp_Energy>
18.1635

> <b_lp_Chiralities_Consistent>
1

> <s_lp_Variant>
AV-unprocessed.smi:2793-1

> <Gold.Version>
5.8.1

> <Gold.Id.Protein>
6NUR|6NUR_protein|mol2

> <Gold.PLP.Fitness>
42.1436

> <Gold.PLP.PLP>
-31.7474

> <Gold.PLP.part.hbond>
-2.0000

> <Gold.PLP.part.metal>
0.0000

> <Gold.PLP.part.buried>
-4.5095

> <Gold.PLP.part.nonpolar>
-25.3033

> <Gold.PLP.part.repulsive>
0.4127

> <Gold.PLP.ligand.clash>
0.0000

> <Gold.PLP.ligand.torsion>
0.1809

> <Gold.PLP.Chemscore.Hbond>
1.5280

> <Gold.PLP.Chemscore.CHOScore>
2.0567

> <Gold.PLP.Chemscore.Metal>
0.0000

> <Gold.Chemscore.Hbonds>
donor molecule, donor type, donor heavy atom, donor atom, acceptor molecule, acceptor atom, score
      P1  H  7989  7998       L1     9  0.45
      P1  H 10752 10765       L1     6  0.70
      L1  C     7    18       P1  7949  1.00
      L1  C     8    19       P1  7957  1.00

> <Gold.PLP.Chemscore.Internal.Correction>
0.0038

> <Gold.Rescore>
     Score         DG    S(hbond)    S(metal)    S(lipo)     H(rot)  DE(clash)    DE(int)     intcor
     13.61     -14.92       0.93        0.00      76.07       1.00       0.02       1.30       ----

> <Gold.Chemscore.Fitness>
13.6061

> <Gold.Chemscore.DG>
-14.9245

> <Gold.Chemscore.ZeroCoef>
-5.4800

> <Gold.Chemscore.Hbond>
0.9293

> <Gold.Chemscore.Metal>
0.0000

> <Gold.Chemscore.Lipo>
76.0747

> <Gold.Chemscore.Internal_Hbond>
0.0000

> <Gold.Chemscore.DEClash>
0.0211

> <Gold.Chemscore.DEInternal>
1.2974

> <Gold.Chemscore.Rot>
1.0000

> <Gold.Chemscore.Internal.Correction>
   9.000000E+99

> <Gold.Chemscore.Hbonds>
donor molecule, donor type, donor heavy atom, donor atom, acceptor molecule, acceptor atom, score
      P1  H  7989  7998       L1     9  0.01
      P1  H 10752 10765       L1     6  0.24

> <Gold.Chemscore.Hbond.Weighted>
-3.1038

> <Gold.Chemscore.Metal.Weighted>
-0.0000

> <Gold.Chemscore.Lipo.Weighted>
-8.9007

> <Gold.Chemscore.Internal_Hbond.Weighted>
0.0000

> <Gold.Chemscore.DEClash.Weighted>
0.0211

> <Gold.Chemscore.DEInternal.Weighted>
1.2974

> <Gold.Chemscore.Rot.Weighted>
2.5600

> <Gold.Chemscore.Internal.Correction.Weighted>
   9.000000E+99

> <Gold.Protein.RotatedTorsions>
[ 6907 6896 6895 6894 ] final   53.96 input  -60.11 | X-H torsion
[ 7974 7965 7964 7962 ] final -138.75 input  175.53 | X-H torsion
[ 8008 7997 7996 7995 ] final   90.47 input   59.86 | X-H torsion
[ 10167 10162 10161 10158 ] final -117.02 input  -65.29 | X-H torsion
[ 10718 10713 10712 10709 ] final  161.28 input   66.30 | X-H torsion
[ 10763 10752 10751 10750 ] final -172.68 input  -60.55 | X-H torsion
[ 11005 11000 10999 10996 ] final  113.92 input  -57.11 | X-H torsion

> <Gold.Protein.ActiveResidues>
 VAL166  LYS551  ARG553  GLY616  TRP617  ASP618  TYR619  PRO620  LYS621  CYS622 
 ASP623  PHE694  ASN695  SER759  ASP760  ASP761  ALA762  ILE779  LEU786  VAL792 
 PHE793  MET794  SER795  GLU796  ALA797  LYS798  CYS799  TRP800  GLU811  SER814 

> <Gold.Protein.RotatedAtoms>
  152.3391  134.7159  160.0268 H   0  0  0  0  0  0  0  0  0  0  0  0  # atno 6907 bound_to 6896
  151.7550  133.3324  159.3410 H   0  0  0  0  0  0  0  0  0  0  0  0  # atno 6908 bound_to 6896
  150.7468  134.6090  159.6120 H   0  0  0  0  0  0  0  0  0  0  0  0  # atno 6909 bound_to 6896
  144.8733  140.6399  143.5253 H   0  0  0  0  0  0  0  0  0  0  0  0  # atno 7974 bound_to 7965
  156.0123  140.3349  155.6954 H   0  0  0  0  0  0  0  0  0  0  0  0  # atno 8008 bound_to 7997
  155.6139  140.0668  157.2716 H   0  0  0  0  0  0  0  0  0  0  0  0  # atno 8009 bound_to 7997
  154.4286  140.1788  156.1289 H   0  0  0  0  0  0  0  0  0  0  0  0  # atno 8010 bound_to 7997
  140.0729  143.4860  152.1969 H   0  0  0  0  0  0  0  0  0  0  0  0  # atno 10167 bound_to 10162
  157.1387  131.0535  151.2337 H   0  0  0  0  0  0  0  0  0  0  0  0  # atno 10718 bound_to 10713
  154.6165  135.2870  155.0374 H   0  0  0  0  0  0  0  0  0  0  0  0  # atno 10763 bound_to 10752
  154.1584  135.6492  153.4984 H   0  0  0  0  0  0  0  0  0  0  0  0  # atno 10764 bound_to 10752
  153.0217  135.5372  154.6939 H   0  0  0  0  0  0  0  0  0  0  0  0  # atno 10765 bound_to 10752
  139.8966  134.9558  156.6813 H   0  0  0  0  0  0  0  0  0  0  0  0  # atno 11005 bound_to 11000
  145.4090  139.1583  143.4136 LP  0  0  0  0  0  0  0  0  0  0  0  0  # atno 17320 bound_to 7965
  146.2945  140.4193  142.8727 LP  0  0  0  0  0  0  0  0  0  0  0  0  # atno 17321 bound_to 7965
  139.5825  144.7517  151.3603 LP  0  0  0  0  0  0  0  0  0  0  0  0  # atno 17342 bound_to 10162
  140.7116  143.7374  150.7578 LP  0  0  0  0  0  0  0  0  0  0  0  0  # atno 17343 bound_to 10162
  157.4326  130.7499  149.7003 LP  0  0  0  0  0  0  0  0  0  0  0  0  # atno 17370 bound_to 10713
  155.9793  130.4042  150.3597 LP  0  0  0  0  0  0  0  0  0  0  0  0  # atno 17371 bound_to 10713
  140.7297  133.9069  155.8203 LP  0  0  0  0  0  0  0  0  0  0  0  0  # atno 17394 bound_to 11000
  141.0163  134.0951  157.4169 LP  0  0  0  0  0  0  0  0  0  0  0  0  # atno 17395 bound_to 11000

$$$$
