AV-unprocessed.smi:2090|AV-procd|sdf|8536|dock2
  -GOLD-   2272011253D 1   1.00000     0.00000
 Structure written by MMmdl.
 41 42  0  0  0  0  0  0  0  0  3 V2000
  147.2327  135.9482  162.4833 C   0  0  0  0  0  0  0  0  0  0  0  0
  147.6163  136.1846  161.0627 C   0  0  0  0  0  0  0  0  0  0  0  0
  148.1073  135.3667  160.0844 C   0  0  0  0  0  0  0  0  0  0  0  0
  148.2467  136.2418  158.9741 C   0  0  0  0  0  0  0  0  0  0  0  0
  148.7369  135.7612  157.7308 N   0  0  0  0  0  0  0  0  0  0  0  0
  149.3689  134.6034  157.4655 C   0  0  0  0  0  0  0  0  0  0  0  0
  149.5917  133.7910  158.3714 O   0  0  0  0  0  0  0  0  0  0  0  0
  149.7007  134.4858  156.1496 N   0  5  0  0  0  0  0  0  0  0  0  0
  148.8662  134.9372  155.0372 C   0  0  0  0  0  0  0  0  0  0  0  0
  148.6449  133.7859  154.0350 C   0  0  0  0  0  0  0  0  0  0  0  0
  147.6810  134.1608  152.9670 N   0  3  2  0  0  0  0  0  0  0  0  0
  146.4201  134.7571  153.4900 C   0  0  0  0  0  0  0  0  0  0  0  0
  145.5285  135.2621  152.3438 C   0  0  0  0  0  0  0  0  0  0  0  0
  145.2122  134.1350  151.3466 C   0  0  1  0  0  0  0  0  0  0  0  0
  144.3434  134.6319  150.1826 C   0  0  0  0  0  0  0  0  0  0  0  0
  146.5287  133.5138  150.8509 C   0  0  0  0  0  0  0  0  0  0  0  0
  147.4034  133.0449  152.0258 C   0  0  0  0  0  0  0  0  0  0  0  0
  147.8750  137.4828  159.2520 N   0  0  0  0  0  0  0  0  0  0  0  0
  147.4702  137.4526  160.5916 O   0  0  0  0  0  0  0  0  0  0  0  0
  146.9861  134.8995  162.6496 H   0  0  0  0  0  0  0  0  0  0  0  0
  146.3629  136.5463  162.7560 H   0  0  0  0  0  0  0  0  0  0  0  0
  148.0508  136.2144  163.1527 H   0  0  0  0  0  0  0  0  0  0  0  0
  148.3295  134.3122  160.1529 H   0  0  0  0  0  0  0  0  0  0  0  0
  148.5916  136.3714  156.9400 H   0  0  0  0  0  0  0  0  0  0  0  0
  147.8994  135.3116  155.3761 H   0  0  0  0  0  0  0  0  0  0  0  0
  149.3302  135.7724  154.5122 H   0  0  0  0  0  0  0  0  0  0  0  0
  149.6108  133.5345  153.5941 H   0  0  0  0  0  0  0  0  0  0  0  0
  148.3037  132.8807  154.5403 H   0  0  0  0  0  0  0  0  0  0  0  0
  145.8831  134.0143  154.0822 H   0  0  0  0  0  0  0  0  0  0  0  0
  146.6459  135.5877  154.1599 H   0  0  0  0  0  0  0  0  0  0  0  0
  144.6034  135.6700  152.7525 H   0  0  0  0  0  0  0  0  0  0  0  0
  146.0282  136.0846  151.8299 H   0  0  0  0  0  0  0  0  0  0  0  0
  144.6497  133.3626  151.8733 H   0  0  0  0  0  0  0  0  0  0  0  0
  144.8476  135.4149  149.6153 H   0  0  0  0  0  0  0  0  0  0  0  0
  143.3990  135.0391  150.5446 H   0  0  0  0  0  0  0  0  0  0  0  0
  144.1089  133.8198  149.4938 H   0  0  0  0  0  0  0  0  0  0  0  0
  146.3196  132.6708  150.1911 H   0  0  0  0  0  0  0  0  0  0  0  0
  147.0809  134.2425  150.2555 H   0  0  0  0  0  0  0  0  0  0  0  0
  148.3426  132.6521  151.6339 H   0  0  0  0  0  0  0  0  0  0  0  0
  146.9149  132.2287  152.5607 H   0  0  0  0  0  0  0  0  0  0  0  0
  148.1419  134.8764  152.4233 H   0  0  0  0  0  0  0  0  0  0  0  0
  1  2  1  0  0  0  0
  1 20  1  0  0  0  0
  1 21  1  0  0  0  0
  1 22  1  0  0  0  0
  2 19  1  0  0  0  0
  2  3  2  0  0  0  0
  3  4  1  0  0  0  0
  3 23  1  0  0  0  0
  4  5  1  0  0  0  0
  4 18  2  0  0  0  0
  5  6  1  0  0  0  0
  5 24  1  0  0  0  0
  6  7  2  0  0  0  0
  6  8  1  0  0  0  0
  8  9  1  0  0  0  0
  9 10  1  0  0  0  0
  9 25  1  0  0  0  0
  9 26  1  0  0  0  0
 10 11  1  0  0  0  0
 10 27  1  0  0  0  0
 10 28  1  0  0  0  0
 11 17  1  0  0  0  0
 11 12  1  0  0  0  0
 11 41  1  0  0  0  0
 12 13  1  0  0  0  0
 12 29  1  0  0  0  0
 12 30  1  0  0  0  0
 13 14  1  0  0  0  0
 13 31  1  0  0  0  0
 13 32  1  0  0  0  0
 14 15  1  0  0  0  0
 14 16  1  0  0  0  0
 14 33  1  0  0  0  0
 15 34  1  0  0  0  0
 15 35  1  0  0  0  0
 15 36  1  0  0  0  0
 16 17  1  0  0  0  0
 16 37  1  0  0  0  0
 16 38  1  0  0  0  0
 17 39  1  0  0  0  0
 17 40  1  0  0  0  0
 18 19  1  0  0  0  0
M  CHG  1   8  -1
M  CHG  1  11   1
M  END
> <s_m_source_file>
AV-unprocessed.smi

> <i_m_source_file_index>
2090

> <i_lp_mmshare_version>
43012

> <i_f3d_flags>
0

> <s_epik_input>
W0NIM11jMVtjSF1jKG5vMSlbTkhdQyg9TylbTkhdW0NIMl1bQ0gyXU4yW0NIMl1bQ0gyXVtDSF0oW0NIM10pW0NIMl1bQ0gyXTI=

> <s_epik_cmdline>
J2VwaWtfcHl0aG9uJywgJy1waCcsICc3LjAnLCAnLXRuJywgJzgnLCAnLW1hJywgJzIwMCcsICctbWV0YWxfYmluZGluZycsICctaW1hZScsICc8aW5maWxlLm1hZT4nLCAnLW9tYWUnLCAnPG91dGZpbGUubWFlPic=

> <r_epik_Ionization_Penalty>
6.7721

> <r_epik_Ionization_Penalty_Charging>
6.7721

> <r_epik_Ionization_Penalty_Neutral>
5.78572e-06

> <r_epik_State_Penalty>
6.79704

> <r_epik_Charging_Adjusted_Penalty>
13.5691

> <i_epik_Tot_Q>
0

> <i_epik_Tot_abs_Q>
2

> <r_epik_Metal_State_Penalty>
2.73105

> <b_epik_Metal_Only>
1

> <s_lp_Force_Field>
OPLS_2005

> <r_lp_Energy>
11.0836

> <b_lp_Chiralities_Consistent>
1

> <s_lp_Variant>
AV-unprocessed.smi:2090-5

> <Gold.Version>
5.8.1

> <Gold.Id.Protein>
6NUR|6NUR_protein|mol2

> <Gold.PLP.Fitness>
43.3283

> <Gold.PLP.PLP>
-30.0206

> <Gold.PLP.part.hbond>
-4.0000

> <Gold.PLP.part.metal>
0.0000

> <Gold.PLP.part.buried>
-2.8525

> <Gold.PLP.part.nonpolar>
-23.3640

> <Gold.PLP.part.repulsive>
0.0811

> <Gold.PLP.ligand.clash>
0.0000

> <Gold.PLP.ligand.torsion>
0.3891

> <Gold.PLP.Chemscore.Hbond>
4.6800

> <Gold.PLP.Chemscore.CHOScore>
0.0000

> <Gold.PLP.Chemscore.Metal>
0.0000

> <Gold.Chemscore.Hbonds>
donor molecule, donor type, donor heavy atom, donor atom, acceptor molecule, acceptor atom, score
      L1  H    11    41       P1  7948  2.00
      P1  H  6896  6908       L1     7  0.85
      P1  H  6931  6943       L1    19  0.28
      P1  H  6934  6947       L1    19  1.00

> <Gold.PLP.Chemscore.Internal.Correction>
0.0459

> <Gold.Rescore>
     Score         DG    S(hbond)    S(metal)    S(lipo)     H(rot)  DE(clash)    DE(int)     intcor
     17.00     -17.83       2.80        0.00      59.30       1.54       0.01       0.82       ----

> <Gold.Chemscore.Fitness>
16.9985

> <Gold.Chemscore.DG>
-17.8319

> <Gold.Chemscore.ZeroCoef>
-5.4800

> <Gold.Chemscore.Hbond>
2.8021

> <Gold.Chemscore.Metal>
0.0000

> <Gold.Chemscore.Lipo>
59.2960

> <Gold.Chemscore.Internal_Hbond>
0.0000

> <Gold.Chemscore.DEClash>
0.0089

> <Gold.Chemscore.DEInternal>
0.8245

> <Gold.Chemscore.Rot>
1.5409

> <Gold.Chemscore.Internal.Correction>
   9.000000E+99

> <Gold.Chemscore.Hbonds>
donor molecule, donor type, donor heavy atom, donor atom, acceptor molecule, acceptor atom, score
      L1  H    11    41       P1  7948  0.60
      P1  H  6896  6908       L1     7  0.83
      P1  H  6931  6943       L1    19  0.02
      P1  H  6934  6947       L1    19  0.38

> <Gold.Chemscore.Hbond.Weighted>
-9.3589

> <Gold.Chemscore.Metal.Weighted>
-0.0000

> <Gold.Chemscore.Lipo.Weighted>
-6.9376

> <Gold.Chemscore.Internal_Hbond.Weighted>
0.0000

> <Gold.Chemscore.DEClash.Weighted>
0.0089

> <Gold.Chemscore.DEInternal.Weighted>
0.8245

> <Gold.Chemscore.Rot.Weighted>
3.9446

> <Gold.Chemscore.Internal.Correction.Weighted>
   9.000000E+99

> <Gold.Protein.RotatedTorsions>
[ 6907 6896 6895 6894 ] final  106.06 input  -60.11 | X-H torsion
[ 7974 7965 7964 7962 ] final   48.33 input  175.53 | X-H torsion
[ 8008 7997 7996 7995 ] final    3.78 input   59.86 | X-H torsion
[ 10167 10162 10161 10158 ] final -161.43 input  -65.29 | X-H torsion
[ 10718 10713 10712 10709 ] final -101.96 input   66.30 | X-H torsion
[ 10763 10752 10751 10750 ] final   65.36 input  -60.55 | X-H torsion
[ 11005 11000 10999 10996 ] final -139.86 input  -57.11 | X-H torsion

> <Gold.Protein.ActiveResidues>
 VAL166  LYS551  ARG553  GLY616  TRP617  ASP618  TYR619  PRO620  LYS621  CYS622 
 ASP623  PHE694  ASN695  SER759  ASP760  ASP761  ALA762  ILE779  LEU786  VAL792 
 PHE793  MET794  SER795  GLU796  ALA797  LYS798  CYS799  TRP800  GLU811  SER814 

> <Gold.Protein.RotatedAtoms>
  152.5207  133.9436  159.7637 H   0  0  0  0  0  0  0  0  0  0  0  0  # atno 6907 bound_to 6896
  150.9761  133.6285  159.2737 H   0  0  0  0  0  0  0  0  0  0  0  0  # atno 6908 bound_to 6896
  151.3480  135.0884  159.9446 H   0  0  0  0  0  0  0  0  0  0  0  0  # atno 6909 bound_to 6896
  146.0214  139.4656  142.9894 H   0  0  0  0  0  0  0  0  0  0  0  0  # atno 7974 bound_to 7965
  154.7079  140.2686  155.6657 H   0  0  0  0  0  0  0  0  0  0  0  0  # atno 8008 bound_to 7997
  156.2786  140.2759  156.1635 H   0  0  0  0  0  0  0  0  0  0  0  0  # atno 8009 bound_to 7997
  155.0675  140.0372  157.2587 H   0  0  0  0  0  0  0  0  0  0  0  0  # atno 8010 bound_to 7997
  139.6466  144.0161  152.2131 H   0  0  0  0  0  0  0  0  0  0  0  0  # atno 10167 bound_to 10162
  156.0212  130.5398  150.7039 H   0  0  0  0  0  0  0  0  0  0  0  0  # atno 10718 bound_to 10713
  153.0093  135.5359  154.6656 H   0  0  0  0  0  0  0  0  0  0  0  0  # atno 10763 bound_to 10752
  154.5853  135.2854  155.0693 H   0  0  0  0  0  0  0  0  0  0  0  0  # atno 10764 bound_to 10752
  154.1806  135.6517  153.5086 H   0  0  0  0  0  0  0  0  0  0  0  0  # atno 10765 bound_to 10752
  140.8479  134.2322  157.4776 H   0  0  0  0  0  0  0  0  0  0  0  0  # atno 11005 bound_to 11000
  145.7187  141.0082  143.1414 LP  0  0  0  0  0  0  0  0  0  0  0  0  # atno 17320 bound_to 7965
  144.6991  139.8844  143.7449 LP  0  0  0  0  0  0  0  0  0  0  0  0  # atno 17321 bound_to 7965
  139.9864  144.6392  150.7854 LP  0  0  0  0  0  0  0  0  0  0  0  0  # atno 17342 bound_to 10162
  140.7517  143.2978  151.3159 LP  0  0  0  0  0  0  0  0  0  0  0  0  # atno 17343 bound_to 10162
  157.4692  131.0891  151.0661 LP  0  0  0  0  0  0  0  0  0  0  0  0  # atno 17370 bound_to 10713
  157.1126  130.6028  149.5485 LP  0  0  0  0  0  0  0  0  0  0  0  0  # atno 17371 bound_to 10713
  139.8703  134.9668  156.4576 LP  0  0  0  0  0  0  0  0  0  0  0  0  # atno 17394 bound_to 11000
  140.8823  133.7909  155.9480 LP  0  0  0  0  0  0  0  0  0  0  0  0  # atno 17395 bound_to 11000

$$$$
