AV-unprocessed.smi:1938|AV-procd|sdf|7834|dock2
  -GOLD-   22720 9583D 1   1.00000     0.00000
 Structure written by MMmdl.
 35 36  0  0  0  0  0  0  0  0  1 V2000
  151.4430  137.9882  155.2466 C   0  0  0  0  0  0  0  0  0  0  0  0
  150.1799  138.0299  154.5915 O   0  0  0  0  0  0  0  0  0  0  0  0
  149.4553  139.2061  154.6289 C   0  0  0  0  0  0  0  0  0  0  0  0
  149.9522  140.2474  155.3429 N   0  0  0  0  0  0  0  0  0  0  0  0
  149.2438  141.3945  155.3843 C   0  0  0  0  0  0  0  0  0  0  0  0
  148.0106  141.5625  154.7285 C   0  0  0  0  0  0  0  0  0  0  0  0
  147.4936  140.4844  153.9865 C   0  0  0  0  0  0  0  0  0  0  0  0
  148.2327  139.2783  153.9211 C   0  0  0  0  0  0  0  0  0  0  0  0
  147.7943  138.1226  153.2174 N   0  0  0  0  0  0  0  0  0  0  0  0
  146.5389  137.7510  152.9157 C   0  0  0  0  0  0  0  0  0  0  0  0
  145.5202  138.3794  153.2034 O   0  0  0  0  0  0  0  0  0  0  0  0
  146.5283  136.6008  152.2283 N   0  0  0  0  0  0  0  0  0  0  0  0
  145.3331  135.9441  151.7116 C   0  0  0  0  0  0  0  0  0  0  0  0
  145.6900  134.7377  150.8281 C   0  0  2  0  0  0  0  0  0  0  0  0
  144.4828  134.0853  150.1598 C   0  0  0  0  0  0  0  0  0  0  0  0
  145.0156  132.7017  149.8645 C   0  0  0  0  0  0  0  0  0  0  0  0
  145.8816  132.4218  151.0915 C   0  0  0  0  0  0  0  0  0  0  0  0
  146.2661  133.6939  151.6084 O   0  0  0  0  0  0  0  0  0  0  0  0
  151.8809  136.9980  155.1215 H   0  0  0  0  0  0  0  0  0  0  0  0
  151.3440  138.1729  156.3172 H   0  0  0  0  0  0  0  0  0  0  0  0
  152.1381  138.7128  154.8203 H   0  0  0  0  0  0  0  0  0  0  0  0
  149.6698  142.2002  155.9636 H   0  0  0  0  0  0  0  0  0  0  0  0
  147.4707  142.4953  154.7974 H   0  0  0  0  0  0  0  0  0  0  0  0
  146.5383  140.5990  153.4983 H   0  0  0  0  0  0  0  0  0  0  0  0
  148.5306  137.5473  152.8351 H   0  0  0  0  0  0  0  0  0  0  0  0
  147.4122  136.1571  152.0269 H   0  0  0  0  0  0  0  0  0  0  0  0
  144.7248  135.6225  152.5572 H   0  0  0  0  0  0  0  0  0  0  0  0
  144.7296  136.6590  151.1496 H   0  0  0  0  0  0  0  0  0  0  0  0
  146.4086  135.0239  150.0583 H   0  0  0  0  0  0  0  0  0  0  0  0
  143.6437  134.0223  150.8542 H   0  0  0  0  0  0  0  0  0  0  0  0
  144.1513  134.6161  149.2670 H   0  0  0  0  0  0  0  0  0  0  0  0
  144.2298  131.9602  149.7179 H   0  0  0  0  0  0  0  0  0  0  0  0
  145.6349  132.7255  148.9664 H   0  0  0  0  0  0  0  0  0  0  0  0
  145.3082  131.8972  151.8566 H   0  0  0  0  0  0  0  0  0  0  0  0
  146.7539  131.8149  150.8470 H   0  0  0  0  0  0  0  0  0  0  0  0
  1  2  1  0  0  0  0
  1 19  1  0  0  0  0
  1 20  1  0  0  0  0
  1 21  1  0  0  0  0
  2  3  1  0  0  0  0
  3  8  1  0  0  0  0
  3  4  2  0  0  0  0
  4  5  1  0  0  0  0
  5  6  2  0  0  0  0
  5 22  1  0  0  0  0
  6  7  1  0  0  0  0
  6 23  1  0  0  0  0
  7  8  2  0  0  0  0
  7 24  1  0  0  0  0
  8  9  1  0  0  0  0
  9 10  1  0  0  0  0
  9 25  1  0  0  0  0
 10 11  2  0  0  0  0
 10 12  1  0  0  0  0
 12 13  1  0  0  0  0
 12 26  1  0  0  0  0
 13 14  1  0  0  0  0
 13 27  1  0  0  0  0
 13 28  1  0  0  0  0
 14 18  1  0  0  0  0
 14 15  1  0  0  0  0
 14 29  1  0  0  0  0
 15 16  1  0  0  0  0
 15 30  1  0  0  0  0
 15 31  1  0  0  0  0
 16 17  1  0  0  0  0
 16 32  1  0  0  0  0
 16 33  1  0  0  0  0
 17 18  1  0  0  0  0
 17 34  1  0  0  0  0
 17 35  1  0  0  0  0
M  END
> <s_m_source_file>
AV-unprocessed.smi

> <i_m_source_file_index>
1938

> <i_lp_mmshare_version>
43012

> <i_f3d_flags>
0

> <s_epik_input>
W0NIM11PYzFuW2NIXVtjSF1bY0hdYzFbTkhdQyg9TylbTkhdW0NIMl1bQ0BASF0yW0NIMl1bQ0gyXVtDSDJdTzI=

> <s_epik_cmdline>
J2VwaWtfcHl0aG9uJywgJy1waCcsICc3LjAnLCAnLXRuJywgJzgnLCAnLW1hJywgJzIwMCcsICctbWV0YWxfYmluZGluZycsICctaW1hZScsICc8aW5maWxlLm1hZT4nLCAnLW9tYWUnLCAnPG91dGZpbGUubWFlPic=

> <r_lp_tautomer_probability>
1

> <r_epik_Ionization_Penalty>
9.01657e-05

> <r_epik_Ionization_Penalty_Charging>
0

> <r_epik_Ionization_Penalty_Neutral>
9.01657e-05

> <r_epik_State_Penalty>
-0

> <r_epik_Charging_Adjusted_Penalty>
0

> <i_epik_Tot_Q>
0

> <i_epik_Tot_abs_Q>
0

> <r_epik_Metal_State_Penalty>
-0

> <b_epik_Metal_Only>
0

> <s_lp_Force_Field>
OPLS_2005

> <r_lp_Energy>
19.3797

> <b_lp_Chiralities_Consistent>
1

> <s_lp_Variant>
AV-unprocessed.smi:1938-1

> <Gold.Version>
5.8.1

> <Gold.Id.Protein>
6NUR|6NUR_protein|mol2

> <Gold.PLP.Fitness>
41.8522

> <Gold.PLP.PLP>
-30.6398

> <Gold.PLP.part.hbond>
-3.5359

> <Gold.PLP.part.metal>
0.0000

> <Gold.PLP.part.buried>
0.8927

> <Gold.PLP.part.nonpolar>
-30.5334

> <Gold.PLP.part.repulsive>
2.8715

> <Gold.PLP.ligand.clash>
0.0000

> <Gold.PLP.ligand.torsion>
0.2052

> <Gold.PLP.Chemscore.Hbond>
2.8720

> <Gold.PLP.Chemscore.CHOScore>
1.0000

> <Gold.PLP.Chemscore.Metal>
0.0000

> <Gold.Chemscore.Hbonds>
donor molecule, donor type, donor heavy atom, donor atom, acceptor molecule, acceptor atom, score
      L1  H     9    25       P1  7948  0.98
      L1  H    12    26       P1  7948  1.00
      L1  C     5    22       P1  8028  0.57

> <Gold.PLP.Chemscore.Internal.Correction>
0.0068

> <Gold.Rescore>
     Score         DG    S(hbond)    S(metal)    S(lipo)     H(rot)  DE(clash)    DE(int)     intcor
     14.60     -16.34       1.95        0.00      69.96       1.50       0.37       1.37       ----

> <Gold.Chemscore.Fitness>
14.5956

> <Gold.Chemscore.DG>
-16.3395

> <Gold.Chemscore.ZeroCoef>
-5.4800

> <Gold.Chemscore.Hbond>
1.9481

> <Gold.Chemscore.Metal>
0.0000

> <Gold.Chemscore.Lipo>
69.9623

> <Gold.Chemscore.Internal_Hbond>
0.0000

> <Gold.Chemscore.DEClash>
0.3741

> <Gold.Chemscore.DEInternal>
1.3698

> <Gold.Chemscore.Rot>
1.4971

> <Gold.Chemscore.Internal.Correction>
   9.000000E+99

> <Gold.Chemscore.Hbonds>
donor molecule, donor type, donor heavy atom, donor atom, acceptor molecule, acceptor atom, score
      L1  H     9    25       P1  7948  0.92
      L1  H    12    26       P1  7948  0.89

> <Gold.Chemscore.Hbond.Weighted>
-6.5065

> <Gold.Chemscore.Metal.Weighted>
-0.0000

> <Gold.Chemscore.Lipo.Weighted>
-8.1856

> <Gold.Chemscore.Internal_Hbond.Weighted>
0.0000

> <Gold.Chemscore.DEClash.Weighted>
0.3741

> <Gold.Chemscore.DEInternal.Weighted>
1.3698

> <Gold.Chemscore.Rot.Weighted>
3.8326

> <Gold.Chemscore.Internal.Correction.Weighted>
   9.000000E+99

> <Gold.Protein.RotatedTorsions>
[ 6907 6896 6895 6894 ] final  -54.88 input  -60.11 | X-H torsion
[ 7974 7965 7964 7962 ] final -121.61 input  175.53 | X-H torsion
[ 8008 7997 7996 7995 ] final  120.67 input   59.86 | X-H torsion
[ 10167 10162 10161 10158 ] final  138.15 input  -65.29 | X-H torsion
[ 10718 10713 10712 10709 ] final   59.89 input   66.30 | X-H torsion
[ 10763 10752 10751 10750 ] final   57.75 input  -60.55 | X-H torsion
[ 11005 11000 10999 10996 ] final   95.84 input  -57.11 | X-H torsion

> <Gold.Protein.ActiveResidues>
 VAL166  LYS551  ARG553  GLY616  TRP617  ASP618  TYR619  PRO620  LYS621  CYS622 
 ASP623  PHE694  ASN695  SER759  ASP760  ASP761  ALA762  ILE779  LEU786  VAL792 
 PHE793  MET794  SER795  GLU796  ALA797  LYS798  CYS799  TRP800  GLU811  SER814 

> <Gold.Protein.RotatedAtoms>
  150.8299  134.7548  159.6844 H   0  0  0  0  0  0  0  0  0  0  0  0  # atno 6907 bound_to 6896
  152.4405  134.5596  159.9900 H   0  0  0  0  0  0  0  0  0  0  0  0  # atno 6908 bound_to 6896
  151.5760  133.3346  159.3035 H   0  0  0  0  0  0  0  0  0  0  0  0  # atno 6909 bound_to 6896
  145.0385  140.8125  143.4281 H   0  0  0  0  0  0  0  0  0  0  0  0  # atno 7974 bound_to 7965
  156.2653  140.2825  156.1186 H   0  0  0  0  0  0  0  0  0  0  0  0  # atno 8008 bound_to 7997
  155.1180  140.0392  157.2759 H   0  0  0  0  0  0  0  0  0  0  0  0  # atno 8009 bound_to 7997
  154.6692  140.2584  155.7031 H   0  0  0  0  0  0  0  0  0  0  0  0  # atno 8010 bound_to 7997
  139.5120  144.6369  151.5672 H   0  0  0  0  0  0  0  0  0  0  0  0  # atno 10167 bound_to 10162
  157.5711  130.8908  149.9268 H   0  0  0  0  0  0  0  0  0  0  0  0  # atno 10718 bound_to 10713
  152.9856  135.5630  154.5442 H   0  0  0  0  0  0  0  0  0  0  0  0  # atno 10763 bound_to 10752
  154.4891  135.2792  155.1513 H   0  0  0  0  0  0  0  0  0  0  0  0  # atno 10764 bound_to 10752
  154.2990  135.6311  153.5470 H   0  0  0  0  0  0  0  0  0  0  0  0  # atno 10765 bound_to 10752
  139.8786  134.8920  156.4070 H   0  0  0  0  0  0  0  0  0  0  0  0  # atno 11005 bound_to 11000
  145.1679  139.2421  143.5357 LP  0  0  0  0  0  0  0  0  0  0  0  0  # atno 17320 bound_to 7965
  146.3507  140.1422  142.8594 LP  0  0  0  0  0  0  0  0  0  0  0  0  # atno 17321 bound_to 7965
  140.6122  143.9415  150.6461 LP  0  0  0  0  0  0  0  0  0  0  0  0  # atno 17342 bound_to 10162
  140.2661  143.3489  152.1279 LP  0  0  0  0  0  0  0  0  0  0  0  0  # atno 17343 bound_to 10162
  156.0756  130.3679  150.0684 LP  0  0  0  0  0  0  0  0  0  0  0  0  # atno 17370 bound_to 10713
  156.8837  130.9565  151.3596 LP  0  0  0  0  0  0  0  0  0  0  0  0  # atno 17371 bound_to 10713
  140.9227  133.7634  155.9926 LP  0  0  0  0  0  0  0  0  0  0  0  0  # atno 17394 bound_to 11000
  140.8421  134.3054  157.5309 LP  0  0  0  0  0  0  0  0  0  0  0  0  # atno 17395 bound_to 11000

$$$$
