AV-unprocessed.smi:2709|AV-procd|sdf|10462|dock6
  -GOLD-   2272014503D 1   1.00000     0.00000
 Structure written by MMmdl.
 40 42  0  0  0  0  0  0  0  0  1 V2000
  144.1478  136.3181  155.0773 C   0  0  0  0  0  0  0  0  0  0  0  0
  145.0840  136.6107  154.0537 O   0  0  0  0  0  0  0  0  0  0  0  0
  144.4883  137.1183  152.8626 C   0  0  2  0  0  0  0  0  0  0  0  0
  143.5945  136.0104  152.3022 C   0  0  0  0  0  0  0  0  0  0  0  0
  144.5524  135.1105  151.5261 C   0  0  0  0  0  0  0  0  0  0  0  0
  145.5669  136.0715  150.9005 C   0  0  0  0  0  0  0  0  0  0  0  0
  145.5567  137.3456  151.7681 C   0  0  2  0  0  0  0  0  0  0  0  0
  146.8841  137.6236  152.3134 N   0  0  0  0  0  0  0  0  0  0  0  0
  147.1765  138.6398  153.1362 C   0  0  0  0  0  0  0  0  0  0  0  0
  146.3448  139.4626  153.5182 O   0  0  0  0  0  0  0  0  0  0  0  0
  148.4783  138.6346  153.4690 N   0  0  0  0  0  0  0  0  0  0  0  0
  149.1850  139.5460  154.2992 C   0  0  0  0  0  0  0  0  0  0  0  0
  148.4872  140.6360  154.8603 C   0  0  0  0  0  0  0  0  0  0  0  0
  149.0938  141.5433  155.6553 N   0  0  0  0  0  0  0  0  0  0  0  0
  150.4002  141.3736  155.8758 C   0  0  0  0  0  0  0  0  0  0  0  0
  151.0584  142.3487  156.8024 C   0  0  0  0  0  0  0  0  0  0  0  0
  151.7899  141.8735  158.0412 C   0  0  0  0  0  0  0  0  0  0  0  0
  150.4898  142.6155  158.1813 C   0  0  0  0  0  0  0  0  0  0  0  0
  151.1657  140.3877  155.4004 N   0  0  0  0  0  0  0  0  0  0  0  0
  150.5668  139.4743  154.6055 C   0  0  0  0  0  0  0  0  0  0  0  0
  144.6715  135.9508  155.9597 H   0  0  0  0  0  0  0  0  0  0  0  0
  143.4444  135.5488  154.7561 H   0  0  0  0  0  0  0  0  0  0  0  0
  143.5874  137.2087  155.3650 H   0  0  0  0  0  0  0  0  0  0  0  0
  143.9134  138.0281  153.0484 H   0  0  0  0  0  0  0  0  0  0  0  0
  143.0441  135.4749  153.0766 H   0  0  0  0  0  0  0  0  0  0  0  0
  142.8643  136.4412  151.6157 H   0  0  0  0  0  0  0  0  0  0  0  0
  145.0615  134.4375  152.2174 H   0  0  0  0  0  0  0  0  0  0  0  0
  144.0420  134.4974  150.7828 H   0  0  0  0  0  0  0  0  0  0  0  0
  146.5527  135.6100  150.8297 H   0  0  0  0  0  0  0  0  0  0  0  0
  145.2595  136.3225  149.8844 H   0  0  0  0  0  0  0  0  0  0  0  0
  145.2438  138.1770  151.1332 H   0  0  0  0  0  0  0  0  0  0  0  0
  147.6250  136.9890  152.0542 H   0  0  0  0  0  0  0  0  0  0  0  0
  149.0431  137.9206  153.0328 H   0  0  0  0  0  0  0  0  0  0  0  0
  147.4322  140.7796  154.6770 H   0  0  0  0  0  0  0  0  0  0  0  0
  151.4799  143.1899  156.2552 H   0  0  0  0  0  0  0  0  0  0  0  0
  151.7828  140.8073  158.2594 H   0  0  0  0  0  0  0  0  0  0  0  0
  152.7020  142.3994  158.3159 H   0  0  0  0  0  0  0  0  0  0  0  0
  150.5306  143.6384  158.5502 H   0  0  0  0  0  0  0  0  0  0  0  0
  149.6185  142.0425  158.4926 H   0  0  0  0  0  0  0  0  0  0  0  0
  151.2153  138.7053  154.2170 H   0  0  0  0  0  0  0  0  0  0  0  0
  1  2  1  0  0  0  0
  1 21  1  0  0  0  0
  1 22  1  0  0  0  0
  1 23  1  0  0  0  0
  2  3  1  0  0  0  0
  3  7  1  0  0  0  0
  3  4  1  0  0  0  0
  3 24  1  0  0  0  0
  4  5  1  0  0  0  0
  4 25  1  0  0  0  0
  4 26  1  0  0  0  0
  5  6  1  0  0  0  0
  5 27  1  0  0  0  0
  5 28  1  0  0  0  0
  6  7  1  0  0  0  0
  6 29  1  0  0  0  0
  6 30  1  0  0  0  0
  7  8  1  0  0  0  0
  7 31  1  0  0  0  0
  8  9  1  0  0  0  0
  8 32  1  0  0  0  0
  9 10  2  0  0  0  0
  9 11  1  0  0  0  0
 11 12  1  0  0  0  0
 11 33  1  0  0  0  0
 12 20  1  0  0  0  0
 12 13  2  0  0  0  0
 13 14  1  0  0  0  0
 13 34  1  0  0  0  0
 14 15  2  0  0  0  0
 15 16  1  0  0  0  0
 15 19  1  0  0  0  0
 16 18  1  0  0  0  0
 16 17  1  0  0  0  0
 16 35  1  0  0  0  0
 17 18  1  0  0  0  0
 17 36  1  0  0  0  0
 17 37  1  0  0  0  0
 18 38  1  0  0  0  0
 18 39  1  0  0  0  0
 19 20  2  0  0  0  0
 20 40  1  0  0  0  0
M  END
> <s_m_source_file>
AV-unprocessed.smi

> <i_m_source_file_index>
2709

> <i_lp_mmshare_version>
43012

> <i_f3d_flags>
0

> <s_epik_input>
W0NIM11PW0NAQEhdMVtDSDJdW0NIMl1bQ0gyXVtDQEhdMVtOSF1DKD1PKVtOSF1jMltjSF1uYyhuW2NIXTIpW0NIXTNbQ0gyXVtDSDJdMw==

> <s_epik_cmdline>
J2VwaWtfcHl0aG9uJywgJy1waCcsICc3LjAnLCAnLXRuJywgJzgnLCAnLW1hJywgJzIwMCcsICctbWV0YWxfYmluZGluZycsICctaW1hZScsICc8aW5maWxlLm1hZT4nLCAnLW9tYWUnLCAnPG91dGZpbGUubWFlPic=

> <r_lp_tautomer_probability>
1

> <r_epik_Ionization_Penalty>
2.49969e-05

> <r_epik_Ionization_Penalty_Charging>
0

> <r_epik_Ionization_Penalty_Neutral>
2.49969e-05

> <r_epik_State_Penalty>
-0

> <r_epik_Charging_Adjusted_Penalty>
0

> <i_epik_Tot_Q>
0

> <i_epik_Tot_abs_Q>
0

> <r_epik_Metal_State_Penalty>
-0

> <b_epik_Metal_Only>
0

> <s_lp_Force_Field>
OPLS_2005

> <r_lp_Energy>
20.8159

> <b_lp_Chiralities_Consistent>
1

> <s_lp_Variant>
AV-unprocessed.smi:2709-3

> <Gold.Version>
5.8.1

> <Gold.Id.Protein>
6NUR|6NUR_protein|mol2

> <Gold.PLP.Fitness>
36.5888

> <Gold.PLP.PLP>
-30.9381

> <Gold.PLP.part.hbond>
-3.9597

> <Gold.PLP.part.metal>
0.0000

> <Gold.PLP.part.buried>
-2.3104

> <Gold.PLP.part.nonpolar>
-27.1210

> <Gold.PLP.part.repulsive>
1.0589

> <Gold.PLP.ligand.clash>
0.0000

> <Gold.PLP.ligand.torsion>
0.0719

> <Gold.PLP.Chemscore.Hbond>
1.8873

> <Gold.PLP.Chemscore.CHOScore>
0.0000

> <Gold.PLP.Chemscore.Metal>
0.0000

> <Gold.Chemscore.Hbonds>
donor molecule, donor type, donor heavy atom, donor atom, acceptor molecule, acceptor atom, score
      L1  H     8    32       P1  7948  0.98
      L1  H    11    33       P1  7948  0.90

> <Gold.PLP.Chemscore.Internal.Correction>
0.1328

> <Gold.Rescore>
     Score         DG    S(hbond)    S(metal)    S(lipo)     H(rot)  DE(clash)    DE(int)     intcor
     14.15     -16.01       1.81        0.00      69.31       1.41       0.39       1.48       ----

> <Gold.Chemscore.Fitness>
14.1475

> <Gold.Chemscore.DG>
-16.0149

> <Gold.Chemscore.ZeroCoef>
-5.4800

> <Gold.Chemscore.Hbond>
1.8080

> <Gold.Chemscore.Metal>
0.0000

> <Gold.Chemscore.Lipo>
69.3128

> <Gold.Chemscore.Internal_Hbond>
0.0000

> <Gold.Chemscore.DEClash>
0.3872

> <Gold.Chemscore.DEInternal>
1.4802

> <Gold.Chemscore.Rot>
1.4114

> <Gold.Chemscore.Internal.Correction>
   9.000000E+99

> <Gold.Chemscore.Hbonds>
donor molecule, donor type, donor heavy atom, donor atom, acceptor molecule, acceptor atom, score
      L1  H     8    32       P1  7948  0.92
      L1  H    11    33       P1  7948  0.81

> <Gold.Chemscore.Hbond.Weighted>
-6.0386

> <Gold.Chemscore.Metal.Weighted>
-0.0000

> <Gold.Chemscore.Lipo.Weighted>
-8.1096

> <Gold.Chemscore.Internal_Hbond.Weighted>
0.0000

> <Gold.Chemscore.DEClash.Weighted>
0.3872

> <Gold.Chemscore.DEInternal.Weighted>
1.4802

> <Gold.Chemscore.Rot.Weighted>
3.6133

> <Gold.Chemscore.Internal.Correction.Weighted>
   9.000000E+99

> <Gold.Protein.RotatedTorsions>
[ 6907 6896 6895 6894 ] final    1.66 input  -60.11 | X-H torsion
[ 7974 7965 7964 7962 ] final  -96.06 input  175.53 | X-H torsion
[ 8008 7997 7996 7995 ] final  123.95 input   59.86 | X-H torsion
[ 10167 10162 10161 10158 ] final  -95.45 input  -65.29 | X-H torsion
[ 10718 10713 10712 10709 ] final  122.11 input   66.30 | X-H torsion
[ 10763 10752 10751 10750 ] final  -12.54 input  -60.55 | X-H torsion
[ 11005 11000 10999 10996 ] final -148.34 input  -57.11 | X-H torsion

> <Gold.Protein.ActiveResidues>
 VAL166  LYS551  ARG553  GLY616  TRP617  ASP618  TYR619  PRO620  LYS621  CYS622 
 ASP623  PHE694  ASN695  SER759  ASP760  ASP761  ALA762  ILE779  LEU786  VAL792 
 PHE793  MET794  SER795  GLU796  ALA797  LYS798  CYS799  TRP800  GLU811  SER814 

> <Gold.Protein.RotatedAtoms>
  151.5962  135.1050  160.0049 H   0  0  0  0  0  0  0  0  0  0  0  0  # atno 6907 bound_to 6896
  152.4281  133.7225  159.6552 H   0  0  0  0  0  0  0  0  0  0  0  0  # atno 6908 bound_to 6896
  150.8171  133.8246  159.3178 H   0  0  0  0  0  0  0  0  0  0  0  0  # atno 6909 bound_to 6896
  145.3519  140.9478  143.2549 H   0  0  0  0  0  0  0  0  0  0  0  0  # atno 7974 bound_to 7965
  156.2784  140.2751  156.1709 H   0  0  0  0  0  0  0  0  0  0  0  0  # atno 8008 bound_to 7997
  155.0655  140.0387  157.2609 H   0  0  0  0  0  0  0  0  0  0  0  0  # atno 8009 bound_to 7997
  154.7082  140.2663  155.6660 H   0  0  0  0  0  0  0  0  0  0  0  0  # atno 8010 bound_to 7997
  140.3040  143.3145  152.0218 H   0  0  0  0  0  0  0  0  0  0  0  0  # atno 10167 bound_to 10162
  157.5767  131.1078  150.8265 H   0  0  0  0  0  0  0  0  0  0  0  0  # atno 10718 bound_to 10713
  153.5000  135.7017  153.5837 H   0  0  0  0  0  0  0  0  0  0  0  0  # atno 10763 bound_to 10752
  153.3973  135.3881  155.1964 H   0  0  0  0  0  0  0  0  0  0  0  0  # atno 10764 bound_to 10752
  154.8711  135.3873  154.4469 H   0  0  0  0  0  0  0  0  0  0  0  0  # atno 10765 bound_to 10752
  140.7622  134.3285  157.5098 H   0  0  0  0  0  0  0  0  0  0  0  0  # atno 11005 bound_to 11000
  144.8711  139.5037  143.6767 LP  0  0  0  0  0  0  0  0  0  0  0  0  # atno 17320 bound_to 7965
  146.2964  139.7292  142.9123 LP  0  0  0  0  0  0  0  0  0  0  0  0  # atno 17321 bound_to 7965
  139.4908  144.6434  151.6829 LP  0  0  0  0  0  0  0  0  0  0  0  0  # atno 17342 bound_to 10162
  140.5626  144.0243  150.6177 LP  0  0  0  0  0  0  0  0  0  0  0  0  # atno 17343 bound_to 10162
  156.8722  130.5150  149.5296 LP  0  0  0  0  0  0  0  0  0  0  0  0  # atno 17370 bound_to 10713
  156.0812  130.5822  150.9566 LP  0  0  0  0  0  0  0  0  0  0  0  0  # atno 17371 bound_to 10713
  139.8769  134.9209  156.3262 LP  0  0  0  0  0  0  0  0  0  0  0  0  # atno 17394 bound_to 11000
  140.9652  133.7362  156.0457 LP  0  0  0  0  0  0  0  0  0  0  0  0  # atno 17395 bound_to 11000

$$$$
