AV-unprocessed.smi:467|AV-procd|sdf|2650|dock2
  -GOLD-   2262023 63D 1   1.00000     0.00000
 Structure written by MMmdl.
 46 48  0  0  0  0  0  0  0  0  3 V2000
  152.3481  143.9894  160.9638 C   0  0  0  0  0  0  0  0  0  0  0  0
  152.0956  143.0567  159.7915 C   0  0  0  0  0  0  0  0  0  0  0  0
  151.2300  143.4879  158.7610 C   0  0  0  0  0  0  0  0  0  0  0  0
  151.0214  142.6142  157.7005 C   0  0  0  0  0  0  0  0  0  0  0  0
  150.2409  142.7449  156.5503 N   0  3  0  0  0  0  0  0  0  0  0  0
  150.3543  141.6186  155.7939 C   0  0  0  0  0  0  0  0  0  0  0  0
  151.1964  140.7692  156.4437 N   0  0  0  0  0  0  0  0  0  0  0  0
  151.6534  139.4264  156.0554 C   0  0  0  0  0  0  0  0  0  0  0  0
  150.6433  138.6901  155.1534 C   0  0  1  0  0  0  0  0  0  0  0  0
  150.6018  139.3092  153.8816 O   0  0  0  0  0  0  0  0  0  0  0  0
  151.0140  137.2050  154.9696 C   0  0  0  0  0  0  0  0  0  0  0  0
  149.8472  136.3690  154.5858 N   0  3  0  0  0  0  0  0  0  0  0  0
  150.1094  134.9189  154.7473 C   0  0  0  0  0  0  0  0  0  0  0  0
  148.8941  134.0955  154.2869 C   0  0  0  0  0  0  0  0  0  0  0  0
  147.7408  134.4974  155.0152 O   0  0  0  0  0  0  0  0  0  0  0  0
  147.4250  135.8666  154.7973 C   0  0  0  0  0  0  0  0  0  0  0  0
  148.5904  136.7475  155.2791 C   0  0  0  0  0  0  0  0  0  0  0  0
  151.6367  141.3482  157.6408 C   0  0  0  0  0  0  0  0  0  0  0  0
  152.4905  140.9075  158.6500 C   0  0  0  0  0  0  0  0  0  0  0  0
  152.7167  141.7822  159.7370 C   0  0  0  0  0  0  0  0  0  0  0  0
  153.6450  141.3283  160.8508 C   0  0  0  0  0  0  0  0  0  0  0  0
  151.8399  144.9449  160.8302 H   0  0  0  0  0  0  0  0  0  0  0  0
  153.4138  144.1926  161.0715 H   0  0  0  0  0  0  0  0  0  0  0  0
  151.9838  143.5453  161.8905 H   0  0  0  0  0  0  0  0  0  0  0  0
  150.7529  144.4565  158.7963 H   0  0  0  0  0  0  0  0  0  0  0  0
  149.8651  141.4339  154.8483 H   0  0  0  0  0  0  0  0  0  0  0  0
  152.6335  139.4972  155.5833 H   0  0  0  0  0  0  0  0  0  0  0  0
  151.8015  138.8637  156.9782 H   0  0  0  0  0  0  0  0  0  0  0  0
  149.6550  138.7807  155.6033 H   0  0  0  0  0  0  0  0  0  0  0  0
  149.7527  139.1540  153.4961 H   0  0  0  0  0  0  0  0  0  0  0  0
  151.7884  137.1330  154.2039 H   0  0  0  0  0  0  0  0  0  0  0  0
  151.4555  136.8035  155.8831 H   0  0  0  0  0  0  0  0  0  0  0  0
  150.9852  134.6333  154.1633 H   0  0  0  0  0  0  0  0  0  0  0  0
  150.3349  134.7015  155.7928 H   0  0  0  0  0  0  0  0  0  0  0  0
  148.7236  134.2166  153.2158 H   0  0  0  0  0  0  0  0  0  0  0  0
  149.0704  133.0341  154.4630 H   0  0  0  0  0  0  0  0  0  0  0  0
  147.2145  136.0415  153.7409 H   0  0  0  0  0  0  0  0  0  0  0  0
  146.5164  136.1111  155.3479 H   0  0  0  0  0  0  0  0  0  0  0  0
  148.7176  136.6355  156.3570 H   0  0  0  0  0  0  0  0  0  0  0  0
  148.3496  137.7936  155.0940 H   0  0  0  0  0  0  0  0  0  0  0  0
  152.9678  139.9400  158.6116 H   0  0  0  0  0  0  0  0  0  0  0  0
  153.9888  140.3055  160.6924 H   0  0  0  0  0  0  0  0  0  0  0  0
  153.1352  141.3612  161.8140 H   0  0  0  0  0  0  0  0  0  0  0  0
  154.5238  141.9720  160.9010 H   0  0  0  0  0  0  0  0  0  0  0  0
  149.6994  136.5207  153.5978 H   0  0  0  0  0  0  0  0  0  0  0  0
  149.6721  143.5432  156.2977 H   0  0  0  0  0  0  0  0  0  0  0  0
  1  2  1  0  0  0  0
  1 22  1  0  0  0  0
  1 23  1  0  0  0  0
  1 24  1  0  0  0  0
  2 20  1  0  0  0  0
  2  3  2  0  0  0  0
  3  4  1  0  0  0  0
  3 25  1  0  0  0  0
  4 18  2  0  0  0  0
  4  5  1  0  0  0  0
  5  6  2  0  0  0  0
  5 46  1  0  0  0  0
  6  7  1  0  0  0  0
  6 26  1  0  0  0  0
  7  8  1  0  0  0  0
  7 18  1  0  0  0  0
  8  9  1  0  0  0  0
  8 27  1  0  0  0  0
  8 28  1  0  0  0  0
  9 10  1  0  0  0  0
  9 11  1  0  0  0  0
  9 29  1  0  0  0  0
 10 30  1  0  0  0  0
 11 12  1  0  0  0  0
 11 31  1  0  0  0  0
 11 32  1  0  0  0  0
 12 17  1  0  0  0  0
 12 13  1  0  0  0  0
 12 45  1  0  0  0  0
 13 14  1  0  0  0  0
 13 33  1  0  0  0  0
 13 34  1  0  0  0  0
 14 15  1  0  0  0  0
 14 35  1  0  0  0  0
 14 36  1  0  0  0  0
 15 16  1  0  0  0  0
 16 17  1  0  0  0  0
 16 37  1  0  0  0  0
 16 38  1  0  0  0  0
 17 39  1  0  0  0  0
 17 40  1  0  0  0  0
 18 19  1  0  0  0  0
 19 20  2  0  0  0  0
 19 41  1  0  0  0  0
 20 21  1  0  0  0  0
 21 42  1  0  0  0  0
 21 43  1  0  0  0  0
 21 44  1  0  0  0  0
M  CHG  1   5   1
M  CHG  1  12   1
M  END
> <s_m_source_file>
AV-unprocessed.smi

> <i_m_source_file_index>
467

> <i_lp_mmshare_version>
43012

> <i_f3d_flags>
0

> <s_epik_input>
W0NIM11jKFtjSF0xKWMoW0NIM10pW2NIXWMoYzEyKW4oW2NIXW4yKVtDSDJdW0NASF0oW09IXSlbQ0gyXU4zW0NIMl1bQ0gyXU9bQ0gyXVtDSDJdMw==

> <s_epik_cmdline>
J2VwaWtfcHl0aG9uJywgJy1waCcsICc3LjAnLCAnLXRuJywgJzgnLCAnLW1hJywgJzIwMCcsICctbWV0YWxfYmluZGluZycsICctaW1hZScsICc8aW5maWxlLm1hZT4nLCAnLW9tYWUnLCAnPG91dGZpbGUubWFlPic=

> <r_epik_Ionization_Penalty>
1.88533

> <r_epik_Ionization_Penalty_Charging>
1.88531

> <r_epik_Ionization_Penalty_Neutral>
1.42224e-05

> <r_epik_State_Penalty>
1.94609

> <r_epik_Charging_Adjusted_Penalty>
3.8314

> <i_epik_Tot_Q>
2

> <i_epik_Tot_abs_Q>
2

> <r_epik_Metal_State_Penalty>
5.95915

> <b_epik_Metal_Only>
0

> <s_lp_Force_Field>
OPLS_2005

> <r_lp_Energy>
30.7546

> <b_lp_Chiralities_Consistent>
1

> <s_lp_Variant>
AV-unprocessed.smi:467-8

> <Gold.Version>
5.8.1

> <Gold.Id.Protein>
6NUR|6NUR_protein|mol2

> <Gold.PLP.Fitness>
56.2741

> <Gold.PLP.PLP>
-42.7827

> <Gold.PLP.part.hbond>
-4.0000

> <Gold.PLP.part.metal>
0.0000

> <Gold.PLP.part.buried>
-4.3504

> <Gold.PLP.part.nonpolar>
-34.8356

> <Gold.PLP.part.repulsive>
0.1760

> <Gold.PLP.ligand.clash>
0.0000

> <Gold.PLP.ligand.torsion>
0.7971

> <Gold.PLP.Chemscore.Hbond>
5.0000

> <Gold.PLP.Chemscore.CHOScore>
0.0000

> <Gold.PLP.Chemscore.Metal>
0.0000

> <Gold.Chemscore.Hbonds>
donor molecule, donor type, donor heavy atom, donor atom, acceptor molecule, acceptor atom, score
      L1  H     5    46       P1  8028  2.00
      L1  H    12    45       P1  7948  2.00
      P1  H  7989  7998       L1    10  1.00

> <Gold.PLP.Chemscore.Internal.Correction>
0.0857

> <Gold.Rescore>
     Score         DG    S(hbond)    S(metal)    S(lipo)     H(rot)  DE(clash)    DE(int)     intcor
     20.79     -21.63       2.84        0.00     104.20       2.16       0.01       0.83       ----

> <Gold.Chemscore.Fitness>
20.7915

> <Gold.Chemscore.DG>
-21.6302

> <Gold.Chemscore.ZeroCoef>
-5.4800

> <Gold.Chemscore.Hbond>
2.8403

> <Gold.Chemscore.Metal>
0.0000

> <Gold.Chemscore.Lipo>
104.1980

> <Gold.Chemscore.Internal_Hbond>
0.0000

> <Gold.Chemscore.DEClash>
0.0126

> <Gold.Chemscore.DEInternal>
0.8261

> <Gold.Chemscore.Rot>
2.1592

> <Gold.Chemscore.Internal.Correction>
   9.000000E+99

> <Gold.Chemscore.Hbonds>
donor molecule, donor type, donor heavy atom, donor atom, acceptor molecule, acceptor atom, score
      L1  H     5    46       P1  8028  0.95
      L1  H    12    45       P1  7948  0.50
      P1  H  7989  7998       L1    10  0.95

> <Gold.Chemscore.Hbond.Weighted>
-9.4866

> <Gold.Chemscore.Metal.Weighted>
-0.0000

> <Gold.Chemscore.Lipo.Weighted>
-12.1912

> <Gold.Chemscore.Internal_Hbond.Weighted>
0.0000

> <Gold.Chemscore.DEClash.Weighted>
0.0126

> <Gold.Chemscore.DEInternal.Weighted>
0.8261

> <Gold.Chemscore.Rot.Weighted>
5.5275

> <Gold.Chemscore.Internal.Correction.Weighted>
   9.000000E+99

> <Gold.Protein.RotatedTorsions>
[ 6907 6896 6895 6894 ] final  -49.08 input  -60.11 | X-H torsion
[ 7974 7965 7964 7962 ] final  -26.23 input  175.53 | X-H torsion
[ 8008 7997 7996 7995 ] final   45.29 input   59.86 | X-H torsion
[ 10167 10162 10161 10158 ] final  175.65 input  -65.29 | X-H torsion
[ 10718 10713 10712 10709 ] final   -1.10 input   66.30 | X-H torsion
[ 10763 10752 10751 10750 ] final -132.11 input  -60.55 | X-H torsion
[ 11005 11000 10999 10996 ] final  -29.63 input  -57.11 | X-H torsion

> <Gold.Protein.ActiveResidues>
 VAL166  LYS551  ARG553  GLY616  TRP617  ASP618  TYR619  PRO620  LYS621  CYS622 
 ASP623  PHE694  ASN695  SER759  ASP760  ASP761  ALA762  ILE779  LEU786  VAL792 
 PHE793  MET794  SER795  GLU796  ALA797  LYS798  CYS799  TRP800  GLU811  SER814 

> <Gold.Protein.RotatedAtoms>
  150.8841  134.8236  159.7245 H   0  0  0  0  0  0  0  0  0  0  0  0  # atno 6907 bound_to 6896
  152.4796  134.4750  159.9657 H   0  0  0  0  0  0  0  0  0  0  0  0  # atno 6908 bound_to 6896
  151.4821  133.3505  159.2875 H   0  0  0  0  0  0  0  0  0  0  0  0  # atno 6909 bound_to 6896
  146.1439  140.4992  142.8640 H   0  0  0  0  0  0  0  0  0  0  0  0  # atno 7974 bound_to 7965
  155.3334  140.3404  155.4239 H   0  0  0  0  0  0  0  0  0  0  0  0  # atno 8008 bound_to 7997
  156.1850  140.1677  156.8239 H   0  0  0  0  0  0  0  0  0  0  0  0  # atno 8009 bound_to 7997
  154.5376  140.0732  156.8437 H   0  0  0  0  0  0  0  0  0  0  0  0  # atno 8010 bound_to 7997
  139.5185  144.3006  152.0382 H   0  0  0  0  0  0  0  0  0  0  0  0  # atno 10167 bound_to 10162
  156.8106  130.5423  149.5709 H   0  0  0  0  0  0  0  0  0  0  0  0  # atno 10718 bound_to 10713
  154.8746  135.3808  154.4356 H   0  0  0  0  0  0  0  0  0  0  0  0  # atno 10763 bound_to 10752
  153.5046  135.7030  153.5818 H   0  0  0  0  0  0  0  0  0  0  0  0  # atno 10764 bound_to 10752
  153.4135  135.3919  155.2032 H   0  0  0  0  0  0  0  0  0  0  0  0  # atno 10765 bound_to 10752
  140.9312  133.7337  156.0940 H   0  0  0  0  0  0  0  0  0  0  0  0  # atno 11005 bound_to 11000
  144.7823  140.5867  143.6597 LP  0  0  0  0  0  0  0  0  0  0  0  0  # atno 17320 bound_to 7965
  145.4983  139.1484  143.3671 LP  0  0  0  0  0  0  0  0  0  0  0  0  # atno 17321 bound_to 7965
  140.2454  144.4225  150.6243 LP  0  0  0  0  0  0  0  0  0  0  0  0  # atno 17342 bound_to 10162
  140.6262  143.2181  151.6592 LP  0  0  0  0  0  0  0  0  0  0  0  0  # atno 17343 bound_to 10162
  156.1046  130.5995  150.9950 LP  0  0  0  0  0  0  0  0  0  0  0  0  # atno 17370 bound_to 10713
  157.6507  131.0897  150.8056 LP  0  0  0  0  0  0  0  0  0  0  0  0  # atno 17371 bound_to 10713
  140.7859  134.3672  157.5476 LP  0  0  0  0  0  0  0  0  0  0  0  0  # atno 17394 bound_to 11000
  139.8797  134.9110  156.3028 LP  0  0  0  0  0  0  0  0  0  0  0  0  # atno 17395 bound_to 11000

$$$$
