AV-unprocessed.smi:285|AV-procd|sdf|2169|dock2
  -GOLD-   2262021533D 1   1.00000     0.00000
 Structure written by MMmdl.
 31 33  0  0  0  0  0  0  0  0  1 V2000
  154.0427  141.3168  160.8892 N   0  0  0  0  0  0  0  0  0  0  0  0
  153.1856  141.8821  160.0281 C   0  0  0  0  0  0  0  0  0  0  0  0
  152.7448  143.1352  160.2883 N   0  0  0  0  0  0  0  0  0  0  0  0
  151.8904  143.7223  159.4439 C   0  0  0  0  0  0  0  0  0  0  0  0
  151.3691  143.2400  158.3127 N   0  0  0  0  0  0  0  0  0  0  0  0
  151.8129  141.9747  158.0519 C   0  0  0  0  0  0  0  0  0  0  0  0
  152.7215  141.2290  158.8587 C   0  0  0  0  0  0  0  0  0  0  0  0
  152.9560  139.9824  158.2916 N   0  0  0  0  0  0  0  0  0  0  0  0
  152.2198  140.0135  157.2159 C   0  0  0  0  0  0  0  0  0  0  0  0
  152.1823  138.5237  156.0300 Br  0  0  0  0  0  0  0  0  0  0  0  0
  151.4960  141.1608  156.9824 N   0  0  0  0  0  0  0  0  0  0  0  0
  150.5751  141.4816  155.8509 C   0  0  2  0  0  0  0  0  0  0  0  0
  149.1536  141.7024  156.3413 C   0  0  0  0  0  0  0  0  0  0  0  0
  148.3618  141.3833  155.0858 C   0  0  1  0  0  0  0  0  0  0  0  0
  148.1242  142.5655  154.3460 O   0  0  0  0  0  0  0  0  0  0  0  0
  149.2748  140.4233  154.2884 C   0  0  2  0  0  0  0  0  0  0  0  0
  148.7235  138.9894  154.2208 C   0  0  0  0  0  0  0  0  0  0  0  0
  148.2285  138.7195  152.9267 O   0  0  0  0  0  0  0  0  0  0  0  0
  150.5108  140.3869  155.0026 O   0  0  0  0  0  0  0  0  0  0  0  0
  154.3869  140.3831  160.7170 H   0  0  0  0  0  0  0  0  0  0  0  0
  154.3422  141.8248  161.7088 H   0  0  0  0  0  0  0  0  0  0  0  0
  151.5799  144.7212  159.7123 H   0  0  0  0  0  0  0  0  0  0  0  0
  151.0000  142.3421  155.3341 H   0  0  0  0  0  0  0  0  0  0  0  0
  148.9192  140.9820  157.1258 H   0  0  0  0  0  0  0  0  0  0  0  0
  149.0136  142.7122  156.7294 H   0  0  0  0  0  0  0  0  0  0  0  0
  147.3980  140.9384  155.3352 H   0  0  0  0  0  0  0  0  0  0  0  0
  148.1386  143.3015  154.9388 H   0  0  0  0  0  0  0  0  0  0  0  0
  149.4456  140.8120  153.2824 H   0  0  0  0  0  0  0  0  0  0  0  0
  149.4836  138.2582  154.4989 H   0  0  0  0  0  0  0  0  0  0  0  0
  147.8903  138.8705  154.9141 H   0  0  0  0  0  0  0  0  0  0  0  0
  148.8283  139.0835  152.2938 H   0  0  0  0  0  0  0  0  0  0  0  0
  1  2  1  0  0  0  0
  1 20  1  0  0  0  0
  1 21  1  0  0  0  0
  2  7  1  0  0  0  0
  2  3  2  0  0  0  0
  3  4  1  0  0  0  0
  4  5  2  0  0  0  0
  4 22  1  0  0  0  0
  5  6  1  0  0  0  0
  6 11  1  0  0  0  0
  6  7  2  0  0  0  0
  7  8  1  0  0  0  0
  8  9  2  0  0  0  0
  9 10  1  0  0  0  0
  9 11  1  0  0  0  0
 11 12  1  0  0  0  0
 12 19  1  0  0  0  0
 12 13  1  0  0  0  0
 12 23  1  0  0  0  0
 13 14  1  0  0  0  0
 13 24  1  0  0  0  0
 13 25  1  0  0  0  0
 14 15  1  0  0  0  0
 14 16  1  0  0  0  0
 14 26  1  0  0  0  0
 15 27  1  0  0  0  0
 16 17  1  0  0  0  0
 16 19  1  0  0  0  0
 16 28  1  0  0  0  0
 17 18  1  0  0  0  0
 17 29  1  0  0  0  0
 17 30  1  0  0  0  0
 18 31  1  0  0  0  0
M  END
> <s_m_source_file>
AV-unprocessed.smi

> <i_m_source_file_index>
285

> <i_lp_mmshare_version>
43012

> <i_f3d_flags>
0

> <s_epik_input>
bjFbY0hdbmMoW05IMl0pYyhjMTIpbmMoQnIpbjJbQ0BASF0zW0NIMl1bQ0BASF0oW09IXSlbQ0BIXShPMylbQ0gyXVtPSF0=

> <s_epik_cmdline>
J2VwaWtfcHl0aG9uJywgJy1waCcsICc3LjAnLCAnLXRuJywgJzgnLCAnLW1hJywgJzIwMCcsICctbWV0YWxfYmluZGluZycsICctaW1hZScsICc8aW5maWxlLm1hZT4nLCAnLW9tYWUnLCAnPG91dGZpbGUubWFlPic=

> <r_lp_tautomer_probability>
1

> <r_epik_Ionization_Penalty>
0.000103242

> <r_epik_Ionization_Penalty_Charging>
0

> <r_epik_Ionization_Penalty_Neutral>
0.000103242

> <r_epik_State_Penalty>
-0

> <r_epik_Charging_Adjusted_Penalty>
0

> <i_epik_Tot_Q>
0

> <i_epik_Tot_abs_Q>
0

> <r_epik_Metal_State_Penalty>
-0

> <b_epik_Metal_Only>
0

> <s_epik_Chemistry_Notes>
This compound contains an acetal/aminal-like group ( X-CH(R)-Y where X, Y are N, S, or O) that may be acid/base labile, releasing an aldehyde.

> <s_lp_Force_Field>
OPLS_2005

> <r_lp_Energy>
31.1056

> <b_lp_Chiralities_Consistent>
1

> <s_lp_Variant>
AV-unprocessed.smi:285-5

> <Gold.Version>
5.8.1

> <Gold.Id.Protein>
6NUR|6NUR_protein|mol2

> <Gold.PLP.Fitness>
44.6461

> <Gold.PLP.PLP>
-34.6950

> <Gold.PLP.part.hbond>
-5.8275

> <Gold.PLP.part.metal>
0.0000

> <Gold.PLP.part.buried>
-5.1081

> <Gold.PLP.part.nonpolar>
-23.6292

> <Gold.PLP.part.repulsive>
0.1776

> <Gold.PLP.ligand.clash>
0.0000

> <Gold.PLP.ligand.torsion>
0.6481

> <Gold.PLP.Chemscore.Hbond>
3.7424

> <Gold.PLP.Chemscore.CHOScore>
0.0000

> <Gold.PLP.Chemscore.Metal>
0.0000

> <Gold.Chemscore.Hbonds>
donor molecule, donor type, donor heavy atom, donor atom, acceptor molecule, acceptor atom, score
      L1  H    15    27       P1  8028  1.00
      L1  H    18    31       P1  7957  1.00
      P1  H  7989  7998       L1    19  0.80
      P1  H  7997  8008       L1     8  0.46

> <Gold.PLP.Chemscore.Internal.Correction>
0.0201

> <Gold.Rescore>
     Score         DG    S(hbond)    S(metal)    S(lipo)     H(rot)  DE(clash)    DE(int)     intcor
      7.41      -9.67       2.25        0.00      38.50       3.06       0.03       2.23       ----

> <Gold.Chemscore.Fitness>
7.4054

> <Gold.Chemscore.DG>
-9.6677

> <Gold.Chemscore.ZeroCoef>
-5.4800

> <Gold.Chemscore.Hbond>
2.2511

> <Gold.Chemscore.Metal>
0.0000

> <Gold.Chemscore.Lipo>
38.4976

> <Gold.Chemscore.Internal_Hbond>
0.0000

> <Gold.Chemscore.DEClash>
0.0348

> <Gold.Chemscore.DEInternal>
2.2276

> <Gold.Chemscore.Rot>
3.0607

> <Gold.Chemscore.Internal.Correction>
   9.000000E+99

> <Gold.Chemscore.Hbonds>
donor molecule, donor type, donor heavy atom, donor atom, acceptor molecule, acceptor atom, score
      L1  H    15    27       P1  8028  0.90
      L1  H    18    31       P1  7957  0.99
      P1  H  7989  7998       L1    19  0.05
      P1  H  7997  8008       L1     8  0.02

> <Gold.Chemscore.Hbond.Weighted>
-7.5188

> <Gold.Chemscore.Metal.Weighted>
-0.0000

> <Gold.Chemscore.Lipo.Weighted>
-4.5042

> <Gold.Chemscore.Internal_Hbond.Weighted>
0.0000

> <Gold.Chemscore.DEClash.Weighted>
0.0348

> <Gold.Chemscore.DEInternal.Weighted>
2.2276

> <Gold.Chemscore.Rot.Weighted>
7.8354

> <Gold.Chemscore.Internal.Correction.Weighted>
   9.000000E+99

> <Gold.Protein.RotatedTorsions>
[ 6907 6896 6895 6894 ] final  -33.73 input  -60.11 | X-H torsion
[ 7974 7965 7964 7962 ] final    1.84 input  175.53 | X-H torsion
[ 8008 7997 7996 7995 ] final  -97.58 input   59.86 | X-H torsion
[ 10167 10162 10161 10158 ] final   38.27 input  -65.29 | X-H torsion
[ 10718 10713 10712 10709 ] final  -27.06 input   66.30 | X-H torsion
[ 10763 10752 10751 10750 ] final -149.16 input  -60.55 | X-H torsion
[ 11005 11000 10999 10996 ] final -110.89 input  -57.11 | X-H torsion

> <Gold.Protein.ActiveResidues>
 VAL166  LYS551  ARG553  GLY616  TRP617  ASP618  TYR619  PRO620  LYS621  CYS622 
 ASP623  PHE694  ASN695  SER759  ASP760  ASP761  ALA762  ILE779  LEU786  VAL792 
 PHE793  MET794  SER795  GLU796  ALA797  LYS798  CYS799  TRP800  GLU811  SER814 

> <Gold.Protein.RotatedAtoms>
  151.0617  134.9741  159.8263 H   0  0  0  0  0  0  0  0  0  0  0  0  # atno 6907 bound_to 6896
  152.5396  134.2409  159.8871 H   0  0  0  0  0  0  0  0  0  0  0  0  # atno 6908 bound_to 6896
  151.2429  133.4347  159.2642 H   0  0  0  0  0  0  0  0  0  0  0  0  # atno 6909 bound_to 6896
  146.2442  140.0926  142.8351 H   0  0  0  0  0  0  0  0  0  0  0  0  # atno 7974 bound_to 7965
  154.7896  140.0462  157.1191 H   0  0  0  0  0  0  0  0  0  0  0  0  # atno 8008 bound_to 7997
  154.9606  140.3077  155.5013 H   0  0  0  0  0  0  0  0  0  0  0  0  # atno 8009 bound_to 7997
  156.2948  140.2271  156.4691 H   0  0  0  0  0  0  0  0  0  0  0  0  # atno 8010 bound_to 7997
  140.3953  144.1798  150.6132 H   0  0  0  0  0  0  0  0  0  0  0  0  # atno 10167 bound_to 10162
  156.4431  130.4468  149.7039 H   0  0  0  0  0  0  0  0  0  0  0  0  # atno 10718 bound_to 10713
  154.8193  135.3316  154.7085 H   0  0  0  0  0  0  0  0  0  0  0  0  # atno 10763 bound_to 10752
  153.7721  135.6925  153.4909 H   0  0  0  0  0  0  0  0  0  0  0  0  # atno 10764 bound_to 10752
  153.2038  135.4507  155.0246 H   0  0  0  0  0  0  0  0  0  0  0  0  # atno 10765 bound_to 10752
  141.0766  133.9291  157.2377 H   0  0  0  0  0  0  0  0  0  0  0  0  # atno 11005 bound_to 11000
  145.0637  140.9106  143.4923 LP  0  0  0  0  0  0  0  0  0  0  0  0  # atno 17320 bound_to 7965
  145.1046  139.2798  143.5668 LP  0  0  0  0  0  0  0  0  0  0  0  0  # atno 17321 bound_to 7965
  140.4797  143.2383  151.8972 LP  0  0  0  0  0  0  0  0  0  0  0  0  # atno 17342 bound_to 10162
  139.4787  144.5282  151.8704 LP  0  0  0  0  0  0  0  0  0  0  0  0  # atno 17343 bound_to 10162
  156.3896  130.7620  151.2620 LP  0  0  0  0  0  0  0  0  0  0  0  0  # atno 17370 bound_to 10713
  157.7505  131.0272  150.3994 LP  0  0  0  0  0  0  0  0  0  0  0  0  # atno 17371 bound_to 10713
  139.9578  135.0161  156.9177 LP  0  0  0  0  0  0  0  0  0  0  0  0  # atno 17394 bound_to 11000
  140.5560  134.0581  155.7384 LP  0  0  0  0  0  0  0  0  0  0  0  0  # atno 17395 bound_to 11000

$$$$
