AV-unprocessed.smi:1508|AV-procd|sdf|6086|dock8
  -GOLD-   22720 6213D 1   1.00000     0.00000
 Structure written by MMmdl.
 38 39  0  0  0  0  0  0  0  0  2 V2000
  150.0475  130.9420  154.9585 C   0  0  0  0  0  0  0  0  0  0  0  0
  148.8207  130.8932  154.0339 C   0  0  0  0  0  0  0  0  0  0  0  0
  148.4919  132.2305  153.3162 C   0  0  2  0  0  0  0  0  0  0  0  0
  148.0919  133.3526  154.3134 C   0  0  0  0  0  0  0  0  0  0  0  0
  148.7685  134.6188  154.0493 N   0  0  0  0  0  0  0  0  0  0  0  0
  149.7098  135.1615  154.8346 C   0  0  0  0  0  0  0  0  0  0  0  0
  150.1064  134.6352  155.8741 O   0  0  0  0  0  0  0  0  0  0  0  0
  150.1415  136.3329  154.3404 N   0  0  0  0  0  0  0  0  0  0  0  0
  151.1106  137.2074  154.8930 C   0  0  0  0  0  0  0  0  0  0  0  0
  152.0376  136.6849  155.7044 N   0  0  0  0  0  0  0  0  0  0  0  0
  152.9236  137.6483  156.1708 N   0  0  0  0  0  0  0  0  0  0  0  0
  152.6291  138.8613  155.6929 C   0  0  0  0  0  0  0  0  0  0  0  0
  151.2397  138.9483  154.6245 S   0  0  0  0  0  0  0  0  0  0  0  0
  147.4561  132.0595  152.2548 N   0  3  0  0  0  0  0  0  0  0  0  0
  146.1920  131.4197  152.7007 C   0  0  0  0  0  0  0  0  0  0  0  0
  145.0458  132.0786  151.9203 C   0  0  0  0  0  0  0  0  0  0  0  0
  145.7312  132.9521  150.8758 C   0  0  0  0  0  0  0  0  0  0  0  0
  147.0671  133.2877  151.5277 C   0  0  0  0  0  0  0  0  0  0  0  0
  150.1873  129.9836  155.4587 H   0  0  0  0  0  0  0  0  0  0  0  0
  149.9383  131.7021  155.7320 H   0  0  0  0  0  0  0  0  0  0  0  0
  150.9613  131.1540  154.4036 H   0  0  0  0  0  0  0  0  0  0  0  0
  148.9780  130.1099  153.2920 H   0  0  0  0  0  0  0  0  0  0  0  0
  147.9582  130.5515  154.6060 H   0  0  0  0  0  0  0  0  0  0  0  0
  149.4042  132.5461  152.8071 H   0  0  0  0  0  0  0  0  0  0  0  0
  147.0166  133.5341  154.2972 H   0  0  0  0  0  0  0  0  0  0  0  0
  148.3249  133.0518  155.3348 H   0  0  0  0  0  0  0  0  0  0  0  0
  148.5004  135.1152  153.2116 H   0  0  0  0  0  0  0  0  0  0  0  0
  149.7263  136.6406  153.4733 H   0  0  0  0  0  0  0  0  0  0  0  0
  153.2352  139.7107  155.9711 H   0  0  0  0  0  0  0  0  0  0  0  0
  146.2405  130.3472  152.5094 H   0  0  0  0  0  0  0  0  0  0  0  0
  146.0287  131.5603  153.7704 H   0  0  0  0  0  0  0  0  0  0  0  0
  144.3716  131.3487  151.4706 H   0  0  0  0  0  0  0  0  0  0  0  0
  144.4552  132.7029  152.5923 H   0  0  0  0  0  0  0  0  0  0  0  0
  145.8986  132.3775  149.9636 H   0  0  0  0  0  0  0  0  0  0  0  0
  145.1511  133.8379  150.6155 H   0  0  0  0  0  0  0  0  0  0  0  0
  146.9371  134.1096  152.2339 H   0  0  0  0  0  0  0  0  0  0  0  0
  147.8135  133.5842  150.7905 H   0  0  0  0  0  0  0  0  0  0  0  0
  147.8482  131.4431  151.5572 H   0  0  0  0  0  0  0  0  0  0  0  0
  1  2  1  0  0  0  0
  1 19  1  0  0  0  0
  1 20  1  0  0  0  0
  1 21  1  0  0  0  0
  2  3  1  0  0  0  0
  2 22  1  0  0  0  0
  2 23  1  0  0  0  0
  3  4  1  0  0  0  0
  3 14  1  0  0  0  0
  3 24  1  0  0  0  0
  4  5  1  0  0  0  0
  4 25  1  0  0  0  0
  4 26  1  0  0  0  0
  5  6  1  0  0  0  0
  5 27  1  0  0  0  0
  6  7  2  0  0  0  0
  6  8  1  0  0  0  0
  8  9  1  0  0  0  0
  8 28  1  0  0  0  0
  9 13  1  0  0  0  0
  9 10  2  0  0  0  0
 10 11  1  0  0  0  0
 11 12  2  0  0  0  0
 12 13  1  0  0  0  0
 12 29  1  0  0  0  0
 14 18  1  0  0  0  0
 14 15  1  0  0  0  0
 14 38  1  0  0  0  0
 15 16  1  0  0  0  0
 15 30  1  0  0  0  0
 15 31  1  0  0  0  0
 16 17  1  0  0  0  0
 16 32  1  0  0  0  0
 16 33  1  0  0  0  0
 17 18  1  0  0  0  0
 17 34  1  0  0  0  0
 17 35  1  0  0  0  0
 18 36  1  0  0  0  0
 18 37  1  0  0  0  0
M  CHG  1  14   1
M  END
> <s_m_source_file>
AV-unprocessed.smi

> <i_m_source_file_index>
1508

> <i_lp_mmshare_version>
43012

> <i_f3d_flags>
0

> <s_epik_input>
W0NIMl0xW0NIMl1bQ0gyXVtDSDJdTjFbQ0BIXShbQ0gyXVtDSDNdKVtDSDJdW05IXUMoPU8pW05IXWMybm5bY0hdczI=

> <s_epik_cmdline>
J2VwaWtfcHl0aG9uJywgJy1waCcsICc3LjAnLCAnLXRuJywgJzgnLCAnLW1hJywgJzIwMCcsICctbWV0YWxfYmluZGluZycsICctaW1hZScsICc8aW5maWxlLm1hZT4nLCAnLW9tYWUnLCAnPG91dGZpbGUubWFlPic=

> <r_lp_tautomer_probability>
1

> <r_epik_Ionization_Penalty>
0.00193711

> <r_epik_Ionization_Penalty_Charging>
0.00115997

> <r_epik_Ionization_Penalty_Neutral>
0.000777142

> <r_epik_State_Penalty>
-0

> <r_epik_Charging_Adjusted_Penalty>
0.00115997

> <i_epik_Tot_Q>
1

> <i_epik_Tot_abs_Q>
1

> <r_epik_Metal_State_Penalty>
0.264283

> <b_epik_Metal_Only>
0

> <s_lp_Force_Field>
OPLS_2005

> <r_lp_Energy>
30.1882

> <b_lp_Chiralities_Consistent>
1

> <s_lp_Variant>
AV-unprocessed.smi:1508-1

> <Gold.Version>
5.8.1

> <Gold.Id.Protein>
6NUR|6NUR_protein|mol2

> <Gold.PLP.Fitness>
43.5988

> <Gold.PLP.PLP>
-33.2878

> <Gold.PLP.part.hbond>
-5.9197

> <Gold.PLP.part.metal>
0.0000

> <Gold.PLP.part.buried>
-2.5813

> <Gold.PLP.part.nonpolar>
-24.9625

> <Gold.PLP.part.repulsive>
0.1370

> <Gold.PLP.ligand.clash>
0.0000

> <Gold.PLP.ligand.torsion>
0.8860

> <Gold.PLP.Chemscore.Hbond>
3.9840

> <Gold.PLP.Chemscore.CHOScore>
0.0000

> <Gold.PLP.Chemscore.Metal>
0.0000

> <Gold.Chemscore.Hbonds>
donor molecule, donor type, donor heavy atom, donor atom, acceptor molecule, acceptor atom, score
      L1  H     5    27       P1  7948  0.96
      L1  H     8    28       P1  7948  0.98
      L1  H    14    38       P1 10747  1.00
      P1  H 10752 10763       L1    10  1.00

> <Gold.PLP.Chemscore.Internal.Correction>
0.1309

> <Gold.Rescore>
     Score         DG    S(hbond)    S(metal)    S(lipo)     H(rot)  DE(clash)    DE(int)     intcor
     16.52     -18.75       3.20        0.00      63.41       1.89       0.15       2.08       ----

> <Gold.Chemscore.Fitness>
16.5215

> <Gold.Chemscore.DG>
-18.7512

> <Gold.Chemscore.ZeroCoef>
-5.4800

> <Gold.Chemscore.Hbond>
3.2048

> <Gold.Chemscore.Metal>
0.0000

> <Gold.Chemscore.Lipo>
63.4052

> <Gold.Chemscore.Internal_Hbond>
0.0000

> <Gold.Chemscore.DEClash>
0.1521

> <Gold.Chemscore.DEInternal>
2.0776

> <Gold.Chemscore.Rot>
1.8950

> <Gold.Chemscore.Internal.Correction>
   9.000000E+99

> <Gold.Chemscore.Hbonds>
donor molecule, donor type, donor heavy atom, donor atom, acceptor molecule, acceptor atom, score
      L1  H     5    27       P1  7948  0.79
      L1  H     8    28       P1  7948  0.42
      L1  H    14    38       P1 10747  0.99
      P1  H 10752 10763       L1    10  0.38

> <Gold.Chemscore.Hbond.Weighted>
-10.7039

> <Gold.Chemscore.Metal.Weighted>
-0.0000

> <Gold.Chemscore.Lipo.Weighted>
-7.4184

> <Gold.Chemscore.Internal_Hbond.Weighted>
0.0000

> <Gold.Chemscore.DEClash.Weighted>
0.1521

> <Gold.Chemscore.DEInternal.Weighted>
2.0776

> <Gold.Chemscore.Rot.Weighted>
4.8511

> <Gold.Chemscore.Internal.Correction.Weighted>
   9.000000E+99

> <Gold.Protein.RotatedTorsions>
[ 6907 6896 6895 6894 ] final  -99.60 input  -60.11 | X-H torsion
[ 7974 7965 7964 7962 ] final -121.64 input  175.53 | X-H torsion
[ 8008 7997 7996 7995 ] final  -78.21 input   59.86 | X-H torsion
[ 10167 10162 10161 10158 ] final  -62.75 input  -65.29 | X-H torsion
[ 10718 10713 10712 10709 ] final  148.66 input   66.30 | X-H torsion
[ 10763 10752 10751 10750 ] final   78.79 input  -60.55 | X-H torsion
[ 11005 11000 10999 10996 ] final  -57.78 input  -57.11 | X-H torsion

> <Gold.Protein.ActiveResidues>
 VAL166  LYS551  ARG553  GLY616  TRP617  ASP618  TYR619  PRO620  LYS621  CYS622 
 ASP623  PHE694  ASN695  SER759  ASP760  ASP761  ALA762  ILE779  LEU786  VAL792 
 PHE793  MET794  SER795  GLU796  ALA797  LYS798  CYS799  TRP800  GLU811  SER814 

> <Gold.Protein.RotatedAtoms>
  150.7085  134.1016  159.3967 H   0  0  0  0  0  0  0  0  0  0  0  0  # atno 6907 bound_to 6896
  151.9002  135.0379  160.0515 H   0  0  0  0  0  0  0  0  0  0  0  0  # atno 6908 bound_to 6896
  152.2420  133.5108  159.5312 H   0  0  0  0  0  0  0  0  0  0  0  0  # atno 6909 bound_to 6896
  145.0381  140.8122  143.4283 H   0  0  0  0  0  0  0  0  0  0  0  0  # atno 7974 bound_to 7965
  154.5668  140.0698  156.8903 H   0  0  0  0  0  0  0  0  0  0  0  0  # atno 8008 bound_to 7997
  155.2709  140.3365  155.4247 H   0  0  0  0  0  0  0  0  0  0  0  0  # atno 8009 bound_to 7997
  156.2087  140.1750  156.7729 H   0  0  0  0  0  0  0  0  0  0  0  0  # atno 8010 bound_to 7997
  140.5917  143.2343  151.6124 H   0  0  0  0  0  0  0  0  0  0  0  0  # atno 10167 bound_to 10162
  157.3059  131.0879  151.1354 H   0  0  0  0  0  0  0  0  0  0  0  0  # atno 10718 bound_to 10713
  153.0902  135.4864  154.8674 H   0  0  0  0  0  0  0  0  0  0  0  0  # atno 10763 bound_to 10752
  154.7259  135.3049  154.8973 H   0  0  0  0  0  0  0  0  0  0  0  0  # atno 10764 bound_to 10752
  153.9623  135.6811  153.4798 H   0  0  0  0  0  0  0  0  0  0  0  0  # atno 10765 bound_to 10752
  141.1179  133.6611  156.4822 H   0  0  0  0  0  0  0  0  0  0  0  0  # atno 11005 bound_to 11000
  145.1683  139.2419  143.5355 LP  0  0  0  0  0  0  0  0  0  0  0  0  # atno 17320 bound_to 7965
  146.3506  140.1428  142.8594 LP  0  0  0  0  0  0  0  0  0  0  0  0  # atno 17321 bound_to 7965
  139.5232  144.3140  152.0968 LP  0  0  0  0  0  0  0  0  0  0  0  0  # atno 17342 bound_to 10162
  140.2306  144.4372  150.6302 LP  0  0  0  0  0  0  0  0  0  0  0  0  # atno 17343 bound_to 10162
  157.2695  130.6697  149.6013 LP  0  0  0  0  0  0  0  0  0  0  0  0  # atno 17370 bound_to 10713
  155.9674  130.4483  150.5615 LP  0  0  0  0  0  0  0  0  0  0  0  0  # atno 17371 bound_to 10713
  140.4591  134.6857  157.5077 LP  0  0  0  0  0  0  0  0  0  0  0  0  # atno 17394 bound_to 11000
  140.0115  134.6683  155.9374 LP  0  0  0  0  0  0  0  0  0  0  0  0  # atno 17395 bound_to 11000

$$$$
