AV-unprocessed.smi:99|AV-procd|sdf|865|dock1
  -GOLD-   2262017313D 1   1.00000     0.00000
 Structure written by MMmdl.
 53 56  0  0  0  0  0  0  0  0  1 V2000
  157.4903  137.5209  157.2549 O   0  0  0  0  0  0  0  0  0  0  0  0
  156.6905  137.8239  156.3678 C   0  0  0  0  0  0  0  0  0  0  0  0
  155.3700  137.9892  156.5758 O   0  0  0  0  0  0  0  0  0  0  0  0
  154.7886  137.6698  157.8299 C   0  0  0  0  0  0  0  0  0  0  0  0
  153.2651  137.6001  157.6665 C   0  0  2  0  0  0  0  0  0  0  0  0
  152.9367  137.0324  156.4018 O   0  0  0  0  0  0  0  0  0  0  0  0
  151.6769  137.4819  155.9837 C   0  0  1  0  0  0  0  0  0  0  0  0
  150.7131  136.3127  155.9394 N   0  0  0  0  0  0  0  0  0  0  0  0
  151.0906  135.0255  156.3019 C   0  0  0  0  0  0  0  0  0  0  0  0
  150.2393  133.9726  156.2759 C   0  0  0  0  0  0  0  0  0  0  0  0
  148.8523  134.1506  155.8581 C   0  0  0  0  0  0  0  0  0  0  0  0
  148.0097  133.2578  155.7986 O   0  0  0  0  0  0  0  0  0  0  0  0
  148.5142  135.4620  155.5128 N   0  0  0  0  0  0  0  0  0  0  0  0
  149.3811  136.5554  155.5396 C   0  0  0  0  0  0  0  0  0  0  0  0
  148.9743  137.6744  155.2287 O   0  0  0  0  0  0  0  0  0  0  0  0
  151.2335  138.5976  156.9598 C   0  0  1  0  0  0  0  0  0  0  0  0
  150.2966  138.1457  157.9274 O   0  0  0  0  0  0  0  0  0  0  0  0
  152.5649  138.9565  157.6003 C   0  0  1  0  0  0  0  0  0  0  0  0
  152.3973  139.6064  158.8581 O   0  0  0  0  0  0  0  0  0  0  0  0
  151.7288  140.7768  158.9602 C   0  0  0  0  0  0  0  0  0  0  0  0
  150.9322  141.1889  158.1149 O   0  0  0  0  0  0  0  0  0  0  0  0
  152.0899  141.5423  160.1869 C   0  0  0  0  0  0  0  0  0  0  0  0
  153.1727  141.1023  160.9832 C   0  0  0  0  0  0  0  0  0  0  0  0
  153.5213  141.7891  162.1621 C   0  0  0  0  0  0  0  0  0  0  0  0
  152.7930  142.9260  162.5573 C   0  0  0  0  0  0  0  0  0  0  0  0
  151.7157  143.3756  161.7720 C   0  0  0  0  0  0  0  0  0  0  0  0
  151.3643  142.6890  160.5934 C   0  0  0  0  0  0  0  0  0  0  0  0
  157.0758  138.0177  154.9398 C   0  0  0  0  0  0  0  0  0  0  0  0
  158.1269  137.2452  154.3937 C   0  0  0  0  0  0  0  0  0  0  0  0
  158.4955  137.3894  153.0421 C   0  0  0  0  0  0  0  0  0  0  0  0
  157.8188  138.3092  152.2201 C   0  0  0  0  0  0  0  0  0  0  0  0
  156.7747  139.0873  152.7525 C   0  0  0  0  0  0  0  0  0  0  0  0
  156.4053  138.9449  154.1040 C   0  0  0  0  0  0  0  0  0  0  0  0
  147.5617  135.6331  155.2243 H   0  0  0  0  0  0  0  0  0  0  0  0
  155.1639  136.7198  158.2138 H   0  0  0  0  0  0  0  0  0  0  0  0
  155.0579  138.4446  158.5483 H   0  0  0  0  0  0  0  0  0  0  0  0
  152.8257  136.9802  158.4500 H   0  0  0  0  0  0  0  0  0  0  0  0
  151.7865  137.8272  154.9538 H   0  0  0  0  0  0  0  0  0  0  0  0
  152.1015  134.8327  156.6273 H   0  0  0  0  0  0  0  0  0  0  0  0
  150.5859  132.9918  156.5677 H   0  0  0  0  0  0  0  0  0  0  0  0
  150.8030  139.4330  156.4069 H   0  0  0  0  0  0  0  0  0  0  0  0
  149.5797  138.7605  157.9591 H   0  0  0  0  0  0  0  0  0  0  0  0
  153.1046  139.5911  156.8958 H   0  0  0  0  0  0  0  0  0  0  0  0
  153.7409  140.2265  160.7048 H   0  0  0  0  0  0  0  0  0  0  0  0
  154.3464  141.4402  162.7654 H   0  0  0  0  0  0  0  0  0  0  0  0
  153.0598  143.4520  163.4621 H   0  0  0  0  0  0  0  0  0  0  0  0
  151.1557  144.2480  162.0744 H   0  0  0  0  0  0  0  0  0  0  0  0
  150.5301  143.0586  160.0155 H   0  0  0  0  0  0  0  0  0  0  0  0
  158.6569  136.5276  155.0037 H   0  0  0  0  0  0  0  0  0  0  0  0
  159.2973  136.7909  152.6349 H   0  0  0  0  0  0  0  0  0  0  0  0
  158.0998  138.4171  151.1829 H   0  0  0  0  0  0  0  0  0  0  0  0
  156.2514  139.7913  152.1223 H   0  0  0  0  0  0  0  0  0  0  0  0
  155.5941  139.5525  154.4778 H   0  0  0  0  0  0  0  0  0  0  0  0
  1  2  2  0  0  0  0
  2  3  1  0  0  0  0
  2 28  1  0  0  0  0
  3  4  1  0  0  0  0
  4  5  1  0  0  0  0
  4 35  1  0  0  0  0
  4 36  1  0  0  0  0
  5 18  1  0  0  0  0
  5  6  1  0  0  0  0
  5 37  1  0  0  0  0
  6  7  1  0  0  0  0
  7  8  1  0  0  0  0
  7 16  1  0  0  0  0
  7 38  1  0  0  0  0
  8 14  1  0  0  0  0
  8  9  1  0  0  0  0
  9 10  2  0  0  0  0
  9 39  1  0  0  0  0
 10 11  1  0  0  0  0
 10 40  1  0  0  0  0
 11 12  2  0  0  0  0
 11 13  1  0  0  0  0
 13 34  1  0  0  0  0
 13 14  1  0  0  0  0
 14 15  2  0  0  0  0
 16 17  1  0  0  0  0
 16 18  1  0  0  0  0
 16 41  1  0  0  0  0
 17 42  1  0  0  0  0
 18 19  1  0  0  0  0
 18 43  1  0  0  0  0
 19 20  1  0  0  0  0
 20 21  2  0  0  0  0
 20 22  1  0  0  0  0
 22 27  1  0  0  0  0
 22 23  2  0  0  0  0
 23 24  1  0  0  0  0
 23 44  1  0  0  0  0
 24 25  2  0  0  0  0
 24 45  1  0  0  0  0
 25 26  1  0  0  0  0
 25 46  1  0  0  0  0
 26 27  2  0  0  0  0
 26 47  1  0  0  0  0
 27 48  1  0  0  0  0
 28 33  1  0  0  0  0
 28 29  2  0  0  0  0
 29 30  1  0  0  0  0
 29 49  1  0  0  0  0
 30 31  2  0  0  0  0
 30 50  1  0  0  0  0
 31 32  1  0  0  0  0
 31 51  1  0  0  0  0
 32 33  2  0  0  0  0
 32 52  1  0  0  0  0
 33 53  1  0  0  0  0
M  END
> <s_m_source_file>
AV-unprocessed.smi

> <i_m_source_file_index>
99

> <i_lp_mmshare_version>
43012

> <i_f3d_flags>
0

> <s_epik_input>
W2NIXTFbY0hdW2NIXVtjSF1bY0hdYzFDKD1PKU9bQ0gyXVtDQEBIXTJPW0NAQEhdKG4zW2NIXVtjSF1jKD1PKVtuSF1jMz1PKVtDQEBIXShbT0hdKVtDQEhdMk9DKD1PKWM0W2NIXVtjSF1bY0hdW2NIXVtjSF00

> <s_epik_cmdline>
J2VwaWtfcHl0aG9uJywgJy1waCcsICc3LjAnLCAnLXRuJywgJzgnLCAnLW1hJywgJzIwMCcsICctbWV0YWxfYmluZGluZycsICctaW1hZScsICc8aW5maWxlLm1hZT4nLCAnLW9tYWUnLCAnPG91dGZpbGUubWFlPic=

> <r_lp_tautomer_probability>
1

> <r_epik_Ionization_Penalty>
0.00454555

> <r_epik_Ionization_Penalty_Charging>
0.0045191

> <r_epik_Ionization_Penalty_Neutral>
2.64449e-05

> <r_epik_State_Penalty>
-0

> <r_epik_Charging_Adjusted_Penalty>
0.0045191

> <i_epik_Tot_Q>
0

> <i_epik_Tot_abs_Q>
0

> <r_epik_Metal_State_Penalty>
1.27877

> <b_epik_Metal_Only>
0

> <s_epik_Chemistry_Notes>
This compound has an ester and may undergo hydrolysis at high or low pH. This compound contains an acetal/aminal-like group ( X-CH(R)-Y where X, Y are N, S, or O) that may be acid/base labile, releasing an aldehyde.

> <s_lp_Force_Field>
OPLS_2005

> <r_lp_Energy>
44.6164

> <b_lp_Chiralities_Consistent>
1

> <s_lp_Variant>
AV-unprocessed.smi:99-1

> <Gold.Version>
5.8.1

> <Gold.Id.Protein>
6NUR|6NUR_protein|mol2

> <Gold.PLP.Fitness>
52.4881

> <Gold.PLP.PLP>
-52.2927

> <Gold.PLP.part.hbond>
-3.2993

> <Gold.PLP.part.metal>
0.0000

> <Gold.PLP.part.buried>
-2.9924

> <Gold.PLP.part.nonpolar>
-45.8778

> <Gold.PLP.part.repulsive>
0.3835

> <Gold.PLP.ligand.clash>
0.0000

> <Gold.PLP.ligand.torsion>
1.1002

> <Gold.PLP.Chemscore.Hbond>
0.7040

> <Gold.PLP.Chemscore.CHOScore>
0.0000

> <Gold.PLP.Chemscore.Metal>
0.0000

> <Gold.Chemscore.Hbonds>
donor molecule, donor type, donor heavy atom, donor atom, acceptor molecule, acceptor atom, score
      P1  H 10752 10763       L1     6  0.32

> <Gold.PLP.Chemscore.Internal.Correction>
0.2838

> <Gold.Rescore>
     Score         DG    S(hbond)    S(metal)    S(lipo)     H(rot)  DE(clash)    DE(int)     intcor
     13.24     -17.92       0.61        0.00     158.84       3.19       2.84       1.84       ----

> <Gold.Chemscore.Fitness>
13.2398

> <Gold.Chemscore.DG>
-17.9188

> <Gold.Chemscore.ZeroCoef>
-5.4800

> <Gold.Chemscore.Hbond>
0.6051

> <Gold.Chemscore.Metal>
0.0000

> <Gold.Chemscore.Lipo>
158.8436

> <Gold.Chemscore.Internal_Hbond>
0.0000

> <Gold.Chemscore.DEClash>
2.8425

> <Gold.Chemscore.DEInternal>
1.8365

> <Gold.Chemscore.Rot>
3.1903

> <Gold.Chemscore.Internal.Correction>
   9.000000E+99

> <Gold.Chemscore.Hbonds>
donor molecule, donor type, donor heavy atom, donor atom, acceptor molecule, acceptor atom, score
      P1  H 10752 10763       L1     6  0.03

> <Gold.Chemscore.Hbond.Weighted>
-2.0212

> <Gold.Chemscore.Metal.Weighted>
-0.0000

> <Gold.Chemscore.Lipo.Weighted>
-18.5847

> <Gold.Chemscore.Internal_Hbond.Weighted>
0.0000

> <Gold.Chemscore.DEClash.Weighted>
2.8425

> <Gold.Chemscore.DEInternal.Weighted>
1.8365

> <Gold.Chemscore.Rot.Weighted>
8.1671

> <Gold.Chemscore.Internal.Correction.Weighted>
   9.000000E+99

> <Gold.Protein.RotatedTorsions>
[ 6907 6896 6895 6894 ] final  101.93 input  -60.11 | X-H torsion
[ 7974 7965 7964 7962 ] final -174.51 input  175.53 | X-H torsion
[ 8008 7997 7996 7995 ] final  -16.36 input   59.86 | X-H torsion
[ 10167 10162 10161 10158 ] final   62.05 input  -65.29 | X-H torsion
[ 10718 10713 10712 10709 ] final    2.06 input   66.30 | X-H torsion
[ 10763 10752 10751 10750 ] final   78.01 input  -60.55 | X-H torsion
[ 11005 11000 10999 10996 ] final  -48.00 input  -57.11 | X-H torsion

> <Gold.Protein.ActiveResidues>
 VAL166  LYS551  ARG553  GLY616  TRP617  ASP618  TYR619  PRO620  LYS621  CYS622 
 ASP623  PHE694  ASN695  SER759  ASP760  ASP761  ALA762  ILE779  LEU786  VAL792 
 PHE793  MET794  SER795  GLU796  ALA797  LYS798  CYS799  TRP800  GLU811  SER814 

> <Gold.Protein.RotatedAtoms>
  152.5337  134.0051  159.7912 H   0  0  0  0  0  0  0  0  0  0  0  0  # atno 6907 bound_to 6896
  151.0263  133.5823  159.2673 H   0  0  0  0  0  0  0  0  0  0  0  0  # atno 6908 bound_to 6896
  151.2844  135.0730  159.9235 H   0  0  0  0  0  0  0  0  0  0  0  0  # atno 6909 bound_to 6896
  144.7131  140.1460  143.6388 H   0  0  0  0  0  0  0  0  0  0  0  0  # atno 7974 bound_to 7965
  154.5059  140.2171  155.9252 H   0  0  0  0  0  0  0  0  0  0  0  0  # atno 8008 bound_to 7997
  156.1493  140.3164  155.8588 H   0  0  0  0  0  0  0  0  0  0  0  0  # atno 8009 bound_to 7997
  155.3970  140.0482  157.3029 H   0  0  0  0  0  0  0  0  0  0  0  0  # atno 8010 bound_to 7997
  140.1481  144.4489  150.6774 H   0  0  0  0  0  0  0  0  0  0  0  0  # atno 10167 bound_to 10162
  156.8575  130.5575  149.5665 H   0  0  0  0  0  0  0  0  0  0  0  0  # atno 10718 bound_to 10713
  153.0842  135.4893  154.8563 H   0  0  0  0  0  0  0  0  0  0  0  0  # atno 10763 bound_to 10752
  154.7189  135.3035  154.9081 H   0  0  0  0  0  0  0  0  0  0  0  0  # atno 10764 bound_to 10752
  153.9751  135.6796  153.4801 H   0  0  0  0  0  0  0  0  0  0  0  0  # atno 10765 bound_to 10752
  141.0674  133.6689  156.3378 H   0  0  0  0  0  0  0  0  0  0  0  0  # atno 11005 bound_to 11000
  145.9159  139.2515  143.1410 LP  0  0  0  0  0  0  0  0  0  0  0  0  # atno 17320 bound_to 7965
  145.9670  140.8791  143.0182 LP  0  0  0  0  0  0  0  0  0  0  0  0  # atno 17321 bound_to 7965
  140.6719  143.2289  151.5603 LP  0  0  0  0  0  0  0  0  0  0  0  0  # atno 17342 bound_to 10162
  139.5439  144.2573  152.1405 LP  0  0  0  0  0  0  0  0  0  0  0  0  # atno 17343 bound_to 10162
  156.0795  130.5809  150.9536 LP  0  0  0  0  0  0  0  0  0  0  0  0  # atno 17370 bound_to 10713
  157.6269  131.0925  150.8517 LP  0  0  0  0  0  0  0  0  0  0  0  0  # atno 17371 bound_to 10713
  140.5744  134.5808  157.5465 LP  0  0  0  0  0  0  0  0  0  0  0  0  # atno 17394 bound_to 11000
  139.9490  134.7651  156.0493 LP  0  0  0  0  0  0  0  0  0  0  0  0  # atno 17395 bound_to 11000

$$$$
