AV-unprocessed.smi:1738|AV-procd|sdf|7000|dock8
  -GOLD-   22720 8213D 1   1.00000     0.00000
 Structure written by MMmdl.
 46 48  0  0  0  0  0  0  0  0  2 V2000
  151.5711  138.8232  159.1482 C   0  0  0  0  0  0  0  0  0  0  0  0
  152.6888  137.6389  158.2935 S   0  0  0  0  0  0  0  0  0  0  0  0
  153.7348  138.4082  157.6018 O   0  0  0  0  0  0  0  0  0  0  0  0
  153.0719  136.6004  159.2628 O   0  0  0  0  0  0  0  0  0  0  0  0
  151.6432  136.8896  157.0500 C   0  0  0  0  0  0  0  0  0  0  0  0
  151.5668  137.4397  155.7550 C   0  0  0  0  0  0  0  0  0  0  0  0
  150.7630  136.7861  154.8015 C   0  0  0  0  0  0  0  0  0  0  0  0
  150.0798  135.6018  155.1760 C   0  0  0  0  0  0  0  0  0  0  0  0
  149.2371  134.8396  154.3199 N   0  0  0  0  0  0  0  0  0  0  0  0
  148.4652  133.7765  154.6046 C   0  0  0  0  0  0  0  0  0  0  0  0
  148.3733  133.2277  155.7014 O   0  0  0  0  0  0  0  0  0  0  0  0
  147.7889  133.3690  153.5206 N   0  0  0  0  0  0  0  0  0  0  0  0
  146.8430  132.2545  153.4875 C   0  0  1  0  0  0  0  0  0  0  0  0
  145.9840  132.2274  152.2092 C   0  0  0  0  0  0  0  0  0  0  0  0
  145.8786  130.7420  151.8492 C   0  0  0  0  0  0  0  0  0  0  0  0
  147.1782  130.2113  152.2765 N   0  3  2  0  0  0  0  0  0  0  0  0
  147.3719  128.7478  152.3098 C   0  0  0  0  0  0  0  0  0  0  0  0
  148.8623  128.4618  152.5951 C   0  0  0  0  0  0  0  0  0  0  0  0
  149.3737  129.2071  153.8494 C   0  0  0  0  0  0  0  0  0  0  0  0
  149.0186  130.7097  153.8127 C   0  0  0  0  0  0  0  0  0  0  0  0
  147.5082  130.8593  153.5573 C   0  0  1  0  0  0  0  0  0  0  0  0
  150.2381  135.1439  156.5020 C   0  0  0  0  0  0  0  0  0  0  0  0
  151.0060  135.7604  157.4242 N   0  0  0  0  0  0  0  0  0  0  0  0
  152.1193  139.3322  159.9406 H   0  0  0  0  0  0  0  0  0  0  0  0
  150.7283  138.2826  159.5784 H   0  0  0  0  0  0  0  0  0  0  0  0
  151.2036  139.5581  158.4322 H   0  0  0  0  0  0  0  0  0  0  0  0
  152.1045  138.3390  155.4939 H   0  0  0  0  0  0  0  0  0  0  0  0
  150.6929  137.2121  153.8139 H   0  0  0  0  0  0  0  0  0  0  0  0
  149.1848  135.1757  153.3693 H   0  0  0  0  0  0  0  0  0  0  0  0
  147.9267  133.8764  152.6588 H   0  0  0  0  0  0  0  0  0  0  0  0
  146.1619  132.3469  154.3361 H   0  0  0  0  0  0  0  0  0  0  0  0
  145.0081  132.6938  152.3477 H   0  0  0  0  0  0  0  0  0  0  0  0
  146.4902  132.7573  151.4009 H   0  0  0  0  0  0  0  0  0  0  0  0
  145.0793  130.2633  152.4173 H   0  0  0  0  0  0  0  0  0  0  0  0
  145.6975  130.5771  150.7868 H   0  0  0  0  0  0  0  0  0  0  0  0
  146.7344  128.3009  153.0739 H   0  0  0  0  0  0  0  0  0  0  0  0
  147.0826  128.3150  151.3517 H   0  0  0  0  0  0  0  0  0  0  0  0
  149.0233  127.3891  152.7058 H   0  0  0  0  0  0  0  0  0  0  0  0
  149.4552  128.7717  151.7336 H   0  0  0  0  0  0  0  0  0  0  0  0
  148.9312  128.7555  154.7382 H   0  0  0  0  0  0  0  0  0  0  0  0
  150.4522  129.0799  153.9463 H   0  0  0  0  0  0  0  0  0  0  0  0
  149.2971  131.1765  154.7577 H   0  0  0  0  0  0  0  0  0  0  0  0
  149.5886  131.2097  153.0287 H   0  0  0  0  0  0  0  0  0  0  0  0
  146.9838  130.3137  154.3451 H   0  0  0  0  0  0  0  0  0  0  0  0
  149.7359  134.2471  156.8344 H   0  0  0  0  0  0  0  0  0  0  0  0
  147.8439  130.5701  151.6069 H   0  0  0  0  0  0  0  0  0  0  0  0
  1  2  1  0  0  0  0
  1 24  1  0  0  0  0
  1 25  1  0  0  0  0
  1 26  1  0  0  0  0
  2  3  2  0  0  0  0
  2  4  2  0  0  0  0
  2  5  1  0  0  0  0
  5 23  1  0  0  0  0
  5  6  2  0  0  0  0
  6  7  1  0  0  0  0
  6 27  1  0  0  0  0
  7  8  2  0  0  0  0
  7 28  1  0  0  0  0
  8  9  1  0  0  0  0
  8 22  1  0  0  0  0
  9 10  1  0  0  0  0
  9 29  1  0  0  0  0
 10 11  2  0  0  0  0
 10 12  1  0  0  0  0
 12 13  1  0  0  0  0
 12 30  1  0  0  0  0
 13 21  1  0  0  0  0
 13 14  1  0  0  0  0
 13 31  1  0  0  0  0
 14 15  1  0  0  0  0
 14 32  1  0  0  0  0
 14 33  1  0  0  0  0
 15 16  1  0  0  0  0
 15 34  1  0  0  0  0
 15 35  1  0  0  0  0
 16 21  1  0  0  0  0
 16 17  1  0  0  0  0
 16 46  1  0  0  0  0
 17 18  1  0  0  0  0
 17 36  1  0  0  0  0
 17 37  1  0  0  0  0
 18 19  1  0  0  0  0
 18 38  1  0  0  0  0
 18 39  1  0  0  0  0
 19 20  1  0  0  0  0
 19 40  1  0  0  0  0
 19 41  1  0  0  0  0
 20 21  1  0  0  0  0
 20 42  1  0  0  0  0
 20 43  1  0  0  0  0
 21 44  1  0  0  0  0
 22 23  2  0  0  0  0
 22 45  1  0  0  0  0
M  CHG  1  16   1
M  END
> <s_m_source_file>
AV-unprocessed.smi

> <i_m_source_file_index>
1738

> <i_lp_mmshare_version>
43012

> <i_f3d_flags>
0

> <s_epik_input>
W0NIM11TKD1PKSg9TyljMVtjSF1bY0hdYyhbY0hdbjEpW05IXUMoPU8pW05IXVtDQEhdKFtDSDJdW0NIMl0yKVtDQEBIXShOMjMpW0NIMl1bQ0gyXVtDSDJdW0NIMl0z

> <s_epik_cmdline>
J2VwaWtfcHl0aG9uJywgJy1waCcsICc3LjAnLCAnLXRuJywgJzgnLCAnLW1hJywgJzIwMCcsICctbWV0YWxfYmluZGluZycsICctaW1hZScsICc8aW5maWxlLm1hZT4nLCAnLW9tYWUnLCAnPG91dGZpbGUubWFlPic=

> <r_epik_Ionization_Penalty>
0.00100042

> <r_epik_Ionization_Penalty_Charging>
0.000974069

> <r_epik_Ionization_Penalty_Neutral>
2.63543e-05

> <r_epik_State_Penalty>
0.000633842

> <r_epik_Charging_Adjusted_Penalty>
0.00160791

> <i_epik_Tot_Q>
1

> <i_epik_Tot_abs_Q>
1

> <r_epik_Metal_State_Penalty>
-0

> <b_epik_Metal_Only>
0

> <s_lp_Force_Field>
OPLS_2005

> <r_lp_Energy>
43.1339

> <b_lp_Chiralities_Consistent>
1

> <s_lp_Variant>
AV-unprocessed.smi:1738-4

> <Gold.Version>
5.8.1

> <Gold.Id.Protein>
6NUR|6NUR_protein|mol2

> <Gold.PLP.Fitness>
43.3748

> <Gold.PLP.PLP>
-31.8537

> <Gold.PLP.part.hbond>
-5.0000

> <Gold.PLP.part.metal>
0.0000

> <Gold.PLP.part.buried>
-6.0469

> <Gold.PLP.part.nonpolar>
-21.4127

> <Gold.PLP.part.repulsive>
0.0327

> <Gold.PLP.ligand.clash>
0.0000

> <Gold.PLP.ligand.torsion>
1.1749

> <Gold.PLP.Chemscore.Hbond>
3.9500

> <Gold.PLP.Chemscore.CHOScore>
0.0000

> <Gold.PLP.Chemscore.Metal>
0.0000

> <Gold.Chemscore.Hbonds>
donor molecule, donor type, donor heavy atom, donor atom, acceptor molecule, acceptor atom, score
      L1  H     9    29       P1  7948  0.95
      L1  H    16    46       P1 10747  1.00
      P1  H  6896  6907       L1     4  1.00
      P1  H  7997  8008       L1     3  1.00

> <Gold.PLP.Chemscore.Internal.Correction>
2.0207

> <Gold.Rescore>
     Score         DG    S(hbond)    S(metal)    S(lipo)     H(rot)  DE(clash)    DE(int)     intcor
     19.78     -22.38       3.30        0.00      72.02       1.00       0.04       2.56       ----

> <Gold.Chemscore.Fitness>
19.7790

> <Gold.Chemscore.DG>
-22.3799

> <Gold.Chemscore.ZeroCoef>
-5.4800

> <Gold.Chemscore.Hbond>
3.3035

> <Gold.Chemscore.Metal>
0.0000

> <Gold.Chemscore.Lipo>
72.0185

> <Gold.Chemscore.Internal_Hbond>
0.0000

> <Gold.Chemscore.DEClash>
0.0424

> <Gold.Chemscore.DEInternal>
2.5584

> <Gold.Chemscore.Rot>
1.0000

> <Gold.Chemscore.Internal.Correction>
   9.000000E+99

> <Gold.Chemscore.Hbonds>
donor molecule, donor type, donor heavy atom, donor atom, acceptor molecule, acceptor atom, score
      L1  H     9    29       P1  7948  0.22
      L1  H    16    46       P1 10747  1.00
      P1  H  6896  6907       L1     4  0.91
      P1  H  7997  8008       L1     3  0.95

> <Gold.Chemscore.Hbond.Weighted>
-11.0337

> <Gold.Chemscore.Metal.Weighted>
-0.0000

> <Gold.Chemscore.Lipo.Weighted>
-8.4262

> <Gold.Chemscore.Internal_Hbond.Weighted>
0.0000

> <Gold.Chemscore.DEClash.Weighted>
0.0424

> <Gold.Chemscore.DEInternal.Weighted>
2.5584

> <Gold.Chemscore.Rot.Weighted>
2.5600

> <Gold.Chemscore.Internal.Correction.Weighted>
   9.000000E+99

> <Gold.Protein.RotatedTorsions>
[ 6907 6896 6895 6894 ] final   32.51 input  -60.11 | X-H torsion
[ 7974 7965 7964 7962 ] final -119.70 input  175.53 | X-H torsion
[ 8008 7997 7996 7995 ] final  -87.15 input   59.86 | X-H torsion
[ 10167 10162 10161 10158 ] final -118.95 input  -65.29 | X-H torsion
[ 10718 10713 10712 10709 ] final  -64.68 input   66.30 | X-H torsion
[ 10763 10752 10751 10750 ] final  169.90 input  -60.55 | X-H torsion
[ 11005 11000 10999 10996 ] final  112.99 input  -57.11 | X-H torsion

> <Gold.Protein.ActiveResidues>
 VAL166  LYS551  ARG553  GLY616  TRP617  ASP618  TYR619  PRO620  LYS621  CYS622 
 ASP623  PHE694  ASN695  SER759  ASP760  ASP761  ALA762  ILE779  LEU786  VAL792 
 PHE793  MET794  SER795  GLU796  ALA797  LYS798  CYS799  TRP800  GLU811  SER814 

> <Gold.Protein.RotatedAtoms>
  152.0755  134.9505  160.0573 H   0  0  0  0  0  0  0  0  0  0  0  0  # atno 6907 bound_to 6896
  152.0815  133.4150  159.4511 H   0  0  0  0  0  0  0  0  0  0  0  0  # atno 6908 bound_to 6896
  150.6836  134.2897  159.4705 H   0  0  0  0  0  0  0  0  0  0  0  0  # atno 6909 bound_to 6896
  145.0596  140.8280  143.4160 H   0  0  0  0  0  0  0  0  0  0  0  0  # atno 7974 bound_to 7965
  154.6599  140.0569  157.0051 H   0  0  0  0  0  0  0  0  0  0  0  0  # atno 8008 bound_to 7997
  155.1244  140.3250  155.4471 H   0  0  0  0  0  0  0  0  0  0  0  0  # atno 8009 bound_to 7997
  156.2613  140.1992  156.6365 H   0  0  0  0  0  0  0  0  0  0  0  0  # atno 8010 bound_to 7997
  140.0519  143.5051  152.2077 H   0  0  0  0  0  0  0  0  0  0  0  0  # atno 10167 bound_to 10162
  156.0715  130.4237  150.1454 H   0  0  0  0  0  0  0  0  0  0  0  0  # atno 10718 bound_to 10713
  154.3899  135.2754  155.2161 H   0  0  0  0  0  0  0  0  0  0  0  0  # atno 10763 bound_to 10752
  154.4232  135.5995  153.6026 H   0  0  0  0  0  0  0  0  0  0  0  0  # atno 10764 bound_to 10752
  152.9832  135.5977  154.4152 H   0  0  0  0  0  0  0  0  0  0  0  0  # atno 10765 bound_to 10752
  139.8941  134.9541  156.6671 H   0  0  0  0  0  0  0  0  0  0  0  0  # atno 11005 bound_to 11000
  145.1426  139.2563  143.5482 LP  0  0  0  0  0  0  0  0  0  0  0  0  # atno 17320 bound_to 7965
  146.3523  140.1107  142.8604 LP  0  0  0  0  0  0  0  0  0  0  0  0  # atno 17321 bound_to 7965
  139.5947  144.7563  151.3314 LP  0  0  0  0  0  0  0  0  0  0  0  0  # atno 17342 bound_to 10162
  140.7212  143.7129  150.7755 LP  0  0  0  0  0  0  0  0  0  0  0  0  # atno 17343 bound_to 10162
  156.9504  130.9773  151.3499 LP  0  0  0  0  0  0  0  0  0  0  0  0  # atno 17370 bound_to 10713
  157.5788  130.8361  149.8493 LP  0  0  0  0  0  0  0  0  0  0  0  0  # atno 17371 bound_to 10713
  140.7402  133.8984  155.8273 LP  0  0  0  0  0  0  0  0  0  0  0  0  # atno 17394 bound_to 11000
  141.0083  134.1055  157.4247 LP  0  0  0  0  0  0  0  0  0  0  0  0  # atno 17395 bound_to 11000

$$$$
