AV-unprocessed.smi:686|AV-procd|sdf|3347|dock9
  -GOLD-   22720 0323D 1   1.00000     0.00000
 Structure written by MMmdl.
 40 41  0  0  0  0  0  0  0  0  3 V2000
  147.0937  140.7312  153.2657 C   0  0  0  0  0  0  0  0  0  0  0  0
  147.3708  139.2155  153.2424 C   0  0  2  0  0  0  0  0  0  0  0  0
  146.4623  138.4476  152.2803 C   0  0  0  0  0  0  0  0  0  0  0  0
  146.5671  137.0339  152.7032 N   0  3  2  0  0  0  0  0  0  0  0  0
  145.4681  136.1379  152.2428 C   0  0  0  0  0  0  0  0  0  0  0  0
  145.5594  135.8800  150.7268 C   0  0  0  0  0  0  0  0  0  0  0  0
  144.0817  136.7159  152.5841 C   0  0  0  0  0  0  0  0  0  0  0  0
  146.8130  137.0358  154.1674 C   0  0  0  0  0  0  0  0  0  0  0  0
  147.1514  138.4822  154.5760 C   0  0  1  0  0  0  0  0  0  0  0  0
  148.3399  138.5484  155.4178 N   0  5  0  0  0  0  0  0  0  0  0  0
  148.5595  139.7597  156.4829 S   0  0  0  0  0  0  0  0  0  0  0  0
  147.3767  140.6223  156.6487 O   0  0  0  0  0  0  0  0  0  0  0  0
  149.1900  139.2670  157.7166 O   0  0  0  0  0  0  0  0  0  0  0  0
  149.8492  140.7904  155.6461 C   0  0  0  0  0  0  0  0  0  0  0  0
  151.0837  139.9698  155.3945 C   0  0  0  0  0  0  0  0  0  0  0  0
  151.2473  138.8585  154.5212 C   0  0  0  0  0  0  0  0  0  0  0  0
  152.5542  138.5053  154.6944 C   0  0  0  0  0  0  0  0  0  0  0  0
  153.1495  139.3179  155.6033 O   0  0  0  0  0  0  0  0  0  0  0  0
  152.2020  140.2473  156.0472 N   0  0  0  0  0  0  0  0  0  0  0  0
  146.0675  140.9611  153.5587 H   0  0  0  0  0  0  0  0  0  0  0  0
  147.2499  141.1616  152.2764 H   0  0  0  0  0  0  0  0  0  0  0  0
  147.7625  141.2545  153.9515 H   0  0  0  0  0  0  0  0  0  0  0  0
  148.4007  139.0580  152.9145 H   0  0  0  0  0  0  0  0  0  0  0  0
  145.4258  138.7882  152.3549 H   0  0  0  0  0  0  0  0  0  0  0  0
  146.7779  138.5756  151.2442 H   0  0  0  0  0  0  0  0  0  0  0  0
  145.5724  135.1826  152.7597 H   0  0  0  0  0  0  0  0  0  0  0  0
  144.7419  135.2421  150.3895 H   0  0  0  0  0  0  0  0  0  0  0  0
  146.4863  135.3778  150.4498 H   0  0  0  0  0  0  0  0  0  0  0  0
  145.5045  136.8119  150.1631 H   0  0  0  0  0  0  0  0  0  0  0  0
  143.2872  136.0750  152.2007 H   0  0  0  0  0  0  0  0  0  0  0  0
  143.9459  137.7058  152.1471 H   0  0  0  0  0  0  0  0  0  0  0  0
  143.9262  136.7988  153.6597 H   0  0  0  0  0  0  0  0  0  0  0  0
  145.9348  136.7018  154.7221 H   0  0  0  0  0  0  0  0  0  0  0  0
  147.6214  136.3355  154.3838 H   0  0  0  0  0  0  0  0  0  0  0  0
  146.2760  138.9147  155.0624 H   0  0  0  0  0  0  0  0  0  0  0  0
  149.4285  141.1669  154.7130 H   0  0  0  0  0  0  0  0  0  0  0  0
  150.0800  141.6481  156.2766 H   0  0  0  0  0  0  0  0  0  0  0  0
  150.5217  138.3999  153.8659 H   0  0  0  0  0  0  0  0  0  0  0  0
  153.1778  137.7349  154.2657 H   0  0  0  0  0  0  0  0  0  0  0  0
  147.4217  136.6915  152.2883 H   0  0  0  0  0  0  0  0  0  0  0  0
  1  2  1  0  0  0  0
  1 20  1  0  0  0  0
  1 21  1  0  0  0  0
  1 22  1  0  0  0  0
  2  9  1  0  0  0  0
  2  3  1  0  0  0  0
  2 23  1  0  0  0  0
  3  4  1  0  0  0  0
  3 24  1  0  0  0  0
  3 25  1  0  0  0  0
  4  5  1  0  0  0  0
  4  8  1  0  0  0  0
  4 40  1  0  0  0  0
  5  6  1  0  0  0  0
  5  7  1  0  0  0  0
  5 26  1  0  0  0  0
  6 27  1  0  0  0  0
  6 28  1  0  0  0  0
  6 29  1  0  0  0  0
  7 30  1  0  0  0  0
  7 31  1  0  0  0  0
  7 32  1  0  0  0  0
  8  9  1  0  0  0  0
  8 33  1  0  0  0  0
  8 34  1  0  0  0  0
  9 10  1  0  0  0  0
  9 35  1  0  0  0  0
 10 11  1  0  0  0  0
 11 12  2  0  0  0  0
 11 13  2  0  0  0  0
 11 14  1  0  0  0  0
 14 15  1  0  0  0  0
 14 36  1  0  0  0  0
 14 37  1  0  0  0  0
 15 19  2  0  0  0  0
 15 16  1  0  0  0  0
 16 17  2  0  0  0  0
 16 38  1  0  0  0  0
 17 18  1  0  0  0  0
 17 39  1  0  0  0  0
 18 19  1  0  0  0  0
M  CHG  1   4   1
M  CHG  1  10  -1
M  END
> <s_m_source_file>
AV-unprocessed.smi

> <i_m_source_file_index>
686

> <i_lp_mmshare_version>
43012

> <i_f3d_flags>
0

> <s_epik_input>
W0NIM11bQ0BASF0xW0NIMl1OKFtDSF0oW0NIM10pW0NIM10pW0NIMl1bQ0BIXTFbTkhdUyg9TykoPU8pW0NIMl1jMltjSF1bY0hdb24y

> <s_epik_cmdline>
J2VwaWtfcHl0aG9uJywgJy1waCcsICc3LjAnLCAnLXRuJywgJzgnLCAnLW1hJywgJzIwMCcsICctbWV0YWxfYmluZGluZycsICctaW1hZScsICc8aW5maWxlLm1hZT4nLCAnLW9tYWUnLCAnPG91dGZpbGUubWFlPic=

> <r_epik_Ionization_Penalty>
3.62478

> <r_epik_Ionization_Penalty_Charging>
3.62478

> <r_epik_Ionization_Penalty_Neutral>
2.03645e-10

> <r_epik_State_Penalty>
3.6247

> <r_epik_Charging_Adjusted_Penalty>
7.24949

> <i_epik_Tot_Q>
0

> <i_epik_Tot_abs_Q>
2

> <r_epik_Metal_State_Penalty>
0.530836

> <b_epik_Metal_Only>
1

> <s_lp_Force_Field>
OPLS_2005

> <r_lp_Energy>
16.7108

> <b_lp_Chiralities_Consistent>
1

> <s_lp_Variant>
AV-unprocessed.smi:686-11

> <Gold.Version>
5.8.1

> <Gold.Id.Protein>
6NUR|6NUR_protein|mol2

> <Gold.PLP.Fitness>
37.9771

> <Gold.PLP.PLP>
-30.1210

> <Gold.PLP.part.hbond>
-2.7868

> <Gold.PLP.part.metal>
0.0000

> <Gold.PLP.part.buried>
-1.4078

> <Gold.PLP.part.nonpolar>
-25.8977

> <Gold.PLP.part.repulsive>
0.1095

> <Gold.PLP.ligand.clash>
0.0000

> <Gold.PLP.ligand.torsion>
1.0849

> <Gold.PLP.Chemscore.Hbond>
2.9920

> <Gold.PLP.Chemscore.CHOScore>
0.0000

> <Gold.PLP.Chemscore.Metal>
0.0000

> <Gold.Chemscore.Hbonds>
donor molecule, donor type, donor heavy atom, donor atom, acceptor molecule, acceptor atom, score
      L1  H     4    40       P1  7948  2.00
      P1  H  7997  8008       L1    18  0.99

> <Gold.PLP.Chemscore.Internal.Correction>
1.0499

> <Gold.Rescore>
     Score         DG    S(hbond)    S(metal)    S(lipo)     H(rot)  DE(clash)    DE(int)     intcor
     14.61     -15.75       1.78        0.00      72.41       1.61       0.07       1.07       ----

> <Gold.Chemscore.Fitness>
14.6093

> <Gold.Chemscore.DG>
-15.7472

> <Gold.Chemscore.ZeroCoef>
-5.4800

> <Gold.Chemscore.Hbond>
1.7753

> <Gold.Chemscore.Metal>
0.0000

> <Gold.Chemscore.Lipo>
72.4090

> <Gold.Chemscore.Internal_Hbond>
0.0000

> <Gold.Chemscore.DEClash>
0.0661

> <Gold.Chemscore.DEInternal>
1.0718

> <Gold.Chemscore.Rot>
1.6149

> <Gold.Chemscore.Internal.Correction>
   9.000000E+99

> <Gold.Chemscore.Hbonds>
donor molecule, donor type, donor heavy atom, donor atom, acceptor molecule, acceptor atom, score
      L1  H     4    40       P1  7948  1.00
      P1  H  7997  8008       L1    18  0.24

> <Gold.Chemscore.Hbond.Weighted>
-5.9295

> <Gold.Chemscore.Metal.Weighted>
-0.0000

> <Gold.Chemscore.Lipo.Weighted>
-8.4719

> <Gold.Chemscore.Internal_Hbond.Weighted>
0.0000

> <Gold.Chemscore.DEClash.Weighted>
0.0661

> <Gold.Chemscore.DEInternal.Weighted>
1.0718

> <Gold.Chemscore.Rot.Weighted>
4.1341

> <Gold.Chemscore.Internal.Correction.Weighted>
   9.000000E+99

> <Gold.Protein.RotatedTorsions>
[ 6907 6896 6895 6894 ] final  -96.31 input  -60.11 | X-H torsion
[ 7974 7965 7964 7962 ] final  170.59 input  175.53 | X-H torsion
[ 8008 7997 7996 7995 ] final   -8.95 input   59.86 | X-H torsion
[ 10167 10162 10161 10158 ] final -150.15 input  -65.29 | X-H torsion
[ 10718 10713 10712 10709 ] final   40.10 input   66.30 | X-H torsion
[ 10763 10752 10751 10750 ] final   94.36 input  -60.55 | X-H torsion
[ 11005 11000 10999 10996 ] final -122.59 input  -57.11 | X-H torsion

> <Gold.Protein.ActiveResidues>
 VAL166  LYS551  ARG553  GLY616  TRP617  ASP618  TYR619  PRO620  LYS621  CYS622 
 ASP623  PHE694  ASN695  SER759  ASP760  ASP761  ALA762  ILE779  LEU786  VAL792 
 PHE793  MET794  SER795  GLU796  ALA797  LYS798  CYS799  TRP800  GLU811  SER814 

> <Gold.Protein.RotatedAtoms>
  150.6985  134.1522  159.4144 H   0  0  0  0  0  0  0  0  0  0  0  0  # atno 6907 bound_to 6896
  151.9504  135.0169  160.0551 H   0  0  0  0  0  0  0  0  0  0  0  0  # atno 6908 bound_to 6896
  152.2015  133.4810  159.5098 H   0  0  0  0  0  0  0  0  0  0  0  0  # atno 6909 bound_to 6896
  144.7319  139.9224  143.6421 H   0  0  0  0  0  0  0  0  0  0  0  0  # atno 7974 bound_to 7965
  154.5692  140.2368  155.8217 H   0  0  0  0  0  0  0  0  0  0  0  0  # atno 8008 bound_to 7997
  156.2093  140.3030  155.9655 H   0  0  0  0  0  0  0  0  0  0  0  0  # atno 8009 bound_to 7997
  155.2743  140.0419  157.3000 H   0  0  0  0  0  0  0  0  0  0  0  0  # atno 8010 bound_to 7997
  139.7380  143.8706  152.2554 H   0  0  0  0  0  0  0  0  0  0  0  0  # atno 10167 bound_to 10162
  157.3783  130.7739  149.7172 H   0  0  0  0  0  0  0  0  0  0  0  0  # atno 10718 bound_to 10713
  153.2408  135.4292  155.0695 H   0  0  0  0  0  0  0  0  0  0  0  0  # atno 10763 bound_to 10752
  154.8339  135.3402  154.6653 H   0  0  0  0  0  0  0  0  0  0  0  0  # atno 10764 bound_to 10752
  153.7076  135.7024  153.5102 H   0  0  0  0  0  0  0  0  0  0  0  0  # atno 10765 bound_to 10752
  140.9983  134.0439  157.3569 H   0  0  0  0  0  0  0  0  0  0  0  0  # atno 11005 bound_to 11000
  146.0919  139.3909  143.0400 LP  0  0  0  0  0  0  0  0  0  0  0  0  # atno 17320 bound_to 7965
  145.7699  140.9901  143.1155 LP  0  0  0  0  0  0  0  0  0  0  0  0  # atno 17321 bound_to 7965
  139.8648  144.7098  150.9056 LP  0  0  0  0  0  0  0  0  0  0  0  0  # atno 17342 bound_to 10162
  140.7781  143.3787  151.1516 LP  0  0  0  0  0  0  0  0  0  0  0  0  # atno 17343 bound_to 10162
  155.9770  130.4068  150.3741 LP  0  0  0  0  0  0  0  0  0  0  0  0  # atno 17370 bound_to 10713
  157.1842  131.0399  151.2733 LP  0  0  0  0  0  0  0  0  0  0  0  0  # atno 17371 bound_to 10713
  139.9026  135.0169  156.7339 LP  0  0  0  0  0  0  0  0  0  0  0  0  # atno 17394 bound_to 11000
  140.6930  133.9373  155.7978 LP  0  0  0  0  0  0  0  0  0  0  0  0  # atno 17395 bound_to 11000

$$$$
