AV-unprocessed.smi:1041|AV-procd|sdf|4533|dock3
  -GOLD-   22720 2553D 1   1.00000     0.00000
 Structure written by MMmdl.
 52 53  0  0  0  0  0  0  0  0  3 V2000
  144.0756  132.5114  149.8038 C   0  0  0  0  0  0  0  0  0  0  0  0
  144.1217  133.4690  150.8472 O   0  0  0  0  0  0  0  0  0  0  0  0
  145.3865  134.1019  150.9503 C   0  0  0  0  0  0  0  0  0  0  0  0
  146.3688  133.1413  151.6376 C   0  0  0  0  0  0  0  0  0  0  0  0
  147.3000  133.8438  152.5569 N   0  3  2  0  0  0  0  0  0  0  0  0
  148.3806  132.9525  153.0494 C   0  0  0  0  0  0  0  0  0  0  0  0
  149.4093  133.7353  153.8792 C   0  0  0  0  0  0  0  0  0  0  0  0
  148.7404  134.4635  155.0639 C   0  0  1  0  0  0  0  0  0  0  0  0
  149.7358  135.2764  155.9177 C   0  0  0  0  0  0  0  0  0  0  0  0
  150.2301  136.4247  155.1693 N   0  0  0  0  0  0  0  0  0  0  0  0
  151.3411  137.1226  155.4477 C   0  0  0  0  0  0  0  0  0  0  0  0
  152.2103  136.7462  156.2333 O   0  0  0  0  0  0  0  0  0  0  0  0
  151.4413  138.4939  154.7813 C   0  0  0  0  0  0  0  0  0  0  0  0
  151.2361  139.6607  155.7480 C   0  0  0  0  0  0  0  0  0  0  0  0
  150.2914  140.6274  155.5656 C   0  0  0  0  0  0  0  0  0  0  0  0
  149.3195  140.6250  154.3988 C   0  0  0  0  0  0  0  0  0  0  0  0
  150.1772  141.7092  156.4550 N   0  0  0  0  0  0  0  0  0  0  0  0
  150.9826  141.7999  157.4433 C   0  0  0  0  0  0  0  0  0  0  0  0
  150.8553  142.9692  158.3962 C   0  0  0  0  0  0  0  0  0  0  0  0
  151.9778  140.8867  157.7096 N   0  5  0  0  0  0  0  0  0  0  0  0
  152.1404  139.7990  156.9046 C   0  0  0  0  0  0  0  0  0  0  0  0
  153.0175  138.9606  157.1098 O   0  0  0  0  0  0  0  0  0  0  0  0
  147.6061  135.3501  154.5242 C   0  0  0  0  0  0  0  0  0  0  0  0
  146.6119  134.5356  153.6795 C   0  0  0  0  0  0  0  0  0  0  0  0
  143.0846  132.0596  149.7653 H   0  0  0  0  0  0  0  0  0  0  0  0
  144.8026  131.7146  149.9675 H   0  0  0  0  0  0  0  0  0  0  0  0
  144.2728  132.9722  148.8350 H   0  0  0  0  0  0  0  0  0  0  0  0
  145.7460  134.4095  149.9683 H   0  0  0  0  0  0  0  0  0  0  0  0
  145.2893  135.0076  151.5508 H   0  0  0  0  0  0  0  0  0  0  0  0
  145.8277  132.3684  152.1855 H   0  0  0  0  0  0  0  0  0  0  0  0
  146.9347  132.6259  150.8601 H   0  0  0  0  0  0  0  0  0  0  0  0
  147.9497  132.1465  153.6456 H   0  0  0  0  0  0  0  0  0  0  0  0
  148.8890  132.4851  152.2051 H   0  0  0  0  0  0  0  0  0  0  0  0
  150.1688  133.0386  154.2328 H   0  0  0  0  0  0  0  0  0  0  0  0
  149.9254  134.4559  153.2435 H   0  0  0  0  0  0  0  0  0  0  0  0
  148.2935  133.7065  155.7109 H   0  0  0  0  0  0  0  0  0  0  0  0
  149.2702  135.5794  156.8566 H   0  0  0  0  0  0  0  0  0  0  0  0
  150.5918  134.6558  156.1837 H   0  0  0  0  0  0  0  0  0  0  0  0
  149.5967  136.8220  154.4894 H   0  0  0  0  0  0  0  0  0  0  0  0
  152.4201  138.5814  154.3095 H   0  0  0  0  0  0  0  0  0  0  0  0
  150.7295  138.5459  153.9564 H   0  0  0  0  0  0  0  0  0  0  0  0
  148.6923  139.7336  154.4244 H   0  0  0  0  0  0  0  0  0  0  0  0
  149.8580  140.6460  153.4514 H   0  0  0  0  0  0  0  0  0  0  0  0
  148.6636  141.4959  154.4290 H   0  0  0  0  0  0  0  0  0  0  0  0
  150.4121  142.6405  159.3365 H   0  0  0  0  0  0  0  0  0  0  0  0
  150.2243  143.7525  157.9738 H   0  0  0  0  0  0  0  0  0  0  0  0
  151.8348  143.3998  158.6067 H   0  0  0  0  0  0  0  0  0  0  0  0
  147.0782  135.8250  155.3520 H   0  0  0  0  0  0  0  0  0  0  0  0
  148.0221  136.1576  153.9199 H   0  0  0  0  0  0  0  0  0  0  0  0
  145.8436  135.2073  153.2990 H   0  0  0  0  0  0  0  0  0  0  0  0
  146.1047  133.7996  154.3056 H   0  0  0  0  0  0  0  0  0  0  0  0
  147.7576  134.5558  152.0052 H   0  0  0  0  0  0  0  0  0  0  0  0
  1  2  1  0  0  0  0
  1 25  1  0  0  0  0
  1 26  1  0  0  0  0
  1 27  1  0  0  0  0
  2  3  1  0  0  0  0
  3  4  1  0  0  0  0
  3 28  1  0  0  0  0
  3 29  1  0  0  0  0
  4  5  1  0  0  0  0
  4 30  1  0  0  0  0
  4 31  1  0  0  0  0
  5 24  1  0  0  0  0
  5  6  1  0  0  0  0
  5 52  1  0  0  0  0
  6  7  1  0  0  0  0
  6 32  1  0  0  0  0
  6 33  1  0  0  0  0
  7  8  1  0  0  0  0
  7 34  1  0  0  0  0
  7 35  1  0  0  0  0
  8  9  1  0  0  0  0
  8 23  1  0  0  0  0
  8 36  1  0  0  0  0
  9 10  1  0  0  0  0
  9 37  1  0  0  0  0
  9 38  1  0  0  0  0
 10 11  1  0  0  0  0
 10 39  1  0  0  0  0
 11 12  2  0  0  0  0
 11 13  1  0  0  0  0
 13 14  1  0  0  0  0
 13 40  1  0  0  0  0
 13 41  1  0  0  0  0
 14 21  1  0  0  0  0
 14 15  2  0  0  0  0
 15 16  1  0  0  0  0
 15 17  1  0  0  0  0
 16 42  1  0  0  0  0
 16 43  1  0  0  0  0
 16 44  1  0  0  0  0
 17 18  2  0  0  0  0
 18 19  1  0  0  0  0
 18 20  1  0  0  0  0
 19 45  1  0  0  0  0
 19 46  1  0  0  0  0
 19 47  1  0  0  0  0
 20 21  1  0  0  0  0
 21 22  2  0  0  0  0
 23 24  1  0  0  0  0
 23 48  1  0  0  0  0
 23 49  1  0  0  0  0
 24 50  1  0  0  0  0
 24 51  1  0  0  0  0
M  CHG  1   5   1
M  CHG  1  20  -1
M  END
> <s_m_source_file>
AV-unprocessed.smi

> <i_m_source_file_index>
1041

> <i_lp_mmshare_version>
43012

> <i_f3d_flags>
0

> <s_epik_input>
W0NIM11PW0NIMl1bQ0gyXU4xW0NIMl1bQ0gyXVtDSF0oW0NIMl1bQ0gyXTEpW0NIMl1bTkhdQyg9TylbQ0gyXWMyYyhbQ0gzXSluYyhbQ0gzXSlbbkhdYzI9Tw==

> <s_epik_cmdline>
J2VwaWtfcHl0aG9uJywgJy1waCcsICc3LjAnLCAnLXRuJywgJzgnLCAnLW1hJywgJzIwMCcsICctbWV0YWxfYmluZGluZycsICctaW1hZScsICc8aW5maWxlLm1hZT4nLCAnLW9tYWUnLCAnPG91dGZpbGUubWFlPic=

> <r_lp_tautomer_probability>
0.839158

> <r_epik_Ionization_Penalty>
6.54961

> <r_epik_Ionization_Penalty_Charging>
0.00968647

> <r_epik_Ionization_Penalty_Neutral>
6.53992

> <r_epik_State_Penalty>
4.43892

> <r_epik_Charging_Adjusted_Penalty>
4.44861

> <i_epik_Tot_Q>
0

> <i_epik_Tot_abs_Q>
2

> <r_epik_Metal_State_Penalty>
0.818645

> <b_epik_Metal_Only>
1

> <s_lp_Force_Field>
OPLS_2005

> <r_lp_Energy>
18.5529

> <b_lp_Chiralities_Consistent>
1

> <s_lp_Variant>
AV-unprocessed.smi:1041-6

> <Gold.Version>
5.8.1

> <Gold.Id.Protein>
6NUR|6NUR_protein|mol2

> <Gold.PLP.Fitness>
51.0529

> <Gold.PLP.PLP>
-40.1450

> <Gold.PLP.part.hbond>
-3.0000

> <Gold.PLP.part.metal>
0.0000

> <Gold.PLP.part.buried>
-3.4555

> <Gold.PLP.part.nonpolar>
-33.7030

> <Gold.PLP.part.repulsive>
0.3277

> <Gold.PLP.ligand.clash>
0.0000

> <Gold.PLP.ligand.torsion>
0.6386

> <Gold.PLP.Chemscore.Hbond>
3.9920

> <Gold.PLP.Chemscore.CHOScore>
0.0000

> <Gold.PLP.Chemscore.Metal>
0.0000

> <Gold.Chemscore.Hbonds>
donor molecule, donor type, donor heavy atom, donor atom, acceptor molecule, acceptor atom, score
      L1  H     5    52       P1  7948  2.00
      P1  H  7997  8008       L1    22  1.00
      P1  H 10752 10765       L1    12  1.00

> <Gold.PLP.Chemscore.Internal.Correction>
0.2091

> <Gold.Rescore>
     Score         DG    S(hbond)    S(metal)    S(lipo)     H(rot)  DE(clash)    DE(int)     intcor
     13.24     -15.74       2.13        0.00      78.37       2.35       0.03       2.47       ----

> <Gold.Chemscore.Fitness>
13.2391

> <Gold.Chemscore.DG>
-15.7395

> <Gold.Chemscore.ZeroCoef>
-5.4800

> <Gold.Chemscore.Hbond>
2.1291

> <Gold.Chemscore.Metal>
0.0000

> <Gold.Chemscore.Lipo>
78.3719

> <Gold.Chemscore.Internal_Hbond>
0.0000

> <Gold.Chemscore.DEClash>
0.0310

> <Gold.Chemscore.DEInternal>
2.4694

> <Gold.Chemscore.Rot>
2.3520

> <Gold.Chemscore.Internal.Correction>
   9.000000E+99

> <Gold.Chemscore.Hbonds>
donor molecule, donor type, donor heavy atom, donor atom, acceptor molecule, acceptor atom, score
      L1  H     5    52       P1  7948  0.36
      P1  H  7997  8008       L1    22  0.29
      P1  H 10752 10765       L1    12  0.38

> <Gold.Chemscore.Hbond.Weighted>
-7.1111

> <Gold.Chemscore.Metal.Weighted>
-0.0000

> <Gold.Chemscore.Lipo.Weighted>
-9.1695

> <Gold.Chemscore.Internal_Hbond.Weighted>
0.0000

> <Gold.Chemscore.DEClash.Weighted>
0.0310

> <Gold.Chemscore.DEInternal.Weighted>
2.4694

> <Gold.Chemscore.Rot.Weighted>
6.0211

> <Gold.Chemscore.Internal.Correction.Weighted>
   9.000000E+99

> <Gold.Protein.RotatedTorsions>
[ 6907 6896 6895 6894 ] final  -56.81 input  -60.11 | X-H torsion
[ 7974 7965 7964 7962 ] final  -16.96 input  175.53 | X-H torsion
[ 8008 7997 7996 7995 ] final  -83.37 input   59.86 | X-H torsion
[ 10167 10162 10161 10158 ] final  -89.86 input  -65.29 | X-H torsion
[ 10718 10713 10712 10709 ] final -126.85 input   66.30 | X-H torsion
[ 10763 10752 10751 10750 ] final -140.11 input  -60.55 | X-H torsion
[ 11005 11000 10999 10996 ] final    0.76 input  -57.11 | X-H torsion

> <Gold.Protein.ActiveResidues>
 VAL166  LYS551  ARG553  GLY616  TRP617  ASP618  TYR619  PRO620  LYS621  CYS622 
 ASP623  PHE694  ASN695  SER759  ASP760  ASP761  ALA762  ILE779  LEU786  VAL792 
 PHE793  MET794  SER795  GLU796  ALA797  LYS798  CYS799  TRP800  GLU811  SER814 

> <Gold.Protein.RotatedAtoms>
  150.8137  134.7307  159.6710 H   0  0  0  0  0  0  0  0  0  0  0  0  # atno 6907 bound_to 6896
  152.4256  134.5870  159.9973 H   0  0  0  0  0  0  0  0  0  0  0  0  # atno 6908 bound_to 6896
  151.6073  133.3313  159.3096 H   0  0  0  0  0  0  0  0  0  0  0  0  # atno 6909 bound_to 6896
  146.1963  140.3711  142.8439 H   0  0  0  0  0  0  0  0  0  0  0  0  # atno 7974 bound_to 7965
  154.6184  140.0620  156.9583 H   0  0  0  0  0  0  0  0  0  0  0  0  # atno 8008 bound_to 7997
  155.1858  140.3303  155.4348 H   0  0  0  0  0  0  0  0  0  0  0  0  # atno 8009 bound_to 7997
  156.2417  140.1889  156.6951 H   0  0  0  0  0  0  0  0  0  0  0  0  # atno 8010 bound_to 7997
  140.3606  143.2844  151.9619 H   0  0  0  0  0  0  0  0  0  0  0  0  # atno 10167 bound_to 10162
  156.1803  130.6727  151.0296 H   0  0  0  0  0  0  0  0  0  0  0  0  # atno 10718 bound_to 10713
  154.8589  135.3562  154.5655 H   0  0  0  0  0  0  0  0  0  0  0  0  # atno 10763 bound_to 10752
  153.6269  135.7004  153.5294 H   0  0  0  0  0  0  0  0  0  0  0  0  # atno 10764 bound_to 10752
  153.3082  135.4186  155.1272 H   0  0  0  0  0  0  0  0  0  0  0  0  # atno 10765 bound_to 10752
  140.6229  133.9645  155.8234 H   0  0  0  0  0  0  0  0  0  0  0  0  # atno 11005 bound_to 11000
  144.8588  140.7109  143.6121 LP  0  0  0  0  0  0  0  0  0  0  0  0  # atno 17320 bound_to 7965
  145.3631  139.1677  143.4372 LP  0  0  0  0  0  0  0  0  0  0  0  0  # atno 17321 bound_to 7965
  139.4814  144.5996  151.7629 LP  0  0  0  0  0  0  0  0  0  0  0  0  # atno 17342 bound_to 10162
  140.5131  144.0995  150.6000 LP  0  0  0  0  0  0  0  0  0  0  0  0  # atno 17343 bound_to 10162
  157.6863  131.0823  150.7232 LP  0  0  0  0  0  0  0  0  0  0  0  0  # atno 17370 bound_to 10713
  156.7289  130.4703  149.5504 LP  0  0  0  0  0  0  0  0  0  0  0  0  # atno 17371 bound_to 10713
  141.0729  134.0178  157.3499 LP  0  0  0  0  0  0  0  0  0  0  0  0  # atno 17394 bound_to 11000
  139.9146  135.0195  156.7830 LP  0  0  0  0  0  0  0  0  0  0  0  0  # atno 17395 bound_to 11000

$$$$
