AV-unprocessed.smi:2673|AV-procd|sdf|10357|dock8
  -GOLD-   2272014383D 1   1.00000     0.00000
 Structure written by MMmdl.
 32 33  0  0  0  0  0  0  0  0  1 V2000
  142.7712  132.6521  161.5096 O   0  0  0  0  0  0  0  0  0  0  0  0
  143.2839  133.0509  160.4618 C   0  0  0  0  0  0  0  0  0  0  0  0
  143.1147  132.5559  159.1781 N   0  0  0  0  0  0  0  0  0  0  0  0
  142.6815  131.3479  158.9877 C   0  0  0  0  0  0  0  0  0  0  0  0
  142.5155  130.8368  157.7087 N   0  0  0  0  0  0  0  0  0  0  0  0
  142.0661  129.5992  157.5472 N   0  0  0  0  0  0  0  0  0  0  0  0
  141.8422  129.0411  158.6771 C   0  0  0  0  0  0  0  0  0  0  0  0
  142.1723  130.0145  160.1155 S   0  0  0  0  0  0  0  0  0  0  0  0
  144.1283  134.0959  160.4280 N   0  0  0  0  0  0  0  0  0  0  0  0
  144.6105  134.9620  161.5187 C   0  0  0  0  0  0  0  0  0  0  0  0
  143.4427  135.8415  162.0523 C   0  0  0  0  0  0  0  0  0  0  0  0
  142.5063  135.0806  162.6205 F   0  0  0  0  0  0  0  0  0  0  0  0
  143.8913  136.7015  162.9684 F   0  0  0  0  0  0  0  0  0  0  0  0
  142.8588  136.5368  161.0767 F   0  0  0  0  0  0  0  0  0  0  0  0
  145.2673  134.1489  162.6721 C   0  0  0  0  0  0  0  0  0  0  0  0
  146.5013  133.3480  162.2176 C   0  0  0  0  0  0  0  0  0  0  0  0
  147.5551  134.2706  161.5889 C   0  0  0  0  0  0  0  0  0  0  0  0
  146.9551  135.0977  160.4427 C   0  0  0  0  0  0  0  0  0  0  0  0
  145.7059  135.8750  160.9038 C   0  0  0  0  0  0  0  0  0  0  0  0
  141.4691  128.0285  158.8301 H   0  0  0  0  0  0  0  0  0  0  0  0
  144.4844  134.3361  159.5145 H   0  0  0  0  0  0  0  0  0  0  0  0
  145.5777  134.8362  163.4600 H   0  0  0  0  0  0  0  0  0  0  0  0
  144.5509  133.4806  163.1475 H   0  0  0  0  0  0  0  0  0  0  0  0
  146.9337  132.8211  163.0686 H   0  0  0  0  0  0  0  0  0  0  0  0
  146.2070  132.5805  161.5011 H   0  0  0  0  0  0  0  0  0  0  0  0
  147.9534  134.9411  162.3515 H   0  0  0  0  0  0  0  0  0  0  0  0
  148.3975  133.6821  161.2245 H   0  0  0  0  0  0  0  0  0  0  0  0
  147.7027  135.7940  160.0619 H   0  0  0  0  0  0  0  0  0  0  0  0
  146.7012  134.4397  159.6108 H   0  0  0  0  0  0  0  0  0  0  0  0
  145.3003  136.4376  160.0618 H   0  0  0  0  0  0  0  0  0  0  0  0
  146.0190  136.6200  161.6359 H   0  0  0  0  0  0  0  0  0  0  0  0
  142.7252  131.3877  156.8886 H   0  0  0  0  0  0  0  0  0  0  0  0
  1  2  2  0  0  0  0
  2  3  1  0  0  0  0
  2  9  1  0  0  0  0
  3  4  2  0  0  0  0
  4  8  1  0  0  0  0
  4  5  1  0  0  0  0
  5  6  1  0  0  0  0
  5 32  1  0  0  0  0
  6  7  2  0  0  0  0
  7  8  1  0  0  0  0
  7 20  1  0  0  0  0
  9 10  1  0  0  0  0
  9 21  1  0  0  0  0
 10 19  1  0  0  0  0
 10 11  1  0  0  0  0
 10 15  1  0  0  0  0
 11 12  1  0  0  0  0
 11 13  1  0  0  0  0
 11 14  1  0  0  0  0
 15 16  1  0  0  0  0
 15 22  1  0  0  0  0
 15 23  1  0  0  0  0
 16 17  1  0  0  0  0
 16 24  1  0  0  0  0
 16 25  1  0  0  0  0
 17 18  1  0  0  0  0
 17 26  1  0  0  0  0
 17 27  1  0  0  0  0
 18 19  1  0  0  0  0
 18 28  1  0  0  0  0
 18 29  1  0  0  0  0
 19 30  1  0  0  0  0
 19 31  1  0  0  0  0
M  END
> <s_m_source_file>
AV-unprocessed.smi

> <i_m_source_file_index>
2673

> <i_lp_mmshare_version>
43012

> <i_f3d_flags>
0

> <s_epik_input>
czFbY0hdbm5jMVtOSF1DKD1PKVtOSF1DMihDKEYpKEYpRilbQ0gyXVtDSDJdW0NIMl1bQ0gyXVtDSDJdMg==

> <s_epik_cmdline>
J2VwaWtfcHl0aG9uJywgJy1waCcsICc3LjAnLCAnLXRuJywgJzgnLCAnLW1hJywgJzIwMCcsICctbWV0YWxfYmluZGluZycsICctaW1hZScsICc8aW5maWxlLm1hZT4nLCAnLW9tYWUnLCAnPG91dGZpbGUubWFlPic=

> <r_epik_Ionization_Penalty>
1.69703

> <r_epik_Ionization_Penalty_Charging>
1.69675

> <r_epik_Ionization_Penalty_Neutral>
0.00027895

> <r_epik_State_Penalty>
1.84993

> <r_epik_Charging_Adjusted_Penalty>
3.54668

> <i_epik_Tot_Q>
0

> <i_epik_Tot_abs_Q>
0

> <r_epik_Metal_State_Penalty>
1.90085

> <b_epik_Metal_Only>
0

> <s_lp_Force_Field>
OPLS_2005

> <r_lp_Energy>
22.7267

> <b_lp_Chiralities_Consistent>
1

> <s_lp_Variant>
AV-unprocessed.smi:2673-3

> <Gold.Version>
5.8.1

> <Gold.Id.Protein>
6NUR|6NUR_protein|mol2

> <Gold.PLP.Fitness>
29.3929

> <Gold.PLP.PLP>
-26.7377

> <Gold.PLP.part.hbond>
-1.3119

> <Gold.PLP.part.metal>
0.0000

> <Gold.PLP.part.buried>
-5.1704

> <Gold.PLP.part.nonpolar>
-21.1680

> <Gold.PLP.part.repulsive>
1.2051

> <Gold.PLP.ligand.clash>
0.0000

> <Gold.PLP.ligand.torsion>
0.1879

> <Gold.PLP.Chemscore.Hbond>
1.0000

> <Gold.PLP.Chemscore.CHOScore>
0.0000

> <Gold.PLP.Chemscore.Metal>
0.0000

> <Gold.Chemscore.Hbonds>
donor molecule, donor type, donor heavy atom, donor atom, acceptor molecule, acceptor atom, score
      L1  H     5    32       P1 10957  0.98

> <Gold.PLP.Chemscore.Internal.Correction>
0.0310

> <Gold.Rescore>
     Score         DG    S(hbond)    S(metal)    S(lipo)     H(rot)  DE(clash)    DE(int)     intcor
      9.09     -11.68       0.67        0.00      55.76       1.00       0.16       2.43       ----

> <Gold.Chemscore.Fitness>
9.0875

> <Gold.Chemscore.DG>
-11.6771

> <Gold.Chemscore.ZeroCoef>
-5.4800

> <Gold.Chemscore.Hbond>
0.6685

> <Gold.Chemscore.Metal>
0.0000

> <Gold.Chemscore.Lipo>
55.7647

> <Gold.Chemscore.Internal_Hbond>
0.0000

> <Gold.Chemscore.DEClash>
0.1571

> <Gold.Chemscore.DEInternal>
2.4325

> <Gold.Chemscore.Rot>
1.0000

> <Gold.Chemscore.Internal.Correction>
   9.000000E+99

> <Gold.Chemscore.Hbonds>
donor molecule, donor type, donor heavy atom, donor atom, acceptor molecule, acceptor atom, score
      L1  H     5    32       P1 10957  0.30

> <Gold.Chemscore.Hbond.Weighted>
-2.2326

> <Gold.Chemscore.Metal.Weighted>
-0.0000

> <Gold.Chemscore.Lipo.Weighted>
-6.5245

> <Gold.Chemscore.Internal_Hbond.Weighted>
0.0000

> <Gold.Chemscore.DEClash.Weighted>
0.1571

> <Gold.Chemscore.DEInternal.Weighted>
2.4325

> <Gold.Chemscore.Rot.Weighted>
2.5600

> <Gold.Chemscore.Internal.Correction.Weighted>
   9.000000E+99

> <Gold.Protein.RotatedTorsions>
[ 6907 6896 6895 6894 ] final  108.43 input  -60.11 | X-H torsion
[ 7974 7965 7964 7962 ] final   84.66 input  175.53 | X-H torsion
[ 8008 7997 7996 7995 ] final -168.40 input   59.86 | X-H torsion
[ 10167 10162 10161 10158 ] final   91.70 input  -65.29 | X-H torsion
[ 10718 10713 10712 10709 ] final  114.37 input   66.30 | X-H torsion
[ 10763 10752 10751 10750 ] final  161.56 input  -60.55 | X-H torsion
[ 11005 11000 10999 10996 ] final  -53.58 input  -57.11 | X-H torsion

> <Gold.Protein.ActiveResidues>
 VAL166  LYS551  ARG553  GLY616  TRP617  ASP618  TYR619  PRO620  LYS621  CYS622 
 ASP623  PHE694  ASN695  SER759  ASP760  ASP761  ALA762  ILE779  LEU786  VAL792 
 PHE793  MET794  SER795  GLU796  ALA797  LYS798  CYS799  TRP800  GLU811  SER814 

> <Gold.Protein.RotatedAtoms>
  152.5112  133.9090  159.7478 H   0  0  0  0  0  0  0  0  0  0  0  0  # atno 6907 bound_to 6896
  150.9488  133.6564  159.2783 H   0  0  0  0  0  0  0  0  0  0  0  0  # atno 6908 bound_to 6896
  151.3850  135.0951  159.9561 H   0  0  0  0  0  0  0  0  0  0  0  0  # atno 6909 bound_to 6896
  145.5957  139.2344  143.2274 H   0  0  0  0  0  0  0  0  0  0  0  0  # atno 7974 bound_to 7965
  155.8909  140.1024  157.1419 H   0  0  0  0  0  0  0  0  0  0  0  0  # atno 8008 bound_to 7997
  154.4015  140.1311  156.4379 H   0  0  0  0  0  0  0  0  0  0  0  0  # atno 8009 bound_to 7997
  155.7534  140.3464  155.5164 H   0  0  0  0  0  0  0  0  0  0  0  0  # atno 8010 bound_to 7997
  139.8349  144.6669  150.9355 H   0  0  0  0  0  0  0  0  0  0  0  0  # atno 10167 bound_to 10162
  157.6285  131.0997  150.7175 H   0  0  0  0  0  0  0  0  0  0  0  0  # atno 10718 bound_to 10713
  154.2649  135.2767  155.2763 H   0  0  0  0  0  0  0  0  0  0  0  0  # atno 10763 bound_to 10752
  154.5352  135.5718  153.6796 H   0  0  0  0  0  0  0  0  0  0  0  0  # atno 10764 bound_to 10752
  152.9955  135.6237  154.2801 H   0  0  0  0  0  0  0  0  0  0  0  0  # atno 10765 bound_to 10752
  141.0983  133.6621  156.4193 H   0  0  0  0  0  0  0  0  0  0  0  0  # atno 11005 bound_to 11000
  146.1613  140.6783  142.9276 LP  0  0  0  0  0  0  0  0  0  0  0  0  # atno 17320 bound_to 7965
  144.7331  140.4731  143.6923 LP  0  0  0  0  0  0  0  0  0  0  0  0  # atno 17321 bound_to 7965
  140.7803  143.3967  151.1218 LP  0  0  0  0  0  0  0  0  0  0  0  0  # atno 17342 bound_to 10162
  139.7617  143.8625  152.3102 LP  0  0  0  0  0  0  0  0  0  0  0  0  # atno 17343 bound_to 10162
  156.7519  130.4771  149.5455 LP  0  0  0  0  0  0  0  0  0  0  0  0  # atno 17370 bound_to 10713
  156.1473  130.6286  151.0548 LP  0  0  0  0  0  0  0  0  0  0  0  0  # atno 17371 bound_to 10713
  140.5085  134.6417  157.5275 LP  0  0  0  0  0  0  0  0  0  0  0  0  # atno 17394 bound_to 11000
  139.9826  134.7112  155.9831 LP  0  0  0  0  0  0  0  0  0  0  0  0  # atno 17395 bound_to 11000

$$$$
