AV-unprocessed.smi:2837|AV-procd|sdf|10920|dock3
  -GOLD-   2272015363D 1   1.00000     0.00000
 Structure written by MMmdl.
 32 34  0  0  0  0  0  0  0  0  1 V2000
  151.1603  135.6720  154.1499 F   0  0  0  0  0  0  0  0  0  0  0  0
  151.2061  136.7208  155.0078 C   0  0  0  0  0  0  0  0  0  0  0  0
  152.2122  136.4872  155.8844 F   0  0  0  0  0  0  0  0  0  0  0  0
  151.4442  137.8768  154.3330 O   0  0  0  0  0  0  0  0  0  0  0  0
  151.1249  139.0797  154.9215 C   0  0  0  0  0  0  0  0  0  0  0  0
  150.1814  139.9906  154.3903 C   0  0  0  0  0  0  0  0  0  0  0  0
  149.9430  141.2017  155.0677 C   0  0  0  0  0  0  0  0  0  0  0  0
  150.6595  141.4729  156.2513 C   0  0  0  0  0  0  0  0  0  0  0  0
  150.4182  142.6824  156.9186 N   0  0  0  0  0  0  0  0  0  0  0  0
  150.8388  142.8915  158.2998 C   0  0  2  0  0  0  0  0  0  0  0  0
  150.3412  144.2172  158.8905 C   0  0  0  0  0  0  0  0  0  0  0  0
  151.6514  144.8755  159.3403 C   0  0  1  0  0  0  0  0  0  0  0  0
  152.2928  144.1470  160.5297 C   0  0  0  0  0  0  0  0  0  0  0  0
  152.8271  142.8775  159.8677 C   0  0  0  0  0  0  0  0  0  0  0  0
  152.3634  143.0593  158.4162 C   0  0  2  0  0  0  0  0  0  0  0  0
  152.5069  144.4650  158.2889 O   0  0  0  0  0  0  0  0  0  0  0  0
  151.5719  140.6112  156.7588 N   0  0  0  0  0  0  0  0  0  0  0  0
  151.7938  139.4511  156.1053 C   0  0  0  0  0  0  0  0  0  0  0  0
  150.2757  136.7689  155.5742 H   0  0  0  0  0  0  0  0  0  0  0  0
  149.6466  139.7797  153.4763 H   0  0  0  0  0  0  0  0  0  0  0  0
  149.2249  141.9090  154.6791 H   0  0  0  0  0  0  0  0  0  0  0  0
  149.9283  143.4276  156.4449 H   0  0  0  0  0  0  0  0  0  0  0  0
  150.5151  142.0410  158.9016 H   0  0  0  0  0  0  0  0  0  0  0  0
  149.8502  144.8345  158.1367 H   0  0  0  0  0  0  0  0  0  0  0  0
  149.6426  144.0727  159.7148 H   0  0  0  0  0  0  0  0  0  0  0  0
  151.5820  145.9561  159.4669 H   0  0  0  0  0  0  0  0  0  0  0  0
  153.1119  144.7318  160.9496 H   0  0  0  0  0  0  0  0  0  0  0  0
  151.5751  143.9416  161.3248 H   0  0  0  0  0  0  0  0  0  0  0  0
  153.9159  142.8467  159.9236 H   0  0  0  0  0  0  0  0  0  0  0  0
  152.4365  141.9655  160.3203 H   0  0  0  0  0  0  0  0  0  0  0  0
  152.9406  142.4754  157.6980 H   0  0  0  0  0  0  0  0  0  0  0  0
  152.5296  138.7935  156.5441 H   0  0  0  0  0  0  0  0  0  0  0  0
  1  2  1  0  0  0  0
  2  3  1  0  0  0  0
  2  4  1  0  0  0  0
  2 19  1  0  0  0  0
  4  5  1  0  0  0  0
  5 18  1  0  0  0  0
  5  6  2  0  0  0  0
  6  7  1  0  0  0  0
  6 20  1  0  0  0  0
  7  8  2  0  0  0  0
  7 21  1  0  0  0  0
  8  9  1  0  0  0  0
  8 17  1  0  0  0  0
  9 10  1  0  0  0  0
  9 22  1  0  0  0  0
 10 15  1  0  0  0  0
 10 11  1  0  0  0  0
 10 23  1  0  0  0  0
 11 12  1  0  0  0  0
 11 24  1  0  0  0  0
 11 25  1  0  0  0  0
 12 16  1  0  0  0  0
 12 13  1  0  0  0  0
 12 26  1  0  0  0  0
 13 14  1  0  0  0  0
 13 27  1  0  0  0  0
 13 28  1  0  0  0  0
 14 15  1  0  0  0  0
 14 29  1  0  0  0  0
 14 30  1  0  0  0  0
 15 16  1  0  0  0  0
 15 31  1  0  0  0  0
 17 18  2  0  0  0  0
 18 32  1  0  0  0  0
M  END
> <s_m_source_file>
AV-unprocessed.smi

> <i_m_source_file_index>
2837

> <i_lp_mmshare_version>
43012

> <i_f3d_flags>
0

> <s_epik_input>
RltDSF0oRilPYzFbY0hdW2NIXWMobltjSF0xKVtOSF1bQ0BIXShbQ0gyXVtDQEBIXTIzKVtDQEBIXShPMylbQ0gyXVtDSDJdMg==

> <s_epik_cmdline>
J2VwaWtfcHl0aG9uJywgJy1waCcsICc3LjAnLCAnLXRuJywgJzgnLCAnLW1hJywgJzIwMCcsICctbWV0YWxfYmluZGluZycsICctaW1hZScsICc8aW5maWxlLm1hZT4nLCAnLW9tYWUnLCAnPG91dGZpbGUubWFlPic=

> <r_lp_tautomer_probability>
1

> <r_epik_Ionization_Penalty>
0.0124072

> <r_epik_Ionization_Penalty_Charging>
0

> <r_epik_Ionization_Penalty_Neutral>
0.0124072

> <r_epik_State_Penalty>
0.00959565

> <r_epik_Charging_Adjusted_Penalty>
0.00959565

> <i_epik_Tot_Q>
0

> <i_epik_Tot_abs_Q>
0

> <r_epik_Metal_State_Penalty>
9.67369e-06

> <b_epik_Metal_Only>
0

> <s_lp_Force_Field>
OPLS_2005

> <r_lp_Energy>
39.7079

> <b_lp_Chiralities_Consistent>
1

> <s_lp_Variant>
AV-unprocessed.smi:2837-1

> <Gold.Version>
5.8.1

> <Gold.Id.Protein>
6NUR|6NUR_protein|mol2

> <Gold.PLP.Fitness>
40.1238

> <Gold.PLP.PLP>
-37.8049

> <Gold.PLP.part.hbond>
-1.0000

> <Gold.PLP.part.metal>
0.0000

> <Gold.PLP.part.buried>
-3.8149

> <Gold.PLP.part.nonpolar>
-32.6585

> <Gold.PLP.part.repulsive>
0.1856

> <Gold.PLP.ligand.clash>
0.0000

> <Gold.PLP.ligand.torsion>
0.3582

> <Gold.PLP.Chemscore.Hbond>
1.0000

> <Gold.PLP.Chemscore.CHOScore>
0.0000

> <Gold.PLP.Chemscore.Metal>
0.0000

> <Gold.Chemscore.Hbonds>
donor molecule, donor type, donor heavy atom, donor atom, acceptor molecule, acceptor atom, score
      L1  H     9    22       P1  8028  1.00

> <Gold.PLP.Chemscore.Internal.Correction>
0.0353

> <Gold.Rescore>
     Score         DG    S(hbond)    S(metal)    S(lipo)     H(rot)  DE(clash)    DE(int)     intcor
     15.92     -16.37       1.00        0.00      93.44       1.32       0.03       0.42       ----

> <Gold.Chemscore.Fitness>
15.9195

> <Gold.Chemscore.DG>
-16.3691

> <Gold.Chemscore.ZeroCoef>
-5.4800

> <Gold.Chemscore.Hbond>
0.9997

> <Gold.Chemscore.Metal>
0.0000

> <Gold.Chemscore.Lipo>
93.4411

> <Gold.Chemscore.Internal_Hbond>
0.0000

> <Gold.Chemscore.DEClash>
0.0329

> <Gold.Chemscore.DEInternal>
0.4166

> <Gold.Chemscore.Rot>
1.3213

> <Gold.Chemscore.Internal.Correction>
   9.000000E+99

> <Gold.Chemscore.Hbonds>
donor molecule, donor type, donor heavy atom, donor atom, acceptor molecule, acceptor atom, score
      L1  H     9    22       P1  8028  1.00

> <Gold.Chemscore.Hbond.Weighted>
-3.3390

> <Gold.Chemscore.Metal.Weighted>
-0.0000

> <Gold.Chemscore.Lipo.Weighted>
-10.9326

> <Gold.Chemscore.Internal_Hbond.Weighted>
0.0000

> <Gold.Chemscore.DEClash.Weighted>
0.0329

> <Gold.Chemscore.DEInternal.Weighted>
0.4166

> <Gold.Chemscore.Rot.Weighted>
3.3825

> <Gold.Chemscore.Internal.Correction.Weighted>
   9.000000E+99

> <Gold.Protein.RotatedTorsions>
[ 6907 6896 6895 6894 ] final   96.72 input  -60.11 | X-H torsion
[ 7974 7965 7964 7962 ] final  157.04 input  175.53 | X-H torsion
[ 8008 7997 7996 7995 ] final   37.05 input   59.86 | X-H torsion
[ 10167 10162 10161 10158 ] final -169.89 input  -65.29 | X-H torsion
[ 10718 10713 10712 10709 ] final  115.40 input   66.30 | X-H torsion
[ 10763 10752 10751 10750 ] final  -81.59 input  -60.55 | X-H torsion
[ 11005 11000 10999 10996 ] final -178.40 input  -57.11 | X-H torsion

> <Gold.Protein.ActiveResidues>
 VAL166  LYS551  ARG553  GLY616  TRP617  ASP618  TYR619  PRO620  LYS621  CYS622 
 ASP623  PHE694  ASN695  SER759  ASP760  ASP761  ALA762  ILE779  LEU786  VAL792 
 PHE793  MET794  SER795  GLU796  ALA797  LYS798  CYS799  TRP800  GLU811  SER814 

> <Gold.Protein.RotatedAtoms>
  152.5432  134.0842  159.8248 H   0  0  0  0  0  0  0  0  0  0  0  0  # atno 6907 bound_to 6896
  151.0940  133.5287  159.2620 H   0  0  0  0  0  0  0  0  0  0  0  0  # atno 6908 bound_to 6896
  151.2067  135.0473  159.8948 H   0  0  0  0  0  0  0  0  0  0  0  0  # atno 6909 bound_to 6896
  144.7927  139.7285  143.6214 H   0  0  0  0  0  0  0  0  0  0  0  0  # atno 7974 bound_to 7965
  155.1975  140.3313  155.4348 H   0  0  0  0  0  0  0  0  0  0  0  0  # atno 8008 bound_to 7997
  156.2419  140.1899  156.7014 H   0  0  0  0  0  0  0  0  0  0  0  0  # atno 8009 bound_to 7997
  154.6164  140.0601  156.9545 H   0  0  0  0  0  0  0  0  0  0  0  0  # atno 8010 bound_to 7997
  139.5895  144.1245  152.1616 H   0  0  0  0  0  0  0  0  0  0  0  0  # atno 10167 bound_to 10162
  157.6224  131.1012  150.7324 H   0  0  0  0  0  0  0  0  0  0  0  0  # atno 10718 bound_to 10713
  154.5654  135.5621  153.7045 H   0  0  0  0  0  0  0  0  0  0  0  0  # atno 10763 bound_to 10752
  153.0031  135.6284  154.2188 H   0  0  0  0  0  0  0  0  0  0  0  0  # atno 10764 bound_to 10752
  154.2126  135.2873  155.2933 H   0  0  0  0  0  0  0  0  0  0  0  0  # atno 10765 bound_to 10752
  140.4302  134.6526  157.4708 H   0  0  0  0  0  0  0  0  0  0  0  0  # atno 11005 bound_to 11000
  146.2185  139.5592  142.9634 LP  0  0  0  0  0  0  0  0  0  0  0  0  # atno 17320 bound_to 7965
  145.5753  141.0389  143.2152 LP  0  0  0  0  0  0  0  0  0  0  0  0  # atno 17321 bound_to 7965
  140.0816  144.5695  150.7118 LP  0  0  0  0  0  0  0  0  0  0  0  0  # atno 17342 bound_to 10162
  140.7160  143.2545  151.4431 LP  0  0  0  0  0  0  0  0  0  0  0  0  # atno 17343 bound_to 10162
  156.7679  130.4819  149.5424 LP  0  0  0  0  0  0  0  0  0  0  0  0  # atno 17370 bound_to 10713
  156.1377  130.6222  151.0423 LP  0  0  0  0  0  0  0  0  0  0  0  0  # atno 17371 bound_to 10713
  140.0140  134.6648  155.9338 LP  0  0  0  0  0  0  0  0  0  0  0  0  # atno 17394 bound_to 11000
  141.1749  133.6539  156.4789 LP  0  0  0  0  0  0  0  0  0  0  0  0  # atno 17395 bound_to 11000

$$$$
