AV-unprocessed.smi:1803|AV-procd|sdf|7279|dock5
  -GOLD-   22720 8543D 1   1.00000     0.00000
 Structure written by MMmdl.
 36 38  0  0  0  0  0  0  0  0  2 V2000
  150.3079  134.2383  155.6833 O   0  0  0  0  0  0  0  0  0  0  0  0
  149.8699  134.8268  154.6965 C   0  0  0  0  0  0  0  0  0  0  0  0
  150.2573  136.0885  154.4106 N   0  0  0  0  0  0  0  0  0  0  0  0
  151.1520  136.9795  155.0729 C   0  0  0  0  0  0  0  0  0  0  0  0
  152.0014  136.6205  156.0495 N   0  0  0  0  0  0  0  0  0  0  0  0
  152.7597  137.6908  156.5034 N   0  0  0  0  0  0  0  0  0  0  0  0
  152.4599  138.8159  155.8483 C   0  0  0  0  0  0  0  0  0  0  0  0
  151.2222  138.6753  154.6128 S   0  0  0  0  0  0  0  0  0  0  0  0
  148.9949  134.2639  153.8471 N   0  0  0  0  0  0  0  0  0  0  0  0
  148.4376  132.9206  153.9644 C   0  0  2  0  0  0  0  0  0  0  0  0
  149.5028  131.8487  154.1629 C   0  0  0  0  0  0  0  0  0  0  0  0
  148.7599  130.5759  153.7546 C   0  0  0  0  0  0  0  0  0  0  0  0
  147.8278  130.9768  152.6756 N   0  3  1  0  0  0  0  0  0  0  0  0
  146.5375  130.2449  152.6714 C   0  0  0  0  0  0  0  0  0  0  0  0
  145.6455  130.7188  151.5089 C   0  0  0  0  0  0  0  0  0  0  0  0
  145.5121  132.2545  151.4350 C   0  0  0  0  0  0  0  0  0  0  0  0
  146.2641  132.9640  152.5716 C   0  0  0  0  0  0  0  0  0  0  0  0
  147.7225  132.4638  152.6816 C   0  0  1  0  0  0  0  0  0  0  0  0
  149.8559  136.4627  153.5627 H   0  0  0  0  0  0  0  0  0  0  0  0
  152.9724  139.7345  156.0932 H   0  0  0  0  0  0  0  0  0  0  0  0
  148.6890  134.8167  153.0584 H   0  0  0  0  0  0  0  0  0  0  0  0
  147.7499  132.8677  154.8113 H   0  0  0  0  0  0  0  0  0  0  0  0
  150.3476  132.0195  153.4935 H   0  0  0  0  0  0  0  0  0  0  0  0
  149.8815  131.8080  155.1848 H   0  0  0  0  0  0  0  0  0  0  0  0
  149.4344  129.7852  153.4254 H   0  0  0  0  0  0  0  0  0  0  0  0
  148.1977  130.1992  154.6107 H   0  0  0  0  0  0  0  0  0  0  0  0
  146.7271  129.1745  152.5839 H   0  0  0  0  0  0  0  0  0  0  0  0
  146.0252  130.3959  153.6230 H   0  0  0  0  0  0  0  0  0  0  0  0
  146.0566  130.3523  150.5675 H   0  0  0  0  0  0  0  0  0  0  0  0
  144.6585  130.2645  151.6010 H   0  0  0  0  0  0  0  0  0  0  0  0
  145.9045  132.6010  150.4780 H   0  0  0  0  0  0  0  0  0  0  0  0
  144.4603  132.5419  151.4509 H   0  0  0  0  0  0  0  0  0  0  0  0
  146.2473  134.0419  152.4087 H   0  0  0  0  0  0  0  0  0  0  0  0
  145.7374  132.7941  153.5117 H   0  0  0  0  0  0  0  0  0  0  0  0
  148.2836  132.8081  151.8110 H   0  0  0  0  0  0  0  0  0  0  0  0
  148.2838  130.7465  151.8042 H   0  0  0  0  0  0  0  0  0  0  0  0
  1  2  2  0  0  0  0
  2  3  1  0  0  0  0
  2  9  1  0  0  0  0
  3  4  1  0  0  0  0
  3 19  1  0  0  0  0
  4  8  1  0  0  0  0
  4  5  2  0  0  0  0
  5  6  1  0  0  0  0
  6  7  2  0  0  0  0
  7  8  1  0  0  0  0
  7 20  1  0  0  0  0
  9 10  1  0  0  0  0
  9 21  1  0  0  0  0
 10 18  1  0  0  0  0
 10 11  1  0  0  0  0
 10 22  1  0  0  0  0
 11 12  1  0  0  0  0
 11 23  1  0  0  0  0
 11 24  1  0  0  0  0
 12 13  1  0  0  0  0
 12 25  1  0  0  0  0
 12 26  1  0  0  0  0
 13 18  1  0  0  0  0
 13 14  1  0  0  0  0
 13 36  1  0  0  0  0
 14 15  1  0  0  0  0
 14 27  1  0  0  0  0
 14 28  1  0  0  0  0
 15 16  1  0  0  0  0
 15 29  1  0  0  0  0
 15 30  1  0  0  0  0
 16 17  1  0  0  0  0
 16 31  1  0  0  0  0
 16 32  1  0  0  0  0
 17 18  1  0  0  0  0
 17 33  1  0  0  0  0
 17 34  1  0  0  0  0
 18 35  1  0  0  0  0
M  CHG  1  13   1
M  END
> <s_m_source_file>
AV-unprocessed.smi

> <i_m_source_file_index>
1803

> <i_lp_mmshare_version>
43012

> <i_f3d_flags>
0

> <s_epik_input>
czFbY0hdbm5jMVtOSF1DKD1PKVtOSF1bQ0BIXShbQ0gyXVtDSDJdMilbQ0BASF0oTjIzKVtDSDJdW0NIMl1bQ0gyXVtDSDJdMw==

> <s_epik_cmdline>
J2VwaWtfcHl0aG9uJywgJy1waCcsICc3LjAnLCAnLXRuJywgJzgnLCAnLW1hJywgJzIwMCcsICctbWV0YWxfYmluZGluZycsICctaW1hZScsICc8aW5maWxlLm1hZT4nLCAnLW9tYWUnLCAnPG91dGZpbGUubWFlPic=

> <r_lp_tautomer_probability>
1

> <r_epik_Ionization_Penalty>
0.00213286

> <r_epik_Ionization_Penalty_Charging>
0.00107044

> <r_epik_Ionization_Penalty_Neutral>
0.00106242

> <r_epik_State_Penalty>
-0

> <r_epik_Charging_Adjusted_Penalty>
0.00107044

> <i_epik_Tot_Q>
1

> <i_epik_Tot_abs_Q>
1

> <r_epik_Metal_State_Penalty>
0.292783

> <b_epik_Metal_Only>
0

> <s_lp_Force_Field>
OPLS_2005

> <r_lp_Energy>
41.2334

> <b_lp_Chiralities_Consistent>
1

> <s_lp_Variant>
AV-unprocessed.smi:1803-1

> <Gold.Version>
5.8.1

> <Gold.Id.Protein>
6NUR|6NUR_protein|mol2

> <Gold.PLP.Fitness>
44.2002

> <Gold.PLP.PLP>
-32.4838

> <Gold.PLP.part.hbond>
-4.9324

> <Gold.PLP.part.metal>
0.0000

> <Gold.PLP.part.buried>
-2.2127

> <Gold.PLP.part.nonpolar>
-25.4256

> <Gold.PLP.part.repulsive>
0.1373

> <Gold.PLP.ligand.clash>
0.0000

> <Gold.PLP.ligand.torsion>
0.1458

> <Gold.PLP.Chemscore.Hbond>
4.0000

> <Gold.PLP.Chemscore.CHOScore>
0.0000

> <Gold.PLP.Chemscore.Metal>
0.0000

> <Gold.Chemscore.Hbonds>
donor molecule, donor type, donor heavy atom, donor atom, acceptor molecule, acceptor atom, score
      L1  H     3    19       P1  7948  1.00
      L1  H     9    21       P1  7948  1.00
      L1  H    13    36       P1 10747  1.00
      P1  H 10752 10765       L1     5  1.00

> <Gold.PLP.Chemscore.Internal.Correction>
0.0080

> <Gold.Rescore>
     Score         DG    S(hbond)    S(metal)    S(lipo)     H(rot)  DE(clash)    DE(int)     intcor
     18.74     -20.09       2.99        0.00      61.33       1.00       0.00       1.35       ----

> <Gold.Chemscore.Fitness>
18.7437

> <Gold.Chemscore.DG>
-20.0897

> <Gold.Chemscore.ZeroCoef>
-5.4800

> <Gold.Chemscore.Hbond>
2.9923

> <Gold.Chemscore.Metal>
0.0000

> <Gold.Chemscore.Lipo>
61.3275

> <Gold.Chemscore.Internal_Hbond>
0.0000

> <Gold.Chemscore.DEClash>
0.0000

> <Gold.Chemscore.DEInternal>
1.3459

> <Gold.Chemscore.Rot>
1.0000

> <Gold.Chemscore.Internal.Correction>
   9.000000E+99

> <Gold.Chemscore.Hbonds>
donor molecule, donor type, donor heavy atom, donor atom, acceptor molecule, acceptor atom, score
      L1  H     3    19       P1  7948  0.24
      L1  H     9    21       P1  7948  0.28
      L1  H    13    36       P1 10747  0.99
      P1  H 10752 10765       L1     5  0.19

> <Gold.Chemscore.Hbond.Weighted>
-9.9944

> <Gold.Chemscore.Metal.Weighted>
-0.0000

> <Gold.Chemscore.Lipo.Weighted>
-7.1753

> <Gold.Chemscore.Internal_Hbond.Weighted>
0.0000

> <Gold.Chemscore.DEClash.Weighted>
0.0000

> <Gold.Chemscore.DEInternal.Weighted>
1.3459

> <Gold.Chemscore.Rot.Weighted>
2.5600

> <Gold.Chemscore.Internal.Correction.Weighted>
   9.000000E+99

> <Gold.Protein.RotatedTorsions>
[ 6907 6896 6895 6894 ] final -154.07 input  -60.11 | X-H torsion
[ 7974 7965 7964 7962 ] final  -16.41 input  175.53 | X-H torsion
[ 8008 7997 7996 7995 ] final  142.55 input   59.86 | X-H torsion
[ 10167 10162 10161 10158 ] final  -11.93 input  -65.29 | X-H torsion
[ 10718 10713 10712 10709 ] final    7.16 input   66.30 | X-H torsion
[ 10763 10752 10751 10750 ] final -142.28 input  -60.55 | X-H torsion
[ 11005 11000 10999 10996 ] final  142.89 input  -57.11 | X-H torsion

> <Gold.Protein.ActiveResidues>
 VAL166  LYS551  ARG553  GLY616  TRP617  ASP618  TYR619  PRO620  LYS621  CYS622 
 ASP623  PHE694  ASN695  SER759  ASP760  ASP761  ALA762  ILE779  LEU786  VAL792 
 PHE793  MET794  SER795  GLU796  ALA797  LYS798  CYS799  TRP800  GLU811  SER814 

> <Gold.Protein.RotatedAtoms>
  151.2520  133.4345  159.2611 H   0  0  0  0  0  0  0  0  0  0  0  0  # atno 6907 bound_to 6896
  151.0609  134.9736  159.8270 H   0  0  0  0  0  0  0  0  0  0  0  0  # atno 6908 bound_to 6896
  152.5398  134.2470  159.8936 H   0  0  0  0  0  0  0  0  0  0  0  0  # atno 6909 bound_to 6896
  146.1989  140.3632  142.8430 H   0  0  0  0  0  0  0  0  0  0  0  0  # atno 7974 bound_to 7965
  156.2947  140.2286  156.4746 H   0  0  0  0  0  0  0  0  0  0  0  0  # atno 8008 bound_to 7997
  154.7905  140.0454  157.1218 H   0  0  0  0  0  0  0  0  0  0  0  0  # atno 8009 bound_to 7997
  154.9650  140.3059  155.5017 H   0  0  0  0  0  0  0  0  0  0  0  0  # atno 8010 bound_to 7997
  140.7150  143.5586  150.9220 H   0  0  0  0  0  0  0  0  0  0  0  0  # atno 10167 bound_to 10162
  156.9329  130.5832  149.5650 H   0  0  0  0  0  0  0  0  0  0  0  0  # atno 10718 bound_to 10713
  154.8515  135.3500  154.6003 H   0  0  0  0  0  0  0  0  0  0  0  0  # atno 10763 bound_to 10752
  153.6612  135.6989  153.5181 H   0  0  0  0  0  0  0  0  0  0  0  0  # atno 10764 bound_to 10752
  153.2816  135.4262  155.1041 H   0  0  0  0  0  0  0  0  0  0  0  0  # atno 10765 bound_to 10752
  140.0511  134.9255  157.1018 H   0  0  0  0  0  0  0  0  0  0  0  0  # atno 11005 bound_to 11000
  144.8639  140.7179  143.6089 LP  0  0  0  0  0  0  0  0  0  0  0  0  # atno 17320 bound_to 7965
  145.3552  139.1696  143.4413 LP  0  0  0  0  0  0  0  0  0  0  0  0  # atno 17321 bound_to 7965
  139.9312  143.6491  152.3076 LP  0  0  0  0  0  0  0  0  0  0  0  0  # atno 17342 bound_to 10162
  139.6943  144.7643  151.1384 LP  0  0  0  0  0  0  0  0  0  0  0  0  # atno 17343 bound_to 10162
  156.0439  130.5518  150.8835 LP  0  0  0  0  0  0  0  0  0  0  0  0  # atno 17370 bound_to 10713
  157.5835  131.0946  150.9233 LP  0  0  0  0  0  0  0  0  0  0  0  0  # atno 17371 bound_to 10713
  140.3916  134.2178  155.7166 LP  0  0  0  0  0  0  0  0  0  0  0  0  # atno 17394 bound_to 11000
  141.1931  133.8159  157.0814 LP  0  0  0  0  0  0  0  0  0  0  0  0  # atno 17395 bound_to 11000

$$$$
