AV-unprocessed.smi:3330|AV-procd|sdf|12808|dock2
  -GOLD-   2272019173D 1   1.00000     0.00000
 Structure written by MMmdl.
 38 39  0  0  0  0  0  0  0  0  1 V2000
  153.3384  139.2803  160.3435 C   0  0  0  0  0  0  0  0  0  0  0  0
  152.8827  140.4903  159.5052 C   0  0  1  0  0  0  0  0  0  0  0  0
  151.7666  140.0836  158.6565 N   0  0  0  0  0  0  0  0  0  0  0  0
  152.1214  138.9845  157.7707 C   0  0  0  0  0  0  0  0  0  0  0  0
  152.1348  139.4798  156.3144 C   0  0  0  0  0  0  0  0  0  0  0  0
  150.9643  139.0065  155.5648 N   0  0  0  0  0  0  0  0  0  0  0  0
  149.8982  139.7608  155.2651 C   0  0  0  0  0  0  0  0  0  0  0  0
  149.7145  140.9452  155.5441 O   0  0  0  0  0  0  0  0  0  0  0  0
  148.9137  138.9137  154.4887 C   0  0  0  0  0  0  0  0  0  0  0  0
  149.6590  137.6751  154.4378 N   0  0  0  0  0  0  0  0  0  0  0  0
  150.8370  137.7616  155.0692 C   0  0  0  0  0  0  0  0  0  0  0  0
  151.6554  136.8485  155.1680 O   0  0  0  0  0  0  0  0  0  0  0  0
  152.4235  141.6946  160.3724 C   0  0  1  0  0  0  0  0  0  0  0  0
  153.3465  141.9556  161.5773 C   0  0  0  0  0  0  0  0  0  0  0  0
  152.2977  142.9154  159.5809 N   0  0  0  0  0  0  0  0  0  0  0  0
  152.7644  144.1775  159.8849 C   0  0  0  0  0  0  0  0  0  0  0  0
  152.4189  145.0014  158.8525 C   0  0  0  0  0  0  0  0  0  0  0  0
  151.7365  144.1416  157.9478 C   0  0  0  0  0  0  0  0  0  0  0  0
  151.6662  142.8951  158.3842 N   0  0  0  0  0  0  0  0  0  0  0  0
  154.2043  139.5234  160.9581 H   0  0  0  0  0  0  0  0  0  0  0  0
  153.6327  138.4403  159.7147 H   0  0  0  0  0  0  0  0  0  0  0  0
  152.5447  138.9357  161.0072 H   0  0  0  0  0  0  0  0  0  0  0  0
  153.7110  140.8221  158.8773 H   0  0  0  0  0  0  0  0  0  0  0  0
  151.5050  140.8741  158.0844 H   0  0  0  0  0  0  0  0  0  0  0  0
  153.0978  138.5739  158.0317 H   0  0  0  0  0  0  0  0  0  0  0  0
  151.3926  138.1819  157.8826 H   0  0  0  0  0  0  0  0  0  0  0  0
  152.1362  140.5709  156.3105 H   0  0  0  0  0  0  0  0  0  0  0  0
  153.0624  139.1888  155.8178 H   0  0  0  0  0  0  0  0  0  0  0  0
  147.9730  138.7956  155.0270 H   0  0  0  0  0  0  0  0  0  0  0  0
  148.7295  139.3137  153.4917 H   0  0  0  0  0  0  0  0  0  0  0  0
  149.3175  136.8450  153.9753 H   0  0  0  0  0  0  0  0  0  0  0  0
  151.4303  141.4704  160.7657 H   0  0  0  0  0  0  0  0  0  0  0  0
  153.3233  141.1309  162.2888 H   0  0  0  0  0  0  0  0  0  0  0  0
  153.0381  142.8504  162.1188 H   0  0  0  0  0  0  0  0  0  0  0  0
  154.3811  142.0983  161.2637 H   0  0  0  0  0  0  0  0  0  0  0  0
  153.2953  144.3830  160.8029 H   0  0  0  0  0  0  0  0  0  0  0  0
  152.6211  146.0581  158.7590 H   0  0  0  0  0  0  0  0  0  0  0  0
  151.2904  144.3852  156.9951 H   0  0  0  0  0  0  0  0  0  0  0  0
  1  2  1  0  0  0  0
  1 20  1  0  0  0  0
  1 21  1  0  0  0  0
  1 22  1  0  0  0  0
  2  3  1  0  0  0  0
  2 13  1  0  0  0  0
  2 23  1  0  0  0  0
  3  4  1  0  0  0  0
  3 24  1  0  0  0  0
  4  5  1  0  0  0  0
  4 25  1  0  0  0  0
  4 26  1  0  0  0  0
  5  6  1  0  0  0  0
  5 27  1  0  0  0  0
  5 28  1  0  0  0  0
  6 11  1  0  0  0  0
  6  7  1  0  0  0  0
  7  8  2  0  0  0  0
  7  9  1  0  0  0  0
  9 10  1  0  0  0  0
  9 29  1  0  0  0  0
  9 30  1  0  0  0  0
 10 11  1  0  0  0  0
 10 31  1  0  0  0  0
 11 12  2  0  0  0  0
 13 14  1  0  0  0  0
 13 15  1  0  0  0  0
 13 32  1  0  0  0  0
 14 33  1  0  0  0  0
 14 34  1  0  0  0  0
 14 35  1  0  0  0  0
 15 19  1  0  0  0  0
 15 16  1  0  0  0  0
 16 17  2  0  0  0  0
 16 36  1  0  0  0  0
 17 18  1  0  0  0  0
 17 37  1  0  0  0  0
 18 19  2  0  0  0  0
 18 38  1  0  0  0  0
M  END
> <s_m_source_file>
AV-unprocessed.smi

> <i_m_source_file_index>
3330

> <i_lp_mmshare_version>
43012

> <i_f3d_flags>
0

> <s_epik_input>
bjFbY0hdW2NIXVtjSF1uMVtDQEBIXShbQ0gzXSlbQ0BIXShbQ0gzXSlbTkhdW0NIMl1bQ0gyXU4yQyg9TylbQ0gyXVtOSF1DMj1P

> <s_epik_cmdline>
J2VwaWtfcHl0aG9uJywgJy1waCcsICc3LjAnLCAnLXRuJywgJzgnLCAnLW1hJywgJzIwMCcsICctbWV0YWxfYmluZGluZycsICctaW1hZScsICc8aW5maWxlLm1hZT4nLCAnLW9tYWUnLCAnPG91dGZpbGUubWFlPic=

> <r_lp_tautomer_probability>
1

> <r_epik_Ionization_Penalty>
2.2997

> <r_epik_Ionization_Penalty_Charging>
0

> <r_epik_Ionization_Penalty_Neutral>
2.2997

> <r_epik_State_Penalty>
2.44917

> <r_epik_Charging_Adjusted_Penalty>
2.44917

> <i_epik_Tot_Q>
0

> <i_epik_Tot_abs_Q>
0

> <r_epik_Metal_State_Penalty>
2.52438

> <b_epik_Metal_Only>
0

> <s_lp_Force_Field>
OPLS_2005

> <r_lp_Energy>
27.2157

> <b_lp_Chiralities_Consistent>
1

> <s_lp_Variant>
AV-unprocessed.smi:3330-8

> <Gold.Version>
5.8.1

> <Gold.Id.Protein>
6NUR|6NUR_protein|mol2

> <Gold.PLP.Fitness>
50.6136

> <Gold.PLP.PLP>
-44.2156

> <Gold.PLP.part.hbond>
-2.1153

> <Gold.PLP.part.metal>
0.0000

> <Gold.PLP.part.buried>
-4.6505

> <Gold.PLP.part.nonpolar>
-38.3067

> <Gold.PLP.part.repulsive>
0.3552

> <Gold.PLP.ligand.clash>
0.0000

> <Gold.PLP.ligand.torsion>
1.3641

> <Gold.PLP.Chemscore.Hbond>
2.0000

> <Gold.PLP.Chemscore.CHOScore>
1.0000

> <Gold.PLP.Chemscore.Metal>
0.0000

> <Gold.Chemscore.Hbonds>
donor molecule, donor type, donor heavy atom, donor atom, acceptor molecule, acceptor atom, score
      L1  H    10    31       P1  7948  0.39
      P1  H 10752 10764       L1    12  0.80
      L1  C    18    38       P1  8028  0.48

> <Gold.PLP.Chemscore.Internal.Correction>
0.1261

> <Gold.Rescore>
     Score         DG    S(hbond)    S(metal)    S(lipo)     H(rot)  DE(clash)    DE(int)     intcor
     13.12     -15.69       1.75        0.00      94.06       2.60       0.09       2.48       ----

> <Gold.Chemscore.Fitness>
13.1225

> <Gold.Chemscore.DG>
-15.6901

> <Gold.Chemscore.ZeroCoef>
-5.4800

> <Gold.Chemscore.Hbond>
1.7510

> <Gold.Chemscore.Metal>
0.0000

> <Gold.Chemscore.Lipo>
94.0636

> <Gold.Chemscore.Internal_Hbond>
0.0000

> <Gold.Chemscore.DEClash>
0.0877

> <Gold.Chemscore.DEInternal>
2.4798

> <Gold.Chemscore.Rot>
2.5952

> <Gold.Chemscore.Internal.Correction>
   9.000000E+99

> <Gold.Chemscore.Hbonds>
donor molecule, donor type, donor heavy atom, donor atom, acceptor molecule, acceptor atom, score
      L1  H    10    31       P1  7948  0.38
      P1  H 10752 10764       L1    12  0.76

> <Gold.Chemscore.Hbond.Weighted>
-5.8484

> <Gold.Chemscore.Metal.Weighted>
-0.0000

> <Gold.Chemscore.Lipo.Weighted>
-11.0054

> <Gold.Chemscore.Internal_Hbond.Weighted>
0.0000

> <Gold.Chemscore.DEClash.Weighted>
0.0877

> <Gold.Chemscore.DEInternal.Weighted>
2.4798

> <Gold.Chemscore.Rot.Weighted>
6.6437

> <Gold.Chemscore.Internal.Correction.Weighted>
   9.000000E+99

> <Gold.Protein.RotatedTorsions>
[ 6907 6896 6895 6894 ] final  -52.67 input  -60.11 | X-H torsion
[ 7974 7965 7964 7962 ] final    2.18 input  175.53 | X-H torsion
[ 8008 7997 7996 7995 ] final  -75.69 input   59.86 | X-H torsion
[ 10167 10162 10161 10158 ] final  -76.16 input  -65.29 | X-H torsion
[ 10718 10713 10712 10709 ] final  -37.24 input   66.30 | X-H torsion
[ 10763 10752 10751 10750 ] final  -84.17 input  -60.55 | X-H torsion
[ 11005 11000 10999 10996 ] final  100.28 input  -57.11 | X-H torsion

> <Gold.Protein.ActiveResidues>
 VAL166  LYS551  ARG553  GLY616  TRP617  ASP618  TYR619  PRO620  LYS621  CYS622 
 ASP623  PHE694  ASN695  SER759  ASP760  ASP761  ALA762  ILE779  LEU786  VAL792 
 PHE793  MET794  SER795  GLU796  ALA797  LYS798  CYS799  TRP800  GLU811  SER814 

> <Gold.Protein.RotatedAtoms>
  150.8496  134.7817  159.6997 H   0  0  0  0  0  0  0  0  0  0  0  0  # atno 6907 bound_to 6896
  152.4564  134.5278  159.9812 H   0  0  0  0  0  0  0  0  0  0  0  0  # atno 6908 bound_to 6896
  151.5402  133.3396  159.2969 H   0  0  0  0  0  0  0  0  0  0  0  0  # atno 6909 bound_to 6896
  146.2443  140.0875  142.8354 H   0  0  0  0  0  0  0  0  0  0  0  0  # atno 7974 bound_to 7965
  154.5439  140.0740  156.8556 H   0  0  0  0  0  0  0  0  0  0  0  0  # atno 8008 bound_to 7997
  155.3126  140.3391  155.4225 H   0  0  0  0  0  0  0  0  0  0  0  0  # atno 8009 bound_to 7997
  156.1900  140.1682  156.8097 H   0  0  0  0  0  0  0  0  0  0  0  0  # atno 8010 bound_to 7997
  140.4881  143.2386  151.7951 H   0  0  0  0  0  0  0  0  0  0  0  0  # atno 10167 bound_to 10162
  156.3175  130.4261  149.7991 H   0  0  0  0  0  0  0  0  0  0  0  0  # atno 10718 bound_to 10713
  154.5964  135.5530  153.7329 H   0  0  0  0  0  0  0  0  0  0  0  0  # atno 10763 bound_to 10752
  153.0137  135.6355  154.1777 H   0  0  0  0  0  0  0  0  0  0  0  0  # atno 10764 bound_to 10752
  154.1717  135.2891  155.3059 H   0  0  0  0  0  0  0  0  0  0  0  0  # atno 10765 bound_to 10752
  139.8771  134.9133  156.4733 H   0  0  0  0  0  0  0  0  0  0  0  0  # atno 11005 bound_to 11000
  145.0679  140.9134  143.4899 LP  0  0  0  0  0  0  0  0  0  0  0  0  # atno 17320 bound_to 7965
  145.1004  139.2827  143.5689 LP  0  0  0  0  0  0  0  0  0  0  0  0  # atno 17321 bound_to 7965
  139.4846  144.4685  151.9454 LP  0  0  0  0  0  0  0  0  0  0  0  0  # atno 17342 bound_to 10162
  140.3771  144.2782  150.5913 LP  0  0  0  0  0  0  0  0  0  0  0  0  # atno 17343 bound_to 10162
  156.5312  130.8258  151.3237 LP  0  0  0  0  0  0  0  0  0  0  0  0  # atno 17370 bound_to 10713
  157.7405  130.9851  150.2380 LP  0  0  0  0  0  0  0  0  0  0  0  0  # atno 17371 bound_to 10713
  140.8780  133.7939  155.9436 LP  0  0  0  0  0  0  0  0  0  0  0  0  # atno 17394 bound_to 11000
  140.8884  134.2526  157.5108 LP  0  0  0  0  0  0  0  0  0  0  0  0  # atno 17395 bound_to 11000

$$$$
