AV-unprocessed.smi:1508|AV-procd|sdf|6087|dock2
  -GOLD-   22720 6213D 1   1.00000     0.00000
 Structure written by MMmdl.
 38 39  0  0  0  0  0  0  0  0  2 V2000
  146.5669  132.8038  154.9710 C   0  0  0  0  0  0  0  0  0  0  0  0
  146.5381  134.0046  154.0133 C   0  0  0  0  0  0  0  0  0  0  0  0
  145.1175  134.4239  153.5463 C   0  0  1  0  0  0  0  0  0  0  0  0
  145.1390  135.7167  152.6820 C   0  0  0  0  0  0  0  0  0  0  0  0
  146.3971  136.4567  152.7776 N   0  0  0  0  0  0  0  0  0  0  0  0
  146.5589  137.6493  153.3684 C   0  0  0  0  0  0  0  0  0  0  0  0
  145.6455  138.2641  153.9167 O   0  0  0  0  0  0  0  0  0  0  0  0
  147.8328  138.0645  153.2821 N   0  0  0  0  0  0  0  0  0  0  0  0
  148.3970  139.2584  153.7975 C   0  0  0  0  0  0  0  0  0  0  0  0
  149.6563  139.2135  154.2470 N   0  0  0  0  0  0  0  0  0  0  0  0
  150.0831  140.4471  154.7230 N   0  0  0  0  0  0  0  0  0  0  0  0
  149.1276  141.3753  154.6131 C   0  0  0  0  0  0  0  0  0  0  0  0
  147.6093  140.8344  153.9195 S   0  0  0  0  0  0  0  0  0  0  0  0
  144.4236  133.3127  152.8257 N   0  3  0  0  0  0  0  0  0  0  0  0
  143.4741  133.7120  151.7636 C   0  0  0  0  0  0  0  0  0  0  0  0
  143.2997  132.4682  150.9003 C   0  0  0  0  0  0  0  0  0  0  0  0
  144.6940  131.8533  150.8953 C   0  0  0  0  0  0  0  0  0  0  0  0
  145.3231  132.2942  152.2241 C   0  0  0  0  0  0  0  0  0  0  0  0
  147.5941  132.4961  155.1668 H   0  0  0  0  0  0  0  0  0  0  0  0
  146.0424  131.9476  154.5462 H   0  0  0  0  0  0  0  0  0  0  0  0
  146.1147  133.0324  155.9348 H   0  0  0  0  0  0  0  0  0  0  0  0
  147.0543  134.8502  154.4682 H   0  0  0  0  0  0  0  0  0  0  0  0
  147.1433  133.7153  153.1552 H   0  0  0  0  0  0  0  0  0  0  0  0
  144.5354  134.6359  154.4449 H   0  0  0  0  0  0  0  0  0  0  0  0
  145.0099  135.4571  151.6316 H   0  0  0  0  0  0  0  0  0  0  0  0
  144.2899  136.3627  152.9044 H   0  0  0  0  0  0  0  0  0  0  0  0
  147.2040  136.0365  152.3397 H   0  0  0  0  0  0  0  0  0  0  0  0
  148.4770  137.4580  152.7964 H   0  0  0  0  0  0  0  0  0  0  0  0
  149.3184  142.3857  154.9433 H   0  0  0  0  0  0  0  0  0  0  0  0
  142.5223  134.0537  152.1716 H   0  0  0  0  0  0  0  0  0  0  0  0
  143.9037  134.5190  151.1673 H   0  0  0  0  0  0  0  0  0  0  0  0
  142.5947  131.7844  151.3748 H   0  0  0  0  0  0  0  0  0  0  0  0
  142.9302  132.6933  149.8994 H   0  0  0  0  0  0  0  0  0  0  0  0
  144.6690  130.7689  150.7824 H   0  0  0  0  0  0  0  0  0  0  0  0
  145.2715  132.2583  150.0629 H   0  0  0  0  0  0  0  0  0  0  0  0
  146.3199  132.6963  152.0369 H   0  0  0  0  0  0  0  0  0  0  0  0
  145.4281  131.4545  152.9117 H   0  0  0  0  0  0  0  0  0  0  0  0
  143.8690  132.8218  153.5123 H   0  0  0  0  0  0  0  0  0  0  0  0
  1  2  1  0  0  0  0
  1 19  1  0  0  0  0
  1 20  1  0  0  0  0
  1 21  1  0  0  0  0
  2  3  1  0  0  0  0
  2 22  1  0  0  0  0
  2 23  1  0  0  0  0
  3  4  1  0  0  0  0
  3 14  1  0  0  0  0
  3 24  1  0  0  0  0
  4  5  1  0  0  0  0
  4 25  1  0  0  0  0
  4 26  1  0  0  0  0
  5  6  1  0  0  0  0
  5 27  1  0  0  0  0
  6  7  2  0  0  0  0
  6  8  1  0  0  0  0
  8  9  1  0  0  0  0
  8 28  1  0  0  0  0
  9 13  1  0  0  0  0
  9 10  2  0  0  0  0
 10 11  1  0  0  0  0
 11 12  2  0  0  0  0
 12 13  1  0  0  0  0
 12 29  1  0  0  0  0
 14 18  1  0  0  0  0
 14 15  1  0  0  0  0
 14 38  1  0  0  0  0
 15 16  1  0  0  0  0
 15 30  1  0  0  0  0
 15 31  1  0  0  0  0
 16 17  1  0  0  0  0
 16 32  1  0  0  0  0
 16 33  1  0  0  0  0
 17 18  1  0  0  0  0
 17 34  1  0  0  0  0
 17 35  1  0  0  0  0
 18 36  1  0  0  0  0
 18 37  1  0  0  0  0
M  CHG  1  14   1
M  END
> <s_m_source_file>
AV-unprocessed.smi

> <i_m_source_file_index>
1508

> <i_lp_mmshare_version>
43012

> <i_f3d_flags>
0

> <s_epik_input>
W0NIMl0xW0NIMl1bQ0gyXVtDSDJdTjFbQ0BIXShbQ0gyXVtDSDNdKVtDSDJdW05IXUMoPU8pW05IXWMybm5bY0hdczI=

> <s_epik_cmdline>
J2VwaWtfcHl0aG9uJywgJy1waCcsICc3LjAnLCAnLXRuJywgJzgnLCAnLW1hJywgJzIwMCcsICctbWV0YWxfYmluZGluZycsICctaW1hZScsICc8aW5maWxlLm1hZT4nLCAnLW9tYWUnLCAnPG91dGZpbGUubWFlPic=

> <r_lp_tautomer_probability>
1

> <r_epik_Ionization_Penalty>
0.00193711

> <r_epik_Ionization_Penalty_Charging>
0.00115997

> <r_epik_Ionization_Penalty_Neutral>
0.000777142

> <r_epik_State_Penalty>
-0

> <r_epik_Charging_Adjusted_Penalty>
0.00115997

> <i_epik_Tot_Q>
1

> <i_epik_Tot_abs_Q>
1

> <r_epik_Metal_State_Penalty>
0.264283

> <b_epik_Metal_Only>
0

> <s_lp_Force_Field>
OPLS_2005

> <r_lp_Energy>
37.6611

> <b_lp_Chiralities_Consistent>
1

> <s_lp_Variant>
AV-unprocessed.smi:1508-2

> <Gold.Version>
5.8.1

> <Gold.Id.Protein>
6NUR|6NUR_protein|mol2

> <Gold.PLP.Fitness>
39.3004

> <Gold.PLP.PLP>
-25.3285

> <Gold.PLP.part.hbond>
-3.9786

> <Gold.PLP.part.metal>
0.0000

> <Gold.PLP.part.buried>
-3.8056

> <Gold.PLP.part.nonpolar>
-18.9989

> <Gold.PLP.part.repulsive>
0.4843

> <Gold.PLP.ligand.clash>
0.0183

> <Gold.PLP.ligand.torsion>
1.8892

> <Gold.PLP.Chemscore.Hbond>
4.8880

> <Gold.PLP.Chemscore.CHOScore>
1.0000

> <Gold.PLP.Chemscore.Metal>
0.0000

> <Gold.Chemscore.Hbonds>
donor molecule, donor type, donor heavy atom, donor atom, acceptor molecule, acceptor atom, score
      L1  H     5    27       P1  7948  0.96
      L1  H     8    28       P1  7948  1.00
      L1  H    14    38       P1 10957  1.98
      P1  H  7989  7998       L1    11  0.94
      L1  C    12    29       P1  8028  1.00

> <Gold.PLP.Chemscore.Internal.Correction>
0.1045

> <Gold.Rescore>
     Score         DG    S(hbond)    S(metal)    S(lipo)     H(rot)  DE(clash)    DE(int)     intcor
     14.83     -17.46       3.22        0.00      51.97       1.89       0.71       1.92       ----

> <Gold.Chemscore.Fitness>
14.8347

> <Gold.Chemscore.DG>
-17.4580

> <Gold.Chemscore.ZeroCoef>
-5.4800

> <Gold.Chemscore.Hbond>
3.2180

> <Gold.Chemscore.Metal>
0.0000

> <Gold.Chemscore.Lipo>
51.9742

> <Gold.Chemscore.Internal_Hbond>
0.0000

> <Gold.Chemscore.DEClash>
0.7051

> <Gold.Chemscore.DEInternal>
1.9182

> <Gold.Chemscore.Rot>
1.8950

> <Gold.Chemscore.Internal.Correction>
   9.000000E+99

> <Gold.Chemscore.Hbonds>
donor molecule, donor type, donor heavy atom, donor atom, acceptor molecule, acceptor atom, score
      L1  H     5    27       P1  7948  0.92
      L1  H     8    28       P1  7948  0.98
      L1  H    14    38       P1 10957  0.65
      P1  H  7989  7998       L1    11  0.26

> <Gold.Chemscore.Hbond.Weighted>
-10.7481

> <Gold.Chemscore.Metal.Weighted>
-0.0000

> <Gold.Chemscore.Lipo.Weighted>
-6.0810

> <Gold.Chemscore.Internal_Hbond.Weighted>
0.0000

> <Gold.Chemscore.DEClash.Weighted>
0.7051

> <Gold.Chemscore.DEInternal.Weighted>
1.9182

> <Gold.Chemscore.Rot.Weighted>
4.8511

> <Gold.Chemscore.Internal.Correction.Weighted>
   9.000000E+99

> <Gold.Protein.RotatedTorsions>
[ 6907 6896 6895 6894 ] final   86.56 input  -60.11 | X-H torsion
[ 7974 7965 7964 7962 ] final   19.03 input  175.53 | X-H torsion
[ 8008 7997 7996 7995 ] final  172.13 input   59.86 | X-H torsion
[ 10167 10162 10161 10158 ] final -110.75 input  -65.29 | X-H torsion
[ 10718 10713 10712 10709 ] final   39.72 input   66.30 | X-H torsion
[ 10763 10752 10751 10750 ] final  -28.27 input  -60.55 | X-H torsion
[ 11005 11000 10999 10996 ] final  100.38 input  -57.11 | X-H torsion

> <Gold.Protein.ActiveResidues>
 VAL166  LYS551  ARG553  GLY616  TRP617  ASP618  TYR619  PRO620  LYS621  CYS622 
 ASP623  PHE694  ASN695  SER759  ASP760  ASP761  ALA762  ILE779  LEU786  VAL792 
 PHE793  MET794  SER795  GLU796  ALA797  LYS798  CYS799  TRP800  GLU811  SER814 

> <Gold.Protein.RotatedAtoms>
  152.5396  134.2412  159.8862 H   0  0  0  0  0  0  0  0  0  0  0  0  # atno 6907 bound_to 6896
  151.2379  133.4408  159.2614 H   0  0  0  0  0  0  0  0  0  0  0  0  # atno 6908 bound_to 6896
  151.0654  134.9778  159.8338 H   0  0  0  0  0  0  0  0  0  0  0  0  # atno 6909 bound_to 6896
  146.2164  139.8371  142.8648 H   0  0  0  0  0  0  0  0  0  0  0  0  # atno 7974 bound_to 7965
  156.1204  140.1494  156.9212 H   0  0  0  0  0  0  0  0  0  0  0  0  # atno 8008 bound_to 7997
  154.4831  140.0873  156.7466 H   0  0  0  0  0  0  0  0  0  0  0  0  # atno 8009 bound_to 7997
  155.4438  140.3432  155.4295 H   0  0  0  0  0  0  0  0  0  0  0  0  # atno 8010 bound_to 7997
  140.1410  143.4279  152.1562 H   0  0  0  0  0  0  0  0  0  0  0  0  # atno 10167 bound_to 10162
  157.3738  130.7716  149.7139 H   0  0  0  0  0  0  0  0  0  0  0  0  # atno 10718 bound_to 10713
  153.7457  135.6929  153.4957 H   0  0  0  0  0  0  0  0  0  0  0  0  # atno 10763 bound_to 10752
  153.2038  135.4427  155.0297 H   0  0  0  0  0  0  0  0  0  0  0  0  # atno 10764 bound_to 10752
  154.8205  135.3420  154.6980 H   0  0  0  0  0  0  0  0  0  0  0  0  # atno 10765 bound_to 10752
  139.8771  134.9137  156.4747 H   0  0  0  0  0  0  0  0  0  0  0  0  # atno 11005 bound_to 11000
  145.2937  141.0174  143.3648 LP  0  0  0  0  0  0  0  0  0  0  0  0  # atno 17320 bound_to 7965
  144.9058  139.4591  143.6611 LP  0  0  0  0  0  0  0  0  0  0  0  0  # atno 17321 bound_to 7965
  139.5472  144.7308  151.4547 LP  0  0  0  0  0  0  0  0  0  0  0  0  # atno 17342 bound_to 10162
  140.6760  143.8188  150.7059 LP  0  0  0  0  0  0  0  0  0  0  0  0  # atno 17343 bound_to 10162
  155.9761  130.4080  150.3803 LP  0  0  0  0  0  0  0  0  0  0  0  0  # atno 17370 bound_to 10713
  157.1898  131.0412  151.2706 LP  0  0  0  0  0  0  0  0  0  0  0  0  # atno 17371 bound_to 10713
  140.8770  133.7945  155.9426 LP  0  0  0  0  0  0  0  0  0  0  0  0  # atno 17394 bound_to 11000
  140.8893  134.2515  157.5103 LP  0  0  0  0  0  0  0  0  0  0  0  0  # atno 17395 bound_to 11000

$$$$
