AV-unprocessed.smi:281|AV-procd|sdf|2107|dock8
  -GOLD-   2262021403D 1   1.00000     0.00000
 Structure written by MMmdl.
 55 59  0  0  0  0  0  0  0  0  1 V2000
  147.5964  130.1981  161.5002 C   0  0  0  0  0  0  0  0  0  0  0  0
  147.1953  131.5336  160.8663 C   0  0  2  0  0  0  0  0  0  0  0  0
  148.0860  131.8918  159.6646 C   0  0  0  0  0  0  0  0  0  0  0  0
  147.7322  133.2134  159.1646 N   0  0  0  0  0  0  0  0  0  0  0  0
  148.1726  133.5130  157.9173 C   0  0  0  0  0  0  0  0  0  0  0  0
  149.4572  133.9187  157.7312 N   0  0  0  0  0  0  0  0  0  0  0  0
  149.8985  134.2213  156.5069 C   0  0  0  0  0  0  0  0  0  0  0  0
  149.2346  134.1933  155.3500 N   0  0  0  0  0  0  0  0  0  0  0  0
  147.9437  133.7916  155.5296 C   0  0  0  0  0  0  0  0  0  0  0  0
  147.3366  133.4370  156.7676 C   0  0  0  0  0  0  0  0  0  0  0  0
  146.0033  133.1030  156.5605 N   0  0  0  0  0  0  0  0  0  0  0  0
  145.8342  133.2454  155.2746 C   0  0  0  0  0  0  0  0  0  0  0  0
  146.9501  133.6489  154.5761 N   0  0  0  0  0  0  0  0  0  0  0  0
  147.0443  133.8945  153.1448 C   0  0  0  0  0  0  0  0  0  0  0  0
  146.8267  132.6311  152.2786 C   0  0  2  0  0  0  0  0  0  0  0  0
  147.8776  131.7122  152.5222 O   0  0  0  0  0  0  0  0  0  0  0  0
  146.7979  132.9407  150.7869 C   0  0  0  0  0  0  0  0  0  0  0  0
  145.8881  131.8532  150.2328 C   0  0  0  0  0  0  0  0  0  0  0  0
  144.8825  131.7486  151.2258 O   0  0  0  0  0  0  0  0  0  0  0  0
  145.4819  131.9095  152.5081 C   0  0  0  0  0  0  0  0  0  0  0  0
  147.7752  134.2544  160.1873 C   0  0  0  0  0  0  0  0  0  0  0  0
  146.9283  133.8564  161.4241 C   0  0  1  0  0  0  0  0  0  0  0  0
  147.2077  134.8032  162.5843 C   0  0  0  0  0  0  0  0  0  0  0  0
  146.1721  135.8976  162.3865 C   0  0  0  0  0  0  0  0  0  0  0  0
  145.0113  135.1814  162.0034 O   0  0  0  0  0  0  0  0  0  0  0  0
  145.3843  134.0062  161.2860 C   0  0  1  0  0  0  0  0  0  0  0  0
  144.7939  134.0798  159.8671 C   0  0  0  0  0  0  0  0  0  0  0  0
  147.3145  132.5498  161.8604 O   0  0  0  0  0  0  0  0  0  0  0  0
  147.5123  129.3824  160.7819 H   0  0  0  0  0  0  0  0  0  0  0  0
  146.9536  129.9617  162.3485 H   0  0  0  0  0  0  0  0  0  0  0  0
  148.6258  130.2246  161.8589 H   0  0  0  0  0  0  0  0  0  0  0  0
  146.1567  131.4592  160.5425 H   0  0  0  0  0  0  0  0  0  0  0  0
  149.1353  131.8990  159.9622 H   0  0  0  0  0  0  0  0  0  0  0  0
  147.9822  131.1300  158.8927 H   0  0  0  0  0  0  0  0  0  0  0  0
  150.9310  134.5323  156.4462 H   0  0  0  0  0  0  0  0  0  0  0  0
  144.8816  133.0627  154.7994 H   0  0  0  0  0  0  0  0  0  0  0  0
  146.3117  134.6594  152.8841 H   0  0  0  0  0  0  0  0  0  0  0  0
  148.0234  134.3279  152.9360 H   0  0  0  0  0  0  0  0  0  0  0  0
  148.3439  131.5682  151.7130 H   0  0  0  0  0  0  0  0  0  0  0  0
  146.3351  133.9125  150.6108 H   0  0  0  0  0  0  0  0  0  0  0  0
  147.7842  132.9545  150.3213 H   0  0  0  0  0  0  0  0  0  0  0  0
  145.4681  132.1077  149.2594 H   0  0  0  0  0  0  0  0  0  0  0  0
  146.4187  130.9039  150.1443 H   0  0  0  0  0  0  0  0  0  0  0  0
  145.6104  130.9371  152.9862 H   0  0  0  0  0  0  0  0  0  0  0  0
  144.7990  132.4904  153.1273 H   0  0  0  0  0  0  0  0  0  0  0  0
  148.8167  134.3906  160.4834 H   0  0  0  0  0  0  0  0  0  0  0  0
  147.4353  135.2082  159.7822 H   0  0  0  0  0  0  0  0  0  0  0  0
  147.0177  134.3023  163.5351 H   0  0  0  0  0  0  0  0  0  0  0  0
  148.2302  135.1817  162.6090 H   0  0  0  0  0  0  0  0  0  0  0  0
  146.0009  136.4875  163.2870 H   0  0  0  0  0  0  0  0  0  0  0  0
  146.4654  136.5735  161.5821 H   0  0  0  0  0  0  0  0  0  0  0  0
  144.9045  133.1789  161.8104 H   0  0  0  0  0  0  0  0  0  0  0  0
  145.0061  133.1774  159.2946 H   0  0  0  0  0  0  0  0  0  0  0  0
  145.1804  134.9343  159.3119 H   0  0  0  0  0  0  0  0  0  0  0  0
  143.7098  134.1859  159.9105 H   0  0  0  0  0  0  0  0  0  0  0  0
  1  2  1  0  0  0  0
  1 29  1  0  0  0  0
  1 30  1  0  0  0  0
  1 31  1  0  0  0  0
  2 28  1  0  0  0  0
  2  3  1  0  0  0  0
  2 32  1  0  0  0  0
  3  4  1  0  0  0  0
  3 33  1  0  0  0  0
  3 34  1  0  0  0  0
  4  5  1  0  0  0  0
  4 21  1  0  0  0  0
  5 10  1  0  0  0  0
  5  6  2  0  0  0  0
  6  7  1  0  0  0  0
  7  8  2  0  0  0  0
  7 35  1  0  0  0  0
  8  9  1  0  0  0  0
  9 13  1  0  0  0  0
  9 10  2  0  0  0  0
 10 11  1  0  0  0  0
 11 12  2  0  0  0  0
 12 13  1  0  0  0  0
 12 36  1  0  0  0  0
 13 14  1  0  0  0  0
 14 15  1  0  0  0  0
 14 37  1  0  0  0  0
 14 38  1  0  0  0  0
 15 20  1  0  0  0  0
 15 16  1  0  0  0  0
 15 17  1  0  0  0  0
 16 39  1  0  0  0  0
 17 18  1  0  0  0  0
 17 40  1  0  0  0  0
 17 41  1  0  0  0  0
 18 19  1  0  0  0  0
 18 42  1  0  0  0  0
 18 43  1  0  0  0  0
 19 20  1  0  0  0  0
 20 44  1  0  0  0  0
 20 45  1  0  0  0  0
 21 22  1  0  0  0  0
 21 46  1  0  0  0  0
 21 47  1  0  0  0  0
 22 26  1  0  0  0  0
 22 23  1  0  0  0  0
 22 28  1  0  0  0  0
 23 24  1  0  0  0  0
 23 48  1  0  0  0  0
 23 49  1  0  0  0  0
 24 25  1  0  0  0  0
 24 50  1  0  0  0  0
 24 51  1  0  0  0  0
 25 26  1  0  0  0  0
 26 27  1  0  0  0  0
 26 52  1  0  0  0  0
 27 53  1  0  0  0  0
 27 54  1  0  0  0  0
 27 55  1  0  0  0  0
M  END
> <s_m_source_file>
AV-unprocessed.smi

> <i_m_source_file_index>
281

> <i_lp_mmshare_version>
43012

> <i_f3d_flags>
0

> <s_epik_input>
W0NIM11bQ0BASF0xT1tDSDJdW0NIMl1bQ0BAXTEyW0NIMl1OKFtDSDJdW0NASF0oTzIpW0NIM10pYyhuW2NIXW4zKWMoYzM0KW5bY0hdbjRbQ0gyXVtDQEBdNShbT0hdKVtDSDJdW0NIMl1PW0NIMl01

> <s_epik_cmdline>
J2VwaWtfcHl0aG9uJywgJy1waCcsICc3LjAnLCAnLXRuJywgJzgnLCAnLW1hJywgJzIwMCcsICctbWV0YWxfYmluZGluZycsICctaW1hZScsICc8aW5maWxlLm1hZT4nLCAnLW9tYWUnLCAnPG91dGZpbGUubWFlPic=

> <r_lp_tautomer_probability>
1

> <r_epik_Ionization_Penalty>
0.00571331

> <r_epik_Ionization_Penalty_Charging>
0

> <r_epik_Ionization_Penalty_Neutral>
0.00571331

> <r_epik_State_Penalty>
0.00399586

> <r_epik_Charging_Adjusted_Penalty>
0.00399586

> <i_epik_Tot_Q>
0

> <i_epik_Tot_abs_Q>
0

> <r_epik_Metal_State_Penalty>
-0

> <b_epik_Metal_Only>
0

> <s_lp_Force_Field>
OPLS_2005

> <r_lp_Energy>
55.2886

> <b_lp_Chiralities_Consistent>
1

> <s_lp_Variant>
AV-unprocessed.smi:281-7

> <Gold.Version>
5.8.1

> <Gold.Id.Protein>
6NUR|6NUR_protein|mol2

> <Gold.PLP.Fitness>
41.3397

> <Gold.PLP.PLP>
-32.7886

> <Gold.PLP.part.hbond>
-2.0000

> <Gold.PLP.part.metal>
0.0000

> <Gold.PLP.part.buried>
-5.4863

> <Gold.PLP.part.nonpolar>
-25.9005

> <Gold.PLP.part.repulsive>
0.2728

> <Gold.PLP.ligand.clash>
0.0000

> <Gold.PLP.ligand.torsion>
0.3176

> <Gold.PLP.Chemscore.Hbond>
1.9588

> <Gold.PLP.Chemscore.CHOScore>
0.9724

> <Gold.PLP.Chemscore.Metal>
0.0000

> <Gold.Chemscore.Hbonds>
donor molecule, donor type, donor heavy atom, donor atom, acceptor molecule, acceptor atom, score
      L1  H    16    39       P1 10747  1.00
      P1  H  6896  6907       L1     6  1.00
      L1  C    12    36       P1 10957  0.94

> <Gold.PLP.Chemscore.Internal.Correction>
0.3928

> <Gold.Rescore>
     Score         DG    S(hbond)    S(metal)    S(lipo)     H(rot)  DE(clash)    DE(int)     intcor
     16.19     -16.48       1.91        0.00      85.35       2.09       0.00       0.30       ----

> <Gold.Chemscore.Fitness>
16.1856

> <Gold.Chemscore.DG>
-16.4831

> <Gold.Chemscore.ZeroCoef>
-5.4800

> <Gold.Chemscore.Hbond>
1.9086

> <Gold.Chemscore.Metal>
0.0000

> <Gold.Chemscore.Lipo>
85.3470

> <Gold.Chemscore.Internal_Hbond>
0.0000

> <Gold.Chemscore.DEClash>
0.0000

> <Gold.Chemscore.DEInternal>
0.2975

> <Gold.Chemscore.Rot>
2.0927

> <Gold.Chemscore.Internal.Correction>
   9.000000E+99

> <Gold.Chemscore.Hbonds>
donor molecule, donor type, donor heavy atom, donor atom, acceptor molecule, acceptor atom, score
      L1  H    16    39       P1 10747  1.00
      P1  H  6896  6907       L1     6  0.89

> <Gold.Chemscore.Hbond.Weighted>
-6.3748

> <Gold.Chemscore.Metal.Weighted>
-0.0000

> <Gold.Chemscore.Lipo.Weighted>
-9.9856

> <Gold.Chemscore.Internal_Hbond.Weighted>
0.0000

> <Gold.Chemscore.DEClash.Weighted>
0.0000

> <Gold.Chemscore.DEInternal.Weighted>
0.2975

> <Gold.Chemscore.Rot.Weighted>
5.3573

> <Gold.Chemscore.Internal.Correction.Weighted>
   9.000000E+99

> <Gold.Protein.RotatedTorsions>
[ 6907 6896 6895 6894 ] final  -97.58 input  -60.11 | X-H torsion
[ 7974 7965 7964 7962 ] final  -56.01 input  175.53 | X-H torsion
[ 8008 7997 7996 7995 ] final -131.74 input   59.86 | X-H torsion
[ 10167 10162 10161 10158 ] final   89.02 input  -65.29 | X-H torsion
[ 10718 10713 10712 10709 ] final   22.66 input   66.30 | X-H torsion
[ 10763 10752 10751 10750 ] final   43.61 input  -60.55 | X-H torsion
[ 11005 11000 10999 10996 ] final -148.69 input  -57.11 | X-H torsion

> <Gold.Protein.ActiveResidues>
 VAL166  LYS551  ARG553  GLY616  TRP617  ASP618  TYR619  PRO620  LYS621  CYS622 
 ASP623  PHE694  ASN695  SER759  ASP760  ASP761  ALA762  ILE779  LEU786  VAL792 
 PHE793  MET794  SER795  GLU796  ALA797  LYS798  CYS799  TRP800  GLU811  SER814 

> <Gold.Protein.RotatedAtoms>
  150.7020  134.1327  159.4075 H   0  0  0  0  0  0  0  0  0  0  0  0  # atno 6907 bound_to 6896
  151.9312  135.0253  160.0538 H   0  0  0  0  0  0  0  0  0  0  0  0  # atno 6908 bound_to 6896
  152.2173  133.4921  159.5180 H   0  0  0  0  0  0  0  0  0  0  0  0  # atno 6909 bound_to 6896
  145.8676  140.8240  142.9905 H   0  0  0  0  0  0  0  0  0  0  0  0  # atno 7974 bound_to 7965
  155.3174  140.0460  157.3038 H   0  0  0  0  0  0  0  0  0  0  0  0  # atno 8008 bound_to 7997
  154.5399  140.2284  155.8625 H   0  0  0  0  0  0  0  0  0  0  0  0  # atno 8009 bound_to 7997
  156.1871  140.3060  155.9266 H   0  0  0  0  0  0  0  0  0  0  0  0  # atno 8010 bound_to 7997
  139.8614  144.6542  150.9053 H   0  0  0  0  0  0  0  0  0  0  0  0  # atno 10167 bound_to 10162
  157.1554  130.6693  149.6026 H   0  0  0  0  0  0  0  0  0  0  0  0  # atno 10718 bound_to 10713
  152.9857  135.6096  154.3140 H   0  0  0  0  0  0  0  0  0  0  0  0  # atno 10763 bound_to 10752
  154.2853  135.2776  155.2680 H   0  0  0  0  0  0  0  0  0  0  0  0  # atno 10764 bound_to 10752
  154.5000  135.5869  153.6581 H   0  0  0  0  0  0  0  0  0  0  0  0  # atno 10765 bound_to 10752
  140.7586  134.3324  157.5107 H   0  0  0  0  0  0  0  0  0  0  0  0  # atno 11005 bound_to 11000
  144.6726  140.1190  143.7451 LP  0  0  0  0  0  0  0  0  0  0  0  0  # atno 17320 bound_to 7965
  145.9174  139.2524  143.1401 LP  0  0  0  0  0  0  0  0  0  0  0  0  # atno 17321 bound_to 7965
  140.7774  143.3741  151.1596 LP  0  0  0  0  0  0  0  0  0  0  0  0  # atno 17342 bound_to 10162
  139.7370  143.8984  152.3038 LP  0  0  0  0  0  0  0  0  0  0  0  0  # atno 17343 bound_to 10162
  155.9763  130.4730  150.6519 LP  0  0  0  0  0  0  0  0  0  0  0  0  # atno 17370 bound_to 10713
  157.4182  131.0833  151.1156 LP  0  0  0  0  0  0  0  0  0  0  0  0  # atno 17371 bound_to 10713
  139.8775  134.9187  156.3210 LP  0  0  0  0  0  0  0  0  0  0  0  0  # atno 17394 bound_to 11000
  140.9684  133.7343  156.0500 LP  0  0  0  0  0  0  0  0  0  0  0  0  # atno 17395 bound_to 11000

$$$$
