AV-unprocessed.smi:159|AV-procd|sdf|1342|dock4
  -GOLD-   2262019 43D 1   1.00000     0.00000
 Structure written by MMmdl.
 28 29  0  0  0  0  0  0  0  0  1 V2000
  153.5587  137.5775  156.1581 N   0  0  0  0  0  0  0  0  0  0  0  0
  152.6452  138.5224  155.8941 C   0  0  0  0  0  0  0  0  0  0  0  0
  151.8909  138.4849  154.6615 C   0  0  0  0  0  0  0  0  0  0  0  0
  150.9922  139.4750  154.4661 C   0  0  0  0  0  0  0  0  0  0  0  0
  150.7987  140.4918  155.3909 N   0  0  0  0  0  0  0  0  0  0  0  0
  149.7818  141.5846  155.1474 C   0  0  2  0  0  0  0  0  0  0  0  0
  148.6763  141.5339  156.2083 C   0  0  0  0  0  0  0  0  0  0  0  0
  147.5311  140.9072  155.4413 C   0  0  0  0  0  0  0  0  0  0  0  0
  147.7696  141.4354  154.0283 C   0  0  2  0  0  0  0  0  0  0  0  0
  147.0970  140.5882  152.9383 C   0  0  0  0  0  0  0  0  0  0  0  0
  147.7291  139.3297  152.8443 O   0  0  0  0  0  0  0  0  0  0  0  0
  149.1866  141.3772  153.8996 O   0  0  0  0  0  0  0  0  0  0  0  0
  151.5371  140.4889  156.5992 C   0  0  0  0  0  0  0  0  0  0  0  0
  151.3716  141.3466  157.4659 O   0  0  0  0  0  0  0  0  0  0  0  0
  152.4457  139.4804  156.7783 N   0  0  0  0  0  0  0  0  0  0  0  0
  150.3215  142.5329  155.1248 H   0  0  0  0  0  0  0  0  0  0  0  0
  147.4424  142.4756  153.9769 H   0  0  0  0  0  0  0  0  0  0  0  0
  154.0819  137.6046  157.0212 H   0  0  0  0  0  0  0  0  0  0  0  0
  153.7182  136.8355  155.4919 H   0  0  0  0  0  0  0  0  0  0  0  0
  152.0147  137.7172  153.9112 H   0  0  0  0  0  0  0  0  0  0  0  0
  150.4145  139.4566  153.5537 H   0  0  0  0  0  0  0  0  0  0  0  0
  148.9748  140.9719  157.0942 H   0  0  0  0  0  0  0  0  0  0  0  0
  148.4290  142.5545  156.5032 H   0  0  0  0  0  0  0  0  0  0  0  0
  147.6158  139.8199  155.4648 H   0  0  0  0  0  0  0  0  0  0  0  0
  146.5532  141.1814  155.8377 H   0  0  0  0  0  0  0  0  0  0  0  0
  146.0307  140.4660  153.1310 H   0  0  0  0  0  0  0  0  0  0  0  0
  147.1976  141.0770  151.9688 H   0  0  0  0  0  0  0  0  0  0  0  0
  148.4248  139.3893  152.2075 H   0  0  0  0  0  0  0  0  0  0  0  0
  1  2  1  0  0  0  0
  1 18  1  0  0  0  0
  1 19  1  0  0  0  0
  2 15  2  0  0  0  0
  2  3  1  0  0  0  0
  3  4  2  0  0  0  0
  3 20  1  0  0  0  0
  4  5  1  0  0  0  0
  4 21  1  0  0  0  0
  5  6  1  0  0  0  0
  5 13  1  0  0  0  0
  6 16  1  0  0  0  0
  6 12  1  0  0  0  0
  6  7  1  0  0  0  0
  7  8  1  0  0  0  0
  7 22  1  0  0  0  0
  7 23  1  0  0  0  0
  8  9  1  0  0  0  0
  8 24  1  0  0  0  0
  8 25  1  0  0  0  0
  9 17  1  0  0  0  0
  9 10  1  0  0  0  0
  9 12  1  0  0  0  0
 10 11  1  0  0  0  0
 10 26  1  0  0  0  0
 10 27  1  0  0  0  0
 11 28  1  0  0  0  0
 13 14  2  0  0  0  0
 13 15  1  0  0  0  0
M  END
> <s_m_source_file>
AV-unprocessed.smi

> <i_m_source_file_index>
159

> <i_lp_mmshare_version>
43012

> <i_f3d_flags>
0

> <s_epik_input>
W05IMl1jMVtjSF1bY0hdbihjKD1PKW4xKVtDQEhdMltDSDJdW0NIMl1bQ0BIXShPMilbQ0gyXVtPSF0=

> <s_epik_cmdline>
J2VwaWtfcHl0aG9uJywgJy1waCcsICc3LjAnLCAnLXRuJywgJzgnLCAnLW1hJywgJzIwMCcsICctbWV0YWxfYmluZGluZycsICctaW1hZScsICc8aW5maWxlLm1hZT4nLCAnLW9tYWUnLCAnPG91dGZpbGUubWFlPic=

> <r_lp_tautomer_probability>
0.99996

> <r_epik_Ionization_Penalty>
0.00126102

> <r_epik_Ionization_Penalty_Charging>
4.46248e-08

> <r_epik_Ionization_Penalty_Neutral>
0.00126097

> <r_epik_State_Penalty>
1.15523e-05

> <r_epik_Charging_Adjusted_Penalty>
1.1597e-05

> <i_epik_Tot_Q>
0

> <i_epik_Tot_abs_Q>
0

> <r_epik_Metal_State_Penalty>
-0

> <b_epik_Metal_Only>
0

> <s_epik_Chemistry_Notes>
This compound contains an acetal/aminal-like group ( X-CH(R)-Y where X, Y are N, S, or O) that may be acid/base labile, releasing an aldehyde.

> <s_lp_Force_Field>
OPLS_2005

> <r_lp_Energy>
25.8801

> <b_lp_Chiralities_Consistent>
1

> <s_lp_Variant>
AV-unprocessed.smi:159-4

> <Gold.Version>
5.8.1

> <Gold.Id.Protein>
6NUR|6NUR_protein|mol2

> <Gold.PLP.Fitness>
34.8200

> <Gold.PLP.PLP>
-23.9906

> <Gold.PLP.part.hbond>
-4.0000

> <Gold.PLP.part.metal>
0.0000

> <Gold.PLP.part.buried>
1.7982

> <Gold.PLP.part.nonpolar>
-22.3538

> <Gold.PLP.part.repulsive>
2.8256

> <Gold.PLP.ligand.clash>
0.0000

> <Gold.PLP.ligand.torsion>
0.0754

> <Gold.PLP.Chemscore.Hbond>
2.6980

> <Gold.PLP.Chemscore.CHOScore>
0.9577

> <Gold.PLP.Chemscore.Metal>
0.0000

> <Gold.Chemscore.Hbonds>
donor molecule, donor type, donor heavy atom, donor atom, acceptor molecule, acceptor atom, score
      L1  H    11    28       P1  7957  1.00
      P1  H  7997  8009       L1    15  0.61
      P1  H  8011  8017       L1    12  0.77
      L1  C     4    21       P1  7957  0.87

> <Gold.PLP.Chemscore.Internal.Correction>
0.0130

> <Gold.Rescore>
     Score         DG    S(hbond)    S(metal)    S(lipo)     H(rot)  DE(clash)    DE(int)     intcor
      7.71     -10.10       1.62        0.00      39.12       2.09       1.18       1.21       ----

> <Gold.Chemscore.Fitness>
7.7132

> <Gold.Chemscore.DG>
-10.1037

> <Gold.Chemscore.ZeroCoef>
-5.4800

> <Gold.Chemscore.Hbond>
1.6186

> <Gold.Chemscore.Metal>
0.0000

> <Gold.Chemscore.Lipo>
39.1195

> <Gold.Chemscore.Internal_Hbond>
0.0000

> <Gold.Chemscore.DEClash>
1.1827

> <Gold.Chemscore.DEInternal>
1.2077

> <Gold.Chemscore.Rot>
2.0935

> <Gold.Chemscore.Internal.Correction>
   9.000000E+99

> <Gold.Chemscore.Hbonds>
donor molecule, donor type, donor heavy atom, donor atom, acceptor molecule, acceptor atom, score
      L1  H    11    28       P1  7957  1.00
      P1  H  7997  8009       L1    15  0.05
      P1  H  8011  8017       L1    12  0.58

> <Gold.Chemscore.Hbond.Weighted>
-5.4060

> <Gold.Chemscore.Metal.Weighted>
-0.0000

> <Gold.Chemscore.Lipo.Weighted>
-4.5770

> <Gold.Chemscore.Internal_Hbond.Weighted>
0.0000

> <Gold.Chemscore.DEClash.Weighted>
1.1827

> <Gold.Chemscore.DEInternal.Weighted>
1.2077

> <Gold.Chemscore.Rot.Weighted>
5.3594

> <Gold.Chemscore.Internal.Correction.Weighted>
   9.000000E+99

> <Gold.Protein.RotatedTorsions>
[ 6907 6896 6895 6894 ] final -130.48 input  -60.11 | X-H torsion
[ 7974 7965 7964 7962 ] final  -87.92 input  175.53 | X-H torsion
[ 8008 7997 7996 7995 ] final  173.01 input   59.86 | X-H torsion
[ 10167 10162 10161 10158 ] final   40.24 input  -65.29 | X-H torsion
[ 10718 10713 10712 10709 ] final   71.54 input   66.30 | X-H torsion
[ 10763 10752 10751 10750 ] final  163.35 input  -60.55 | X-H torsion
[ 11005 11000 10999 10996 ] final  -33.64 input  -57.11 | X-H torsion

> <Gold.Protein.ActiveResidues>
 VAL166  LYS551  ARG553  GLY616  TRP617  ASP618  TYR619  PRO620  LYS621  CYS622 
 ASP623  PHE694  ASN695  SER759  ASP760  ASP761  ALA762  ILE779  LEU786  VAL792 
 PHE793  MET794  SER795  GLU796  ALA797  LYS798  CYS799  TRP800  GLU811  SER814 

> <Gold.Protein.RotatedAtoms>
  150.9402  133.6665  159.2792 H   0  0  0  0  0  0  0  0  0  0  0  0  # atno 6907 bound_to 6896
  151.4057  135.0976  159.9579 H   0  0  0  0  0  0  0  0  0  0  0  0  # atno 6908 bound_to 6896
  152.5066  133.8886  159.7437 H   0  0  0  0  0  0  0  0  0  0  0  0  # atno 6909 bound_to 6896
  145.4600  140.9561  143.1975 H   0  0  0  0  0  0  0  0  0  0  0  0  # atno 7974 bound_to 7965
  156.1118  140.1471  156.9327 H   0  0  0  0  0  0  0  0  0  0  0  0  # atno 8008 bound_to 7997
  154.4772  140.0890  156.7335 H   0  0  0  0  0  0  0  0  0  0  0  0  # atno 8009 bound_to 7997
  155.4582  140.3437  155.4311 H   0  0  0  0  0  0  0  0  0  0  0  0  # atno 8010 bound_to 7997
  140.3761  144.2041  150.6131 H   0  0  0  0  0  0  0  0  0  0  0  0  # atno 10167 bound_to 10162
  157.6456  130.9533  150.0803 H   0  0  0  0  0  0  0  0  0  0  0  0  # atno 10718 bound_to 10713
  154.2924  135.2760  155.2649 H   0  0  0  0  0  0  0  0  0  0  0  0  # atno 10763 bound_to 10752
  154.5122  135.5779  153.6617 H   0  0  0  0  0  0  0  0  0  0  0  0  # atno 10764 bound_to 10752
  152.9912  135.6184  154.3089 H   0  0  0  0  0  0  0  0  0  0  0  0  # atno 10765 bound_to 10752
  140.9651  133.7142  156.1432 H   0  0  0  0  0  0  0  0  0  0  0  0  # atno 11005 bound_to 11000
  144.8008  139.6144  143.7072 LP  0  0  0  0  0  0  0  0  0  0  0  0  # atno 17320 bound_to 7965
  146.2456  139.6092  142.9462 LP  0  0  0  0  0  0  0  0  0  0  0  0  # atno 17321 bound_to 7965
  140.4985  143.2325  151.8714 LP  0  0  0  0  0  0  0  0  0  0  0  0  # atno 17342 bound_to 10162
  139.4799  144.5087  151.8963 LP  0  0  0  0  0  0  0  0  0  0  0  0  # atno 17343 bound_to 10162
  156.1781  130.3649  149.9072 LP  0  0  0  0  0  0  0  0  0  0  0  0  # atno 17370 bound_to 10713
  156.7031  130.8941  151.3601 LP  0  0  0  0  0  0  0  0  0  0  0  0  # atno 17371 bound_to 10713
  140.7411  134.4149  157.5554 LP  0  0  0  0  0  0  0  0  0  0  0  0  # atno 17394 bound_to 11000
  139.8891  134.8837  156.2436 LP  0  0  0  0  0  0  0  0  0  0  0  0  # atno 17395 bound_to 11000

$$$$
