AV-unprocessed.smi:1963|AV-procd|sdf|7927|dock5
  -GOLD-   2272010 93D 1   1.00000     0.00000
 Structure written by MMmdl.
 47 48  0  0  0  0  0  0  0  0  1 V2000
  147.4589  128.0214  151.2874 C   0  0  0  0  0  0  0  0  0  0  0  0
  146.5298  129.0620  151.9024 C   0  0  0  0  0  0  0  0  0  0  0  0
  145.5804  128.7084  152.6010 O   0  0  0  0  0  0  0  0  0  0  0  0
  146.8158  130.3453  151.6324 N   0  0  0  0  0  0  0  0  0  0  0  0
  146.0684  131.5049  152.1247 C   0  0  1  0  0  0  0  0  0  0  0  0
  146.7190  131.9979  153.4325 C   0  0  0  0  0  0  0  0  0  0  0  0
  147.9175  132.2816  153.4541 O   0  0  0  0  0  0  0  0  0  0  0  0
  145.8870  132.1239  154.4830 N   0  0  0  0  0  0  0  0  0  0  0  0
  146.1839  132.5707  155.7983 C   0  0  0  0  0  0  0  0  0  0  0  0
  147.5005  132.9855  156.0758 C   0  0  0  0  0  0  0  0  0  0  0  0
  147.8204  133.4447  157.3673 C   0  0  0  0  0  0  0  0  0  0  0  0
  146.8086  133.4866  158.3552 C   0  0  0  0  0  0  0  0  0  0  0  0
  147.1073  133.9369  159.6598 N   0  0  0  0  0  0  0  0  0  0  0  0
  147.0275  132.9270  160.7126 C   0  0  0  0  0  0  0  0  0  0  0  0
  147.6648  133.4533  162.0103 C   0  0  0  0  0  0  0  0  0  0  0  0
  147.0593  134.6877  162.3805 O   0  0  0  0  0  0  0  0  0  0  0  0
  147.2488  135.6888  161.3864 C   0  0  0  0  0  0  0  0  0  0  0  0
  146.5917  135.2421  160.0697 C   0  0  0  0  0  0  0  0  0  0  0  0
  145.5353  133.1106  158.0797 N   0  0  0  0  0  0  0  0  0  0  0  0
  145.2327  132.6686  156.8407 C   0  0  0  0  0  0  0  0  0  0  0  0
  146.1167  132.6289  151.0471 C   0  0  0  0  0  0  0  0  0  0  0  0
  145.2602  133.8589  151.4146 C   0  0  0  0  0  0  0  0  0  0  0  0
  145.6843  132.1126  149.6605 C   0  0  0  0  0  0  0  0  0  0  0  0
  148.4808  128.1700  151.6374 H   0  0  0  0  0  0  0  0  0  0  0  0
  147.4502  128.0986  150.1999 H   0  0  0  0  0  0  0  0  0  0  0  0
  147.1474  127.0126  151.5607 H   0  0  0  0  0  0  0  0  0  0  0  0
  147.6209  130.5387  151.0546 H   0  0  0  0  0  0  0  0  0  0  0  0
  145.0293  131.2218  152.3071 H   0  0  0  0  0  0  0  0  0  0  0  0
  144.9120  131.9378  154.2977 H   0  0  0  0  0  0  0  0  0  0  0  0
  148.2619  132.9505  155.3102 H   0  0  0  0  0  0  0  0  0  0  0  0
  148.8277  133.7708  157.5787 H   0  0  0  0  0  0  0  0  0  0  0  0
  145.9786  132.6825  160.8857 H   0  0  0  0  0  0  0  0  0  0  0  0
  147.5247  132.0018  160.4250 H   0  0  0  0  0  0  0  0  0  0  0  0
  147.5225  132.7333  162.8163 H   0  0  0  0  0  0  0  0  0  0  0  0
  148.7411  133.5858  161.8883 H   0  0  0  0  0  0  0  0  0  0  0  0
  146.8013  136.6210  161.7313 H   0  0  0  0  0  0  0  0  0  0  0  0
  148.3138  135.8798  161.2449 H   0  0  0  0  0  0  0  0  0  0  0  0
  146.7893  135.9866  159.2973 H   0  0  0  0  0  0  0  0  0  0  0  0
  145.5099  135.1797  160.1950 H   0  0  0  0  0  0  0  0  0  0  0  0
  144.1955  132.4103  156.6947 H   0  0  0  0  0  0  0  0  0  0  0  0
  147.1485  132.9721  150.9513 H   0  0  0  0  0  0  0  0  0  0  0  0
  144.2202  133.5791  151.5849 H   0  0  0  0  0  0  0  0  0  0  0  0
  145.2756  134.6002  150.6151 H   0  0  0  0  0  0  0  0  0  0  0  0
  145.6228  134.3603  152.3119 H   0  0  0  0  0  0  0  0  0  0  0  0
  144.6675  131.7191  149.6856 H   0  0  0  0  0  0  0  0  0  0  0  0
  146.3389  131.3206  149.2959 H   0  0  0  0  0  0  0  0  0  0  0  0
  145.7117  132.9111  148.9185 H   0  0  0  0  0  0  0  0  0  0  0  0
  1  2  1  0  0  0  0
  1 24  1  0  0  0  0
  1 25  1  0  0  0  0
  1 26  1  0  0  0  0
  2  3  2  0  0  0  0
  2  4  1  0  0  0  0
  4  5  1  0  0  0  0
  4 27  1  0  0  0  0
  5  6  1  0  0  0  0
  5 21  1  0  0  0  0
  5 28  1  0  0  0  0
  6  7  2  0  0  0  0
  6  8  1  0  0  0  0
  8  9  1  0  0  0  0
  8 29  1  0  0  0  0
  9 20  1  0  0  0  0
  9 10  2  0  0  0  0
 10 11  1  0  0  0  0
 10 30  1  0  0  0  0
 11 12  2  0  0  0  0
 11 31  1  0  0  0  0
 12 13  1  0  0  0  0
 12 19  1  0  0  0  0
 13 18  1  0  0  0  0
 13 14  1  0  0  0  0
 14 15  1  0  0  0  0
 14 32  1  0  0  0  0
 14 33  1  0  0  0  0
 15 16  1  0  0  0  0
 15 34  1  0  0  0  0
 15 35  1  0  0  0  0
 16 17  1  0  0  0  0
 17 18  1  0  0  0  0
 17 36  1  0  0  0  0
 17 37  1  0  0  0  0
 18 38  1  0  0  0  0
 18 39  1  0  0  0  0
 19 20  2  0  0  0  0
 20 40  1  0  0  0  0
 21 22  1  0  0  0  0
 21 23  1  0  0  0  0
 21 41  1  0  0  0  0
 22 42  1  0  0  0  0
 22 43  1  0  0  0  0
 22 44  1  0  0  0  0
 23 45  1  0  0  0  0
 23 46  1  0  0  0  0
 23 47  1  0  0  0  0
M  END
> <s_m_source_file>
AV-unprocessed.smi

> <i_m_source_file_index>
1963

> <i_lp_mmshare_version>
43012

> <i_f3d_flags>
0

> <s_epik_input>
W0NIM11DKD1PKVtOSF1bQ0BASF0oW0NIXShbQ0gzXSlbQ0gzXSlDKD1PKVtOSF1jMVtjSF1bY0hdYyhuW2NIXTEpTjJbQ0gyXVtDSDJdT1tDSDJdW0NIMl0y

> <s_epik_cmdline>
J2VwaWtfcHl0aG9uJywgJy1waCcsICc3LjAnLCAnLXRuJywgJzgnLCAnLW1hJywgJzIwMCcsICctbWV0YWxfYmluZGluZycsICctaW1hZScsICc8aW5maWxlLm1hZT4nLCAnLW9tYWUnLCAnPG91dGZpbGUubWFlPic=

> <r_lp_tautomer_probability>
1

> <r_epik_Ionization_Penalty>
0.00051446

> <r_epik_Ionization_Penalty_Charging>
0

> <r_epik_Ionization_Penalty_Neutral>
0.00051446

> <r_epik_State_Penalty>
0.00031949

> <r_epik_Charging_Adjusted_Penalty>
0.00031949

> <i_epik_Tot_Q>
0

> <i_epik_Tot_abs_Q>
0

> <r_epik_Metal_State_Penalty>
-0

> <b_epik_Metal_Only>
0

> <s_lp_Force_Field>
OPLS_2005

> <r_lp_Energy>
25.5716

> <b_lp_Chiralities_Consistent>
1

> <s_lp_Variant>
AV-unprocessed.smi:1963-2

> <Gold.Version>
5.8.1

> <Gold.Id.Protein>
6NUR|6NUR_protein|mol2

> <Gold.PLP.Fitness>
38.0288

> <Gold.PLP.PLP>
-32.2872

> <Gold.PLP.part.hbond>
-1.3051

> <Gold.PLP.part.metal>
0.0000

> <Gold.PLP.part.buried>
-7.6558

> <Gold.PLP.part.nonpolar>
-23.8916

> <Gold.PLP.part.repulsive>
0.2821

> <Gold.PLP.ligand.clash>
0.1336

> <Gold.PLP.ligand.torsion>
0.6547

> <Gold.PLP.Chemscore.Hbond>
1.2681

> <Gold.PLP.Chemscore.CHOScore>
1.0000

> <Gold.PLP.Chemscore.Metal>
0.0000

> <Gold.Chemscore.Hbonds>
donor molecule, donor type, donor heavy atom, donor atom, acceptor molecule, acceptor atom, score
      L1  H     4    27       P1 10747  1.00
      L1  H     8    29       P1 10957  0.29
      L1  C    20    40       P1 10957  1.00

> <Gold.PLP.Chemscore.Internal.Correction>
0.3803

> <Gold.Rescore>
     Score         DG    S(hbond)    S(metal)    S(lipo)     H(rot)  DE(clash)    DE(int)     intcor
     10.99     -12.99       1.12        0.00      70.27       1.74       0.01       1.99       ----

> <Gold.Chemscore.Fitness>
10.9905

> <Gold.Chemscore.DG>
-12.9909

> <Gold.Chemscore.ZeroCoef>
-5.4800

> <Gold.Chemscore.Hbond>
1.1203

> <Gold.Chemscore.Metal>
0.0000

> <Gold.Chemscore.Lipo>
70.2729

> <Gold.Chemscore.Internal_Hbond>
0.0000

> <Gold.Chemscore.DEClash>
0.0126

> <Gold.Chemscore.DEInternal>
1.9878

> <Gold.Chemscore.Rot>
1.7394

> <Gold.Chemscore.Internal.Correction>
   9.000000E+99

> <Gold.Chemscore.Hbonds>
donor molecule, donor type, donor heavy atom, donor atom, acceptor molecule, acceptor atom, score
      L1  H     4    27       P1 10747  0.98
      L1  H     8    29       P1 10957  0.04

> <Gold.Chemscore.Hbond.Weighted>
-3.7417

> <Gold.Chemscore.Metal.Weighted>
-0.0000

> <Gold.Chemscore.Lipo.Weighted>
-8.2219

> <Gold.Chemscore.Internal_Hbond.Weighted>
0.0000

> <Gold.Chemscore.DEClash.Weighted>
0.0126

> <Gold.Chemscore.DEInternal.Weighted>
1.9878

> <Gold.Chemscore.Rot.Weighted>
4.4528

> <Gold.Chemscore.Internal.Correction.Weighted>
   9.000000E+99

> <Gold.Protein.RotatedTorsions>
[ 6907 6896 6895 6894 ] final  145.03 input  -60.11 | X-H torsion
[ 7974 7965 7964 7962 ] final  -72.36 input  175.53 | X-H torsion
[ 8008 7997 7996 7995 ] final    7.94 input   59.86 | X-H torsion
[ 10167 10162 10161 10158 ] final  133.17 input  -65.29 | X-H torsion
[ 10718 10713 10712 10709 ] final -175.22 input   66.30 | X-H torsion
[ 10763 10752 10751 10750 ] final  -90.10 input  -60.55 | X-H torsion
[ 11005 11000 10999 10996 ] final -125.52 input  -57.11 | X-H torsion

> <Gold.Protein.ActiveResidues>
 VAL166  LYS551  ARG553  GLY616  TRP617  ASP618  TYR619  PRO620  LYS621  CYS622 
 ASP623  PHE694  ASN695  SER759  ASP760  ASP761  ALA762  ILE779  LEU786  VAL792 
 PHE793  MET794  SER795  GLU796  ALA797  LYS798  CYS799  TRP800  GLU811  SER814 

> <Gold.Protein.RotatedAtoms>
  152.1861  133.4741  159.4983 H   0  0  0  0  0  0  0  0  0  0  0  0  # atno 6907 bound_to 6896
  150.6943  134.1771  159.4243 H   0  0  0  0  0  0  0  0  0  0  0  0  # atno 6908 bound_to 6896
  151.9684  135.0088  160.0602 H   0  0  0  0  0  0  0  0  0  0  0  0  # atno 6909 bound_to 6896
  145.6661  140.9237  143.0908 H   0  0  0  0  0  0  0  0  0  0  0  0  # atno 7974 bound_to 7965
  154.7604  140.2783  155.6219 H   0  0  0  0  0  0  0  0  0  0  0  0  # atno 8008 bound_to 7997
  156.2914  140.2661  156.2308 H   0  0  0  0  0  0  0  0  0  0  0  0  # atno 8009 bound_to 7997
  155.0025  140.0372  157.2356 H   0  0  0  0  0  0  0  0  0  0  0  0  # atno 8010 bound_to 7997
  139.5308  144.6628  151.4957 H   0  0  0  0  0  0  0  0  0  0  0  0  # atno 10167 bound_to 10162
  156.7966  130.9537  151.3119 H   0  0  0  0  0  0  0  0  0  0  0  0  # atno 10718 bound_to 10713
  154.6623  135.5316  153.8033 H   0  0  0  0  0  0  0  0  0  0  0  0  # atno 10763 bound_to 10752
  153.0449  135.6508  154.0853 H   0  0  0  0  0  0  0  0  0  0  0  0  # atno 10764 bound_to 10752
  154.0761  135.2950  155.3279 H   0  0  0  0  0  0  0  0  0  0  0  0  # atno 10765 bound_to 10752
  140.9755  134.0746  157.3823 H   0  0  0  0  0  0  0  0  0  0  0  0  # atno 11005 bound_to 11000
  144.7072  139.8512  143.7426 LP  0  0  0  0  0  0  0  0  0  0  0  0  # atno 17320 bound_to 7965
  146.1085  139.4087  143.0303 LP  0  0  0  0  0  0  0  0  0  0  0  0  # atno 17321 bound_to 7965
  140.6485  143.8745  150.6761 LP  0  0  0  0  0  0  0  0  0  0  0  0  # atno 17342 bound_to 10162
  140.2103  143.3889  152.1724 LP  0  0  0  0  0  0  0  0  0  0  0  0  # atno 17343 bound_to 10162
  157.6574  130.8936  149.9758 LP  0  0  0  0  0  0  0  0  0  0  0  0  # atno 17370 bound_to 10713
  156.1126  130.3649  150.0022 LP  0  0  0  0  0  0  0  0  0  0  0  0  # atno 17371 bound_to 10713
  139.8929  135.0127  156.6870 LP  0  0  0  0  0  0  0  0  0  0  0  0  # atno 17394 bound_to 11000
  140.7265  133.9096  155.8182 LP  0  0  0  0  0  0  0  0  0  0  0  0  # atno 17395 bound_to 11000

$$$$
