AV-unprocessed.smi:865|AV-procd|sdf|3990|dock3
  -GOLD-   22720 1463D 1   1.00000     0.00000
 Structure written by MMmdl.
 36 36  0  0  0  0  0  0  0  0  1 V2000
  144.8331  131.5393  150.5439 C   0  0  0  0  0  0  0  0  0  0  0  0
  144.1153  132.8459  150.9146 C   0  0  0  0  0  0  0  0  0  0  0  0
  145.0066  134.1128  150.8359 C   0  0  0  0  0  0  0  0  0  0  0  0
  146.3328  133.9243  151.6164 C   0  0  0  0  0  0  0  0  0  0  0  0
  146.1614  133.4780  153.0764 C   0  0  0  0  0  0  0  0  0  0  0  0
  144.2462  135.3994  151.2656 C   0  0  2  0  0  0  0  0  0  0  0  0
  145.1410  136.4953  151.2401 O   0  0  0  0  0  0  0  0  0  0  0  0
  143.6115  135.3013  152.6715 C   0  0  0  0  0  0  0  0  0  0  0  0
  142.6427  136.3681  152.8946 N   0  0  0  0  0  0  0  0  0  0  0  0
  141.4987  136.2414  153.5842 C   0  0  0  0  0  0  0  0  0  0  0  0
  141.1023  135.1774  154.0586 O   0  0  0  0  0  0  0  0  0  0  0  0
  140.6815  137.5170  153.7847 C   0  0  0  0  0  0  0  0  0  0  0  0
  139.5744  137.2780  154.6911 N   0  0  0  0  0  0  0  0  0  0  0  0
  138.2552  137.3628  154.5060 C   0  0  0  0  0  0  0  0  0  0  0  0
  137.5864  137.0395  155.6024 N   0  0  0  0  0  0  0  0  0  0  0  0
  138.5910  136.7395  156.5073 N   0  0  0  0  0  0  0  0  0  0  0  0
  139.7728  136.8788  155.9722 N   0  0  0  0  0  0  0  0  0  0  0  0
  144.1269  130.7090  150.5219 H   0  0  0  0  0  0  0  0  0  0  0  0
  145.6104  131.2798  151.2616 H   0  0  0  0  0  0  0  0  0  0  0  0
  145.2919  131.6070  149.5573 H   0  0  0  0  0  0  0  0  0  0  0  0
  143.2698  132.9454  150.2354 H   0  0  0  0  0  0  0  0  0  0  0  0
  143.6849  132.7527  151.9122 H   0  0  0  0  0  0  0  0  0  0  0  0
  145.2759  134.2461  149.7870 H   0  0  0  0  0  0  0  0  0  0  0  0
  146.9814  133.2205  151.0942 H   0  0  0  0  0  0  0  0  0  0  0  0
  146.8790  134.8660  151.6378 H   0  0  0  0  0  0  0  0  0  0  0  0
  147.1199  133.4935  153.5956 H   0  0  0  0  0  0  0  0  0  0  0  0
  145.7742  132.4623  153.1514 H   0  0  0  0  0  0  0  0  0  0  0  0
  145.4841  134.1408  153.6155 H   0  0  0  0  0  0  0  0  0  0  0  0
  143.4491  135.5958  150.5491 H   0  0  0  0  0  0  0  0  0  0  0  0
  144.7289  137.2083  150.7767 H   0  0  0  0  0  0  0  0  0  0  0  0
  143.0532  134.3687  152.7556 H   0  0  0  0  0  0  0  0  0  0  0  0
  144.3658  135.2753  153.4601 H   0  0  0  0  0  0  0  0  0  0  0  0
  142.8831  137.2825  152.5396 H   0  0  0  0  0  0  0  0  0  0  0  0
  141.3142  138.3132  154.1802 H   0  0  0  0  0  0  0  0  0  0  0  0
  140.2841  137.8625  152.8294 H   0  0  0  0  0  0  0  0  0  0  0  0
  137.7904  137.6534  153.5755 H   0  0  0  0  0  0  0  0  0  0  0  0
  1  2  1  0  0  0  0
  1 18  1  0  0  0  0
  1 19  1  0  0  0  0
  1 20  1  0  0  0  0
  2  3  1  0  0  0  0
  2 21  1  0  0  0  0
  2 22  1  0  0  0  0
  3  4  1  0  0  0  0
  3  6  1  0  0  0  0
  3 23  1  0  0  0  0
  4  5  1  0  0  0  0
  4 24  1  0  0  0  0
  4 25  1  0  0  0  0
  5 26  1  0  0  0  0
  5 27  1  0  0  0  0
  5 28  1  0  0  0  0
  6  7  1  0  0  0  0
  6  8  1  0  0  0  0
  6 29  1  0  0  0  0
  7 30  1  0  0  0  0
  8  9  1  0  0  0  0
  8 31  1  0  0  0  0
  8 32  1  0  0  0  0
  9 10  1  0  0  0  0
  9 33  1  0  0  0  0
 10 11  2  0  0  0  0
 10 12  1  0  0  0  0
 12 13  1  0  0  0  0
 12 34  1  0  0  0  0
 12 35  1  0  0  0  0
 13 17  1  0  0  0  0
 13 14  1  0  0  0  0
 14 15  2  0  0  0  0
 14 36  1  0  0  0  0
 15 16  1  0  0  0  0
 16 17  2  0  0  0  0
M  END
> <s_m_source_file>
AV-unprocessed.smi

> <i_m_source_file_index>
865

> <i_lp_mmshare_version>
43012

> <i_f3d_flags>
0

> <s_epik_input>
W0NIM11bQ0gyXVtDSF0oW0NIMl1bQ0gzXSlbQ0BIXShbT0hdKVtDSDJdW05IXUMoPU8pW0NIMl1uMVtjSF1ubm4x

> <s_epik_cmdline>
J2VwaWtfcHl0aG9uJywgJy1waCcsICc3LjAnLCAnLXRuJywgJzgnLCAnLW1hJywgJzIwMCcsICctbWV0YWxfYmluZGluZycsICctaW1hZScsICc8aW5maWxlLm1hZT4nLCAnLW9tYWUnLCAnPG91dGZpbGUubWFlPic=

> <r_lp_tautomer_probability>
1

> <r_epik_Ionization_Penalty>
9.39891e-07

> <r_epik_Ionization_Penalty_Charging>
0

> <r_epik_Ionization_Penalty_Neutral>
9.39891e-07

> <r_epik_State_Penalty>
-0

> <r_epik_Charging_Adjusted_Penalty>
0

> <i_epik_Tot_Q>
0

> <i_epik_Tot_abs_Q>
0

> <r_epik_Metal_State_Penalty>
-0

> <b_epik_Metal_Only>
0

> <s_lp_Force_Field>
OPLS_2005

> <r_lp_Energy>
13.4574

> <b_lp_Chiralities_Consistent>
1

> <s_lp_Variant>
AV-unprocessed.smi:865-1

> <Gold.Version>
5.8.1

> <Gold.Id.Protein>
6NUR|6NUR_protein|mol2

> <Gold.PLP.Fitness>
37.3408

> <Gold.PLP.PLP>
-31.9188

> <Gold.PLP.part.hbond>
-3.7998

> <Gold.PLP.part.metal>
0.0000

> <Gold.PLP.part.buried>
-8.2763

> <Gold.PLP.part.nonpolar>
-20.2588

> <Gold.PLP.part.repulsive>
0.3688

> <Gold.PLP.ligand.clash>
0.0000

> <Gold.PLP.ligand.torsion>
0.4576

> <Gold.PLP.Chemscore.Hbond>
2.0000

> <Gold.PLP.Chemscore.CHOScore>
0.0000

> <Gold.PLP.Chemscore.Metal>
0.0000

> <Gold.Chemscore.Hbonds>
donor molecule, donor type, donor heavy atom, donor atom, acceptor molecule, acceptor atom, score
      L1  H     7    30       P1 10171  1.00
      P1  H 11000 11005       L1    11  0.99

> <Gold.PLP.Chemscore.Internal.Correction>
0.3371

> <Gold.Rescore>
     Score         DG    S(hbond)    S(metal)    S(lipo)     H(rot)  DE(clash)    DE(int)     intcor
      7.58      -8.26       1.96        0.00      50.75       3.80       0.03       0.65       ----

> <Gold.Chemscore.Fitness>
7.5788

> <Gold.Chemscore.DG>
-8.2574

> <Gold.Chemscore.ZeroCoef>
-5.4800

> <Gold.Chemscore.Hbond>
1.9635

> <Gold.Chemscore.Metal>
0.0000

> <Gold.Chemscore.Lipo>
50.7525

> <Gold.Chemscore.Internal_Hbond>
0.0000

> <Gold.Chemscore.DEClash>
0.0285

> <Gold.Chemscore.DEInternal>
0.6500

> <Gold.Chemscore.Rot>
3.7964

> <Gold.Chemscore.Internal.Correction>
   9.000000E+99

> <Gold.Chemscore.Hbonds>
donor molecule, donor type, donor heavy atom, donor atom, acceptor molecule, acceptor atom, score
      L1  H     7    30       P1 10171  1.00
      P1  H 11000 11005       L1    11  0.87

> <Gold.Chemscore.Hbond.Weighted>
-6.5581

> <Gold.Chemscore.Metal.Weighted>
-0.0000

> <Gold.Chemscore.Lipo.Weighted>
-5.9380

> <Gold.Chemscore.Internal_Hbond.Weighted>
0.0000

> <Gold.Chemscore.DEClash.Weighted>
0.0285

> <Gold.Chemscore.DEInternal.Weighted>
0.6500

> <Gold.Chemscore.Rot.Weighted>
9.7188

> <Gold.Chemscore.Internal.Correction.Weighted>
   9.000000E+99

> <Gold.Protein.RotatedTorsions>
[ 6907 6896 6895 6894 ] final   76.78 input  -60.11 | X-H torsion
[ 7974 7965 7964 7962 ] final  102.98 input  175.53 | X-H torsion
[ 8008 7997 7996 7995 ] final  -57.83 input   59.86 | X-H torsion
[ 10167 10162 10161 10158 ] final  155.31 input  -65.29 | X-H torsion
[ 10718 10713 10712 10709 ] final   27.39 input   66.30 | X-H torsion
[ 10763 10752 10751 10750 ] final  156.10 input  -60.55 | X-H torsion
[ 11005 11000 10999 10996 ] final   19.10 input  -57.11 | X-H torsion

> <Gold.Protein.ActiveResidues>
 VAL166  LYS551  ARG553  GLY616  TRP617  ASP618  TYR619  PRO620  LYS621  CYS622 
 ASP623  PHE694  ASN695  SER759  ASP760  ASP761  ALA762  ILE779  LEU786  VAL792 
 PHE793  MET794  SER795  GLU796  ALA797  LYS798  CYS799  TRP800  GLU811  SER814 

> <Gold.Protein.RotatedAtoms>
  152.5088  134.3917  159.9385 H   0  0  0  0  0  0  0  0  0  0  0  0  # atno 6907 bound_to 6896
  151.3877  133.3793  159.2725 H   0  0  0  0  0  0  0  0  0  0  0  0  # atno 6908 bound_to 6896
  150.9456  134.8882  159.7698 H   0  0  0  0  0  0  0  0  0  0  0  0  # atno 6909 bound_to 6896
  145.3519  139.2437  143.3553 H   0  0  0  0  0  0  0  0  0  0  0  0  # atno 7974 bound_to 7965
  154.4284  140.1098  156.5860 H   0  0  0  0  0  0  0  0  0  0  0  0  # atno 8008 bound_to 7997
  155.6062  140.3494  155.4589 H   0  0  0  0  0  0  0  0  0  0  0  0  # atno 8009 bound_to 7997
  156.0135  140.1224  157.0419 H   0  0  0  0  0  0  0  0  0  0  0  0  # atno 8010 bound_to 7997
  139.4821  144.5109  151.8025 H   0  0  0  0  0  0  0  0  0  0  0  0  # atno 10167 bound_to 10162
  157.2195  130.6972  149.6264 H   0  0  0  0  0  0  0  0  0  0  0  0  # atno 10718 bound_to 10713
  154.1789  135.2800  155.3058 H   0  0  0  0  0  0  0  0  0  0  0  0  # atno 10763 bound_to 10752
  154.6018  135.5527  153.7385 H   0  0  0  0  0  0  0  0  0  0  0  0  # atno 10764 bound_to 10752
  153.0143  135.6393  154.1928 H   0  0  0  0  0  0  0  0  0  0  0  0  # atno 10765 bound_to 10752
  140.4175  134.1554  155.7670 H   0  0  0  0  0  0  0  0  0  0  0  0  # atno 11005 bound_to 11000
  146.2964  140.4137  142.8720 LP  0  0  0  0  0  0  0  0  0  0  0  0  # atno 17320 bound_to 7965
  144.8711  140.7273  143.6046 LP  0  0  0  0  0  0  0  0  0  0  0  0  # atno 17321 bound_to 7965
  140.4612  144.1719  150.5906 LP  0  0  0  0  0  0  0  0  0  0  0  0  # atno 17342 bound_to 10162
  140.4482  143.2498  151.9383 LP  0  0  0  0  0  0  0  0  0  0  0  0  # atno 17343 bound_to 10162
  155.9683  130.4524  150.5774 LP  0  0  0  0  0  0  0  0  0  0  0  0  # atno 17370 bound_to 10713
  157.3590  131.0746  151.1652 LP  0  0  0  0  0  0  0  0  0  0  0  0  # atno 17371 bound_to 10713
  141.1797  133.8440  157.1300 LP  0  0  0  0  0  0  0  0  0  0  0  0  # atno 17394 bound_to 11000
  140.0224  134.9940  157.0617 LP  0  0  0  0  0  0  0  0  0  0  0  0  # atno 17395 bound_to 11000

$$$$
