AV-unprocessed.smi:3314|AV-procd|sdf|12748|dock3
  -GOLD-   2272019 83D 1   1.00000     0.00000
 Structure written by MMmdl.
 37 38  0  0  0  0  0  0  0  0  1 V2000
  151.9306  145.7166  160.0801 C   0  0  0  0  0  0  0  0  0  0  0  0
  152.1217  144.2847  159.6228 C   0  0  0  0  0  0  0  0  0  0  0  0
  152.8620  143.3429  160.4451 C   0  0  0  0  0  0  0  0  0  0  0  0
  153.0186  142.0768  160.0226 C   0  0  0  0  0  0  0  0  0  0  0  0
  153.7710  141.0183  160.8012 C   0  0  0  0  0  0  0  0  0  0  0  0
  152.4825  141.6577  158.8114 N   0  0  0  0  0  0  0  0  0  0  0  0
  151.7577  142.5072  157.9574 C   0  0  0  0  0  0  0  0  0  0  0  0
  151.2423  142.1653  156.8121 N   0  0  0  0  0  0  0  0  0  0  0  0
  151.3475  140.8762  156.2946 C   0  0  0  0  0  0  0  0  0  0  0  0
  152.3312  140.1320  156.2443 O   0  0  0  0  0  0  0  0  0  0  0  0
  150.0168  140.3797  155.7164 C   0  0  1  0  0  0  0  0  0  0  0  0
  148.9537  141.4988  155.7241 C   0  0  0  0  0  0  0  0  0  0  0  0
  147.7110  141.0701  155.0944 N   0  0  0  0  0  0  0  0  0  0  0  0
  146.7133  142.1292  155.0979 C   0  0  0  0  0  0  0  0  0  0  0  0
  147.9842  140.5934  153.7449 C   0  0  0  0  0  0  0  0  0  0  0  0
  149.0440  139.4785  153.7410 C   0  0  0  0  0  0  0  0  0  0  0  0
  150.2313  139.9477  154.3727 O   0  0  0  0  0  0  0  0  0  0  0  0
  151.6033  143.8708  158.4421 C   0  0  0  0  0  0  0  0  0  0  0  0
  152.4047  145.8891  161.0467 H   0  0  0  0  0  0  0  0  0  0  0  0
  150.8691  145.9458  160.1765 H   0  0  0  0  0  0  0  0  0  0  0  0
  152.3683  146.4072  159.3587 H   0  0  0  0  0  0  0  0  0  0  0  0
  153.2832  143.6579  161.3889 H   0  0  0  0  0  0  0  0  0  0  0  0
  154.1481  141.4155  161.7441 H   0  0  0  0  0  0  0  0  0  0  0  0
  154.6197  140.6533  160.2222 H   0  0  0  0  0  0  0  0  0  0  0  0
  153.1172  140.1749  161.0247 H   0  0  0  0  0  0  0  0  0  0  0  0
  149.6635  139.5270  156.3005 H   0  0  0  0  0  0  0  0  0  0  0  0
  148.7548  141.8067  156.7518 H   0  0  0  0  0  0  0  0  0  0  0  0
  149.3436  142.3774  155.2067 H   0  0  0  0  0  0  0  0  0  0  0  0
  145.7821  141.7843  154.6471 H   0  0  0  0  0  0  0  0  0  0  0  0
  147.0594  142.9991  154.5381 H   0  0  0  0  0  0  0  0  0  0  0  0
  146.4912  142.4473  156.1171 H   0  0  0  0  0  0  0  0  0  0  0  0
  147.0651  140.2224  153.2900 H   0  0  0  0  0  0  0  0  0  0  0  0
  148.3290  141.4206  153.1226 H   0  0  0  0  0  0  0  0  0  0  0  0
  148.6750  138.5919  154.2590 H   0  0  0  0  0  0  0  0  0  0  0  0
  149.2775  139.1794  152.7192 H   0  0  0  0  0  0  0  0  0  0  0  0
  151.0588  144.5990  157.8577 H   0  0  0  0  0  0  0  0  0  0  0  0
  152.6424  140.6914  158.5636 H   0  0  0  0  0  0  0  0  0  0  0  0
  1  2  1  0  0  0  0
  1 19  1  0  0  0  0
  1 20  1  0  0  0  0
  1 21  1  0  0  0  0
  2 18  2  0  0  0  0
  2  3  1  0  0  0  0
  3  4  2  0  0  0  0
  3 22  1  0  0  0  0
  4  5  1  0  0  0  0
  4  6  1  0  0  0  0
  5 23  1  0  0  0  0
  5 24  1  0  0  0  0
  5 25  1  0  0  0  0
  6  7  1  0  0  0  0
  6 37  1  0  0  0  0
  7  8  2  0  0  0  0
  7 18  1  0  0  0  0
  8  9  1  0  0  0  0
  9 10  2  0  0  0  0
  9 11  1  0  0  0  0
 11 17  1  0  0  0  0
 11 12  1  0  0  0  0
 11 26  1  0  0  0  0
 12 13  1  0  0  0  0
 12 27  1  0  0  0  0
 12 28  1  0  0  0  0
 13 14  1  0  0  0  0
 13 15  1  0  0  0  0
 14 29  1  0  0  0  0
 14 30  1  0  0  0  0
 14 31  1  0  0  0  0
 15 16  1  0  0  0  0
 15 32  1  0  0  0  0
 15 33  1  0  0  0  0
 16 17  1  0  0  0  0
 16 34  1  0  0  0  0
 16 35  1  0  0  0  0
 18 36  1  0  0  0  0
M  END
> <s_m_source_file>
AV-unprocessed.smi

> <i_m_source_file_index>
3314

> <i_lp_mmshare_version>
43012

> <i_f3d_flags>
0

> <s_epik_input>
W0NIM11jMVtjSF1jKFtDSDNdKW5jKFtjSF0xKVtOSF1DKD1PKVtDQEBIXTJbQ0gyXU4oW0NIM10pW0NIMl1bQ0gyXU8y

> <s_epik_cmdline>
J2VwaWtfcHl0aG9uJywgJy1waCcsICc3LjAnLCAnLXRuJywgJzgnLCAnLW1hJywgJzIwMCcsICctbWV0YWxfYmluZGluZycsICctaW1hZScsICc8aW5maWxlLm1hZT4nLCAnLW9tYWUnLCAnPG91dGZpbGUubWFlPic=

> <r_epik_Ionization_Penalty>
1.13914

> <r_epik_Ionization_Penalty_Charging>
0.583937

> <r_epik_Ionization_Penalty_Neutral>
0.555199

> <r_epik_State_Penalty>
2.94598

> <r_epik_Charging_Adjusted_Penalty>
3.52991

> <i_epik_Tot_Q>
0

> <i_epik_Tot_abs_Q>
0

> <r_epik_Metal_State_Penalty>
2.95583

> <b_epik_Metal_Only>
1

> <s_lp_Force_Field>
OPLS_2005

> <r_lp_Energy>
39.2006

> <b_lp_Chiralities_Consistent>
1

> <s_lp_Variant>
AV-unprocessed.smi:3314-18

> <Gold.Version>
5.8.1

> <Gold.Id.Protein>
6NUR|6NUR_protein|mol2

> <Gold.PLP.Fitness>
42.6438

> <Gold.PLP.PLP>
-37.5387

> <Gold.PLP.part.hbond>
-2.0000

> <Gold.PLP.part.metal>
0.0000

> <Gold.PLP.part.buried>
-0.1588

> <Gold.PLP.part.nonpolar>
-35.2907

> <Gold.PLP.part.repulsive>
0.3573

> <Gold.PLP.ligand.clash>
0.0000

> <Gold.PLP.ligand.torsion>
0.4475

> <Gold.PLP.Chemscore.Hbond>
2.0000

> <Gold.PLP.Chemscore.CHOScore>
0.0000

> <Gold.PLP.Chemscore.Metal>
0.0000

> <Gold.Chemscore.Hbonds>
donor molecule, donor type, donor heavy atom, donor atom, acceptor molecule, acceptor atom, score
      P1  H  7989  7998       L1    17  1.00
      P1  H  7997  8009       L1    10  1.00

> <Gold.PLP.Chemscore.Internal.Correction>
0.0002

> <Gold.Rescore>
     Score         DG    S(hbond)    S(metal)    S(lipo)     H(rot)  DE(clash)    DE(int)     intcor
     17.80     -19.94       1.77        0.00      94.99       1.00       0.58       1.56       ----

> <Gold.Chemscore.Fitness>
17.7997

> <Gold.Chemscore.DG>
-19.9371

> <Gold.Chemscore.ZeroCoef>
-5.4800

> <Gold.Chemscore.Hbond>
1.7673

> <Gold.Chemscore.Metal>
0.0000

> <Gold.Chemscore.Lipo>
94.9938

> <Gold.Chemscore.Internal_Hbond>
0.0000

> <Gold.Chemscore.DEClash>
0.5818

> <Gold.Chemscore.DEInternal>
1.5555

> <Gold.Chemscore.Rot>
1.0000

> <Gold.Chemscore.Internal.Correction>
   9.000000E+99

> <Gold.Chemscore.Hbonds>
donor molecule, donor type, donor heavy atom, donor atom, acceptor molecule, acceptor atom, score
      P1  H  7989  7998       L1    17  0.87
      P1  H  7997  8009       L1    10  0.95

> <Gold.Chemscore.Hbond.Weighted>
-5.9028

> <Gold.Chemscore.Metal.Weighted>
-0.0000

> <Gold.Chemscore.Lipo.Weighted>
-11.1143

> <Gold.Chemscore.Internal_Hbond.Weighted>
0.0000

> <Gold.Chemscore.DEClash.Weighted>
0.5818

> <Gold.Chemscore.DEInternal.Weighted>
1.5555

> <Gold.Chemscore.Rot.Weighted>
2.5600

> <Gold.Chemscore.Internal.Correction.Weighted>
   9.000000E+99

> <Gold.Protein.RotatedTorsions>
[ 6907 6896 6895 6894 ] final  144.70 input  -60.11 | X-H torsion
[ 7974 7965 7964 7962 ] final  -96.04 input  175.53 | X-H torsion
[ 8008 7997 7996 7995 ] final -160.27 input   59.86 | X-H torsion
[ 10167 10162 10161 10158 ] final   94.82 input  -65.29 | X-H torsion
[ 10718 10713 10712 10709 ] final  -76.21 input   66.30 | X-H torsion
[ 10763 10752 10751 10750 ] final  -81.62 input  -60.55 | X-H torsion
[ 11005 11000 10999 10996 ] final  -47.67 input  -57.11 | X-H torsion

> <Gold.Protein.ActiveResidues>
 VAL166  LYS551  ARG553  GLY616  TRP617  ASP618  TYR619  PRO620  LYS621  CYS622 
 ASP623  PHE694  ASN695  SER759  ASP760  ASP761  ALA762  ILE779  LEU786  VAL792 
 PHE793  MET794  SER795  GLU796  ALA797  LYS798  CYS799  TRP800  GLU811  SER814 

> <Gold.Protein.RotatedAtoms>
  152.1903  133.4768  159.5003 H   0  0  0  0  0  0  0  0  0  0  0  0  # atno 6907 bound_to 6896
  150.6950  134.1721  159.4225 H   0  0  0  0  0  0  0  0  0  0  0  0  # atno 6908 bound_to 6896
  151.9636  135.0111  160.0599 H   0  0  0  0  0  0  0  0  0  0  0  0  # atno 6909 bound_to 6896
  145.3522  140.9478  143.2548 H   0  0  0  0  0  0  0  0  0  0  0  0  # atno 7974 bound_to 7965
  155.7749  140.0857  157.2089 H   0  0  0  0  0  0  0  0  0  0  0  0  # atno 8008 bound_to 7997
  154.3994  140.1518  156.3042 H   0  0  0  0  0  0  0  0  0  0  0  0  # atno 8009 bound_to 7997
  155.8711  140.3425  155.5824 H   0  0  0  0  0  0  0  0  0  0  0  0  # atno 8010 bound_to 7997
  139.8047  144.6799  150.9718 H   0  0  0  0  0  0  0  0  0  0  0  0  # atno 10167 bound_to 10162
  156.0182  130.4460  150.3159 H   0  0  0  0  0  0  0  0  0  0  0  0  # atno 10718 bound_to 10713
  154.5658  135.5620  153.7049 H   0  0  0  0  0  0  0  0  0  0  0  0  # atno 10763 bound_to 10752
  153.0032  135.6285  154.2182 H   0  0  0  0  0  0  0  0  0  0  0  0  # atno 10764 bound_to 10752
  154.2120  135.2873  155.2934 H   0  0  0  0  0  0  0  0  0  0  0  0  # atno 10765 bound_to 10752
  141.0655  133.6695  156.3331 H   0  0  0  0  0  0  0  0  0  0  0  0  # atno 11005 bound_to 11000
  144.8709  139.5039  143.6768 LP  0  0  0  0  0  0  0  0  0  0  0  0  # atno 17320 bound_to 7965
  146.2963  139.7288  142.9124 LP  0  0  0  0  0  0  0  0  0  0  0  0  # atno 17321 bound_to 7965
  140.7819  143.4245  151.0789 LP  0  0  0  0  0  0  0  0  0  0  0  0  # atno 17342 bound_to 10162
  139.7915  143.8211  152.3152 LP  0  0  0  0  0  0  0  0  0  0  0  0  # atno 17343 bound_to 10162
  157.1260  131.0259  151.2989 LP  0  0  0  0  0  0  0  0  0  0  0  0  # atno 17370 bound_to 10713
  157.4589  130.7642  149.7218 LP  0  0  0  0  0  0  0  0  0  0  0  0  # atno 17371 bound_to 10713
  140.5782  134.5772  157.5473 LP  0  0  0  0  0  0  0  0  0  0  0  0  # atno 17394 bound_to 11000
  139.9472  134.7681  156.0534 LP  0  0  0  0  0  0  0  0  0  0  0  0  # atno 17395 bound_to 11000

$$$$
