AV-unprocessed.smi:1835|AV-procd|sdf|7474|dock2
  -GOLD-   22720 9173D 1   1.00000     0.00000
 Structure written by MMmdl.
 41 42  0  0  0  0  0  0  0  0  1 V2000
  148.4472  133.2322  153.1570 C   0  0  0  0  0  0  0  0  0  0  0  0
  149.6469  133.2617  154.1378 C   0  0  1  0  0  0  0  0  0  0  0  0
  149.5012  134.5006  155.0693 C   0  0  0  0  0  0  0  0  0  0  0  0
  149.9458  135.7481  154.4536 N   0  0  0  0  0  0  0  0  0  0  0  0
  150.8882  136.5612  154.9541 C   0  0  0  0  0  0  0  0  0  0  0  0
  151.4962  136.3239  155.9989 O   0  0  0  0  0  0  0  0  0  0  0  0
  151.1949  137.8205  154.1309 C   0  0  0  0  0  0  0  0  0  0  0  0
  150.1860  138.8814  154.2889 N   0  0  0  0  0  0  0  0  0  0  0  0
  148.8816  138.5976  153.8373 C   0  0  0  0  0  0  0  0  0  0  0  0
  147.8874  139.4948  153.9298 C   0  0  0  0  0  0  0  0  0  0  0  0
  148.1820  140.7824  154.5125 C   0  0  0  0  0  0  0  0  0  0  0  0
  149.4271  141.0655  154.9444 C   0  0  0  0  0  0  0  0  0  0  0  0
  150.5178  140.0889  154.8421 C   0  0  0  0  0  0  0  0  0  0  0  0
  151.6593  140.3410  155.2297 O   0  0  0  0  0  0  0  0  0  0  0  0
  149.8149  131.9889  154.8777 N   0  0  0  0  0  0  0  0  0  0  0  0
  149.8789  130.8245  153.9864 C   0  0  0  0  0  0  0  0  0  0  0  0
  150.0826  129.5014  154.7446 C   0  0  0  0  0  0  0  0  0  0  0  0
  151.2660  129.5768  155.5270 O   0  0  0  0  0  0  0  0  0  0  0  0
  151.2186  130.6457  156.4617 C   0  0  0  0  0  0  0  0  0  0  0  0
  151.0178  131.9783  155.7191 C   0  0  0  0  0  0  0  0  0  0  0  0
  148.2982  134.1865  152.6532 H   0  0  0  0  0  0  0  0  0  0  0  0
  147.5197  132.9874  153.6757 H   0  0  0  0  0  0  0  0  0  0  0  0
  148.5870  132.5089  152.3551 H   0  0  0  0  0  0  0  0  0  0  0  0
  150.5437  133.4158  153.5359 H   0  0  0  0  0  0  0  0  0  0  0  0
  148.4585  134.6213  155.3647 H   0  0  0  0  0  0  0  0  0  0  0  0
  150.0686  134.3905  155.9921 H   0  0  0  0  0  0  0  0  0  0  0  0
  149.4996  136.0138  153.5876 H   0  0  0  0  0  0  0  0  0  0  0  0
  152.1808  138.1847  154.4230 H   0  0  0  0  0  0  0  0  0  0  0  0
  151.2922  137.5496  153.0776 H   0  0  0  0  0  0  0  0  0  0  0  0
  148.7463  137.6155  153.4082 H   0  0  0  0  0  0  0  0  0  0  0  0
  146.8947  139.2610  153.5744 H   0  0  0  0  0  0  0  0  0  0  0  0
  147.4005  141.5225  154.6015 H   0  0  0  0  0  0  0  0  0  0  0  0
  149.6290  142.0346  155.3771 H   0  0  0  0  0  0  0  0  0  0  0  0
  148.9568  130.7254  153.4167 H   0  0  0  0  0  0  0  0  0  0  0  0
  150.6863  130.9552  153.2644 H   0  0  0  0  0  0  0  0  0  0  0  0
  149.2256  129.2865  155.3848 H   0  0  0  0  0  0  0  0  0  0  0  0
  150.1731  128.6730  154.0422 H   0  0  0  0  0  0  0  0  0  0  0  0
  150.4136  130.4776  157.1791 H   0  0  0  0  0  0  0  0  0  0  0  0
  152.1508  130.6648  157.0263 H   0  0  0  0  0  0  0  0  0  0  0  0
  151.8977  132.1888  155.1091 H   0  0  0  0  0  0  0  0  0  0  0  0
  150.9657  132.7546  156.4792 H   0  0  0  0  0  0  0  0  0  0  0  0
  1  2  1  0  0  0  0
  1 21  1  0  0  0  0
  1 22  1  0  0  0  0
  1 23  1  0  0  0  0
  2  3  1  0  0  0  0
  2 15  1  0  0  0  0
  2 24  1  0  0  0  0
  3  4  1  0  0  0  0
  3 25  1  0  0  0  0
  3 26  1  0  0  0  0
  4  5  1  0  0  0  0
  4 27  1  0  0  0  0
  5  6  2  0  0  0  0
  5  7  1  0  0  0  0
  7  8  1  0  0  0  0
  7 28  1  0  0  0  0
  7 29  1  0  0  0  0
  8 13  1  0  0  0  0
  8  9  1  0  0  0  0
  9 10  2  0  0  0  0
  9 30  1  0  0  0  0
 10 11  1  0  0  0  0
 10 31  1  0  0  0  0
 11 12  2  0  0  0  0
 11 32  1  0  0  0  0
 12 13  1  0  0  0  0
 12 33  1  0  0  0  0
 13 14  2  0  0  0  0
 15 20  1  0  0  0  0
 15 16  1  0  0  0  0
 16 17  1  0  0  0  0
 16 34  1  0  0  0  0
 16 35  1  0  0  0  0
 17 18  1  0  0  0  0
 17 36  1  0  0  0  0
 17 37  1  0  0  0  0
 18 19  1  0  0  0  0
 19 20  1  0  0  0  0
 19 38  1  0  0  0  0
 19 39  1  0  0  0  0
 20 40  1  0  0  0  0
 20 41  1  0  0  0  0
M  END
> <s_m_source_file>
AV-unprocessed.smi

> <i_m_source_file_index>
1835

> <i_lp_mmshare_version>
43012

> <i_f3d_flags>
0

> <s_epik_input>
W0NIMl0xW0NIMl1PW0NIMl1bQ0gyXU4xW0NASF0oW0NIM10pW0NIMl1bTkhdQyg9TylbQ0gyXW4yW2NIXVtjSF1bY0hdW2NIXWMyPU8=

> <s_epik_cmdline>
J2VwaWtfcHl0aG9uJywgJy1waCcsICc3LjAnLCAnLXRuJywgJzgnLCAnLW1hJywgJzIwMCcsICctbWV0YWxfYmluZGluZycsICctaW1hZScsICc8aW5maWxlLm1hZT4nLCAnLW9tYWUnLCAnPG91dGZpbGUubWFlPic=

> <r_lp_tautomer_probability>
1

> <r_epik_Ionization_Penalty>
0.237383

> <r_epik_Ionization_Penalty_Charging>
3.58805e-07

> <r_epik_Ionization_Penalty_Neutral>
0.237382

> <r_epik_State_Penalty>
0.228245

> <r_epik_Charging_Adjusted_Penalty>
0.228245

> <i_epik_Tot_Q>
0

> <i_epik_Tot_abs_Q>
0

> <r_epik_Metal_State_Penalty>
0.22822

> <b_epik_Metal_Only>
0

> <s_lp_Force_Field>
OPLS_2005

> <r_lp_Energy>
38.1368

> <b_lp_Chiralities_Consistent>
1

> <s_lp_Variant>
AV-unprocessed.smi:1835-2

> <Gold.Version>
5.8.1

> <Gold.Id.Protein>
6NUR|6NUR_protein|mol2

> <Gold.PLP.Fitness>
43.4111

> <Gold.PLP.PLP>
-35.4102

> <Gold.PLP.part.hbond>
-3.3169

> <Gold.PLP.part.metal>
0.0000

> <Gold.PLP.part.buried>
-0.2729

> <Gold.PLP.part.nonpolar>
-30.9457

> <Gold.PLP.part.repulsive>
0.1669

> <Gold.PLP.ligand.clash>
0.0000

> <Gold.PLP.ligand.torsion>
0.5232

> <Gold.PLP.Chemscore.Hbond>
2.0000

> <Gold.PLP.Chemscore.CHOScore>
1.0000

> <Gold.PLP.Chemscore.Metal>
0.0000

> <Gold.Chemscore.Hbonds>
donor molecule, donor type, donor heavy atom, donor atom, acceptor molecule, acceptor atom, score
      L1  H     4    27       P1  7948  1.00
      P1  H 10752 10764       L1     6  0.67
      L1  C     9    30       P1  7948  1.00

> <Gold.PLP.Chemscore.Internal.Correction>
0.0474

> <Gold.Rescore>
     Score         DG    S(hbond)    S(metal)    S(lipo)     H(rot)  DE(clash)    DE(int)     intcor
     12.38     -14.09       1.68        0.00      66.99       1.89       0.33       1.38       ----

> <Gold.Chemscore.Fitness>
12.3819

> <Gold.Chemscore.DG>
-14.0916

> <Gold.Chemscore.ZeroCoef>
-5.4800

> <Gold.Chemscore.Hbond>
1.6790

> <Gold.Chemscore.Metal>
0.0000

> <Gold.Chemscore.Lipo>
66.9875

> <Gold.Chemscore.Internal_Hbond>
0.0000

> <Gold.Chemscore.DEClash>
0.3278

> <Gold.Chemscore.DEInternal>
1.3819

> <Gold.Chemscore.Rot>
1.8882

> <Gold.Chemscore.Internal.Correction>
   9.000000E+99

> <Gold.Chemscore.Hbonds>
donor molecule, donor type, donor heavy atom, donor atom, acceptor molecule, acceptor atom, score
      L1  H     4    27       P1  7948  0.45
      P1  H 10752 10764       L1     6  0.13

> <Gold.Chemscore.Hbond.Weighted>
-5.6079

> <Gold.Chemscore.Metal.Weighted>
-0.0000

> <Gold.Chemscore.Lipo.Weighted>
-7.8375

> <Gold.Chemscore.Internal_Hbond.Weighted>
0.0000

> <Gold.Chemscore.DEClash.Weighted>
0.3278

> <Gold.Chemscore.DEInternal.Weighted>
1.3819

> <Gold.Chemscore.Rot.Weighted>
4.8338

> <Gold.Chemscore.Internal.Correction.Weighted>
   9.000000E+99

> <Gold.Protein.RotatedTorsions>
[ 6907 6896 6895 6894 ] final    9.01 input  -60.11 | X-H torsion
[ 7974 7965 7964 7962 ] final  -13.41 input  175.53 | X-H torsion
[ 8008 7997 7996 7995 ] final  -76.31 input   59.86 | X-H torsion
[ 10167 10162 10161 10158 ] final  -43.82 input  -65.29 | X-H torsion
[ 10718 10713 10712 10709 ] final -157.87 input   66.30 | X-H torsion
[ 10763 10752 10751 10750 ] final  -19.98 input  -60.55 | X-H torsion
[ 11005 11000 10999 10996 ] final   83.27 input  -57.11 | X-H torsion

> <Gold.Protein.ActiveResidues>
 VAL166  LYS551  ARG553  GLY616  TRP617  ASP618  TYR619  PRO620  LYS621  CYS622 
 ASP623  PHE694  ASN695  SER759  ASP760  ASP761  ALA762  ILE779  LEU786  VAL792 
 PHE793  MET794  SER795  GLU796  ALA797  LYS798  CYS799  TRP800  GLU811  SER814 

> <Gold.Protein.RotatedAtoms>
  151.7153  135.0905  160.0274 H   0  0  0  0  0  0  0  0  0  0  0  0  # atno 6907 bound_to 6896
  152.3636  133.6324  159.6042 H   0  0  0  0  0  0  0  0  0  0  0  0  # atno 6908 bound_to 6896
  150.7622  133.9300  159.3465 H   0  0  0  0  0  0  0  0  0  0  0  0  # atno 6909 bound_to 6896
  146.2115  140.3199  142.8389 H   0  0  0  0  0  0  0  0  0  0  0  0  # atno 7974 bound_to 7965
  154.5494  140.0729  156.8642 H   0  0  0  0  0  0  0  0  0  0  0  0  # atno 8008 bound_to 7997
  155.3023  140.3385  155.4229 H   0  0  0  0  0  0  0  0  0  0  0  0  # atno 8009 bound_to 7997
  156.1947  140.1699  156.8007 H   0  0  0  0  0  0  0  0  0  0  0  0  # atno 8010 bound_to 7997
  140.6920  143.2962  151.3407 H   0  0  0  0  0  0  0  0  0  0  0  0  # atno 10167 bound_to 10162
  156.5463  130.8585  151.2765 H   0  0  0  0  0  0  0  0  0  0  0  0  # atno 10718 bound_to 10713
  153.6132  135.6995  153.5338 H   0  0  0  0  0  0  0  0  0  0  0  0  # atno 10763 bound_to 10752
  153.2999  135.4132  155.1242 H   0  0  0  0  0  0  0  0  0  0  0  0  # atno 10764 bound_to 10752
  154.8559  135.3646  154.5671 H   0  0  0  0  0  0  0  0  0  0  0  0  # atno 10765 bound_to 10752
  139.9036  134.8133  156.2287 H   0  0  0  0  0  0  0  0  0  0  0  0  # atno 11005 bound_to 11000
  144.8927  140.7544  143.5916 LP  0  0  0  0  0  0  0  0  0  0  0  0  # atno 17320 bound_to 7965
  145.3122  139.1815  143.4632 LP  0  0  0  0  0  0  0  0  0  0  0  0  # atno 17321 bound_to 7965
  139.6332  144.0680  152.2494 LP  0  0  0  0  0  0  0  0  0  0  0  0  # atno 17342 bound_to 10162
  140.0162  144.6187  150.7605 LP  0  0  0  0  0  0  0  0  0  0  0  0  # atno 17343 bound_to 10162
  157.7396  130.9834  150.2323 LP  0  0  0  0  0  0  0  0  0  0  0  0  # atno 17370 bound_to 10713
  156.2925  130.3747  149.7827 LP  0  0  0  0  0  0  0  0  0  0  0  0  # atno 17371 bound_to 10713
  141.0359  133.6963  156.1512 LP  0  0  0  0  0  0  0  0  0  0  0  0  # atno 17394 bound_to 11000
  140.7027  134.4546  157.5585 LP  0  0  0  0  0  0  0  0  0  0  0  0  # atno 17395 bound_to 11000

$$$$
