AV-unprocessed.smi:3263|AV-procd|sdf|12486|dock5
  -GOLD-   2272018383D 1   1.00000     0.00000
 Structure written by MMmdl.
 41 43  0  0  0  0  0  0  0  0  1 V2000
  147.8110  144.1915  161.2723 O   0  0  0  0  0  0  0  0  0  0  0  0
  147.8171  144.5267  160.0880 C   0  0  0  0  0  0  0  0  0  0  0  0
  148.9894  144.1364  159.1839 C   0  0  0  0  0  0  0  0  0  0  0  0
  150.3343  144.0642  159.9418 C   0  0  2  0  0  0  0  0  0  0  0  0
  151.0720  145.4165  160.0457 C   0  0  0  0  0  0  0  0  0  0  0  0
  152.4955  145.0709  159.5682 C   0  0  2  0  0  0  0  0  0  0  0  0
  152.4812  144.8660  158.0421 C   0  0  0  0  0  0  0  0  0  0  0  0
  151.7605  143.5142  157.8896 C   0  0  0  0  0  0  0  0  0  0  0  0
  151.4265  143.1382  159.3480 C   0  0  1  0  0  0  0  0  0  0  0  0
  152.6682  143.6435  160.0750 C   0  0  0  0  0  0  0  0  0  0  0  0
  146.8249  145.2227  159.5127 N   0  0  0  0  0  0  0  0  0  0  0  0
  145.5929  145.6282  160.1780 C   0  0  0  0  0  0  0  0  0  0  0  0
  144.6323  146.3274  159.2010 C   0  0  0  0  0  0  0  0  0  0  0  0
  145.0047  147.7790  158.9673 C   0  0  0  0  0  0  0  0  0  0  0  0
  145.1280  148.2902  157.6575 C   0  0  0  0  0  0  0  0  0  0  0  0
  145.4809  149.6440  157.4964 C   0  0  0  0  0  0  0  0  0  0  0  0
  145.6960  150.4303  158.6448 C   0  0  0  0  0  0  0  0  0  0  0  0
  145.5484  149.8251  159.9087 C   0  0  0  0  0  0  0  0  0  0  0  0
  145.2103  148.5281  160.0741 N   0  0  0  0  0  0  0  0  0  0  0  0
  148.7773  143.1887  158.6871 H   0  0  0  0  0  0  0  0  0  0  0  0
  149.0629  144.8785  158.3886 H   0  0  0  0  0  0  0  0  0  0  0  0
  150.1259  143.7207  160.9570 H   0  0  0  0  0  0  0  0  0  0  0  0
  150.6183  146.1985  159.4355 H   0  0  0  0  0  0  0  0  0  0  0  0
  151.0804  145.7679  161.0782 H   0  0  0  0  0  0  0  0  0  0  0  0
  153.2540  145.7770  159.9071 H   0  0  0  0  0  0  0  0  0  0  0  0
  151.9665  145.6736  157.5203 H   0  0  0  0  0  0  0  0  0  0  0  0
  153.4960  144.8050  157.6468 H   0  0  0  0  0  0  0  0  0  0  0  0
  150.8841  143.5729  157.2455 H   0  0  0  0  0  0  0  0  0  0  0  0
  152.4329  142.7751  157.4521 H   0  0  0  0  0  0  0  0  0  0  0  0
  151.2238  142.0758  159.4886 H   0  0  0  0  0  0  0  0  0  0  0  0
  153.5921  143.1719  159.7355 H   0  0  0  0  0  0  0  0  0  0  0  0
  152.6023  143.5585  161.1612 H   0  0  0  0  0  0  0  0  0  0  0  0
  146.9159  145.4600  158.5353 H   0  0  0  0  0  0  0  0  0  0  0  0
  145.1130  144.7627  160.6382 H   0  0  0  0  0  0  0  0  0  0  0  0
  145.8542  146.3074  160.9901 H   0  0  0  0  0  0  0  0  0  0  0  0
  144.6263  145.8004  158.2459 H   0  0  0  0  0  0  0  0  0  0  0  0
  143.6097  146.2860  159.5792 H   0  0  0  0  0  0  0  0  0  0  0  0
  144.9568  147.6619  156.7956 H   0  0  0  0  0  0  0  0  0  0  0  0
  145.5854  150.0715  156.5101 H   0  0  0  0  0  0  0  0  0  0  0  0
  145.9679  151.4720  158.5594 H   0  0  0  0  0  0  0  0  0  0  0  0
  145.7067  150.3977  160.8107 H   0  0  0  0  0  0  0  0  0  0  0  0
  1  2  2  0  0  0  0
  2  3  1  0  0  0  0
  2 11  1  0  0  0  0
  3  4  1  0  0  0  0
  3 20  1  0  0  0  0
  3 21  1  0  0  0  0
  4  9  1  0  0  0  0
  4  5  1  0  0  0  0
  4 22  1  0  0  0  0
  5  6  1  0  0  0  0
  5 23  1  0  0  0  0
  5 24  1  0  0  0  0
  6 10  1  0  0  0  0
  6  7  1  0  0  0  0
  6 25  1  0  0  0  0
  7  8  1  0  0  0  0
  7 26  1  0  0  0  0
  7 27  1  0  0  0  0
  8  9  1  0  0  0  0
  8 28  1  0  0  0  0
  8 29  1  0  0  0  0
  9 10  1  0  0  0  0
  9 30  1  0  0  0  0
 10 31  1  0  0  0  0
 10 32  1  0  0  0  0
 11 12  1  0  0  0  0
 11 33  1  0  0  0  0
 12 13  1  0  0  0  0
 12 34  1  0  0  0  0
 12 35  1  0  0  0  0
 13 14  1  0  0  0  0
 13 36  1  0  0  0  0
 13 37  1  0  0  0  0
 14 19  1  0  0  0  0
 14 15  2  0  0  0  0
 15 16  1  0  0  0  0
 15 38  1  0  0  0  0
 16 17  2  0  0  0  0
 16 39  1  0  0  0  0
 17 18  1  0  0  0  0
 17 40  1  0  0  0  0
 18 19  2  0  0  0  0
 18 41  1  0  0  0  0
M  END
> <s_m_source_file>
AV-unprocessed.smi

> <i_m_source_file_index>
3263

> <i_lp_mmshare_version>
43012

> <i_f3d_flags>
0

> <s_epik_input>
W0NIMl0xW0NIMl1bQ0BASF0oW0NIMl0yKVtDQEBIXShbQ0gyXVtDQEhdMTIpW0NIMl1DKD1PKVtOSF1bQ0gyXVtDSDJdYzNbY0hdW2NIXVtjSF1bY0hdbjM=

> <s_epik_cmdline>
J2VwaWtfcHl0aG9uJywgJy1waCcsICc3LjAnLCAnLXRuJywgJzgnLCAnLW1hJywgJzIwMCcsICctbWV0YWxfYmluZGluZycsICctaW1hZScsICc8aW5maWxlLm1hZT4nLCAnLW9tYWUnLCAnPG91dGZpbGUubWFlPic=

> <r_epik_Ionization_Penalty>
0.0273541

> <r_epik_Ionization_Penalty_Charging>
0

> <r_epik_Ionization_Penalty_Neutral>
0.0273541

> <r_epik_State_Penalty>
0.0223838

> <r_epik_Charging_Adjusted_Penalty>
0.0223838

> <i_epik_Tot_Q>
0

> <i_epik_Tot_abs_Q>
0

> <r_epik_Metal_State_Penalty>
0.0213927

> <b_epik_Metal_Only>
0

> <s_lp_Force_Field>
OPLS_2005

> <r_lp_Energy>
46.2802

> <b_lp_Chiralities_Consistent>
1

> <s_lp_Variant>
AV-unprocessed.smi:3263-1

> <Gold.Version>
5.8.1

> <Gold.Id.Protein>
6NUR|6NUR_protein|mol2

> <Gold.PLP.Fitness>
50.8146

> <Gold.PLP.PLP>
-46.4877

> <Gold.PLP.part.hbond>
-2.0000

> <Gold.PLP.part.metal>
0.0000

> <Gold.PLP.part.buried>
-6.5917

> <Gold.PLP.part.nonpolar>
-38.8285

> <Gold.PLP.part.repulsive>
0.3365

> <Gold.PLP.ligand.clash>
0.0000

> <Gold.PLP.ligand.torsion>
0.8549

> <Gold.PLP.Chemscore.Hbond>
2.0000

> <Gold.PLP.Chemscore.CHOScore>
0.0000

> <Gold.PLP.Chemscore.Metal>
0.0000

> <Gold.Chemscore.Hbonds>
donor molecule, donor type, donor heavy atom, donor atom, acceptor molecule, acceptor atom, score
      L1  H    11    33       P1  8029  1.00
      P1  H  6933  6944       L1     1  1.00

> <Gold.PLP.Chemscore.Internal.Correction>
0.0367

> <Gold.Rescore>
     Score         DG    S(hbond)    S(metal)    S(lipo)     H(rot)  DE(clash)    DE(int)     intcor
     22.35     -24.31       1.85        0.00     140.05       1.46       1.14       0.82       ----

> <Gold.Chemscore.Fitness>
22.3507

> <Gold.Chemscore.DG>
-24.3129

> <Gold.Chemscore.ZeroCoef>
-5.4800

> <Gold.Chemscore.Hbond>
1.8483

> <Gold.Chemscore.Metal>
0.0000

> <Gold.Chemscore.Lipo>
140.0482

> <Gold.Chemscore.Internal_Hbond>
0.0000

> <Gold.Chemscore.DEClash>
1.1412

> <Gold.Chemscore.DEInternal>
0.8210

> <Gold.Chemscore.Rot>
1.4555

> <Gold.Chemscore.Internal.Correction>
   9.000000E+99

> <Gold.Chemscore.Hbonds>
donor molecule, donor type, donor heavy atom, donor atom, acceptor molecule, acceptor atom, score
      L1  H    11    33       P1  8029  0.94
      P1  H  6933  6944       L1     1  0.73

> <Gold.Chemscore.Hbond.Weighted>
-6.1733

> <Gold.Chemscore.Metal.Weighted>
-0.0000

> <Gold.Chemscore.Lipo.Weighted>
-16.3856

> <Gold.Chemscore.Internal_Hbond.Weighted>
0.0000

> <Gold.Chemscore.DEClash.Weighted>
1.1412

> <Gold.Chemscore.DEInternal.Weighted>
0.8210

> <Gold.Chemscore.Rot.Weighted>
3.7260

> <Gold.Chemscore.Internal.Correction.Weighted>
   9.000000E+99

> <Gold.Protein.RotatedTorsions>
[ 6907 6896 6895 6894 ] final   77.31 input  -60.11 | X-H torsion
[ 7974 7965 7964 7962 ] final  -39.58 input  175.53 | X-H torsion
[ 8008 7997 7996 7995 ] final  -33.70 input   59.86 | X-H torsion
[ 10167 10162 10161 10158 ] final   34.85 input  -65.29 | X-H torsion
[ 10718 10713 10712 10709 ] final -109.31 input   66.30 | X-H torsion
[ 10763 10752 10751 10750 ] final   54.36 input  -60.55 | X-H torsion
[ 11005 11000 10999 10996 ] final -127.60 input  -57.11 | X-H torsion

> <Gold.Protein.ActiveResidues>
 VAL166  LYS551  ARG553  GLY616  TRP617  ASP618  TYR619  PRO620  LYS621  CYS622 
 ASP623  PHE694  ASN695  SER759  ASP760  ASP761  ALA762  ILE779  LEU786  VAL792 
 PHE793  MET794  SER795  GLU796  ALA797  LYS798  CYS799  TRP800  GLU811  SER814 

> <Gold.Protein.RotatedAtoms>
  152.5112  134.3836  159.9359 H   0  0  0  0  0  0  0  0  0  0  0  0  # atno 6907 bound_to 6896
  151.3794  133.3820  159.2716 H   0  0  0  0  0  0  0  0  0  0  0  0  # atno 6908 bound_to 6896
  150.9516  134.8935  159.7734 H   0  0  0  0  0  0  0  0  0  0  0  0  # atno 6909 bound_to 6896
  146.0383  140.6641  142.9099 H   0  0  0  0  0  0  0  0  0  0  0  0  # atno 7974 bound_to 7965
  154.4141  140.1703  156.1931 H   0  0  0  0  0  0  0  0  0  0  0  0  # atno 8008 bound_to 7997
  155.9587  140.3395  155.6447 H   0  0  0  0  0  0  0  0  0  0  0  0  # atno 8009 bound_to 7997
  155.6777  140.0719  157.2487 H   0  0  0  0  0  0  0  0  0  0  0  0  # atno 8010 bound_to 7997
  140.4277  144.1370  150.6155 H   0  0  0  0  0  0  0  0  0  0  0  0  # atno 10167 bound_to 10162
  156.0530  130.5757  150.8082 H   0  0  0  0  0  0  0  0  0  0  0  0  # atno 10718 bound_to 10713
  152.9804  135.5747  154.4892 H   0  0  0  0  0  0  0  0  0  0  0  0  # atno 10763 bound_to 10752
  154.4429  135.2776  155.1837 H   0  0  0  0  0  0  0  0  0  0  0  0  # atno 10764 bound_to 10752
  154.3498  135.6211  153.5690 H   0  0  0  0  0  0  0  0  0  0  0  0  # atno 10765 bound_to 10752
  140.9586  134.0967  157.3991 H   0  0  0  0  0  0  0  0  0  0  0  0  # atno 11005 bound_to 11000
  144.7062  140.3862  143.7116 LP  0  0  0  0  0  0  0  0  0  0  0  0  # atno 17320 bound_to 7965
  145.6926  139.1642  143.2638 LP  0  0  0  0  0  0  0  0  0  0  0  0  # atno 17321 bound_to 7965
  140.4463  143.2505  151.9407 LP  0  0  0  0  0  0  0  0  0  0  0  0  # atno 17342 bound_to 10162
  139.4784  144.5606  151.8245 LP  0  0  0  0  0  0  0  0  0  0  0  0  # atno 17343 bound_to 10162
  157.5475  131.0943  150.9742 LP  0  0  0  0  0  0  0  0  0  0  0  0  # atno 17370 bound_to 10713
  157.0010  130.5600  149.5311 LP  0  0  0  0  0  0  0  0  0  0  0  0  # atno 17371 bound_to 10713
  139.8870  135.0086  156.6535 LP  0  0  0  0  0  0  0  0  0  0  0  0  # atno 17394 bound_to 11000
  140.7500  133.8905  155.8340 LP  0  0  0  0  0  0  0  0  0  0  0  0  # atno 17395 bound_to 11000

$$$$
