AV-unprocessed.smi:3055|AV-procd|sdf|11643|dock4
  -GOLD-   2272017 33D 1   1.00000     0.00000
 Structure written by MMmdl.
 47 49  0  0  0  0  0  0  0  0  2 V2000
  146.8014  138.0216  151.0954 O   0  0  0  0  0  0  0  0  0  0  0  0
  146.2374  137.5637  152.0893 C   0  0  0  0  0  0  0  0  0  0  0  0
  146.2889  138.1796  153.2810 N   0  0  0  0  0  0  0  0  0  0  0  0
  147.0008  139.4231  153.5385 C   0  0  0  0  0  0  0  0  0  0  0  0
  147.6876  139.3777  154.9098 C   0  0  0  0  0  0  0  0  0  0  0  0
  149.1294  139.3241  154.7782 N   0  0  0  0  0  0  0  0  0  0  0  0
  149.8937  138.2376  154.3740 C   0  0  0  0  0  0  0  0  0  0  0  0
  151.2072  138.6489  154.4029 C   0  0  0  0  0  0  0  0  0  0  0  0
  151.2737  139.9765  154.8195 N   0  0  0  0  0  0  0  0  0  0  0  0
  150.0053  140.3082  155.0234 C   0  0  0  0  0  0  0  0  0  0  0  0
  145.5082  136.4187  152.0677 N   0  0  0  0  0  0  0  0  0  0  0  0
  145.0205  135.7152  150.8682 C   0  0  0  0  0  0  0  0  0  0  0  0
  145.7299  134.3548  150.7608 C   0  0  0  0  0  0  0  0  0  0  0  0
  145.5335  133.5297  152.0468 C   0  0  0  0  0  0  0  0  0  0  0  0
  145.9229  134.3235  153.3213 C   0  0  1  0  0  0  0  0  0  0  0  0
  147.3997  134.5044  153.4466 N   0  3  0  0  0  0  0  0  0  0  0  0
  147.8594  135.0612  154.7362 C   0  0  0  0  0  0  0  0  0  0  0  0
  149.3566  134.7787  154.7686 C   0  0  0  0  0  0  0  0  0  0  0  0
  149.4846  133.4256  154.0733 C   0  0  0  0  0  0  0  0  0  0  0  0
  148.2177  133.2889  153.2161 C   0  0  0  0  0  0  0  0  0  0  0  0
  145.1702  135.6788  153.2945 C   0  0  0  0  0  0  0  0  0  0  0  0
  145.8058  137.7556  154.0598 H   0  0  0  0  0  0  0  0  0  0  0  0
  147.7404  139.5828  152.7524 H   0  0  0  0  0  0  0  0  0  0  0  0
  146.3001  140.2589  153.4988 H   0  0  0  0  0  0  0  0  0  0  0  0
  147.4275  140.2582  155.4987 H   0  0  0  0  0  0  0  0  0  0  0  0
  147.3559  138.5059  155.4758 H   0  0  0  0  0  0  0  0  0  0  0  0
  149.4529  137.2882  154.1081 H   0  0  0  0  0  0  0  0  0  0  0  0
  152.1022  138.0955  154.1590 H   0  0  0  0  0  0  0  0  0  0  0  0
  149.7066  141.2901  155.3604 H   0  0  0  0  0  0  0  0  0  0  0  0
  143.9437  135.5646  150.9599 H   0  0  0  0  0  0  0  0  0  0  0  0
  145.1528  136.2688  149.9388 H   0  0  0  0  0  0  0  0  0  0  0  0
  145.3469  133.8015  149.9028 H   0  0  0  0  0  0  0  0  0  0  0  0
  146.7942  134.5092  150.5784 H   0  0  0  0  0  0  0  0  0  0  0  0
  144.4788  133.2609  152.1198 H   0  0  0  0  0  0  0  0  0  0  0  0
  146.0630  132.5804  151.9733 H   0  0  0  0  0  0  0  0  0  0  0  0
  145.5881  133.7549  154.1904 H   0  0  0  0  0  0  0  0  0  0  0  0
  147.6501  136.1251  154.8340 H   0  0  0  0  0  0  0  0  0  0  0  0
  147.3658  134.5415  155.5592 H   0  0  0  0  0  0  0  0  0  0  0  0
  149.8856  135.5401  154.1937 H   0  0  0  0  0  0  0  0  0  0  0  0
  149.7657  134.7774  155.7793 H   0  0  0  0  0  0  0  0  0  0  0  0
  150.3951  133.3648  153.4759 H   0  0  0  0  0  0  0  0  0  0  0  0
  149.5215  132.6240  154.8119 H   0  0  0  0  0  0  0  0  0  0  0  0
  147.6725  132.3945  153.5219 H   0  0  0  0  0  0  0  0  0  0  0  0
  148.4559  133.1908  152.1565 H   0  0  0  0  0  0  0  0  0  0  0  0
  145.3622  136.2512  154.2024 H   0  0  0  0  0  0  0  0  0  0  0  0
  144.0944  135.4983  153.3070 H   0  0  0  0  0  0  0  0  0  0  0  0
  147.6808  135.1680  152.7391 H   0  0  0  0  0  0  0  0  0  0  0  0
  1  2  2  0  0  0  0
  2  3  1  0  0  0  0
  2 11  1  0  0  0  0
  3  4  1  0  0  0  0
  3 22  1  0  0  0  0
  4  5  1  0  0  0  0
  4 23  1  0  0  0  0
  4 24  1  0  0  0  0
  5  6  1  0  0  0  0
  5 25  1  0  0  0  0
  5 26  1  0  0  0  0
  6 10  1  0  0  0  0
  6  7  1  0  0  0  0
  7  8  2  0  0  0  0
  7 27  1  0  0  0  0
  8  9  1  0  0  0  0
  8 28  1  0  0  0  0
  9 10  2  0  0  0  0
 10 29  1  0  0  0  0
 11 21  1  0  0  0  0
 11 12  1  0  0  0  0
 12 13  1  0  0  0  0
 12 30  1  0  0  0  0
 12 31  1  0  0  0  0
 13 14  1  0  0  0  0
 13 32  1  0  0  0  0
 13 33  1  0  0  0  0
 14 15  1  0  0  0  0
 14 34  1  0  0  0  0
 14 35  1  0  0  0  0
 15 16  1  0  0  0  0
 15 21  1  0  0  0  0
 15 36  1  0  0  0  0
 16 20  1  0  0  0  0
 16 17  1  0  0  0  0
 16 47  1  0  0  0  0
 17 18  1  0  0  0  0
 17 37  1  0  0  0  0
 17 38  1  0  0  0  0
 18 19  1  0  0  0  0
 18 39  1  0  0  0  0
 18 40  1  0  0  0  0
 19 20  1  0  0  0  0
 19 41  1  0  0  0  0
 19 42  1  0  0  0  0
 20 43  1  0  0  0  0
 20 44  1  0  0  0  0
 21 45  1  0  0  0  0
 21 46  1  0  0  0  0
M  CHG  1  16   1
M  END
> <s_m_source_file>
AV-unprocessed.smi

> <i_m_source_file_index>
3055

> <i_lp_mmshare_version>
43012

> <i_f3d_flags>
0

> <s_epik_input>
W2NIXTFuW2NIXVtjSF1uMVtDSDJdW0NIMl1bTkhdQyg9TylOMltDSDJdW0NIMl1bQ0gyXVtDQEhdKFtDSDJdMilOM1tDSDJdW0NIMl1bQ0gyXVtDSDJdMw==

> <s_epik_cmdline>
J2VwaWtfcHl0aG9uJywgJy1waCcsICc3LjAnLCAnLXRuJywgJzgnLCAnLW1hJywgJzIwMCcsICctbWV0YWxfYmluZGluZycsICctaW1hZScsICc8aW5maWxlLm1hZT4nLCAnLW9tYWUnLCAnPG91dGZpbGUubWFlPic=

> <r_lp_tautomer_probability>
1

> <r_epik_Ionization_Penalty>
0.618392

> <r_epik_Ionization_Penalty_Charging>
0.618355

> <r_epik_Ionization_Penalty_Neutral>
3.68592e-05

> <r_epik_State_Penalty>
0.635579

> <r_epik_Charging_Adjusted_Penalty>
1.25393

> <i_epik_Tot_Q>
1

> <i_epik_Tot_abs_Q>
1

> <r_epik_Metal_State_Penalty>
0.306847

> <b_epik_Metal_Only>
0

> <s_lp_Force_Field>
OPLS_2005

> <r_lp_Energy>
66.9505

> <b_lp_Chiralities_Consistent>
1

> <s_lp_Variant>
AV-unprocessed.smi:3055-3

> <Gold.Version>
5.8.1

> <Gold.Id.Protein>
6NUR|6NUR_protein|mol2

> <Gold.PLP.Fitness>
47.0191

> <Gold.PLP.PLP>
-34.1467

> <Gold.PLP.part.hbond>
-3.0000

> <Gold.PLP.part.metal>
0.0000

> <Gold.PLP.part.buried>
-3.1066

> <Gold.PLP.part.nonpolar>
-29.5321

> <Gold.PLP.part.repulsive>
2.0280

> <Gold.PLP.ligand.clash>
0.3759

> <Gold.PLP.ligand.torsion>
0.8932

> <Gold.PLP.Chemscore.Hbond>
4.0000

> <Gold.PLP.Chemscore.CHOScore>
1.0000

> <Gold.PLP.Chemscore.Metal>
0.0000

> <Gold.Chemscore.Hbonds>
donor molecule, donor type, donor heavy atom, donor atom, acceptor molecule, acceptor atom, score
      L1  H    16    47       P1  7948  2.00
      P1  H  7954  7966       L1     1  1.00
      P1  H  7989  7998       L1     9  1.00
      L1  C     7    27       P1  7948  1.00

> <Gold.PLP.Chemscore.Internal.Correction>
0.0347

> <Gold.Rescore>
     Score         DG    S(hbond)    S(metal)    S(lipo)     H(rot)  DE(clash)    DE(int)     intcor
     13.32     -15.26       2.06        0.00      64.36       1.81       1.24       0.70       ----

> <Gold.Chemscore.Fitness>
13.3225

> <Gold.Chemscore.DG>
-15.2605

> <Gold.Chemscore.ZeroCoef>
-5.4800

> <Gold.Chemscore.Hbond>
2.0586

> <Gold.Chemscore.Metal>
0.0000

> <Gold.Chemscore.Lipo>
64.3565

> <Gold.Chemscore.Internal_Hbond>
0.0000

> <Gold.Chemscore.DEClash>
1.2370

> <Gold.Chemscore.DEInternal>
0.7009

> <Gold.Chemscore.Rot>
1.8066

> <Gold.Chemscore.Internal.Correction>
   9.000000E+99

> <Gold.Chemscore.Hbonds>
donor molecule, donor type, donor heavy atom, donor atom, acceptor molecule, acceptor atom, score
      L1  H    16    47       P1  7948  0.97
      P1  H  7954  7966       L1     1  1.00
      P1  H  7989  7998       L1     9  0.21

> <Gold.Chemscore.Hbond.Weighted>
-6.8757

> <Gold.Chemscore.Metal.Weighted>
-0.0000

> <Gold.Chemscore.Lipo.Weighted>
-7.5297

> <Gold.Chemscore.Internal_Hbond.Weighted>
0.0000

> <Gold.Chemscore.DEClash.Weighted>
1.2370

> <Gold.Chemscore.DEInternal.Weighted>
0.7009

> <Gold.Chemscore.Rot.Weighted>
4.6249

> <Gold.Chemscore.Internal.Correction.Weighted>
   9.000000E+99

> <Gold.Protein.RotatedTorsions>
[ 6907 6896 6895 6894 ] final  -57.52 input  -60.11 | X-H torsion
[ 7974 7965 7964 7962 ] final  -27.88 input  175.53 | X-H torsion
[ 8008 7997 7996 7995 ] final -128.92 input   59.86 | X-H torsion
[ 10167 10162 10161 10158 ] final  164.20 input  -65.29 | X-H torsion
[ 10718 10713 10712 10709 ] final  -35.23 input   66.30 | X-H torsion
[ 10763 10752 10751 10750 ] final   66.78 input  -60.55 | X-H torsion
[ 11005 11000 10999 10996 ] final   40.57 input  -57.11 | X-H torsion

> <Gold.Protein.ActiveResidues>
 VAL166  LYS551  ARG553  GLY616  TRP617  ASP618  TYR619  PRO620  LYS621  CYS622 
 ASP623  PHE694  ASN695  SER759  ASP760  ASP761  ALA762  ILE779  LEU786  VAL792 
 PHE793  MET794  SER795  GLU796  ALA797  LYS798  CYS799  TRP800  GLU811  SER814 

> <Gold.Protein.RotatedAtoms>
  150.8080  134.7216  159.6661 H   0  0  0  0  0  0  0  0  0  0  0  0  # atno 6907 bound_to 6896
  152.4199  134.5970  159.9999 H   0  0  0  0  0  0  0  0  0  0  0  0  # atno 6908 bound_to 6896
  151.6189  133.3303  159.3119 H   0  0  0  0  0  0  0  0  0  0  0  0  # atno 6909 bound_to 6896
  146.1327  140.5209  142.8686 H   0  0  0  0  0  0  0  0  0  0  0  0  # atno 7974 bound_to 7965
  155.2706  140.0440  157.3006 H   0  0  0  0  0  0  0  0  0  0  0  0  # atno 8008 bound_to 7997
  154.5655  140.2358  155.8238 H   0  0  0  0  0  0  0  0  0  0  0  0  # atno 8009 bound_to 7997
  156.2082  140.3006  155.9680 H   0  0  0  0  0  0  0  0  0  0  0  0  # atno 8010 bound_to 7997
  139.4885  144.4259  151.9130 H   0  0  0  0  0  0  0  0  0  0  0  0  # atno 10167 bound_to 10162
  156.3411  130.4293  149.7787 H   0  0  0  0  0  0  0  0  0  0  0  0  # atno 10718 bound_to 10713
  153.0156  135.5308  154.6878 H   0  0  0  0  0  0  0  0  0  0  0  0  # atno 10763 bound_to 10752
  154.6020  135.2869  155.0527 H   0  0  0  0  0  0  0  0  0  0  0  0  # atno 10764 bound_to 10752
  154.1580  135.6552  153.5031 H   0  0  0  0  0  0  0  0  0  0  0  0  # atno 10765 bound_to 10752
  140.1918  134.3978  155.8142 H   0  0  0  0  0  0  0  0  0  0  0  0  # atno 11005 bound_to 11000
  144.7707  140.5632  143.6672 LP  0  0  0  0  0  0  0  0  0  0  0  0  # atno 17320 bound_to 7965
  145.5224  139.1476  143.3545 LP  0  0  0  0  0  0  0  0  0  0  0  0  # atno 17321 bound_to 7965
  140.3705  144.2861  150.5920 LP  0  0  0  0  0  0  0  0  0  0  0  0  # atno 17342 bound_to 10162
  140.5323  143.2240  151.8219 LP  0  0  0  0  0  0  0  0  0  0  0  0  # atno 17343 bound_to 10162
  156.5023  130.8134  151.3137 LP  0  0  0  0  0  0  0  0  0  0  0  0  # atno 17370 bound_to 10713
  157.7447  130.9941  150.2694 LP  0  0  0  0  0  0  0  0  0  0  0  0  # atno 17371 bound_to 10713
  141.2226  133.7050  156.8108 LP  0  0  0  0  0  0  0  0  0  0  0  0  # atno 17394 bound_to 11000
  140.2151  134.8798  157.3317 LP  0  0  0  0  0  0  0  0  0  0  0  0  # atno 17395 bound_to 11000

$$$$
