AV-unprocessed.smi:1916|AV-procd|sdf|7764|dock2
  -GOLD-   22720 9503D 1   1.00000     0.00000
 Structure written by MMmdl.
 45 47  0  0  0  0  0  0  0  0  1 V2000
  150.3037  135.9286  156.5444 O   0  0  0  0  0  0  0  0  0  0  0  0
  149.5436  136.7216  155.9876 C   0  0  0  0  0  0  0  0  0  0  0  0
  148.2619  136.8921  156.3489 N   0  0  0  0  0  0  0  0  0  0  0  0
  147.6109  136.2422  157.4845 C   0  0  0  0  0  0  0  0  0  0  0  0
  147.2952  137.2327  158.6245 C   0  0  0  0  0  0  0  0  0  0  0  0
  146.9060  136.5622  159.9324 C   0  0  0  0  0  0  0  0  0  0  0  0
  146.8008  135.1568  160.0208 C   0  0  0  0  0  0  0  0  0  0  0  0
  146.3969  134.5895  161.2448 C   0  0  0  0  0  0  0  0  0  0  0  0
  146.1173  135.4437  162.3286 C   0  0  0  0  0  0  0  0  0  0  0  0
  146.2614  136.8330  162.1412 C   0  0  0  0  0  0  0  0  0  0  0  0
  146.6501  137.3874  160.9725 N   0  0  0  0  0  0  0  0  0  0  0  0
  150.0586  137.6143  154.8479 C   0  0  2  0  0  0  0  0  0  0  0  0
  151.5892  137.5436  154.7030 C   0  0  0  0  0  0  0  0  0  0  0  0
  152.0642  138.8976  155.2046 C   0  0  0  0  0  0  0  0  0  0  0  0
  153.2538  139.1531  155.3863 O   0  0  0  0  0  0  0  0  0  0  0  0
  151.0353  139.7270  155.4301 N   0  0  0  0  0  0  0  0  0  0  0  0
  151.1568  141.0754  156.0098 C   0  0  0  0  0  0  0  0  0  0  0  0
  151.7096  141.1311  157.4487 C   0  0  0  0  0  0  0  0  0  0  0  0
  151.1044  142.3994  158.0421 C   0  0  0  0  0  0  0  0  0  0  0  0
  149.6884  142.4249  157.4727 C   0  0  0  0  0  0  0  0  0  0  0  0
  149.8058  141.8241  156.0665 C   0  0  0  0  0  0  0  0  0  0  0  0
  149.7563  139.1026  155.1146 C   0  0  0  0  0  0  0  0  0  0  0  0
  147.7109  137.5623  155.8324 H   0  0  0  0  0  0  0  0  0  0  0  0
  146.6852  135.7884  157.1304 H   0  0  0  0  0  0  0  0  0  0  0  0
  148.2238  135.4213  157.8611 H   0  0  0  0  0  0  0  0  0  0  0  0
  148.1599  137.8740  158.7992 H   0  0  0  0  0  0  0  0  0  0  0  0
  146.4868  137.8971  158.3170 H   0  0  0  0  0  0  0  0  0  0  0  0
  147.0086  134.5279  159.1677 H   0  0  0  0  0  0  0  0  0  0  0  0
  146.2961  133.5192  161.3482 H   0  0  0  0  0  0  0  0  0  0  0  0
  145.8007  135.0442  163.2807 H   0  0  0  0  0  0  0  0  0  0  0  0
  146.0576  137.5175  162.9513 H   0  0  0  0  0  0  0  0  0  0  0  0
  149.5865  137.3049  153.9139 H   0  0  0  0  0  0  0  0  0  0  0  0
  152.0501  136.7359  155.2740 H   0  0  0  0  0  0  0  0  0  0  0  0
  151.8794  137.4240  153.6587 H   0  0  0  0  0  0  0  0  0  0  0  0
  151.8358  141.6505  155.3772 H   0  0  0  0  0  0  0  0  0  0  0  0
  151.3595  140.2910  158.0485 H   0  0  0  0  0  0  0  0  0  0  0  0
  152.7997  141.1305  157.4795 H   0  0  0  0  0  0  0  0  0  0  0  0
  151.1190  142.4023  159.1324 H   0  0  0  0  0  0  0  0  0  0  0  0
  151.6599  143.2720  157.6958 H   0  0  0  0  0  0  0  0  0  0  0  0
  149.0404  141.7955  158.0845 H   0  0  0  0  0  0  0  0  0  0  0  0
  149.2604  143.4277  157.4644 H   0  0  0  0  0  0  0  0  0  0  0  0
  149.7844  142.6088  155.3094 H   0  0  0  0  0  0  0  0  0  0  0  0
  148.9560  141.1685  155.8701 H   0  0  0  0  0  0  0  0  0  0  0  0
  149.3349  139.5721  154.2247 H   0  0  0  0  0  0  0  0  0  0  0  0
  149.0443  139.2374  155.9298 H   0  0  0  0  0  0  0  0  0  0  0  0
  1  2  2  0  0  0  0
  2  3  1  0  0  0  0
  2 12  1  0  0  0  0
  3  4  1  0  0  0  0
  3 23  1  0  0  0  0
  4  5  1  0  0  0  0
  4 24  1  0  0  0  0
  4 25  1  0  0  0  0
  5  6  1  0  0  0  0
  5 26  1  0  0  0  0
  5 27  1  0  0  0  0
  6 11  1  0  0  0  0
  6  7  2  0  0  0  0
  7  8  1  0  0  0  0
  7 28  1  0  0  0  0
  8  9  2  0  0  0  0
  8 29  1  0  0  0  0
  9 10  1  0  0  0  0
  9 30  1  0  0  0  0
 10 11  2  0  0  0  0
 10 31  1  0  0  0  0
 12 22  1  0  0  0  0
 12 13  1  0  0  0  0
 12 32  1  0  0  0  0
 13 14  1  0  0  0  0
 13 33  1  0  0  0  0
 13 34  1  0  0  0  0
 14 15  2  0  0  0  0
 14 16  1  0  0  0  0
 16 17  1  0  0  0  0
 16 22  1  0  0  0  0
 17 21  1  0  0  0  0
 17 18  1  0  0  0  0
 17 35  1  0  0  0  0
 18 19  1  0  0  0  0
 18 36  1  0  0  0  0
 18 37  1  0  0  0  0
 19 20  1  0  0  0  0
 19 38  1  0  0  0  0
 19 39  1  0  0  0  0
 20 21  1  0  0  0  0
 20 40  1  0  0  0  0
 20 41  1  0  0  0  0
 21 42  1  0  0  0  0
 21 43  1  0  0  0  0
 22 44  1  0  0  0  0
 22 45  1  0  0  0  0
M  END
> <s_m_source_file>
AV-unprocessed.smi

> <i_m_source_file_index>
1916

> <i_lp_mmshare_version>
43012

> <i_f3d_flags>
0

> <s_epik_input>
W0NIMl0xW0NIMl1bQ0gyXVtDSDJdW0NIXTFOKFtDSDJdMilDKD1PKVtDSDJdW0NASF0yQyg9TylbTkhdW0NIMl1bQ0gyXWMzW2NIXVtjSF1bY0hdW2NIXW4z

> <s_epik_cmdline>
J2VwaWtfcHl0aG9uJywgJy1waCcsICc3LjAnLCAnLXRuJywgJzgnLCAnLW1hJywgJzIwMCcsICctbWV0YWxfYmluZGluZycsICctaW1hZScsICc8aW5maWxlLm1hZT4nLCAnLW9tYWUnLCAnPG91dGZpbGUubWFlPic=

> <r_epik_Ionization_Penalty>
0.0252359

> <r_epik_Ionization_Penalty_Charging>
0

> <r_epik_Ionization_Penalty_Neutral>
0.0252359

> <r_epik_State_Penalty>
0.020532

> <r_epik_Charging_Adjusted_Penalty>
0.020532

> <i_epik_Tot_Q>
0

> <i_epik_Tot_abs_Q>
0

> <r_epik_Metal_State_Penalty>
0.0196901

> <b_epik_Metal_Only>
0

> <s_lp_Force_Field>
OPLS_2005

> <r_lp_Energy>
33.617

> <b_lp_Chiralities_Consistent>
1

> <s_lp_Variant>
AV-unprocessed.smi:1916-1

> <Gold.Version>
5.8.1

> <Gold.Id.Protein>
6NUR|6NUR_protein|mol2

> <Gold.PLP.Fitness>
50.1172

> <Gold.PLP.PLP>
-42.2302

> <Gold.PLP.part.hbond>
-3.0000

> <Gold.PLP.part.metal>
0.0000

> <Gold.PLP.part.buried>
-5.2565

> <Gold.PLP.part.nonpolar>
-33.7456

> <Gold.PLP.part.repulsive>
0.0000

> <Gold.PLP.ligand.clash>
0.0000

> <Gold.PLP.ligand.torsion>
0.3163

> <Gold.PLP.Chemscore.Hbond>
2.8000

> <Gold.PLP.Chemscore.CHOScore>
0.0000

> <Gold.PLP.Chemscore.Metal>
0.0000

> <Gold.Chemscore.Hbonds>
donor molecule, donor type, donor heavy atom, donor atom, acceptor molecule, acceptor atom, score
      P1  H  6934  6947       L1    11  1.00
      P1  H  7997  8009       L1    15  1.00

> <Gold.PLP.Chemscore.Internal.Correction>
0.1196

> <Gold.Rescore>
     Score         DG    S(hbond)    S(metal)    S(lipo)     H(rot)  DE(clash)    DE(int)     intcor
     18.93     -19.37       1.94        0.00      98.69       1.61       0.02       0.42       ----

> <Gold.Chemscore.Fitness>
18.9309

> <Gold.Chemscore.DG>
-19.3708

> <Gold.Chemscore.ZeroCoef>
-5.4800

> <Gold.Chemscore.Hbond>
1.9366

> <Gold.Chemscore.Metal>
0.0000

> <Gold.Chemscore.Lipo>
98.6922

> <Gold.Chemscore.Internal_Hbond>
0.0000

> <Gold.Chemscore.DEClash>
0.0239

> <Gold.Chemscore.DEInternal>
0.4160

> <Gold.Chemscore.Rot>
1.6110

> <Gold.Chemscore.Internal.Correction>
   9.000000E+99

> <Gold.Chemscore.Hbonds>
donor molecule, donor type, donor heavy atom, donor atom, acceptor molecule, acceptor atom, score
      P1  H  6934  6947       L1    11  0.96
      P1  H  7997  8009       L1    15  0.99

> <Gold.Chemscore.Hbond.Weighted>
-6.4681

> <Gold.Chemscore.Metal.Weighted>
-0.0000

> <Gold.Chemscore.Lipo.Weighted>
-11.5470

> <Gold.Chemscore.Internal_Hbond.Weighted>
0.0000

> <Gold.Chemscore.DEClash.Weighted>
0.0239

> <Gold.Chemscore.DEInternal.Weighted>
0.4160

> <Gold.Chemscore.Rot.Weighted>
4.1243

> <Gold.Chemscore.Internal.Correction.Weighted>
   9.000000E+99

> <Gold.Protein.RotatedTorsions>
[ 6907 6896 6895 6894 ] final -130.48 input  -60.11 | X-H torsion
[ 7974 7965 7964 7962 ] final   92.86 input  175.53 | X-H torsion
[ 8008 7997 7996 7995 ] final -145.70 input   59.86 | X-H torsion
[ 10167 10162 10161 10158 ] final  -82.89 input  -65.29 | X-H torsion
[ 10718 10713 10712 10709 ] final  -72.96 input   66.30 | X-H torsion
[ 10763 10752 10751 10750 ] final  -30.77 input  -60.55 | X-H torsion
[ 11005 11000 10999 10996 ] final  161.32 input  -57.11 | X-H torsion

> <Gold.Protein.ActiveResidues>
 VAL166  LYS551  ARG553  GLY616  TRP617  ASP618  TYR619  PRO620  LYS621  CYS622 
 ASP623  PHE694  ASN695  SER759  ASP760  ASP761  ALA762  ILE779  LEU786  VAL792 
 PHE793  MET794  SER795  GLU796  ALA797  LYS798  CYS799  TRP800  GLU811  SER814 

> <Gold.Protein.RotatedAtoms>
  150.9402  133.6666  159.2792 H   0  0  0  0  0  0  0  0  0  0  0  0  # atno 6907 bound_to 6896
  151.4058  135.0976  159.9579 H   0  0  0  0  0  0  0  0  0  0  0  0  # atno 6908 bound_to 6896
  152.5066  133.8886  159.7437 H   0  0  0  0  0  0  0  0  0  0  0  0  # atno 6909 bound_to 6896
  145.4867  139.2277  143.2853 H   0  0  0  0  0  0  0  0  0  0  0  0  # atno 7974 bound_to 7965
  155.5475  140.0613  157.2857 H   0  0  0  0  0  0  0  0  0  0  0  0  # atno 8008 bound_to 7997
  154.4431  140.1908  156.0697 H   0  0  0  0  0  0  0  0  0  0  0  0  # atno 8009 bound_to 7997
  156.0540  140.3281  155.7388 H   0  0  0  0  0  0  0  0  0  0  0  0  # atno 8010 bound_to 7997
  140.4277  143.2560  151.8802 H   0  0  0  0  0  0  0  0  0  0  0  0  # atno 10167 bound_to 10162
  156.0299  130.4383  150.2671 H   0  0  0  0  0  0  0  0  0  0  0  0  # atno 10718 bound_to 10713
  153.7865  135.6901  153.4879 H   0  0  0  0  0  0  0  0  0  0  0  0  # atno 10763 bound_to 10752
  153.1777  135.4518  154.9986 H   0  0  0  0  0  0  0  0  0  0  0  0  # atno 10764 bound_to 10752
  154.8061  135.3357  154.7364 H   0  0  0  0  0  0  0  0  0  0  0  0  # atno 10765 bound_to 10752
  140.2146  134.8242  157.3157 H   0  0  0  0  0  0  0  0  0  0  0  0  # atno 11005 bound_to 11000
  146.2309  140.5658  142.8976 LP  0  0  0  0  0  0  0  0  0  0  0  0  # atno 17320 bound_to 7965
  144.7857  140.5932  143.6575 LP  0  0  0  0  0  0  0  0  0  0  0  0  # atno 17321 bound_to 7965
  139.4784  144.5368  151.8586 LP  0  0  0  0  0  0  0  0  0  0  0  0  # atno 17342 bound_to 10162
  140.4462  144.1918  150.5894 LP  0  0  0  0  0  0  0  0  0  0  0  0  # atno 17343 bound_to 10162
  157.0774  131.0134  151.3169 LP  0  0  0  0  0  0  0  0  0  0  0  0  # atno 17370 bound_to 10713
  157.4953  130.7847  149.7549 LP  0  0  0  0  0  0  0  0  0  0  0  0  # atno 17371 bound_to 10713
  140.1914  134.4367  155.7713 LP  0  0  0  0  0  0  0  0  0  0  0  0  # atno 17394 bound_to 11000
  141.2225  133.7029  156.8034 LP  0  0  0  0  0  0  0  0  0  0  0  0  # atno 17395 bound_to 11000

$$$$
