AV-unprocessed.smi:2060|AV-procd|sdf|8354|dock8
  -GOLD-   2272011 23D 1   1.00000     0.00000
 Structure written by MMmdl.
 45 46  0  0  0  0  0  0  0  0  1 V2000
  147.0205  142.5316  153.9204 C   0  0  0  0  0  0  0  0  0  0  0  0
  146.5576  141.2820  154.6920 C   0  0  0  0  0  0  0  0  0  0  0  0
  147.2008  139.9320  154.2406 C   0  0  1  0  0  0  0  0  0  0  0  0
  146.5603  138.8264  155.1228 C   0  0  0  0  0  0  0  0  0  0  0  0
  146.8053  139.6743  152.7495 C   0  0  0  0  0  0  0  0  0  0  0  0
  146.9129  138.2745  152.3376 N   0  0  0  0  0  0  0  0  0  0  0  0
  145.8963  137.4056  152.2364 C   0  0  0  0  0  0  0  0  0  0  0  0
  144.7264  137.6952  152.4869 O   0  0  0  0  0  0  0  0  0  0  0  0
  146.3290  136.2014  151.8273 N   0  0  0  0  0  0  0  0  0  0  0  0
  145.5688  135.0309  151.5714 C   0  0  0  0  0  0  0  0  0  0  0  0
  146.0461  133.8260  150.9778 C   0  0  0  0  0  0  0  0  0  0  0  0
  144.9370  133.0282  150.9698 C   0  0  0  0  0  0  0  0  0  0  0  0
  144.6940  131.6336  150.5038 C   0  0  0  0  0  0  0  0  0  0  0  0
  143.8757  133.6865  151.5090 O   0  0  0  0  0  0  0  0  0  0  0  0
  144.2894  134.9677  151.8918 N   0  0  0  0  0  0  0  0  0  0  0  0
  148.6795  139.9539  154.4297 N   0  0  0  0  0  0  0  0  0  0  0  0
  149.3484  138.6557  154.2812 C   0  0  0  0  0  0  0  0  0  0  0  0
  150.8797  138.7845  154.3455 C   0  0  0  0  0  0  0  0  0  0  0  0
  151.2577  139.4038  155.5690 O   0  0  0  0  0  0  0  0  0  0  0  0
  150.6749  140.6915  155.7286 C   0  0  0  0  0  0  0  0  0  0  0  0
  149.1418  140.5779  155.6754 C   0  0  0  0  0  0  0  0  0  0  0  0
  146.5176  143.4211  154.2997 H   0  0  0  0  0  0  0  0  0  0  0  0
  146.7936  142.4602  152.8567 H   0  0  0  0  0  0  0  0  0  0  0  0
  148.0922  142.6978  154.0244 H   0  0  0  0  0  0  0  0  0  0  0  0
  146.7660  141.4585  155.7477 H   0  0  0  0  0  0  0  0  0  0  0  0
  145.4708  141.2203  154.6378 H   0  0  0  0  0  0  0  0  0  0  0  0
  145.4786  138.9383  155.1999 H   0  0  0  0  0  0  0  0  0  0  0  0
  146.9562  138.8405  156.1386 H   0  0  0  0  0  0  0  0  0  0  0  0
  146.7377  137.8292  154.7194 H   0  0  0  0  0  0  0  0  0  0  0  0
  145.7662  139.9541  152.5792 H   0  0  0  0  0  0  0  0  0  0  0  0
  147.3914  140.2984  152.0747 H   0  0  0  0  0  0  0  0  0  0  0  0
  147.8395  137.9442  152.1104 H   0  0  0  0  0  0  0  0  0  0  0  0
  147.3224  136.1110  151.6732 H   0  0  0  0  0  0  0  0  0  0  0  0
  147.0308  133.5708  150.6167 H   0  0  0  0  0  0  0  0  0  0  0  0
  145.5421  131.2619  149.9284 H   0  0  0  0  0  0  0  0  0  0  0  0
  143.8084  131.5849  149.8701 H   0  0  0  0  0  0  0  0  0  0  0  0
  144.5417  130.9655  151.3516 H   0  0  0  0  0  0  0  0  0  0  0  0
  149.0255  137.9722  155.0663 H   0  0  0  0  0  0  0  0  0  0  0  0
  149.0927  138.1898  153.3315 H   0  0  0  0  0  0  0  0  0  0  0  0
  151.3451  137.8005  154.2869 H   0  0  0  0  0  0  0  0  0  0  0  0
  151.2540  139.3667  153.5020 H   0  0  0  0  0  0  0  0  0  0  0  0
  150.9903  141.1089  156.6848 H   0  0  0  0  0  0  0  0  0  0  0  0
  151.0392  141.3637  154.9502 H   0  0  0  0  0  0  0  0  0  0  0  0
  148.7322  141.5806  155.7852 H   0  0  0  0  0  0  0  0  0  0  0  0
  148.8051  140.0013  156.5366 H   0  0  0  0  0  0  0  0  0  0  0  0
  1  2  1  0  0  0  0
  1 22  1  0  0  0  0
  1 23  1  0  0  0  0
  1 24  1  0  0  0  0
  2  3  1  0  0  0  0
  2 25  1  0  0  0  0
  2 26  1  0  0  0  0
  3  4  1  0  0  0  0
  3  5  1  0  0  0  0
  3 16  1  0  0  0  0
  4 27  1  0  0  0  0
  4 28  1  0  0  0  0
  4 29  1  0  0  0  0
  5  6  1  0  0  0  0
  5 30  1  0  0  0  0
  5 31  1  0  0  0  0
  6  7  1  0  0  0  0
  6 32  1  0  0  0  0
  7  8  2  0  0  0  0
  7  9  1  0  0  0  0
  9 10  1  0  0  0  0
  9 33  1  0  0  0  0
 10 15  2  0  0  0  0
 10 11  1  0  0  0  0
 11 12  2  0  0  0  0
 11 34  1  0  0  0  0
 12 13  1  0  0  0  0
 12 14  1  0  0  0  0
 13 35  1  0  0  0  0
 13 36  1  0  0  0  0
 13 37  1  0  0  0  0
 14 15  1  0  0  0  0
 16 21  1  0  0  0  0
 16 17  1  0  0  0  0
 17 18  1  0  0  0  0
 17 38  1  0  0  0  0
 17 39  1  0  0  0  0
 18 19  1  0  0  0  0
 18 40  1  0  0  0  0
 18 41  1  0  0  0  0
 19 20  1  0  0  0  0
 20 21  1  0  0  0  0
 20 42  1  0  0  0  0
 20 43  1  0  0  0  0
 21 44  1  0  0  0  0
 21 45  1  0  0  0  0
M  END
> <s_m_source_file>
AV-unprocessed.smi

> <i_m_source_file_index>
2060

> <i_lp_mmshare_version>
43012

> <i_f3d_flags>
0

> <s_epik_input>
W0NIMl0xW0NIMl1PW0NIMl1bQ0gyXU4xW0NAQF0oW0NIM10pKFtDSDJdW0NIM10pW0NIMl1bTkhdQyg9TylbTkhdYzJbY0hdYyhbQ0gzXSlvbjI=

> <s_epik_cmdline>
J2VwaWtfcHl0aG9uJywgJy1waCcsICc3LjAnLCAnLXRuJywgJzgnLCAnLW1hJywgJzIwMCcsICctbWV0YWxfYmluZGluZycsICctaW1hZScsICc8aW5maWxlLm1hZT4nLCAnLW9tYWUnLCAnPG91dGZpbGUubWFlPic=

> <r_epik_Ionization_Penalty>
0.289127

> <r_epik_Ionization_Penalty_Charging>
0

> <r_epik_Ionization_Penalty_Neutral>
0.289127

> <r_epik_State_Penalty>
0.282056

> <r_epik_Charging_Adjusted_Penalty>
0.282056

> <i_epik_Tot_Q>
0

> <i_epik_Tot_abs_Q>
0

> <r_epik_Metal_State_Penalty>
0.284526

> <b_epik_Metal_Only>
0

> <s_lp_Force_Field>
OPLS_2005

> <r_lp_Energy>
41.8264

> <b_lp_Chiralities_Consistent>
1

> <s_lp_Variant>
AV-unprocessed.smi:2060-1

> <Gold.Version>
5.8.1

> <Gold.Id.Protein>
6NUR|6NUR_protein|mol2

> <Gold.PLP.Fitness>
36.3641

> <Gold.PLP.PLP>
-31.9508

> <Gold.PLP.part.hbond>
-2.0000

> <Gold.PLP.part.metal>
0.0000

> <Gold.PLP.part.buried>
-6.7296

> <Gold.PLP.part.nonpolar>
-24.6682

> <Gold.PLP.part.repulsive>
1.4929

> <Gold.PLP.ligand.clash>
0.0000

> <Gold.PLP.ligand.torsion>
0.6981

> <Gold.PLP.Chemscore.Hbond>
1.8960

> <Gold.PLP.Chemscore.CHOScore>
0.0000

> <Gold.PLP.Chemscore.Metal>
0.0000

> <Gold.Chemscore.Hbonds>
donor molecule, donor type, donor heavy atom, donor atom, acceptor molecule, acceptor atom, score
      L1  H     6    32       P1  7948  0.87
      L1  H     9    33       P1  7948  1.00

> <Gold.PLP.Chemscore.Internal.Correction>
0.1214

> <Gold.Rescore>
     Score         DG    S(hbond)    S(metal)    S(lipo)     H(rot)  DE(clash)    DE(int)     intcor
     13.79     -16.11       1.85        0.00      75.48       1.71       0.17       2.14       ----

> <Gold.Chemscore.Fitness>
13.7911

> <Gold.Chemscore.DG>
-16.1096

> <Gold.Chemscore.ZeroCoef>
-5.4800

> <Gold.Chemscore.Hbond>
1.8526

> <Gold.Chemscore.Metal>
0.0000

> <Gold.Chemscore.Lipo>
75.4755

> <Gold.Chemscore.Internal_Hbond>
0.0000

> <Gold.Chemscore.DEClash>
0.1737

> <Gold.Chemscore.DEInternal>
2.1449

> <Gold.Chemscore.Rot>
1.7143

> <Gold.Chemscore.Internal.Correction>
   9.000000E+99

> <Gold.Chemscore.Hbonds>
donor molecule, donor type, donor heavy atom, donor atom, acceptor molecule, acceptor atom, score
      L1  H     6    32       P1  7948  0.80
      L1  H     9    33       P1  7948  0.99

> <Gold.Chemscore.Hbond.Weighted>
-6.1875

> <Gold.Chemscore.Metal.Weighted>
-0.0000

> <Gold.Chemscore.Lipo.Weighted>
-8.8306

> <Gold.Chemscore.Internal_Hbond.Weighted>
0.0000

> <Gold.Chemscore.DEClash.Weighted>
0.1737

> <Gold.Chemscore.DEInternal.Weighted>
2.1449

> <Gold.Chemscore.Rot.Weighted>
4.3885

> <Gold.Chemscore.Internal.Correction.Weighted>
   9.000000E+99

> <Gold.Protein.RotatedTorsions>
[ 6907 6896 6895 6894 ] final  -73.33 input  -60.11 | X-H torsion
[ 7974 7965 7964 7962 ] final  -51.68 input  175.53 | X-H torsion
[ 8008 7997 7996 7995 ] final   67.08 input   59.86 | X-H torsion
[ 10167 10162 10161 10158 ] final  -48.93 input  -65.29 | X-H torsion
[ 10718 10713 10712 10709 ] final  146.30 input   66.30 | X-H torsion
[ 10763 10752 10751 10750 ] final -120.97 input  -60.55 | X-H torsion
[ 11005 11000 10999 10996 ] final  152.48 input  -57.11 | X-H torsion

> <Gold.Protein.ActiveResidues>
 VAL166  LYS551  ARG553  GLY616  TRP617  ASP618  TYR619  PRO620  LYS621  CYS622 
 ASP623  PHE694  ASN695  SER759  ASP760  ASP761  ALA762  ILE779  LEU786  VAL792 
 PHE793  MET794  SER795  GLU796  ALA797  LYS798  CYS799  TRP800  GLU811  SER814 

> <Gold.Protein.RotatedAtoms>
  150.7134  134.5032  159.5571 H   0  0  0  0  0  0  0  0  0  0  0  0  # atno 6907 bound_to 6896
  152.2625  134.8016  160.0437 H   0  0  0  0  0  0  0  0  0  0  0  0  # atno 6908 bound_to 6896
  151.8725  133.3443  159.3776 H   0  0  0  0  0  0  0  0  0  0  0  0  # atno 6909 bound_to 6896
  145.9163  140.7872  142.9670 H   0  0  0  0  0  0  0  0  0  0  0  0  # atno 7974 bound_to 7965
  155.6873  140.3496  155.4879 H   0  0  0  0  0  0  0  0  0  0  0  0  # atno 8008 bound_to 7997
  155.9555  140.1127  157.0963 H   0  0  0  0  0  0  0  0  0  0  0  0  # atno 8009 bound_to 7997
  154.4131  140.1186  156.5095 H   0  0  0  0  0  0  0  0  0  0  0  0  # atno 8010 bound_to 7997
  140.6708  143.2719  151.4142 H   0  0  0  0  0  0  0  0  0  0  0  0  # atno 10167 bound_to 10162
  157.3348  131.0926  151.1132 H   0  0  0  0  0  0  0  0  0  0  0  0  # atno 10718 bound_to 10713
  154.8657  135.4184  154.2544 H   0  0  0  0  0  0  0  0  0  0  0  0  # atno 10763 bound_to 10752
  153.3485  135.6997  153.6814 H   0  0  0  0  0  0  0  0  0  0  0  0  # atno 10764 bound_to 10752
  153.5764  135.3581  155.2830 H   0  0  0  0  0  0  0  0  0  0  0  0  # atno 10765 bound_to 10752
  140.1312  134.8801  157.2206 H   0  0  0  0  0  0  0  0  0  0  0  0  # atno 11005 bound_to 11000
  144.6748  140.1904  143.7397 LP  0  0  0  0  0  0  0  0  0  0  0  0  # atno 17320 bound_to 7965
  145.8608  139.2221  143.1718 LP  0  0  0  0  0  0  0  0  0  0  0  0  # atno 17321 bound_to 7965
  139.5976  144.1364  152.2161 LP  0  0  0  0  0  0  0  0  0  0  0  0  # atno 17342 bound_to 10162
  140.0738  144.5757  150.7172 LP  0  0  0  0  0  0  0  0  0  0  0  0  # atno 17343 bound_to 10162
  157.2367  130.6550  149.5872 LP  0  0  0  0  0  0  0  0  0  0  0  0  # atno 17370 bound_to 10713
  155.9700  130.4581  150.5988 LP  0  0  0  0  0  0  0  0  0  0  0  0  # atno 17371 bound_to 10713
  140.2840  134.3317  155.7334 LP  0  0  0  0  0  0  0  0  0  0  0  0  # atno 17394 bound_to 11000
  141.2170  133.7495  156.9405 LP  0  0  0  0  0  0  0  0  0  0  0  0  # atno 17395 bound_to 11000

$$$$
