AV-unprocessed.smi:3303|AV-procd|sdf|12662|dock5
  -GOLD-   2272018593D 1   1.00000     0.00000
 Structure written by MMmdl.
 45 46  0  0  0  0  0  0  0  0  3 V2000
  145.7031  136.0621  150.7929 C   0  0  0  0  0  0  0  0  0  0  0  0
  145.0558  134.9177  151.6013 C   0  0  1  0  0  0  0  0  0  0  0  0
  144.0553  134.1250  150.7340 C   0  0  0  0  0  0  0  0  0  0  0  0
  144.7542  133.3012  149.7133 N   0  3  2  0  0  0  0  0  0  0  0  0
  143.8285  132.7042  148.7237 C   0  0  0  0  0  0  0  0  0  0  0  0
  145.7358  132.3387  150.2933 C   0  0  2  0  0  0  0  0  0  0  0  0
  145.0759  131.1521  151.0294 C   0  0  0  0  0  0  0  0  0  0  0  0
  146.7579  133.0816  151.1815 C   0  0  0  0  0  0  0  0  0  0  0  0
  146.0706  133.9512  152.2574 C   0  0  1  0  0  0  0  0  0  0  0  0
  147.0411  134.6873  153.1024 N   0  3  0  0  0  0  0  0  0  0  0  0
  147.8192  133.8590  154.0476 C   0  0  0  0  0  0  0  0  0  0  0  0
  148.8886  133.0415  153.3104 C   0  0  0  0  0  0  0  0  0  0  0  0
  149.7218  132.2025  154.2604 C   0  0  0  0  0  0  0  0  0  0  0  0
  149.7879  130.8001  154.1177 C   0  0  0  0  0  0  0  0  0  0  0  0
  150.5738  130.0699  155.0308 C   0  0  0  0  0  0  0  0  0  0  0  0
  151.2569  130.7664  156.0461 C   0  0  0  0  0  0  0  0  0  0  0  0
  151.1241  132.1681  156.1042 C   0  0  0  0  0  0  0  0  0  0  0  0
  150.3735  132.8777  155.2337 N   0  0  0  0  0  0  0  0  0  0  0  0
  146.2943  135.6906  149.9560 H   0  0  0  0  0  0  0  0  0  0  0  0
  146.3552  136.6765  151.4135 H   0  0  0  0  0  0  0  0  0  0  0  0
  144.9408  136.7245  150.3816 H   0  0  0  0  0  0  0  0  0  0  0  0
  144.4846  135.3894  152.4023 H   0  0  0  0  0  0  0  0  0  0  0  0
  143.4338  133.4858  151.3621 H   0  0  0  0  0  0  0  0  0  0  0  0
  143.3725  134.8166  150.2382 H   0  0  0  0  0  0  0  0  0  0  0  0
  143.0975  132.0506  149.2007 H   0  0  0  0  0  0  0  0  0  0  0  0
  144.3765  132.1262  147.9789 H   0  0  0  0  0  0  0  0  0  0  0  0
  143.2822  133.4873  148.1967 H   0  0  0  0  0  0  0  0  0  0  0  0
  146.2940  131.9163  149.4563 H   0  0  0  0  0  0  0  0  0  0  0  0
  145.8344  130.4829  151.4364 H   0  0  0  0  0  0  0  0  0  0  0  0
  144.4585  130.5536  150.3595 H   0  0  0  0  0  0  0  0  0  0  0  0
  144.4486  131.4718  151.8607 H   0  0  0  0  0  0  0  0  0  0  0  0
  147.4240  132.3518  151.6415 H   0  0  0  0  0  0  0  0  0  0  0  0
  147.3940  133.7071  150.5544 H   0  0  0  0  0  0  0  0  0  0  0  0
  145.5086  133.2967  152.9252 H   0  0  0  0  0  0  0  0  0  0  0  0
  147.6787  135.1963  152.5068 H   0  0  0  0  0  0  0  0  0  0  0  0
  148.2927  134.5058  154.7877 H   0  0  0  0  0  0  0  0  0  0  0  0
  147.1529  133.1845  154.5852 H   0  0  0  0  0  0  0  0  0  0  0  0
  148.4182  132.3891  152.5732 H   0  0  0  0  0  0  0  0  0  0  0  0
  149.5514  133.7056  152.7537 H   0  0  0  0  0  0  0  0  0  0  0  0
  149.2524  130.2925  153.3288 H   0  0  0  0  0  0  0  0  0  0  0  0
  150.6508  128.9954  154.9540 H   0  0  0  0  0  0  0  0  0  0  0  0
  151.8680  130.2392  156.7637 H   0  0  0  0  0  0  0  0  0  0  0  0
  151.6335  132.7338  156.8702 H   0  0  0  0  0  0  0  0  0  0  0  0
  146.5193  135.3548  153.6528 H   0  0  0  0  0  0  0  0  0  0  0  0
  145.3121  133.9552  149.1827 H   0  0  0  0  0  0  0  0  0  0  0  0
  1  2  1  0  0  0  0
  1 19  1  0  0  0  0
  1 20  1  0  0  0  0
  1 21  1  0  0  0  0
  2  9  1  0  0  0  0
  2  3  1  0  0  0  0
  2 22  1  0  0  0  0
  3  4  1  0  0  0  0
  3 23  1  0  0  0  0
  3 24  1  0  0  0  0
  4  5  1  0  0  0  0
  4  6  1  0  0  0  0
  4 45  1  0  0  0  0
  5 25  1  0  0  0  0
  5 26  1  0  0  0  0
  5 27  1  0  0  0  0
  6  7  1  0  0  0  0
  6  8  1  0  0  0  0
  6 28  1  0  0  0  0
  7 29  1  0  0  0  0
  7 30  1  0  0  0  0
  7 31  1  0  0  0  0
  8  9  1  0  0  0  0
  8 32  1  0  0  0  0
  8 33  1  0  0  0  0
  9 10  1  0  0  0  0
  9 34  1  0  0  0  0
 10 11  1  0  0  0  0
 10 35  1  0  0  0  0
 10 44  1  0  0  0  0
 11 12  1  0  0  0  0
 11 36  1  0  0  0  0
 11 37  1  0  0  0  0
 12 13  1  0  0  0  0
 12 38  1  0  0  0  0
 12 39  1  0  0  0  0
 13 18  1  0  0  0  0
 13 14  2  0  0  0  0
 14 15  1  0  0  0  0
 14 40  1  0  0  0  0
 15 16  2  0  0  0  0
 15 41  1  0  0  0  0
 16 17  1  0  0  0  0
 16 42  1  0  0  0  0
 17 18  2  0  0  0  0
 17 43  1  0  0  0  0
M  CHG  1   4   1
M  CHG  1  10   1
M  END
> <s_m_source_file>
AV-unprocessed.smi

> <i_m_source_file_index>
3303

> <i_lp_mmshare_version>
43012

> <i_f3d_flags>
0

> <s_epik_input>
W0NIM11bQ0BASF0xW0NIMl1OKFtDSDNdKVtDQEBIXShbQ0gzXSlbQ0gyXVtDQEhdMVtOSF1bQ0gyXVtDSDJdYzJbY0hdW2NIXVtjSF1bY0hdbjI=

> <s_epik_cmdline>
J2VwaWtfcHl0aG9uJywgJy1waCcsICc3LjAnLCAnLXRuJywgJzgnLCAnLW1hJywgJzIwMCcsICctbWV0YWxfYmluZGluZycsICctaW1hZScsICc8aW5maWxlLm1hZT4nLCAnLW9tYWUnLCAnPG91dGZpbGUubWFlPic=

> <r_epik_Ionization_Penalty>
0.0769462

> <r_epik_Ionization_Penalty_Charging>
0.0759813

> <r_epik_Ionization_Penalty_Neutral>
0.000964829

> <r_epik_State_Penalty>
0.0654373

> <r_epik_Charging_Adjusted_Penalty>
0.141419

> <i_epik_Tot_Q>
2

> <i_epik_Tot_abs_Q>
2

> <r_epik_Metal_State_Penalty>
0.0656439

> <b_epik_Metal_Only>
0

> <s_lp_Force_Field>
OPLS_2005

> <r_lp_Energy>
31.8094

> <b_lp_Chiralities_Consistent>
1

> <s_lp_Variant>
AV-unprocessed.smi:3303-6

> <Gold.Version>
5.8.1

> <Gold.Id.Protein>
6NUR|6NUR_protein|mol2

> <Gold.PLP.Fitness>
47.2404

> <Gold.PLP.PLP>
-38.5029

> <Gold.PLP.part.hbond>
-2.0000

> <Gold.PLP.part.metal>
0.0000

> <Gold.PLP.part.buried>
-5.0592

> <Gold.PLP.part.nonpolar>
-31.9799

> <Gold.PLP.part.repulsive>
0.1211

> <Gold.PLP.ligand.clash>
0.0000

> <Gold.PLP.ligand.torsion>
0.1390

> <Gold.PLP.Chemscore.Hbond>
3.0000

> <Gold.PLP.Chemscore.CHOScore>
0.0000

> <Gold.PLP.Chemscore.Metal>
0.0000

> <Gold.Chemscore.Hbonds>
donor molecule, donor type, donor heavy atom, donor atom, acceptor molecule, acceptor atom, score
      L1  H     4    45       P1  7921  1.00
      L1  H    10    35       P1  7948  2.00

> <Gold.PLP.Chemscore.Internal.Correction>
0.0156

> <Gold.Rescore>
     Score         DG    S(hbond)    S(metal)    S(lipo)     H(rot)  DE(clash)    DE(int)     intcor
     20.39     -20.66       1.92        0.00     105.12       1.37       0.06       0.21       ----

> <Gold.Chemscore.Fitness>
20.3899

> <Gold.Chemscore.DG>
-20.6577

> <Gold.Chemscore.ZeroCoef>
-5.4800

> <Gold.Chemscore.Hbond>
1.9153

> <Gold.Chemscore.Metal>
0.0000

> <Gold.Chemscore.Lipo>
105.1205

> <Gold.Chemscore.Internal_Hbond>
0.0000

> <Gold.Chemscore.DEClash>
0.0594

> <Gold.Chemscore.DEInternal>
0.2084

> <Gold.Chemscore.Rot>
1.3744

> <Gold.Chemscore.Internal.Correction>
   9.000000E+99

> <Gold.Chemscore.Hbonds>
donor molecule, donor type, donor heavy atom, donor atom, acceptor molecule, acceptor atom, score
      L1  H     4    45       P1  7921  0.84
      L1  H    10    35       P1  7948  1.00

> <Gold.Chemscore.Hbond.Weighted>
-6.3970

> <Gold.Chemscore.Metal.Weighted>
-0.0000

> <Gold.Chemscore.Lipo.Weighted>
-12.2991

> <Gold.Chemscore.Internal_Hbond.Weighted>
0.0000

> <Gold.Chemscore.DEClash.Weighted>
0.0594

> <Gold.Chemscore.DEInternal.Weighted>
0.2084

> <Gold.Chemscore.Rot.Weighted>
3.5185

> <Gold.Chemscore.Internal.Correction.Weighted>
   9.000000E+99

> <Gold.Protein.RotatedTorsions>
[ 6907 6896 6895 6894 ] final  -98.59 input  -60.11 | X-H torsion
[ 7974 7965 7964 7962 ] final   91.59 input  175.53 | X-H torsion
[ 8008 7997 7996 7995 ] final   68.36 input   59.86 | X-H torsion
[ 10167 10162 10161 10158 ] final -179.43 input  -65.29 | X-H torsion
[ 10718 10713 10712 10709 ] final   97.86 input   66.30 | X-H torsion
[ 10763 10752 10751 10750 ] final  -79.63 input  -60.55 | X-H torsion
[ 11005 11000 10999 10996 ] final  -28.91 input  -57.11 | X-H torsion

> <Gold.Protein.ActiveResidues>
 VAL166  LYS551  ARG553  GLY616  TRP617  ASP618  TYR619  PRO620  LYS621  CYS622 
 ASP623  PHE694  ASN695  SER759  ASP760  ASP761  ALA762  ILE779  LEU786  VAL792 
 PHE793  MET794  SER795  GLU796  ALA797  LYS798  CYS799  TRP800  GLU811  SER814 

> <Gold.Protein.RotatedAtoms>
  150.7052  134.1171  159.4021 H   0  0  0  0  0  0  0  0  0  0  0  0  # atno 6907 bound_to 6896
  151.9158  135.0317  160.0527 H   0  0  0  0  0  0  0  0  0  0  0  0  # atno 6908 bound_to 6896
  152.2298  133.5014  159.5246 H   0  0  0  0  0  0  0  0  0  0  0  0  # atno 6909 bound_to 6896
  145.5036  139.2276  143.2764 H   0  0  0  0  0  0  0  0  0  0  0  0  # atno 7974 bound_to 7965
  155.7071  140.3495  155.4958 H   0  0  0  0  0  0  0  0  0  0  0  0  # atno 8008 bound_to 7997
  155.9389  140.1098  157.1094 H   0  0  0  0  0  0  0  0  0  0  0  0  # atno 8009 bound_to 7997
  154.4099  140.1216  156.4887 H   0  0  0  0  0  0  0  0  0  0  0  0  # atno 8010 bound_to 7997
  139.5387  144.2425  152.0849 H   0  0  0  0  0  0  0  0  0  0  0  0  # atno 10167 bound_to 10162
  157.6905  131.0622  150.4707 H   0  0  0  0  0  0  0  0  0  0  0  0  # atno 10718 bound_to 10713
  154.5411  135.5689  153.6840 H   0  0  0  0  0  0  0  0  0  0  0  0  # atno 10763 bound_to 10752
  152.9964  135.6228  154.2501 H   0  0  0  0  0  0  0  0  0  0  0  0  # atno 10764 bound_to 10752
  154.2432  135.2861  155.2825 H   0  0  0  0  0  0  0  0  0  0  0  0  # atno 10765 bound_to 10752
  140.9249  133.7375  156.0854 H   0  0  0  0  0  0  0  0  0  0  0  0  # atno 11005 bound_to 11000
  146.2211  140.5838  142.9017 LP  0  0  0  0  0  0  0  0  0  0  0  0  # atno 17320 bound_to 7965
  144.7766  140.5753  143.6634 LP  0  0  0  0  0  0  0  0  0  0  0  0  # atno 17321 bound_to 7965
  140.1899  144.4761  150.6484 LP  0  0  0  0  0  0  0  0  0  0  0  0  # atno 17342 bound_to 10162
  140.6606  143.2251  151.5864 LP  0  0  0  0  0  0  0  0  0  0  0  0  # atno 17343 bound_to 10162
  156.5045  130.4125  149.6334 LP  0  0  0  0  0  0  0  0  0  0  0  0  # atno 17370 bound_to 10713
  156.3297  130.7325  151.2252 LP  0  0  0  0  0  0  0  0  0  0  0  0  # atno 17371 bound_to 10713
  140.7938  134.3586  157.5457 LP  0  0  0  0  0  0  0  0  0  0  0  0  # atno 17394 bound_to 11000
  139.8783  134.9157  156.3136 LP  0  0  0  0  0  0  0  0  0  0  0  0  # atno 17395 bound_to 11000

$$$$
