AV-unprocessed.smi:2399|AV-procd|sdf|9500|dock9
  -GOLD-   2272013133D 1   1.00000     0.00000
 Structure written by MMmdl.
 53 55  0  0  0  0  0  0  0  0  2 V2000
  148.0824  141.8597  153.9226 C   0  0  0  0  0  0  0  0  0  0  0  0
  148.2374  140.4489  153.9641 O   0  0  0  0  0  0  0  0  0  0  0  0
  148.7492  139.8810  155.1148 C   0  0  0  0  0  0  0  0  0  0  0  0
  149.3122  140.6326  156.1776 C   0  0  0  0  0  0  0  0  0  0  0  0
  149.8070  139.9637  157.3104 C   0  0  0  0  0  0  0  0  0  0  0  0
  149.7232  138.5605  157.3430 C   0  0  0  0  0  0  0  0  0  0  0  0
  150.2348  137.7752  158.5321 C   0  0  0  0  0  0  0  0  0  0  0  0
  149.1886  137.8354  156.3400 N   0  0  0  0  0  0  0  0  0  0  0  0
  148.7068  138.4685  155.2420 C   0  0  0  0  0  0  0  0  0  0  0  0
  148.1298  137.7743  154.1430 N   0  0  0  0  0  0  0  0  0  0  0  0
  146.8289  137.6176  153.8425 C   0  0  0  0  0  0  0  0  0  0  0  0
  145.8855  138.0714  154.4908 O   0  0  0  0  0  0  0  0  0  0  0  0
  146.6749  136.9009  152.7196 N   0  0  0  0  0  0  0  0  0  0  0  0
  145.3938  136.5725  152.1011 C   0  0  2  0  0  0  0  0  0  0  0  0
  144.5630  135.6991  153.0574 C   0  0  0  0  0  0  0  0  0  0  0  0
  143.2612  135.2185  152.3879 C   0  0  0  0  0  0  0  0  0  0  0  0
  143.5236  134.4901  151.1155 N   0  3  2  0  0  0  0  0  0  0  0  0
  144.0957  133.1213  151.2931 C   0  0  0  0  0  0  0  0  0  0  0  0
  145.4633  133.1086  151.9893 C   0  0  0  0  0  0  0  0  0  0  0  0
  146.0678  131.7459  151.6417 C   0  0  0  0  0  0  0  0  0  0  0  0
  145.4397  131.3329  150.3040 C   0  0  0  0  0  0  0  0  0  0  0  0
  144.3999  132.4080  149.9674 C   0  0  0  0  0  0  0  0  0  0  0  0
  144.2744  135.3574  150.1664 C   0  0  0  0  0  0  0  0  0  0  0  0
  145.6096  135.8426  150.7609 C   0  0  0  0  0  0  0  0  0  0  0  0
  147.6670  142.1469  152.9568 H   0  0  0  0  0  0  0  0  0  0  0  0
  149.0401  142.3696  154.0342 H   0  0  0  0  0  0  0  0  0  0  0  0
  147.3942  142.2084  154.6936 H   0  0  0  0  0  0  0  0  0  0  0  0
  149.3743  141.7097  156.1478 H   0  0  0  0  0  0  0  0  0  0  0  0
  150.2385  140.5177  158.1312 H   0  0  0  0  0  0  0  0  0  0  0  0
  150.8310  138.4046  159.1933 H   0  0  0  0  0  0  0  0  0  0  0  0
  150.8590  136.9439  158.2028 H   0  0  0  0  0  0  0  0  0  0  0  0
  149.3996  137.3719  159.1048 H   0  0  0  0  0  0  0  0  0  0  0  0
  148.7926  137.3583  153.5055 H   0  0  0  0  0  0  0  0  0  0  0  0
  147.5058  136.5667  152.2534 H   0  0  0  0  0  0  0  0  0  0  0  0
  144.8375  137.4935  151.9157 H   0  0  0  0  0  0  0  0  0  0  0  0
  145.1481  134.8401  153.3882 H   0  0  0  0  0  0  0  0  0  0  0  0
  144.3223  136.2650  153.9583 H   0  0  0  0  0  0  0  0  0  0  0  0
  142.6780  134.6113  153.0788 H   0  0  0  0  0  0  0  0  0  0  0  0
  142.6352  136.0829  152.1616 H   0  0  0  0  0  0  0  0  0  0  0  0
  143.4103  132.5006  151.8714 H   0  0  0  0  0  0  0  0  0  0  0  0
  146.0968  133.9003  151.5860 H   0  0  0  0  0  0  0  0  0  0  0  0
  145.3933  133.2528  153.0679 H   0  0  0  0  0  0  0  0  0  0  0  0
  147.1563  131.7863  151.5915 H   0  0  0  0  0  0  0  0  0  0  0  0
  145.8032  131.0174  152.4094 H   0  0  0  0  0  0  0  0  0  0  0  0
  146.1876  131.2526  149.5142 H   0  0  0  0  0  0  0  0  0  0  0  0
  144.9640  130.3561  150.4016 H   0  0  0  0  0  0  0  0  0  0  0  0
  143.5102  131.9768  149.5070 H   0  0  0  0  0  0  0  0  0  0  0  0
  144.8321  133.1133  149.2559 H   0  0  0  0  0  0  0  0  0  0  0  0
  144.4391  134.8545  149.2144 H   0  0  0  0  0  0  0  0  0  0  0  0
  143.6530  136.2231  149.9330 H   0  0  0  0  0  0  0  0  0  0  0  0
  146.1004  136.5083  150.0501 H   0  0  0  0  0  0  0  0  0  0  0  0
  146.2845  134.9970  150.8980 H   0  0  0  0  0  0  0  0  0  0  0  0
  142.6184  134.3406  150.6926 H   0  0  0  0  0  0  0  0  0  0  0  0
  1  2  1  0  0  0  0
  1 25  1  0  0  0  0
  1 26  1  0  0  0  0
  1 27  1  0  0  0  0
  2  3  1  0  0  0  0
  3  9  1  0  0  0  0
  3  4  2  0  0  0  0
  4  5  1  0  0  0  0
  4 28  1  0  0  0  0
  5  6  2  0  0  0  0
  5 29  1  0  0  0  0
  6  7  1  0  0  0  0
  6  8  1  0  0  0  0
  7 30  1  0  0  0  0
  7 31  1  0  0  0  0
  7 32  1  0  0  0  0
  8  9  2  0  0  0  0
  9 10  1  0  0  0  0
 10 11  1  0  0  0  0
 10 33  1  0  0  0  0
 11 12  2  0  0  0  0
 11 13  1  0  0  0  0
 13 14  1  0  0  0  0
 13 34  1  0  0  0  0
 14 24  1  0  0  0  0
 14 15  1  0  0  0  0
 14 35  1  0  0  0  0
 15 16  1  0  0  0  0
 15 36  1  0  0  0  0
 15 37  1  0  0  0  0
 16 17  1  0  0  0  0
 16 38  1  0  0  0  0
 16 39  1  0  0  0  0
 17 18  1  0  0  0  0
 17 23  1  0  0  0  0
 17 53  1  0  0  0  0
 18 22  1  0  0  0  0
 18 19  1  0  0  0  0
 18 40  1  0  0  0  0
 19 20  1  0  0  0  0
 19 41  1  0  0  0  0
 19 42  1  0  0  0  0
 20 21  1  0  0  0  0
 20 43  1  0  0  0  0
 20 44  1  0  0  0  0
 21 22  1  0  0  0  0
 21 45  1  0  0  0  0
 21 46  1  0  0  0  0
 22 47  1  0  0  0  0
 22 48  1  0  0  0  0
 23 24  1  0  0  0  0
 23 49  1  0  0  0  0
 23 50  1  0  0  0  0
 24 51  1  0  0  0  0
 24 52  1  0  0  0  0
M  CHG  1  17   1
M  END
> <s_m_source_file>
AV-unprocessed.smi

> <i_m_source_file_index>
2399

> <i_lp_mmshare_version>
43012

> <i_f3d_flags>
0

> <s_epik_input>
W0NIM11PYzFbY0hdW2NIXWMoW0NIM10pbmMxW05IXUMoPU8pW05IXVtDSF0yW0NIMl1bQ0gyXU4oW0NIMl1bQ0gyXTIpW0NIXTNbQ0gyXVtDSDJdW0NIMl1bQ0gyXTM=

> <s_epik_cmdline>
J2VwaWtfcHl0aG9uJywgJy1waCcsICc3LjAnLCAnLXRuJywgJzgnLCAnLW1hJywgJzIwMCcsICctbWV0YWxfYmluZGluZycsICctaW1hZScsICc8aW5maWxlLm1hZT4nLCAnLW9tYWUnLCAnPG91dGZpbGUubWFlPic=

> <r_lp_tautomer_probability>
1

> <r_epik_Ionization_Penalty>
0.00183805

> <r_epik_Ionization_Penalty_Charging>
0.00179121

> <r_epik_Ionization_Penalty_Neutral>
4.68398e-05

> <r_epik_State_Penalty>
0.00121448

> <r_epik_Charging_Adjusted_Penalty>
0.0030057

> <i_epik_Tot_Q>
1

> <i_epik_Tot_abs_Q>
1

> <r_epik_Metal_State_Penalty>
-0

> <b_epik_Metal_Only>
0

> <s_lp_Force_Field>
OPLS_2005

> <r_lp_Energy>
44.4335

> <b_lp_Chiralities_Consistent>
1

> <s_lp_Variant>
AV-unprocessed.smi:2399-2

> <Gold.Version>
5.8.1

> <Gold.Id.Protein>
6NUR|6NUR_protein|mol2

> <Gold.PLP.Fitness>
41.9124

> <Gold.PLP.PLP>
-33.8480

> <Gold.PLP.part.hbond>
-3.0000

> <Gold.PLP.part.metal>
0.0000

> <Gold.PLP.part.buried>
-6.4736

> <Gold.PLP.part.nonpolar>
-25.6796

> <Gold.PLP.part.repulsive>
0.2463

> <Gold.PLP.ligand.clash>
1.8759

> <Gold.PLP.ligand.torsion>
0.8692

> <Gold.PLP.Chemscore.Hbond>
3.8746

> <Gold.PLP.Chemscore.CHOScore>
0.0000

> <Gold.PLP.Chemscore.Metal>
0.0000

> <Gold.Chemscore.Hbonds>
donor molecule, donor type, donor heavy atom, donor atom, acceptor molecule, acceptor atom, score
      L1  H    10    33       P1  7948  0.90
      L1  H    13    34       P1  7948  0.99
      L1  H    17    53       P1 10186  2.00

> <Gold.PLP.Chemscore.Internal.Correction>
0.0549

> <Gold.Rescore>
     Score         DG    S(hbond)    S(metal)    S(lipo)     H(rot)  DE(clash)    DE(int)     intcor
     18.12     -21.33       2.59        0.00      91.82       1.38       0.05       3.16       ----

> <Gold.Chemscore.Fitness>
18.1169

> <Gold.Chemscore.DG>
-21.3287

> <Gold.Chemscore.ZeroCoef>
-5.4800

> <Gold.Chemscore.Hbond>
2.5885

> <Gold.Chemscore.Metal>
0.0000

> <Gold.Chemscore.Lipo>
91.8222

> <Gold.Chemscore.Internal_Hbond>
0.0000

> <Gold.Chemscore.DEClash>
0.0496

> <Gold.Chemscore.DEInternal>
3.1623

> <Gold.Chemscore.Rot>
1.3828

> <Gold.Chemscore.Internal.Correction>
   9.000000E+99

> <Gold.Chemscore.Hbonds>
donor molecule, donor type, donor heavy atom, donor atom, acceptor molecule, acceptor atom, score
      L1  H    10    33       P1  7948  0.86
      L1  H    13    34       P1  7948  0.92
      L1  H    17    53       P1 10186  0.39

> <Gold.Chemscore.Hbond.Weighted>
-8.6454

> <Gold.Chemscore.Metal.Weighted>
-0.0000

> <Gold.Chemscore.Lipo.Weighted>
-10.7432

> <Gold.Chemscore.Internal_Hbond.Weighted>
0.0000

> <Gold.Chemscore.DEClash.Weighted>
0.0496

> <Gold.Chemscore.DEInternal.Weighted>
3.1623

> <Gold.Chemscore.Rot.Weighted>
3.5399

> <Gold.Chemscore.Internal.Correction.Weighted>
   9.000000E+99

> <Gold.Protein.RotatedTorsions>
[ 6907 6896 6895 6894 ] final  147.44 input  -60.11 | X-H torsion
[ 7974 7965 7964 7962 ] final -101.20 input  175.53 | X-H torsion
[ 8008 7997 7996 7995 ] final   86.89 input   59.86 | X-H torsion
[ 10167 10162 10161 10158 ] final   13.77 input  -65.29 | X-H torsion
[ 10718 10713 10712 10709 ] final -174.19 input   66.30 | X-H torsion
[ 10763 10752 10751 10750 ] final   58.56 input  -60.55 | X-H torsion
[ 11005 11000 10999 10996 ] final -136.07 input  -57.11 | X-H torsion

> <Gold.Protein.ActiveResidues>
 VAL166  LYS551  ARG553  GLY616  TRP617  ASP618  TYR619  PRO620  LYS621  CYS622 
 ASP623  PHE694  ASN695  SER759  ASP760  ASP761  ALA762  ILE779  LEU786  VAL792 
 PHE793  MET794  SER795  GLU796  ALA797  LYS798  CYS799  TRP800  GLU811  SER814 

> <Gold.Protein.RotatedAtoms>
  152.1547  133.4544  159.4830 H   0  0  0  0  0  0  0  0  0  0  0  0  # atno 6907 bound_to 6896
  150.6899  134.2145  159.4381 H   0  0  0  0  0  0  0  0  0  0  0  0  # atno 6908 bound_to 6896
  152.0044  134.9910  160.0617 H   0  0  0  0  0  0  0  0  0  0  0  0  # atno 6909 bound_to 6896
  145.2847  140.9336  143.2912 H   0  0  0  0  0  0  0  0  0  0  0  0  # atno 7974 bound_to 7965
  155.9685  140.3387  155.6554 H   0  0  0  0  0  0  0  0  0  0  0  0  # atno 8008 bound_to 7997
  155.6705  140.0726  157.2540 H   0  0  0  0  0  0  0  0  0  0  0  0  # atno 8009 bound_to 7997
  154.4160  140.1692  156.1861 H   0  0  0  0  0  0  0  0  0  0  0  0  # atno 8010 bound_to 7997
  140.5980  143.8662  150.6937 H   0  0  0  0  0  0  0  0  0  0  0  0  # atno 10167 bound_to 10162
  156.7815  130.9485  151.3120 H   0  0  0  0  0  0  0  0  0  0  0  0  # atno 10718 bound_to 10713
  152.9873  135.5602  154.5572 H   0  0  0  0  0  0  0  0  0  0  0  0  # atno 10763 bound_to 10752
  154.4997  135.2797  155.1432 H   0  0  0  0  0  0  0  0  0  0  0  0  # atno 10764 bound_to 10752
  154.2868  135.6334  153.5422 H   0  0  0  0  0  0  0  0  0  0  0  0  # atno 10765 bound_to 10752
  140.8839  134.1897  157.4573 H   0  0  0  0  0  0  0  0  0  0  0  0  # atno 11005 bound_to 11000
  144.9223  139.4397  143.6535 LP  0  0  0  0  0  0  0  0  0  0  0  0  # atno 17320 bound_to 7965
  146.3205  139.8090  142.8949 LP  0  0  0  0  0  0  0  0  0  0  0  0  # atno 17321 bound_to 7965
  140.2201  143.3815  152.1649 LP  0  0  0  0  0  0  0  0  0  0  0  0  # atno 17342 bound_to 10162
  139.5271  144.7116  151.5188 LP  0  0  0  0  0  0  0  0  0  0  0  0  # atno 17343 bound_to 10162
  157.6644  130.8994  149.9900 LP  0  0  0  0  0  0  0  0  0  0  0  0  # atno 17370 bound_to 10713
  156.1215  130.3646  149.9879 LP  0  0  0  0  0  0  0  0  0  0  0  0  # atno 17371 bound_to 10713
  139.8722  134.9829  156.5177 LP  0  0  0  0  0  0  0  0  0  0  0  0  # atno 17394 bound_to 11000
  140.8428  133.8192  155.9092 LP  0  0  0  0  0  0  0  0  0  0  0  0  # atno 17395 bound_to 11000

$$$$
