AV-unprocessed.smi:475|AV-procd|sdf|2668|dock6
  -GOLD-   2262023 83D 1   1.00000     0.00000
 Structure written by MMmdl.
 40 42  0  0  0  0  0  0  0  0  2 V2000
  156.6395  139.9199  159.4882 C   0  0  0  0  0  0  0  0  0  0  0  0
  155.2563  139.9773  159.1886 O   0  0  0  0  0  0  0  0  0  0  0  0
  154.5350  140.7889  160.1010 C   0  0  0  0  0  0  0  0  0  0  0  0
  153.0282  140.5373  159.9471 C   0  0  0  0  0  0  0  0  0  0  0  0
  152.3701  141.5739  159.1381 N   0  0  0  0  0  0  0  0  0  0  0  0
  151.8480  141.5077  157.8819 C   0  0  0  0  0  0  0  0  0  0  0  0
  151.8257  140.0871  156.8376 S   0  0  0  0  0  0  0  0  0  0  0  0
  150.0843  139.8554  156.3690 C   0  0  0  0  0  0  0  0  0  0  0  0
  149.8215  140.1404  154.8865 C   0  0  0  0  0  0  0  0  0  0  0  0
  150.5461  139.6654  154.0110 O   0  0  0  0  0  0  0  0  0  0  0  0
  148.6853  140.9986  154.5666 C   0  0  0  0  0  0  0  0  0  0  0  0
  147.9398  141.8656  155.3197 C   0  0  0  0  0  0  0  0  0  0  0  0
  146.9455  142.4366  154.4697 C   0  0  0  0  0  0  0  0  0  0  0  0
  147.1053  141.9066  153.2187 C   0  0  0  0  0  0  0  0  0  0  0  0
  148.1677  141.0311  153.2878 N   0  0  0  0  0  0  0  0  0  0  0  0
  151.3454  142.7360  157.5770 N   0  3  0  0  0  0  0  0  0  0  0  0
  151.5445  143.6010  158.6543 C   0  0  0  0  0  0  0  0  0  0  0  0
  151.2076  144.9410  158.8195 C   0  0  0  0  0  0  0  0  0  0  0  0
  151.5515  145.5325  160.0528 C   0  0  0  0  0  0  0  0  0  0  0  0
  152.2019  144.7964  161.0644 C   0  0  0  0  0  0  0  0  0  0  0  0
  152.5398  143.4388  160.8852 C   0  0  0  0  0  0  0  0  0  0  0  0
  152.1996  142.8613  159.6619 C   0  0  0  0  0  0  0  0  0  0  0  0
  148.5207  140.4878  152.5123 H   0  0  0  0  0  0  0  0  0  0  0  0
  157.1452  139.2847  158.7610 H   0  0  0  0  0  0  0  0  0  0  0  0
  156.8113  139.4993  160.4798 H   0  0  0  0  0  0  0  0  0  0  0  0
  157.0942  140.9103  159.4438 H   0  0  0  0  0  0  0  0  0  0  0  0
  154.8427  140.5649  161.1234 H   0  0  0  0  0  0  0  0  0  0  0  0
  154.7555  141.8418  159.9174 H   0  0  0  0  0  0  0  0  0  0  0  0
  152.8368  139.5592  159.5058 H   0  0  0  0  0  0  0  0  0  0  0  0
  152.5500  140.5285  160.9270 H   0  0  0  0  0  0  0  0  0  0  0  0
  149.7877  138.8312  156.5958 H   0  0  0  0  0  0  0  0  0  0  0  0
  149.4635  140.5187  156.9714 H   0  0  0  0  0  0  0  0  0  0  0  0
  148.0884  142.0713  156.3696 H   0  0  0  0  0  0  0  0  0  0  0  0
  146.1925  143.1597  154.7463 H   0  0  0  0  0  0  0  0  0  0  0  0
  146.5693  142.0679  152.2949 H   0  0  0  0  0  0  0  0  0  0  0  0
  150.7069  145.5065  158.0474 H   0  0  0  0  0  0  0  0  0  0  0  0
  151.3094  146.5710  160.2276 H   0  0  0  0  0  0  0  0  0  0  0  0
  152.4465  145.2822  161.9981 H   0  0  0  0  0  0  0  0  0  0  0  0
  153.0331  142.8838  161.6692 H   0  0  0  0  0  0  0  0  0  0  0  0
  150.8985  142.9632  156.6982 H   0  0  0  0  0  0  0  0  0  0  0  0
  1  2  1  0  0  0  0
  1 24  1  0  0  0  0
  1 25  1  0  0  0  0
  1 26  1  0  0  0  0
  2  3  1  0  0  0  0
  3  4  1  0  0  0  0
  3 27  1  0  0  0  0
  3 28  1  0  0  0  0
  4  5  1  0  0  0  0
  4 29  1  0  0  0  0
  4 30  1  0  0  0  0
  5 22  1  0  0  0  0
  5  6  1  0  0  0  0
  6  7  1  0  0  0  0
  6 16  2  0  0  0  0
  7  8  1  0  0  0  0
  8  9  1  0  0  0  0
  8 31  1  0  0  0  0
  8 32  1  0  0  0  0
  9 10  2  0  0  0  0
  9 11  1  0  0  0  0
 11 15  1  0  0  0  0
 11 12  2  0  0  0  0
 12 13  1  0  0  0  0
 12 33  1  0  0  0  0
 13 14  2  0  0  0  0
 13 34  1  0  0  0  0
 14 15  1  0  0  0  0
 14 35  1  0  0  0  0
 15 23  1  0  0  0  0
 16 17  1  0  0  0  0
 16 40  1  0  0  0  0
 17 22  2  0  0  0  0
 17 18  1  0  0  0  0
 18 19  2  0  0  0  0
 18 36  1  0  0  0  0
 19 20  1  0  0  0  0
 19 37  1  0  0  0  0
 20 21  2  0  0  0  0
 20 38  1  0  0  0  0
 21 22  1  0  0  0  0
 21 39  1  0  0  0  0
M  CHG  1  16   1
M  END
> <s_m_source_file>
AV-unprocessed.smi

> <i_m_source_file_index>
475

> <i_lp_mmshare_version>
43012

> <i_f3d_flags>
0

> <s_epik_input>
W2NIXTFbY0hdW2NIXVtjSF1jKGMxMiluKFtDSDJdW0NIMl1PW0NIM10pYyhuMilTW0NIMl1DKD1PKWMzW2NIXVtjSF1bY0hdW25IXTM=

> <s_epik_cmdline>
J2VwaWtfcHl0aG9uJywgJy1waCcsICc3LjAnLCAnLXRuJywgJzgnLCAnLW1hJywgJzIwMCcsICctbWV0YWxfYmluZGluZycsICctaW1hZScsICc8aW5maWxlLm1hZT4nLCAnLW9tYWUnLCAnPG91dGZpbGUubWFlPic=

> <r_lp_tautomer_probability>
0.9999

> <r_epik_Ionization_Penalty>
2.12955

> <r_epik_Ionization_Penalty_Charging>
2.12955

> <r_epik_Ionization_Penalty_Neutral>
1.90655e-06

> <r_epik_State_Penalty>
2.26782

> <r_epik_Charging_Adjusted_Penalty>
4.39737

> <i_epik_Tot_Q>
1

> <i_epik_Tot_abs_Q>
1

> <r_epik_Metal_State_Penalty>
2.28582

> <b_epik_Metal_Only>
0

> <s_lp_Force_Field>
OPLS_2005

> <r_lp_Energy>
16.0961

> <b_lp_Chiralities_Consistent>
1

> <s_lp_Variant>
AV-unprocessed.smi:475-2

> <Gold.Version>
5.8.1

> <Gold.Id.Protein>
6NUR|6NUR_protein|mol2

> <Gold.PLP.Fitness>
55.3266

> <Gold.PLP.PLP>
-48.4040

> <Gold.PLP.part.hbond>
-3.0000

> <Gold.PLP.part.metal>
0.0000

> <Gold.PLP.part.buried>
-6.4373

> <Gold.PLP.part.nonpolar>
-39.7575

> <Gold.PLP.part.repulsive>
0.3765

> <Gold.PLP.ligand.clash>
0.0000

> <Gold.PLP.ligand.torsion>
1.0892

> <Gold.PLP.Chemscore.Hbond>
2.9920

> <Gold.PLP.Chemscore.CHOScore>
0.0000

> <Gold.PLP.Chemscore.Metal>
0.0000

> <Gold.Chemscore.Hbonds>
donor molecule, donor type, donor heavy atom, donor atom, acceptor molecule, acceptor atom, score
      L1  H    15    23       P1  7957  1.00
      P1  H  7989  7998       L1    10  1.00
      P1  H  7997  8009       L1     2  0.99

> <Gold.PLP.Chemscore.Internal.Correction>
0.1249

> <Gold.Rescore>
     Score         DG    S(hbond)    S(metal)    S(lipo)     H(rot)  DE(clash)    DE(int)     intcor
     22.12     -23.31       2.58        0.00     124.86       2.10       0.05       1.13       ----

> <Gold.Chemscore.Fitness>
22.1233

> <Gold.Chemscore.DG>
-23.3084

> <Gold.Chemscore.ZeroCoef>
-5.4800

> <Gold.Chemscore.Hbond>
2.5771

> <Gold.Chemscore.Metal>
0.0000

> <Gold.Chemscore.Lipo>
124.8620

> <Gold.Chemscore.Internal_Hbond>
0.0000

> <Gold.Chemscore.DEClash>
0.0506

> <Gold.Chemscore.DEInternal>
1.1345

> <Gold.Chemscore.Rot>
2.1046

> <Gold.Chemscore.Internal.Correction>
   9.000000E+99

> <Gold.Chemscore.Hbonds>
donor molecule, donor type, donor heavy atom, donor atom, acceptor molecule, acceptor atom, score
      L1  H    15    23       P1  7957  0.99
      P1  H  7989  7998       L1    10  0.69
      P1  H  7997  8009       L1     2  0.47

> <Gold.Chemscore.Hbond.Weighted>
-8.6074

> <Gold.Chemscore.Metal.Weighted>
-0.0000

> <Gold.Chemscore.Lipo.Weighted>
-14.6089

> <Gold.Chemscore.Internal_Hbond.Weighted>
0.0000

> <Gold.Chemscore.DEClash.Weighted>
0.0506

> <Gold.Chemscore.DEInternal.Weighted>
1.1345

> <Gold.Chemscore.Rot.Weighted>
5.3878

> <Gold.Chemscore.Internal.Correction.Weighted>
   9.000000E+99

> <Gold.Protein.RotatedTorsions>
[ 6907 6896 6895 6894 ] final  159.39 input  -60.11 | X-H torsion
[ 7974 7965 7964 7962 ] final   25.47 input  175.53 | X-H torsion
[ 8008 7997 7996 7995 ] final  118.63 input   59.86 | X-H torsion
[ 10167 10162 10161 10158 ] final   -4.68 input  -65.29 | X-H torsion
[ 10718 10713 10712 10709 ] final  -84.97 input   66.30 | X-H torsion
[ 10763 10752 10751 10750 ] final -157.18 input  -60.55 | X-H torsion
[ 11005 11000 10999 10996 ] final  -37.09 input  -57.11 | X-H torsion

> <Gold.Protein.ActiveResidues>
 VAL166  LYS551  ARG553  GLY616  TRP617  ASP618  TYR619  PRO620  LYS621  CYS622 
 ASP623  PHE694  ASN695  SER759  ASP760  ASP761  ALA762  ILE779  LEU786  VAL792 
 PHE793  MET794  SER795  GLU796  ALA797  LYS798  CYS799  TRP800  GLU811  SER814 

> <Gold.Protein.RotatedAtoms>
  151.9863  133.3775  159.4126 H   0  0  0  0  0  0  0  0  0  0  0  0  # atno 6907 bound_to 6896
  150.6928  134.3984  159.5117 H   0  0  0  0  0  0  0  0  0  0  0  0  # atno 6908 bound_to 6896
  152.1711  134.8833  160.0585 H   0  0  0  0  0  0  0  0  0  0  0  0  # atno 6909 bound_to 6896
  146.1887  139.7462  142.8848 H   0  0  0  0  0  0  0  0  0  0  0  0  # atno 7974 bound_to 7965
  156.2556  140.2870  156.0865 H   0  0  0  0  0  0  0  0  0  0  0  0  # atno 8008 bound_to 7997
  155.1510  140.0397  157.2838 H   0  0  0  0  0  0  0  0  0  0  0  0  # atno 8009 bound_to 7997
  154.6461  140.2533  155.7273 H   0  0  0  0  0  0  0  0  0  0  0  0  # atno 8010 bound_to 7997
  140.6936  143.6396  150.8448 H   0  0  0  0  0  0  0  0  0  0  0  0  # atno 10167 bound_to 10162
  156.0001  130.4715  150.4490 H   0  0  0  0  0  0  0  0  0  0  0  0  # atno 10718 bound_to 10713
  154.7656  135.3130  154.8293 H   0  0  0  0  0  0  0  0  0  0  0  0  # atno 10763 bound_to 10752
  153.9042  135.6812  153.4758 H   0  0  0  0  0  0  0  0  0  0  0  0  # atno 10764 bound_to 10752
  153.1262  135.4800  154.9208 H   0  0  0  0  0  0  0  0  0  0  0  0  # atno 10765 bound_to 10752
  140.9925  133.6997  156.1875 H   0  0  0  0  0  0  0  0  0  0  0  0  # atno 11005 bound_to 11000
  145.3860  141.0365  143.3151 LP  0  0  0  0  0  0  0  0  0  0  0  0  # atno 17320 bound_to 7965
  144.8445  139.5419  143.6885 LP  0  0  0  0  0  0  0  0  0  0  0  0  # atno 17321 bound_to 7965
  140.0111  143.5641  152.2838 LP  0  0  0  0  0  0  0  0  0  0  0  0  # atno 17342 bound_to 10162
  139.6366  144.7650  151.2426 LP  0  0  0  0  0  0  0  0  0  0  0  0  # atno 17343 bound_to 10162
  157.2525  131.0549  151.2370 LP  0  0  0  0  0  0  0  0  0  0  0  0  # atno 17370 bound_to 10713
  157.3514  130.7084  149.6443 LP  0  0  0  0  0  0  0  0  0  0  0  0  # atno 17371 bound_to 10713
  140.7018  134.4556  157.5586 LP  0  0  0  0  0  0  0  0  0  0  0  0  # atno 17394 bound_to 11000
  139.8999  134.8581  156.1941 LP  0  0  0  0  0  0  0  0  0  0  0  0  # atno 17395 bound_to 11000

$$$$
