AV-unprocessed.smi:283|AV-procd|sdf|2151|dock9
  -GOLD-   2262021493D 1   1.00000     0.00000
 Structure written by MMmdl.
 48 51  0  0  0  0  0  0  0  0  1 V2000
  146.5499  132.3594  158.3732 C   0  0  0  0  0  0  0  0  0  0  0  0
  147.2008  133.7545  158.3891 C   0  0  2  0  0  0  0  0  0  0  0  0
  148.4955  133.7450  157.7086 N   0  0  0  0  0  0  0  0  0  0  0  0
  148.5941  133.6990  156.3613 C   0  0  0  0  0  0  0  0  0  0  0  0
  149.7334  133.2852  155.7483 N   0  0  0  0  0  0  0  0  0  0  0  0
  149.7993  133.2500  154.4146 C   0  0  0  0  0  0  0  0  0  0  0  0
  148.8590  133.5739  153.5246 N   0  0  0  0  0  0  0  0  0  0  0  0
  147.7079  133.9830  154.1324 C   0  0  0  0  0  0  0  0  0  0  0  0
  147.5005  134.0721  155.5378 C   0  0  0  0  0  0  0  0  0  0  0  0
  146.2145  134.5254  155.7967 N   0  0  0  0  0  0  0  0  0  0  0  0
  145.6956  134.6940  154.6106 C   0  0  0  0  0  0  0  0  0  0  0  0
  146.5208  134.3869  153.5508 N   0  0  0  0  0  0  0  0  0  0  0  0
  146.1927  134.5042  152.0940 C   0  0  1  0  0  0  0  0  0  0  0  0
  145.7855  133.2473  151.6376 O   0  0  0  0  0  0  0  0  0  0  0  0
  144.4378  133.2937  151.1761 C   0  0  2  0  0  0  0  0  0  0  0  0
  144.1944  132.2297  150.0906 C   0  0  0  0  0  0  0  0  0  0  0  0
  142.8298  132.1991  149.7293 O   0  0  0  0  0  0  0  0  0  0  0  0
  144.2265  134.7614  150.7799 C   0  0  2  0  0  0  0  0  0  0  0  0
  144.7030  134.9995  149.4641 O   0  0  0  0  0  0  0  0  0  0  0  0
  145.0444  135.4940  151.8397 C   0  0  2  0  0  0  0  0  0  0  0  0
  145.4813  136.7577  151.3772 O   0  0  0  0  0  0  0  0  0  0  0  0
  147.2978  134.2657  159.8256 C   0  0  0  0  0  0  0  0  0  0  0  0
  146.8589  133.4512  160.8962 C   0  0  0  0  0  0  0  0  0  0  0  0
  146.9323  133.9091  162.2251 C   0  0  0  0  0  0  0  0  0  0  0  0
  147.4404  135.1913  162.4995 C   0  0  0  0  0  0  0  0  0  0  0  0
  147.8684  136.0154  161.4427 C   0  0  0  0  0  0  0  0  0  0  0  0
  147.7966  135.5627  160.1098 C   0  0  0  0  0  0  0  0  0  0  0  0
  148.3207  136.6278  158.8522 Cl  0  0  0  0  0  0  0  0  0  0  0  0
  147.1283  134.7834  151.6075 H   0  0  0  0  0  0  0  0  0  0  0  0
  143.7933  133.0712  152.0261 H   0  0  0  0  0  0  0  0  0  0  0  0
  143.1736  135.0431  150.8178 H   0  0  0  0  0  0  0  0  0  0  0  0
  144.4489  135.6194  152.7442 H   0  0  0  0  0  0  0  0  0  0  0  0
  145.5634  132.3851  158.8371 H   0  0  0  0  0  0  0  0  0  0  0  0
  147.1539  131.6349  158.9206 H   0  0  0  0  0  0  0  0  0  0  0  0
  146.4188  131.9818  157.3595 H   0  0  0  0  0  0  0  0  0  0  0  0
  146.5621  134.4438  157.8381 H   0  0  0  0  0  0  0  0  0  0  0  0
  149.3038  133.7381  158.3139 H   0  0  0  0  0  0  0  0  0  0  0  0
  150.7389  132.9136  154.0017 H   0  0  0  0  0  0  0  0  0  0  0  0
  144.6846  135.0504  154.4753 H   0  0  0  0  0  0  0  0  0  0  0  0
  144.8063  132.4091  149.2064 H   0  0  0  0  0  0  0  0  0  0  0  0
  144.4711  131.2458  150.4698 H   0  0  0  0  0  0  0  0  0  0  0  0
  142.5230  133.0885  149.6364 H   0  0  0  0  0  0  0  0  0  0  0  0
  143.9692  135.2483  148.9226 H   0  0  0  0  0  0  0  0  0  0  0  0
  144.8111  137.1129  150.8128 H   0  0  0  0  0  0  0  0  0  0  0  0
  146.4561  132.4669  160.7073 H   0  0  0  0  0  0  0  0  0  0  0  0
  146.5961  133.2768  163.0337 H   0  0  0  0  0  0  0  0  0  0  0  0
  147.4967  135.5444  163.5186 H   0  0  0  0  0  0  0  0  0  0  0  0
  148.2506  137.0026  161.6566 H   0  0  0  0  0  0  0  0  0  0  0  0
  1  2  1  0  0  0  0
  1 33  1  0  0  0  0
  1 34  1  0  0  0  0
  1 35  1  0  0  0  0
  2  3  1  0  0  0  0
  2 22  1  0  0  0  0
  2 36  1  0  0  0  0
  3  4  1  0  0  0  0
  3 37  1  0  0  0  0
  4  9  1  0  0  0  0
  4  5  2  0  0  0  0
  5  6  1  0  0  0  0
  6  7  2  0  0  0  0
  6 38  1  0  0  0  0
  7  8  1  0  0  0  0
  8 12  1  0  0  0  0
  8  9  2  0  0  0  0
  9 10  1  0  0  0  0
 10 11  2  0  0  0  0
 11 12  1  0  0  0  0
 11 39  1  0  0  0  0
 12 13  1  0  0  0  0
 13 29  1  0  0  0  0
 13 20  1  0  0  0  0
 13 14  1  0  0  0  0
 14 15  1  0  0  0  0
 15 30  1  0  0  0  0
 15 16  1  0  0  0  0
 15 18  1  0  0  0  0
 16 17  1  0  0  0  0
 16 40  1  0  0  0  0
 16 41  1  0  0  0  0
 17 42  1  0  0  0  0
 18 31  1  0  0  0  0
 18 19  1  0  0  0  0
 18 20  1  0  0  0  0
 19 43  1  0  0  0  0
 20 32  1  0  0  0  0
 20 21  1  0  0  0  0
 21 44  1  0  0  0  0
 22 27  1  0  0  0  0
 22 23  2  0  0  0  0
 23 24  1  0  0  0  0
 23 45  1  0  0  0  0
 24 25  2  0  0  0  0
 24 46  1  0  0  0  0
 25 26  1  0  0  0  0
 25 47  1  0  0  0  0
 26 27  2  0  0  0  0
 26 48  1  0  0  0  0
 27 28  1  0  0  0  0
M  END
> <s_m_source_file>
AV-unprocessed.smi

> <i_m_source_file_index>
283

> <i_lp_mmshare_version>
43012

> <i_f3d_flags>
0

> <s_epik_input>
Q2xjMVtjSF1bY0hdW2NIXVtjSF1jMVtDQEhdKFtDSDNdKVtOSF1jKG5bY0hdbjIpYyhjMjMpbltjSF1uM1tDQEBIXTRPW0NASF0oW0NIMl1bT0hdKVtDQEBIXShbT0hdKVtDQEhdNFtPSF0=

> <s_epik_cmdline>
J2VwaWtfcHl0aG9uJywgJy1waCcsICc3LjAnLCAnLXRuJywgJzgnLCAnLW1hJywgJzIwMCcsICctbWV0YWxfYmluZGluZycsICctaW1hZScsICc8aW5maWxlLm1hZT4nLCAnLW9tYWUnLCAnPG91dGZpbGUubWFlPic=

> <r_lp_tautomer_probability>
1

> <r_epik_Ionization_Penalty>
0.000266407

> <r_epik_Ionization_Penalty_Charging>
0

> <r_epik_Ionization_Penalty_Neutral>
0.000266407

> <r_epik_State_Penalty>
-0

> <r_epik_Charging_Adjusted_Penalty>
0

> <i_epik_Tot_Q>
0

> <i_epik_Tot_abs_Q>
0

> <r_epik_Metal_State_Penalty>
-0

> <b_epik_Metal_Only>
0

> <s_epik_Chemistry_Notes>
This compound contains an acetal/aminal-like group ( X-CH(R)-Y where X, Y are N, S, or O) that may be acid/base labile, releasing an aldehyde.

> <s_lp_Force_Field>
OPLS_2005

> <r_lp_Energy>
49.1948

> <b_lp_Chiralities_Consistent>
1

> <s_lp_Variant>
AV-unprocessed.smi:283-27

> <Gold.Version>
5.8.1

> <Gold.Id.Protein>
6NUR|6NUR_protein|mol2

> <Gold.PLP.Fitness>
45.9870

> <Gold.PLP.PLP>
-41.4489

> <Gold.PLP.part.hbond>
-3.4715

> <Gold.PLP.part.metal>
0.0000

> <Gold.PLP.part.buried>
-8.7967

> <Gold.PLP.part.nonpolar>
-29.5215

> <Gold.PLP.part.repulsive>
0.7918

> <Gold.PLP.ligand.clash>
0.0000

> <Gold.PLP.ligand.torsion>
1.0061

> <Gold.PLP.Chemscore.Hbond>
2.1538

> <Gold.PLP.Chemscore.CHOScore>
0.0000

> <Gold.PLP.Chemscore.Metal>
0.0000

> <Gold.Chemscore.Hbonds>
donor molecule, donor type, donor heavy atom, donor atom, acceptor molecule, acceptor atom, score
      L1  H    17    42       P1 10186  0.99
      L1  H    21    44       P1 10171  1.00
      P1  H 10785 10796       L1    17  0.13

> <Gold.PLP.Chemscore.Internal.Correction>
0.0889

> <Gold.Rescore>
     Score         DG    S(hbond)    S(metal)    S(lipo)     H(rot)  DE(clash)    DE(int)     intcor
      7.75     -10.13       1.94        0.00      73.96       4.10       0.02       2.36       ----

> <Gold.Chemscore.Fitness>
7.7455

> <Gold.Chemscore.DG>
-10.1286

> <Gold.Chemscore.ZeroCoef>
-5.4800

> <Gold.Chemscore.Hbond>
1.9410

> <Gold.Chemscore.Metal>
0.0000

> <Gold.Chemscore.Lipo>
73.9631

> <Gold.Chemscore.Internal_Hbond>
0.0000

> <Gold.Chemscore.DEClash>
0.0202

> <Gold.Chemscore.DEInternal>
2.3629

> <Gold.Chemscore.Rot>
4.0968

> <Gold.Chemscore.Internal.Correction>
   9.000000E+99

> <Gold.Chemscore.Hbonds>
donor molecule, donor type, donor heavy atom, donor atom, acceptor molecule, acceptor atom, score
      L1  H    17    42       P1 10186  0.89
      L1  H    21    44       P1 10171  0.93

> <Gold.Chemscore.Hbond.Weighted>
-6.4829

> <Gold.Chemscore.Metal.Weighted>
-0.0000

> <Gold.Chemscore.Lipo.Weighted>
-8.6537

> <Gold.Chemscore.Internal_Hbond.Weighted>
0.0000

> <Gold.Chemscore.DEClash.Weighted>
0.0202

> <Gold.Chemscore.DEInternal.Weighted>
2.3629

> <Gold.Chemscore.Rot.Weighted>
10.4879

> <Gold.Chemscore.Internal.Correction.Weighted>
   9.000000E+99

> <Gold.Protein.RotatedTorsions>
[ 6907 6896 6895 6894 ] final   -6.23 input  -60.11 | X-H torsion
[ 7974 7965 7964 7962 ] final -144.78 input  175.53 | X-H torsion
[ 8008 7997 7996 7995 ] final   59.39 input   59.86 | X-H torsion
[ 10167 10162 10161 10158 ] final  139.65 input  -65.29 | X-H torsion
[ 10718 10713 10712 10709 ] final   58.97 input   66.30 | X-H torsion
[ 10763 10752 10751 10750 ] final  -56.96 input  -60.55 | X-H torsion
[ 11005 11000 10999 10996 ] final  107.05 input  -57.11 | X-H torsion

> <Gold.Protein.ActiveResidues>
 VAL166  LYS551  ARG553  GLY616  TRP617  ASP618  TYR619  PRO620  LYS621  CYS622 
 ASP623  PHE694  ASN695  SER759  ASP760  ASP761  ALA762  ILE779  LEU786  VAL792 
 PHE793  MET794  SER795  GLU796  ALA797  LYS798  CYS799  TRP800  GLU811  SER814 

> <Gold.Protein.RotatedAtoms>
  151.4689  135.1044  159.9745 H   0  0  0  0  0  0  0  0  0  0  0  0  # atno 6907 bound_to 6896
  152.4824  133.8283  159.7100 H   0  0  0  0  0  0  0  0  0  0  0  0  # atno 6908 bound_to 6896
  150.8906  133.7187  159.2932 H   0  0  0  0  0  0  0  0  0  0  0  0  # atno 6909 bound_to 6896
  144.8273  140.5667  143.5538 H   0  0  0  0  0  0  0  0  0  0  0  0  # atno 7974 bound_to 7965
  155.5655  140.3489  155.4502 H   0  0  0  0  0  0  0  0  0  0  0  0  # atno 8008 bound_to 7997
  156.0483  140.1312  157.0104 H   0  0  0  0  0  0  0  0  0  0  0  0  # atno 8009 bound_to 7997
  154.4422  140.1010  156.6323 H   0  0  0  0  0  0  0  0  0  0  0  0  # atno 8010 bound_to 7997
  139.5072  144.6282  151.5885 H   0  0  0  0  0  0  0  0  0  0  0  0  # atno 10167 bound_to 10162
  157.5638  130.8856  149.9154 H   0  0  0  0  0  0  0  0  0  0  0  0  # atno 10718 bound_to 10713
  154.2148  135.6388  153.5126 H   0  0  0  0  0  0  0  0  0  0  0  0  # atno 10763 bound_to 10752
  152.9982  135.5483  154.6176 H   0  0  0  0  0  0  0  0  0  0  0  0  # atno 10764 bound_to 10752
  154.5622  135.2910  155.0882 H   0  0  0  0  0  0  0  0  0  0  0  0  # atno 10765 bound_to 10752
  139.8822  134.9388  156.5760 H   0  0  0  0  0  0  0  0  0  0  0  0  # atno 11005 bound_to 11000
  145.4971  139.1485  143.3677 LP  0  0  0  0  0  0  0  0  0  0  0  0  # atno 17320 bound_to 7965
  146.2578  140.5110  142.8866 LP  0  0  0  0  0  0  0  0  0  0  0  0  # atno 17321 bound_to 7965
  140.6005  143.9618  150.6383 LP  0  0  0  0  0  0  0  0  0  0  0  0  # atno 17342 bound_to 10162
  140.2828  143.3378  152.1135 LP  0  0  0  0  0  0  0  0  0  0  0  0  # atno 17343 bound_to 10162
  156.0688  130.3688  150.0820 LP  0  0  0  0  0  0  0  0  0  0  0  0  # atno 17370 bound_to 10713
  156.8981  130.9611  151.3580 LP  0  0  0  0  0  0  0  0  0  0  0  0  # atno 17371 bound_to 10713
  140.8063  133.8465  155.8770 LP  0  0  0  0  0  0  0  0  0  0  0  0  # atno 17394 bound_to 11000
  140.9547  134.1733  157.4701 LP  0  0  0  0  0  0  0  0  0  0  0  0  # atno 17395 bound_to 11000

$$$$
