AV-unprocessed.smi:1897|AV-procd|sdf|7694|dock3
  -GOLD-   22720 9433D 1   1.00000     0.00000
 Structure written by MMmdl.
 38 40  0  0  0  0  0  0  0  0  3 V2000
  148.8089  140.8621  154.8603 C   0  0  0  0  0  0  0  0  0  0  0  0
  149.6723  139.6484  154.8104 C   0  0  0  0  0  0  0  0  0  0  0  0
  151.0050  139.7120  154.7623 N   0  0  0  0  0  0  0  0  0  0  0  0
  151.5876  138.4536  154.7282 N   0  0  0  0  0  0  0  0  0  0  0  0
  150.6899  137.4580  154.7373 C   0  0  0  0  0  0  0  0  0  0  0  0
  151.0491  136.1610  154.7034 N   0  5  0  0  0  0  0  0  0  0  0  0
  150.1880  135.1543  155.0034 C   0  0  0  0  0  0  0  0  0  0  0  0
  150.2102  134.5384  156.0681 O   0  0  0  0  0  0  0  0  0  0  0  0
  149.2666  134.8218  154.0802 N   0  0  0  0  0  0  0  0  0  0  0  0
  148.2587  133.7781  154.2167 C   0  0  2  0  0  0  0  0  0  0  0  0
  148.8385  132.3513  154.2526 C   0  0  0  0  0  0  0  0  0  0  0  0
  147.8573  131.4924  153.4308 C   0  0  0  0  0  0  0  0  0  0  0  0
  146.7437  132.3969  153.0866 N   0  3  2  0  0  0  0  0  0  0  0  0
  145.9337  132.0515  151.8984 C   0  0  0  0  0  0  0  0  0  0  0  0
  144.7816  133.0669  151.7568 C   0  0  0  0  0  0  0  0  0  0  0  0
  145.2972  134.5211  151.7488 C   0  0  0  0  0  0  0  0  0  0  0  0
  146.2120  134.7943  152.9585 C   0  0  0  0  0  0  0  0  0  0  0  0
  147.3314  133.7417  153.0045 C   0  0  1  0  0  0  0  0  0  0  0  0
  149.0193  138.0187  154.8038 S   0  0  0  0  0  0  0  0  0  0  0  0
  148.6805  141.2693  153.8574 H   0  0  0  0  0  0  0  0  0  0  0  0
  149.2636  141.6239  155.4944 H   0  0  0  0  0  0  0  0  0  0  0  0
  147.8285  140.6123  155.2661 H   0  0  0  0  0  0  0  0  0  0  0  0
  149.2737  135.3398  153.2137 H   0  0  0  0  0  0  0  0  0  0  0  0
  147.6617  133.9488  155.1150 H   0  0  0  0  0  0  0  0  0  0  0  0
  149.8317  132.3121  153.8029 H   0  0  0  0  0  0  0  0  0  0  0  0
  148.9298  131.9941  155.2789 H   0  0  0  0  0  0  0  0  0  0  0  0
  148.3445  131.1359  152.5219 H   0  0  0  0  0  0  0  0  0  0  0  0
  147.4970  130.6255  153.9851 H   0  0  0  0  0  0  0  0  0  0  0  0
  146.5611  132.0582  151.0057 H   0  0  0  0  0  0  0  0  0  0  0  0
  145.5357  131.0422  152.0071 H   0  0  0  0  0  0  0  0  0  0  0  0
  144.2151  132.8657  150.8471 H   0  0  0  0  0  0  0  0  0  0  0  0
  144.0852  132.9382  152.5865 H   0  0  0  0  0  0  0  0  0  0  0  0
  145.8512  134.7034  150.8270 H   0  0  0  0  0  0  0  0  0  0  0  0
  144.4577  135.2171  151.7479 H   0  0  0  0  0  0  0  0  0  0  0  0
  146.6376  135.7960  152.8902 H   0  0  0  0  0  0  0  0  0  0  0  0
  145.6281  134.7632  153.8795 H   0  0  0  0  0  0  0  0  0  0  0  0
  147.9291  133.8050  152.0914 H   0  0  0  0  0  0  0  0  0  0  0  0
  146.1241  132.4059  153.8841 H   0  0  0  0  0  0  0  0  0  0  0  0
  1  2  1  0  0  0  0
  1 20  1  0  0  0  0
  1 21  1  0  0  0  0
  1 22  1  0  0  0  0
  2 19  1  0  0  0  0
  2  3  2  0  0  0  0
  3  4  1  0  0  0  0
  4  5  2  0  0  0  0
  5  6  1  0  0  0  0
  5 19  1  0  0  0  0
  6  7  1  0  0  0  0
  7  8  2  0  0  0  0
  7  9  1  0  0  0  0
  9 10  1  0  0  0  0
  9 23  1  0  0  0  0
 10 18  1  0  0  0  0
 10 11  1  0  0  0  0
 10 24  1  0  0  0  0
 11 12  1  0  0  0  0
 11 25  1  0  0  0  0
 11 26  1  0  0  0  0
 12 13  1  0  0  0  0
 12 27  1  0  0  0  0
 12 28  1  0  0  0  0
 13 18  1  0  0  0  0
 13 14  1  0  0  0  0
 13 38  1  0  0  0  0
 14 15  1  0  0  0  0
 14 29  1  0  0  0  0
 14 30  1  0  0  0  0
 15 16  1  0  0  0  0
 15 31  1  0  0  0  0
 15 32  1  0  0  0  0
 16 17  1  0  0  0  0
 16 33  1  0  0  0  0
 16 34  1  0  0  0  0
 17 18  1  0  0  0  0
 17 35  1  0  0  0  0
 17 36  1  0  0  0  0
 18 37  1  0  0  0  0
M  CHG  1   6  -1
M  CHG  1  13   1
M  END
> <s_m_source_file>
AV-unprocessed.smi

> <i_m_source_file_index>
1897

> <i_lp_mmshare_version>
43012

> <i_f3d_flags>
0

> <s_epik_input>
W0NIM11jMW5uYyhzMSlbTkhdQyg9TylbTkhdW0NASF0oW0NIMl1bQ0gyXTIpW0NAQEhdKE4yMylbQ0gyXVtDSDJdW0NIMl1bQ0gyXTM=

> <s_epik_cmdline>
J2VwaWtfcHl0aG9uJywgJy1waCcsICc3LjAnLCAnLXRuJywgJzgnLCAnLW1hJywgJzIwMCcsICctbWV0YWxfYmluZGluZycsICctaW1hZScsICc8aW5maWxlLm1hZT4nLCAnLW9tYWUnLCAnPG91dGZpbGUubWFlPic=

> <r_lp_tautomer_probability>
1

> <r_epik_Ionization_Penalty>
3.77712

> <r_epik_Ionization_Penalty_Charging>
3.67739

> <r_epik_Ionization_Penalty_Neutral>
0.0997294

> <r_epik_State_Penalty>
3.67514

> <r_epik_Charging_Adjusted_Penalty>
7.35254

> <i_epik_Tot_Q>
0

> <i_epik_Tot_abs_Q>
2

> <r_epik_Metal_State_Penalty>
0.540795

> <b_epik_Metal_Only>
1

> <s_lp_Force_Field>
OPLS_2005

> <r_lp_Energy>
28.3617

> <b_lp_Chiralities_Consistent>
1

> <s_lp_Variant>
AV-unprocessed.smi:1897-11

> <Gold.Version>
5.8.1

> <Gold.Id.Protein>
6NUR|6NUR_protein|mol2

> <Gold.PLP.Fitness>
38.1440

> <Gold.PLP.PLP>
-28.3042

> <Gold.PLP.part.hbond>
-3.0000

> <Gold.PLP.part.metal>
0.0000

> <Gold.PLP.part.buried>
-4.0894

> <Gold.PLP.part.nonpolar>
-22.3176

> <Gold.PLP.part.repulsive>
0.3989

> <Gold.PLP.ligand.clash>
0.0000

> <Gold.PLP.ligand.torsion>
0.7886

> <Gold.PLP.Chemscore.Hbond>
3.8000

> <Gold.PLP.Chemscore.CHOScore>
0.0000

> <Gold.PLP.Chemscore.Metal>
0.0000

> <Gold.Chemscore.Hbonds>
donor molecule, donor type, donor heavy atom, donor atom, acceptor molecule, acceptor atom, score
      L1  H     9    23       P1  7948  0.85
      P1  H  7989  7998       L1     3  1.00
      P1  H 10752 10765       L1     6  2.00

> <Gold.PLP.Chemscore.Internal.Correction>
0.0171

> <Gold.Rescore>
     Score         DG    S(hbond)    S(metal)    S(lipo)     H(rot)  DE(clash)    DE(int)     intcor
     15.62     -16.33       2.11        0.00      54.39       1.00       0.01       0.70       ----

> <Gold.Chemscore.Fitness>
15.6154

> <Gold.Chemscore.DG>
-16.3270

> <Gold.Chemscore.ZeroCoef>
-5.4800

> <Gold.Chemscore.Hbond>
2.1087

> <Gold.Chemscore.Metal>
0.0000

> <Gold.Chemscore.Lipo>
54.3919

> <Gold.Chemscore.Internal_Hbond>
0.0000

> <Gold.Chemscore.DEClash>
0.0067

> <Gold.Chemscore.DEInternal>
0.7049

> <Gold.Chemscore.Rot>
1.0000

> <Gold.Chemscore.Internal.Correction>
   9.000000E+99

> <Gold.Chemscore.Hbonds>
donor molecule, donor type, donor heavy atom, donor atom, acceptor molecule, acceptor atom, score
      L1  H     9    23       P1  7948  0.14
      P1  H  7989  7998       L1     3  0.78
      P1  H 10752 10765       L1     6  0.86

> <Gold.Chemscore.Hbond.Weighted>
-7.0431

> <Gold.Chemscore.Metal.Weighted>
-0.0000

> <Gold.Chemscore.Lipo.Weighted>
-6.3639

> <Gold.Chemscore.Internal_Hbond.Weighted>
0.0000

> <Gold.Chemscore.DEClash.Weighted>
0.0067

> <Gold.Chemscore.DEInternal.Weighted>
0.7049

> <Gold.Chemscore.Rot.Weighted>
2.5600

> <Gold.Chemscore.Internal.Correction.Weighted>
   9.000000E+99

> <Gold.Protein.RotatedTorsions>
[ 6907 6896 6895 6894 ] final -105.12 input  -60.11 | X-H torsion
[ 7974 7965 7964 7962 ] final -153.31 input  175.53 | X-H torsion
[ 8008 7997 7996 7995 ] final  176.49 input   59.86 | X-H torsion
[ 10167 10162 10161 10158 ] final -173.62 input  -65.29 | X-H torsion
[ 10718 10713 10712 10709 ] final  -73.46 input   66.30 | X-H torsion
[ 10763 10752 10751 10750 ] final  175.51 input  -60.55 | X-H torsion
[ 11005 11000 10999 10996 ] final    3.81 input  -57.11 | X-H torsion

> <Gold.Protein.ActiveResidues>
 VAL166  LYS551  ARG553  GLY616  TRP617  ASP618  TYR619  PRO620  LYS621  CYS622 
 ASP623  PHE694  ASN695  SER759  ASP760  ASP761  ALA762  ILE779  LEU786  VAL792 
 PHE793  MET794  SER795  GLU796  ALA797  LYS798  CYS799  TRP800  GLU811  SER814 

> <Gold.Protein.RotatedAtoms>
  150.7321  134.0174  159.3689 H   0  0  0  0  0  0  0  0  0  0  0  0  # atno 6907 bound_to 6896
  151.8137  135.0671  160.0425 H   0  0  0  0  0  0  0  0  0  0  0  0  # atno 6908 bound_to 6896
  152.3054  133.5661  159.5682 H   0  0  0  0  0  0  0  0  0  0  0  0  # atno 6909 bound_to 6896
  144.7747  140.4543  143.5882 H   0  0  0  0  0  0  0  0  0  0  0  0  # atno 7974 bound_to 7965
  156.0759  140.1382  156.9772 H   0  0  0  0  0  0  0  0  0  0  0  0  # atno 8008 bound_to 7997
  154.4557  140.0962  156.6801 H   0  0  0  0  0  0  0  0  0  0  0  0  # atno 8009 bound_to 7997
  155.5154  140.3455  155.4398 H   0  0  0  0  0  0  0  0  0  0  0  0  # atno 8010 bound_to 7997
  139.5678  144.1713  152.1339 H   0  0  0  0  0  0  0  0  0  0  0  0  # atno 10167 bound_to 10162
  156.0279  130.4394  150.2745 H   0  0  0  0  0  0  0  0  0  0  0  0  # atno 10718 bound_to 10713
  154.4686  135.2770  155.1660 H   0  0  0  0  0  0  0  0  0  0  0  0  # atno 10763 bound_to 10752
  154.3418  135.6168  153.5603 H   0  0  0  0  0  0  0  0  0  0  0  0  # atno 10764 bound_to 10752
  152.9862  135.5790  154.5062 H   0  0  0  0  0  0  0  0  0  0  0  0  # atno 10765 bound_to 10752
  140.5889  133.9943  155.8080 H   0  0  0  0  0  0  0  0  0  0  0  0  # atno 11005 bound_to 11000
  145.6220  139.1525  143.3017 LP  0  0  0  0  0  0  0  0  0  0  0  0  # atno 17320 bound_to 7965
  146.1919  140.6329  142.9142 LP  0  0  0  0  0  0  0  0  0  0  0  0  # atno 17321 bound_to 7965
  140.1240  144.5348  150.6844 LP  0  0  0  0  0  0  0  0  0  0  0  0  # atno 17342 bound_to 10162
  140.6962  143.2405  151.4994 LP  0  0  0  0  0  0  0  0  0  0  0  0  # atno 17343 bound_to 10162
  157.0848  131.0153  151.3143 LP  0  0  0  0  0  0  0  0  0  0  0  0  # atno 17370 bound_to 10713
  157.4899  130.7816  149.7497 LP  0  0  0  0  0  0  0  0  0  0  0  0  # atno 17371 bound_to 10713
  141.0948  133.9861  157.3178 LP  0  0  0  0  0  0  0  0  0  0  0  0  # atno 17394 bound_to 11000
  139.9283  135.0201  156.8312 LP  0  0  0  0  0  0  0  0  0  0  0  0  # atno 17395 bound_to 11000

$$$$
