AV-unprocessed.smi:3147|AV-procd|sdf|11990|dock9
  -GOLD-   2272017393D 1   1.00000     0.00000
 Structure written by MMmdl.
 36 37  0  0  0  0  0  0  0  0  1 V2000
  146.9714  138.9357  152.9924 C   0  0  0  0  0  0  0  0  0  0  0  0
  147.8732  139.8575  153.7548 C   0  0  0  0  0  0  0  0  0  0  0  0
  147.5053  141.1823  153.9777 N   0  0  0  0  0  0  0  0  0  0  0  0
  148.5199  141.6821  154.6684 C   0  0  0  0  0  0  0  0  0  0  0  0
  149.5095  140.8121  154.9114 N   0  0  0  0  0  0  0  0  0  0  0  0
  150.7390  141.0843  155.6414 C   0  0  0  0  0  0  0  0  0  0  0  0
  150.5464  141.0702  157.1629 C   0  0  0  0  0  0  0  0  0  0  0  0
  149.4338  140.9006  157.6642 O   0  0  0  0  0  0  0  0  0  0  0  0
  151.6587  141.2464  157.8918 N   0  0  0  0  0  0  0  0  0  0  0  0
  151.7150  141.2606  159.3491 C   0  0  0  0  0  0  0  0  0  0  0  0
  152.3703  142.5457  159.8817 C   0  0  1  0  0  0  0  0  0  0  0  0
  151.7191  143.8265  159.3688 C   0  0  0  0  0  0  0  0  0  0  0  0
  152.1806  144.8317  160.4005 C   0  0  0  0  0  0  0  0  0  0  0  0
  152.1786  144.0093  161.6895 C   0  0  0  0  0  0  0  0  0  0  0  0
  152.2294  142.6394  161.2950 O   0  0  0  0  0  0  0  0  0  0  0  0
  149.1058  139.6127  154.3262 C   0  0  0  0  0  0  0  0  0  0  0  0
  149.9296  138.3650  154.3740 C   0  0  0  0  0  0  0  0  0  0  0  0
  147.3978  137.9387  152.8896 H   0  0  0  0  0  0  0  0  0  0  0  0
  146.7828  139.3152  151.9881 H   0  0  0  0  0  0  0  0  0  0  0  0
  146.0079  138.8297  153.4916 H   0  0  0  0  0  0  0  0  0  0  0  0
  148.5444  142.7082  155.0051 H   0  0  0  0  0  0  0  0  0  0  0  0
  151.4919  140.3464  155.3627 H   0  0  0  0  0  0  0  0  0  0  0  0
  151.1186  142.0588  155.3304 H   0  0  0  0  0  0  0  0  0  0  0  0
  152.5310  141.3836  157.4020 H   0  0  0  0  0  0  0  0  0  0  0  0
  150.7086  141.1540  159.7574 H   0  0  0  0  0  0  0  0  0  0  0  0
  152.2773  140.3871  159.6803 H   0  0  0  0  0  0  0  0  0  0  0  0
  153.4343  142.5657  159.6390 H   0  0  0  0  0  0  0  0  0  0  0  0
  152.0240  144.0831  158.3538 H   0  0  0  0  0  0  0  0  0  0  0  0
  150.6316  143.7410  159.3902 H   0  0  0  0  0  0  0  0  0  0  0  0
  153.1945  145.1605  160.1688 H   0  0  0  0  0  0  0  0  0  0  0  0
  151.5417  145.7135  160.4557 H   0  0  0  0  0  0  0  0  0  0  0  0
  153.0225  144.2625  162.3317 H   0  0  0  0  0  0  0  0  0  0  0  0
  151.2615  144.1749  162.2556 H   0  0  0  0  0  0  0  0  0  0  0  0
  149.4080  137.5215  153.9238 H   0  0  0  0  0  0  0  0  0  0  0  0
  150.1649  138.0954  155.4037 H   0  0  0  0  0  0  0  0  0  0  0  0
  150.8688  138.5003  153.8373 H   0  0  0  0  0  0  0  0  0  0  0  0
  1  2  1  0  0  0  0
  1 18  1  0  0  0  0
  1 19  1  0  0  0  0
  1 20  1  0  0  0  0
  2 16  2  0  0  0  0
  2  3  1  0  0  0  0
  3  4  2  0  0  0  0
  4  5  1  0  0  0  0
  4 21  1  0  0  0  0
  5  6  1  0  0  0  0
  5 16  1  0  0  0  0
  6  7  1  0  0  0  0
  6 22  1  0  0  0  0
  6 23  1  0  0  0  0
  7  8  2  0  0  0  0
  7  9  1  0  0  0  0
  9 10  1  0  0  0  0
  9 24  1  0  0  0  0
 10 11  1  0  0  0  0
 10 25  1  0  0  0  0
 10 26  1  0  0  0  0
 11 15  1  0  0  0  0
 11 12  1  0  0  0  0
 11 27  1  0  0  0  0
 12 13  1  0  0  0  0
 12 28  1  0  0  0  0
 12 29  1  0  0  0  0
 13 14  1  0  0  0  0
 13 30  1  0  0  0  0
 13 31  1  0  0  0  0
 14 15  1  0  0  0  0
 14 32  1  0  0  0  0
 14 33  1  0  0  0  0
 16 17  1  0  0  0  0
 17 34  1  0  0  0  0
 17 35  1  0  0  0  0
 17 36  1  0  0  0  0
M  END
> <s_m_source_file>
AV-unprocessed.smi

> <i_m_source_file_index>
3147

> <i_lp_mmshare_version>
43012

> <i_f3d_flags>
0

> <s_epik_input>
W0NIM11jMW5bY0hdbihjMVtDSDNdKVtDSDJdQyg9TylbTkhdW0NIMl1bQ0BASF0yW0NIMl1bQ0gyXVtDSDJdTzI=

> <s_epik_cmdline>
J2VwaWtfcHl0aG9uJywgJy1waCcsICc3LjAnLCAnLXRuJywgJzgnLCAnLW1hJywgJzIwMCcsICctbWV0YWxfYmluZGluZycsICctaW1hZScsICc8aW5maWxlLm1hZT4nLCAnLW9tYWUnLCAnPG91dGZpbGUubWFlPic=

> <r_lp_tautomer_probability>
1

> <r_epik_Ionization_Penalty>
0.957393

> <r_epik_Ionization_Penalty_Charging>
0.957393

> <r_epik_Ionization_Penalty_Neutral>
1.43432e-07

> <r_epik_State_Penalty>
1.0022

> <r_epik_Charging_Adjusted_Penalty>
1.9596

> <i_epik_Tot_Q>
0

> <i_epik_Tot_abs_Q>
0

> <r_epik_Metal_State_Penalty>
0.374967

> <b_epik_Metal_Only>
0

> <s_lp_Force_Field>
OPLS_2005

> <r_lp_Energy>
18.0511

> <b_lp_Chiralities_Consistent>
1

> <s_lp_Variant>
AV-unprocessed.smi:3147-4

> <Gold.Version>
5.8.1

> <Gold.Id.Protein>
6NUR|6NUR_protein|mol2

> <Gold.PLP.Fitness>
38.8743

> <Gold.PLP.PLP>
-36.5046

> <Gold.PLP.part.hbond>
0.0000

> <Gold.PLP.part.metal>
0.0000

> <Gold.PLP.part.buried>
-2.8657

> <Gold.PLP.part.nonpolar>
-32.6686

> <Gold.PLP.part.repulsive>
0.3420

> <Gold.PLP.ligand.clash>
0.0000

> <Gold.PLP.ligand.torsion>
0.3247

> <Gold.PLP.Chemscore.Hbond>
0.0000

> <Gold.PLP.Chemscore.CHOScore>
1.0000

> <Gold.PLP.Chemscore.Metal>
0.0000

> <Gold.Chemscore.Hbonds>
donor molecule, donor type, donor heavy atom, donor atom, acceptor molecule, acceptor atom, score
      L1  C     4    21       P1  8028  1.00

> <Gold.PLP.Chemscore.Internal.Correction>
0.0191

> <Gold.Rescore>
     Score         DG    S(hbond)    S(metal)    S(lipo)     H(rot)  DE(clash)    DE(int)     intcor
     11.21     -11.40       0.01        0.00      87.60       1.70       0.01       0.18       ----

> <Gold.Chemscore.Fitness>
11.2120

> <Gold.Chemscore.DG>
-11.4022

> <Gold.Chemscore.ZeroCoef>
-5.4800

> <Gold.Chemscore.Hbond>
0.0102

> <Gold.Chemscore.Metal>
0.0000

> <Gold.Chemscore.Lipo>
87.5954

> <Gold.Chemscore.Internal_Hbond>
0.0000

> <Gold.Chemscore.DEClash>
0.0111

> <Gold.Chemscore.DEInternal>
0.1791

> <Gold.Chemscore.Rot>
1.7034

> <Gold.Chemscore.Internal.Correction>
   9.000000E+99

> <Gold.Chemscore.Hbond.Weighted>
-0.0342

> <Gold.Chemscore.Metal.Weighted>
-0.0000

> <Gold.Chemscore.Lipo.Weighted>
-10.2487

> <Gold.Chemscore.Internal_Hbond.Weighted>
0.0000

> <Gold.Chemscore.DEClash.Weighted>
0.0111

> <Gold.Chemscore.DEInternal.Weighted>
0.1791

> <Gold.Chemscore.Rot.Weighted>
4.3607

> <Gold.Chemscore.Internal.Correction.Weighted>
   9.000000E+99

> <Gold.Protein.RotatedTorsions>
[ 6907 6896 6895 6894 ] final -165.34 input  -60.11 | X-H torsion
[ 7974 7965 7964 7962 ] final -146.29 input  175.53 | X-H torsion
[ 8008 7997 7996 7995 ] final  -60.17 input   59.86 | X-H torsion
[ 10167 10162 10161 10158 ] final   65.37 input  -65.29 | X-H torsion
[ 10718 10713 10712 10709 ] final  121.49 input   66.30 | X-H torsion
[ 10763 10752 10751 10750 ] final -157.22 input  -60.55 | X-H torsion
[ 11005 11000 10999 10996 ] final  142.52 input  -57.11 | X-H torsion

> <Gold.Protein.ActiveResidues>
 VAL166  LYS551  ARG553  GLY616  TRP617  ASP618  TYR619  PRO620  LYS621  CYS622 
 ASP623  PHE694  ASN695  SER759  ASP760  ASP761  ALA762  ILE779  LEU786  VAL792 
 PHE793  MET794  SER795  GLU796  ALA797  LYS798  CYS799  TRP800  GLU811  SER814 

> <Gold.Protein.RotatedAtoms>
  151.4261  133.3684  159.2762 H   0  0  0  0  0  0  0  0  0  0  0  0  # atno 6907 bound_to 6896
  150.9258  134.8676  159.7530 H   0  0  0  0  0  0  0  0  0  0  0  0  # atno 6908 bound_to 6896
  152.5004  134.4202  159.9530 H   0  0  0  0  0  0  0  0  0  0  0  0  # atno 6909 bound_to 6896
  144.8169  140.5475  143.5604 H   0  0  0  0  0  0  0  0  0  0  0  0  # atno 7974 bound_to 7965
  154.4386  140.1045  156.6232 H   0  0  0  0  0  0  0  0  0  0  0  0  # atno 8008 bound_to 7997
  155.5685  140.3489  155.4490 H   0  0  0  0  0  0  0  0  0  0  0  0  # atno 8009 bound_to 7997
  156.0407  140.1281  157.0148 H   0  0  0  0  0  0  0  0  0  0  0  0  # atno 8010 bound_to 7997
  140.1121  144.4809  150.6972 H   0  0  0  0  0  0  0  0  0  0  0  0  # atno 10167 bound_to 10162
  157.5814  131.1074  150.8180 H   0  0  0  0  0  0  0  0  0  0  0  0  # atno 10718 bound_to 10713
  154.7653  135.3129  154.8299 H   0  0  0  0  0  0  0  0  0  0  0  0  # atno 10763 bound_to 10752
  153.9049  135.6812  153.4758 H   0  0  0  0  0  0  0  0  0  0  0  0  # atno 10764 bound_to 10752
  153.1258  135.4802  154.9202 H   0  0  0  0  0  0  0  0  0  0  0  0  # atno 10765 bound_to 10752
  140.0483  134.9269  157.0971 H   0  0  0  0  0  0  0  0  0  0  0  0  # atno 11005 bound_to 11000
  145.5193  139.1477  143.3561 LP  0  0  0  0  0  0  0  0  0  0  0  0  # atno 17320 bound_to 7965
  146.2473  140.5334  142.8908 LP  0  0  0  0  0  0  0  0  0  0  0  0  # atno 17321 bound_to 7965
  140.6920  143.2381  151.5105 LP  0  0  0  0  0  0  0  0  0  0  0  0  # atno 17342 bound_to 10162
  139.5614  144.2148  152.1697 LP  0  0  0  0  0  0  0  0  0  0  0  0  # atno 17343 bound_to 10162
  156.8625  130.5118  149.5302 LP  0  0  0  0  0  0  0  0  0  0  0  0  # atno 17370 bound_to 10713
  156.0860  130.5858  150.9649 LP  0  0  0  0  0  0  0  0  0  0  0  0  # atno 17371 bound_to 10713
  140.3958  134.2136  155.7164 LP  0  0  0  0  0  0  0  0  0  0  0  0  # atno 17394 bound_to 11000
  141.1918  133.8187  157.0865 LP  0  0  0  0  0  0  0  0  0  0  0  0  # atno 17395 bound_to 11000

$$$$
