AV-unprocessed.smi:1827|AV-procd|sdf|7421|dock5
  -GOLD-   22720 9103D 1   1.00000     0.00000
 Structure written by MMmdl.
 44 45  0  0  0  0  0  0  0  0  2 V2000
  151.3021  138.1120  154.5555 C   0  0  0  0  0  0  0  0  0  0  0  0
  150.3239  139.2506  154.4630 C   0  0  0  0  0  0  0  0  0  0  0  0
  150.7131  140.4578  154.8516 N   0  0  0  0  0  0  0  0  0  0  0  0
  149.6577  141.2591  154.5916 N   0  0  0  0  0  0  0  0  0  0  0  0
  148.5861  140.5945  154.0391 C   0  0  0  0  0  0  0  0  0  0  0  0
  147.3216  141.2893  153.6589 C   0  0  0  0  0  0  0  0  0  0  0  0
  148.9812  139.2899  153.9724 C   0  0  0  0  0  0  0  0  0  0  0  0
  148.1928  138.2415  153.4357 N   0  0  0  0  0  0  0  0  0  0  0  0
  146.9186  137.9560  153.7431 C   0  0  0  0  0  0  0  0  0  0  0  0
  146.2209  138.6009  154.5249 O   0  0  0  0  0  0  0  0  0  0  0  0
  146.4813  136.8809  153.0720 N   0  0  0  0  0  0  0  0  0  0  0  0
  145.1341  136.3186  153.1661 C   0  0  2  0  0  0  0  0  0  0  0  0
  145.1531  134.8537  153.6476 C   0  0  0  0  0  0  0  0  0  0  0  0
  145.7185  133.9030  152.5785 C   0  0  0  0  0  0  0  0  0  0  0  0
  144.9636  134.0245  151.3026 N   0  3  2  0  0  0  0  0  0  0  0  0
  145.3793  133.0277  150.2822 C   0  0  0  0  0  0  0  0  0  0  0  0
  144.2711  132.7033  149.2751 C   0  0  0  0  0  0  0  0  0  0  0  0
  144.2304  133.4432  148.1647 N   0  0  0  0  0  0  0  0  0  0  0  0
  143.4539  131.8120  149.4990 O   0  0  0  0  0  0  0  0  0  0  0  0
  144.9923  135.4149  150.7816 C   0  0  0  0  0  0  0  0  0  0  0  0
  144.4168  136.4081  151.8080 C   0  0  0  0  0  0  0  0  0  0  0  0
  149.6868  142.2496  154.7876 H   0  0  0  0  0  0  0  0  0  0  0  0
  151.1521  137.3949  153.7488 H   0  0  0  0  0  0  0  0  0  0  0  0
  151.1964  137.5820  155.5020 H   0  0  0  0  0  0  0  0  0  0  0  0
  152.3321  138.4640  154.4883 H   0  0  0  0  0  0  0  0  0  0  0  0
  146.6506  140.6208  153.1195 H   0  0  0  0  0  0  0  0  0  0  0  0
  147.5279  142.1462  153.0173 H   0  0  0  0  0  0  0  0  0  0  0  0
  146.7972  141.6480  154.5448 H   0  0  0  0  0  0  0  0  0  0  0  0
  148.6108  137.7151  152.6828 H   0  0  0  0  0  0  0  0  0  0  0  0
  147.1238  136.4262  152.4399 H   0  0  0  0  0  0  0  0  0  0  0  0
  144.5722  136.9176  153.8851 H   0  0  0  0  0  0  0  0  0  0  0  0
  145.7226  134.7576  154.5727 H   0  0  0  0  0  0  0  0  0  0  0  0
  144.1352  134.5463  153.8914 H   0  0  0  0  0  0  0  0  0  0  0  0
  146.7738  134.1168  152.4025 H   0  0  0  0  0  0  0  0  0  0  0  0
  145.6652  132.8793  152.9504 H   0  0  0  0  0  0  0  0  0  0  0  0
  146.2170  133.4214  149.7048 H   0  0  0  0  0  0  0  0  0  0  0  0
  145.7346  132.1181  150.7693 H   0  0  0  0  0  0  0  0  0  0  0  0
  143.5248  133.2709  147.4633 H   0  0  0  0  0  0  0  0  0  0  0  0
  144.9132  134.1749  148.0258 H   0  0  0  0  0  0  0  0  0  0  0  0
  146.0162  135.6861  150.5205 H   0  0  0  0  0  0  0  0  0  0  0  0
  144.4062  135.4756  149.8637 H   0  0  0  0  0  0  0  0  0  0  0  0
  143.3563  136.1952  151.9503 H   0  0  0  0  0  0  0  0  0  0  0  0
  144.4703  137.4253  151.4177 H   0  0  0  0  0  0  0  0  0  0  0  0
  143.9966  133.8200  151.5128 H   0  0  0  0  0  0  0  0  0  0  0  0
  1  2  1  0  0  0  0
  1 23  1  0  0  0  0
  1 24  1  0  0  0  0
  1 25  1  0  0  0  0
  2  7  1  0  0  0  0
  2  3  2  0  0  0  0
  3  4  1  0  0  0  0
  4 22  1  0  0  0  0
  4  5  1  0  0  0  0
  5  6  1  0  0  0  0
  5  7  2  0  0  0  0
  6 26  1  0  0  0  0
  6 27  1  0  0  0  0
  6 28  1  0  0  0  0
  7  8  1  0  0  0  0
  8  9  1  0  0  0  0
  8 29  1  0  0  0  0
  9 10  2  0  0  0  0
  9 11  1  0  0  0  0
 11 12  1  0  0  0  0
 11 30  1  0  0  0  0
 12 21  1  0  0  0  0
 12 13  1  0  0  0  0
 12 31  1  0  0  0  0
 13 14  1  0  0  0  0
 13 32  1  0  0  0  0
 13 33  1  0  0  0  0
 14 15  1  0  0  0  0
 14 34  1  0  0  0  0
 14 35  1  0  0  0  0
 15 16  1  0  0  0  0
 15 20  1  0  0  0  0
 15 44  1  0  0  0  0
 16 17  1  0  0  0  0
 16 36  1  0  0  0  0
 16 37  1  0  0  0  0
 17 18  1  0  0  0  0
 17 19  2  0  0  0  0
 18 38  1  0  0  0  0
 18 39  1  0  0  0  0
 20 21  1  0  0  0  0
 20 40  1  0  0  0  0
 20 41  1  0  0  0  0
 21 42  1  0  0  0  0
 21 43  1  0  0  0  0
M  CHG  1  15   1
M  END
> <s_m_source_file>
AV-unprocessed.smi

> <i_m_source_file_index>
1827

> <i_lp_mmshare_version>
43012

> <i_f3d_flags>
0

> <s_epik_input>
W0NIM11jMW5bbkhdYyhbQ0gzXSljMVtOSF1DKD1PKVtOSF1bQ0hdMltDSDJdW0NIMl1OKFtDSDJdW0NIMl0yKVtDSDJdQyg9TylbTkgyXQ==

> <s_epik_cmdline>
J2VwaWtfcHl0aG9uJywgJy1waCcsICc3LjAnLCAnLXRuJywgJzgnLCAnLW1hJywgJzIwMCcsICctbWV0YWxfYmluZGluZycsICctaW1hZScsICc8aW5maWxlLm1hZT4nLCAnLW9tYWUnLCAnPG91dGZpbGUubWFlPic=

> <r_lp_tautomer_probability>
0.5

> <r_epik_Ionization_Penalty>
0.839233

> <r_epik_Ionization_Penalty_Charging>
0.838844

> <r_epik_Ionization_Penalty_Neutral>
0.000388936

> <r_epik_State_Penalty>
0.8734

> <r_epik_Charging_Adjusted_Penalty>
1.71224

> <i_epik_Tot_Q>
1

> <i_epik_Tot_abs_Q>
1

> <r_epik_Metal_State_Penalty>
0.890753

> <b_epik_Metal_Only>
0

> <s_lp_Force_Field>
OPLS_2005

> <r_lp_Energy>
15.6473

> <b_lp_Chiralities_Consistent>
1

> <s_lp_Variant>
AV-unprocessed.smi:1827-3

> <Gold.Version>
5.8.1

> <Gold.Id.Protein>
6NUR|6NUR_protein|mol2

> <Gold.PLP.Fitness>
46.5150

> <Gold.PLP.PLP>
-33.6832

> <Gold.PLP.part.hbond>
-5.0981

> <Gold.PLP.part.metal>
0.0000

> <Gold.PLP.part.buried>
-5.2687

> <Gold.PLP.part.nonpolar>
-24.6201

> <Gold.PLP.part.repulsive>
2.3157

> <Gold.PLP.ligand.clash>
0.0000

> <Gold.PLP.ligand.torsion>
1.0284

> <Gold.PLP.Chemscore.Hbond>
4.8440

> <Gold.PLP.Chemscore.CHOScore>
0.0000

> <Gold.PLP.Chemscore.Metal>
0.0000

> <Gold.Chemscore.Hbonds>
donor molecule, donor type, donor heavy atom, donor atom, acceptor molecule, acceptor atom, score
      L1  H     8    29       P1  7948  1.00
      L1  H    11    30       P1  7948  0.96
      L1  H    18    39       P1  7921  0.71
      P1  H  7989  7998       L1     3  0.81
      P1  H 10785 10796       L1    19  1.00

> <Gold.PLP.Chemscore.Internal.Correction>
0.3565

> <Gold.Rescore>
     Score         DG    S(hbond)    S(metal)    S(lipo)     H(rot)  DE(clash)    DE(int)     intcor
     18.93     -20.22       3.72        0.00      63.26       1.98       0.13       1.16       ----

> <Gold.Chemscore.Fitness>
18.9338

> <Gold.Chemscore.DG>
-20.2185

> <Gold.Chemscore.ZeroCoef>
-5.4800

> <Gold.Chemscore.Hbond>
3.7181

> <Gold.Chemscore.Metal>
0.0000

> <Gold.Chemscore.Lipo>
63.2553

> <Gold.Chemscore.Internal_Hbond>
0.0000

> <Gold.Chemscore.DEClash>
0.1257

> <Gold.Chemscore.DEInternal>
1.1589

> <Gold.Chemscore.Rot>
1.9848

> <Gold.Chemscore.Internal.Correction>
   9.000000E+99

> <Gold.Chemscore.Hbonds>
donor molecule, donor type, donor heavy atom, donor atom, acceptor molecule, acceptor atom, score
      L1  H     8    29       P1  7948  0.98
      L1  H    11    30       P1  7948  0.92
      L1  H    18    39       P1  7921  0.70
      P1  H  7989  7998       L1     3  0.03
      P1  H 10785 10796       L1    19  0.96

> <Gold.Chemscore.Hbond.Weighted>
-12.4186

> <Gold.Chemscore.Metal.Weighted>
-0.0000

> <Gold.Chemscore.Lipo.Weighted>
-7.4009

> <Gold.Chemscore.Internal_Hbond.Weighted>
0.0000

> <Gold.Chemscore.DEClash.Weighted>
0.1257

> <Gold.Chemscore.DEInternal.Weighted>
1.1589

> <Gold.Chemscore.Rot.Weighted>
5.0810

> <Gold.Chemscore.Internal.Correction.Weighted>
   9.000000E+99

> <Gold.Protein.RotatedTorsions>
[ 6907 6896 6895 6894 ] final   -5.74 input  -60.11 | X-H torsion
[ 7974 7965 7964 7962 ] final  140.18 input  175.53 | X-H torsion
[ 8008 7997 7996 7995 ] final   51.85 input   59.86 | X-H torsion
[ 10167 10162 10161 10158 ] final  -34.83 input  -65.29 | X-H torsion
[ 10718 10713 10712 10709 ] final  -11.92 input   66.30 | X-H torsion
[ 10763 10752 10751 10750 ] final  -55.45 input  -60.55 | X-H torsion
[ 11005 11000 10999 10996 ] final  -63.93 input  -57.11 | X-H torsion

> <Gold.Protein.ActiveResidues>
 VAL166  LYS551  ARG553  GLY616  TRP617  ASP618  TYR619  PRO620  LYS621  CYS622 
 ASP623  PHE694  ASN695  SER759  ASP760  ASP761  ALA762  ILE779  LEU786  VAL792 
 PHE793  MET794  SER795  GLU796  ALA797  LYS798  CYS799  TRP800  GLU811  SER814 

> <Gold.Protein.RotatedAtoms>
  151.4767  135.1049  159.9766 H   0  0  0  0  0  0  0  0  0  0  0  0  # atno 6907 bound_to 6896
  152.4795  133.8216  159.7067 H   0  0  0  0  0  0  0  0  0  0  0  0  # atno 6908 bound_to 6896
  150.8857  133.7250  159.2945 H   0  0  0  0  0  0  0  0  0  0  0  0  # atno 6909 bound_to 6896
  144.9210  139.5167  143.5663 H   0  0  0  0  0  0  0  0  0  0  0  0  # atno 7974 bound_to 7965
  155.4421  140.3455  155.4291 H   0  0  0  0  0  0  0  0  0  0  0  0  # atno 8008 bound_to 7997
  156.1272  140.1504  156.9149 H   0  0  0  0  0  0  0  0  0  0  0  0  # atno 8009 bound_to 7997
  154.4867  140.0853  156.7482 H   0  0  0  0  0  0  0  0  0  0  0  0  # atno 8010 bound_to 7997
  140.7177  143.3520  151.2137 H   0  0  0  0  0  0  0  0  0  0  0  0  # atno 10167 bound_to 10162
  156.6520  130.4957  149.6059 H   0  0  0  0  0  0  0  0  0  0  0  0  # atno 10718 bound_to 10713
  154.1910  135.6427  153.5060 H   0  0  0  0  0  0  0  0  0  0  0  0  # atno 10763 bound_to 10752
  153.0035  135.5428  154.6415 H   0  0  0  0  0  0  0  0  0  0  0  0  # atno 10764 bound_to 10752
  154.5804  135.2924  155.0711 H   0  0  0  0  0  0  0  0  0  0  0  0  # atno 10765 bound_to 10752
  141.1409  133.6658  156.5756 H   0  0  0  0  0  0  0  0  0  0  0  0  # atno 11005 bound_to 11000
  146.3205  139.8090  142.8949 LP  0  0  0  0  0  0  0  0  0  0  0  0  # atno 17320 bound_to 7965
  145.3295  141.0263  143.3454 LP  0  0  0  0  0  0  0  0  0  0  0  0  # atno 17321 bound_to 7965
  139.7053  143.9466  152.2924 LP  0  0  0  0  0  0  0  0  0  0  0  0  # atno 17342 bound_to 10162
  139.9173  144.6821  150.8499 LP  0  0  0  0  0  0  0  0  0  0  0  0  # atno 17343 bound_to 10162
  156.2077  130.6659  151.1236 LP  0  0  0  0  0  0  0  0  0  0  0  0  # atno 17370 bound_to 10713
  157.7138  131.0721  150.6405 LP  0  0  0  0  0  0  0  0  0  0  0  0  # atno 17371 bound_to 10713
  140.3878  134.7466  157.4702 LP  0  0  0  0  0  0  0  0  0  0  0  0  # atno 17394 bound_to 11000
  140.0589  134.6024  155.8773 LP  0  0  0  0  0  0  0  0  0  0  0  0  # atno 17395 bound_to 11000

$$$$
