AV-unprocessed.smi:305|AV-procd|sdf|2281|dock4
  -GOLD-   2262022183D 1   1.00000     0.00000
 Structure written by MMmdl.
 46 48  0  0  0  0  0  0  0  0  2 V2000
  146.3365  140.6912  155.5490 C   0  0  0  0  0  0  0  0  0  0  0  0
  146.9780  141.7375  156.4629 C   0  0  0  0  0  0  0  0  0  0  0  0
  147.9926  141.1157  157.2328 O   0  0  0  0  0  0  0  0  0  0  0  0
  148.8171  142.0517  157.9062 C   0  0  0  0  0  0  0  0  0  0  0  0
  149.9945  142.4205  156.9947 C   0  0  0  0  0  0  0  0  0  0  0  0
  150.9967  141.3611  156.9492 N   0  0  0  0  0  0  0  0  0  0  0  0
  152.0118  141.1432  157.8236 C   0  0  0  0  0  0  0  0  0  0  0  0
  152.2149  141.9831  158.9390 N   0  0  0  0  0  0  0  0  0  0  0  0
  151.7884  143.2626  158.9090 N   0  0  0  0  0  0  0  0  0  0  0  0
  152.1304  143.7628  160.0839 C   0  0  0  0  0  0  0  0  0  0  0  0
  151.7894  145.1909  160.3986 C   0  0  0  0  0  0  0  0  0  0  0  0
  152.8086  142.8132  160.9024 C   0  0  0  0  0  0  0  0  0  0  0  0
  153.3513  143.0207  162.2896 C   0  0  0  0  0  0  0  0  0  0  0  0
  152.8416  141.6809  160.1336 C   0  0  0  0  0  0  0  0  0  0  0  0
  153.4075  140.3268  160.4201 C   0  0  0  0  0  0  0  0  0  0  0  0
  152.7723  140.0810  157.5519 N   0  0  0  0  0  0  0  0  0  0  0  0
  152.1966  139.5860  156.3900 C   0  0  0  0  0  0  0  0  0  0  0  0
  151.1297  140.3385  156.0070 C   0  0  0  0  0  0  0  0  0  0  0  0
  150.3127  140.0620  154.8063 C   0  0  0  0  0  0  0  0  0  0  0  0
  149.3618  140.7815  154.5072 O   0  0  0  0  0  0  0  0  0  0  0  0
  150.7534  138.9563  154.1262 N   0  5  0  0  0  0  0  0  0  0  0  0
  151.8267  138.1645  154.4756 C   0  0  0  0  0  0  0  0  0  0  0  0
  152.1579  137.1858  153.8050 O   0  0  0  0  0  0  0  0  0  0  0  0
  152.5559  138.4614  155.5975 N   0  0  0  0  0  0  0  0  0  0  0  0
  153.7034  137.6391  155.9908 C   0  0  0  0  0  0  0  0  0  0  0  0
  145.5469  141.1355  154.9427 H   0  0  0  0  0  0  0  0  0  0  0  0
  145.8967  139.8807  156.1305 H   0  0  0  0  0  0  0  0  0  0  0  0
  147.0740  140.2579  154.8731 H   0  0  0  0  0  0  0  0  0  0  0  0
  147.4015  142.5450  155.8637 H   0  0  0  0  0  0  0  0  0  0  0  0
  146.2217  142.1725  157.1179 H   0  0  0  0  0  0  0  0  0  0  0  0
  148.2411  142.9419  158.1622 H   0  0  0  0  0  0  0  0  0  0  0  0
  149.1825  141.6201  158.8389 H   0  0  0  0  0  0  0  0  0  0  0  0
  149.6360  142.6218  155.9850 H   0  0  0  0  0  0  0  0  0  0  0  0
  150.4656  143.3452  157.3263 H   0  0  0  0  0  0  0  0  0  0  0  0
  151.5514  145.3148  161.4552 H   0  0  0  0  0  0  0  0  0  0  0  0
  150.9262  145.5325  159.8260 H   0  0  0  0  0  0  0  0  0  0  0  0
  152.6255  145.8503  160.1664 H   0  0  0  0  0  0  0  0  0  0  0  0
  154.2592  142.4426  162.4617 H   0  0  0  0  0  0  0  0  0  0  0  0
  152.6297  142.7231  163.0505 H   0  0  0  0  0  0  0  0  0  0  0  0
  153.6022  144.0650  162.4756 H   0  0  0  0  0  0  0  0  0  0  0  0
  153.6461  140.2145  161.4775 H   0  0  0  0  0  0  0  0  0  0  0  0
  154.3211  140.1619  159.8490 H   0  0  0  0  0  0  0  0  0  0  0  0
  152.6967  139.5431  160.1561 H   0  0  0  0  0  0  0  0  0  0  0  0
  154.4670  137.6539  155.2118 H   0  0  0  0  0  0  0  0  0  0  0  0
  153.3968  136.6040  156.1491 H   0  0  0  0  0  0  0  0  0  0  0  0
  154.1715  137.9831  156.9128 H   0  0  0  0  0  0  0  0  0  0  0  0
  1  2  1  0  0  0  0
  1 26  1  0  0  0  0
  1 27  1  0  0  0  0
  1 28  1  0  0  0  0
  2  3  1  0  0  0  0
  2 29  1  0  0  0  0
  2 30  1  0  0  0  0
  3  4  1  0  0  0  0
  4  5  1  0  0  0  0
  4 31  1  0  0  0  0
  4 32  1  0  0  0  0
  5  6  1  0  0  0  0
  5 33  1  0  0  0  0
  5 34  1  0  0  0  0
  6 18  1  0  0  0  0
  6  7  1  0  0  0  0
  7  8  1  0  0  0  0
  7 16  2  0  0  0  0
  8 14  1  0  0  0  0
  8  9  1  0  0  0  0
  9 10  2  0  0  0  0
 10 11  1  0  0  0  0
 10 12  1  0  0  0  0
 11 35  1  0  0  0  0
 11 36  1  0  0  0  0
 11 37  1  0  0  0  0
 12 13  1  0  0  0  0
 12 14  2  0  0  0  0
 13 38  1  0  0  0  0
 13 39  1  0  0  0  0
 13 40  1  0  0  0  0
 14 15  1  0  0  0  0
 15 41  1  0  0  0  0
 15 42  1  0  0  0  0
 15 43  1  0  0  0  0
 16 17  1  0  0  0  0
 17 24  1  0  0  0  0
 17 18  2  0  0  0  0
 18 19  1  0  0  0  0
 19 20  2  0  0  0  0
 19 21  1  0  0  0  0
 21 22  1  0  0  0  0
 22 23  2  0  0  0  0
 22 24  1  0  0  0  0
 24 25  1  0  0  0  0
 25 44  1  0  0  0  0
 25 45  1  0  0  0  0
 25 46  1  0  0  0  0
M  CHG  1  21  -1
M  END
> <s_m_source_file>
AV-unprocessed.smi

> <i_m_source_file_index>
305

> <i_lp_mmshare_version>
43012

> <i_f3d_flags>
0

> <s_epik_input>
W0NIM11uMWMoPU8pW25IXWMoPU8pYyhjMTIpbihbQ0gyXVtDSDJdT1tDSDJdW0NIM10pYyhuMiktbjNuYyhbQ0gzXSljKFtDSDNdKWMzW0NIM10=

> <s_epik_cmdline>
J2VwaWtfcHl0aG9uJywgJy1waCcsICc3LjAnLCAnLXRuJywgJzgnLCAnLW1hJywgJzIwMCcsICctbWV0YWxfYmluZGluZycsICctaW1hZScsICc8aW5maWxlLm1hZT4nLCAnLW9tYWUnLCAnPG91dGZpbGUubWFlPic=

> <r_lp_tautomer_probability>
1

> <r_epik_Ionization_Penalty>
4

> <r_epik_Ionization_Penalty_Charging>
0.0169474

> <r_epik_Ionization_Penalty_Neutral>
3.98305

> <r_epik_State_Penalty>
3.98062

> <r_epik_Charging_Adjusted_Penalty>
3.99756

> <i_epik_Tot_Q>
-1

> <i_epik_Tot_abs_Q>
1

> <r_epik_Metal_State_Penalty>
0.616488

> <b_epik_Metal_Only>
1

> <s_lp_Force_Field>
OPLS_2005

> <r_lp_Energy>
29.8012

> <b_lp_Chiralities_Consistent>
1

> <s_lp_Variant>
AV-unprocessed.smi:305-2

> <Gold.Version>
5.8.1

> <Gold.Id.Protein>
6NUR|6NUR_protein|mol2

> <Gold.PLP.Fitness>
46.4239

> <Gold.PLP.PLP>
-42.3008

> <Gold.PLP.part.hbond>
-2.9620

> <Gold.PLP.part.metal>
0.0000

> <Gold.PLP.part.buried>
0.7240

> <Gold.PLP.part.nonpolar>
-41.1271

> <Gold.PLP.part.repulsive>
2.7486

> <Gold.PLP.ligand.clash>
0.0000

> <Gold.PLP.ligand.torsion>
0.8917

> <Gold.PLP.Chemscore.Hbond>
1.7776

> <Gold.PLP.Chemscore.CHOScore>
0.0000

> <Gold.PLP.Chemscore.Metal>
0.0000

> <Gold.Chemscore.Hbonds>
donor molecule, donor type, donor heavy atom, donor atom, acceptor molecule, acceptor atom, score
      P1  H  7997  8009       L1    16  0.80
      P1  H 10752 10764       L1    23  0.93

> <Gold.PLP.Chemscore.Internal.Correction>
0.5737

> <Gold.Rescore>
     Score         DG    S(hbond)    S(metal)    S(lipo)     H(rot)  DE(clash)    DE(int)     intcor
      9.02     -15.28       1.04        0.00      89.54       1.62       2.77       3.49       ----

> <Gold.Chemscore.Fitness>
9.0158

> <Gold.Chemscore.DG>
-15.2791

> <Gold.Chemscore.ZeroCoef>
-5.4800

> <Gold.Chemscore.Hbond>
1.0392

> <Gold.Chemscore.Metal>
0.0000

> <Gold.Chemscore.Lipo>
89.5419

> <Gold.Chemscore.Internal_Hbond>
0.0000

> <Gold.Chemscore.DEClash>
2.7697

> <Gold.Chemscore.DEInternal>
3.4936

> <Gold.Chemscore.Rot>
1.6204

> <Gold.Chemscore.Internal.Correction>
   9.000000E+99

> <Gold.Chemscore.Hbonds>
donor molecule, donor type, donor heavy atom, donor atom, acceptor molecule, acceptor atom, score
      P1  H  7997  8009       L1    16  0.13
      P1  H 10752 10764       L1    23  0.90

> <Gold.Chemscore.Hbond.Weighted>
-3.4708

> <Gold.Chemscore.Metal.Weighted>
-0.0000

> <Gold.Chemscore.Lipo.Weighted>
-10.4764

> <Gold.Chemscore.Internal_Hbond.Weighted>
0.0000

> <Gold.Chemscore.DEClash.Weighted>
2.7697

> <Gold.Chemscore.DEInternal.Weighted>
3.4936

> <Gold.Chemscore.Rot.Weighted>
4.1481

> <Gold.Chemscore.Internal.Correction.Weighted>
   9.000000E+99

> <Gold.Protein.RotatedTorsions>
[ 6907 6896 6895 6894 ] final  -88.37 input  -60.11 | X-H torsion
[ 7974 7965 7964 7962 ] final  -83.47 input  175.53 | X-H torsion
[ 8008 7997 7996 7995 ] final  157.62 input   59.86 | X-H torsion
[ 10167 10162 10161 10158 ] final    2.18 input  -65.29 | X-H torsion
[ 10718 10713 10712 10709 ] final -174.46 input   66.30 | X-H torsion
[ 10763 10752 10751 10750 ] final -106.79 input  -60.55 | X-H torsion
[ 11005 11000 10999 10996 ] final   19.40 input  -57.11 | X-H torsion

> <Gold.Protein.ActiveResidues>
 VAL166  LYS551  ARG553  GLY616  TRP617  ASP618  TYR619  PRO620  LYS621  CYS622 
 ASP623  PHE694  ASN695  SER759  ASP760  ASP761  ALA762  ILE779  LEU786  VAL792 
 PHE793  MET794  SER795  GLU796  ALA797  LYS798  CYS799  TRP800  GLU811  SER814 

> <Gold.Protein.RotatedAtoms>
  150.6868  134.2752  159.4604 H   0  0  0  0  0  0  0  0  0  0  0  0  # atno 6907 bound_to 6896
  152.0671  134.9555  160.0584 H   0  0  0  0  0  0  0  0  0  0  0  0  # atno 6908 bound_to 6896
  152.0959  133.4190  159.4602 H   0  0  0  0  0  0  0  0  0  0  0  0  # atno 6909 bound_to 6896
  145.5195  140.9532  143.1663 H   0  0  0  0  0  0  0  0  0  0  0  0  # atno 7974 bound_to 7965
  156.2353  140.1880  156.7136 H   0  0  0  0  0  0  0  0  0  0  0  0  # atno 8008 bound_to 7997
  154.6095  140.0624  156.9502 H   0  0  0  0  0  0  0  0  0  0  0  0  # atno 8009 bound_to 7997
  155.2040  140.3294  155.4341 H   0  0  0  0  0  0  0  0  0  0  0  0  # atno 8010 bound_to 7997
  140.6647  143.7210  150.7805 H   0  0  0  0  0  0  0  0  0  0  0  0  # atno 10167 bound_to 10162
  156.7855  130.9499  151.3120 H   0  0  0  0  0  0  0  0  0  0  0  0  # atno 10718 bound_to 10713
  154.8035  135.4699  154.0334 H   0  0  0  0  0  0  0  0  0  0  0  0  # atno 10763 bound_to 10752
  153.1821  135.6842  153.8471 H   0  0  0  0  0  0  0  0  0  0  0  0  # atno 10764 bound_to 10752
  153.8018  135.3229  155.3368 H   0  0  0  0  0  0  0  0  0  0  0  0  # atno 10765 bound_to 10752
  140.4141  134.1587  155.7669 H   0  0  0  0  0  0  0  0  0  0  0  0  # atno 11005 bound_to 11000
  144.7684  139.6792  143.7205 LP  0  0  0  0  0  0  0  0  0  0  0  0  # atno 17320 bound_to 7965
  146.2115  139.5475  142.9678 LP  0  0  0  0  0  0  0  0  0  0  0  0  # atno 17321 bound_to 7965
  140.0885  143.4900  152.2492 LP  0  0  0  0  0  0  0  0  0  0  0  0  # atno 17342 bound_to 10162
  139.5892  144.7543  151.3442 LP  0  0  0  0  0  0  0  0  0  0  0  0  # atno 17343 bound_to 10162
  157.6626  130.8979  149.9862 LP  0  0  0  0  0  0  0  0  0  0  0  0  # atno 17370 bound_to 10713
  156.1191  130.3646  149.9917 LP  0  0  0  0  0  0  0  0  0  0  0  0  # atno 17371 bound_to 10713
  141.1810  133.8414  157.1259 LP  0  0  0  0  0  0  0  0  0  0  0  0  # atno 17394 bound_to 11000
  140.0246  134.9930  157.0661 LP  0  0  0  0  0  0  0  0  0  0  0  0  # atno 17395 bound_to 11000

$$$$
