AV-unprocessed.smi:1499|AV-procd|sdf|6061|dock8
  -GOLD-   22720 6183D 1   1.00000     0.00000
 Structure written by MMmdl.
 41 42  0  0  0  0  0  0  0  0  2 V2000
  147.2741  128.4504  152.3548 C   0  0  0  0  0  0  0  0  0  0  0  0
  147.4447  129.8697  152.9157 C   0  0  0  0  0  0  0  0  0  0  0  0
  146.9615  130.9171  151.9808 N   0  3  0  0  0  0  0  0  0  0  0  0
  147.0051  132.2742  152.5905 C   0  0  0  0  0  0  0  0  0  0  0  0
  146.5063  133.3540  151.6112 C   0  0  0  0  0  0  0  0  0  0  0  0
  145.1564  132.9956  151.1525 N   0  0  0  0  0  0  0  0  0  0  0  0
  143.9987  133.5554  151.5845 C   0  0  0  0  0  0  0  0  0  0  0  0
  142.8979  133.0430  151.3804 O   0  0  0  0  0  0  0  0  0  0  0  0
  144.1554  134.7582  152.1698 N   0  0  0  0  0  0  0  0  0  0  0  0
  143.1568  135.5671  152.7690 C   0  0  0  0  0  0  0  0  0  0  0  0
  142.1663  135.0944  153.6687 C   0  0  0  0  0  0  0  0  0  0  0  0
  141.3643  136.0740  154.0567 N   0  0  0  0  0  0  0  0  0  0  0  0
  141.8229  137.1794  153.4171 N   0  0  0  0  0  0  0  0  0  0  0  0
  141.1565  138.4543  153.6149 C   0  0  0  0  0  0  0  0  0  0  0  0
  139.6456  138.3248  153.4137 C   0  0  0  0  0  0  0  0  0  0  0  0
  139.0841  139.1113  152.4918 N   0  0  0  0  0  0  0  0  0  0  0  0
  138.9944  137.5245  154.0815 O   0  0  0  0  0  0  0  0  0  0  0  0
  142.9191  136.9048  152.6227 C   0  0  0  0  0  0  0  0  0  0  0  0
  145.1770  131.7242  150.4238 C   0  0  0  0  0  0  0  0  0  0  0  0
  145.6389  130.6024  151.3721 C   0  0  0  0  0  0  0  0  0  0  0  0
  147.7299  127.7182  153.0219 H   0  0  0  0  0  0  0  0  0  0  0  0
  147.7523  128.3510  151.3803 H   0  0  0  0  0  0  0  0  0  0  0  0
  146.2251  128.1756  152.2469 H   0  0  0  0  0  0  0  0  0  0  0  0
  146.9405  129.9660  153.8786 H   0  0  0  0  0  0  0  0  0  0  0  0
  148.5074  130.0266  153.1064 H   0  0  0  0  0  0  0  0  0  0  0  0
  146.3919  132.2838  153.4933 H   0  0  0  0  0  0  0  0  0  0  0  0
  148.0257  132.5049  152.8979 H   0  0  0  0  0  0  0  0  0  0  0  0
  146.5655  134.3321  152.0885 H   0  0  0  0  0  0  0  0  0  0  0  0
  147.1718  133.4106  150.7484 H   0  0  0  0  0  0  0  0  0  0  0  0
  145.0973  135.1182  152.2177 H   0  0  0  0  0  0  0  0  0  0  0  0
  142.0043  134.0946  154.0442 H   0  0  0  0  0  0  0  0  0  0  0  0
  141.3720  138.8320  154.6160 H   0  0  0  0  0  0  0  0  0  0  0  0
  141.5658  139.1752  152.9059 H   0  0  0  0  0  0  0  0  0  0  0  0
  138.0905  139.0549  152.3196 H   0  0  0  0  0  0  0  0  0  0  0  0
  139.6569  139.7546  151.9649 H   0  0  0  0  0  0  0  0  0  0  0  0
  143.4081  137.6712  152.0397 H   0  0  0  0  0  0  0  0  0  0  0  0
  144.2077  131.4747  149.9890 H   0  0  0  0  0  0  0  0  0  0  0  0
  145.8633  131.8065  149.5797 H   0  0  0  0  0  0  0  0  0  0  0  0
  145.6923  129.6676  150.8152 H   0  0  0  0  0  0  0  0  0  0  0  0
  144.8999  130.4599  152.1624 H   0  0  0  0  0  0  0  0  0  0  0  0
  147.6234  130.9435  151.2182 H   0  0  0  0  0  0  0  0  0  0  0  0
  1  2  1  0  0  0  0
  1 21  1  0  0  0  0
  1 22  1  0  0  0  0
  1 23  1  0  0  0  0
  2  3  1  0  0  0  0
  2 24  1  0  0  0  0
  2 25  1  0  0  0  0
  3 20  1  0  0  0  0
  3  4  1  0  0  0  0
  3 41  1  0  0  0  0
  4  5  1  0  0  0  0
  4 26  1  0  0  0  0
  4 27  1  0  0  0  0
  5  6  1  0  0  0  0
  5 28  1  0  0  0  0
  5 29  1  0  0  0  0
  6  7  1  0  0  0  0
  6 19  1  0  0  0  0
  7  8  2  0  0  0  0
  7  9  1  0  0  0  0
  9 10  1  0  0  0  0
  9 30  1  0  0  0  0
 10 18  2  0  0  0  0
 10 11  1  0  0  0  0
 11 12  2  0  0  0  0
 11 31  1  0  0  0  0
 12 13  1  0  0  0  0
 13 14  1  0  0  0  0
 13 18  1  0  0  0  0
 14 15  1  0  0  0  0
 14 32  1  0  0  0  0
 14 33  1  0  0  0  0
 15 16  1  0  0  0  0
 15 17  2  0  0  0  0
 16 34  1  0  0  0  0
 16 35  1  0  0  0  0
 18 36  1  0  0  0  0
 19 20  1  0  0  0  0
 19 37  1  0  0  0  0
 19 38  1  0  0  0  0
 20 39  1  0  0  0  0
 20 40  1  0  0  0  0
M  CHG  1   3   1
M  END
> <s_m_source_file>
AV-unprocessed.smi

> <i_m_source_file_index>
1499

> <i_lp_mmshare_version>
43012

> <i_f3d_flags>
0

> <s_epik_input>
W0NIM11bQ0gyXU4xW0NIMl1bQ0gyXU4oW0NIMl1bQ0gyXTEpQyg9TylbTkhdYzJbY0hdbm4oW2NIXTIpW0NIMl1DKD1PKVtOSDJd

> <s_epik_cmdline>
J2VwaWtfcHl0aG9uJywgJy1waCcsICc3LjAnLCAnLXRuJywgJzgnLCAnLW1hJywgJzIwMCcsICctbWV0YWxfYmluZGluZycsICctaW1hZScsICc8aW5maWxlLm1hZT4nLCAnLW9tYWUnLCAnPG91dGZpbGUubWFlPic=

> <r_lp_tautomer_probability>
1

> <r_epik_Ionization_Penalty>
0.390351

> <r_epik_Ionization_Penalty_Charging>
0.390326

> <r_epik_Ionization_Penalty_Neutral>
2.46507e-05

> <r_epik_State_Penalty>
0.388987

> <r_epik_Charging_Adjusted_Penalty>
0.779313

> <i_epik_Tot_Q>
1

> <i_epik_Tot_abs_Q>
1

> <r_epik_Metal_State_Penalty>
0.388988

> <b_epik_Metal_Only>
0

> <s_lp_Force_Field>
OPLS_2005

> <r_lp_Energy>
52.2824

> <b_lp_Chiralities_Consistent>
1

> <s_lp_Variant>
AV-unprocessed.smi:1499-1

> <Gold.Version>
5.8.1

> <Gold.Id.Protein>
6NUR|6NUR_protein|mol2

> <Gold.PLP.Fitness>
47.9185

> <Gold.PLP.PLP>
-35.7167

> <Gold.PLP.part.hbond>
-1.8340

> <Gold.PLP.part.metal>
0.0000

> <Gold.PLP.part.buried>
-8.9088

> <Gold.PLP.part.nonpolar>
-26.7244

> <Gold.PLP.part.repulsive>
1.8471

> <Gold.PLP.ligand.clash>
0.0000

> <Gold.PLP.ligand.torsion>
0.6239

> <Gold.PLP.Chemscore.Hbond>
2.0000

> <Gold.PLP.Chemscore.CHOScore>
2.4513

> <Gold.PLP.Chemscore.Metal>
0.0000

> <Gold.Chemscore.Hbonds>
donor molecule, donor type, donor heavy atom, donor atom, acceptor molecule, acceptor atom, score
      L1  H     3    41       P1 10747  1.00
      L1  H    16    35       P1 10160  1.00
      L1  C    11    31       P1 10957  1.00
      L1  C    18    36       P1 10171  1.00
      L1  C    18    36       P1 10175  0.33

> <Gold.PLP.Chemscore.Internal.Correction>
0.0958

> <Gold.Rescore>
     Score         DG    S(hbond)    S(metal)    S(lipo)     H(rot)  DE(clash)    DE(int)     intcor
     13.29     -15.25       2.00        0.00      67.06       1.85       0.03       1.92       ----

> <Gold.Chemscore.Fitness>
13.2904

> <Gold.Chemscore.DG>
-15.2477

> <Gold.Chemscore.ZeroCoef>
-5.4800

> <Gold.Chemscore.Hbond>
1.9959

> <Gold.Chemscore.Metal>
0.0000

> <Gold.Chemscore.Lipo>
67.0561

> <Gold.Chemscore.Internal_Hbond>
0.0000

> <Gold.Chemscore.DEClash>
0.0348

> <Gold.Chemscore.DEInternal>
1.9225

> <Gold.Chemscore.Rot>
1.8532

> <Gold.Chemscore.Internal.Correction>
   9.000000E+99

> <Gold.Chemscore.Hbonds>
donor molecule, donor type, donor heavy atom, donor atom, acceptor molecule, acceptor atom, score
      L1  H     3    41       P1 10747  1.00
      L1  H    16    35       P1 10160  0.95

> <Gold.Chemscore.Hbond.Weighted>
-6.6662

> <Gold.Chemscore.Metal.Weighted>
-0.0000

> <Gold.Chemscore.Lipo.Weighted>
-7.8456

> <Gold.Chemscore.Internal_Hbond.Weighted>
0.0000

> <Gold.Chemscore.DEClash.Weighted>
0.0348

> <Gold.Chemscore.DEInternal.Weighted>
1.9225

> <Gold.Chemscore.Rot.Weighted>
4.7441

> <Gold.Chemscore.Internal.Correction.Weighted>
   9.000000E+99

> <Gold.Protein.RotatedTorsions>
[ 6907 6896 6895 6894 ] final -154.46 input  -60.11 | X-H torsion
[ 7974 7965 7964 7962 ] final  -87.98 input  175.53 | X-H torsion
[ 8008 7997 7996 7995 ] final -168.59 input   59.86 | X-H torsion
[ 10167 10162 10161 10158 ] final  -35.66 input  -65.29 | X-H torsion
[ 10718 10713 10712 10709 ] final  120.13 input   66.30 | X-H torsion
[ 10763 10752 10751 10750 ] final  -64.28 input  -60.55 | X-H torsion
[ 11005 11000 10999 10996 ] final  -46.60 input  -57.11 | X-H torsion

> <Gold.Protein.ActiveResidues>
 VAL166  LYS551  ARG553  GLY616  TRP617  ASP618  TYR619  PRO620  LYS621  CYS622 
 ASP623  PHE694  ASN695  SER759  ASP760  ASP761  ALA762  ILE779  LEU786  VAL792 
 PHE793  MET794  SER795  GLU796  ALA797  LYS798  CYS799  TRP800  GLU811  SER814 

> <Gold.Protein.RotatedAtoms>
  151.2578  133.4317  159.2614 H   0  0  0  0  0  0  0  0  0  0  0  0  # atno 6907 bound_to 6896
  151.0558  134.9704  159.8245 H   0  0  0  0  0  0  0  0  0  0  0  0  # atno 6908 bound_to 6896
  152.5390  134.2530  159.8959 H   0  0  0  0  0  0  0  0  0  0  0  0  # atno 6909 bound_to 6896
  145.4592  140.9561  143.1979 H   0  0  0  0  0  0  0  0  0  0  0  0  # atno 7974 bound_to 7965
  155.8935  140.1029  157.1401 H   0  0  0  0  0  0  0  0  0  0  0  0  # atno 8008 bound_to 7997
  154.4017  140.1306  156.4410 H   0  0  0  0  0  0  0  0  0  0  0  0  # atno 8009 bound_to 7997
  155.7506  140.3465  155.5151 H   0  0  0  0  0  0  0  0  0  0  0  0  # atno 8010 bound_to 7997
  140.7160  143.3462  151.2251 H   0  0  0  0  0  0  0  0  0  0  0  0  # atno 10167 bound_to 10162
  157.5913  131.1064  150.7992 H   0  0  0  0  0  0  0  0  0  0  0  0  # atno 10718 bound_to 10713
  154.3277  135.6183  153.5537 H   0  0  0  0  0  0  0  0  0  0  0  0  # atno 10763 bound_to 10752
  152.9814  135.5739  154.4997 H   0  0  0  0  0  0  0  0  0  0  0  0  # atno 10764 bound_to 10752
  154.4677  135.2858  155.1642 H   0  0  0  0  0  0  0  0  0  0  0  0  # atno 10765 bound_to 10752
  141.0589  133.6716  156.3177 H   0  0  0  0  0  0  0  0  0  0  0  0  # atno 11005 bound_to 11000
  144.8013  139.6136  143.7070 LP  0  0  0  0  0  0  0  0  0  0  0  0  # atno 17320 bound_to 7965
  146.2460  139.6100  142.9459 LP  0  0  0  0  0  0  0  0  0  0  0  0  # atno 17321 bound_to 7965
  139.6982  143.9577  152.2893 LP  0  0  0  0  0  0  0  0  0  0  0  0  # atno 17342 bound_to 10162
  139.9262  144.6770  150.8410 LP  0  0  0  0  0  0  0  0  0  0  0  0  # atno 17343 bound_to 10162
  156.8414  130.5049  149.5321 LP  0  0  0  0  0  0  0  0  0  0  0  0  # atno 17370 bound_to 10713
  156.0968  130.5938  150.9827 LP  0  0  0  0  0  0  0  0  0  0  0  0  # atno 17371 bound_to 10713
  140.5909  134.5651  157.5499 LP  0  0  0  0  0  0  0  0  0  0  0  0  # atno 17394 bound_to 11000
  139.9414  134.7779  156.0668 LP  0  0  0  0  0  0  0  0  0  0  0  0  # atno 17395 bound_to 11000

$$$$
