AV-unprocessed.smi:82|AV-procd|sdf|794|dock3
  -GOLD-   2262017173D 1   1.00000     0.00000
 Structure written by MMmdl.
 59 62  0  0  0  0  0  0  0  0  2 V2000
  148.9662  139.0419  161.7710 C   0  0  0  0  0  0  0  0  0  0  0  0
  149.8834  137.9776  161.5868 O   0  0  0  0  0  0  0  0  0  0  0  0
  149.2892  136.8476  160.9694 C   0  0  0  0  0  0  0  0  0  0  0  0
  148.9334  137.2077  159.5189 C   0  0  0  0  0  0  0  0  0  0  0  0
  149.6210  136.3257  158.5334 N   0  3  2  0  0  0  0  0  0  0  0  0
  149.9537  137.0717  157.2860 C   0  0  0  0  0  0  0  0  0  0  0  0
  150.7121  136.2013  156.2747 C   0  0  0  0  0  0  0  0  0  0  0  0
  149.9507  134.9962  155.9796 N   0  0  0  0  0  0  0  0  0  0  0  0
  149.0373  135.0891  154.9763 C   0  0  0  0  0  0  0  0  0  0  0  0
  148.3796  136.2604  154.7656 N   0  0  0  0  0  0  0  0  0  0  0  0
  147.4886  136.3690  153.7762 C   0  0  0  0  0  0  0  0  0  0  0  0
  147.1058  135.4445  152.8946 N   0  0  0  0  0  0  0  0  0  0  0  0
  147.7504  134.2611  153.1048 C   0  0  0  0  0  0  0  0  0  0  0  0
  148.7212  133.9999  154.1139 C   0  0  0  0  0  0  0  0  0  0  0  0
  149.1429  132.6782  154.0305 N   0  0  0  0  0  0  0  0  0  0  0  0
  148.4668  132.1886  153.0275 C   0  0  0  0  0  0  0  0  0  0  0  0
  147.6108  133.0719  152.4084 N   0  0  0  0  0  0  0  0  0  0  0  0
  146.7434  132.7911  151.2991 C   0  0  0  0  0  0  0  0  0  0  0  0
  145.9570  133.9160  150.6221 C   0  0  0  0  0  0  0  0  0  0  0  0
  144.7501  132.9704  150.4251 C   0  0  0  0  0  0  0  0  0  0  0  0
  143.3970  133.5807  150.8225 C   0  0  0  0  0  0  0  0  0  0  0  0
  143.5237  134.4362  151.9403 O   0  0  0  0  0  0  0  0  0  0  0  0
  144.5807  132.3670  149.0131 C   0  0  0  0  0  0  0  0  0  0  0  0
  144.1154  133.3004  148.0594 O   0  0  0  0  0  0  0  0  0  0  0  0
  145.4057  132.0735  151.4996 C   0  0  0  0  0  0  0  0  0  0  0  0
  149.6340  134.2099  157.1677 C   0  0  0  0  0  0  0  0  0  0  0  0
  148.9081  135.0360  158.2591 C   0  0  1  0  0  0  0  0  0  0  0  0
  148.7726  134.1493  159.5140 C   0  0  0  0  0  0  0  0  0  0  0  0
  149.4731  139.8862  162.2384 H   0  0  0  0  0  0  0  0  0  0  0  0
  148.1413  138.7441  162.4198 H   0  0  0  0  0  0  0  0  0  0  0  0
  148.5582  139.3805  160.8178 H   0  0  0  0  0  0  0  0  0  0  0  0
  149.9995  136.0194  160.9694 H   0  0  0  0  0  0  0  0  0  0  0  0
  148.4157  136.5158  161.5307 H   0  0  0  0  0  0  0  0  0  0  0  0
  147.8516  137.1490  159.4350 H   0  0  0  0  0  0  0  0  0  0  0  0
  149.1840  138.2497  159.3145 H   0  0  0  0  0  0  0  0  0  0  0  0
  149.0331  137.4394  156.8293 H   0  0  0  0  0  0  0  0  0  0  0  0
  150.5599  137.9470  157.5151 H   0  0  0  0  0  0  0  0  0  0  0  0
  150.9239  136.7810  155.3773 H   0  0  0  0  0  0  0  0  0  0  0  0
  151.6794  135.9096  156.6853 H   0  0  0  0  0  0  0  0  0  0  0  0
  147.0153  137.3349  153.6759 H   0  0  0  0  0  0  0  0  0  0  0  0
  148.5726  131.1604  152.7131 H   0  0  0  0  0  0  0  0  0  0  0  0
  147.3417  132.2553  150.5615 H   0  0  0  0  0  0  0  0  0  0  0  0
  145.7452  134.7425  151.3021 H   0  0  0  0  0  0  0  0  0  0  0  0
  146.4080  134.2832  149.6994 H   0  0  0  0  0  0  0  0  0  0  0  0
  142.9795  134.1684  150.0038 H   0  0  0  0  0  0  0  0  0  0  0  0
  142.6641  132.8059  151.0502 H   0  0  0  0  0  0  0  0  0  0  0  0
  142.8334  135.0807  151.9066 H   0  0  0  0  0  0  0  0  0  0  0  0
  145.5249  131.9683  148.6421 H   0  0  0  0  0  0  0  0  0  0  0  0
  143.8760  131.5349  149.0315 H   0  0  0  0  0  0  0  0  0  0  0  0
  144.8286  133.8753  147.8268 H   0  0  0  0  0  0  0  0  0  0  0  0
  145.4275  131.0112  151.2537 H   0  0  0  0  0  0  0  0  0  0  0  0
  144.9837  132.2304  152.4934 H   0  0  0  0  0  0  0  0  0  0  0  0
  149.0506  133.3286  156.8972 H   0  0  0  0  0  0  0  0  0  0  0  0
  150.5756  133.8300  157.5662 H   0  0  0  0  0  0  0  0  0  0  0  0
  147.9071  135.2817  157.9025 H   0  0  0  0  0  0  0  0  0  0  0  0
  148.4005  133.1595  159.2478 H   0  0  0  0  0  0  0  0  0  0  0  0
  148.0685  134.5464  160.2428 H   0  0  0  0  0  0  0  0  0  0  0  0
  149.7344  134.0140  160.0100 H   0  0  0  0  0  0  0  0  0  0  0  0
  150.5002  136.0616  158.9549 H   0  0  0  0  0  0  0  0  0  0  0  0
  1  2  1  0  0  0  0
  1 29  1  0  0  0  0
  1 30  1  0  0  0  0
  1 31  1  0  0  0  0
  2  3  1  0  0  0  0
  3  4  1  0  0  0  0
  3 32  1  0  0  0  0
  3 33  1  0  0  0  0
  4  5  1  0  0  0  0
  4 34  1  0  0  0  0
  4 35  1  0  0  0  0
  5 27  1  0  0  0  0
  5  6  1  0  0  0  0
  5 59  1  0  0  0  0
  6  7  1  0  0  0  0
  6 36  1  0  0  0  0
  6 37  1  0  0  0  0
  7  8  1  0  0  0  0
  7 38  1  0  0  0  0
  7 39  1  0  0  0  0
  8  9  1  0  0  0  0
  8 26  1  0  0  0  0
  9 14  1  0  0  0  0
  9 10  2  0  0  0  0
 10 11  1  0  0  0  0
 11 12  2  0  0  0  0
 11 40  1  0  0  0  0
 12 13  1  0  0  0  0
 13 17  1  0  0  0  0
 13 14  2  0  0  0  0
 14 15  1  0  0  0  0
 15 16  2  0  0  0  0
 16 17  1  0  0  0  0
 16 41  1  0  0  0  0
 17 18  1  0  0  0  0
 18 25  1  0  0  0  0
 18 19  1  0  0  0  0
 18 42  1  0  0  0  0
 19 20  1  0  0  0  0
 19 43  1  0  0  0  0
 19 44  1  0  0  0  0
 20 21  1  0  0  0  0
 20 23  1  0  0  0  0
 20 25  1  0  0  0  0
 21 22  1  0  0  0  0
 21 45  1  0  0  0  0
 21 46  1  0  0  0  0
 22 47  1  0  0  0  0
 23 24  1  0  0  0  0
 23 48  1  0  0  0  0
 23 49  1  0  0  0  0
 24 50  1  0  0  0  0
 25 51  1  0  0  0  0
 25 52  1  0  0  0  0
 26 27  1  0  0  0  0
 26 53  1  0  0  0  0
 26 54  1  0  0  0  0
 27 28  1  0  0  0  0
 27 55  1  0  0  0  0
 28 56  1  0  0  0  0
 28 57  1  0  0  0  0
 28 58  1  0  0  0  0
M  CHG  1   5   1
M  END
> <s_m_source_file>
AV-unprocessed.smi

> <i_m_source_file_index>
82

> <i_lp_mmshare_version>
43012

> <i_f3d_flags>
0

> <s_epik_input>
W0NIM11PW0NIMl1bQ0gyXU4xW0NIMl1bQ0gyXU4oW0NIMl1bQ0BIXTFbQ0gzXSljKG5bY0hdbjIpYyhjMjMpbltjSF1uM1tDSF0oW0NIMl00KVtDSDJdQzQoW0NIMl1bT0hdKVtDSDJdW09IXQ==

> <s_epik_cmdline>
J2VwaWtfcHl0aG9uJywgJy1waCcsICc3LjAnLCAnLXRuJywgJzgnLCAnLW1hJywgJzIwMCcsICctbWV0YWxfYmluZGluZycsICctaW1hZScsICc8aW5maWxlLm1hZT4nLCAnLW9tYWUnLCAnPG91dGZpbGUubWFlPic=

> <r_lp_tautomer_probability>
1

> <r_epik_Ionization_Penalty>
0.304275

> <r_epik_Ionization_Penalty_Charging>
0.304214

> <r_epik_Ionization_Penalty_Neutral>
6.13137e-05

> <r_epik_State_Penalty>
0.300354

> <r_epik_Charging_Adjusted_Penalty>
0.604567

> <i_epik_Tot_Q>
1

> <i_epik_Tot_abs_Q>
1

> <r_epik_Metal_State_Penalty>
0.301147

> <b_epik_Metal_Only>
0

> <s_lp_Force_Field>
OPLS_2005

> <r_lp_Energy>
58.1086

> <b_lp_Chiralities_Consistent>
1

> <s_lp_Variant>
AV-unprocessed.smi:82-1

> <Gold.Version>
5.8.1

> <Gold.Id.Protein>
6NUR|6NUR_protein|mol2

> <Gold.PLP.Fitness>
45.5968

> <Gold.PLP.PLP>
-39.3350

> <Gold.PLP.part.hbond>
-3.6399

> <Gold.PLP.part.metal>
0.0000

> <Gold.PLP.part.buried>
-3.6818

> <Gold.PLP.part.nonpolar>
-32.0138

> <Gold.PLP.part.repulsive>
0.3277

> <Gold.PLP.ligand.clash>
0.0000

> <Gold.PLP.ligand.torsion>
1.8194

> <Gold.PLP.Chemscore.Hbond>
2.0000

> <Gold.PLP.Chemscore.CHOScore>
0.9796

> <Gold.PLP.Chemscore.Metal>
0.0000

> <Gold.Chemscore.Hbonds>
donor molecule, donor type, donor heavy atom, donor atom, acceptor molecule, acceptor atom, score
      L1  H    24    50       P1  7921  1.00
      L1  C    16    41       P1 10747  0.70

> <Gold.PLP.Chemscore.Internal.Correction>
0.9617

> <Gold.Rescore>
     Score         DG    S(hbond)    S(metal)    S(lipo)     H(rot)  DE(clash)    DE(int)     intcor
      7.32     -10.68       1.38        0.00      90.54       3.91       0.45       2.91       ----

> <Gold.Chemscore.Fitness>
7.3223

> <Gold.Chemscore.DG>
-10.6766

> <Gold.Chemscore.ZeroCoef>
-5.4800

> <Gold.Chemscore.Hbond>
1.3776

> <Gold.Chemscore.Metal>
0.0000

> <Gold.Chemscore.Lipo>
90.5409

> <Gold.Chemscore.Internal_Hbond>
0.0000

> <Gold.Chemscore.DEClash>
0.4474

> <Gold.Chemscore.DEInternal>
2.9069

> <Gold.Chemscore.Rot>
3.9055

> <Gold.Chemscore.Internal.Correction>
   9.000000E+99

> <Gold.Chemscore.Hbonds>
donor molecule, donor type, donor heavy atom, donor atom, acceptor molecule, acceptor atom, score
      L1  H    24    50       P1  7921  0.96

> <Gold.Chemscore.Hbond.Weighted>
-4.6013

> <Gold.Chemscore.Metal.Weighted>
-0.0000

> <Gold.Chemscore.Lipo.Weighted>
-10.5933

> <Gold.Chemscore.Internal_Hbond.Weighted>
0.0000

> <Gold.Chemscore.DEClash.Weighted>
0.4474

> <Gold.Chemscore.DEInternal.Weighted>
2.9069

> <Gold.Chemscore.Rot.Weighted>
9.9980

> <Gold.Chemscore.Internal.Correction.Weighted>
   9.000000E+99

> <Gold.Protein.RotatedTorsions>
[ 6907 6896 6895 6894 ] final  -95.75 input  -60.11 | X-H torsion
[ 7974 7965 7964 7962 ] final  -40.88 input  175.53 | X-H torsion
[ 8008 7997 7996 7995 ] final  173.81 input   59.86 | X-H torsion
[ 10167 10162 10161 10158 ] final -115.94 input  -65.29 | X-H torsion
[ 10718 10713 10712 10709 ] final -154.74 input   66.30 | X-H torsion
[ 10763 10752 10751 10750 ] final  -54.14 input  -60.55 | X-H torsion
[ 11005 11000 10999 10996 ] final  -47.68 input  -57.11 | X-H torsion

> <Gold.Protein.ActiveResidues>
 VAL166  LYS551  ARG553  GLY616  TRP617  ASP618  TYR619  PRO620  LYS621  CYS622 
 ASP623  PHE694  ASN695  SER759  ASP760  ASP761  ALA762  ILE779  LEU786  VAL792 
 PHE793  MET794  SER795  GLU796  ALA797  LYS798  CYS799  TRP800  GLU811  SER814 

> <Gold.Protein.RotatedAtoms>
  150.6971  134.1609  159.4175 H   0  0  0  0  0  0  0  0  0  0  0  0  # atno 6907 bound_to 6896
  151.9590  135.0130  160.0556 H   0  0  0  0  0  0  0  0  0  0  0  0  # atno 6908 bound_to 6896
  152.1944  133.4761  159.5062 H   0  0  0  0  0  0  0  0  0  0  0  0  # atno 6909 bound_to 6896
  146.0264  140.6787  142.9154 H   0  0  0  0  0  0  0  0  0  0  0  0  # atno 7974 bound_to 7965
  156.1038  140.1450  156.9431 H   0  0  0  0  0  0  0  0  0  0  0  0  # atno 8008 bound_to 7997
  154.4720  140.0906  156.7213 H   0  0  0  0  0  0  0  0  0  0  0  0  # atno 8009 bound_to 7997
  155.4714  140.3442  155.4328 H   0  0  0  0  0  0  0  0  0  0  0  0  # atno 8010 bound_to 7997
  140.0846  143.4755  152.1905 H   0  0  0  0  0  0  0  0  0  0  0  0  # atno 10167 bound_to 10162
  156.5034  130.8402  151.2618 H   0  0  0  0  0  0  0  0  0  0  0  0  # atno 10718 bound_to 10713
  154.1701  135.6460  153.5007 H   0  0  0  0  0  0  0  0  0  0  0  0  # atno 10763 bound_to 10752
  153.0086  135.5381  154.6621 H   0  0  0  0  0  0  0  0  0  0  0  0  # atno 10764 bound_to 10752
  154.5958  135.2938  155.0560 H   0  0  0  0  0  0  0  0  0  0  0  0  # atno 10765 bound_to 10752
  141.0655  133.6695  156.3332 H   0  0  0  0  0  0  0  0  0  0  0  0  # atno 11005 bound_to 11000
  144.7011  140.3657  143.7155 LP  0  0  0  0  0  0  0  0  0  0  0  0  # atno 17320 bound_to 7965
  145.7112  139.1685  143.2538 LP  0  0  0  0  0  0  0  0  0  0  0  0  # atno 17321 bound_to 7965
  139.5759  144.7487  151.3766 LP  0  0  0  0  0  0  0  0  0  0  0  0  # atno 17342 bound_to 10162
  140.7060  143.7513  150.7482 LP  0  0  0  0  0  0  0  0  0  0  0  0  # atno 17343 bound_to 10162
  157.7460  130.9974  150.2814 LP  0  0  0  0  0  0  0  0  0  0  0  0  # atno 17370 bound_to 10713
  156.3310  130.3800  149.7491 LP  0  0  0  0  0  0  0  0  0  0  0  0  # atno 17371 bound_to 10713
  140.5782  134.5772  157.5473 LP  0  0  0  0  0  0  0  0  0  0  0  0  # atno 17394 bound_to 11000
  139.9472  134.7680  156.0533 LP  0  0  0  0  0  0  0  0  0  0  0  0  # atno 17395 bound_to 11000

$$$$
