AV-unprocessed.smi:2100|AV-procd|sdf|8577|dock2
  -GOLD-   2272011303D 1   1.00000     0.00000
 Structure written by MMmdl.
 40 41  0  0  0  0  0  0  0  0  2 V2000
  152.2027  144.9114  159.1956 C   0  0  0  0  0  0  0  0  0  0  0  0
  152.4989  143.4695  158.7685 C   0  0  1  0  0  0  0  0  0  0  0  0
  153.1763  142.6623  159.8908 C   0  0  0  0  0  0  0  0  0  0  0  0
  153.3204  141.2464  159.5122 N   0  0  0  0  0  0  0  0  0  0  0  0
  154.3814  140.2469  160.4558 S   0  0  0  0  0  0  0  0  0  0  0  0
  154.7911  141.0565  161.6151 O   0  0  0  0  0  0  0  0  0  0  0  0
  153.6488  138.9965  160.7150 O   0  0  0  0  0  0  0  0  0  0  0  0
  155.5466  140.0889  159.3399 N   0  5  0  0  0  0  0  0  0  0  0  0
  156.9344  140.0641  159.7671 C   0  0  0  0  0  0  0  0  0  0  0  0
  157.7491  141.0912  158.9515 C   0  0  0  0  0  0  0  0  0  0  0  0
  159.1661  141.3212  159.4676 C   0  0  0  0  0  0  0  0  0  0  0  0
  160.0745  142.1228  158.7391 C   0  0  0  0  0  0  0  0  0  0  0  0
  161.3773  142.2968  159.2444 C   0  0  0  0  0  0  0  0  0  0  0  0
  161.7272  141.6632  160.4517 C   0  0  0  0  0  0  0  0  0  0  0  0
  160.7542  140.8794  161.1028 C   0  0  0  0  0  0  0  0  0  0  0  0
  159.5027  140.7051  160.6276 N   0  0  0  0  0  0  0  0  0  0  0  0
  152.0882  140.6447  158.9753 C   0  0  0  0  0  0  0  0  0  0  0  0
  151.4613  141.5420  157.8927 C   0  0  1  0  0  0  0  0  0  0  0  0
  150.1033  141.0111  157.4202 C   0  0  0  0  0  0  0  0  0  0  0  0
  151.2700  142.8519  158.4097 O   0  0  0  0  0  0  0  0  0  0  0  0
  153.1187  145.4350  159.4703 H   0  0  0  0  0  0  0  0  0  0  0  0
  151.5309  144.9387  160.0539 H   0  0  0  0  0  0  0  0  0  0  0  0
  151.7314  145.4687  158.3857 H   0  0  0  0  0  0  0  0  0  0  0  0
  153.1532  143.4980  157.8952 H   0  0  0  0  0  0  0  0  0  0  0  0
  154.1556  143.0866  160.1121 H   0  0  0  0  0  0  0  0  0  0  0  0
  152.5878  142.7221  160.8073 H   0  0  0  0  0  0  0  0  0  0  0  0
  157.0279  140.3000  160.8278 H   0  0  0  0  0  0  0  0  0  0  0  0
  157.3748  139.0748  159.6396 H   0  0  0  0  0  0  0  0  0  0  0  0
  157.8074  140.7712  157.9099 H   0  0  0  0  0  0  0  0  0  0  0  0
  157.2275  142.0494  158.9420 H   0  0  0  0  0  0  0  0  0  0  0  0
  159.7770  142.5967  157.8151 H   0  0  0  0  0  0  0  0  0  0  0  0
  162.0954  142.9049  158.7145 H   0  0  0  0  0  0  0  0  0  0  0  0
  162.7174  141.7741  160.8683 H   0  0  0  0  0  0  0  0  0  0  0  0
  160.9886  140.3770  162.0297 H   0  0  0  0  0  0  0  0  0  0  0  0
  152.3088  139.6622  158.5584 H   0  0  0  0  0  0  0  0  0  0  0  0
  151.3852  140.4937  159.7954 H   0  0  0  0  0  0  0  0  0  0  0  0
  152.1285  141.5917  157.0302 H   0  0  0  0  0  0  0  0  0  0  0  0
  150.1982  140.0089  157.0015 H   0  0  0  0  0  0  0  0  0  0  0  0
  149.6804  141.6549  156.6487 H   0  0  0  0  0  0  0  0  0  0  0  0
  149.3896  140.9643  158.2432 H   0  0  0  0  0  0  0  0  0  0  0  0
  1  2  1  0  0  0  0
  1 21  1  0  0  0  0
  1 22  1  0  0  0  0
  1 23  1  0  0  0  0
  2 20  1  0  0  0  0
  2  3  1  0  0  0  0
  2 24  1  0  0  0  0
  3  4  1  0  0  0  0
  3 25  1  0  0  0  0
  3 26  1  0  0  0  0
  4  5  1  0  0  0  0
  4 17  1  0  0  0  0
  5  6  2  0  0  0  0
  5  7  2  0  0  0  0
  5  8  1  0  0  0  0
  8  9  1  0  0  0  0
  9 10  1  0  0  0  0
  9 27  1  0  0  0  0
  9 28  1  0  0  0  0
 10 11  1  0  0  0  0
 10 29  1  0  0  0  0
 10 30  1  0  0  0  0
 11 16  1  0  0  0  0
 11 12  2  0  0  0  0
 12 13  1  0  0  0  0
 12 31  1  0  0  0  0
 13 14  2  0  0  0  0
 13 32  1  0  0  0  0
 14 15  1  0  0  0  0
 14 33  1  0  0  0  0
 15 16  2  0  0  0  0
 15 34  1  0  0  0  0
 17 18  1  0  0  0  0
 17 35  1  0  0  0  0
 17 36  1  0  0  0  0
 18 19  1  0  0  0  0
 18 20  1  0  0  0  0
 18 37  1  0  0  0  0
 19 38  1  0  0  0  0
 19 39  1  0  0  0  0
 19 40  1  0  0  0  0
M  CHG  1   8  -1
M  END
> <s_m_source_file>
AV-unprocessed.smi

> <i_m_source_file_index>
2100

> <i_lp_mmshare_version>
43012

> <i_f3d_flags>
0

> <s_epik_input>
W0NIM11bQ0BASF0xW0NIMl1OKFtDSDJdW0NASF0oTzEpW0NIM10pUyg9TykoPU8pW05IXVtDSDJdW0NIMl1jMltjSF1bY0hdW2NIXVtjSF1uMg==

> <s_epik_cmdline>
J2VwaWtfcHl0aG9uJywgJy1waCcsICc3LjAnLCAnLXRuJywgJzgnLCAnLW1hJywgJzIwMCcsICctbWV0YWxfYmluZGluZycsICctaW1hZScsICc8aW5maWxlLm1hZT4nLCAnLW9tYWUnLCAnPG91dGZpbGUubWFlPic=

> <r_epik_Ionization_Penalty>
1.27779

> <r_epik_Ionization_Penalty_Charging>
1.20871

> <r_epik_Ionization_Penalty_Neutral>
0.0690773

> <r_epik_State_Penalty>
1.64557

> <r_epik_Charging_Adjusted_Penalty>
2.85428

> <i_epik_Tot_Q>
-1

> <i_epik_Tot_abs_Q>
1

> <r_epik_Metal_State_Penalty>
0.643506

> <b_epik_Metal_Only>
0

> <s_lp_Force_Field>
OPLS_2005

> <r_lp_Energy>
4.91885

> <b_lp_Chiralities_Consistent>
1

> <s_lp_Variant>
AV-unprocessed.smi:2100-5

> <Gold.Version>
5.8.1

> <Gold.Id.Protein>
6NUR|6NUR_protein|mol2

> <Gold.PLP.Fitness>
44.5577

> <Gold.PLP.PLP>
-38.9720

> <Gold.PLP.part.hbond>
-2.0000

> <Gold.PLP.part.metal>
0.0000

> <Gold.PLP.part.buried>
-5.6946

> <Gold.PLP.part.nonpolar>
-32.2539

> <Gold.PLP.part.repulsive>
0.1503

> <Gold.PLP.ligand.clash>
0.0000

> <Gold.PLP.ligand.torsion>
1.7562

> <Gold.PLP.Chemscore.Hbond>
2.0000

> <Gold.PLP.Chemscore.CHOScore>
0.0000

> <Gold.PLP.Chemscore.Metal>
0.0000

> <Gold.Chemscore.Hbonds>
donor molecule, donor type, donor heavy atom, donor atom, acceptor molecule, acceptor atom, score
      P1  H  7997  8010       L1     8  1.98

> <Gold.PLP.Chemscore.Internal.Correction>
3.0981

> <Gold.Rescore>
     Score         DG    S(hbond)    S(metal)    S(lipo)     H(rot)  DE(clash)    DE(int)     intcor
     15.61     -17.38       0.90        0.00     104.42       1.30       0.04       1.73       ----

> <Gold.Chemscore.Fitness>
15.6121

> <Gold.Chemscore.DG>
-17.3779

> <Gold.Chemscore.ZeroCoef>
-5.4800

> <Gold.Chemscore.Hbond>
0.9038

> <Gold.Chemscore.Metal>
0.0000

> <Gold.Chemscore.Lipo>
104.4211

> <Gold.Chemscore.Internal_Hbond>
0.0000

> <Gold.Chemscore.DEClash>
0.0401

> <Gold.Chemscore.DEInternal>
1.7258

> <Gold.Chemscore.Rot>
1.3039

> <Gold.Chemscore.Internal.Correction>
   9.000000E+99

> <Gold.Chemscore.Hbonds>
donor molecule, donor type, donor heavy atom, donor atom, acceptor molecule, acceptor atom, score
      P1  H  7997  8010       L1     8  0.65

> <Gold.Chemscore.Hbond.Weighted>
-3.0186

> <Gold.Chemscore.Metal.Weighted>
-0.0000

> <Gold.Chemscore.Lipo.Weighted>
-12.2173

> <Gold.Chemscore.Internal_Hbond.Weighted>
0.0000

> <Gold.Chemscore.DEClash.Weighted>
0.0401

> <Gold.Chemscore.DEInternal.Weighted>
1.7258

> <Gold.Chemscore.Rot.Weighted>
3.3379

> <Gold.Chemscore.Internal.Correction.Weighted>
   9.000000E+99

> <Gold.Protein.RotatedTorsions>
[ 6907 6896 6895 6894 ] final  107.60 input  -60.11 | X-H torsion
[ 7974 7965 7964 7962 ] final -165.54 input  175.53 | X-H torsion
[ 8008 7997 7996 7995 ] final  -22.18 input   59.86 | X-H torsion
[ 10167 10162 10161 10158 ] final -146.64 input  -65.29 | X-H torsion
[ 10718 10713 10712 10709 ] final  -57.46 input   66.30 | X-H torsion
[ 10763 10752 10751 10750 ] final  116.12 input  -60.55 | X-H torsion
[ 11005 11000 10999 10996 ] final  123.46 input  -57.11 | X-H torsion

> <Gold.Protein.ActiveResidues>
 VAL166  LYS551  ARG553  GLY616  TRP617  ASP618  TYR619  PRO620  LYS621  CYS622 
 ASP623  PHE694  ASN695  SER759  ASP760  ASP761  ALA762  ILE779  LEU786  VAL792 
 PHE793  MET794  SER795  GLU796  ALA797  LYS798  CYS799  TRP800  GLU811  SER814 

> <Gold.Protein.RotatedAtoms>
  152.5147  133.9210  159.7534 H   0  0  0  0  0  0  0  0  0  0  0  0  # atno 6907 bound_to 6896
  150.9582  133.6466  159.2766 H   0  0  0  0  0  0  0  0  0  0  0  0  # atno 6908 bound_to 6896
  151.3720  135.0929  159.9521 H   0  0  0  0  0  0  0  0  0  0  0  0  # atno 6909 bound_to 6896
  144.7267  140.2799  143.6237 H   0  0  0  0  0  0  0  0  0  0  0  0  # atno 7974 bound_to 7965
  154.4660  140.2015  156.0118 H   0  0  0  0  0  0  0  0  0  0  0  0  # atno 8008 bound_to 7997
  156.0927  140.3255  155.7808 H   0  0  0  0  0  0  0  0  0  0  0  0  # atno 8009 bound_to 7997
  155.4930  140.0547  157.2941 H   0  0  0  0  0  0  0  0  0  0  0  0  # atno 8010 bound_to 7997
  139.7695  143.8259  152.2622 H   0  0  0  0  0  0  0  0  0  0  0  0  # atno 10167 bound_to 10162
  156.1209  130.4166  150.0443 H   0  0  0  0  0  0  0  0  0  0  0  0  # atno 10718 bound_to 10713
  153.5325  135.3575  155.2682 H   0  0  0  0  0  0  0  0  0  0  0  0  # atno 10763 bound_to 10752
  154.8725  135.4071  154.3135 H   0  0  0  0  0  0  0  0  0  0  0  0  # atno 10764 bound_to 10752
  153.3827  135.7069  153.6621 H   0  0  0  0  0  0  0  0  0  0  0  0  # atno 10765 bound_to 10752
  139.9313  134.9641  156.8262 H   0  0  0  0  0  0  0  0  0  0  0  0  # atno 11005 bound_to 11000
  145.7959  139.1945  143.2076 LP  0  0  0  0  0  0  0  0  0  0  0  0  # atno 17320 bound_to 7965
  146.0717  140.7862  142.9685 LP  0  0  0  0  0  0  0  0  0  0  0  0  # atno 17321 bound_to 7965
  139.8289  144.7263  150.9476 LP  0  0  0  0  0  0  0  0  0  0  0  0  # atno 17342 bound_to 10162
  140.7813  143.4089  151.1026 LP  0  0  0  0  0  0  0  0  0  0  0  0  # atno 17343 bound_to 10162
  156.8382  130.9416  151.3633 LP  0  0  0  0  0  0  0  0  0  0  0  0  # atno 17370 bound_to 10713
  157.6392  130.8792  149.9417 LP  0  0  0  0  0  0  0  0  0  0  0  0  # atno 17371 bound_to 10713
  140.6193  134.0008  155.7611 LP  0  0  0  0  0  0  0  0  0  0  0  0  # atno 17394 bound_to 11000
  141.0904  133.9926  157.3247 LP  0  0  0  0  0  0  0  0  0  0  0  0  # atno 17395 bound_to 11000

$$$$
