AV-unprocessed.smi:662|AV-procd|sdf|3244|dock1
  -GOLD-   22720 0193D 1   1.00000     0.00000
 Structure written by MMmdl.
 34 35  0  0  0  0  0  0  0  0  2 V2000
  144.1651  136.7537  152.5352 O   0  0  0  0  0  0  0  0  0  0  0  0
  145.2463  136.2400  152.2451 C   0  0  0  0  0  0  0  0  0  0  0  0
  146.3871  136.9386  152.1368 N   0  0  0  0  0  0  0  0  0  0  0  0
  146.5052  138.3778  152.3415 C   0  0  0  0  0  0  0  0  0  0  0  0
  147.2036  138.7033  153.6715 C   0  0  0  0  0  0  0  0  0  0  0  0
  147.0618  140.1388  154.0512 C   0  0  0  0  0  0  0  0  0  0  0  0
  145.9510  140.6495  154.5881 N   0  0  0  0  0  0  0  0  0  0  0  0
  146.0471  142.0246  154.8275 C   0  0  0  0  0  0  0  0  0  0  0  0
  144.8890  142.7570  155.4416 C   0  0  0  0  0  0  0  0  0  0  0  0
  145.2096  143.2766  156.6268 F   0  0  0  0  0  0  0  0  0  0  0  0
  144.4852  143.7585  154.6606 F   0  0  0  0  0  0  0  0  0  0  0  0
  143.8505  141.9431  155.6286 F   0  0  0  0  0  0  0  0  0  0  0  0
  147.2565  142.5523  154.4441 C   0  0  0  0  0  0  0  0  0  0  0  0
  148.3137  141.3422  153.7710 S   0  0  0  0  0  0  0  0  0  0  0  0
  145.3473  134.7297  152.0034 C   0  0  1  0  0  0  0  0  0  0  0  0
  144.6453  134.3291  150.6989 C   0  0  0  0  0  0  0  0  0  0  0  0
  145.3758  133.0606  150.2846 C   0  0  0  0  0  0  0  0  0  0  0  0
  146.8122  133.2994  150.7532 C   0  0  0  0  0  0  0  0  0  0  0  0
  146.7517  134.2916  151.8469 N   0  3  0  0  0  0  0  0  0  0  0  0
  147.2338  136.4412  151.9000 H   0  0  0  0  0  0  0  0  0  0  0  0
  147.0752  138.7951  151.5108 H   0  0  0  0  0  0  0  0  0  0  0  0
  145.5183  138.8429  152.3036 H   0  0  0  0  0  0  0  0  0  0  0  0
  146.7945  138.0910  154.4764 H   0  0  0  0  0  0  0  0  0  0  0  0
  148.2656  138.4639  153.6075 H   0  0  0  0  0  0  0  0  0  0  0  0
  147.5867  143.5780  154.5151 H   0  0  0  0  0  0  0  0  0  0  0  0
  144.9173  134.1821  152.8437 H   0  0  0  0  0  0  0  0  0  0  0  0
  143.5744  134.1690  150.8289 H   0  0  0  0  0  0  0  0  0  0  0  0
  144.7783  135.0914  149.9286 H   0  0  0  0  0  0  0  0  0  0  0  0
  144.9532  132.2067  150.8162 H   0  0  0  0  0  0  0  0  0  0  0  0
  145.3054  132.8571  149.2156 H   0  0  0  0  0  0  0  0  0  0  0  0
  147.2919  132.3775  151.0834 H   0  0  0  0  0  0  0  0  0  0  0  0
  147.4122  133.7180  149.9444 H   0  0  0  0  0  0  0  0  0  0  0  0
  147.3120  135.0927  151.5907 H   0  0  0  0  0  0  0  0  0  0  0  0
  147.0897  133.8989  152.7136 H   0  0  0  0  0  0  0  0  0  0  0  0
  1  2  2  0  0  0  0
  2  3  1  0  0  0  0
  2 15  1  0  0  0  0
  3  4  1  0  0  0  0
  3 20  1  0  0  0  0
  4  5  1  0  0  0  0
  4 21  1  0  0  0  0
  4 22  1  0  0  0  0
  5  6  1  0  0  0  0
  5 23  1  0  0  0  0
  5 24  1  0  0  0  0
  6 14  1  0  0  0  0
  6  7  2  0  0  0  0
  7  8  1  0  0  0  0
  8  9  1  0  0  0  0
  8 13  2  0  0  0  0
  9 10  1  0  0  0  0
  9 11  1  0  0  0  0
  9 12  1  0  0  0  0
 13 14  1  0  0  0  0
 13 25  1  0  0  0  0
 15 19  1  0  0  0  0
 15 16  1  0  0  0  0
 15 26  1  0  0  0  0
 16 17  1  0  0  0  0
 16 27  1  0  0  0  0
 16 28  1  0  0  0  0
 17 18  1  0  0  0  0
 17 29  1  0  0  0  0
 17 30  1  0  0  0  0
 18 19  1  0  0  0  0
 18 31  1  0  0  0  0
 18 32  1  0  0  0  0
 19 33  1  0  0  0  0
 19 34  1  0  0  0  0
M  CHG  1  19   1
M  END
> <s_m_source_file>
AV-unprocessed.smi

> <i_m_source_file_index>
662

> <i_lp_mmshare_version>
43012

> <i_f3d_flags>
0

> <s_epik_input>
W05IXTFbQ0gyXVtDSDJdW0NIMl1bQ0BIXTFDKD1PKVtOSF1bQ0gyXVtDSDJdYzJuYyhDKEYpKEYpRilbY0hdczI=

> <s_epik_cmdline>
J2VwaWtfcHl0aG9uJywgJy1waCcsICc3LjAnLCAnLXRuJywgJzgnLCAnLW1hJywgJzIwMCcsICctbWV0YWxfYmluZGluZycsICctaW1hZScsICc8aW5maWxlLm1hZT4nLCAnLW9tYWUnLCAnPG91dGZpbGUubWFlPic=

> <r_epik_Ionization_Penalty>
0.0382401

> <r_epik_Ionization_Penalty_Charging>
0.0382382

> <r_epik_Ionization_Penalty_Neutral>
1.85239e-06

> <r_epik_State_Penalty>
0.0320549

> <r_epik_Charging_Adjusted_Penalty>
0.0702931

> <i_epik_Tot_Q>
1

> <i_epik_Tot_abs_Q>
1

> <r_epik_Metal_State_Penalty>
0.0320549

> <b_epik_Metal_Only>
0

> <s_lp_Force_Field>
OPLS_2005

> <r_lp_Energy>
5.09297

> <b_lp_Chiralities_Consistent>
1

> <s_lp_Variant>
AV-unprocessed.smi:662-2

> <Gold.Version>
5.8.1

> <Gold.Id.Protein>
6NUR|6NUR_protein|mol2

> <Gold.PLP.Fitness>
41.2777

> <Gold.PLP.PLP>
-30.4198

> <Gold.PLP.part.hbond>
-2.0000

> <Gold.PLP.part.metal>
0.0000

> <Gold.PLP.part.buried>
-2.4187

> <Gold.PLP.part.nonpolar>
-26.2650

> <Gold.PLP.part.repulsive>
0.5586

> <Gold.PLP.ligand.clash>
0.0000

> <Gold.PLP.ligand.torsion>
0.5553

> <Gold.PLP.Chemscore.Hbond>
2.9840

> <Gold.PLP.Chemscore.CHOScore>
0.9904

> <Gold.PLP.Chemscore.Metal>
0.0000

> <Gold.Chemscore.Hbonds>
donor molecule, donor type, donor heavy atom, donor atom, acceptor molecule, acceptor atom, score
      L1  H     3    20       P1  7948  1.00
      L1  H    19    33       P1  7948  2.00
      L1  C    13    25       P1  8028  0.97

> <Gold.PLP.Chemscore.Internal.Correction>
0.0454

> <Gold.Rescore>
     Score         DG    S(hbond)    S(metal)    S(lipo)     H(rot)  DE(clash)    DE(int)     intcor
     13.38     -14.04       1.92        0.00      61.31       1.97       0.10       0.56       ----

> <Gold.Chemscore.Fitness>
13.3775

> <Gold.Chemscore.DG>
-14.0392

> <Gold.Chemscore.ZeroCoef>
-5.4800

> <Gold.Chemscore.Hbond>
1.9246

> <Gold.Chemscore.Metal>
0.0000

> <Gold.Chemscore.Lipo>
61.3120

> <Gold.Chemscore.Internal_Hbond>
0.0000

> <Gold.Chemscore.DEClash>
0.1049

> <Gold.Chemscore.DEInternal>
0.5568

> <Gold.Chemscore.Rot>
1.9697

> <Gold.Chemscore.Internal.Correction>
   9.000000E+99

> <Gold.Chemscore.Hbonds>
donor molecule, donor type, donor heavy atom, donor atom, acceptor molecule, acceptor atom, score
      L1  H     3    20       P1  7948  0.98
      L1  H    19    33       P1  7948  0.79

> <Gold.Chemscore.Hbond.Weighted>
-6.4281

> <Gold.Chemscore.Metal.Weighted>
-0.0000

> <Gold.Chemscore.Lipo.Weighted>
-7.1735

> <Gold.Chemscore.Internal_Hbond.Weighted>
0.0000

> <Gold.Chemscore.DEClash.Weighted>
0.1049

> <Gold.Chemscore.DEInternal.Weighted>
0.5568

> <Gold.Chemscore.Rot.Weighted>
5.0424

> <Gold.Chemscore.Internal.Correction.Weighted>
   9.000000E+99

> <Gold.Protein.RotatedTorsions>
[ 6907 6896 6895 6894 ] final -154.31 input  -60.11 | X-H torsion
[ 7974 7965 7964 7962 ] final  173.39 input  175.53 | X-H torsion
[ 8008 7997 7996 7995 ] final  136.71 input   59.86 | X-H torsion
[ 10167 10162 10161 10158 ] final -169.34 input  -65.29 | X-H torsion
[ 10718 10713 10712 10709 ] final  125.25 input   66.30 | X-H torsion
[ 10763 10752 10751 10750 ] final  -22.21 input  -60.55 | X-H torsion
[ 11005 11000 10999 10996 ] final  -19.64 input  -57.11 | X-H torsion

> <Gold.Protein.ActiveResidues>
 VAL166  LYS551  ARG553  GLY616  TRP617  ASP618  TYR619  PRO620  LYS621  CYS622 
 ASP623  PHE694  ASN695  SER759  ASP760  ASP761  ALA762  ILE779  LEU786  VAL792 
 PHE793  MET794  SER795  GLU796  ALA797  LYS798  CYS799  TRP800  GLU811  SER814 

> <Gold.Protein.RotatedAtoms>
  151.2555  133.4328  159.2613 H   0  0  0  0  0  0  0  0  0  0  0  0  # atno 6907 bound_to 6896
  151.0578  134.9716  159.8255 H   0  0  0  0  0  0  0  0  0  0  0  0  # atno 6908 bound_to 6896
  152.5393  134.2507  159.8950 H   0  0  0  0  0  0  0  0  0  0  0  0  # atno 6909 bound_to 6896
  144.7245  139.9641  143.6435 H   0  0  0  0  0  0  0  0  0  0  0  0  # atno 7974 bound_to 7965
  156.3003  140.2438  156.3790 H   0  0  0  0  0  0  0  0  0  0  0  0  # atno 8008 bound_to 7997
  154.8718  140.0416  157.1749 H   0  0  0  0  0  0  0  0  0  0  0  0  # atno 8009 bound_to 7997
  154.8787  140.2946  155.5442 H   0  0  0  0  0  0  0  0  0  0  0  0  # atno 8010 bound_to 7997
  139.5929  144.1175  152.1655 H   0  0  0  0  0  0  0  0  0  0  0  0  # atno 10167 bound_to 10162
  157.5518  131.1093  150.8689 H   0  0  0  0  0  0  0  0  0  0  0  0  # atno 10718 bound_to 10713
  153.6483  135.6982  153.5218 H   0  0  0  0  0  0  0  0  0  0  0  0  # atno 10763 bound_to 10752
  153.2727  135.4210  155.1002 H   0  0  0  0  0  0  0  0  0  0  0  0  # atno 10764 bound_to 10752
  154.8483  135.3582  154.6027 H   0  0  0  0  0  0  0  0  0  0  0  0  # atno 10765 bound_to 10752
  140.8386  133.7943  155.9836 H   0  0  0  0  0  0  0  0  0  0  0  0  # atno 11005 bound_to 11000
  146.0614  139.3607  143.0579 LP  0  0  0  0  0  0  0  0  0  0  0  0  # atno 17320 bound_to 7965
  145.8087  140.9736  143.0960 LP  0  0  0  0  0  0  0  0  0  0  0  0  # atno 17321 bound_to 7965
  140.0753  144.5745  150.7161 LP  0  0  0  0  0  0  0  0  0  0  0  0  # atno 17342 bound_to 10162
  140.7188  143.2569  151.4348 LP  0  0  0  0  0  0  0  0  0  0  0  0  # atno 17343 bound_to 10162
  156.9212  130.5315  149.5279 LP  0  0  0  0  0  0  0  0  0  0  0  0  # atno 17370 bound_to 10713
  156.0583  130.5641  150.9139 LP  0  0  0  0  0  0  0  0  0  0  0  0  # atno 17371 bound_to 10713
  140.8919  134.2484  157.5089 LP  0  0  0  0  0  0  0  0  0  0  0  0  # atno 17394 bound_to 11000
  139.8703  134.9666  156.4567 LP  0  0  0  0  0  0  0  0  0  0  0  0  # atno 17395 bound_to 11000

$$$$
