AV-unprocessed.smi:1512|AV-procd|sdf|6100|dock9
  -GOLD-   22720 6233D 1   1.00000     0.00000
 Structure written by MMmdl.
 44 46  0  0  0  0  0  0  0  0  3 V2000
  145.3890  137.2166  151.9977 C   0  0  0  0  0  0  0  0  0  0  0  0
  145.6351  135.7951  152.5296 C   0  0  2  0  0  0  0  0  0  0  0  0
  146.8744  135.8067  153.3058 N   0  0  0  0  0  0  0  0  0  0  0  0
  146.9747  135.6538  154.6356 C   0  0  0  0  0  0  0  0  0  0  0  0
  146.0063  135.4591  155.3716 O   0  0  0  0  0  0  0  0  0  0  0  0
  148.3980  135.7064  155.2089 C   0  0  0  0  0  0  0  0  0  0  0  0
  149.0209  137.0368  155.0979 N   0  0  0  0  0  0  0  0  0  0  0  0
  148.1571  138.1477  155.1192 C   0  0  0  0  0  0  0  0  0  0  0  0
  148.6154  139.4036  155.0213 C   0  0  0  0  0  0  0  0  0  0  0  0
  150.0376  139.6028  154.8847 C   0  0  0  0  0  0  0  0  0  0  0  0
  150.8874  138.5504  154.8557 C   0  0  0  0  0  0  0  0  0  0  0  0
  152.2992  138.8200  154.7062 N   0  3  0  0  0  0  0  0  0  0  0  0
  153.0538  137.8933  154.4272 O   0  0  0  0  0  0  0  0  0  0  0  0
  152.6936  139.9732  154.8510 O   0  5  0  0  0  0  0  0  0  0  0  0
  150.3787  137.1680  154.9755 C   0  0  0  0  0  0  0  0  0  0  0  0
  151.1173  136.1811  154.9759 O   0  0  0  0  0  0  0  0  0  0  0  0
  145.7198  134.7468  151.3915 C   0  0  2  0  0  0  0  0  0  0  0  0
  144.3976  134.5880  150.6011 C   0  0  0  0  0  0  0  0  0  0  0  0
  144.1176  133.0767  150.6737 C   0  0  1  0  0  0  0  0  0  0  0  0
  145.1501  132.3193  149.8198 C   0  0  0  0  0  0  0  0  0  0  0  0
  146.4367  132.4473  150.6557 C   0  0  0  0  0  0  0  0  0  0  0  0
  145.9775  133.2907  151.8609 C   0  0  2  0  0  0  0  0  0  0  0  0
  144.5704  132.7494  152.0901 C   0  0  0  0  0  0  0  0  0  0  0  0
  144.4492  137.2853  151.4503 H   0  0  0  0  0  0  0  0  0  0  0  0
  146.1874  137.5333  151.3259 H   0  0  0  0  0  0  0  0  0  0  0  0
  145.3390  137.9361  152.8157 H   0  0  0  0  0  0  0  0  0  0  0  0
  144.7945  135.5384  153.1759 H   0  0  0  0  0  0  0  0  0  0  0  0
  147.7279  135.9526  152.7864 H   0  0  0  0  0  0  0  0  0  0  0  0
  148.3539  135.3887  156.2517 H   0  0  0  0  0  0  0  0  0  0  0  0
  149.0180  134.9584  154.7107 H   0  0  0  0  0  0  0  0  0  0  0  0
  147.1066  137.9140  155.2139 H   0  0  0  0  0  0  0  0  0  0  0  0
  147.9368  140.2441  155.0362 H   0  0  0  0  0  0  0  0  0  0  0  0
  150.4144  140.6111  154.7925 H   0  0  0  0  0  0  0  0  0  0  0  0
  146.5187  135.0516  150.7135 H   0  0  0  0  0  0  0  0  0  0  0  0
  143.5798  135.1333  151.0737 H   0  0  0  0  0  0  0  0  0  0  0  0
  144.4824  134.9467  149.5747 H   0  0  0  0  0  0  0  0  0  0  0  0
  143.0842  132.8126  150.4474 H   0  0  0  0  0  0  0  0  0  0  0  0
  144.8691  131.2714  149.7071 H   0  0  0  0  0  0  0  0  0  0  0  0
  145.2558  132.7479  148.8225 H   0  0  0  0  0  0  0  0  0  0  0  0
  146.7792  131.4644  150.9817 H   0  0  0  0  0  0  0  0  0  0  0  0
  147.2508  132.9160  150.1019 H   0  0  0  0  0  0  0  0  0  0  0  0
  146.6458  133.1957  152.7162 H   0  0  0  0  0  0  0  0  0  0  0  0
  144.0158  133.2880  152.8601 H   0  0  0  0  0  0  0  0  0  0  0  0
  144.5482  131.6819  152.3160 H   0  0  0  0  0  0  0  0  0  0  0  0
  1  2  1  0  0  0  0
  1 24  1  0  0  0  0
  1 25  1  0  0  0  0
  1 26  1  0  0  0  0
  2  3  1  0  0  0  0
  2 17  1  0  0  0  0
  2 27  1  0  0  0  0
  3  4  1  0  0  0  0
  3 28  1  0  0  0  0
  4  5  2  0  0  0  0
  4  6  1  0  0  0  0
  6  7  1  0  0  0  0
  6 29  1  0  0  0  0
  6 30  1  0  0  0  0
  7 15  1  0  0  0  0
  7  8  1  0  0  0  0
  8  9  2  0  0  0  0
  8 31  1  0  0  0  0
  9 10  1  0  0  0  0
  9 32  1  0  0  0  0
 10 11  2  0  0  0  0
 10 33  1  0  0  0  0
 11 12  1  0  0  0  0
 11 15  1  0  0  0  0
 12 13  2  0  0  0  0
 12 14  1  0  0  0  0
 15 16  2  0  0  0  0
 17 22  1  0  0  0  0
 17 18  1  0  0  0  0
 17 34  1  0  0  0  0
 18 19  1  0  0  0  0
 18 35  1  0  0  0  0
 18 36  1  0  0  0  0
 19 23  1  0  0  0  0
 19 20  1  0  0  0  0
 19 37  1  0  0  0  0
 20 21  1  0  0  0  0
 20 38  1  0  0  0  0
 20 39  1  0  0  0  0
 21 22  1  0  0  0  0
 21 40  1  0  0  0  0
 21 41  1  0  0  0  0
 22 23  1  0  0  0  0
 22 42  1  0  0  0  0
 23 43  1  0  0  0  0
 23 44  1  0  0  0  0
M  CHG  1  12   1
M  CHG  1  14  -1
M  END
> <s_m_source_file>
AV-unprocessed.smi

> <i_m_source_file_index>
1512

> <i_lp_mmshare_version>
43012

> <i_f3d_flags>
0

> <s_epik_input>
W0NIMl0xW0NIMl1bQ0BIXShbQ0gyXTIpW0NAQEhdKFtDSDJdW0NAQEhdMTIpW0NASF0oW0NIM10pW05IXUMoPU8pW0NIMl1uM1tjSF1bY0hdW2NIXWMoW04rXSg9TylbTy1dKWMzPU8=

> <s_epik_cmdline>
J2VwaWtfcHl0aG9uJywgJy1waCcsICc3LjAnLCAnLXRuJywgJzgnLCAnLW1hJywgJzIwMCcsICctbWV0YWxfYmluZGluZycsICctaW1hZScsICc8aW5maWxlLm1hZT4nLCAnLW9tYWUnLCAnPG91dGZpbGUubWFlPic=

> <r_lp_tautomer_probability>
1

> <r_epik_Ionization_Penalty>
2.17697e-08

> <r_epik_Ionization_Penalty_Charging>
1.42735e-10

> <r_epik_Ionization_Penalty_Neutral>
2.16269e-08

> <r_epik_State_Penalty>
-0

> <r_epik_Charging_Adjusted_Penalty>
1.42735e-10

> <i_epik_Tot_Q>
0

> <i_epik_Tot_abs_Q>
2

> <r_epik_Metal_State_Penalty>
-0

> <b_epik_Metal_Only>
0

> <s_lp_Force_Field>
OPLS_2005

> <r_lp_Energy>
64.3974

> <b_lp_Chiralities_Consistent>
1

> <s_lp_Variant>
AV-unprocessed.smi:1512-1

> <Gold.Version>
5.8.1

> <Gold.Id.Protein>
6NUR|6NUR_protein|mol2

> <Gold.PLP.Fitness>
45.9989

> <Gold.PLP.PLP>
-37.0969

> <Gold.PLP.part.hbond>
-4.8674

> <Gold.PLP.part.metal>
0.0000

> <Gold.PLP.part.buried>
-2.4979

> <Gold.PLP.part.nonpolar>
-31.4216

> <Gold.PLP.part.repulsive>
0.2526

> <Gold.PLP.ligand.clash>
0.0000

> <Gold.PLP.ligand.torsion>
0.5617

> <Gold.PLP.Chemscore.Hbond>
3.3295

> <Gold.PLP.Chemscore.CHOScore>
0.0000

> <Gold.PLP.Chemscore.Metal>
0.0000

> <Gold.Chemscore.Hbonds>
donor molecule, donor type, donor heavy atom, donor atom, acceptor molecule, acceptor atom, score
      L1  H     3    28       P1  7948  1.00
      P1  H  7989  7998       L1    14  0.46
      P1  H  7997  8009       L1    14  0.86
      P1  H 10752 10764       L1    16  1.00

> <Gold.PLP.Chemscore.Internal.Correction>
0.0370

> <Gold.Rescore>
     Score         DG    S(hbond)    S(metal)    S(lipo)     H(rot)  DE(clash)    DE(int)     intcor
     17.17     -20.56       2.89        0.00      84.54       1.75       1.16       2.22       ----

> <Gold.Chemscore.Fitness>
17.1740

> <Gold.Chemscore.DG>
-20.5562

> <Gold.Chemscore.ZeroCoef>
-5.4800

> <Gold.Chemscore.Hbond>
2.8918

> <Gold.Chemscore.Metal>
0.0000

> <Gold.Chemscore.Lipo>
84.5392

> <Gold.Chemscore.Internal_Hbond>
0.0000

> <Gold.Chemscore.DEClash>
1.1601

> <Gold.Chemscore.DEInternal>
2.2221

> <Gold.Chemscore.Rot>
1.7474

> <Gold.Chemscore.Internal.Correction>
   9.000000E+99

> <Gold.Chemscore.Hbonds>
donor molecule, donor type, donor heavy atom, donor atom, acceptor molecule, acceptor atom, score
      L1  H     3    28       P1  7948  0.95
      P1  H  7989  7998       L1    14  0.14
      P1  H  7997  8009       L1    14  0.75
      P1  H 10752 10764       L1    16  0.99

> <Gold.Chemscore.Hbond.Weighted>
-9.6584

> <Gold.Chemscore.Metal.Weighted>
-0.0000

> <Gold.Chemscore.Lipo.Weighted>
-9.8911

> <Gold.Chemscore.Internal_Hbond.Weighted>
0.0000

> <Gold.Chemscore.DEClash.Weighted>
1.1601

> <Gold.Chemscore.DEInternal.Weighted>
2.2221

> <Gold.Chemscore.Rot.Weighted>
4.4733

> <Gold.Chemscore.Internal.Correction.Weighted>
   9.000000E+99

> <Gold.Protein.RotatedTorsions>
[ 6907 6896 6895 6894 ] final  108.43 input  -60.11 | X-H torsion
[ 7974 7965 7964 7962 ] final   66.87 input  175.53 | X-H torsion
[ 8008 7997 7996 7995 ] final -148.35 input   59.86 | X-H torsion
[ 10167 10162 10161 10158 ] final  -63.71 input  -65.29 | X-H torsion
[ 10718 10713 10712 10709 ] final  -79.80 input   66.30 | X-H torsion
[ 10763 10752 10751 10750 ] final  -62.45 input  -60.55 | X-H torsion
[ 11005 11000 10999 10996 ] final  129.82 input  -57.11 | X-H torsion

> <Gold.Protein.ActiveResidues>
 VAL166  LYS551  ARG553  GLY616  TRP617  ASP618  TYR619  PRO620  LYS621  CYS622 
 ASP623  PHE694  ASN695  SER759  ASP760  ASP761  ALA762  ILE779  LEU786  VAL792 
 PHE793  MET794  SER795  GLU796  ALA797  LYS798  CYS799  TRP800  GLU811  SER814 

> <Gold.Protein.RotatedAtoms>
  152.5112  133.9090  159.7477 H   0  0  0  0  0  0  0  0  0  0  0  0  # atno 6907 bound_to 6896
  150.9488  133.6565  159.2783 H   0  0  0  0  0  0  0  0  0  0  0  0  # atno 6908 bound_to 6896
  151.3850  135.0951  159.9561 H   0  0  0  0  0  0  0  0  0  0  0  0  # atno 6909 bound_to 6896
  145.8214  139.3087  143.1041 H   0  0  0  0  0  0  0  0  0  0  0  0  # atno 7974 bound_to 7965
  155.5901  140.0652  157.2761 H   0  0  0  0  0  0  0  0  0  0  0  0  # atno 8008 bound_to 7997
  154.4307  140.1836  156.1113 H   0  0  0  0  0  0  0  0  0  0  0  0  # atno 8009 bound_to 7997
  156.0239  140.3314  155.7071 H   0  0  0  0  0  0  0  0  0  0  0  0  # atno 8010 bound_to 7997
  140.5852  143.2333  151.6258 H   0  0  0  0  0  0  0  0  0  0  0  0  # atno 10167 bound_to 10162
  156.0084  130.4556  150.3704 H   0  0  0  0  0  0  0  0  0  0  0  0  # atno 10718 bound_to 10713
  154.3001  135.6236  153.5421 H   0  0  0  0  0  0  0  0  0  0  0  0  # atno 10763 bound_to 10752
  152.9841  135.5676  154.5294 H   0  0  0  0  0  0  0  0  0  0  0  0  # atno 10764 bound_to 10752
  154.4922  135.2868  155.1464 H   0  0  0  0  0  0  0  0  0  0  0  0  # atno 10765 bound_to 10752
  139.9637  134.9596  156.9204 H   0  0  0  0  0  0  0  0  0  0  0  0  # atno 11005 bound_to 11000
  145.9671  140.8790  143.0181 LP  0  0  0  0  0  0  0  0  0  0  0  0  # atno 17320 bound_to 7965
  144.6747  140.1893  143.7398 LP  0  0  0  0  0  0  0  0  0  0  0  0  # atno 17321 bound_to 7965
  139.5193  144.3257  152.0871 LP  0  0  0  0  0  0  0  0  0  0  0  0  # atno 17342 bound_to 10162
  140.2413  144.4266  150.6259 LP  0  0  0  0  0  0  0  0  0  0  0  0  # atno 17343 bound_to 10162
  157.1788  131.0387  151.2758 LP  0  0  0  0  0  0  0  0  0  0  0  0  # atno 17370 bound_to 10713
  157.4164  130.7413  149.6878 LP  0  0  0  0  0  0  0  0  0  0  0  0  # atno 17371 bound_to 10713
  140.5444  134.0688  155.7350 LP  0  0  0  0  0  0  0  0  0  0  0  0  # atno 17394 bound_to 11000
  141.1315  133.9293  157.2524 LP  0  0  0  0  0  0  0  0  0  0  0  0  # atno 17395 bound_to 11000

$$$$
