AV-unprocessed.smi:2198|AV-procd|sdf|8921|dock6
  -GOLD-   2272012133D 1   1.00000     0.00000
 Structure written by MMmdl.
 42 43  0  0  0  0  0  0  0  0  2 V2000
  150.5907  134.2566  154.3644 C   0  0  0  0  0  0  0  0  0  0  0  0
  150.5120  135.7623  154.5006 C   0  0  0  0  0  0  0  0  0  0  0  0
  149.4309  136.2963  154.9255 N   0  0  0  0  0  0  0  0  0  0  0  0
  149.3558  137.6931  155.0595 C   0  0  0  0  0  0  0  0  0  0  0  0
  148.0353  138.2376  155.5760 C   0  0  0  0  0  0  0  0  0  0  0  0
  150.4154  138.4913  154.7414 C   0  0  0  0  0  0  0  0  0  0  0  0
  150.3870  140.0131  154.8777 C   0  0  0  0  0  0  0  0  0  0  0  0
  151.4483  140.6078  155.8046 C   0  0  0  0  0  0  0  0  0  0  0  0
  152.6388  140.3530  155.6237 O   0  0  0  0  0  0  0  0  0  0  0  0
  151.0040  141.4006  156.7921 N   0  0  0  0  0  0  0  0  0  0  0  0
  151.8427  142.0770  157.7760 C   0  0  2  0  0  0  0  0  0  0  0  0
  152.3993  141.0686  158.8012 C   0  0  0  0  0  0  0  0  0  0  0  0
  153.2225  141.7756  159.8882 C   0  0  0  0  0  0  0  0  0  0  0  0
  152.4020  142.8731  160.5836 C   0  0  0  0  0  0  0  0  0  0  0  0
  151.8478  143.8925  159.5699 C   0  0  2  0  0  0  0  0  0  0  0  0
  151.0255  144.9854  160.2674 C   0  0  0  0  0  0  0  0  0  0  0  0
  151.0259  143.1776  158.4793 C   0  0  0  0  0  0  0  0  0  0  0  0
  151.6406  137.8364  154.2483 C   0  0  0  0  0  0  0  0  0  0  0  0
  152.6220  138.5088  153.9346 O   0  0  0  0  0  0  0  0  0  0  0  0
  151.6369  136.4760  154.1537 N   0  5  0  0  0  0  0  0  0  0  0  0
  149.6077  133.7990  154.4845 H   0  0  0  0  0  0  0  0  0  0  0  0
  151.2562  133.8449  155.1236 H   0  0  0  0  0  0  0  0  0  0  0  0
  150.9748  133.9826  153.3813 H   0  0  0  0  0  0  0  0  0  0  0  0
  148.1843  138.8049  156.4947 H   0  0  0  0  0  0  0  0  0  0  0  0
  147.3340  137.4310  155.7933 H   0  0  0  0  0  0  0  0  0  0  0  0
  147.5743  138.8890  154.8338 H   0  0  0  0  0  0  0  0  0  0  0  0
  150.4914  140.4500  153.8843 H   0  0  0  0  0  0  0  0  0  0  0  0
  149.4092  140.3532  155.2193 H   0  0  0  0  0  0  0  0  0  0  0  0
  150.0084  141.5539  156.8605 H   0  0  0  0  0  0  0  0  0  0  0  0
  152.6784  142.5543  157.2602 H   0  0  0  0  0  0  0  0  0  0  0  0
  151.5775  140.5230  159.2673 H   0  0  0  0  0  0  0  0  0  0  0  0
  153.0200  140.3244  158.3009 H   0  0  0  0  0  0  0  0  0  0  0  0
  153.5690  141.0486  160.6234 H   0  0  0  0  0  0  0  0  0  0  0  0
  154.1164  142.2137  159.4424 H   0  0  0  0  0  0  0  0  0  0  0  0
  151.5794  142.4160  161.1355 H   0  0  0  0  0  0  0  0  0  0  0  0
  153.0241  143.3804  161.3218 H   0  0  0  0  0  0  0  0  0  0  0  0
  152.6956  144.3794  159.0854 H   0  0  0  0  0  0  0  0  0  0  0  0
  150.1583  144.5645  160.7774 H   0  0  0  0  0  0  0  0  0  0  0  0
  150.6648  145.7240  159.5511 H   0  0  0  0  0  0  0  0  0  0  0  0
  151.6247  145.5131  161.0100 H   0  0  0  0  0  0  0  0  0  0  0  0
  150.6804  143.9043  157.7427 H   0  0  0  0  0  0  0  0  0  0  0  0
  150.1300  142.7420  158.9251 H   0  0  0  0  0  0  0  0  0  0  0  0
  1  2  1  0  0  0  0
  1 21  1  0  0  0  0
  1 22  1  0  0  0  0
  1 23  1  0  0  0  0
  2 20  1  0  0  0  0
  2  3  2  0  0  0  0
  3  4  1  0  0  0  0
  4  5  1  0  0  0  0
  4  6  2  0  0  0  0
  5 24  1  0  0  0  0
  5 25  1  0  0  0  0
  5 26  1  0  0  0  0
  6  7  1  0  0  0  0
  6 18  1  0  0  0  0
  7  8  1  0  0  0  0
  7 27  1  0  0  0  0
  7 28  1  0  0  0  0
  8  9  2  0  0  0  0
  8 10  1  0  0  0  0
 10 11  1  0  0  0  0
 10 29  1  0  0  0  0
 11 17  1  0  0  0  0
 11 12  1  0  0  0  0
 11 30  1  0  0  0  0
 12 13  1  0  0  0  0
 12 31  1  0  0  0  0
 12 32  1  0  0  0  0
 13 14  1  0  0  0  0
 13 33  1  0  0  0  0
 13 34  1  0  0  0  0
 14 15  1  0  0  0  0
 14 35  1  0  0  0  0
 14 36  1  0  0  0  0
 15 16  1  0  0  0  0
 15 17  1  0  0  0  0
 15 37  1  0  0  0  0
 16 38  1  0  0  0  0
 16 39  1  0  0  0  0
 16 40  1  0  0  0  0
 17 41  1  0  0  0  0
 17 42  1  0  0  0  0
 18 19  2  0  0  0  0
 18 20  1  0  0  0  0
M  CHG  1  20  -1
M  END
> <s_m_source_file>
AV-unprocessed.smi

> <i_m_source_file_index>
2198

> <i_lp_mmshare_version>
43012

> <i_f3d_flags>
0

> <s_epik_input>
W0NIM11jMW5jKFtDSDNdKWMoYyg9TylbbkhdMSlbQ0gyXUMoPU8pW05IXVtDQEBIXTJbQ0gyXVtDSDJdW0NIMl1bQ0BASF0oW0NIM10pW0NIMl0y

> <s_epik_cmdline>
J2VwaWtfcHl0aG9uJywgJy1waCcsICc3LjAnLCAnLXRuJywgJzgnLCAnLW1hJywgJzIwMCcsICctbWV0YWxfYmluZGluZycsICctaW1hZScsICc8aW5maWxlLm1hZT4nLCAnLW9tYWUnLCAnPG91dGZpbGUubWFlPic=

> <r_lp_tautomer_probability>
0.839158

> <r_epik_Ionization_Penalty>
6.67193

> <r_epik_Ionization_Penalty_Charging>
7.66837e-08

> <r_epik_Ionization_Penalty_Neutral>
6.67193

> <r_epik_State_Penalty>
4.51643

> <r_epik_Charging_Adjusted_Penalty>
4.51643

> <i_epik_Tot_Q>
-1

> <i_epik_Tot_abs_Q>
1

> <r_epik_Metal_State_Penalty>
0.851582

> <b_epik_Metal_Only>
1

> <s_lp_Force_Field>
OPLS_2005

> <r_lp_Energy>
13.6631

> <b_lp_Chiralities_Consistent>
1

> <s_lp_Variant>
AV-unprocessed.smi:2198-11

> <Gold.Version>
5.8.1

> <Gold.Id.Protein>
6NUR|6NUR_protein|mol2

> <Gold.PLP.Fitness>
47.5597

> <Gold.PLP.PLP>
-38.9674

> <Gold.PLP.part.hbond>
-2.6964

> <Gold.PLP.part.metal>
0.0000

> <Gold.PLP.part.buried>
-4.7171

> <Gold.PLP.part.nonpolar>
-31.8878

> <Gold.PLP.part.repulsive>
0.4567

> <Gold.PLP.ligand.clash>
0.0000

> <Gold.PLP.ligand.torsion>
0.2056

> <Gold.PLP.Chemscore.Hbond>
3.0000

> <Gold.PLP.Chemscore.CHOScore>
0.0000

> <Gold.PLP.Chemscore.Metal>
0.0000

> <Gold.Chemscore.Hbonds>
donor molecule, donor type, donor heavy atom, donor atom, acceptor molecule, acceptor atom, score
      P1  H  7997  8009       L1     9  1.00
      P1  H 10752 10763       L1    20  2.00

> <Gold.PLP.Chemscore.Internal.Correction>
0.0036

> <Gold.Rescore>
     Score         DG    S(hbond)    S(metal)    S(lipo)     H(rot)  DE(clash)    DE(int)     intcor
     15.36     -18.35       1.88        0.00      87.99       1.45       1.33       1.66       ----

> <Gold.Chemscore.Fitness>
15.3587

> <Gold.Chemscore.DG>
-18.3473

> <Gold.Chemscore.ZeroCoef>
-5.4800

> <Gold.Chemscore.Hbond>
1.8778

> <Gold.Chemscore.Metal>
0.0000

> <Gold.Chemscore.Lipo>
87.9884

> <Gold.Chemscore.Internal_Hbond>
0.0000

> <Gold.Chemscore.DEClash>
1.3294

> <Gold.Chemscore.DEInternal>
1.6592

> <Gold.Chemscore.Rot>
1.4450

> <Gold.Chemscore.Internal.Correction>
   9.000000E+99

> <Gold.Chemscore.Hbonds>
donor molecule, donor type, donor heavy atom, donor atom, acceptor molecule, acceptor atom, score
      P1  H  7997  8009       L1     9  0.98
      P1  H 10752 10763       L1    20  0.74

> <Gold.Chemscore.Hbond.Weighted>
-6.2718

> <Gold.Chemscore.Metal.Weighted>
-0.0000

> <Gold.Chemscore.Lipo.Weighted>
-10.2946

> <Gold.Chemscore.Internal_Hbond.Weighted>
0.0000

> <Gold.Chemscore.DEClash.Weighted>
1.3294

> <Gold.Chemscore.DEInternal.Weighted>
1.6592

> <Gold.Chemscore.Rot.Weighted>
3.6992

> <Gold.Chemscore.Internal.Correction.Weighted>
   9.000000E+99

> <Gold.Protein.RotatedTorsions>
[ 6907 6896 6895 6894 ] final  -66.13 input  -60.11 | X-H torsion
[ 7974 7965 7964 7962 ] final   73.37 input  175.53 | X-H torsion
[ 8008 7997 7996 7995 ] final -152.11 input   59.86 | X-H torsion
[ 10167 10162 10161 10158 ] final  112.70 input  -65.29 | X-H torsion
[ 10718 10713 10712 10709 ] final  -11.51 input   66.30 | X-H torsion
[ 10763 10752 10751 10750 ] final   47.59 input  -60.55 | X-H torsion
[ 11005 11000 10999 10996 ] final -140.90 input  -57.11 | X-H torsion

> <Gold.Protein.ActiveResidues>
 VAL166  LYS551  ARG553  GLY616  TRP617  ASP618  TYR619  PRO620  LYS621  CYS622 
 ASP623  PHE694  ASN695  SER759  ASP760  ASP761  ALA762  ILE779  LEU786  VAL792 
 PHE793  MET794  SER795  GLU796  ALA797  LYS798  CYS799  TRP800  GLU811  SER814 

> <Gold.Protein.RotatedAtoms>
  150.7483  134.6065  159.6063 H   0  0  0  0  0  0  0  0  0  0  0  0  # atno 6907 bound_to 6896
  152.3411  134.7130  160.0272 H   0  0  0  0  0  0  0  0  0  0  0  0  # atno 6908 bound_to 6896
  151.7582  133.3296  159.3447 H   0  0  0  0  0  0  0  0  0  0  0  0  # atno 6909 bound_to 6896
  145.7418  139.2724  143.1482 H   0  0  0  0  0  0  0  0  0  0  0  0  # atno 7974 bound_to 7965
  155.6499  140.0711  157.2590 H   0  0  0  0  0  0  0  0  0  0  0  0  # atno 8008 bound_to 7997
  154.4165  140.1735  156.1713 H   0  0  0  0  0  0  0  0  0  0  0  0  # atno 8009 bound_to 7997
  155.9785  140.3356  155.6644 H   0  0  0  0  0  0  0  0  0  0  0  0  # atno 8010 bound_to 7997
  139.6516  144.7128  151.2037 H   0  0  0  0  0  0  0  0  0  0  0  0  # atno 10167 bound_to 10162
  156.6579  130.4973  149.6040 H   0  0  0  0  0  0  0  0  0  0  0  0  # atno 10718 bound_to 10713
  152.9798  135.5971  154.3787 H   0  0  0  0  0  0  0  0  0  0  0  0  # atno 10763 bound_to 10752
  154.3454  135.2767  155.2402 H   0  0  0  0  0  0  0  0  0  0  0  0  # atno 10764 bound_to 10752
  154.4466  135.6000  153.6219 H   0  0  0  0  0  0  0  0  0  0  0  0  # atno 10765 bound_to 10752
  140.8377  134.2440  157.4826 H   0  0  0  0  0  0  0  0  0  0  0  0  # atno 11005 bound_to 11000
  146.0441  140.8136  142.9814 LP  0  0  0  0  0  0  0  0  0  0  0  0  # atno 17320 bound_to 7965
  144.6869  140.2954  143.7271 LP  0  0  0  0  0  0  0  0  0  0  0  0  # atno 17321 bound_to 7965
  140.7540  143.6141  150.8577 LP  0  0  0  0  0  0  0  0  0  0  0  0  # atno 17342 bound_to 10162
  139.9790  143.5973  152.2949 LP  0  0  0  0  0  0  0  0  0  0  0  0  # atno 17343 bound_to 10162
  156.2033  130.6633  151.1191 LP  0  0  0  0  0  0  0  0  0  0  0  0  # atno 17370 bound_to 10713
  157.7119  131.0730  150.6469 LP  0  0  0  0  0  0  0  0  0  0  0  0  # atno 17371 bound_to 10713
  139.8704  134.9619  156.4412 LP  0  0  0  0  0  0  0  0  0  0  0  0  # atno 17394 bound_to 11000
  140.8929  133.7835  155.9592 LP  0  0  0  0  0  0  0  0  0  0  0  0  # atno 17395 bound_to 11000

$$$$
