AV-unprocessed.smi:876|AV-procd|sdf|4026|dock8
  -GOLD-   22720 1513D 1   1.00000     0.00000
 Structure written by MMmdl.
 40 41  0  0  0  0  0  0  0  0  1 V2000
  149.9688  122.8168  151.3409 C   0  0  0  0  0  0  0  0  0  0  0  0
  149.1092  123.5937  152.2256 N   0  0  0  0  0  0  0  0  0  0  0  0
  148.6034  122.9964  153.4575 C   0  0  0  0  0  0  0  0  0  0  0  0
  148.7810  124.9311  151.9055 C   0  0  0  0  0  0  0  0  0  0  0  0
  149.2177  125.5321  150.6987 C   0  0  0  0  0  0  0  0  0  0  0  0
  148.8666  126.8680  150.4244 C   0  0  0  0  0  0  0  0  0  0  0  0
  148.0770  127.5764  151.3595 C   0  0  0  0  0  0  0  0  0  0  0  0
  147.6687  128.9304  151.2128 N   0  0  0  0  0  0  0  0  0  0  0  0
  146.5324  129.5195  151.6242 C   0  0  0  0  0  0  0  0  0  0  0  0
  145.6194  128.9650  152.2354 O   0  0  0  0  0  0  0  0  0  0  0  0
  146.5170  130.8194  151.2973 N   0  0  0  0  0  0  0  0  0  0  0  0
  145.4360  131.7459  151.6162 C   0  0  1  0  0  0  0  0  0  0  0  0
  145.8388  133.1591  151.2951 C   0  0  0  0  0  0  0  0  0  0  0  0
  144.9752  133.7682  150.4858 C   0  0  0  0  0  0  0  0  0  0  0  0
  143.8192  132.8843  150.0927 C   0  0  1  0  0  0  0  0  0  0  0  0
  143.6199  132.7959  148.5696 C   0  0  0  0  0  0  0  0  0  0  0  0
  143.5967  134.0862  147.9953 O   0  0  0  0  0  0  0  0  0  0  0  0
  144.1724  131.5224  150.7437 C   0  0  0  0  0  0  0  0  0  0  0  0
  147.6989  126.8992  152.5352 C   0  0  0  0  0  0  0  0  0  0  0  0
  148.0338  125.6201  152.8023 N   0  0  0  0  0  0  0  0  0  0  0  0
  145.1914  131.6936  152.6783 H   0  0  0  0  0  0  0  0  0  0  0  0
  142.9184  133.2867  150.5585 H   0  0  0  0  0  0  0  0  0  0  0  0
  150.9508  123.2826  151.2539 H   0  0  0  0  0  0  0  0  0  0  0  0
  149.5278  122.7415  150.3464 H   0  0  0  0  0  0  0  0  0  0  0  0
  150.1134  121.8040  151.7168 H   0  0  0  0  0  0  0  0  0  0  0  0
  147.5132  122.9785  153.4558 H   0  0  0  0  0  0  0  0  0  0  0  0
  148.9393  123.5655  154.3249 H   0  0  0  0  0  0  0  0  0  0  0  0
  148.9538  121.9711  153.5761 H   0  0  0  0  0  0  0  0  0  0  0  0
  149.8201  124.9984  149.9793 H   0  0  0  0  0  0  0  0  0  0  0  0
  149.2222  127.3189  149.5117 H   0  0  0  0  0  0  0  0  0  0  0  0
  148.3490  129.5392  150.7819 H   0  0  0  0  0  0  0  0  0  0  0  0
  147.3088  131.1968  150.7978 H   0  0  0  0  0  0  0  0  0  0  0  0
  146.7292  133.6120  151.7060 H   0  0  0  0  0  0  0  0  0  0  0  0
  145.0616  134.7887  150.1423 H   0  0  0  0  0  0  0  0  0  0  0  0
  144.4147  132.2103  148.1061 H   0  0  0  0  0  0  0  0  0  0  0  0
  142.6767  132.2993  148.3407 H   0  0  0  0  0  0  0  0  0  0  0  0
  144.4242  134.2388  147.5652 H   0  0  0  0  0  0  0  0  0  0  0  0
  144.3613  130.7717  149.9745 H   0  0  0  0  0  0  0  0  0  0  0  0
  143.3434  131.1485  151.3457 H   0  0  0  0  0  0  0  0  0  0  0  0
  147.1047  127.3972  153.2875 H   0  0  0  0  0  0  0  0  0  0  0  0
  1  2  1  0  0  0  0
  1 23  1  0  0  0  0
  1 24  1  0  0  0  0
  1 25  1  0  0  0  0
  2  3  1  0  0  0  0
  2  4  1  0  0  0  0
  3 26  1  0  0  0  0
  3 27  1  0  0  0  0
  3 28  1  0  0  0  0
  4 20  1  0  0  0  0
  4  5  2  0  0  0  0
  5  6  1  0  0  0  0
  5 29  1  0  0  0  0
  6  7  2  0  0  0  0
  6 30  1  0  0  0  0
  7  8  1  0  0  0  0
  7 19  1  0  0  0  0
  8  9  1  0  0  0  0
  8 31  1  0  0  0  0
  9 10  2  0  0  0  0
  9 11  1  0  0  0  0
 11 12  1  0  0  0  0
 11 32  1  0  0  0  0
 12 21  1  0  0  0  0
 12 18  1  0  0  0  0
 12 13  1  0  0  0  0
 13 14  2  0  0  0  0
 13 33  1  0  0  0  0
 14 15  1  0  0  0  0
 14 34  1  0  0  0  0
 15 22  1  0  0  0  0
 15 16  1  0  0  0  0
 15 18  1  0  0  0  0
 16 17  1  0  0  0  0
 16 35  1  0  0  0  0
 16 36  1  0  0  0  0
 17 37  1  0  0  0  0
 18 38  1  0  0  0  0
 18 39  1  0  0  0  0
 19 20  2  0  0  0  0
 19 40  1  0  0  0  0
M  END
> <s_m_source_file>
AV-unprocessed.smi

> <i_m_source_file_index>
876

> <i_lp_mmshare_version>
43012

> <i_f3d_flags>
0

> <s_epik_input>
W0NIM11OKFtDSDNdKWMxW2NIXVtjSF1jKFtjSF1uMSlbTkhdQyg9TylbTkhdW0NAQEhdMltDSF09W0NIXVtDQEBIXShbQ0gyXTIpW0NIMl1bT0hd

> <s_epik_cmdline>
J2VwaWtfcHl0aG9uJywgJy1waCcsICc3LjAnLCAnLXRuJywgJzgnLCAnLW1hJywgJzIwMCcsICctbWV0YWxfYmluZGluZycsICctaW1hZScsICc8aW5maWxlLm1hZT4nLCAnLW9tYWUnLCAnPG91dGZpbGUubWFlPic=

> <r_lp_tautomer_probability>
1

> <r_epik_Ionization_Penalty>
0.617998

> <r_epik_Ionization_Penalty_Charging>
0

> <r_epik_Ionization_Penalty_Neutral>
0.617998

> <r_epik_State_Penalty>
0.632637

> <r_epik_Charging_Adjusted_Penalty>
0.632637

> <i_epik_Tot_Q>
0

> <i_epik_Tot_abs_Q>
0

> <r_epik_Metal_State_Penalty>
0.305596

> <b_epik_Metal_Only>
0

> <s_lp_Force_Field>
OPLS_2005

> <r_lp_Energy>
21.5566

> <b_lp_Chiralities_Consistent>
1

> <s_lp_Variant>
AV-unprocessed.smi:876-8

> <Gold.Version>
5.8.1

> <Gold.Id.Protein>
6NUR|6NUR_protein|mol2

> <Gold.PLP.Fitness>
53.6153

> <Gold.PLP.PLP>
-42.8691

> <Gold.PLP.part.hbond>
-6.3667

> <Gold.PLP.part.metal>
0.0000

> <Gold.PLP.part.buried>
-4.7501

> <Gold.PLP.part.nonpolar>
-32.4457

> <Gold.PLP.part.repulsive>
0.3045

> <Gold.PLP.ligand.clash>
0.0000

> <Gold.PLP.ligand.torsion>
0.4205

> <Gold.PLP.Chemscore.Hbond>
3.8550

> <Gold.PLP.Chemscore.CHOScore>
0.0000

> <Gold.PLP.Chemscore.Metal>
0.0000

> <Gold.Chemscore.Hbonds>
donor molecule, donor type, donor heavy atom, donor atom, acceptor molecule, acceptor atom, score
      L1  H     8    31       P1 10747  0.85
      L1  H    11    32       P1 10747  0.88
      L1  H    17    37       P1  7921  1.00
      P1  H 10192 10197       L1    17  0.86

> <Gold.PLP.Chemscore.Internal.Correction>
0.0221

> <Gold.Rescore>
     Score         DG    S(hbond)    S(metal)    S(lipo)     H(rot)  DE(clash)    DE(int)     intcor
     19.75     -22.03       3.06        0.00      93.35       1.80       0.57       1.71       ----

> <Gold.Chemscore.Fitness>
19.7484

> <Gold.Chemscore.DG>
-22.0300

> <Gold.Chemscore.ZeroCoef>
-5.4800

> <Gold.Chemscore.Hbond>
3.0632

> <Gold.Chemscore.Metal>
0.0000

> <Gold.Chemscore.Lipo>
93.3479

> <Gold.Chemscore.Internal_Hbond>
0.0000

> <Gold.Chemscore.DEClash>
0.5694

> <Gold.Chemscore.DEInternal>
1.7122

> <Gold.Chemscore.Rot>
1.7980

> <Gold.Chemscore.Internal.Correction>
   9.000000E+99

> <Gold.Chemscore.Hbonds>
donor molecule, donor type, donor heavy atom, donor atom, acceptor molecule, acceptor atom, score
      L1  H     8    31       P1 10747  0.19
      L1  H    11    32       P1 10747  0.87
      L1  H    17    37       P1  7921  0.96
      P1  H 10192 10197       L1    17  0.72

> <Gold.Chemscore.Hbond.Weighted>
-10.2311

> <Gold.Chemscore.Metal.Weighted>
-0.0000

> <Gold.Chemscore.Lipo.Weighted>
-10.9217

> <Gold.Chemscore.Internal_Hbond.Weighted>
0.0000

> <Gold.Chemscore.DEClash.Weighted>
0.5694

> <Gold.Chemscore.DEInternal.Weighted>
1.7122

> <Gold.Chemscore.Rot.Weighted>
4.6029

> <Gold.Chemscore.Internal.Correction.Weighted>
   9.000000E+99

> <Gold.Protein.RotatedTorsions>
[ 6907 6896 6895 6894 ] final -166.87 input  -60.11 | X-H torsion
[ 7974 7965 7964 7962 ] final  118.75 input  175.53 | X-H torsion
[ 8008 7997 7996 7995 ] final  178.23 input   59.86 | X-H torsion
[ 10167 10162 10161 10158 ] final  -47.02 input  -65.29 | X-H torsion
[ 10718 10713 10712 10709 ] final   13.72 input   66.30 | X-H torsion
[ 10763 10752 10751 10750 ] final -133.93 input  -60.55 | X-H torsion
[ 11005 11000 10999 10996 ] final  -81.87 input  -57.11 | X-H torsion

> <Gold.Protein.ActiveResidues>
 VAL166  LYS551  ARG553  GLY616  TRP617  ASP618  TYR619  PRO620  LYS621  CYS622 
 ASP623  PHE694  ASN695  SER759  ASP760  ASP761  ALA762  ILE779  LEU786  VAL792 
 PHE793  MET794  SER795  GLU796  ALA797  LYS798  CYS799  TRP800  GLU811  SER814 

> <Gold.Protein.RotatedAtoms>
  151.4505  133.3619  159.2794 H   0  0  0  0  0  0  0  0  0  0  0  0  # atno 6907 bound_to 6896
  150.9094  134.8512  159.7426 H   0  0  0  0  0  0  0  0  0  0  0  0  # atno 6908 bound_to 6896
  152.4924  134.4433  159.9603 H   0  0  0  0  0  0  0  0  0  0  0  0  # atno 6909 bound_to 6896
  145.1514  139.3208  143.4564 H   0  0  0  0  0  0  0  0  0  0  0  0  # atno 7974 bound_to 7965
  156.0569  140.1338  156.9986 H   0  0  0  0  0  0  0  0  0  0  0  0  # atno 8008 bound_to 7997
  154.4462  140.0999  156.6530 H   0  0  0  0  0  0  0  0  0  0  0  0  # atno 8009 bound_to 7997
  155.5437  140.3461  155.4455 H   0  0  0  0  0  0  0  0  0  0  0  0  # atno 8010 bound_to 7997
  140.6793  143.2804  151.3866 H   0  0  0  0  0  0  0  0  0  0  0  0  # atno 10167 bound_to 10162
  157.0288  130.6184  149.5732 H   0  0  0  0  0  0  0  0  0  0  0  0  # atno 10718 bound_to 10713
  154.8726  135.3750  154.4653 H   0  0  0  0  0  0  0  0  0  0  0  0  # atno 10763 bound_to 10752
  153.5318  135.7027  153.5684 H   0  0  0  0  0  0  0  0  0  0  0  0  # atno 10764 bound_to 10752
  153.3886  135.3978  155.1872 H   0  0  0  0  0  0  0  0  0  0  0  0  # atno 10765 bound_to 10752
  141.1665  133.7217  156.8487 H   0  0  0  0  0  0  0  0  0  0  0  0  # atno 11005 bound_to 11000
  146.3494  140.1590  142.8591 LP  0  0  0  0  0  0  0  0  0  0  0  0  # atno 17320 bound_to 7965
  145.0427  140.8957  143.5043 LP  0  0  0  0  0  0  0  0  0  0  0  0  # atno 17321 bound_to 7965
  139.6105  144.1109  152.2293 LP  0  0  0  0  0  0  0  0  0  0  0  0  # atno 17342 bound_to 10162
  140.0521  144.5924  150.7328 LP  0  0  0  0  0  0  0  0  0  0  0  0  # atno 17343 bound_to 10162
  156.0077  130.5165  150.7884 LP  0  0  0  0  0  0  0  0  0  0  0  0  # atno 17370 bound_to 10713
  157.5194  131.0930  151.0098 LP  0  0  0  0  0  0  0  0  0  0  0  0  # atno 17371 bound_to 10713
  140.1931  134.8951  157.3084 LP  0  0  0  0  0  0  0  0  0  0  0  0  # atno 17394 bound_to 11000
  140.2268  134.3957  155.7540 LP  0  0  0  0  0  0  0  0  0  0  0  0  # atno 17395 bound_to 11000

$$$$
