AV-unprocessed.smi:1620|AV-procd|sdf|6491|dock4
  -GOLD-   22720 7153D 1   1.00000     0.00000
 Structure written by MMmdl.
 40 40  0  0  0  0  0  0  0  0  1 V2000
  153.0528  141.6489  160.2662 C   0  0  0  0  0  0  0  0  0  0  0  0
  152.9583  143.1801  160.1386 C   0  0  0  0  0  0  0  0  0  0  0  0
  152.2864  143.7582  161.3985 C   0  0  0  0  0  0  0  0  0  0  0  0
  152.2512  143.6188  158.8233 C   0  0  2  0  0  0  0  0  0  0  0  0
  152.3070  145.1366  158.5459 C   0  0  0  0  0  0  0  0  0  0  0  0
  150.8511  143.1266  158.7481 N   0  0  0  0  0  0  0  0  0  0  0  0
  149.8822  143.8273  159.6020 C   0  0  0  0  0  0  0  0  0  0  0  0
  150.3870  142.1851  157.8835 C   0  0  0  0  0  0  0  0  0  0  0  0
  149.2651  141.6862  157.9892 O   0  0  0  0  0  0  0  0  0  0  0  0
  151.2833  141.7797  156.9631 N   0  0  0  0  0  0  0  0  0  0  0  0
  151.1041  140.8180  155.9370 C   0  0  0  0  0  0  0  0  0  0  0  0
  150.0405  140.8282  154.9978 C   0  0  0  0  0  0  0  0  0  0  0  0
  150.1303  139.8060  154.1605 N   0  0  0  0  0  0  0  0  0  0  0  0
  151.2407  139.1295  154.5491 N   0  0  0  0  0  0  0  0  0  0  0  0
  151.6390  137.9293  153.8361 C   0  0  0  0  0  0  0  0  0  0  0  0
  151.5235  136.6929  154.7291 C   0  0  0  0  0  0  0  0  0  0  0  0
  150.5476  135.8260  154.4462 N   0  0  0  0  0  0  0  0  0  0  0  0
  152.3060  136.5228  155.6616 O   0  0  0  0  0  0  0  0  0  0  0  0
  151.8589  139.7205  155.6337 C   0  0  0  0  0  0  0  0  0  0  0  0
  152.0654  141.1868  160.2415 H   0  0  0  0  0  0  0  0  0  0  0  0
  153.5278  141.3626  161.2051 H   0  0  0  0  0  0  0  0  0  0  0  0
  153.6493  141.2115  159.4662 H   0  0  0  0  0  0  0  0  0  0  0  0
  153.9808  143.5579  160.1220 H   0  0  0  0  0  0  0  0  0  0  0  0
  151.2451  143.4432  161.4719 H   0  0  0  0  0  0  0  0  0  0  0  0
  152.3084  144.8478  161.4074 H   0  0  0  0  0  0  0  0  0  0  0  0
  152.7966  143.4247  162.3025 H   0  0  0  0  0  0  0  0  0  0  0  0
  152.8399  143.1919  158.0115 H   0  0  0  0  0  0  0  0  0  0  0  0
  153.3266  145.4691  158.3531 H   0  0  0  0  0  0  0  0  0  0  0  0
  151.9266  145.7228  159.3823 H   0  0  0  0  0  0  0  0  0  0  0  0
  151.7203  145.3943  157.6637 H   0  0  0  0  0  0  0  0  0  0  0  0
  149.1836  143.1281  160.0647 H   0  0  0  0  0  0  0  0  0  0  0  0
  149.3066  144.5432  159.0139 H   0  0  0  0  0  0  0  0  0  0  0  0
  150.3578  144.3722  160.4166 H   0  0  0  0  0  0  0  0  0  0  0  0
  152.1925  142.2172  157.0006 H   0  0  0  0  0  0  0  0  0  0  0  0
  149.2244  141.5282  154.8966 H   0  0  0  0  0  0  0  0  0  0  0  0
  151.0238  137.8115  152.9424 H   0  0  0  0  0  0  0  0  0  0  0  0
  152.6702  138.0483  153.5006 H   0  0  0  0  0  0  0  0  0  0  0  0
  150.4390  134.9911  155.0037 H   0  0  0  0  0  0  0  0  0  0  0  0
  149.9270  136.0046  153.6700 H   0  0  0  0  0  0  0  0  0  0  0  0
  152.7551  139.3096  156.0747 H   0  0  0  0  0  0  0  0  0  0  0  0
  1  2  1  0  0  0  0
  1 20  1  0  0  0  0
  1 21  1  0  0  0  0
  1 22  1  0  0  0  0
  2  3  1  0  0  0  0
  2  4  1  0  0  0  0
  2 23  1  0  0  0  0
  3 24  1  0  0  0  0
  3 25  1  0  0  0  0
  3 26  1  0  0  0  0
  4  5  1  0  0  0  0
  4  6  1  0  0  0  0
  4 27  1  0  0  0  0
  5 28  1  0  0  0  0
  5 29  1  0  0  0  0
  5 30  1  0  0  0  0
  6  7  1  0  0  0  0
  6  8  1  0  0  0  0
  7 31  1  0  0  0  0
  7 32  1  0  0  0  0
  7 33  1  0  0  0  0
  8  9  2  0  0  0  0
  8 10  1  0  0  0  0
 10 11  1  0  0  0  0
 10 34  1  0  0  0  0
 11 19  2  0  0  0  0
 11 12  1  0  0  0  0
 12 13  2  0  0  0  0
 12 35  1  0  0  0  0
 13 14  1  0  0  0  0
 14 15  1  0  0  0  0
 14 19  1  0  0  0  0
 15 16  1  0  0  0  0
 15 36  1  0  0  0  0
 15 37  1  0  0  0  0
 16 17  1  0  0  0  0
 16 18  2  0  0  0  0
 17 38  1  0  0  0  0
 17 39  1  0  0  0  0
 19 40  1  0  0  0  0
M  END
> <s_m_source_file>
AV-unprocessed.smi

> <i_m_source_file_index>
1620

> <i_lp_mmshare_version>
43012

> <i_f3d_flags>
0

> <s_epik_input>
W0NIM11bQ0hdKFtDSDNdKVtDQEhdKFtDSDNdKU4oW0NIM10pQyg9TylbTkhdYzFbY0hdbm4oW2NIXTEpW0NIMl1DKD1PKVtOSDJd

> <s_epik_cmdline>
J2VwaWtfcHl0aG9uJywgJy1waCcsICc3LjAnLCAnLXRuJywgJzgnLCAnLW1hJywgJzIwMCcsICctbWV0YWxfYmluZGluZycsICctaW1hZScsICc8aW5maWxlLm1hZT4nLCAnLW9tYWUnLCAnPG91dGZpbGUubWFlPic=

> <r_lp_tautomer_probability>
1

> <r_epik_Ionization_Penalty>
4.85642e-05

> <r_epik_Ionization_Penalty_Charging>
0

> <r_epik_Ionization_Penalty_Neutral>
4.85642e-05

> <r_epik_State_Penalty>
-0

> <r_epik_Charging_Adjusted_Penalty>
0

> <i_epik_Tot_Q>
0

> <i_epik_Tot_abs_Q>
0

> <r_epik_Metal_State_Penalty>
-0

> <b_epik_Metal_Only>
0

> <s_lp_Force_Field>
OPLS_2005

> <r_lp_Energy>
32.3257

> <b_lp_Chiralities_Consistent>
1

> <s_lp_Variant>
AV-unprocessed.smi:1620-1

> <Gold.Version>
5.8.1

> <Gold.Id.Protein>
6NUR|6NUR_protein|mol2

> <Gold.PLP.Fitness>
48.4848

> <Gold.PLP.PLP>
-43.9203

> <Gold.PLP.part.hbond>
-3.0000

> <Gold.PLP.part.metal>
0.0000

> <Gold.PLP.part.buried>
-3.8215

> <Gold.PLP.part.nonpolar>
-37.3390

> <Gold.PLP.part.repulsive>
0.5087

> <Gold.PLP.ligand.clash>
0.0000

> <Gold.PLP.ligand.torsion>
0.8373

> <Gold.PLP.Chemscore.Hbond>
2.0000

> <Gold.PLP.Chemscore.CHOScore>
0.0000

> <Gold.PLP.Chemscore.Metal>
0.0000

> <Gold.Chemscore.Hbonds>
donor molecule, donor type, donor heavy atom, donor atom, acceptor molecule, acceptor atom, score
      L1  H    17    39       P1  7948  0.75
      P1  H 10752 10765       L1    18  0.80

> <Gold.PLP.Chemscore.Internal.Correction>
0.2392

> <Gold.Rescore>
     Score         DG    S(hbond)    S(metal)    S(lipo)     H(rot)  DE(clash)    DE(int)     intcor
     14.94     -16.79       1.53        0.00      99.00       2.10       0.04       1.81       ----

> <Gold.Chemscore.Fitness>
14.9432

> <Gold.Chemscore.DG>
-16.7873

> <Gold.Chemscore.ZeroCoef>
-5.4800

> <Gold.Chemscore.Hbond>
1.5299

> <Gold.Chemscore.Metal>
0.0000

> <Gold.Chemscore.Lipo>
99.0048

> <Gold.Chemscore.Internal_Hbond>
0.0000

> <Gold.Chemscore.DEClash>
0.0376

> <Gold.Chemscore.DEInternal>
1.8065

> <Gold.Chemscore.Rot>
2.1039

> <Gold.Chemscore.Internal.Correction>
   9.000000E+99

> <Gold.Chemscore.Hbonds>
donor molecule, donor type, donor heavy atom, donor atom, acceptor molecule, acceptor atom, score
      L1  H    17    39       P1  7948  0.09
      P1  H 10752 10765       L1    18  0.17

> <Gold.Chemscore.Hbond.Weighted>
-5.1098

> <Gold.Chemscore.Metal.Weighted>
-0.0000

> <Gold.Chemscore.Lipo.Weighted>
-11.5836

> <Gold.Chemscore.Internal_Hbond.Weighted>
0.0000

> <Gold.Chemscore.DEClash.Weighted>
0.0376

> <Gold.Chemscore.DEInternal.Weighted>
1.8065

> <Gold.Chemscore.Rot.Weighted>
5.3860

> <Gold.Chemscore.Internal.Correction.Weighted>
   9.000000E+99

> <Gold.Protein.RotatedTorsions>
[ 6907 6896 6895 6894 ] final  135.73 input  -60.11 | X-H torsion
[ 7974 7965 7964 7962 ] final   14.64 input  175.53 | X-H torsion
[ 8008 7997 7996 7995 ] final  116.10 input   59.86 | X-H torsion
[ 10167 10162 10161 10158 ] final   10.88 input  -65.29 | X-H torsion
[ 10718 10713 10712 10709 ] final -104.59 input   66.30 | X-H torsion
[ 10763 10752 10751 10750 ] final -149.63 input  -60.55 | X-H torsion
[ 11005 11000 10999 10996 ] final  -35.81 input  -57.11 | X-H torsion

> <Gold.Protein.ActiveResidues>
 VAL166  LYS551  ARG553  GLY616  TRP617  ASP618  TYR619  PRO620  LYS621  CYS622 
 ASP623  PHE694  ASN695  SER759  ASP760  ASP761  ALA762  ILE779  LEU786  VAL792 
 PHE793  MET794  SER795  GLU796  ALA797  LYS798  CYS799  TRP800  GLU811  SER814 

> <Gold.Protein.RotatedAtoms>
  152.2972  133.5619  159.5594 H   0  0  0  0  0  0  0  0  0  0  0  0  # atno 6907 bound_to 6896
  150.7261  134.0344  159.3753 H   0  0  0  0  0  0  0  0  0  0  0  0  # atno 6908 bound_to 6896
  151.8246  135.0641  160.0480 H   0  0  0  0  0  0  0  0  0  0  0  0  # atno 6909 bound_to 6896
  146.2299  139.9011  142.8539 H   0  0  0  0  0  0  0  0  0  0  0  0  # atno 7974 bound_to 7965
  156.2420  140.2924  156.0470 H   0  0  0  0  0  0  0  0  0  0  0  0  # atno 8008 bound_to 7997
  155.1923  140.0407  157.2920 H   0  0  0  0  0  0  0  0  0  0  0  0  # atno 8009 bound_to 7997
  154.6186  140.2470  155.7585 H   0  0  0  0  0  0  0  0  0  0  0  0  # atno 8010 bound_to 7997
  140.6167  143.8293  150.7126 H   0  0  0  0  0  0  0  0  0  0  0  0  # atno 10167 bound_to 10162
  156.0310  130.5522  150.7418 H   0  0  0  0  0  0  0  0  0  0  0  0  # atno 10718 bound_to 10713
  154.8166  135.3304  154.7158 H   0  0  0  0  0  0  0  0  0  0  0  0  # atno 10763 bound_to 10752
  153.7798  135.6919  153.4895 H   0  0  0  0  0  0  0  0  0  0  0  0  # atno 10764 bound_to 10752
  153.1988  135.4524  155.0188 H   0  0  0  0  0  0  0  0  0  0  0  0  # atno 10765 bound_to 10752
  140.9826  133.7048  156.1709 H   0  0  0  0  0  0  0  0  0  0  0  0  # atno 11005 bound_to 11000
  145.2322  140.9977  143.3984 LP  0  0  0  0  0  0  0  0  0  0  0  0  # atno 17320 bound_to 7965
  144.9521  139.4072  143.6397 LP  0  0  0  0  0  0  0  0  0  0  0  0  # atno 17321 bound_to 7965
  140.1874  143.4064  152.1888 LP  0  0  0  0  0  0  0  0  0  0  0  0  # atno 17342 bound_to 10162
  139.5404  144.7251  151.4752 LP  0  0  0  0  0  0  0  0  0  0  0  0  # atno 17343 bound_to 10162
  157.4985  131.0916  151.0343 LP  0  0  0  0  0  0  0  0  0  0  0  0  # atno 17370 bound_to 10713
  157.0730  130.5872  149.5406 LP  0  0  0  0  0  0  0  0  0  0  0  0  # atno 17371 bound_to 10713
  140.7164  134.4406  157.5578 LP  0  0  0  0  0  0  0  0  0  0  0  0  # atno 17394 bound_to 11000
  139.8956  134.8678  156.2122 LP  0  0  0  0  0  0  0  0  0  0  0  0  # atno 17395 bound_to 11000

$$$$
