AV-unprocessed.smi:2140|AV-procd|sdf|8717|dock1
  -GOLD-   2272011483D 1   1.00000     0.00000
 Structure written by MMmdl.
 40 41  0  0  0  0  0  0  0  0  2 V2000
  147.0808  139.2514  152.8101 C   0  0  0  0  0  0  0  0  0  0  0  0
  148.2477  139.4220  153.8132 C   0  0  1  0  0  0  0  0  0  0  0  0
  147.7418  140.1198  155.1048 C   0  0  0  0  0  0  0  0  0  0  0  0
  148.5331  141.2910  155.4722 N   0  0  0  0  0  0  0  0  0  0  0  0
  149.4225  141.3282  156.4748 C   0  0  0  0  0  0  0  0  0  0  0  0
  149.6565  140.3655  157.2052 O   0  0  0  0  0  0  0  0  0  0  0  0
  149.9953  142.5396  156.5744 N   0  0  0  0  0  0  0  0  0  0  0  0
  151.0089  142.9678  157.4742 C   0  0  0  0  0  0  0  0  0  0  0  0
  151.6330  142.1304  158.4309 C   0  0  0  0  0  0  0  0  0  0  0  0
  152.6416  142.6706  159.2517 C   0  0  0  0  0  0  0  0  0  0  0  0
  152.9943  144.0235  159.0828 C   0  0  0  0  0  0  0  0  0  0  0  0
  152.4175  144.8293  158.1667 N   0  0  0  0  0  0  0  0  0  0  0  0
  151.4519  144.3045  157.3825 C   0  0  0  0  0  0  0  0  0  0  0  0
  148.9380  138.1340  154.1520 N   0  3  0  0  0  0  0  0  0  0  0  0
  150.3185  138.2683  154.6951 C   0  0  0  0  0  0  0  0  0  0  0  0
  150.9398  136.8904  154.9838 C   0  0  0  0  0  0  0  0  0  0  0  0
  150.1111  136.1630  155.8778 O   0  0  0  0  0  0  0  0  0  0  0  0
  148.8251  135.9314  155.3227 C   0  0  0  0  0  0  0  0  0  0  0  0
  148.1296  137.2776  155.0630 C   0  0  0  0  0  0  0  0  0  0  0  0
  146.5815  140.1984  152.6055 H   0  0  0  0  0  0  0  0  0  0  0  0
  146.3266  138.5613  153.1896 H   0  0  0  0  0  0  0  0  0  0  0  0
  147.4234  138.8872  151.8417 H   0  0  0  0  0  0  0  0  0  0  0  0
  148.9834  140.0659  153.3283 H   0  0  0  0  0  0  0  0  0  0  0  0
  146.7100  140.4446  154.9666 H   0  0  0  0  0  0  0  0  0  0  0  0
  147.7308  139.4444  155.9590 H   0  0  0  0  0  0  0  0  0  0  0  0
  148.3947  142.1280  154.9244 H   0  0  0  0  0  0  0  0  0  0  0  0
  149.6338  143.2553  155.9609 H   0  0  0  0  0  0  0  0  0  0  0  0
  151.3727  141.0894  158.5422 H   0  0  0  0  0  0  0  0  0  0  0  0
  153.1373  142.0596  159.9916 H   0  0  0  0  0  0  0  0  0  0  0  0
  153.7644  144.4680  159.6955 H   0  0  0  0  0  0  0  0  0  0  0  0
  151.0150  144.9775  156.6591 H   0  0  0  0  0  0  0  0  0  0  0  0
  150.9693  138.7753  153.9835 H   0  0  0  0  0  0  0  0  0  0  0  0
  150.2975  138.8675  155.6069 H   0  0  0  0  0  0  0  0  0  0  0  0
  151.0825  136.3266  154.0603 H   0  0  0  0  0  0  0  0  0  0  0  0
  151.9243  137.0109  155.4363 H   0  0  0  0  0  0  0  0  0  0  0  0
  148.9068  135.3485  154.4038 H   0  0  0  0  0  0  0  0  0  0  0  0
  148.2405  135.3374  156.0255 H   0  0  0  0  0  0  0  0  0  0  0  0
  147.9739  137.7985  156.0092 H   0  0  0  0  0  0  0  0  0  0  0  0
  147.1431  137.0794  154.6485 H   0  0  0  0  0  0  0  0  0  0  0  0
  149.0347  137.6288  153.2826 H   0  0  0  0  0  0  0  0  0  0  0  0
  1  2  1  0  0  0  0
  1 20  1  0  0  0  0
  1 21  1  0  0  0  0
  1 22  1  0  0  0  0
  2  3  1  0  0  0  0
  2 14  1  0  0  0  0
  2 23  1  0  0  0  0
  3  4  1  0  0  0  0
  3 24  1  0  0  0  0
  3 25  1  0  0  0  0
  4  5  1  0  0  0  0
  4 26  1  0  0  0  0
  5  6  2  0  0  0  0
  5  7  1  0  0  0  0
  7  8  1  0  0  0  0
  7 27  1  0  0  0  0
  8 13  1  0  0  0  0
  8  9  2  0  0  0  0
  9 10  1  0  0  0  0
  9 28  1  0  0  0  0
 10 11  2  0  0  0  0
 10 29  1  0  0  0  0
 11 12  1  0  0  0  0
 11 30  1  0  0  0  0
 12 13  2  0  0  0  0
 13 31  1  0  0  0  0
 14 19  1  0  0  0  0
 14 15  1  0  0  0  0
 14 40  1  0  0  0  0
 15 16  1  0  0  0  0
 15 32  1  0  0  0  0
 15 33  1  0  0  0  0
 16 17  1  0  0  0  0
 16 34  1  0  0  0  0
 16 35  1  0  0  0  0
 17 18  1  0  0  0  0
 18 19  1  0  0  0  0
 18 36  1  0  0  0  0
 18 37  1  0  0  0  0
 19 38  1  0  0  0  0
 19 39  1  0  0  0  0
M  CHG  1  14   1
M  END
> <s_m_source_file>
AV-unprocessed.smi

> <i_m_source_file_index>
2140

> <i_lp_mmshare_version>
43012

> <i_f3d_flags>
0

> <s_epik_input>
W0NIMl0xW0NIMl1PW0NIMl1bQ0gyXU4xW0NASF0oW0NIM10pW0NIMl1bTkhdQyg9TylbTkhdYzJbY0hdW2NIXVtjSF1uW2NIXTI=

> <s_epik_cmdline>
J2VwaWtfcHl0aG9uJywgJy1waCcsICc3LjAnLCAnLXRuJywgJzgnLCAnLW1hJywgJzIwMCcsICctbWV0YWxfYmluZGluZycsICctaW1hZScsICc8aW5maWxlLm1hZT4nLCAnLW9tYWUnLCAnPG91dGZpbGUubWFlPic=

> <r_epik_Ionization_Penalty>
0.60672

> <r_epik_Ionization_Penalty_Charging>
0.602531

> <r_epik_Ionization_Penalty_Neutral>
0.00418997

> <r_epik_State_Penalty>
0.607459

> <r_epik_Charging_Adjusted_Penalty>
1.20999

> <i_epik_Tot_Q>
1

> <i_epik_Tot_abs_Q>
1

> <r_epik_Metal_State_Penalty>
0.604586

> <b_epik_Metal_Only>
0

> <s_lp_Force_Field>
OPLS_2005

> <r_lp_Energy>
23.4588

> <b_lp_Chiralities_Consistent>
1

> <s_lp_Variant>
AV-unprocessed.smi:2140-4

> <Gold.Version>
5.8.1

> <Gold.Id.Protein>
6NUR|6NUR_protein|mol2

> <Gold.PLP.Fitness>
40.4074

> <Gold.PLP.PLP>
-30.4561

> <Gold.PLP.part.hbond>
-2.0000

> <Gold.PLP.part.metal>
0.0000

> <Gold.PLP.part.buried>
-3.4777

> <Gold.PLP.part.nonpolar>
-25.4177

> <Gold.PLP.part.repulsive>
0.2339

> <Gold.PLP.ligand.clash>
0.0000

> <Gold.PLP.ligand.torsion>
1.0338

> <Gold.PLP.Chemscore.Hbond>
3.0000

> <Gold.PLP.Chemscore.CHOScore>
0.9840

> <Gold.PLP.Chemscore.Metal>
0.0000

> <Gold.Chemscore.Hbonds>
donor molecule, donor type, donor heavy atom, donor atom, acceptor molecule, acceptor atom, score
      L1  H     7    27       P1  8028  1.00
      L1  H    14    40       P1  7948  2.00
      L1  C    13    31       P1  8028  0.94

> <Gold.PLP.Chemscore.Internal.Correction>
0.0671

> <Gold.Rescore>
     Score         DG    S(hbond)    S(metal)    S(lipo)     H(rot)  DE(clash)    DE(int)     intcor
     16.44     -18.69       1.98        0.00      89.63       1.52       0.07       2.19       ----

> <Gold.Chemscore.Fitness>
16.4364

> <Gold.Chemscore.DG>
-18.6919

> <Gold.Chemscore.ZeroCoef>
-5.4800

> <Gold.Chemscore.Hbond>
1.9794

> <Gold.Chemscore.Metal>
0.0000

> <Gold.Chemscore.Lipo>
89.6280

> <Gold.Chemscore.Internal_Hbond>
0.0000

> <Gold.Chemscore.DEClash>
0.0684

> <Gold.Chemscore.DEInternal>
2.1870

> <Gold.Chemscore.Rot>
1.5179

> <Gold.Chemscore.Internal.Correction>
   9.000000E+99

> <Gold.Chemscore.Hbonds>
donor molecule, donor type, donor heavy atom, donor atom, acceptor molecule, acceptor atom, score
      L1  H     7    27       P1  8028  0.97
      L1  H    14    40       P1  7948  0.98

> <Gold.Chemscore.Hbond.Weighted>
-6.6113

> <Gold.Chemscore.Metal.Weighted>
-0.0000

> <Gold.Chemscore.Lipo.Weighted>
-10.4865

> <Gold.Chemscore.Internal_Hbond.Weighted>
0.0000

> <Gold.Chemscore.DEClash.Weighted>
0.0684

> <Gold.Chemscore.DEInternal.Weighted>
2.1870

> <Gold.Chemscore.Rot.Weighted>
3.8859

> <Gold.Chemscore.Internal.Correction.Weighted>
   9.000000E+99

> <Gold.Protein.RotatedTorsions>
[ 6907 6896 6895 6894 ] final  148.24 input  -60.11 | X-H torsion
[ 7974 7965 7964 7962 ] final  -98.68 input  175.53 | X-H torsion
[ 8008 7997 7996 7995 ] final  175.75 input   59.86 | X-H torsion
[ 10167 10162 10161 10158 ] final  -57.99 input  -65.29 | X-H torsion
[ 10718 10713 10712 10709 ] final  175.51 input   66.30 | X-H torsion
[ 10763 10752 10751 10750 ] final  -54.46 input  -60.55 | X-H torsion
[ 11005 11000 10999 10996 ] final  104.28 input  -57.11 | X-H torsion

> <Gold.Protein.ActiveResidues>
 VAL166  LYS551  ARG553  GLY616  TRP617  ASP618  TYR619  PRO620  LYS621  CYS622 
 ASP623  PHE694  ASN695  SER759  ASP760  ASP761  ALA762  ILE779  LEU786  VAL792 
 PHE793  MET794  SER795  GLU796  ALA797  LYS798  CYS799  TRP800  GLU811  SER814 

> <Gold.Protein.RotatedAtoms>
  152.1441  133.4482  159.4780 H   0  0  0  0  0  0  0  0  0  0  0  0  # atno 6907 bound_to 6896
  150.6889  134.2269  159.4428 H   0  0  0  0  0  0  0  0  0  0  0  0  # atno 6908 bound_to 6896
  152.0162  134.9848  160.0620 H   0  0  0  0  0  0  0  0  0  0  0  0  # atno 6909 bound_to 6896
  145.3175  140.9414  143.2734 H   0  0  0  0  0  0  0  0  0  0  0  0  # atno 7974 bound_to 7965
  156.0837  140.1401  156.9680 H   0  0  0  0  0  0  0  0  0  0  0  0  # atno 8008 bound_to 7997
  154.4600  140.0947  156.6915 H   0  0  0  0  0  0  0  0  0  0  0  0  # atno 8009 bound_to 7997
  155.5033  140.3451  155.4377 H   0  0  0  0  0  0  0  0  0  0  0  0  # atno 8010 bound_to 7997
  140.6224  143.2425  151.5447 H   0  0  0  0  0  0  0  0  0  0  0  0  # atno 10167 bound_to 10162
  156.9338  130.9979  151.2982 H   0  0  0  0  0  0  0  0  0  0  0  0  # atno 10718 bound_to 10713
  154.1752  135.6452  153.5019 H   0  0  0  0  0  0  0  0  0  0  0  0  # atno 10763 bound_to 10752
  153.0074  135.5393  154.6572 H   0  0  0  0  0  0  0  0  0  0  0  0  # atno 10764 bound_to 10752
  154.5921  135.2935  155.0596 H   0  0  0  0  0  0  0  0  0  0  0  0  # atno 10765 bound_to 10752
  139.8790  134.9294  156.5337 H   0  0  0  0  0  0  0  0  0  0  0  0  # atno 11005 bound_to 11000
  144.8966  139.4704  143.6652 LP  0  0  0  0  0  0  0  0  0  0  0  0  # atno 17320 bound_to 7965
  146.3095  139.7696  142.9031 LP  0  0  0  0  0  0  0  0  0  0  0  0  # atno 17321 bound_to 7965
  139.5450  144.2544  152.1425 LP  0  0  0  0  0  0  0  0  0  0  0  0  # atno 17342 bound_to 10162
  140.1768  144.4883  150.6550 LP  0  0  0  0  0  0  0  0  0  0  0  0  # atno 17343 bound_to 10162
  157.5830  130.8389  149.8549 LP  0  0  0  0  0  0  0  0  0  0  0  0  # atno 17370 bound_to 10713
  156.0435  130.3733  150.1375 LP  0  0  0  0  0  0  0  0  0  0  0  0  # atno 17371 bound_to 10713
  140.8361  133.8241  155.9030 LP  0  0  0  0  0  0  0  0  0  0  0  0  # atno 17394 bound_to 11000
  140.9282  134.2055  157.4882 LP  0  0  0  0  0  0  0  0  0  0  0  0  # atno 17395 bound_to 11000

$$$$
