AV-unprocessed.smi:2130|AV-procd|sdf|8686|dock7
  -GOLD-   2272011443D 1   1.00000     0.00000
 Structure written by MMmdl.
 32 33  0  0  0  0  0  0  0  0  1 V2000
  148.6839  140.9631  154.1270 C   0  0  0  0  0  0  0  0  0  0  0  0
  149.8522  140.0638  154.4929 C   0  0  0  0  0  0  0  0  0  0  0  0
  150.1179  138.8725  153.9469 C   0  0  0  0  0  0  0  0  0  0  0  0
  151.5226  138.1068  154.6476 S   0  0  0  0  0  0  0  0  0  0  0  0
  151.7462  139.5091  155.7543 C   0  0  0  0  0  0  0  0  0  0  0  0
  152.6582  139.5699  156.5775 O   0  0  0  0  0  0  0  0  0  0  0  0
  150.7474  140.4489  155.5009 N   0  0  0  0  0  0  0  0  0  0  0  0
  150.6561  141.7267  156.2196 C   0  0  0  0  0  0  0  0  0  0  0  0
  150.8217  141.5868  157.7387 C   0  0  0  0  0  0  0  0  0  0  0  0
  150.0082  140.9523  158.4119 O   0  0  0  0  0  0  0  0  0  0  0  0
  151.8920  142.2015  158.2646 N   0  0  0  0  0  0  0  0  0  0  0  0
  152.2380  142.2363  159.6818 C   0  0  1  0  0  0  0  0  0  0  0  0
  153.4634  141.3408  159.9101 C   0  0  0  0  0  0  0  0  0  0  0  0
  152.4899  143.6405  160.2056 C   0  0  0  0  0  0  0  0  0  0  0  0
  152.1314  144.0167  161.6240 C   0  0  0  0  0  0  0  0  0  0  0  0
  151.3537  144.6012  160.4672 C   0  0  0  0  0  0  0  0  0  0  0  0
  147.9299  140.3994  153.5769 H   0  0  0  0  0  0  0  0  0  0  0  0
  149.0209  141.7844  153.4944 H   0  0  0  0  0  0  0  0  0  0  0  0
  148.2003  141.3760  155.0122 H   0  0  0  0  0  0  0  0  0  0  0  0
  149.5525  138.3858  153.1659 H   0  0  0  0  0  0  0  0  0  0  0  0
  151.4275  142.4067  155.8545 H   0  0  0  0  0  0  0  0  0  0  0  0
  149.7097  142.2218  156.0014 H   0  0  0  0  0  0  0  0  0  0  0  0
  152.5084  142.6961  157.6362 H   0  0  0  0  0  0  0  0  0  0  0  0
  151.4125  141.8054  160.2517 H   0  0  0  0  0  0  0  0  0  0  0  0
  153.7266  141.2978  160.9673 H   0  0  0  0  0  0  0  0  0  0  0  0
  154.3333  141.7112  159.3669 H   0  0  0  0  0  0  0  0  0  0  0  0
  153.2726  140.3196  159.5787 H   0  0  0  0  0  0  0  0  0  0  0  0
  153.4066  144.0864  159.8234 H   0  0  0  0  0  0  0  0  0  0  0  0
  151.6306  143.2698  162.2370 H   0  0  0  0  0  0  0  0  0  0  0  0
  152.8136  144.6760  162.1567 H   0  0  0  0  0  0  0  0  0  0  0  0
  151.5193  145.6492  160.2260 H   0  0  0  0  0  0  0  0  0  0  0  0
  150.3375  144.2429  160.3154 H   0  0  0  0  0  0  0  0  0  0  0  0
  1  2  1  0  0  0  0
  1 17  1  0  0  0  0
  1 18  1  0  0  0  0
  1 19  1  0  0  0  0
  2  7  1  0  0  0  0
  2  3  2  0  0  0  0
  3  4  1  0  0  0  0
  3 20  1  0  0  0  0
  4  5  1  0  0  0  0
  5  6  2  0  0  0  0
  5  7  1  0  0  0  0
  7  8  1  0  0  0  0
  8  9  1  0  0  0  0
  8 21  1  0  0  0  0
  8 22  1  0  0  0  0
  9 10  2  0  0  0  0
  9 11  1  0  0  0  0
 11 12  1  0  0  0  0
 11 23  1  0  0  0  0
 12 13  1  0  0  0  0
 12 14  1  0  0  0  0
 12 24  1  0  0  0  0
 13 25  1  0  0  0  0
 13 26  1  0  0  0  0
 13 27  1  0  0  0  0
 14 16  1  0  0  0  0
 14 15  1  0  0  0  0
 14 28  1  0  0  0  0
 15 16  1  0  0  0  0
 15 29  1  0  0  0  0
 15 30  1  0  0  0  0
 16 31  1  0  0  0  0
 16 32  1  0  0  0  0
M  END
> <s_m_source_file>
AV-unprocessed.smi

> <i_m_source_file_index>
2130

> <i_lp_mmshare_version>
43012

> <i_f3d_flags>
0

> <s_epik_input>
W0NIM11jMVtjSF1zYyg9TyluMVtDSDJdQyg9TylbTkhdW0NASF0oW0NIM10pW0NIXTJbQ0gyXVtDSDJdMg==

> <s_epik_cmdline>
J2VwaWtfcHl0aG9uJywgJy1waCcsICc3LjAnLCAnLXRuJywgJzgnLCAnLW1hJywgJzIwMCcsICctbWV0YWxfYmluZGluZycsICctaW1hZScsICc8aW5maWxlLm1hZT4nLCAnLW9tYWUnLCAnPG91dGZpbGUubWFlPic=

> <r_lp_tautomer_probability>
1

> <r_epik_Ionization_Penalty>
1.32882e-06

> <r_epik_Ionization_Penalty_Charging>
1.22222e-06

> <r_epik_Ionization_Penalty_Neutral>
1.066e-07

> <r_epik_State_Penalty>
-0

> <r_epik_Charging_Adjusted_Penalty>
1.22222e-06

> <i_epik_Tot_Q>
0

> <i_epik_Tot_abs_Q>
0

> <r_epik_Metal_State_Penalty>
-0

> <b_epik_Metal_Only>
0

> <s_lp_Force_Field>
OPLS_2005

> <r_lp_Energy>
16.4034

> <b_lp_Chiralities_Consistent>
1

> <s_lp_Variant>
AV-unprocessed.smi:2130-2

> <Gold.Version>
5.8.1

> <Gold.Id.Protein>
6NUR|6NUR_protein|mol2

> <Gold.PLP.Fitness>
47.3338

> <Gold.PLP.PLP>
-40.7719

> <Gold.PLP.part.hbond>
-1.0000

> <Gold.PLP.part.metal>
0.0000

> <Gold.PLP.part.buried>
-1.1132

> <Gold.PLP.part.nonpolar>
-38.2478

> <Gold.PLP.part.repulsive>
0.0707

> <Gold.PLP.ligand.clash>
0.0000

> <Gold.PLP.ligand.torsion>
0.8242

> <Gold.PLP.Chemscore.Hbond>
1.0000

> <Gold.PLP.Chemscore.CHOScore>
1.3808

> <Gold.PLP.Chemscore.Metal>
0.0000

> <Gold.Chemscore.Hbonds>
donor molecule, donor type, donor heavy atom, donor atom, acceptor molecule, acceptor atom, score
      P1  H  7997  8008       L1     6  1.00
      L1  C     3    20       P1  7948  0.95
      L1  C     3    20       P1  7957  0.44

> <Gold.PLP.Chemscore.Internal.Correction>
1.0679

> <Gold.Rescore>
     Score         DG    S(hbond)    S(metal)    S(lipo)     H(rot)  DE(clash)    DE(int)     intcor
     14.17     -16.01       0.99        0.00      96.73       1.59       0.08       1.77       ----

> <Gold.Chemscore.Fitness>
14.1696

> <Gold.Chemscore.DG>
-16.0148

> <Gold.Chemscore.ZeroCoef>
-5.4800

> <Gold.Chemscore.Hbond>
0.9863

> <Gold.Chemscore.Metal>
0.0000

> <Gold.Chemscore.Lipo>
96.7307

> <Gold.Chemscore.Internal_Hbond>
0.0000

> <Gold.Chemscore.DEClash>
0.0773

> <Gold.Chemscore.DEInternal>
1.7679

> <Gold.Chemscore.Rot>
1.5926

> <Gold.Chemscore.Internal.Correction>
   9.000000E+99

> <Gold.Chemscore.Hbonds>
donor molecule, donor type, donor heavy atom, donor atom, acceptor molecule, acceptor atom, score
      P1  H  7997  8008       L1     6  1.00

> <Gold.Chemscore.Hbond.Weighted>
-3.2944

> <Gold.Chemscore.Metal.Weighted>
-0.0000

> <Gold.Chemscore.Lipo.Weighted>
-11.3175

> <Gold.Chemscore.Internal_Hbond.Weighted>
0.0000

> <Gold.Chemscore.DEClash.Weighted>
0.0773

> <Gold.Chemscore.DEInternal.Weighted>
1.7679

> <Gold.Chemscore.Rot.Weighted>
4.0771

> <Gold.Chemscore.Internal.Correction.Weighted>
   9.000000E+99

> <Gold.Protein.RotatedTorsions>
[ 6907 6896 6895 6894 ] final -134.95 input  -60.11 | X-H torsion
[ 7974 7965 7964 7962 ] final -103.97 input  175.53 | X-H torsion
[ 8008 7997 7996 7995 ] final  -47.64 input   59.86 | X-H torsion
[ 10167 10162 10161 10158 ] final  117.31 input  -65.29 | X-H torsion
[ 10718 10713 10712 10709 ] final -178.01 input   66.30 | X-H torsion
[ 10763 10752 10751 10750 ] final  146.58 input  -60.55 | X-H torsion
[ 11005 11000 10999 10996 ] final -136.05 input  -57.11 | X-H torsion

> <Gold.Protein.ActiveResidues>
 VAL166  LYS551  ARG553  GLY616  TRP617  ASP618  TYR619  PRO620  LYS621  CYS622 
 ASP623  PHE694  ASN695  SER759  ASP760  ASP761  ALA762  ILE779  LEU786  VAL792 
 PHE793  MET794  SER795  GLU796  ALA797  LYS798  CYS799  TRP800  GLU811  SER814 

> <Gold.Protein.RotatedAtoms>
  150.9919  133.6141  159.2706 H   0  0  0  0  0  0  0  0  0  0  0  0  # atno 6907 bound_to 6896
  151.3358  135.0851  159.9364 H   0  0  0  0  0  0  0  0  0  0  0  0  # atno 6908 bound_to 6896
  152.5248  133.9540  159.7740 H   0  0  0  0  0  0  0  0  0  0  0  0  # atno 6909 bound_to 6896
  145.2490  140.9231  143.3106 H   0  0  0  0  0  0  0  0  0  0  0  0  # atno 7974 bound_to 7965
  154.4019  140.1341  156.4208 H   0  0  0  0  0  0  0  0  0  0  0  0  # atno 8008 bound_to 7997
  155.7645  140.3485  155.5194 H   0  0  0  0  0  0  0  0  0  0  0  0  # atno 8009 bound_to 7997
  155.8827  140.0990  157.1464 H   0  0  0  0  0  0  0  0  0  0  0  0  # atno 8010 bound_to 7997
  139.6187  144.7097  151.2681 H   0  0  0  0  0  0  0  0  0  0  0  0  # atno 10167 bound_to 10162
  156.8380  130.9676  151.3102 H   0  0  0  0  0  0  0  0  0  0  0  0  # atno 10718 bound_to 10713
  154.0243  135.2903  155.3377 H   0  0  0  0  0  0  0  0  0  0  0  0  # atno 10763 bound_to 10752
  154.7027  135.5182  153.8553 H   0  0  0  0  0  0  0  0  0  0  0  0  # atno 10764 bound_to 10752
  153.0667  135.6633  154.0462 H   0  0  0  0  0  0  0  0  0  0  0  0  # atno 10765 bound_to 10752
  140.8841  134.1894  157.4571 H   0  0  0  0  0  0  0  0  0  0  0  0  # atno 11005 bound_to 11000
  144.9520  139.4073  143.6398 LP  0  0  0  0  0  0  0  0  0  0  0  0  # atno 17320 bound_to 7965
  146.3307  139.8531  142.8869 LP  0  0  0  0  0  0  0  0  0  0  0  0  # atno 17321 bound_to 7965
  140.7368  143.6696  150.8093 LP  0  0  0  0  0  0  0  0  0  0  0  0  # atno 17342 bound_to 10162
  140.0304  143.5450  152.2763 LP  0  0  0  0  0  0  0  0  0  0  0  0  # atno 17343 bound_to 10162
  157.6371  130.8775  149.9379 LP  0  0  0  0  0  0  0  0  0  0  0  0  # atno 17370 bound_to 10713
  156.0897  130.3664  150.0419 LP  0  0  0  0  0  0  0  0  0  0  0  0  # atno 17371 bound_to 10713
  139.8722  134.9830  156.5180 LP  0  0  0  0  0  0  0  0  0  0  0  0  # atno 17394 bound_to 11000
  140.8426  133.8193  155.9089 LP  0  0  0  0  0  0  0  0  0  0  0  0  # atno 17395 bound_to 11000

$$$$
