AV-unprocessed.smi:604|AV-procd|sdf|3038|dock1
  -GOLD-   2262023553D 1   1.00000     0.00000
 Structure written by MMmdl.
 49 51  0  0  0  0  0  0  0  0  2 V2000
  147.5289  139.1136  152.8305 O   0  0  0  0  0  0  0  0  0  0  0  0
  147.3934  138.7162  153.9873 C   0  0  0  0  0  0  0  0  0  0  0  0
  147.2693  137.4306  154.3594 N   0  0  0  0  0  0  0  0  0  0  0  0
  147.2760  136.2698  153.5392 C   0  0  0  0  0  0  0  0  0  0  0  0
  147.7050  134.9910  153.9708 C   0  0  0  0  0  0  0  0  0  0  0  0
  147.6472  133.9136  153.0657 C   0  0  0  0  0  0  0  0  0  0  0  0
  147.1574  134.1508  151.7669 C   0  0  0  0  0  0  0  0  0  0  0  0
  146.7320  135.3607  151.3465 N   0  0  0  0  0  0  0  0  0  0  0  0
  146.7886  136.3886  152.2200 C   0  0  0  0  0  0  0  0  0  0  0  0
  147.3257  139.5372  155.0456 N   0  0  0  0  0  0  0  0  0  0  0  0
  147.4067  140.9968  154.9884 C   0  0  2  0  0  0  0  0  0  0  0  0
  148.6730  141.4384  154.2338 C   0  0  0  0  0  0  0  0  0  0  0  0
  149.9550  141.1870  155.0504 C   0  0  0  0  0  0  0  0  0  0  0  0
  149.8806  141.8317  156.3874 N   0  3  2  0  0  0  0  0  0  0  0  0
  151.1530  141.7315  157.1492 C   0  0  0  0  0  0  0  0  0  0  0  0
  151.2171  142.7462  158.3076 C   0  0  0  0  0  0  0  0  0  0  0  0
  151.5444  144.1679  157.8424 C   0  0  0  0  0  0  0  0  0  0  0  0
  152.0247  144.9015  159.0988 C   0  0  0  0  0  0  0  0  0  0  0  0
  152.5250  143.8163  160.0628 C   0  0  0  0  0  0  0  0  0  0  0  0
  152.3042  142.4763  159.3533 C   0  0  0  0  0  0  0  0  0  0  0  0
  148.7027  141.3517  157.1565 C   0  0  0  0  0  0  0  0  0  0  0  0
  147.3956  141.6289  156.3947 C   0  0  0  0  0  0  0  0  0  0  0  0
  147.0854  137.2655  155.3381 H   0  0  0  0  0  0  0  0  0  0  0  0
  148.0609  134.8118  154.9731 H   0  0  0  0  0  0  0  0  0  0  0  0
  147.9674  132.9256  153.3624 H   0  0  0  0  0  0  0  0  0  0  0  0
  147.1000  133.3462  151.0487 H   0  0  0  0  0  0  0  0  0  0  0  0
  146.4375  137.3409  151.8497 H   0  0  0  0  0  0  0  0  0  0  0  0
  147.2169  139.1211  155.9591 H   0  0  0  0  0  0  0  0  0  0  0  0
  146.5388  141.3576  154.4330 H   0  0  0  0  0  0  0  0  0  0  0  0
  148.7359  140.9311  153.2701 H   0  0  0  0  0  0  0  0  0  0  0  0
  148.6000  142.5033  154.0092 H   0  0  0  0  0  0  0  0  0  0  0  0
  150.1273  140.1162  155.1700 H   0  0  0  0  0  0  0  0  0  0  0  0
  150.8080  141.5855  154.4992 H   0  0  0  0  0  0  0  0  0  0  0  0
  151.3130  140.7126  157.5057 H   0  0  0  0  0  0  0  0  0  0  0  0
  151.9916  141.9428  156.4837 H   0  0  0  0  0  0  0  0  0  0  0  0
  150.2493  142.7752  158.8115 H   0  0  0  0  0  0  0  0  0  0  0  0
  152.3522  144.1417  157.1093 H   0  0  0  0  0  0  0  0  0  0  0  0
  150.6923  144.6623  157.3746 H   0  0  0  0  0  0  0  0  0  0  0  0
  152.8017  145.6294  158.8628 H   0  0  0  0  0  0  0  0  0  0  0  0
  151.1972  145.4455  159.5556 H   0  0  0  0  0  0  0  0  0  0  0  0
  153.5738  143.9566  160.3257 H   0  0  0  0  0  0  0  0  0  0  0  0
  151.9499  143.8522  160.9887 H   0  0  0  0  0  0  0  0  0  0  0  0
  152.0273  141.6859  160.0516 H   0  0  0  0  0  0  0  0  0  0  0  0
  153.2290  142.1750  158.8588 H   0  0  0  0  0  0  0  0  0  0  0  0
  148.8045  140.2835  157.3539 H   0  0  0  0  0  0  0  0  0  0  0  0
  148.6588  141.8425  158.1275 H   0  0  0  0  0  0  0  0  0  0  0  0
  147.2613  142.7074  156.3011 H   0  0  0  0  0  0  0  0  0  0  0  0
  146.5427  141.2714  156.9729 H   0  0  0  0  0  0  0  0  0  0  0  0
  149.7360  142.8162  156.2125 H   0  0  0  0  0  0  0  0  0  0  0  0
  1  2  2  0  0  0  0
  2  3  1  0  0  0  0
  2 10  1  0  0  0  0
  3  4  1  0  0  0  0
  3 23  1  0  0  0  0
  4  9  1  0  0  0  0
  4  5  2  0  0  0  0
  5  6  1  0  0  0  0
  5 24  1  0  0  0  0
  6  7  2  0  0  0  0
  6 25  1  0  0  0  0
  7  8  1  0  0  0  0
  7 26  1  0  0  0  0
  8  9  2  0  0  0  0
  9 27  1  0  0  0  0
 10 11  1  0  0  0  0
 10 28  1  0  0  0  0
 11 22  1  0  0  0  0
 11 12  1  0  0  0  0
 11 29  1  0  0  0  0
 12 13  1  0  0  0  0
 12 30  1  0  0  0  0
 12 31  1  0  0  0  0
 13 14  1  0  0  0  0
 13 32  1  0  0  0  0
 13 33  1  0  0  0  0
 14 15  1  0  0  0  0
 14 21  1  0  0  0  0
 14 49  1  0  0  0  0
 15 16  1  0  0  0  0
 15 34  1  0  0  0  0
 15 35  1  0  0  0  0
 16 20  1  0  0  0  0
 16 17  1  0  0  0  0
 16 36  1  0  0  0  0
 17 18  1  0  0  0  0
 17 37  1  0  0  0  0
 17 38  1  0  0  0  0
 18 19  1  0  0  0  0
 18 39  1  0  0  0  0
 18 40  1  0  0  0  0
 19 20  1  0  0  0  0
 19 41  1  0  0  0  0
 19 42  1  0  0  0  0
 20 43  1  0  0  0  0
 20 44  1  0  0  0  0
 21 22  1  0  0  0  0
 21 45  1  0  0  0  0
 21 46  1  0  0  0  0
 22 47  1  0  0  0  0
 22 48  1  0  0  0  0
M  CHG  1  14   1
M  END
> <s_m_source_file>
AV-unprocessed.smi

> <i_m_source_file_index>
604

> <i_lp_mmshare_version>
43012

> <i_f3d_flags>
0

> <s_epik_input>
W2NIXTFuW2NIXVtjSF1bY0hdYzFbTkhdQyg9TylbTkhdW0NIXTJbQ0gyXVtDSDJdTihbQ0gyXVtDSDJdMilbQ0gyXVtDSF0zW0NIMl1bQ0gyXVtDSDJdW0NIMl0z

> <s_epik_cmdline>
J2VwaWtfcHl0aG9uJywgJy1waCcsICc3LjAnLCAnLXRuJywgJzgnLCAnLW1hJywgJzIwMCcsICctbWV0YWxfYmluZGluZycsICctaW1hZScsICc8aW5maWxlLm1hZT4nLCAnLW9tYWUnLCAnPG91dGZpbGUubWFlPic=

> <r_lp_tautomer_probability>
1

> <r_epik_Ionization_Penalty>
0.00608112

> <r_epik_Ionization_Penalty_Charging>
0.00207989

> <r_epik_Ionization_Penalty_Neutral>
0.00400122

> <r_epik_State_Penalty>
-0

> <r_epik_Charging_Adjusted_Penalty>
0.00207989

> <i_epik_Tot_Q>
1

> <i_epik_Tot_abs_Q>
1

> <r_epik_Metal_State_Penalty>
-0

> <b_epik_Metal_Only>
0

> <s_lp_Force_Field>
OPLS_2005

> <r_lp_Energy>
40.9588

> <b_lp_Chiralities_Consistent>
1

> <s_lp_Variant>
AV-unprocessed.smi:604-2

> <Gold.Version>
5.8.1

> <Gold.Id.Protein>
6NUR|6NUR_protein|mol2

> <Gold.PLP.Fitness>
47.0561

> <Gold.PLP.PLP>
-38.9034

> <Gold.PLP.part.hbond>
-1.0000

> <Gold.PLP.part.metal>
0.0000

> <Gold.PLP.part.buried>
-2.4345

> <Gold.PLP.part.nonpolar>
-36.0727

> <Gold.PLP.part.repulsive>
0.6032

> <Gold.PLP.ligand.clash>
0.0000

> <Gold.PLP.ligand.torsion>
0.4410

> <Gold.PLP.Chemscore.Hbond>
2.0000

> <Gold.PLP.Chemscore.CHOScore>
0.9983

> <Gold.PLP.Chemscore.Metal>
0.0000

> <Gold.Chemscore.Hbonds>
donor molecule, donor type, donor heavy atom, donor atom, acceptor molecule, acceptor atom, score
      L1  H    14    49       P1  8028  1.37

> <Gold.PLP.Chemscore.Internal.Correction>
0.0398

> <Gold.Rescore>
     Score         DG    S(hbond)    S(metal)    S(lipo)     H(rot)  DE(clash)    DE(int)     intcor
     15.72     -17.92       1.00        0.00     107.27       1.35       0.44       1.77       ----

> <Gold.Chemscore.Fitness>
15.7161

> <Gold.Chemscore.DG>
-17.9227

> <Gold.Chemscore.ZeroCoef>
-5.4800

> <Gold.Chemscore.Hbond>
0.9991

> <Gold.Chemscore.Metal>
0.0000

> <Gold.Chemscore.Lipo>
107.2667

> <Gold.Chemscore.Internal_Hbond>
0.0000

> <Gold.Chemscore.DEClash>
0.4369

> <Gold.Chemscore.DEInternal>
1.7696

> <Gold.Chemscore.Rot>
1.3455

> <Gold.Chemscore.Internal.Correction>
   9.000000E+99

> <Gold.Chemscore.Hbonds>
donor molecule, donor type, donor heavy atom, donor atom, acceptor molecule, acceptor atom, score
      L1  H    14    49       P1  8028  0.69

> <Gold.Chemscore.Hbond.Weighted>
-3.3369

> <Gold.Chemscore.Metal.Weighted>
-0.0000

> <Gold.Chemscore.Lipo.Weighted>
-12.5502

> <Gold.Chemscore.Internal_Hbond.Weighted>
0.0000

> <Gold.Chemscore.DEClash.Weighted>
0.4369

> <Gold.Chemscore.DEInternal.Weighted>
1.7696

> <Gold.Chemscore.Rot.Weighted>
3.4445

> <Gold.Chemscore.Internal.Correction.Weighted>
   9.000000E+99

> <Gold.Protein.RotatedTorsions>
[ 6907 6896 6895 6894 ] final   24.37 input  -60.11 | X-H torsion
[ 7974 7965 7964 7962 ] final  110.37 input  175.53 | X-H torsion
[ 8008 7997 7996 7995 ] final  159.29 input   59.86 | X-H torsion
[ 10167 10162 10161 10158 ] final -155.44 input  -65.29 | X-H torsion
[ 10718 10713 10712 10709 ] final   98.94 input   66.30 | X-H torsion
[ 10763 10752 10751 10750 ] final  177.15 input  -60.55 | X-H torsion
[ 11005 11000 10999 10996 ] final -122.43 input  -57.11 | X-H torsion

> <Gold.Protein.ActiveResidues>
 VAL166  LYS551  ARG553  GLY616  TRP617  ASP618  TYR619  PRO620  LYS621  CYS622 
 ASP623  PHE694  ASN695  SER759  ASP760  ASP761  ALA762  ILE779  LEU786  VAL792 
 PHE793  MET794  SER795  GLU796  ALA797  LYS798  CYS799  TRP800  GLU811  SER814 

> <Gold.Protein.RotatedAtoms>
  151.9565  135.0144  160.0544 H   0  0  0  0  0  0  0  0  0  0  0  0  # atno 6907 bound_to 6896
  152.1907  133.4766  159.5014 H   0  0  0  0  0  0  0  0  0  0  0  0  # atno 6908 bound_to 6896
  150.6934  134.1634  159.4227 H   0  0  0  0  0  0  0  0  0  0  0  0  # atno 6909 bound_to 6896
  145.2559  139.2721  143.4043 H   0  0  0  0  0  0  0  0  0  0  0  0  # atno 7974 bound_to 7965
  156.2249  140.1835  156.7388 H   0  0  0  0  0  0  0  0  0  0  0  0  # atno 8008 bound_to 7997
  154.5924  140.0648  156.9285 H   0  0  0  0  0  0  0  0  0  0  0  0  # atno 8009 bound_to 7997
  155.2313  140.3315  155.4305 H   0  0  0  0  0  0  0  0  0  0  0  0  # atno 8010 bound_to 7997
  139.6931  143.9388  152.2394 H   0  0  0  0  0  0  0  0  0  0  0  0  # atno 10167 bound_to 10162
  157.6886  131.0655  150.4872 H   0  0  0  0  0  0  0  0  0  0  0  0  # atno 10718 bound_to 10713
  154.4907  135.2779  155.1499 H   0  0  0  0  0  0  0  0  0  0  0  0  # atno 10763 bound_to 10752
  154.3172  135.6217  153.5495 H   0  0  0  0  0  0  0  0  0  0  0  0  # atno 10764 bound_to 10752
  152.9887  135.5734  154.5327 H   0  0  0  0  0  0  0  0  0  0  0  0  # atno 10765 bound_to 10752
  140.9996  134.0422  157.3555 H   0  0  0  0  0  0  0  0  0  0  0  0  # atno 11005 bound_to 11000
  146.3289  140.2963  142.8618 LP  0  0  0  0  0  0  0  0  0  0  0  0  # atno 17320 bound_to 7965
  144.9461  140.8130  143.5600 LP  0  0  0  0  0  0  0  0  0  0  0  0  # atno 17321 bound_to 7965
  139.9209  144.6800  150.8462 LP  0  0  0  0  0  0  0  0  0  0  0  0  # atno 17342 bound_to 10162
  140.7688  143.3375  151.2277 LP  0  0  0  0  0  0  0  0  0  0  0  0  # atno 17343 bound_to 10162
  156.5201  130.4160  149.6255 LP  0  0  0  0  0  0  0  0  0  0  0  0  # atno 17370 bound_to 10713
  156.3162  130.7256  151.2158 LP  0  0  0  0  0  0  0  0  0  0  0  0  # atno 17371 bound_to 10713
  139.9032  135.0171  156.7365 LP  0  0  0  0  0  0  0  0  0  0  0  0  # atno 17394 bound_to 11000
  140.6911  133.9389  155.7967 LP  0  0  0  0  0  0  0  0  0  0  0  0  # atno 17395 bound_to 11000

$$$$
