AV-unprocessed.smi:1254|AV-procd|sdf|5269|dock4
  -GOLD-   22720 4383D 1   1.00000     0.00000
 Structure written by MMmdl.
 46 47  0  0  0  0  0  0  0  0  2 V2000
  150.4623  141.5065  155.8916 C   0  0  0  0  0  0  0  0  0  0  0  0
  150.6480  140.1488  155.3050 C   0  0  0  0  0  0  0  0  0  0  0  0
  149.8099  139.0803  155.1505 C   0  0  0  0  0  0  0  0  0  0  0  0
  150.6390  138.1118  154.5242 C   0  0  0  0  0  0  0  0  0  0  0  0
  150.1363  136.8279  154.1911 N   0  0  0  0  0  0  0  0  0  0  0  0
  150.4283  135.6568  154.7820 C   0  0  0  0  0  0  0  0  0  0  0  0
  151.2127  135.5098  155.7196 O   0  0  0  0  0  0  0  0  0  0  0  0
  149.7563  134.6434  154.2171 N   0  0  0  0  0  0  0  0  0  0  0  0
  149.8397  133.2466  154.6341 C   0  0  0  0  0  0  0  0  0  0  0  0
  149.1655  132.2800  153.6401 C   0  0  2  0  0  0  0  0  0  0  0  0
  147.7024  132.6556  153.3209 C   0  0  0  0  0  0  0  0  0  0  0  0
  147.0928  131.6485  152.4177 N   0  3  2  0  0  0  0  0  0  0  0  0
  145.6972  131.9649  152.0191 C   0  0  0  0  0  0  0  0  0  0  0  0
  145.5975  132.7056  150.6672 C   0  0  0  0  0  0  0  0  0  0  0  0
  144.1979  133.3128  150.4893 C   0  0  0  0  0  0  0  0  0  0  0  0
  145.9393  131.7889  149.4804 C   0  0  0  0  0  0  0  0  0  0  0  0
  147.2181  130.2916  153.0000 C   0  0  0  0  0  0  0  0  0  0  0  0
  148.6864  129.9852  153.3355 C   0  0  0  0  0  0  0  0  0  0  0  0
  149.1896  130.9797  154.2186 O   0  0  0  0  0  0  0  0  0  0  0  0
  151.8701  138.5507  154.3112 N   0  0  0  0  0  0  0  0  0  0  0  0
  151.8827  139.8578  154.8122 O   0  0  0  0  0  0  0  0  0  0  0  0
  149.4195  141.8179  155.8282 H   0  0  0  0  0  0  0  0  0  0  0  0
  151.0675  142.2451  155.3651 H   0  0  0  0  0  0  0  0  0  0  0  0
  150.7549  141.5152  156.9416 H   0  0  0  0  0  0  0  0  0  0  0  0
  148.7728  139.0063  155.4426 H   0  0  0  0  0  0  0  0  0  0  0  0
  149.4749  136.8015  153.4294 H   0  0  0  0  0  0  0  0  0  0  0  0
  149.1284  134.8541  153.4551 H   0  0  0  0  0  0  0  0  0  0  0  0
  150.8866  132.9716  154.7734 H   0  0  0  0  0  0  0  0  0  0  0  0
  149.3668  133.1597  155.6128 H   0  0  0  0  0  0  0  0  0  0  0  0
  149.7453  132.2600  152.7156 H   0  0  0  0  0  0  0  0  0  0  0  0
  147.1209  132.7225  154.2419 H   0  0  0  0  0  0  0  0  0  0  0  0
  147.6750  133.6387  152.8536 H   0  0  0  0  0  0  0  0  0  0  0  0
  145.1290  131.0365  151.9416 H   0  0  0  0  0  0  0  0  0  0  0  0
  145.2223  132.5463  152.8111 H   0  0  0  0  0  0  0  0  0  0  0  0
  146.2998  133.5386  150.6611 H   0  0  0  0  0  0  0  0  0  0  0  0
  143.4289  132.5396  150.4715 H   0  0  0  0  0  0  0  0  0  0  0  0
  144.1269  133.8732  149.5566 H   0  0  0  0  0  0  0  0  0  0  0  0
  143.9598  133.9999  151.3022 H   0  0  0  0  0  0  0  0  0  0  0  0
  145.2695  130.9293  149.4367 H   0  0  0  0  0  0  0  0  0  0  0  0
  146.9606  131.4128  149.5461 H   0  0  0  0  0  0  0  0  0  0  0  0
  145.8531  132.3243  148.5343 H   0  0  0  0  0  0  0  0  0  0  0  0
  146.6051  130.2215  153.9000 H   0  0  0  0  0  0  0  0  0  0  0  0
  146.8421  129.5479  152.2964 H   0  0  0  0  0  0  0  0  0  0  0  0
  148.7657  129.0109  153.8182 H   0  0  0  0  0  0  0  0  0  0  0  0
  149.2936  129.9423  152.4300 H   0  0  0  0  0  0  0  0  0  0  0  0
  147.6399  131.6431  151.5685 H   0  0  0  0  0  0  0  0  0  0  0  0
  1  2  1  0  0  0  0
  1 22  1  0  0  0  0
  1 23  1  0  0  0  0
  1 24  1  0  0  0  0
  2 21  1  0  0  0  0
  2  3  2  0  0  0  0
  3  4  1  0  0  0  0
  3 25  1  0  0  0  0
  4  5  1  0  0  0  0
  4 20  2  0  0  0  0
  5  6  1  0  0  0  0
  5 26  1  0  0  0  0
  6  7  2  0  0  0  0
  6  8  1  0  0  0  0
  8  9  1  0  0  0  0
  8 27  1  0  0  0  0
  9 10  1  0  0  0  0
  9 28  1  0  0  0  0
  9 29  1  0  0  0  0
 10 19  1  0  0  0  0
 10 11  1  0  0  0  0
 10 30  1  0  0  0  0
 11 12  1  0  0  0  0
 11 31  1  0  0  0  0
 11 32  1  0  0  0  0
 12 13  1  0  0  0  0
 12 17  1  0  0  0  0
 12 46  1  0  0  0  0
 13 14  1  0  0  0  0
 13 33  1  0  0  0  0
 13 34  1  0  0  0  0
 14 15  1  0  0  0  0
 14 16  1  0  0  0  0
 14 35  1  0  0  0  0
 15 36  1  0  0  0  0
 15 37  1  0  0  0  0
 15 38  1  0  0  0  0
 16 39  1  0  0  0  0
 16 40  1  0  0  0  0
 16 41  1  0  0  0  0
 17 18  1  0  0  0  0
 17 42  1  0  0  0  0
 17 43  1  0  0  0  0
 18 19  1  0  0  0  0
 18 44  1  0  0  0  0
 18 45  1  0  0  0  0
 20 21  1  0  0  0  0
M  CHG  1  12   1
M  END
> <s_m_source_file>
AV-unprocessed.smi

> <i_m_source_file_index>
1254

> <i_lp_mmshare_version>
43012

> <i_f3d_flags>
0

> <s_epik_input>
W0NIM11jMVtjSF1jKG5vMSlbTkhdQyg9TylbTkhdW0NIMl1bQ0BASF0yW0NIMl1OKFtDSDJdW0NIMl1PMilbQ0gyXVtDSF0oW0NIM10pW0NIM10=

> <s_epik_cmdline>
J2VwaWtfcHl0aG9uJywgJy1waCcsICc3LjAnLCAnLXRuJywgJzgnLCAnLW1hJywgJzIwMCcsICctbWV0YWxfYmluZGluZycsICctaW1hZScsICc8aW5maWxlLm1hZT4nLCAnLW9tYWUnLCAnPG91dGZpbGUubWFlPic=

> <r_epik_Ionization_Penalty>
0.0986825

> <r_epik_Ionization_Penalty_Charging>
0.0986478

> <r_epik_Ionization_Penalty_Neutral>
3.46838e-05

> <r_epik_State_Penalty>
0.0887259

> <r_epik_Charging_Adjusted_Penalty>
0.187374

> <i_epik_Tot_Q>
1

> <i_epik_Tot_abs_Q>
1

> <r_epik_Metal_State_Penalty>
0.103424

> <b_epik_Metal_Only>
0

> <s_lp_Force_Field>
OPLS_2005

> <r_lp_Energy>
15.3676

> <b_lp_Chiralities_Consistent>
1

> <s_lp_Variant>
AV-unprocessed.smi:1254-1

> <Gold.Version>
5.8.1

> <Gold.Id.Protein>
6NUR|6NUR_protein|mol2

> <Gold.PLP.Fitness>
49.2148

> <Gold.PLP.PLP>
-38.8917

> <Gold.PLP.part.hbond>
-5.9242

> <Gold.PLP.part.metal>
0.0000

> <Gold.PLP.part.buried>
-3.5797

> <Gold.PLP.part.nonpolar>
-29.8982

> <Gold.PLP.part.repulsive>
0.3879

> <Gold.PLP.ligand.clash>
0.0000

> <Gold.PLP.ligand.torsion>
1.3566

> <Gold.PLP.Chemscore.Hbond>
4.3081

> <Gold.PLP.Chemscore.CHOScore>
0.0000

> <Gold.PLP.Chemscore.Metal>
0.0000

> <Gold.Chemscore.Hbonds>
donor molecule, donor type, donor heavy atom, donor atom, acceptor molecule, acceptor atom, score
      L1  H     5    26       P1  7948  1.00
      L1  H     8    27       P1  7948  0.58
      L1  H    12    46       P1 10747  1.00
      P1  H  7989  7998       L1    21  0.57
      P1  H 10752 10763       L1     7  1.00

> <Gold.PLP.Chemscore.Internal.Correction>
0.1121

> <Gold.Rescore>
     Score         DG    S(hbond)    S(metal)    S(lipo)     H(rot)  DE(clash)    DE(int)     intcor
     18.84     -21.19       3.11        0.00      83.38       1.73       0.92       1.43       ----

> <Gold.Chemscore.Fitness>
18.8419

> <Gold.Chemscore.DG>
-21.1934

> <Gold.Chemscore.ZeroCoef>
-5.4800

> <Gold.Chemscore.Hbond>
3.1092

> <Gold.Chemscore.Metal>
0.0000

> <Gold.Chemscore.Lipo>
83.3791

> <Gold.Chemscore.Internal_Hbond>
0.0000

> <Gold.Chemscore.DEClash>
0.9176

> <Gold.Chemscore.DEInternal>
1.4339

> <Gold.Chemscore.Rot>
1.7291

> <Gold.Chemscore.Internal.Correction>
   9.000000E+99

> <Gold.Chemscore.Hbonds>
donor molecule, donor type, donor heavy atom, donor atom, acceptor molecule, acceptor atom, score
      L1  H     5    26       P1  7948  0.78
      L1  H     8    27       P1  7948  0.10
      L1  H    12    46       P1 10747  0.92
      P1  H  7989  7998       L1    21  0.02
      P1  H 10752 10763       L1     7  0.43

> <Gold.Chemscore.Hbond.Weighted>
-10.3846

> <Gold.Chemscore.Metal.Weighted>
-0.0000

> <Gold.Chemscore.Lipo.Weighted>
-9.7554

> <Gold.Chemscore.Internal_Hbond.Weighted>
0.0000

> <Gold.Chemscore.DEClash.Weighted>
0.9176

> <Gold.Chemscore.DEInternal.Weighted>
1.4339

> <Gold.Chemscore.Rot.Weighted>
4.4265

> <Gold.Chemscore.Internal.Correction.Weighted>
   9.000000E+99

> <Gold.Protein.RotatedTorsions>
[ 6907 6896 6895 6894 ] final   83.66 input  -60.11 | X-H torsion
[ 7974 7965 7964 7962 ] final -134.44 input  175.53 | X-H torsion
[ 8008 7997 7996 7995 ] final -105.15 input   59.86 | X-H torsion
[ 10167 10162 10161 10158 ] final  103.66 input  -65.29 | X-H torsion
[ 10718 10713 10712 10709 ] final -106.40 input   66.30 | X-H torsion
[ 10763 10752 10751 10750 ] final   75.65 input  -60.55 | X-H torsion
[ 11005 11000 10999 10996 ] final  -11.28 input  -57.11 | X-H torsion

> <Gold.Protein.ActiveResidues>
 VAL166  LYS551  ARG553  GLY616  TRP617  ASP618  TYR619  PRO620  LYS621  CYS622 
 ASP623  PHE694  ASN695  SER759  ASP760  ASP761  ALA762  ILE779  LEU786  VAL792 
 PHE793  MET794  SER795  GLU796  ALA797  LYS798  CYS799  TRP800  GLU811  SER814 

> <Gold.Protein.RotatedAtoms>
  152.5333  134.2861  159.9025 H   0  0  0  0  0  0  0  0  0  0  0  0  # atno 6907 bound_to 6896
  151.2814  133.4201  159.2635 H   0  0  0  0  0  0  0  0  0  0  0  0  # atno 6908 bound_to 6896
  151.0280  134.9534  159.8152 H   0  0  0  0  0  0  0  0  0  0  0  0  # atno 6909 bound_to 6896
  144.9103  140.6886  143.5029 H   0  0  0  0  0  0  0  0  0  0  0  0  # atno 7974 bound_to 7965
  154.8956  140.0414  157.1864 H   0  0  0  0  0  0  0  0  0  0  0  0  # atno 8008 bound_to 7997
  154.8496  140.2927  155.5586 H   0  0  0  0  0  0  0  0  0  0  0  0  # atno 8009 bound_to 7997
  156.2995  140.2467  156.3452 H   0  0  0  0  0  0  0  0  0  0  0  0  # atno 8010 bound_to 7997
  139.7244  144.7051  151.0821 H   0  0  0  0  0  0  0  0  0  0  0  0  # atno 10167 bound_to 10162
  156.0388  130.5611  150.7675 H   0  0  0  0  0  0  0  0  0  0  0  0  # atno 10718 bound_to 10713
  153.0669  135.4981  154.8220 H   0  0  0  0  0  0  0  0  0  0  0  0  # atno 10763 bound_to 10752
  154.6967  135.2994  154.9404 H   0  0  0  0  0  0  0  0  0  0  0  0  # atno 10764 bound_to 10752
  154.0141  135.6750  153.4820 H   0  0  0  0  0  0  0  0  0  0  0  0  # atno 10765 bound_to 10752
  140.7536  133.8572  155.9065 H   0  0  0  0  0  0  0  0  0  0  0  0  # atno 11005 bound_to 11000
  145.3466  139.1717  143.4457 LP  0  0  0  0  0  0  0  0  0  0  0  0  # atno 17320 bound_to 7965
  146.3155  140.3513  142.8656 LP  0  0  0  0  0  0  0  0  0  0  0  0  # atno 17321 bound_to 7965
  140.7760  143.5124  150.9636 LP  0  0  0  0  0  0  0  0  0  0  0  0  # atno 17342 bound_to 10162
  139.8811  143.7070  152.3157 LP  0  0  0  0  0  0  0  0  0  0  0  0  # atno 17343 bound_to 10162
  157.5178  131.0929  151.0117 LP  0  0  0  0  0  0  0  0  0  0  0  0  # atno 17370 bound_to 10713
  157.0456  130.5766  149.5362 LP  0  0  0  0  0  0  0  0  0  0  0  0  # atno 17371 bound_to 10713
  140.9728  134.1508  157.4561 LP  0  0  0  0  0  0  0  0  0  0  0  0  # atno 17394 bound_to 11000
  139.8783  134.9984  156.5900 LP  0  0  0  0  0  0  0  0  0  0  0  0  # atno 17395 bound_to 11000

$$$$
