AV-unprocessed.smi:910|AV-procd|sdf|4118|dock7
  -GOLD-   22720 2 13D 1   1.00000     0.00000
 Structure written by MMmdl.
 46 47  0  0  0  0  0  0  0  0  1 V2000
  145.7703  129.6606  151.7612 C   0  0  0  0  0  0  0  0  0  0  0  0
  146.1039  131.1189  151.7235 C   0  0  0  0  0  0  0  0  0  0  0  0
  146.8511  131.7274  152.7217 N   0  0  0  0  0  0  0  0  0  0  0  0
  146.9370  133.0045  152.3453 C   0  0  0  0  0  0  0  0  0  0  0  0
  147.6269  134.0391  153.0253 N   0  0  0  0  0  0  0  0  0  0  0  0
  147.9863  134.0611  154.3190 C   0  0  0  0  0  0  0  0  0  0  0  0
  147.6388  133.2344  155.1630 O   0  0  0  0  0  0  0  0  0  0  0  0
  148.7906  135.1010  154.5851 N   0  0  0  0  0  0  0  0  0  0  0  0
  149.4551  135.3387  155.8628 C   0  0  0  0  0  0  0  0  0  0  0  0
  150.6053  136.3464  155.7117 C   0  0  0  0  0  0  0  0  0  0  0  0
  150.0613  137.6569  155.6797 O   0  0  0  0  0  0  0  0  0  0  0  0
  150.9472  138.6785  155.2407 C   0  0  2  0  0  0  0  0  0  0  0  0
  152.2291  138.6913  156.1029 C   0  0  0  0  0  0  0  0  0  0  0  0
  151.9284  139.0421  157.5702 C   0  0  0  0  0  0  0  0  0  0  0  0
  151.1750  140.3758  157.6829 C   0  0  0  0  0  0  0  0  0  0  0  0
  149.8998  140.3736  156.8248 C   0  0  0  0  0  0  0  0  0  0  0  0
  150.2073  140.0306  155.3524 C   0  0  2  0  0  0  0  0  0  0  0  0
  148.9422  140.0704  154.4810 C   0  0  0  0  0  0  0  0  0  0  0  0
  146.3046  133.2761  151.1730 O   0  0  0  0  0  0  0  0  0  0  0  0
  145.7761  132.0714  150.7916 C   0  0  0  0  0  0  0  0  0  0  0  0
  145.0003  132.0258  149.5192 C   0  0  0  0  0  0  0  0  0  0  0  0
  145.5925  129.2683  150.7596 H   0  0  0  0  0  0  0  0  0  0  0  0
  144.8725  129.4799  152.3524 H   0  0  0  0  0  0  0  0  0  0  0  0
  146.5808  129.0797  152.2025 H   0  0  0  0  0  0  0  0  0  0  0  0
  147.9349  134.8103  152.4520 H   0  0  0  0  0  0  0  0  0  0  0  0
  149.0115  135.7375  153.8336 H   0  0  0  0  0  0  0  0  0  0  0  0
  148.7119  135.7364  156.5540 H   0  0  0  0  0  0  0  0  0  0  0  0
  149.8138  134.4041  156.2974 H   0  0  0  0  0  0  0  0  0  0  0  0
  151.3141  136.2232  156.5305 H   0  0  0  0  0  0  0  0  0  0  0  0
  151.1465  136.1605  154.7833 H   0  0  0  0  0  0  0  0  0  0  0  0
  151.2100  138.5086  154.1950 H   0  0  0  0  0  0  0  0  0  0  0  0
  152.7473  137.7346  156.0502 H   0  0  0  0  0  0  0  0  0  0  0  0
  152.9238  139.4272  155.6964 H   0  0  0  0  0  0  0  0  0  0  0  0
  151.3346  138.2487  158.0241 H   0  0  0  0  0  0  0  0  0  0  0  0
  152.8574  139.0926  158.1383 H   0  0  0  0  0  0  0  0  0  0  0  0
  150.9212  140.5714  158.7252 H   0  0  0  0  0  0  0  0  0  0  0  0
  151.8268  141.1903  157.3647 H   0  0  0  0  0  0  0  0  0  0  0  0
  149.1880  139.6549  157.2335 H   0  0  0  0  0  0  0  0  0  0  0  0
  149.4185  141.3502  156.8879 H   0  0  0  0  0  0  0  0  0  0  0  0
  150.8778  140.8020  154.9706 H   0  0  0  0  0  0  0  0  0  0  0  0
  148.2065  139.3361  154.8108 H   0  0  0  0  0  0  0  0  0  0  0  0
  149.1776  139.8605  153.4374 H   0  0  0  0  0  0  0  0  0  0  0  0
  148.4702  141.0524  154.5211 H   0  0  0  0  0  0  0  0  0  0  0  0
  144.1921  131.2970  149.5828 H   0  0  0  0  0  0  0  0  0  0  0  0
  145.6444  131.7453  148.6857 H   0  0  0  0  0  0  0  0  0  0  0  0
  144.5600  132.9978  149.2953 H   0  0  0  0  0  0  0  0  0  0  0  0
  1  2  1  0  0  0  0
  1 22  1  0  0  0  0
  1 23  1  0  0  0  0
  1 24  1  0  0  0  0
  2 20  2  0  0  0  0
  2  3  1  0  0  0  0
  3  4  2  0  0  0  0
  4  5  1  0  0  0  0
  4 19  1  0  0  0  0
  5  6  1  0  0  0  0
  5 25  1  0  0  0  0
  6  7  2  0  0  0  0
  6  8  1  0  0  0  0
  8  9  1  0  0  0  0
  8 26  1  0  0  0  0
  9 10  1  0  0  0  0
  9 27  1  0  0  0  0
  9 28  1  0  0  0  0
 10 11  1  0  0  0  0
 10 29  1  0  0  0  0
 10 30  1  0  0  0  0
 11 12  1  0  0  0  0
 12 17  1  0  0  0  0
 12 13  1  0  0  0  0
 12 31  1  0  0  0  0
 13 14  1  0  0  0  0
 13 32  1  0  0  0  0
 13 33  1  0  0  0  0
 14 15  1  0  0  0  0
 14 34  1  0  0  0  0
 14 35  1  0  0  0  0
 15 16  1  0  0  0  0
 15 36  1  0  0  0  0
 15 37  1  0  0  0  0
 16 17  1  0  0  0  0
 16 38  1  0  0  0  0
 16 39  1  0  0  0  0
 17 18  1  0  0  0  0
 17 40  1  0  0  0  0
 18 41  1  0  0  0  0
 18 42  1  0  0  0  0
 18 43  1  0  0  0  0
 19 20  1  0  0  0  0
 20 21  1  0  0  0  0
 21 44  1  0  0  0  0
 21 45  1  0  0  0  0
 21 46  1  0  0  0  0
M  END
> <s_m_source_file>
AV-unprocessed.smi

> <i_m_source_file_index>
910

> <i_lp_mmshare_version>
43012

> <i_f3d_flags>
0

> <s_epik_input>
W0NIM11jMW5jKG9jMVtDSDNdKVtOSF1DKD1PKVtOSF1bQ0gyXVtDSDJdT1tDQEBIXTJbQ0gyXVtDSDJdW0NIMl1bQ0gyXVtDQEhdMltDSDNd

> <s_epik_cmdline>
J2VwaWtfcHl0aG9uJywgJy1waCcsICc3LjAnLCAnLXRuJywgJzgnLCAnLW1hJywgJzIwMCcsICctbWV0YWxfYmluZGluZycsICctaW1hZScsICc8aW5maWxlLm1hZT4nLCAnLW9tYWUnLCAnPG91dGZpbGUubWFlPic=

> <r_lp_tautomer_probability>
0.785861

> <r_epik_Ionization_Penalty>
4.15957e-05

> <r_epik_Ionization_Penalty_Charging>
0

> <r_epik_Ionization_Penalty_Neutral>
4.15957e-05

> <r_epik_State_Penalty>
0.0240523

> <r_epik_Charging_Adjusted_Penalty>
0.0240523

> <i_epik_Tot_Q>
0

> <i_epik_Tot_abs_Q>
0

> <r_epik_Metal_State_Penalty>
0.057053

> <b_epik_Metal_Only>
0

> <s_lp_Force_Field>
OPLS_2005

> <r_lp_Energy>
8.47643

> <b_lp_Chiralities_Consistent>
1

> <s_lp_Variant>
AV-unprocessed.smi:910-3

> <Gold.Version>
5.8.1

> <Gold.Id.Protein>
6NUR|6NUR_protein|mol2

> <Gold.PLP.Fitness>
40.7533

> <Gold.PLP.PLP>
-35.5266

> <Gold.PLP.part.hbond>
-2.0000

> <Gold.PLP.part.metal>
0.0000

> <Gold.PLP.part.buried>
-2.8681

> <Gold.PLP.part.nonpolar>
-31.0519

> <Gold.PLP.part.repulsive>
0.4010

> <Gold.PLP.ligand.clash>
0.0000

> <Gold.PLP.ligand.torsion>
0.3454

> <Gold.PLP.Chemscore.Hbond>
1.9600

> <Gold.PLP.Chemscore.CHOScore>
0.0000

> <Gold.PLP.Chemscore.Metal>
0.0000

> <Gold.Chemscore.Hbonds>
donor molecule, donor type, donor heavy atom, donor atom, acceptor molecule, acceptor atom, score
      L1  H     5    25       P1  7948  1.00
      L1  H     8    26       P1  7948  1.00

> <Gold.PLP.Chemscore.Internal.Correction>
0.0375

> <Gold.Rescore>
     Score         DG    S(hbond)    S(metal)    S(lipo)     H(rot)  DE(clash)    DE(int)     intcor
     16.13     -17.72       1.63        0.00      94.33       1.66       0.04       1.55       ----

> <Gold.Chemscore.Fitness>
16.1306

> <Gold.Chemscore.DG>
-17.7220

> <Gold.Chemscore.ZeroCoef>
-5.4800

> <Gold.Chemscore.Hbond>
1.6313

> <Gold.Chemscore.Metal>
0.0000

> <Gold.Chemscore.Lipo>
94.3328

> <Gold.Chemscore.Internal_Hbond>
0.0000

> <Gold.Chemscore.DEClash>
0.0442

> <Gold.Chemscore.DEInternal>
1.5472

> <Gold.Chemscore.Rot>
1.6576

> <Gold.Chemscore.Internal.Correction>
   9.000000E+99

> <Gold.Chemscore.Hbonds>
donor molecule, donor type, donor heavy atom, donor atom, acceptor molecule, acceptor atom, score
      L1  H     5    25       P1  7948  0.74
      L1  H     8    26       P1  7948  0.82

> <Gold.Chemscore.Hbond.Weighted>
-5.4486

> <Gold.Chemscore.Metal.Weighted>
-0.0000

> <Gold.Chemscore.Lipo.Weighted>
-11.0369

> <Gold.Chemscore.Internal_Hbond.Weighted>
0.0000

> <Gold.Chemscore.DEClash.Weighted>
0.0442

> <Gold.Chemscore.DEInternal.Weighted>
1.5472

> <Gold.Chemscore.Rot.Weighted>
4.2436

> <Gold.Chemscore.Internal.Correction.Weighted>
   9.000000E+99

> <Gold.Protein.RotatedTorsions>
[ 6907 6896 6895 6894 ] final   67.50 input  -60.11 | X-H torsion
[ 7974 7965 7964 7962 ] final  -11.06 input  175.53 | X-H torsion
[ 8008 7997 7996 7995 ] final -163.22 input   59.86 | X-H torsion
[ 10167 10162 10161 10158 ] final  179.26 input  -65.29 | X-H torsion
[ 10718 10713 10712 10709 ] final   30.29 input   66.30 | X-H torsion
[ 10763 10752 10751 10750 ] final  179.05 input  -60.55 | X-H torsion
[ 11005 11000 10999 10996 ] final   47.85 input  -57.11 | X-H torsion

> <Gold.Protein.ActiveResidues>
 VAL166  LYS551  ARG553  GLY616  TRP617  ASP618  TYR619  PRO620  LYS621  CYS622 
 ASP623  PHE694  ASN695  SER759  ASP760  ASP761  ALA762  ILE779  LEU786  VAL792 
 PHE793  MET794  SER795  GLU796  ALA797  LYS798  CYS799  TRP800  GLU811  SER814 

> <Gold.Protein.RotatedAtoms>
  152.4556  134.5298  159.9807 H   0  0  0  0  0  0  0  0  0  0  0  0  # atno 6907 bound_to 6896
  151.5360  133.3435  159.2934 H   0  0  0  0  0  0  0  0  0  0  0  0  # atno 6908 bound_to 6896
  150.8500  134.7852  159.7063 H   0  0  0  0  0  0  0  0  0  0  0  0  # atno 6909 bound_to 6896
  146.2200  140.2856  142.8365 H   0  0  0  0  0  0  0  0  0  0  0  0  # atno 7974 bound_to 7965
  155.8182  140.0915  157.1865 H   0  0  0  0  0  0  0  0  0  0  0  0  # atno 8008 bound_to 7997
  154.3979  140.1442  156.3528 H   0  0  0  0  0  0  0  0  0  0  0  0  # atno 8009 bound_to 7997
  155.8294  140.3443  155.5565 H   0  0  0  0  0  0  0  0  0  0  0  0  # atno 8010 bound_to 7997
  139.5328  144.2583  152.0728 H   0  0  0  0  0  0  0  0  0  0  0  0  # atno 10167 bound_to 10162
  157.2577  130.7146  149.6437 H   0  0  0  0  0  0  0  0  0  0  0  0  # atno 10718 bound_to 10713
  154.5156  135.2791  155.1306 H   0  0  0  0  0  0  0  0  0  0  0  0  # atno 10763 bound_to 10752
  154.2883  135.6272  153.5378 H   0  0  0  0  0  0  0  0  0  0  0  0  # atno 10764 bound_to 10752
  152.9927  135.5668  154.5633 H   0  0  0  0  0  0  0  0  0  0  0  0  # atno 10765 bound_to 10752
  140.1242  134.4789  155.8572 H   0  0  0  0  0  0  0  0  0  0  0  0  # atno 11005 bound_to 11000
  144.9165  140.7818  143.5775 LP  0  0  0  0  0  0  0  0  0  0  0  0  # atno 17320 bound_to 7965
  145.2790  139.1925  143.4801 LP  0  0  0  0  0  0  0  0  0  0  0  0  # atno 17321 bound_to 7965
  140.2049  144.4621  150.6414 LP  0  0  0  0  0  0  0  0  0  0  0  0  # atno 17342 bound_to 10162
  140.6518  143.2227  151.6061 LP  0  0  0  0  0  0  0  0  0  0  0  0  # atno 17343 bound_to 10162
  155.9664  130.4407  150.5312 LP  0  0  0  0  0  0  0  0  0  0  0  0  # atno 17370 bound_to 10713
  157.3210  131.0682  151.1932 LP  0  0  0  0  0  0  0  0  0  0  0  0  # atno 17371 bound_to 10713
  141.2158  133.6772  156.6947 LP  0  0  0  0  0  0  0  0  0  0  0  0  # atno 17394 bound_to 11000
  140.2925  134.8229  157.4029 LP  0  0  0  0  0  0  0  0  0  0  0  0  # atno 17395 bound_to 11000

$$$$
