AV-unprocessed.smi:1826|AV-procd|sdf|7416|dock10
  -GOLD-   22720 9 93D 1   1.00000     0.00000
 Structure written by MMmdl.
 39 41  0  0  0  0  0  0  0  0  1 V2000
  151.7876  136.7494  153.7604 O   0  0  0  0  0  0  0  0  0  0  0  0
  151.0145  136.4806  154.9105 C   0  0  0  0  0  0  0  0  0  0  0  0
  149.8118  137.3670  155.0187 C   0  0  0  0  0  0  0  0  0  0  0  0
  148.5713  136.8788  154.9747 N   0  0  0  0  0  0  0  0  0  0  0  0
  147.7934  138.0129  155.1020 C   0  0  0  0  0  0  0  0  0  0  0  0
  146.3885  138.1655  155.1282 C   0  0  0  0  0  0  0  0  0  0  0  0
  145.8121  139.4449  155.2697 C   0  0  0  0  0  0  0  0  0  0  0  0
  146.6300  140.5876  155.3862 C   0  0  0  0  0  0  0  0  0  0  0  0
  148.0319  140.4578  155.3622 C   0  0  0  0  0  0  0  0  0  0  0  0
  148.6019  139.1785  155.2215 C   0  0  0  0  0  0  0  0  0  0  0  0
  149.9112  138.7129  155.1648 N   0  0  0  0  0  0  0  0  0  0  0  0
  151.1128  139.5331  155.2452 C   0  0  0  0  0  0  0  0  0  0  0  0
  151.8839  139.3267  156.5644 C   0  0  1  0  0  0  0  0  0  0  0  0
  153.2601  139.1366  156.2977 O   0  0  0  0  0  0  0  0  0  0  0  0
  151.6408  140.4736  157.5328 C   0  0  0  0  0  0  0  0  0  0  0  0
  150.6354  141.4253  157.2621 C   0  0  0  0  0  0  0  0  0  0  0  0
  150.4092  142.4921  158.1532 C   0  0  0  0  0  0  0  0  0  0  0  0
  151.1842  142.6220  159.3251 C   0  0  0  0  0  0  0  0  0  0  0  0
  150.9256  143.7844  160.2723 C   0  0  0  0  0  0  0  0  0  0  0  0
  151.8037  143.8123  161.2754 F   0  0  0  0  0  0  0  0  0  0  0  0
  151.0133  144.9302  159.5976 F   0  0  0  0  0  0  0  0  0  0  0  0
  149.7010  143.6833  160.7895 F   0  0  0  0  0  0  0  0  0  0  0  0
  152.1961  141.6734  159.5913 C   0  0  0  0  0  0  0  0  0  0  0  0
  152.4226  140.6062  158.7006 C   0  0  0  0  0  0  0  0  0  0  0  0
  151.2918  136.4898  152.9993 H   0  0  0  0  0  0  0  0  0  0  0  0
  150.6926  135.4391  154.8779 H   0  0  0  0  0  0  0  0  0  0  0  0
  151.6356  136.5873  155.7996 H   0  0  0  0  0  0  0  0  0  0  0  0
  145.7536  137.2966  155.0392 H   0  0  0  0  0  0  0  0  0  0  0  0
  144.7373  139.5501  155.2882 H   0  0  0  0  0  0  0  0  0  0  0  0
  146.1803  141.5639  155.4937 H   0  0  0  0  0  0  0  0  0  0  0  0
  148.6616  141.3305  155.4512 H   0  0  0  0  0  0  0  0  0  0  0  0
  151.7545  139.3319  154.3877 H   0  0  0  0  0  0  0  0  0  0  0  0
  150.8101  140.5771  155.1544 H   0  0  0  0  0  0  0  0  0  0  0  0
  151.5325  138.4069  157.0337 H   0  0  0  0  0  0  0  0  0  0  0  0
  153.3623  138.3320  155.8126 H   0  0  0  0  0  0  0  0  0  0  0  0
  150.0335  141.3424  156.3690 H   0  0  0  0  0  0  0  0  0  0  0  0
  149.6373  143.2157  157.9351 H   0  0  0  0  0  0  0  0  0  0  0  0
  152.8074  141.7565  160.4775 H   0  0  0  0  0  0  0  0  0  0  0  0
  153.2021  139.8900  158.9159 H   0  0  0  0  0  0  0  0  0  0  0  0
  1  2  1  0  0  0  0
  1 25  1  0  0  0  0
  2  3  1  0  0  0  0
  2 26  1  0  0  0  0
  2 27  1  0  0  0  0
  3 11  1  0  0  0  0
  3  4  2  0  0  0  0
  4  5  1  0  0  0  0
  5 10  2  0  0  0  0
  5  6  1  0  0  0  0
  6  7  2  0  0  0  0
  6 28  1  0  0  0  0
  7  8  1  0  0  0  0
  7 29  1  0  0  0  0
  8  9  2  0  0  0  0
  8 30  1  0  0  0  0
  9 10  1  0  0  0  0
  9 31  1  0  0  0  0
 10 11  1  0  0  0  0
 11 12  1  0  0  0  0
 12 13  1  0  0  0  0
 12 32  1  0  0  0  0
 12 33  1  0  0  0  0
 13 14  1  0  0  0  0
 13 15  1  0  0  0  0
 13 34  1  0  0  0  0
 14 35  1  0  0  0  0
 15 24  1  0  0  0  0
 15 16  2  0  0  0  0
 16 17  1  0  0  0  0
 16 36  1  0  0  0  0
 17 18  2  0  0  0  0
 17 37  1  0  0  0  0
 18 19  1  0  0  0  0
 18 23  1  0  0  0  0
 19 20  1  0  0  0  0
 19 21  1  0  0  0  0
 19 22  1  0  0  0  0
 23 24  2  0  0  0  0
 23 38  1  0  0  0  0
 24 39  1  0  0  0  0
M  END
> <s_m_source_file>
AV-unprocessed.smi

> <i_m_source_file_index>
1826

> <i_lp_mmshare_version>
43012

> <i_f3d_flags>
0

> <s_epik_input>
W2NIXTFbY0hdW2NIXVtjSF1jKGMxMiluKGMobjIpW0NIMl1bT0hdKVtDSDJdW0NASF0oW09IXSljM1tjSF1bY0hdYyhDKEYpKEYpRilbY0hdW2NIXTM=

> <s_epik_cmdline>
J2VwaWtfcHl0aG9uJywgJy1waCcsICc3LjAnLCAnLXRuJywgJzgnLCAnLW1hJywgJzIwMCcsICctbWV0YWxfYmluZGluZycsICctaW1hZScsICc8aW5maWxlLm1hZT4nLCAnLW9tYWUnLCAnPG91dGZpbGUubWFlPic=

> <r_epik_Ionization_Penalty>
0.0634718

> <r_epik_Ionization_Penalty_Charging>
0

> <r_epik_Ionization_Penalty_Neutral>
0.0634718

> <r_epik_State_Penalty>
0.0551572

> <r_epik_Charging_Adjusted_Penalty>
0.0551572

> <i_epik_Tot_Q>
0

> <i_epik_Tot_abs_Q>
0

> <r_epik_Metal_State_Penalty>
5.78034e-05

> <b_epik_Metal_Only>
0

> <s_lp_Force_Field>
OPLS_2005

> <r_lp_Energy>
14.1967

> <b_lp_Chiralities_Consistent>
1

> <s_lp_Variant>
AV-unprocessed.smi:1826-2

> <Gold.Version>
5.8.1

> <Gold.Id.Protein>
6NUR|6NUR_protein|mol2

> <Gold.PLP.Fitness>
61.4746

> <Gold.PLP.PLP>
-54.5182

> <Gold.PLP.part.hbond>
-3.0000

> <Gold.PLP.part.metal>
0.0000

> <Gold.PLP.part.buried>
-5.8048

> <Gold.PLP.part.nonpolar>
-46.6581

> <Gold.PLP.part.repulsive>
0.8570

> <Gold.PLP.ligand.clash>
0.0000

> <Gold.PLP.ligand.torsion>
1.0830

> <Gold.PLP.Chemscore.Hbond>
3.0000

> <Gold.PLP.Chemscore.CHOScore>
0.0000

> <Gold.PLP.Chemscore.Metal>
0.0000

> <Gold.Chemscore.Hbonds>
donor molecule, donor type, donor heavy atom, donor atom, acceptor molecule, acceptor atom, score
      L1  H     1    25       P1  7949  1.00
      P1  H  7997  8008       L1    14  0.80
      P1  H 10752 10763       L1     1  0.55

> <Gold.PLP.Chemscore.Internal.Correction>
0.1224

> <Gold.Rescore>
     Score         DG    S(hbond)    S(metal)    S(lipo)     H(rot)  DE(clash)    DE(int)     intcor
     17.76     -18.72       2.46        0.00     106.66       2.91       0.29       0.67       ----

> <Gold.Chemscore.Fitness>
17.7601

> <Gold.Chemscore.DG>
-18.7220

> <Gold.Chemscore.ZeroCoef>
-5.4800

> <Gold.Chemscore.Hbond>
2.4620

> <Gold.Chemscore.Metal>
0.0000

> <Gold.Chemscore.Lipo>
106.6580

> <Gold.Chemscore.Internal_Hbond>
0.0000

> <Gold.Chemscore.DEClash>
0.2922

> <Gold.Chemscore.DEInternal>
0.6697

> <Gold.Chemscore.Rot>
2.9141

> <Gold.Chemscore.Internal.Correction>
   9.000000E+99

> <Gold.Chemscore.Hbonds>
donor molecule, donor type, donor heavy atom, donor atom, acceptor molecule, acceptor atom, score
      L1  H     1    25       P1  7949  0.67
      P1  H  7997  8008       L1    14  0.77
      P1  H 10752 10763       L1     1  0.03

> <Gold.Chemscore.Hbond.Weighted>
-8.2231

> <Gold.Chemscore.Metal.Weighted>
-0.0000

> <Gold.Chemscore.Lipo.Weighted>
-12.4790

> <Gold.Chemscore.Internal_Hbond.Weighted>
0.0000

> <Gold.Chemscore.DEClash.Weighted>
0.2922

> <Gold.Chemscore.DEInternal.Weighted>
0.6697

> <Gold.Chemscore.Rot.Weighted>
7.4600

> <Gold.Chemscore.Internal.Correction.Weighted>
   9.000000E+99

> <Gold.Protein.RotatedTorsions>
[ 6907 6896 6895 6894 ] final   46.04 input  -60.11 | X-H torsion
[ 7974 7965 7964 7962 ] final  -57.73 input  175.53 | X-H torsion
[ 8008 7997 7996 7995 ] final  -46.49 input   59.86 | X-H torsion
[ 10167 10162 10161 10158 ] final  160.84 input  -65.29 | X-H torsion
[ 10718 10713 10712 10709 ] final  152.07 input   66.30 | X-H torsion
[ 10763 10752 10751 10750 ] final   40.82 input  -60.55 | X-H torsion
[ 11005 11000 10999 10996 ] final  172.93 input  -57.11 | X-H torsion

> <Gold.Protein.ActiveResidues>
 VAL166  LYS551  ARG553  GLY616  TRP617  ASP618  TYR619  PRO620  LYS621  CYS622 
 ASP623  PHE694  ASN695  SER759  ASP760  ASP761  ALA762  ILE779  LEU786  VAL792 
 PHE793  MET794  SER795  GLU796  ALA797  LYS798  CYS799  TRP800  GLU811  SER814 

> <Gold.Protein.RotatedAtoms>
  152.2517  134.8125  160.0444 H   0  0  0  0  0  0  0  0  0  0  0  0  # atno 6907 bound_to 6896
  151.8803  133.3489  159.3772 H   0  0  0  0  0  0  0  0  0  0  0  0  # atno 6908 bound_to 6896
  150.7086  134.4952  159.5579 H   0  0  0  0  0  0  0  0  0  0  0  0  # atno 6909 bound_to 6896
  145.8476  140.8374  143.0002 H   0  0  0  0  0  0  0  0  0  0  0  0  # atno 7974 bound_to 7965
  154.4008  140.1370  156.4020 H   0  0  0  0  0  0  0  0  0  0  0  0  # atno 8008 bound_to 7997
  155.7815  140.3481  155.5280 H   0  0  0  0  0  0  0  0  0  0  0  0  # atno 8009 bound_to 7997
  155.8669  140.0965  157.1567 H   0  0  0  0  0  0  0  0  0  0  0  0  # atno 8010 bound_to 7997
  139.4843  144.4595  151.8724 H   0  0  0  0  0  0  0  0  0  0  0  0  # atno 10167 bound_to 10162
  157.2626  131.0801  151.1655 H   0  0  0  0  0  0  0  0  0  0  0  0  # atno 10718 bound_to 10713
  152.9925  135.6180  154.2687 H   0  0  0  0  0  0  0  0  0  0  0  0  # atno 10763 bound_to 10752
  154.2421  135.2788  155.2851 H   0  0  0  0  0  0  0  0  0  0  0  0  # atno 10764 bound_to 10752
  154.5360  135.5774  153.6857 H   0  0  0  0  0  0  0  0  0  0  0  0  # atno 10765 bound_to 10752
  140.3350  134.7325  157.4162 H   0  0  0  0  0  0  0  0  0  0  0  0  # atno 11005 bound_to 11000
  144.6730  140.0905  143.7465 LP  0  0  0  0  0  0  0  0  0  0  0  0  # atno 17320 bound_to 7965
  145.9394  139.2659  143.1278 LP  0  0  0  0  0  0  0  0  0  0  0  0  # atno 17321 bound_to 7965
  140.4056  144.2436  150.5891 LP  0  0  0  0  0  0  0  0  0  0  0  0  # atno 17342 bound_to 10162
  140.5015  143.2316  151.8671 LP  0  0  0  0  0  0  0  0  0  0  0  0  # atno 17343 bound_to 10162
  157.3159  130.6913  149.6242 LP  0  0  0  0  0  0  0  0  0  0  0  0  # atno 17370 bound_to 10713
  155.9664  130.4349  150.5071 LP  0  0  0  0  0  0  0  0  0  0  0  0  # atno 17371 bound_to 10713
  140.0829  134.5707  155.8522 LP  0  0  0  0  0  0  0  0  0  0  0  0  # atno 17394 bound_to 11000
  141.2053  133.6646  156.6175 LP  0  0  0  0  0  0  0  0  0  0  0  0  # atno 17395 bound_to 11000

$$$$
