AV-unprocessed.smi:1485|AV-procd|sdf|6002|dock1
  -GOLD-   22720 6 93D 1   1.00000     0.00000
 Structure written by MMmdl.
 44 45  0  0  0  0  0  0  0  0  1 V2000
  145.0152  143.4587  154.3310 C   0  0  0  0  0  0  0  0  0  0  0  0
  145.0316  142.3404  155.2000 O   0  0  0  0  0  0  0  0  0  0  0  0
  146.3475  141.9023  155.4974 C   0  0  0  0  0  0  0  0  0  0  0  0
  147.0174  141.3861  154.2133 C   0  0  0  0  0  0  0  0  0  0  0  0
  148.1199  140.4625  154.5041 N   0  0  0  0  0  0  0  0  0  0  0  0
  149.1254  141.0132  155.2806 N   0  0  0  0  0  0  0  0  0  0  0  0
  150.1593  140.3059  155.6046 C   0  0  0  0  0  0  0  0  0  0  0  0
  151.2605  140.8621  156.4382 C   0  0  0  0  0  0  0  0  0  0  0  0
  152.3608  140.3124  156.5147 O   0  0  0  0  0  0  0  0  0  0  0  0
  150.9636  141.9973  157.0961 N   0  0  0  0  0  0  0  0  0  0  0  0
  151.8674  142.7314  157.9754 C   0  0  1  0  0  0  0  0  0  0  0  0
  151.2202  144.0700  158.3733 C   0  0  0  0  0  0  0  0  0  0  0  0
  152.1078  144.8492  159.3553 C   0  0  0  0  0  0  0  0  0  0  0  0
  152.4361  144.0071  160.5980 C   0  0  0  0  0  0  0  0  0  0  0  0
  153.0952  142.6684  160.2141 C   0  0  1  0  0  0  0  0  0  0  0  0
  153.4216  141.8274  161.4563 C   0  0  0  0  0  0  0  0  0  0  0  0
  152.2046  141.8914  159.2246 C   0  0  0  0  0  0  0  0  0  0  0  0
  150.2851  138.9271  155.1632 C   0  0  0  0  0  0  0  0  0  0  0  0
  149.2974  138.4040  154.4040 C   0  0  0  0  0  0  0  0  0  0  0  0
  148.1181  139.1831  154.0226 C   0  0  0  0  0  0  0  0  0  0  0  0
  147.2075  138.7303  153.3294 O   0  0  0  0  0  0  0  0  0  0  0  0
  143.9847  143.7535  154.1333 H   0  0  0  0  0  0  0  0  0  0  0  0
  145.4879  143.2242  153.3766 H   0  0  0  0  0  0  0  0  0  0  0  0
  145.5295  144.3110  154.7767 H   0  0  0  0  0  0  0  0  0  0  0  0
  146.9248  142.7361  155.8995 H   0  0  0  0  0  0  0  0  0  0  0  0
  146.3285  141.1245  156.2624 H   0  0  0  0  0  0  0  0  0  0  0  0
  146.2709  140.9002  153.5823 H   0  0  0  0  0  0  0  0  0  0  0  0
  147.3856  142.2286  153.6255 H   0  0  0  0  0  0  0  0  0  0  0  0
  150.0368  142.3803  156.9760 H   0  0  0  0  0  0  0  0  0  0  0  0
  152.7922  142.9506  157.4380 H   0  0  0  0  0  0  0  0  0  0  0  0
  151.0367  144.6753  157.4846 H   0  0  0  0  0  0  0  0  0  0  0  0
  150.2467  143.8898  158.8316 H   0  0  0  0  0  0  0  0  0  0  0  0
  153.0326  145.1432  158.8575 H   0  0  0  0  0  0  0  0  0  0  0  0
  151.6101  145.7724  159.6529 H   0  0  0  0  0  0  0  0  0  0  0  0
  153.0956  144.5723  161.2576 H   0  0  0  0  0  0  0  0  0  0  0  0
  151.5215  143.8205  161.1625 H   0  0  0  0  0  0  0  0  0  0  0  0
  154.0379  142.8903  159.7116 H   0  0  0  0  0  0  0  0  0  0  0  0
  152.5176  141.5657  162.0071 H   0  0  0  0  0  0  0  0  0  0  0  0
  154.0798  142.3699  162.1353 H   0  0  0  0  0  0  0  0  0  0  0  0
  153.9243  140.8998  161.1813 H   0  0  0  0  0  0  0  0  0  0  0  0
  151.2824  141.5898  159.7236 H   0  0  0  0  0  0  0  0  0  0  0  0
  152.7068  140.9705  158.9251 H   0  0  0  0  0  0  0  0  0  0  0  0
  151.1451  138.3295  155.4290 H   0  0  0  0  0  0  0  0  0  0  0  0
  149.3783  137.3808  154.0675 H   0  0  0  0  0  0  0  0  0  0  0  0
  1  2  1  0  0  0  0
  1 22  1  0  0  0  0
  1 23  1  0  0  0  0
  1 24  1  0  0  0  0
  2  3  1  0  0  0  0
  3  4  1  0  0  0  0
  3 25  1  0  0  0  0
  3 26  1  0  0  0  0
  4  5  1  0  0  0  0
  4 27  1  0  0  0  0
  4 28  1  0  0  0  0
  5 20  1  0  0  0  0
  5  6  1  0  0  0  0
  6  7  2  0  0  0  0
  7  8  1  0  0  0  0
  7 18  1  0  0  0  0
  8  9  2  0  0  0  0
  8 10  1  0  0  0  0
 10 11  1  0  0  0  0
 10 29  1  0  0  0  0
 11 17  1  0  0  0  0
 11 12  1  0  0  0  0
 11 30  1  0  0  0  0
 12 13  1  0  0  0  0
 12 31  1  0  0  0  0
 12 32  1  0  0  0  0
 13 14  1  0  0  0  0
 13 33  1  0  0  0  0
 13 34  1  0  0  0  0
 14 15  1  0  0  0  0
 14 35  1  0  0  0  0
 14 36  1  0  0  0  0
 15 16  1  0  0  0  0
 15 17  1  0  0  0  0
 15 37  1  0  0  0  0
 16 38  1  0  0  0  0
 16 39  1  0  0  0  0
 16 40  1  0  0  0  0
 17 41  1  0  0  0  0
 17 42  1  0  0  0  0
 18 19  2  0  0  0  0
 18 43  1  0  0  0  0
 19 20  1  0  0  0  0
 19 44  1  0  0  0  0
 20 21  2  0  0  0  0
M  END
> <s_m_source_file>
AV-unprocessed.smi

> <i_m_source_file_index>
1485

> <i_lp_mmshare_version>
43012

> <i_f3d_flags>
0

> <s_epik_input>
W0NIM11PW0NIMl1bQ0gyXW4xbmMoW2NIXVtjSF1jMT1PKUMoPU8pW05IXVtDQEBIXTJbQ0gyXVtDSDJdW0NIMl1bQ0BASF0oW0NIM10pW0NIMl0y

> <s_epik_cmdline>
J2VwaWtfcHl0aG9uJywgJy1waCcsICc3LjAnLCAnLXRuJywgJzgnLCAnLW1hJywgJzIwMCcsICctbWV0YWxfYmluZGluZycsICctaW1hZScsICc8aW5maWxlLm1hZT4nLCAnLW9tYWUnLCAnPG91dGZpbGUubWFlPic=

> <r_lp_tautomer_probability>
1

> <r_epik_Ionization_Penalty>
6.4688e-07

> <r_epik_Ionization_Penalty_Charging>
6.63567e-09

> <r_epik_Ionization_Penalty_Neutral>
6.40245e-07

> <r_epik_State_Penalty>
-0

> <r_epik_Charging_Adjusted_Penalty>
6.63567e-09

> <i_epik_Tot_Q>
0

> <i_epik_Tot_abs_Q>
0

> <r_epik_Metal_State_Penalty>
-0

> <b_epik_Metal_Only>
0

> <s_lp_Force_Field>
OPLS_2005

> <r_lp_Energy>
29.7645

> <b_lp_Chiralities_Consistent>
1

> <s_lp_Variant>
AV-unprocessed.smi:1485-2

> <Gold.Version>
5.8.1

> <Gold.Id.Protein>
6NUR|6NUR_protein|mol2

> <Gold.PLP.Fitness>
48.8081

> <Gold.PLP.PLP>
-46.3167

> <Gold.PLP.part.hbond>
-1.0000

> <Gold.PLP.part.metal>
0.0000

> <Gold.PLP.part.buried>
-6.6284

> <Gold.PLP.part.nonpolar>
-40.0131

> <Gold.PLP.part.repulsive>
0.6931

> <Gold.PLP.ligand.clash>
0.0000

> <Gold.PLP.ligand.torsion>
0.2808

> <Gold.PLP.Chemscore.Hbond>
1.0000

> <Gold.PLP.Chemscore.CHOScore>
0.0000

> <Gold.PLP.Chemscore.Metal>
0.0000

> <Gold.Chemscore.Hbonds>
donor molecule, donor type, donor heavy atom, donor atom, acceptor molecule, acceptor atom, score
      P1  H  7997  8009       L1     9  1.00

> <Gold.PLP.Chemscore.Internal.Correction>
0.0531

> <Gold.Rescore>
     Score         DG    S(hbond)    S(metal)    S(lipo)     H(rot)  DE(clash)    DE(int)     intcor
     17.60     -18.78       0.97        0.00     119.88       1.55       0.33       0.85       ----

> <Gold.Chemscore.Fitness>
17.5974

> <Gold.Chemscore.DG>
-18.7785

> <Gold.Chemscore.ZeroCoef>
-5.4800

> <Gold.Chemscore.Hbond>
0.9685

> <Gold.Chemscore.Metal>
0.0000

> <Gold.Chemscore.Lipo>
119.8791

> <Gold.Chemscore.Internal_Hbond>
0.0000

> <Gold.Chemscore.DEClash>
0.3318

> <Gold.Chemscore.DEInternal>
0.8492

> <Gold.Chemscore.Rot>
1.5478

> <Gold.Chemscore.Internal.Correction>
   9.000000E+99

> <Gold.Chemscore.Hbonds>
donor molecule, donor type, donor heavy atom, donor atom, acceptor molecule, acceptor atom, score
      P1  H  7997  8009       L1     9  0.91

> <Gold.Chemscore.Hbond.Weighted>
-3.2349

> <Gold.Chemscore.Metal.Weighted>
-0.0000

> <Gold.Chemscore.Lipo.Weighted>
-14.0259

> <Gold.Chemscore.Internal_Hbond.Weighted>
0.0000

> <Gold.Chemscore.DEClash.Weighted>
0.3318

> <Gold.Chemscore.DEInternal.Weighted>
0.8492

> <Gold.Chemscore.Rot.Weighted>
3.9623

> <Gold.Chemscore.Internal.Correction.Weighted>
   9.000000E+99

> <Gold.Protein.RotatedTorsions>
[ 6907 6896 6895 6894 ] final   73.87 input  -60.11 | X-H torsion
[ 7974 7965 7964 7962 ] final  -88.95 input  175.53 | X-H torsion
[ 8008 7997 7996 7995 ] final -173.58 input   59.86 | X-H torsion
[ 10167 10162 10161 10158 ] final  138.88 input  -65.29 | X-H torsion
[ 10718 10713 10712 10709 ] final  146.40 input   66.30 | X-H torsion
[ 10763 10752 10751 10750 ] final -163.05 input  -60.55 | X-H torsion
[ 11005 11000 10999 10996 ] final -128.25 input  -57.11 | X-H torsion

> <Gold.Protein.ActiveResidues>
 VAL166  LYS551  ARG553  GLY616  TRP617  ASP618  TYR619  PRO620  LYS621  CYS622 
 ASP623  PHE694  ASN695  SER759  ASP760  ASP761  ALA762  ILE779  LEU786  VAL792 
 PHE793  MET794  SER795  GLU796  ALA797  LYS798  CYS799  TRP800  GLU811  SER814 

> <Gold.Protein.RotatedAtoms>
  152.4946  134.4356  159.9526 H   0  0  0  0  0  0  0  0  0  0  0  0  # atno 6907 bound_to 6896
  151.4337  133.3657  159.2780 H   0  0  0  0  0  0  0  0  0  0  0  0  # atno 6908 bound_to 6896
  150.9136  134.8576  159.7502 H   0  0  0  0  0  0  0  0  0  0  0  0  # atno 6909 bound_to 6896
  145.4463  140.9560  143.2047 H   0  0  0  0  0  0  0  0  0  0  0  0  # atno 7974 bound_to 7965
  155.9592  140.1141  157.0910 H   0  0  0  0  0  0  0  0  0  0  0  0  # atno 8008 bound_to 7997
  154.4128  140.1185  156.5223 H   0  0  0  0  0  0  0  0  0  0  0  0  # atno 8009 bound_to 7997
  155.6742  140.3473  155.4832 H   0  0  0  0  0  0  0  0  0  0  0  0  # atno 8010 bound_to 7997
  139.5096  144.6327  151.5776 H   0  0  0  0  0  0  0  0  0  0  0  0  # atno 10167 bound_to 10162
  157.3336  131.0924  151.1142 H   0  0  0  0  0  0  0  0  0  0  0  0  # atno 10718 bound_to 10713
  154.7158  135.3015  154.9126 H   0  0  0  0  0  0  0  0  0  0  0  0  # atno 10763 bound_to 10752
  154.0013  135.6706  153.4763 H   0  0  0  0  0  0  0  0  0  0  0  0  # atno 10764 bound_to 10752
  153.0792  135.5018  154.8383 H   0  0  0  0  0  0  0  0  0  0  0  0  # atno 10765 bound_to 10752
  140.9531  134.1038  157.4042 H   0  0  0  0  0  0  0  0  0  0  0  0  # atno 11005 bound_to 11000
  144.8090  139.5998  143.7038 LP  0  0  0  0  0  0  0  0  0  0  0  0  # atno 17320 bound_to 7965
  146.2529  139.6238  142.9415 LP  0  0  0  0  0  0  0  0  0  0  0  0  # atno 17321 bound_to 7965
  140.6066  143.9514  150.6423 LP  0  0  0  0  0  0  0  0  0  0  0  0  # atno 17342 bound_to 10162
  140.2743  143.3434  152.1210 LP  0  0  0  0  0  0  0  0  0  0  0  0  # atno 17343 bound_to 10162
  157.2381  130.6556  149.5878 LP  0  0  0  0  0  0  0  0  0  0  0  0  # atno 17370 bound_to 10713
  155.9699  130.4577  150.5973 LP  0  0  0  0  0  0  0  0  0  0  0  0  # atno 17371 bound_to 10713
  139.8854  135.0072  156.6431 LP  0  0  0  0  0  0  0  0  0  0  0  0  # atno 17394 bound_to 11000
  140.7574  133.8846  155.8392 LP  0  0  0  0  0  0  0  0  0  0  0  0  # atno 17395 bound_to 11000

$$$$
