AV-unprocessed.smi:2119|AV-procd|sdf|8634|dock6
  -GOLD-   2272011383D 1   1.00000     0.00000
 Structure written by MMmdl.
 48 50  0  0  0  0  0  0  0  0  2 V2000
  147.5074  136.4604  156.0389 O   0  0  0  0  0  0  0  0  0  0  0  0
  147.8211  136.3812  154.8513 C   0  0  0  0  0  0  0  0  0  0  0  0
  147.1028  135.7056  153.9439 N   0  0  0  0  0  0  0  0  0  0  0  0
  145.8795  134.9672  154.2344 C   0  0  0  0  0  0  0  0  0  0  0  0
  145.8348  133.5501  153.5937 C   0  0  2  0  0  0  0  0  0  0  0  0
  147.1145  132.7031  153.8465 C   0  0  2  0  0  0  0  0  0  0  0  0
  147.6554  132.8021  155.2646 C   0  0  0  0  0  0  0  0  0  0  0  0
  149.0764  132.2765  155.1082 C   0  0  0  0  0  0  0  0  0  0  0  0
  149.4896  132.6935  153.8135 O   0  0  0  0  0  0  0  0  0  0  0  0
  148.3622  133.1229  153.0570 C   0  0  0  0  0  0  0  0  0  0  0  0
  145.5477  133.6148  152.1295 N   0  3  0  0  0  0  0  0  0  0  0  0
  145.4221  132.2889  151.4765 C   0  0  0  0  0  0  0  0  0  0  0  0
  145.3308  132.4609  149.9510 C   0  0  0  0  0  0  0  0  0  0  0  0
  144.2365  133.3115  149.6284 O   0  0  0  0  0  0  0  0  0  0  0  0
  144.3847  134.6119  150.1867 C   0  0  0  0  0  0  0  0  0  0  0  0
  144.4361  134.5103  151.7200 C   0  0  0  0  0  0  0  0  0  0  0  0
  148.8999  136.9526  154.2902 N   0  0  0  0  0  0  0  0  0  0  0  0
  149.9296  137.7002  154.9218 C   0  0  0  0  0  0  0  0  0  0  0  0
  150.5236  137.3480  156.1580 C   0  0  0  0  0  0  0  0  0  0  0  0
  151.5536  138.1588  156.6723 C   0  0  0  0  0  0  0  0  0  0  0  0
  151.9567  139.2857  155.9301 C   0  0  0  0  0  0  0  0  0  0  0  0
  151.4093  139.6252  154.7442 N   0  0  0  0  0  0  0  0  0  0  0  0
  150.4229  138.8428  154.2568 C   0  0  0  0  0  0  0  0  0  0  0  0
  147.4261  135.6985  152.9873 H   0  0  0  0  0  0  0  0  0  0  0  0
  145.7640  134.9107  155.3172 H   0  0  0  0  0  0  0  0  0  0  0  0
  145.0495  135.5728  153.8704 H   0  0  0  0  0  0  0  0  0  0  0  0
  145.0060  132.9993  154.0406 H   0  0  0  0  0  0  0  0  0  0  0  0
  146.9126  131.6536  153.6290 H   0  0  0  0  0  0  0  0  0  0  0  0
  147.6767  133.8422  155.5938 H   0  0  0  0  0  0  0  0  0  0  0  0
  147.0781  132.2262  155.9886 H   0  0  0  0  0  0  0  0  0  0  0  0
  149.7481  132.6472  155.8829 H   0  0  0  0  0  0  0  0  0  0  0  0
  149.0852  131.1864  155.1429 H   0  0  0  0  0  0  0  0  0  0  0  0
  148.3894  132.6921  152.0561 H   0  0  0  0  0  0  0  0  0  0  0  0
  148.4156  134.2081  152.9600 H   0  0  0  0  0  0  0  0  0  0  0  0
  146.2836  131.6667  151.7211 H   0  0  0  0  0  0  0  0  0  0  0  0
  144.5364  131.7688  151.8425 H   0  0  0  0  0  0  0  0  0  0  0  0
  146.2579  132.8744  149.5506 H   0  0  0  0  0  0  0  0  0  0  0  0
  145.1810  131.4933  149.4716 H   0  0  0  0  0  0  0  0  0  0  0  0
  145.2854  135.0893  149.7971 H   0  0  0  0  0  0  0  0  0  0  0  0
  143.5393  135.2272  149.8788 H   0  0  0  0  0  0  0  0  0  0  0  0
  143.4835  134.1251  152.0852 H   0  0  0  0  0  0  0  0  0  0  0  0
  144.5689  135.5045  152.1458 H   0  0  0  0  0  0  0  0  0  0  0  0
  148.9735  136.8785  153.2861 H   0  0  0  0  0  0  0  0  0  0  0  0
  150.2233  136.4711  156.7105 H   0  0  0  0  0  0  0  0  0  0  0  0
  152.0274  137.9188  157.6128 H   0  0  0  0  0  0  0  0  0  0  0  0
  152.7445  139.9276  156.2960 H   0  0  0  0  0  0  0  0  0  0  0  0
  150.0109  139.1428  153.3041 H   0  0  0  0  0  0  0  0  0  0  0  0
  146.3813  134.0190  151.7268 H   0  0  0  0  0  0  0  0  0  0  0  0
  1  2  2  0  0  0  0
  2  3  1  0  0  0  0
  2 17  1  0  0  0  0
  3  4  1  0  0  0  0
  3 24  1  0  0  0  0
  4  5  1  0  0  0  0
  4 25  1  0  0  0  0
  4 26  1  0  0  0  0
  5  6  1  0  0  0  0
  5 11  1  0  0  0  0
  5 27  1  0  0  0  0
  6 10  1  0  0  0  0
  6  7  1  0  0  0  0
  6 28  1  0  0  0  0
  7  8  1  0  0  0  0
  7 29  1  0  0  0  0
  7 30  1  0  0  0  0
  8  9  1  0  0  0  0
  8 31  1  0  0  0  0
  8 32  1  0  0  0  0
  9 10  1  0  0  0  0
 10 33  1  0  0  0  0
 10 34  1  0  0  0  0
 11 16  1  0  0  0  0
 11 12  1  0  0  0  0
 11 48  1  0  0  0  0
 12 13  1  0  0  0  0
 12 35  1  0  0  0  0
 12 36  1  0  0  0  0
 13 14  1  0  0  0  0
 13 37  1  0  0  0  0
 13 38  1  0  0  0  0
 14 15  1  0  0  0  0
 15 16  1  0  0  0  0
 15 39  1  0  0  0  0
 15 40  1  0  0  0  0
 16 41  1  0  0  0  0
 16 42  1  0  0  0  0
 17 18  1  0  0  0  0
 17 43  1  0  0  0  0
 18 23  1  0  0  0  0
 18 19  2  0  0  0  0
 19 20  1  0  0  0  0
 19 44  1  0  0  0  0
 20 21  2  0  0  0  0
 20 45  1  0  0  0  0
 21 22  1  0  0  0  0
 21 46  1  0  0  0  0
 22 23  2  0  0  0  0
 23 47  1  0  0  0  0
M  CHG  1  11   1
M  END
> <s_m_source_file>
AV-unprocessed.smi

> <i_m_source_file_index>
2119

> <i_lp_mmshare_version>
43012

> <i_f3d_flags>
0

> <s_epik_input>
W2NIXTFuW2NIXVtjSF1bY0hdYzFbTkhdQyg9TylbTkhdW0NIMl1bQ0BIXShbQ0BASF0yW0NIMl1bQ0gyXU9bQ0gyXTIpTjNbQ0gyXVtDSDJdT1tDSDJdW0NIMl0z

> <s_epik_cmdline>
J2VwaWtfcHl0aG9uJywgJy1waCcsICc3LjAnLCAnLXRuJywgJzgnLCAnLW1hJywgJzIwMCcsICctbWV0YWxfYmluZGluZycsICctaW1hZScsICc8aW5maWxlLm1hZT4nLCAnLW9tYWUnLCAnPG91dGZpbGUubWFlPic=

> <r_epik_Ionization_Penalty>
0.987463

> <r_epik_Ionization_Penalty_Charging>
0.98326

> <r_epik_Ionization_Penalty_Neutral>
0.00420251

> <r_epik_State_Penalty>
1.01721

> <r_epik_Charging_Adjusted_Penalty>
2.00047

> <i_epik_Tot_Q>
1

> <i_epik_Tot_abs_Q>
1

> <r_epik_Metal_State_Penalty>
1.01439

> <b_epik_Metal_Only>
0

> <s_lp_Force_Field>
OPLS_2005

> <r_lp_Energy>
39.8774

> <b_lp_Chiralities_Consistent>
1

> <s_lp_Variant>
AV-unprocessed.smi:2119-5

> <Gold.Version>
5.8.1

> <Gold.Id.Protein>
6NUR|6NUR_protein|mol2

> <Gold.PLP.Fitness>
39.0285

> <Gold.PLP.PLP>
-28.7071

> <Gold.PLP.part.hbond>
-2.9112

> <Gold.PLP.part.metal>
0.0000

> <Gold.PLP.part.buried>
-4.6627

> <Gold.PLP.part.nonpolar>
-21.8093

> <Gold.PLP.part.repulsive>
0.4554

> <Gold.PLP.ligand.clash>
0.0000

> <Gold.PLP.ligand.torsion>
0.7287

> <Gold.PLP.Chemscore.Hbond>
2.8480

> <Gold.PLP.Chemscore.CHOScore>
1.0000

> <Gold.PLP.Chemscore.Metal>
0.0000

> <Gold.Chemscore.Hbonds>
donor molecule, donor type, donor heavy atom, donor atom, acceptor molecule, acceptor atom, score
      L1  H     3    24       P1  7948  0.85
      L1  H    17    43       P1  7948  1.00
      P1  H  7989  7998       L1    22  1.00
      L1  C    23    47       P1  7957  1.00

> <Gold.PLP.Chemscore.Internal.Correction>
0.2349

> <Gold.Rescore>
     Score         DG    S(hbond)    S(metal)    S(lipo)     H(rot)  DE(clash)    DE(int)     intcor
     17.60     -19.28       2.65        0.00      79.43       1.70       0.04       1.64       ----

> <Gold.Chemscore.Fitness>
17.6009

> <Gold.Chemscore.DG>
-19.2757

> <Gold.Chemscore.ZeroCoef>
-5.4800

> <Gold.Chemscore.Hbond>
2.6527

> <Gold.Chemscore.Metal>
0.0000

> <Gold.Chemscore.Lipo>
79.4283

> <Gold.Chemscore.Internal_Hbond>
0.0000

> <Gold.Chemscore.DEClash>
0.0384

> <Gold.Chemscore.DEInternal>
1.6363

> <Gold.Chemscore.Rot>
1.7021

> <Gold.Chemscore.Internal.Correction>
   9.000000E+99

> <Gold.Chemscore.Hbonds>
donor molecule, donor type, donor heavy atom, donor atom, acceptor molecule, acceptor atom, score
      L1  H     3    24       P1  7948  0.84
      L1  H    17    43       P1  7948  0.95
      P1  H  7989  7998       L1    22  0.45

> <Gold.Chemscore.Hbond.Weighted>
-8.8600

> <Gold.Chemscore.Metal.Weighted>
-0.0000

> <Gold.Chemscore.Lipo.Weighted>
-9.2931

> <Gold.Chemscore.Internal_Hbond.Weighted>
0.0000

> <Gold.Chemscore.DEClash.Weighted>
0.0384

> <Gold.Chemscore.DEInternal.Weighted>
1.6363

> <Gold.Chemscore.Rot.Weighted>
4.3575

> <Gold.Chemscore.Internal.Correction.Weighted>
   9.000000E+99

> <Gold.Protein.RotatedTorsions>
[ 6907 6896 6895 6894 ] final  -25.32 input  -60.11 | X-H torsion
[ 7974 7965 7964 7962 ] final   47.94 input  175.53 | X-H torsion
[ 8008 7997 7996 7995 ] final   22.72 input   59.86 | X-H torsion
[ 10167 10162 10161 10158 ] final  -28.44 input  -65.29 | X-H torsion
[ 10718 10713 10712 10709 ] final  -51.75 input   66.30 | X-H torsion
[ 10763 10752 10751 10750 ] final  -82.11 input  -60.55 | X-H torsion
[ 11005 11000 10999 10996 ] final   20.63 input  -57.11 | X-H torsion

> <Gold.Protein.ActiveResidues>
 VAL166  LYS551  ARG553  GLY616  TRP617  ASP618  TYR619  PRO620  LYS621  CYS622 
 ASP623  PHE694  ASN695  SER759  ASP760  ASP761  ALA762  ILE779  LEU786  VAL792 
 PHE793  MET794  SER795  GLU796  ALA797  LYS798  CYS799  TRP800  GLU811  SER814 

> <Gold.Protein.RotatedAtoms>
  151.1768  135.0343  159.8775 H   0  0  0  0  0  0  0  0  0  0  0  0  # atno 6907 bound_to 6896
  152.5446  134.1108  159.8367 H   0  0  0  0  0  0  0  0  0  0  0  0  # atno 6908 bound_to 6896
  151.1220  133.5051  159.2634 H   0  0  0  0  0  0  0  0  0  0  0  0  # atno 6909 bound_to 6896
  146.0251  139.4696  142.9873 H   0  0  0  0  0  0  0  0  0  0  0  0  # atno 7974 bound_to 7965
  154.9700  140.3089  155.4992 H   0  0  0  0  0  0  0  0  0  0  0  0  # atno 8008 bound_to 7997
  156.2967  140.2285  156.4731 H   0  0  0  0  0  0  0  0  0  0  0  0  # atno 8009 bound_to 7997
  154.7885  140.0441  157.1171 H   0  0  0  0  0  0  0  0  0  0  0  0  # atno 8010 bound_to 7997
  140.7270  143.4010  151.1265 H   0  0  0  0  0  0  0  0  0  0  0  0  # atno 10167 bound_to 10162
  156.1682  130.4149  149.9687 H   0  0  0  0  0  0  0  0  0  0  0  0  # atno 10718 bound_to 10713
  154.5718  135.5603  153.7102 H   0  0  0  0  0  0  0  0  0  0  0  0  # atno 10763 bound_to 10752
  153.0051  135.6299  154.2104 H   0  0  0  0  0  0  0  0  0  0  0  0  # atno 10764 bound_to 10752
  154.2044  135.2876  155.2960 H   0  0  0  0  0  0  0  0  0  0  0  0  # atno 10765 bound_to 10752
  140.4005  134.1723  155.7664 H   0  0  0  0  0  0  0  0  0  0  0  0  # atno 11005 bound_to 11000
  145.7131  141.0099  143.1442 LP  0  0  0  0  0  0  0  0  0  0  0  0  # atno 17320 bound_to 7965
  144.7006  139.8781  143.7445 LP  0  0  0  0  0  0  0  0  0  0  0  0  # atno 17321 bound_to 7965
  139.7629  143.8608  152.3104 LP  0  0  0  0  0  0  0  0  0  0  0  0  # atno 17342 bound_to 10162
  139.8500  144.7169  150.9226 LP  0  0  0  0  0  0  0  0  0  0  0  0  # atno 17343 bound_to 10162
  156.7495  130.9110  151.3636 LP  0  0  0  0  0  0  0  0  0  0  0  0  # atno 17370 bound_to 10713
  157.6784  130.9116  150.0205 LP  0  0  0  0  0  0  0  0  0  0  0  0  # atno 17371 bound_to 10713
  141.1858  133.8315  157.1090 LP  0  0  0  0  0  0  0  0  0  0  0  0  # atno 17394 bound_to 11000
  140.0340  134.9887  157.0835 LP  0  0  0  0  0  0  0  0  0  0  0  0  # atno 17395 bound_to 11000

$$$$
