AV-unprocessed.smi:249|AV-procd|sdf|1914|dock6
  -GOLD-   2262021 13D 1   1.00000     0.00000
 Structure written by MMmdl.
 64 67  0  0  0  0  0  0  0  0  2 V2000
  151.8297  144.3421  158.1461 C   0  0  0  0  0  0  0  0  0  0  0  0
  150.5512  143.6352  158.6168 C   0  0  0  0  0  0  0  0  0  0  0  0
  149.8538  142.9291  157.5106 N   0  3  2  0  0  0  0  0  0  0  0  0
  148.6013  142.2471  157.9361 C   0  0  0  0  0  0  0  0  0  0  0  0
  147.8260  141.7097  156.7234 C   0  0  0  0  0  0  0  0  0  0  0  0
  148.6984  140.7513  155.8891 C   0  0  1  0  0  0  0  0  0  0  0  0
  147.9927  140.1391  154.7560 N   0  0  0  0  0  0  0  0  0  0  0  0
  146.9812  140.9438  154.0808 C   0  0  0  0  0  0  0  0  0  0  0  0
  147.6875  138.8221  154.8394 C   0  0  0  0  0  0  0  0  0  0  0  0
  148.1561  138.1382  155.9131 N   0  0  0  0  0  0  0  0  0  0  0  0
  147.8964  136.8338  156.0431 C   0  0  0  0  0  0  0  0  0  0  0  0
  147.2024  136.0361  155.2292 N   0  0  0  0  0  0  0  0  0  0  0  0
  146.7327  136.7187  154.1461 C   0  0  0  0  0  0  0  0  0  0  0  0
  146.9279  138.1022  153.8731 C   0  0  0  0  0  0  0  0  0  0  0  0
  146.2979  138.4422  152.6813 N   0  0  0  0  0  0  0  0  0  0  0  0
  145.7660  137.3234  152.2708 C   0  0  0  0  0  0  0  0  0  0  0  0
  145.9727  136.2398  153.0933 N   0  0  0  0  0  0  0  0  0  0  0  0
  145.4928  134.8860  152.8754 C   0  0  0  0  0  0  0  0  0  0  0  0
  144.6180  134.7462  151.6047 C   0  0  2  0  0  0  0  0  0  0  0  0
  143.1509  135.1817  151.8397 C   0  0  0  0  0  0  0  0  0  0  0  0
  142.5192  134.3685  152.8071 O   0  0  0  0  0  0  0  0  0  0  0  0
  144.7175  133.3244  150.9952 C   0  0  2  0  0  0  0  0  0  0  0  0
  146.1254  132.8808  150.6375 C   0  0  0  0  0  0  0  0  0  0  0  0
  145.8651  131.7265  149.6765 C   0  0  0  0  0  0  0  0  0  0  0  0
  144.6634  132.0609  148.9921 O   0  0  0  0  0  0  0  0  0  0  0  0
  144.0227  133.1558  149.6397 C   0  0  0  0  0  0  0  0  0  0  0  0
  149.9957  141.4826  155.4810 C   0  0  0  0  0  0  0  0  0  0  0  0
  150.7504  142.0500  156.7018 C   0  0  2  0  0  0  0  0  0  0  0  0
  151.4394  140.9452  157.5323 C   0  0  0  0  0  0  0  0  0  0  0  0
  152.3551  144.7845  158.9928 H   0  0  0  0  0  0  0  0  0  0  0  0
  151.6193  145.1462  157.4416 H   0  0  0  0  0  0  0  0  0  0  0  0
  152.5121  143.6416  157.6643 H   0  0  0  0  0  0  0  0  0  0  0  0
  150.8360  142.9132  159.3835 H   0  0  0  0  0  0  0  0  0  0  0  0
  149.8763  144.3462  159.0950 H   0  0  0  0  0  0  0  0  0  0  0  0
  148.8290  141.4380  158.6307 H   0  0  0  0  0  0  0  0  0  0  0  0
  147.9602  142.9432  158.4754 H   0  0  0  0  0  0  0  0  0  0  0  0
  146.9249  141.1967  157.0614 H   0  0  0  0  0  0  0  0  0  0  0  0
  147.4972  142.5553  156.1183 H   0  0  0  0  0  0  0  0  0  0  0  0
  148.9728  139.9203  156.5397 H   0  0  0  0  0  0  0  0  0  0  0  0
  146.5666  140.4133  153.2223 H   0  0  0  0  0  0  0  0  0  0  0  0
  147.4240  141.8702  153.7145 H   0  0  0  0  0  0  0  0  0  0  0  0
  146.1618  141.2035  154.7508 H   0  0  0  0  0  0  0  0  0  0  0  0
  148.3041  136.3611  156.9246 H   0  0  0  0  0  0  0  0  0  0  0  0
  145.2010  137.2573  151.3523 H   0  0  0  0  0  0  0  0  0  0  0  0
  146.3666  134.2377  152.8126 H   0  0  0  0  0  0  0  0  0  0  0  0
  144.9369  134.5645  153.7568 H   0  0  0  0  0  0  0  0  0  0  0  0
  145.0256  135.4382  150.8663 H   0  0  0  0  0  0  0  0  0  0  0  0
  143.0966  136.2202  152.1664 H   0  0  0  0  0  0  0  0  0  0  0  0
  142.5783  135.1298  150.9141 H   0  0  0  0  0  0  0  0  0  0  0  0
  142.4858  134.8410  153.6247 H   0  0  0  0  0  0  0  0  0  0  0  0
  144.2977  132.5971  151.6924 H   0  0  0  0  0  0  0  0  0  0  0  0
  146.6597  133.6815  150.1240 H   0  0  0  0  0  0  0  0  0  0  0  0
  146.7155  132.5749  151.5018 H   0  0  0  0  0  0  0  0  0  0  0  0
  146.6901  131.5662  148.9818 H   0  0  0  0  0  0  0  0  0  0  0  0
  145.7028  130.8007  150.2299 H   0  0  0  0  0  0  0  0  0  0  0  0
  142.9517  132.9769  149.7397 H   0  0  0  0  0  0  0  0  0  0  0  0
  144.1600  134.0438  149.0208 H   0  0  0  0  0  0  0  0  0  0  0  0
  150.6542  140.8180  154.9211 H   0  0  0  0  0  0  0  0  0  0  0  0
  149.7542  142.3063  154.8082 H   0  0  0  0  0  0  0  0  0  0  0  0
  151.5434  142.6865  156.3062 H   0  0  0  0  0  0  0  0  0  0  0  0
  152.0925  140.3416  156.9013 H   0  0  0  0  0  0  0  0  0  0  0  0
  150.7253  140.2680  157.9995 H   0  0  0  0  0  0  0  0  0  0  0  0
  152.0630  141.3631  158.3223 H   0  0  0  0  0  0  0  0  0  0  0  0
  149.5640  143.6565  156.8725 H   0  0  0  0  0  0  0  0  0  0  0  0
  1  2  1  0  0  0  0
  1 30  1  0  0  0  0
  1 31  1  0  0  0  0
  1 32  1  0  0  0  0
  2  3  1  0  0  0  0
  2 33  1  0  0  0  0
  2 34  1  0  0  0  0
  3 28  1  0  0  0  0
  3  4  1  0  0  0  0
  3 64  1  0  0  0  0
  4  5  1  0  0  0  0
  4 35  1  0  0  0  0
  4 36  1  0  0  0  0
  5  6  1  0  0  0  0
  5 37  1  0  0  0  0
  5 38  1  0  0  0  0
  6  7  1  0  0  0  0
  6 27  1  0  0  0  0
  6 39  1  0  0  0  0
  7  8  1  0  0  0  0
  7  9  1  0  0  0  0
  8 40  1  0  0  0  0
  8 41  1  0  0  0  0
  8 42  1  0  0  0  0
  9 14  1  0  0  0  0
  9 10  2  0  0  0  0
 10 11  1  0  0  0  0
 11 12  2  0  0  0  0
 11 43  1  0  0  0  0
 12 13  1  0  0  0  0
 13 17  1  0  0  0  0
 13 14  2  0  0  0  0
 14 15  1  0  0  0  0
 15 16  2  0  0  0  0
 16 17  1  0  0  0  0
 16 44  1  0  0  0  0
 17 18  1  0  0  0  0
 18 19  1  0  0  0  0
 18 45  1  0  0  0  0
 18 46  1  0  0  0  0
 19 20  1  0  0  0  0
 19 22  1  0  0  0  0
 19 47  1  0  0  0  0
 20 21  1  0  0  0  0
 20 48  1  0  0  0  0
 20 49  1  0  0  0  0
 21 50  1  0  0  0  0
 22 26  1  0  0  0  0
 22 23  1  0  0  0  0
 22 51  1  0  0  0  0
 23 24  1  0  0  0  0
 23 52  1  0  0  0  0
 23 53  1  0  0  0  0
 24 25  1  0  0  0  0
 24 54  1  0  0  0  0
 24 55  1  0  0  0  0
 25 26  1  0  0  0  0
 26 56  1  0  0  0  0
 26 57  1  0  0  0  0
 27 28  1  0  0  0  0
 27 58  1  0  0  0  0
 27 59  1  0  0  0  0
 28 29  1  0  0  0  0
 28 60  1  0  0  0  0
 29 61  1  0  0  0  0
 29 62  1  0  0  0  0
 29 63  1  0  0  0  0
M  CHG  1   3   1
M  END
> <s_m_source_file>
AV-unprocessed.smi

> <i_m_source_file_index>
249

> <i_lp_mmshare_version>
43012

> <i_f3d_flags>
0

> <s_epik_input>
W0NIM11bQ0gyXU4xW0NIMl1bQ0gyXVtDQEhdKFtDSDJdW0NASF0xW0NIM10pTihbQ0gzXSljKG5bY0hdbjIpYyhjMjMpbltjSF1uM1tDSDJdW0NASF0oW0NIMl1bT0hdKVtDQEBIXTRbQ0gyXVtDSDJdT1tDSDJdNA==

> <s_epik_cmdline>
J2VwaWtfcHl0aG9uJywgJy1waCcsICc3LjAnLCAnLXRuJywgJzgnLCAnLW1hJywgJzIwMCcsICctbWV0YWxfYmluZGluZycsICctaW1hZScsICc8aW5maWxlLm1hZT4nLCAnLW9tYWUnLCAnPG91dGZpbGUubWFlPic=

> <r_lp_tautomer_probability>
1

> <r_epik_Ionization_Penalty>
0.00294688

> <r_epik_Ionization_Penalty_Charging>
0.00169971

> <r_epik_Ionization_Penalty_Neutral>
0.00124717

> <r_epik_State_Penalty>
-0

> <r_epik_Charging_Adjusted_Penalty>
0.00169971

> <i_epik_Tot_Q>
1

> <i_epik_Tot_abs_Q>
1

> <r_epik_Metal_State_Penalty>
-0

> <b_epik_Metal_Only>
0

> <s_lp_Force_Field>
OPLS_2005

> <r_lp_Energy>
54.2474

> <b_lp_Chiralities_Consistent>
1

> <s_lp_Variant>
AV-unprocessed.smi:249-17

> <Gold.Version>
5.8.1

> <Gold.Id.Protein>
6NUR|6NUR_protein|mol2

> <Gold.PLP.Fitness>
48.9564

> <Gold.PLP.PLP>
-42.4972

> <Gold.PLP.part.hbond>
-2.8986

> <Gold.PLP.part.metal>
0.0000

> <Gold.PLP.part.buried>
-5.9457

> <Gold.PLP.part.nonpolar>
-34.6148

> <Gold.PLP.part.repulsive>
0.6835

> <Gold.PLP.ligand.clash>
0.0000

> <Gold.PLP.ligand.torsion>
1.7979

> <Gold.PLP.Chemscore.Hbond>
2.0068

> <Gold.PLP.Chemscore.CHOScore>
1.0000

> <Gold.PLP.Chemscore.Metal>
0.0000

> <Gold.Chemscore.Hbonds>
donor molecule, donor type, donor heavy atom, donor atom, acceptor molecule, acceptor atom, score
      L1  H     3    64       P1  8028  2.00
      P1  H 10785 10796       L1    25  0.02
      L1  C    16    44       P1 10171  1.00

> <Gold.PLP.Chemscore.Internal.Correction>
1.0347

> <Gold.Rescore>
     Score         DG    S(hbond)    S(metal)    S(lipo)     H(rot)  DE(clash)    DE(int)     intcor
     12.49     -15.78       1.36        0.00     112.86       2.90       0.34       2.95       ----

> <Gold.Chemscore.Fitness>
12.4935

> <Gold.Chemscore.DG>
-15.7846

> <Gold.Chemscore.ZeroCoef>
-5.4800

> <Gold.Chemscore.Hbond>
1.3551

> <Gold.Chemscore.Metal>
0.0000

> <Gold.Chemscore.Lipo>
112.8563

> <Gold.Chemscore.Internal_Hbond>
0.0000

> <Gold.Chemscore.DEClash>
0.3376

> <Gold.Chemscore.DEInternal>
2.9535

> <Gold.Chemscore.Rot>
2.9006

> <Gold.Chemscore.Internal.Correction>
   9.000000E+99

> <Gold.Chemscore.Hbonds>
donor molecule, donor type, donor heavy atom, donor atom, acceptor molecule, acceptor atom, score
      L1  H     3    64       P1  8028  0.96
      P1  H 10785 10796       L1    25  0.03

> <Gold.Chemscore.Hbond.Weighted>
-4.5260

> <Gold.Chemscore.Metal.Weighted>
-0.0000

> <Gold.Chemscore.Lipo.Weighted>
-13.2042

> <Gold.Chemscore.Internal_Hbond.Weighted>
0.0000

> <Gold.Chemscore.DEClash.Weighted>
0.3376

> <Gold.Chemscore.DEInternal.Weighted>
2.9535

> <Gold.Chemscore.Rot.Weighted>
7.4256

> <Gold.Chemscore.Internal.Correction.Weighted>
   9.000000E+99

> <Gold.Protein.RotatedTorsions>
[ 6907 6896 6895 6894 ] final -157.72 input  -60.11 | X-H torsion
[ 7974 7965 7964 7962 ] final  -18.45 input  175.53 | X-H torsion
[ 8008 7997 7996 7995 ] final  -95.50 input   59.86 | X-H torsion
[ 10167 10162 10161 10158 ] final  -81.31 input  -65.29 | X-H torsion
[ 10718 10713 10712 10709 ] final -117.21 input   66.30 | X-H torsion
[ 10763 10752 10751 10750 ] final  -26.75 input  -60.55 | X-H torsion
[ 11005 11000 10999 10996 ] final   38.08 input  -57.11 | X-H torsion

> <Gold.Protein.ActiveResidues>
 VAL166  LYS551  ARG553  GLY616  TRP617  ASP618  TYR619  PRO620  LYS621  CYS622 
 ASP623  PHE694  ASN695  SER759  ASP760  ASP761  ALA762  ILE779  LEU786  VAL792 
 PHE793  MET794  SER795  GLU796  ALA797  LYS798  CYS799  TRP800  GLU811  SER814 

> <Gold.Protein.RotatedAtoms>
  151.3072  133.4096  159.2643 H   0  0  0  0  0  0  0  0  0  0  0  0  # atno 6907 bound_to 6896
  151.0145  134.9423  159.8036 H   0  0  0  0  0  0  0  0  0  0  0  0  # atno 6908 bound_to 6896
  152.5309  134.3036  159.9140 H   0  0  0  0  0  0  0  0  0  0  0  0  # atno 6909 bound_to 6896
  146.1891  140.3923  142.8465 H   0  0  0  0  0  0  0  0  0  0  0  0  # atno 7974 bound_to 7965
  154.7621  140.0479  157.0982 H   0  0  0  0  0  0  0  0  0  0  0  0  # atno 8008 bound_to 7997
  154.9924  140.3115  155.4881 H   0  0  0  0  0  0  0  0  0  0  0  0  # atno 8009 bound_to 7997
  156.2906  140.2216  156.5030 H   0  0  0  0  0  0  0  0  0  0  0  0  # atno 8010 bound_to 7997
  140.4424  143.2510  151.8607 H   0  0  0  0  0  0  0  0  0  0  0  0  # atno 10167 bound_to 10162
  156.1018  130.6178  150.9135 H   0  0  0  0  0  0  0  0  0  0  0  0  # atno 10718 bound_to 10713
  153.7210  135.6945  153.5013 H   0  0  0  0  0  0  0  0  0  0  0  0  # atno 10763 bound_to 10752
  153.2204  135.4372  155.0481 H   0  0  0  0  0  0  0  0  0  0  0  0  # atno 10764 bound_to 10752
  154.8284  135.3459  154.6743 H   0  0  0  0  0  0  0  0  0  0  0  0  # atno 10765 bound_to 10752
  140.2161  134.3697  155.8026 H   0  0  0  0  0  0  0  0  0  0  0  0  # atno 11005 bound_to 11000
  144.8453  140.6919  143.6203 LP  0  0  0  0  0  0  0  0  0  0  0  0  # atno 17320 bound_to 7965
  145.3847  139.1629  143.4261 LP  0  0  0  0  0  0  0  0  0  0  0  0  # atno 17321 bound_to 7965
  139.4790  144.5214  151.8796 LP  0  0  0  0  0  0  0  0  0  0  0  0  # atno 17342 bound_to 10162
  140.4303  144.2124  150.5888 LP  0  0  0  0  0  0  0  0  0  0  0  0  # atno 17343 bound_to 10162
  157.6189  131.0931  150.8659 LP  0  0  0  0  0  0  0  0  0  0  0  0  # atno 17370 bound_to 10713
  156.8785  130.5171  149.5292 LP  0  0  0  0  0  0  0  0  0  0  0  0  # atno 17371 bound_to 10713
  141.2225  133.7169  156.8499 LP  0  0  0  0  0  0  0  0  0  0  0  0  # atno 17394 bound_to 11000
  140.1899  134.8973  157.3048 LP  0  0  0  0  0  0  0  0  0  0  0  0  # atno 17395 bound_to 11000

$$$$
