AV-unprocessed.smi:2439|AV-procd|sdf|9611|dock5
  -GOLD-   2272013243D 1   1.00000     0.00000
 Structure written by MMmdl.
 40 42  0  0  0  0  0  0  0  0  1 V2000
  151.5326  136.6285  154.7554 N   0  0  0  0  0  0  0  0  0  0  0  0
  150.9714  137.6323  154.8819 C   0  0  0  0  0  0  0  0  0  0  0  0
  150.2643  138.8972  155.0421 C   0  0  0  0  0  0  0  0  0  0  0  0
  149.6617  139.4901  153.9127 C   0  0  0  0  0  0  0  0  0  0  0  0
  148.9773  140.7101  154.0612 C   0  0  0  0  0  0  0  0  0  0  0  0
  148.9257  141.2926  155.3404 C   0  0  0  0  0  0  0  0  0  0  0  0
  149.4995  140.7376  156.4281 N   0  0  0  0  0  0  0  0  0  0  0  0
  150.1571  139.5593  156.2949 C   0  0  0  0  0  0  0  0  0  0  0  0
  150.7459  139.0034  157.4463 N   0  0  0  0  0  0  0  0  0  0  0  0
  152.0343  139.4626  157.9515 C   0  0  0  0  0  0  0  0  0  0  0  0
  151.8901  140.5622  159.0164 C   0  0  2  0  0  0  0  0  0  0  0  0
  150.9886  141.7102  158.5273 C   0  0  0  0  0  0  0  0  0  0  0  0
  150.9071  142.7902  159.5024 N   0  0  0  0  0  0  0  0  0  0  0  0
  150.0530  143.8757  159.0236 C   0  0  0  0  0  0  0  0  0  0  0  0
  149.9218  145.0131  160.0485 C   0  0  0  0  0  0  0  0  0  0  0  0
  151.3087  145.5536  160.4255 C   0  0  0  0  0  0  0  0  0  0  0  0
  152.2194  144.4009  160.8761 C   0  0  0  0  0  0  0  0  0  0  0  0
  152.2530  143.2782  159.8185 C   0  0  1  0  0  0  0  0  0  0  0  0
  153.1632  142.1217  160.2798 C   0  0  0  0  0  0  0  0  0  0  0  0
  153.1828  141.0960  159.2921 O   0  0  0  0  0  0  0  0  0  0  0  0
  149.7201  139.0194  152.9416 H   0  0  0  0  0  0  0  0  0  0  0  0
  148.5044  141.1875  153.2159 H   0  0  0  0  0  0  0  0  0  0  0  0
  148.4109  142.2294  155.4948 H   0  0  0  0  0  0  0  0  0  0  0  0
  150.1852  138.4156  158.0465 H   0  0  0  0  0  0  0  0  0  0  0  0
  152.5642  138.6082  158.3732 H   0  0  0  0  0  0  0  0  0  0  0  0
  152.6458  139.8154  157.1204 H   0  0  0  0  0  0  0  0  0  0  0  0
  151.4678  140.1420  159.9310 H   0  0  0  0  0  0  0  0  0  0  0  0
  151.3725  142.0951  157.5810 H   0  0  0  0  0  0  0  0  0  0  0  0
  149.9890  141.3241  158.3237 H   0  0  0  0  0  0  0  0  0  0  0  0
  150.4506  144.2743  158.0889 H   0  0  0  0  0  0  0  0  0  0  0  0
  149.0602  143.4866  158.7952 H   0  0  0  0  0  0  0  0  0  0  0  0
  149.3025  145.8145  159.6451 H   0  0  0  0  0  0  0  0  0  0  0  0
  149.4145  144.6449  160.9412 H   0  0  0  0  0  0  0  0  0  0  0  0
  151.7523  146.0545  159.5642 H   0  0  0  0  0  0  0  0  0  0  0  0
  151.2237  146.3013  161.2144 H   0  0  0  0  0  0  0  0  0  0  0  0
  153.2264  144.7770  161.0602 H   0  0  0  0  0  0  0  0  0  0  0  0
  151.8582  144.0024  161.8251 H   0  0  0  0  0  0  0  0  0  0  0  0
  152.6909  143.6936  158.9091 H   0  0  0  0  0  0  0  0  0  0  0  0
  154.1821  142.4773  160.4345 H   0  0  0  0  0  0  0  0  0  0  0  0
  152.8207  141.7096  161.2306 H   0  0  0  0  0  0  0  0  0  0  0  0
  1  2  3  0  0  0  0
  2  3  1  0  0  0  0
  3  8  1  0  0  0  0
  3  4  2  0  0  0  0
  4  5  1  0  0  0  0
  4 21  1  0  0  0  0
  5  6  2  0  0  0  0
  5 22  1  0  0  0  0
  6  7  1  0  0  0  0
  6 23  1  0  0  0  0
  7  8  2  0  0  0  0
  8  9  1  0  0  0  0
  9 10  1  0  0  0  0
  9 24  1  0  0  0  0
 10 11  1  0  0  0  0
 10 25  1  0  0  0  0
 10 26  1  0  0  0  0
 11 20  1  0  0  0  0
 11 12  1  0  0  0  0
 11 27  1  0  0  0  0
 12 13  1  0  0  0  0
 12 28  1  0  0  0  0
 12 29  1  0  0  0  0
 13 18  1  0  0  0  0
 13 14  1  0  0  0  0
 14 15  1  0  0  0  0
 14 30  1  0  0  0  0
 14 31  1  0  0  0  0
 15 16  1  0  0  0  0
 15 32  1  0  0  0  0
 15 33  1  0  0  0  0
 16 17  1  0  0  0  0
 16 34  1  0  0  0  0
 16 35  1  0  0  0  0
 17 18  1  0  0  0  0
 17 36  1  0  0  0  0
 17 37  1  0  0  0  0
 18 19  1  0  0  0  0
 18 38  1  0  0  0  0
 19 20  1  0  0  0  0
 19 39  1  0  0  0  0
 19 40  1  0  0  0  0
M  END
> <s_m_source_file>
AV-unprocessed.smi

> <i_m_source_file_index>
2439

> <i_lp_mmshare_version>
43012

> <i_f3d_flags>
0

> <s_epik_input>
TiNDYzFbY0hdW2NIXVtjSF1uYzFbTkhdW0NIMl1bQ0BIXShbQ0gyXTIpT1tDSDJdW0NAQEhdKE4yMylbQ0gyXVtDSDJdW0NIMl1bQ0gyXTM=

> <s_epik_cmdline>
J2VwaWtfcHl0aG9uJywgJy1waCcsICc3LjAnLCAnLXRuJywgJzgnLCAnLW1hJywgJzIwMCcsICctbWV0YWxfYmluZGluZycsICctaW1hZScsICc8aW5maWxlLm1hZT4nLCAnLW9tYWUnLCAnPG91dGZpbGUubWFlPic=

> <r_epik_Ionization_Penalty>
1.22355

> <r_epik_Ionization_Penalty_Charging>
0

> <r_epik_Ionization_Penalty_Neutral>
1.22355

> <r_epik_State_Penalty>
1.29103

> <r_epik_Charging_Adjusted_Penalty>
1.29103

> <i_epik_Tot_Q>
0

> <i_epik_Tot_abs_Q>
0

> <r_epik_Metal_State_Penalty>
1.29103

> <b_epik_Metal_Only>
0

> <s_lp_Force_Field>
OPLS_2005

> <r_lp_Energy>
37.4104

> <b_lp_Chiralities_Consistent>
1

> <s_lp_Variant>
AV-unprocessed.smi:2439-9

> <Gold.Version>
5.8.1

> <Gold.Id.Protein>
6NUR|6NUR_protein|mol2

> <Gold.PLP.Fitness>
40.9856

> <Gold.PLP.PLP>
-36.8871

> <Gold.PLP.part.hbond>
-1.7677

> <Gold.PLP.part.metal>
0.0000

> <Gold.PLP.part.buried>
-1.6334

> <Gold.PLP.part.nonpolar>
-34.1347

> <Gold.PLP.part.repulsive>
0.2263

> <Gold.PLP.ligand.clash>
0.0000

> <Gold.PLP.ligand.torsion>
0.9517

> <Gold.PLP.Chemscore.Hbond>
1.0000

> <Gold.PLP.Chemscore.CHOScore>
1.0000

> <Gold.PLP.Chemscore.Metal>
0.0000

> <Gold.Chemscore.Hbonds>
donor molecule, donor type, donor heavy atom, donor atom, acceptor molecule, acceptor atom, score
      P1  H 10752 10764       L1     1  1.00
      L1  C     6    23       P1  8028  1.00

> <Gold.PLP.Chemscore.Internal.Correction>
0.0019

> <Gold.Rescore>
     Score         DG    S(hbond)    S(metal)    S(lipo)     H(rot)  DE(clash)    DE(int)     intcor
     15.59     -17.88       0.98        0.00     105.27       1.25       0.10       2.18       ----

> <Gold.Chemscore.Fitness>
15.5904

> <Gold.Chemscore.DG>
-17.8785

> <Gold.Chemscore.ZeroCoef>
-5.4800

> <Gold.Chemscore.Hbond>
0.9813

> <Gold.Chemscore.Metal>
0.0000

> <Gold.Chemscore.Lipo>
105.2743

> <Gold.Chemscore.Internal_Hbond>
0.0000

> <Gold.Chemscore.DEClash>
0.1049

> <Gold.Chemscore.DEInternal>
2.1833

> <Gold.Chemscore.Rot>
1.2485

> <Gold.Chemscore.Internal.Correction>
   9.000000E+99

> <Gold.Chemscore.Hbonds>
donor molecule, donor type, donor heavy atom, donor atom, acceptor molecule, acceptor atom, score
      P1  H 10752 10764       L1     1  1.00

> <Gold.Chemscore.Hbond.Weighted>
-3.2776

> <Gold.Chemscore.Metal.Weighted>
-0.0000

> <Gold.Chemscore.Lipo.Weighted>
-12.3171

> <Gold.Chemscore.Internal_Hbond.Weighted>
0.0000

> <Gold.Chemscore.DEClash.Weighted>
0.1049

> <Gold.Chemscore.DEInternal.Weighted>
2.1833

> <Gold.Chemscore.Rot.Weighted>
3.1961

> <Gold.Chemscore.Internal.Correction.Weighted>
   9.000000E+99

> <Gold.Protein.RotatedTorsions>
[ 6907 6896 6895 6894 ] final -107.80 input  -60.11 | X-H torsion
[ 7974 7965 7964 7962 ] final  103.23 input  175.53 | X-H torsion
[ 8008 7997 7996 7995 ] final  157.79 input   59.86 | X-H torsion
[ 10167 10162 10161 10158 ] final -144.50 input  -65.29 | X-H torsion
[ 10718 10713 10712 10709 ] final   81.73 input   66.30 | X-H torsion
[ 10763 10752 10751 10750 ] final  -55.08 input  -60.55 | X-H torsion
[ 11005 11000 10999 10996 ] final -128.83 input  -57.11 | X-H torsion

> <Gold.Protein.ActiveResidues>
 VAL166  LYS551  ARG553  GLY616  TRP617  ASP618  TYR619  PRO620  LYS621  CYS622 
 ASP623  PHE694  ASN695  SER759  ASP760  ASP761  ALA762  ILE779  LEU786  VAL792 
 PHE793  MET794  SER795  GLU796  ALA797  LYS798  CYS799  TRP800  GLU811  SER814 

> <Gold.Protein.RotatedAtoms>
  150.7465  133.9772  159.3564 H   0  0  0  0  0  0  0  0  0  0  0  0  # atno 6907 bound_to 6896
  151.7710  135.0784  160.0369 H   0  0  0  0  0  0  0  0  0  0  0  0  # atno 6908 bound_to 6896
  152.3339  133.5952  159.5865 H   0  0  0  0  0  0  0  0  0  0  0  0  # atno 6909 bound_to 6896
  145.3486  139.2445  143.3570 H   0  0  0  0  0  0  0  0  0  0  0  0  # atno 7974 bound_to 7965
  156.2342  140.1876  156.7162 H   0  0  0  0  0  0  0  0  0  0  0  0  # atno 8008 bound_to 7997
  154.6077  140.0626  156.9480 H   0  0  0  0  0  0  0  0  0  0  0  0  # atno 8009 bound_to 7997
  155.2068  140.3296  155.4337 H   0  0  0  0  0  0  0  0  0  0  0  0  # atno 8010 bound_to 7997
  139.7893  143.7989  152.2648 H   0  0  0  0  0  0  0  0  0  0  0  0  # atno 10167 bound_to 10162
  157.6840  131.0017  150.2269 H   0  0  0  0  0  0  0  0  0  0  0  0  # atno 10718 bound_to 10713
  154.1851  135.6437  153.5044 H   0  0  0  0  0  0  0  0  0  0  0  0  # atno 10763 bound_to 10752
  153.0049  135.5415  154.6474 H   0  0  0  0  0  0  0  0  0  0  0  0  # atno 10764 bound_to 10752
  154.5848  135.2928  155.0668 H   0  0  0  0  0  0  0  0  0  0  0  0  # atno 10765 bound_to 10752
  140.9483  134.1100  157.4086 H   0  0  0  0  0  0  0  0  0  0  0  0  # atno 11005 bound_to 11000
  146.2977  140.4098  142.8715 LP  0  0  0  0  0  0  0  0  0  0  0  0  # atno 17320 bound_to 7965
  144.8735  140.7305  143.6032 LP  0  0  0  0  0  0  0  0  0  0  0  0  # atno 17321 bound_to 7965
  139.8075  144.7349  150.9741 LP  0  0  0  0  0  0  0  0  0  0  0  0  # atno 17342 bound_to 10162
  140.7820  143.4283  151.0734 LP  0  0  0  0  0  0  0  0  0  0  0  0  # atno 17343 bound_to 10162
  156.2910  130.3745  149.7842 LP  0  0  0  0  0  0  0  0  0  0  0  0  # atno 17370 bound_to 10713
  156.5501  130.8338  151.3297 LP  0  0  0  0  0  0  0  0  0  0  0  0  # atno 17371 bound_to 10713
  139.8840  135.0058  156.6337 LP  0  0  0  0  0  0  0  0  0  0  0  0  # atno 17394 bound_to 11000
  140.7638  133.8795  155.8439 LP  0  0  0  0  0  0  0  0  0  0  0  0  # atno 17395 bound_to 11000

$$$$
