AV-unprocessed.smi:436|AV-procd|sdf|2558|dock2
  -GOLD-   2262022523D 1   1.00000     0.00000
 Structure written by MMmdl.
 43 44  0  0  0  0  0  0  0  0  1 V2000
  144.5064  134.1810  150.2264 C   0  0  0  0  0  0  0  0  0  0  0  0
  144.9418  134.9716  151.4652 C   0  0  0  0  0  0  0  0  0  0  0  0
  145.6845  136.2659  151.1051 C   0  0  0  0  0  0  0  0  0  0  0  0
  145.9397  137.1626  152.3296 C   0  0  0  0  0  0  0  0  0  0  0  0
  146.6843  138.4696  151.9972 C   0  0  0  0  0  0  0  0  0  0  0  0
  147.1526  139.2301  153.2414 C   0  0  0  0  0  0  0  0  0  0  0  0
  146.3222  139.6110  154.0665 O   0  0  0  0  0  0  0  0  0  0  0  0
  148.4806  139.4270  153.3425 N   0  0  0  0  0  0  0  0  0  0  0  0
  149.1950  140.0975  154.3701 C   0  0  0  0  0  0  0  0  0  0  0  0
  150.4356  139.5198  154.7121 C   0  0  0  0  0  0  0  0  0  0  0  0
  151.2234  140.1141  155.7157 C   0  0  0  0  0  0  0  0  0  0  0  0
  150.7641  141.2814  156.3655 C   0  0  0  0  0  0  0  0  0  0  0  0
  151.5425  141.8973  157.3688 N   0  0  0  0  0  0  0  0  0  0  0  0
  151.8414  141.0768  158.5398 C   0  0  0  0  0  0  0  0  0  0  0  0
  152.9523  141.7299  159.3811 C   0  0  0  0  0  0  0  0  0  0  0  0
  152.5846  143.0646  159.7148 O   0  0  0  0  0  0  0  0  0  0  0  0
  152.4111  143.8713  158.5545 C   0  0  0  0  0  0  0  0  0  0  0  0
  151.2767  143.2966  157.6891 C   0  0  0  0  0  0  0  0  0  0  0  0
  149.5093  141.7879  155.9479 C   0  0  0  0  0  0  0  0  0  0  0  0
  148.7507  141.2173  154.9888 N   0  0  0  0  0  0  0  0  0  0  0  0
  143.9792  133.2705  150.5116 H   0  0  0  0  0  0  0  0  0  0  0  0
  145.3660  133.8919  149.6213 H   0  0  0  0  0  0  0  0  0  0  0  0
  143.8371  134.7701  149.5991 H   0  0  0  0  0  0  0  0  0  0  0  0
  144.0633  135.2087  152.0663 H   0  0  0  0  0  0  0  0  0  0  0  0
  145.5808  134.3431  152.0864 H   0  0  0  0  0  0  0  0  0  0  0  0
  146.6313  136.0119  150.6272 H   0  0  0  0  0  0  0  0  0  0  0  0
  145.1051  136.8204  150.3661 H   0  0  0  0  0  0  0  0  0  0  0  0
  144.9835  137.4180  152.7876 H   0  0  0  0  0  0  0  0  0  0  0  0
  146.4914  136.6028  153.0864 H   0  0  0  0  0  0  0  0  0  0  0  0
  147.5301  138.2589  151.3407 H   0  0  0  0  0  0  0  0  0  0  0  0
  146.0214  139.1286  151.4356 H   0  0  0  0  0  0  0  0  0  0  0  0
  149.0459  139.0389  152.6019 H   0  0  0  0  0  0  0  0  0  0  0  0
  150.7871  138.6293  154.2112 H   0  0  0  0  0  0  0  0  0  0  0  0
  152.1787  139.6762  155.9638 H   0  0  0  0  0  0  0  0  0  0  0  0
  150.9348  140.9739  159.1374 H   0  0  0  0  0  0  0  0  0  0  0  0
  152.1521  140.0710  158.2602 H   0  0  0  0  0  0  0  0  0  0  0  0
  153.1081  141.1650  160.3002 H   0  0  0  0  0  0  0  0  0  0  0  0
  153.9007  141.7265  158.8413 H   0  0  0  0  0  0  0  0  0  0  0  0
  152.1697  144.8890  158.8615 H   0  0  0  0  0  0  0  0  0  0  0  0
  153.3437  143.9217  157.9902 H   0  0  0  0  0  0  0  0  0  0  0  0
  151.1894  143.8835  156.7740 H   0  0  0  0  0  0  0  0  0  0  0  0
  150.3280  143.3726  158.2222 H   0  0  0  0  0  0  0  0  0  0  0  0
  149.0775  142.6720  156.3921 H   0  0  0  0  0  0  0  0  0  0  0  0
  1  2  1  0  0  0  0
  1 21  1  0  0  0  0
  1 22  1  0  0  0  0
  1 23  1  0  0  0  0
  2  3  1  0  0  0  0
  2 24  1  0  0  0  0
  2 25  1  0  0  0  0
  3  4  1  0  0  0  0
  3 26  1  0  0  0  0
  3 27  1  0  0  0  0
  4  5  1  0  0  0  0
  4 28  1  0  0  0  0
  4 29  1  0  0  0  0
  5  6  1  0  0  0  0
  5 30  1  0  0  0  0
  5 31  1  0  0  0  0
  6  7  2  0  0  0  0
  6  8  1  0  0  0  0
  8  9  1  0  0  0  0
  8 32  1  0  0  0  0
  9 20  1  0  0  0  0
  9 10  2  0  0  0  0
 10 11  1  0  0  0  0
 10 33  1  0  0  0  0
 11 12  2  0  0  0  0
 11 34  1  0  0  0  0
 12 13  1  0  0  0  0
 12 19  1  0  0  0  0
 13 18  1  0  0  0  0
 13 14  1  0  0  0  0
 14 15  1  0  0  0  0
 14 35  1  0  0  0  0
 14 36  1  0  0  0  0
 15 16  1  0  0  0  0
 15 37  1  0  0  0  0
 15 38  1  0  0  0  0
 16 17  1  0  0  0  0
 17 18  1  0  0  0  0
 17 39  1  0  0  0  0
 17 40  1  0  0  0  0
 18 41  1  0  0  0  0
 18 42  1  0  0  0  0
 19 20  2  0  0  0  0
 19 43  1  0  0  0  0
M  END
> <s_m_source_file>
AV-unprocessed.smi

> <i_m_source_file_index>
436

> <i_lp_mmshare_version>
43012

> <i_f3d_flags>
0

> <s_epik_input>
W0NIM11bQ0gyXVtDSDJdW0NIMl1bQ0gyXUMoPU8pW05IXWMxW2NIXVtjSF1jKFtjSF1uMSlOMltDSDJdW0NIMl1PW0NIMl1bQ0gyXTI=

> <s_epik_cmdline>
J2VwaWtfcHl0aG9uJywgJy1waCcsICc3LjAnLCAnLXRuJywgJzgnLCAnLW1hJywgJzIwMCcsICctbWV0YWxfYmluZGluZycsICctaW1hZScsICc8aW5maWxlLm1hZT4nLCAnLW9tYWUnLCAnPG91dGZpbGUubWFlPic=

> <r_lp_tautomer_probability>
1

> <r_epik_Ionization_Penalty>
0.00316644

> <r_epik_Ionization_Penalty_Charging>
0

> <r_epik_Ionization_Penalty_Neutral>
0.00316644

> <r_epik_State_Penalty>
0.00292554

> <r_epik_Charging_Adjusted_Penalty>
0.00292554

> <i_epik_Tot_Q>
0

> <i_epik_Tot_abs_Q>
0

> <r_epik_Metal_State_Penalty>
-0

> <b_epik_Metal_Only>
0

> <s_lp_Force_Field>
OPLS_2005

> <r_lp_Energy>
23.5001

> <b_lp_Chiralities_Consistent>
1

> <s_lp_Variant>
AV-unprocessed.smi:436-1

> <Gold.Version>
5.8.1

> <Gold.Id.Protein>
6NUR|6NUR_protein|mol2

> <Gold.PLP.Fitness>
44.2086

> <Gold.PLP.PLP>
-40.5862

> <Gold.PLP.part.hbond>
-1.0000

> <Gold.PLP.part.metal>
0.0000

> <Gold.PLP.part.buried>
-0.5918

> <Gold.PLP.part.nonpolar>
-39.6170

> <Gold.PLP.part.repulsive>
0.3873

> <Gold.PLP.ligand.clash>
0.0000

> <Gold.PLP.ligand.torsion>
0.6096

> <Gold.PLP.Chemscore.Hbond>
0.4800

> <Gold.PLP.Chemscore.CHOScore>
1.0000

> <Gold.PLP.Chemscore.Metal>
0.0000

> <Gold.Chemscore.Hbonds>
donor molecule, donor type, donor heavy atom, donor atom, acceptor molecule, acceptor atom, score
      L1  H     8    32       P1  7957  0.46
      L1  C    19    43       P1  8028  1.00

> <Gold.PLP.Chemscore.Internal.Correction>
0.4015

> <Gold.Rescore>
     Score         DG    S(hbond)    S(metal)    S(lipo)     H(rot)  DE(clash)    DE(int)     intcor
     13.91     -15.67       0.70        0.00     101.18       1.55       0.38       1.38       ----

> <Gold.Chemscore.Fitness>
13.9105

> <Gold.Chemscore.DG>
-15.6686

> <Gold.Chemscore.ZeroCoef>
-5.4800

> <Gold.Chemscore.Hbond>
0.6951

> <Gold.Chemscore.Metal>
0.0000

> <Gold.Chemscore.Lipo>
101.1753

> <Gold.Chemscore.Internal_Hbond>
0.0000

> <Gold.Chemscore.DEClash>
0.3819

> <Gold.Chemscore.DEInternal>
1.3762

> <Gold.Chemscore.Rot>
1.5509

> <Gold.Chemscore.Internal.Correction>
   9.000000E+99

> <Gold.Chemscore.Hbonds>
donor molecule, donor type, donor heavy atom, donor atom, acceptor molecule, acceptor atom, score
      L1  H     8    32       P1  7957  0.46

> <Gold.Chemscore.Hbond.Weighted>
-2.3215

> <Gold.Chemscore.Metal.Weighted>
-0.0000

> <Gold.Chemscore.Lipo.Weighted>
-11.8375

> <Gold.Chemscore.Internal_Hbond.Weighted>
0.0000

> <Gold.Chemscore.DEClash.Weighted>
0.3819

> <Gold.Chemscore.DEInternal.Weighted>
1.3762

> <Gold.Chemscore.Rot.Weighted>
3.9704

> <Gold.Chemscore.Internal.Correction.Weighted>
   9.000000E+99

> <Gold.Protein.RotatedTorsions>
[ 6907 6896 6895 6894 ] final -103.63 input  -60.11 | X-H torsion
[ 7974 7965 7964 7962 ] final  170.25 input  175.53 | X-H torsion
[ 8008 7997 7996 7995 ] final -166.56 input   59.86 | X-H torsion
[ 10167 10162 10161 10158 ] final  132.28 input  -65.29 | X-H torsion
[ 10718 10713 10712 10709 ] final -104.92 input   66.30 | X-H torsion
[ 10763 10752 10751 10750 ] final  137.45 input  -60.55 | X-H torsion
[ 11005 11000 10999 10996 ] final -102.91 input  -57.11 | X-H torsion

> <Gold.Protein.ActiveResidues>
 VAL166  LYS551  ARG553  GLY616  TRP617  ASP618  TYR619  PRO620  LYS621  CYS622 
 ASP623  PHE694  ASN695  SER759  ASP760  ASP761  ALA762  ILE779  LEU786  VAL792 
 PHE793  MET794  SER795  GLU796  ALA797  LYS798  CYS799  TRP800  GLU811  SER814 

> <Gold.Protein.RotatedAtoms>
  150.7249  134.0401  159.3762 H   0  0  0  0  0  0  0  0  0  0  0  0  # atno 6907 bound_to 6896
  151.8374  135.0599  160.0453 H   0  0  0  0  0  0  0  0  0  0  0  0  # atno 6908 bound_to 6896
  152.2888  133.5505  159.5581 H   0  0  0  0  0  0  0  0  0  0  0  0  # atno 6909 bound_to 6896
  144.7329  139.9174  143.6418 H   0  0  0  0  0  0  0  0  0  0  0  0  # atno 7974 bound_to 7965
  155.8656  140.0985  157.1585 H   0  0  0  0  0  0  0  0  0  0  0  0  # atno 8008 bound_to 7997
  154.3993  140.1357  156.4077 H   0  0  0  0  0  0  0  0  0  0  0  0  # atno 8009 bound_to 7997
  155.7808  140.3458  155.5299 H   0  0  0  0  0  0  0  0  0  0  0  0  # atno 8010 bound_to 7997
  139.5346  144.6669  151.4829 H   0  0  0  0  0  0  0  0  0  0  0  0  # atno 10167 bound_to 10162
  156.0324  130.5538  150.7465 H   0  0  0  0  0  0  0  0  0  0  0  0  # atno 10718 bound_to 10713
  153.8733  135.3053  155.3443 H   0  0  0  0  0  0  0  0  0  0  0  0  # atno 10763 bound_to 10752
  154.7795  135.4843  153.9818 H   0  0  0  0  0  0  0  0  0  0  0  0  # atno 10764 bound_to 10752
  153.1393  135.6821  153.9148 H   0  0  0  0  0  0  0  0  0  0  0  0  # atno 10765 bound_to 10752
  141.1169  133.8597  157.1419 H   0  0  0  0  0  0  0  0  0  0  0  0  # atno 11005 bound_to 11000
  146.0955  139.3947  143.0379 LP  0  0  0  0  0  0  0  0  0  0  0  0  # atno 17320 bound_to 7965
  145.7651  140.9919  143.1179 LP  0  0  0  0  0  0  0  0  0  0  0  0  # atno 17321 bound_to 7965
  140.6546  143.8626  150.6821 LP  0  0  0  0  0  0  0  0  0  0  0  0  # atno 17342 bound_to 10162
  140.2002  143.3966  152.1797 LP  0  0  0  0  0  0  0  0  0  0  0  0  # atno 17343 bound_to 10162
  157.5021  131.0919  151.0302 LP  0  0  0  0  0  0  0  0  0  0  0  0  # atno 17370 bound_to 10713
  157.0680  130.5852  149.5397 LP  0  0  0  0  0  0  0  0  0  0  0  0  # atno 17371 bound_to 10713
  140.0097  134.9993  157.0369 LP  0  0  0  0  0  0  0  0  0  0  0  0  # atno 17394 bound_to 11000
  140.4621  134.1474  155.7192 LP  0  0  0  0  0  0  0  0  0  0  0  0  # atno 17395 bound_to 11000

$$$$
