AV-unprocessed.smi:244|AV-procd|sdf|1868|dock2
  -GOLD-   2262020503D 1   1.00000     0.00000
 Structure written by MMmdl.
 57 61  0  0  0  0  0  0  0  0  2 V2000
  149.8162  136.9797  156.8477 C   0  0  0  0  0  0  0  0  0  0  0  0
  149.4096  138.2215  156.1562 N   0  3  1  0  0  0  0  0  0  0  0  0
  150.2322  139.3895  156.5565 C   0  0  0  0  0  0  0  0  0  0  0  0
  149.6746  140.6830  155.9434 C   0  0  0  0  0  0  0  0  0  0  0  0
  149.5632  140.5672  154.4074 C   0  0  2  0  0  0  0  0  0  0  0  0
  149.0128  141.7405  153.8047 O   0  0  0  0  0  0  0  0  0  0  0  0
  147.6265  141.9518  154.0655 C   0  0  0  0  0  0  0  0  0  0  0  0
  146.8148  140.7227  153.6323 C   0  0  0  0  0  0  0  0  0  0  0  0
  147.3391  139.5205  154.2694 N   0  0  0  0  0  0  0  0  0  0  0  0
  146.5416  138.4471  154.0806 C   0  0  0  0  0  0  0  0  0  0  0  0
  146.0567  137.8415  155.1918 N   0  0  0  0  0  0  0  0  0  0  0  0
  145.2757  136.7631  155.0748 C   0  0  0  0  0  0  0  0  0  0  0  0
  144.8729  136.1408  153.9648 N   0  0  0  0  0  0  0  0  0  0  0  0
  145.3666  136.7461  152.8466 C   0  0  0  0  0  0  0  0  0  0  0  0
  146.2022  137.8969  152.8128 C   0  0  0  0  0  0  0  0  0  0  0  0
  146.5081  138.2244  151.4977 N   0  0  0  0  0  0  0  0  0  0  0  0
  145.8789  137.3241  150.7925 C   0  0  0  0  0  0  0  0  0  0  0  0
  145.1791  136.3897  151.5228 N   0  0  0  0  0  0  0  0  0  0  0  0
  144.4016  135.2768  150.9997 C   0  0  0  0  0  0  0  0  0  0  0  0
  144.7840  133.9014  151.6017 C   0  0  0  0  0  0  0  0  0  0  0  0
  144.2059  133.8149  152.8929 O   0  0  0  0  0  0  0  0  0  0  0  0
  144.2125  132.7613  150.7348 C   0  0  0  0  0  0  0  0  0  0  0  0
  144.7109  131.3782  151.1895 C   0  0  0  0  0  0  0  0  0  0  0  0
  146.1328  131.3548  151.2021 O   0  0  0  0  0  0  0  0  0  0  0  0
  146.6889  132.2773  152.1308 C   0  0  0  0  0  0  0  0  0  0  0  0
  146.3113  133.7172  151.7396 C   0  0  0  0  0  0  0  0  0  0  0  0
  148.7631  139.3109  153.9906 C   0  0  2  0  0  0  0  0  0  0  0  0
  149.3647  138.0605  154.6813 C   0  0  0  0  0  0  0  0  0  0  0  0
  150.8333  136.6949  156.5755 H   0  0  0  0  0  0  0  0  0  0  0  0
  149.1477  136.1583  156.5875 H   0  0  0  0  0  0  0  0  0  0  0  0
  149.7742  137.1102  157.9295 H   0  0  0  0  0  0  0  0  0  0  0  0
  150.2403  139.4776  157.6437 H   0  0  0  0  0  0  0  0  0  0  0  0
  151.2662  139.2362  156.2430 H   0  0  0  0  0  0  0  0  0  0  0  0
  148.7019  140.8794  156.3931 H   0  0  0  0  0  0  0  0  0  0  0  0
  150.3127  141.5265  156.2078 H   0  0  0  0  0  0  0  0  0  0  0  0
  150.5753  140.4695  154.0124 H   0  0  0  0  0  0  0  0  0  0  0  0
  147.4587  142.1789  155.1179 H   0  0  0  0  0  0  0  0  0  0  0  0
  147.2971  142.8286  153.5078 H   0  0  0  0  0  0  0  0  0  0  0  0
  145.7647  140.8593  153.8947 H   0  0  0  0  0  0  0  0  0  0  0  0
  146.8638  140.6197  152.5477 H   0  0  0  0  0  0  0  0  0  0  0  0
  144.9251  136.3351  156.0025 H   0  0  0  0  0  0  0  0  0  0  0  0
  145.9163  137.3101  149.7127 H   0  0  0  0  0  0  0  0  0  0  0  0
  143.3449  135.4855  151.1735 H   0  0  0  0  0  0  0  0  0  0  0  0
  144.5309  135.2586  149.9166 H   0  0  0  0  0  0  0  0  0  0  0  0
  143.3731  133.3739  152.8206 H   0  0  0  0  0  0  0  0  0  0  0  0
  143.1219  132.7865  150.7387 H   0  0  0  0  0  0  0  0  0  0  0  0
  144.5168  132.9110  149.6981 H   0  0  0  0  0  0  0  0  0  0  0  0
  144.3215  131.1226  152.1761 H   0  0  0  0  0  0  0  0  0  0  0  0
  144.3547  130.6104  150.5025 H   0  0  0  0  0  0  0  0  0  0  0  0
  146.3501  132.0424  153.1410 H   0  0  0  0  0  0  0  0  0  0  0  0
  147.7731  132.1644  152.1294 H   0  0  0  0  0  0  0  0  0  0  0  0
  146.7887  133.9549  150.7880 H   0  0  0  0  0  0  0  0  0  0  0  0
  146.7236  134.4126  152.4715 H   0  0  0  0  0  0  0  0  0  0  0  0
  148.8680  139.1849  152.9118 H   0  0  0  0  0  0  0  0  0  0  0  0
  150.3794  137.8960  154.3149 H   0  0  0  0  0  0  0  0  0  0  0  0
  148.8065  137.1608  154.4190 H   0  0  0  0  0  0  0  0  0  0  0  0
  148.4633  138.4156  156.4531 H   0  0  0  0  0  0  0  0  0  0  0  0
  1  2  1  0  0  0  0
  1 29  1  0  0  0  0
  1 30  1  0  0  0  0
  1 31  1  0  0  0  0
  2 28  1  0  0  0  0
  2  3  1  0  0  0  0
  2 57  1  0  0  0  0
  3  4  1  0  0  0  0
  3 32  1  0  0  0  0
  3 33  1  0  0  0  0
  4  5  1  0  0  0  0
  4 34  1  0  0  0  0
  4 35  1  0  0  0  0
  5 27  1  0  0  0  0
  5  6  1  0  0  0  0
  5 36  1  0  0  0  0
  6  7  1  0  0  0  0
  7  8  1  0  0  0  0
  7 37  1  0  0  0  0
  7 38  1  0  0  0  0
  8  9  1  0  0  0  0
  8 39  1  0  0  0  0
  8 40  1  0  0  0  0
  9 10  1  0  0  0  0
  9 27  1  0  0  0  0
 10 15  1  0  0  0  0
 10 11  2  0  0  0  0
 11 12  1  0  0  0  0
 12 13  2  0  0  0  0
 12 41  1  0  0  0  0
 13 14  1  0  0  0  0
 14 18  1  0  0  0  0
 14 15  2  0  0  0  0
 15 16  1  0  0  0  0
 16 17  2  0  0  0  0
 17 18  1  0  0  0  0
 17 42  1  0  0  0  0
 18 19  1  0  0  0  0
 19 20  1  0  0  0  0
 19 43  1  0  0  0  0
 19 44  1  0  0  0  0
 20 26  1  0  0  0  0
 20 21  1  0  0  0  0
 20 22  1  0  0  0  0
 21 45  1  0  0  0  0
 22 23  1  0  0  0  0
 22 46  1  0  0  0  0
 22 47  1  0  0  0  0
 23 24  1  0  0  0  0
 23 48  1  0  0  0  0
 23 49  1  0  0  0  0
 24 25  1  0  0  0  0
 25 26  1  0  0  0  0
 25 50  1  0  0  0  0
 25 51  1  0  0  0  0
 26 52  1  0  0  0  0
 26 53  1  0  0  0  0
 27 28  1  0  0  0  0
 27 54  1  0  0  0  0
 28 55  1  0  0  0  0
 28 56  1  0  0  0  0
M  CHG  1   2   1
M  END
> <s_m_source_file>
AV-unprocessed.smi

> <i_m_source_file_index>
244

> <i_lp_mmshare_version>
43012

> <i_f3d_flags>
0

> <s_epik_input>
W0NIMl0xW0NIMl1OKFtDSDNdKVtDSDJdW0NAQEhdKFtDQEhdMTIpTihbQ0gyXVtDSDJdTzIpYyhuW2NIXW4zKWMoYzM0KW5bY0hdbjRbQ0gyXUM1KFtPSF0pW0NIMl1bQ0gyXU9bQ0gyXVtDSDJdNQ==

> <s_epik_cmdline>
J2VwaWtfcHl0aG9uJywgJy1waCcsICc3LjAnLCAnLXRuJywgJzgnLCAnLW1hJywgJzIwMCcsICctbWV0YWxfYmluZGluZycsICctaW1hZScsICc8aW5maWxlLm1hZT4nLCAnLW9tYWUnLCAnPG91dGZpbGUubWFlPic=

> <r_lp_tautomer_probability>
1

> <r_epik_Ionization_Penalty>
0.0136215

> <r_epik_Ionization_Penalty_Charging>
0.0131385

> <r_epik_Ionization_Penalty_Neutral>
0.000483022

> <r_epik_State_Penalty>
0.0104001

> <r_epik_Charging_Adjusted_Penalty>
0.0235387

> <i_epik_Tot_Q>
1

> <i_epik_Tot_abs_Q>
1

> <r_epik_Metal_State_Penalty>
0.0104469

> <b_epik_Metal_Only>
0

> <s_lp_Force_Field>
OPLS_2005

> <r_lp_Energy>
48.7962

> <b_lp_Chiralities_Consistent>
1

> <s_lp_Variant>
AV-unprocessed.smi:244-5

> <Gold.Version>
5.8.1

> <Gold.Id.Protein>
6NUR|6NUR_protein|mol2

> <Gold.PLP.Fitness>
37.4861

> <Gold.PLP.PLP>
-35.9285

> <Gold.PLP.part.hbond>
-2.3289

> <Gold.PLP.part.metal>
0.0000

> <Gold.PLP.part.buried>
-2.4229

> <Gold.PLP.part.nonpolar>
-34.1889

> <Gold.PLP.part.repulsive>
1.3517

> <Gold.PLP.ligand.clash>
0.0000

> <Gold.PLP.ligand.torsion>
0.3738

> <Gold.PLP.Chemscore.Hbond>
0.6435

> <Gold.PLP.Chemscore.CHOScore>
0.0759

> <Gold.PLP.Chemscore.Metal>
0.0000

> <Gold.Chemscore.Hbonds>
donor molecule, donor type, donor heavy atom, donor atom, acceptor molecule, acceptor atom, score
      P1  H  7954  7966       L1    16  0.02
      P1  H  8011  8017       L1     6  0.61
      L1  C    17    42       P1 10171  0.14

> <Gold.PLP.Chemscore.Internal.Correction>
0.1470

> <Gold.Rescore>
     Score         DG    S(hbond)    S(metal)    S(lipo)     H(rot)  DE(clash)    DE(int)     intcor
     10.49     -12.40       0.78        0.00      82.57       2.09       1.58       0.33       ----

> <Gold.Chemscore.Fitness>
10.4935

> <Gold.Chemscore.DG>
-12.4041

> <Gold.Chemscore.ZeroCoef>
-5.4800

> <Gold.Chemscore.Hbond>
0.7835

> <Gold.Chemscore.Metal>
0.0000

> <Gold.Chemscore.Lipo>
82.5676

> <Gold.Chemscore.Internal_Hbond>
0.0000

> <Gold.Chemscore.DEClash>
1.5844

> <Gold.Chemscore.DEInternal>
0.3262

> <Gold.Chemscore.Rot>
2.0911

> <Gold.Chemscore.Internal.Correction>
   9.000000E+99

> <Gold.Chemscore.Hbonds>
donor molecule, donor type, donor heavy atom, donor atom, acceptor molecule, acceptor atom, score
      P1  H  8011  8017       L1     6  0.58

> <Gold.Chemscore.Hbond.Weighted>
-2.6168

> <Gold.Chemscore.Metal.Weighted>
-0.0000

> <Gold.Chemscore.Lipo.Weighted>
-9.6604

> <Gold.Chemscore.Internal_Hbond.Weighted>
0.0000

> <Gold.Chemscore.DEClash.Weighted>
1.5844

> <Gold.Chemscore.DEInternal.Weighted>
0.3262

> <Gold.Chemscore.Rot.Weighted>
5.3531

> <Gold.Chemscore.Internal.Correction.Weighted>
   9.000000E+99

> <Gold.Protein.RotatedTorsions>
[ 6907 6896 6895 6894 ] final  -20.70 input  -60.11 | X-H torsion
[ 7974 7965 7964 7962 ] final  168.19 input  175.53 | X-H torsion
[ 8008 7997 7996 7995 ] final   69.52 input   59.86 | X-H torsion
[ 10167 10162 10161 10158 ] final -140.64 input  -65.29 | X-H torsion
[ 10718 10713 10712 10709 ] final  -38.87 input   66.30 | X-H torsion
[ 10763 10752 10751 10750 ] final  -38.52 input  -60.55 | X-H torsion
[ 11005 11000 10999 10996 ] final   13.45 input  -57.11 | X-H torsion

> <Gold.Protein.ActiveResidues>
 VAL166  LYS551  ARG553  GLY616  TRP617  ASP618  TYR619  PRO620  LYS621  CYS622 
 ASP623  PHE694  ASN695  SER759  ASP760  ASP761  ALA762  ILE779  LEU786  VAL792 
 PHE793  MET794  SER795  GLU796  ALA797  LYS798  CYS799  TRP800  GLU811  SER814 

> <Gold.Protein.RotatedAtoms>
  151.2443  135.0600  159.9036 H   0  0  0  0  0  0  0  0  0  0  0  0  # atno 6907 bound_to 6896
  152.5389  134.0401  159.8074 H   0  0  0  0  0  0  0  0  0  0  0  0  # atno 6908 bound_to 6896
  151.0599  133.5504  159.2666 H   0  0  0  0  0  0  0  0  0  0  0  0  # atno 6909 bound_to 6896
  144.7397  139.8872  143.6400 H   0  0  0  0  0  0  0  0  0  0  0  0  # atno 7974 bound_to 7965
  155.7249  140.3493  155.5033 H   0  0  0  0  0  0  0  0  0  0  0  0  # atno 8008 bound_to 7997
  155.9236  140.1071  157.1209 H   0  0  0  0  0  0  0  0  0  0  0  0  # atno 8009 bound_to 7997
  154.4073  140.1245  156.4698 H   0  0  0  0  0  0  0  0  0  0  0  0  # atno 8010 bound_to 7997
  139.8262  143.7508  152.2666 H   0  0  0  0  0  0  0  0  0  0  0  0  # atno 10167 bound_to 10162
  156.2988  130.4237  149.8164 H   0  0  0  0  0  0  0  0  0  0  0  0  # atno 10718 bound_to 10713
  153.9142  135.6789  153.4750 H   0  0  0  0  0  0  0  0  0  0  0  0  # atno 10763 bound_to 10752
  153.1062  135.4804  154.8953 H   0  0  0  0  0  0  0  0  0  0  0  0  # atno 10764 bound_to 10752
  154.7511  135.3185  154.8511 H   0  0  0  0  0  0  0  0  0  0  0  0  # atno 10765 bound_to 10752
  140.4806  134.0939  155.7750 H   0  0  0  0  0  0  0  0  0  0  0  0  # atno 11005 bound_to 11000
  146.1168  139.4181  143.0253 LP  0  0  0  0  0  0  0  0  0  0  0  0  # atno 17320 bound_to 7965
  145.7362  141.0024  143.1325 LP  0  0  0  0  0  0  0  0  0  0  0  0  # atno 17321 bound_to 7965
  139.7701  144.7479  151.0237 LP  0  0  0  0  0  0  0  0  0  0  0  0  # atno 17342 bound_to 10162
  140.7810  143.4654  151.0219 LP  0  0  0  0  0  0  0  0  0  0  0  0  # atno 17343 bound_to 10162
  156.5549  130.8358  151.3311 LP  0  0  0  0  0  0  0  0  0  0  0  0  # atno 17370 bound_to 10713
  157.7362  130.9775  150.2126 LP  0  0  0  0  0  0  0  0  0  0  0  0  # atno 17371 bound_to 10713
  141.1533  133.8929  157.2043 LP  0  0  0  0  0  0  0  0  0  0  0  0  # atno 17394 bound_to 11000
  139.9829  135.0092  156.9792 LP  0  0  0  0  0  0  0  0  0  0  0  0  # atno 17395 bound_to 11000

$$$$
