AV-unprocessed.smi:1725|AV-procd|sdf|6953|dock5
  -GOLD-   22720 8163D 1   1.00000     0.00000
 Structure written by MMmdl.
 36 37  0  0  0  0  0  0  0  0  1 V2000
  153.5326  140.9974  159.9477 C   0  0  0  0  0  0  0  0  0  0  0  0
  152.6060  141.8286  159.0481 C   0  0  2  0  0  0  0  0  0  0  0  0
  151.5271  142.2910  159.8557 O   0  0  0  0  0  0  0  0  0  0  0  0
  151.9011  143.1015  160.9626 C   0  0  0  0  0  0  0  0  0  0  0  0
  151.6649  144.5525  160.6039 C   0  0  0  0  0  0  0  0  0  0  0  0
  150.6003  144.9277  159.5983 C   0  0  0  0  0  0  0  0  0  0  0  0
  152.0574  145.0867  159.2450 C   0  0  0  0  0  0  0  0  0  0  0  0
  152.0713  140.9938  157.8731 C   0  0  0  0  0  0  0  0  0  0  0  0
  152.4178  139.8180  157.7620 O   0  0  0  0  0  0  0  0  0  0  0  0
  151.2150  141.6333  157.0515 N   0  0  0  0  0  0  0  0  0  0  0  0
  150.5653  141.1698  155.8946 C   0  0  0  0  0  0  0  0  0  0  0  0
  149.2678  141.4171  155.5753 C   0  0  0  0  0  0  0  0  0  0  0  0
  148.6572  140.8932  154.3662 C   0  0  0  0  0  0  0  0  0  0  0  0
  147.2079  141.2039  154.0282 C   0  0  0  0  0  0  0  0  0  0  0  0
  146.7943  140.5340  152.9516 F   0  0  0  0  0  0  0  0  0  0  0  0
  146.4202  140.8793  155.0526 F   0  0  0  0  0  0  0  0  0  0  0  0
  147.0602  142.5073  153.7934 F   0  0  0  0  0  0  0  0  0  0  0  0
  149.4403  140.1360  153.5755 C   0  0  0  0  0  0  0  0  0  0  0  0
  150.7715  139.8679  153.9013 N   0  0  0  0  0  0  0  0  0  0  0  0
  151.3923  140.3332  155.0086 C   0  0  0  0  0  0  0  0  0  0  0  0
  152.5706  140.0518  155.2241 O   0  0  0  0  0  0  0  0  0  0  0  0
  151.2930  139.2878  153.2595 H   0  0  0  0  0  0  0  0  0  0  0  0
  154.3775  140.5981  159.3858 H   0  0  0  0  0  0  0  0  0  0  0  0
  153.0050  140.1583  160.4027 H   0  0  0  0  0  0  0  0  0  0  0  0
  153.9352  141.6087  160.7556 H   0  0  0  0  0  0  0  0  0  0  0  0
  153.1716  142.6840  158.6729 H   0  0  0  0  0  0  0  0  0  0  0  0
  151.3130  142.8383  161.8431 H   0  0  0  0  0  0  0  0  0  0  0  0
  152.9545  142.9737  161.2127 H   0  0  0  0  0  0  0  0  0  0  0  0
  151.7871  145.2368  161.4414 H   0  0  0  0  0  0  0  0  0  0  0  0
  150.0524  144.1215  159.1145 H   0  0  0  0  0  0  0  0  0  0  0  0
  150.0269  145.8326  159.7880 H   0  0  0  0  0  0  0  0  0  0  0  0
  152.4582  146.0974  159.2012 H   0  0  0  0  0  0  0  0  0  0  0  0
  152.4795  144.3864  158.5270 H   0  0  0  0  0  0  0  0  0  0  0  0
  150.9780  142.5803  157.3107 H   0  0  0  0  0  0  0  0  0  0  0  0
  148.6317  142.0013  156.2193 H   0  0  0  0  0  0  0  0  0  0  0  0
  149.1191  139.6840  152.6486 H   0  0  0  0  0  0  0  0  0  0  0  0
  1  2  1  0  0  0  0
  1 23  1  0  0  0  0
  1 24  1  0  0  0  0
  1 25  1  0  0  0  0
  2  3  1  0  0  0  0
  2  8  1  0  0  0  0
  2 26  1  0  0  0  0
  3  4  1  0  0  0  0
  4  5  1  0  0  0  0
  4 27  1  0  0  0  0
  4 28  1  0  0  0  0
  5  7  1  0  0  0  0
  5  6  1  0  0  0  0
  5 29  1  0  0  0  0
  6  7  1  0  0  0  0
  6 30  1  0  0  0  0
  6 31  1  0  0  0  0
  7 32  1  0  0  0  0
  7 33  1  0  0  0  0
  8  9  2  0  0  0  0
  8 10  1  0  0  0  0
 10 11  1  0  0  0  0
 10 34  1  0  0  0  0
 11 20  1  0  0  0  0
 11 12  2  0  0  0  0
 12 13  1  0  0  0  0
 12 35  1  0  0  0  0
 13 14  1  0  0  0  0
 13 18  2  0  0  0  0
 14 15  1  0  0  0  0
 14 16  1  0  0  0  0
 14 17  1  0  0  0  0
 18 19  1  0  0  0  0
 18 36  1  0  0  0  0
 19 22  1  0  0  0  0
 19 20  1  0  0  0  0
 20 21  2  0  0  0  0
M  END
> <s_m_source_file>
AV-unprocessed.smi

> <i_m_source_file_index>
1725

> <i_lp_mmshare_version>
43012

> <i_f3d_flags>
0

> <s_epik_input>
W0NIMl0xW0NIMl1bQ0hdMVtDSDJdT1tDQEBIXShbQ0gzXSlDKD1PKVtOSF1jMltjSF1jKEMoRikoRilGKVtjSF1bbkhdYzI9Tw==

> <s_epik_cmdline>
J2VwaWtfcHl0aG9uJywgJy1waCcsICc3LjAnLCAnLXRuJywgJzgnLCAnLW1hJywgJzIwMCcsICctbWV0YWxfYmluZGluZycsICctaW1hZScsICc8aW5maWxlLm1hZT4nLCAnLW9tYWUnLCAnPG91dGZpbGUubWFlPic=

> <r_lp_tautomer_probability>
0.999

> <r_epik_Ionization_Penalty>
0.00763408

> <r_epik_Ionization_Penalty_Charging>
0.00763398

> <r_epik_Ionization_Penalty_Neutral>
9.25705e-08

> <r_epik_State_Penalty>
0.00571302

> <r_epik_Charging_Adjusted_Penalty>
0.013347

> <i_epik_Tot_Q>
0

> <i_epik_Tot_abs_Q>
0

> <r_epik_Metal_State_Penalty>
0.392814

> <b_epik_Metal_Only>
0

> <s_lp_Force_Field>
OPLS_2005

> <r_lp_Energy>
28.2776

> <b_lp_Chiralities_Consistent>
1

> <s_lp_Variant>
AV-unprocessed.smi:1725-1

> <Gold.Version>
5.8.1

> <Gold.Id.Protein>
6NUR|6NUR_protein|mol2

> <Gold.PLP.Fitness>
50.9496

> <Gold.PLP.PLP>
-45.5356

> <Gold.PLP.part.hbond>
-1.0000

> <Gold.PLP.part.metal>
0.0000

> <Gold.PLP.part.buried>
-5.5962

> <Gold.PLP.part.nonpolar>
-39.0717

> <Gold.PLP.part.repulsive>
0.2083

> <Gold.PLP.ligand.clash>
0.0919

> <Gold.PLP.ligand.torsion>
1.0041

> <Gold.PLP.Chemscore.Hbond>
1.0000

> <Gold.PLP.Chemscore.CHOScore>
1.2917

> <Gold.PLP.Chemscore.Metal>
0.0000

> <Gold.Chemscore.Hbonds>
donor molecule, donor type, donor heavy atom, donor atom, acceptor molecule, acceptor atom, score
      P1  H  7997  8009       L1    21  0.39

> <Gold.PLP.Chemscore.Internal.Correction>
0.6391

> <Gold.Rescore>
     Score         DG    S(hbond)    S(metal)    S(lipo)     H(rot)  DE(clash)    DE(int)     intcor
     10.17     -15.72       0.95        0.00      99.57       1.79       0.09       5.46       ----

> <Gold.Chemscore.Fitness>
10.1745

> <Gold.Chemscore.DG>
-15.7224

> <Gold.Chemscore.ZeroCoef>
-5.4800

> <Gold.Chemscore.Hbond>
0.9537

> <Gold.Chemscore.Metal>
0.0000

> <Gold.Chemscore.Lipo>
99.5660

> <Gold.Chemscore.Internal_Hbond>
0.0000

> <Gold.Chemscore.DEClash>
0.0917

> <Gold.Chemscore.DEInternal>
5.4562

> <Gold.Chemscore.Rot>
1.7938

> <Gold.Chemscore.Internal.Correction>
   9.000000E+99

> <Gold.Chemscore.Hbonds>
donor molecule, donor type, donor heavy atom, donor atom, acceptor molecule, acceptor atom, score
      P1  H  7997  8009       L1    21  0.39

> <Gold.Chemscore.Hbond.Weighted>
-3.1854

> <Gold.Chemscore.Metal.Weighted>
-0.0000

> <Gold.Chemscore.Lipo.Weighted>
-11.6492

> <Gold.Chemscore.Internal_Hbond.Weighted>
0.0000

> <Gold.Chemscore.DEClash.Weighted>
0.0917

> <Gold.Chemscore.DEInternal.Weighted>
5.4562

> <Gold.Chemscore.Rot.Weighted>
4.5922

> <Gold.Chemscore.Internal.Correction.Weighted>
   9.000000E+99

> <Gold.Protein.RotatedTorsions>
[ 6907 6896 6895 6894 ] final -102.54 input  -60.11 | X-H torsion
[ 7974 7965 7964 7962 ] final   60.04 input  175.53 | X-H torsion
[ 8008 7997 7996 7995 ] final -174.24 input   59.86 | X-H torsion
[ 10167 10162 10161 10158 ] final -148.97 input  -65.29 | X-H torsion
[ 10718 10713 10712 10709 ] final   71.24 input   66.30 | X-H torsion
[ 10763 10752 10751 10750 ] final   17.89 input  -60.55 | X-H torsion
[ 11005 11000 10999 10996 ] final  -89.35 input  -57.11 | X-H torsion

> <Gold.Protein.ActiveResidues>
 VAL166  LYS551  ARG553  GLY616  TRP617  ASP618  TYR619  PRO620  LYS621  CYS622 
 ASP623  PHE694  ASN695  SER759  ASP760  ASP761  ALA762  ILE779  LEU786  VAL792 
 PHE793  MET794  SER795  GLU796  ALA797  LYS798  CYS799  TRP800  GLU811  SER814 

> <Gold.Protein.RotatedAtoms>
  150.7200  134.0566  159.3816 H   0  0  0  0  0  0  0  0  0  0  0  0  # atno 6907 bound_to 6896
  151.8544  135.0544  160.0472 H   0  0  0  0  0  0  0  0  0  0  0  0  # atno 6908 bound_to 6896
  152.2765  133.5395  159.5508 H   0  0  0  0  0  0  0  0  0  0  0  0  # atno 6909 bound_to 6896
  145.9004  139.3577  143.0595 H   0  0  0  0  0  0  0  0  0  0  0  0  # atno 7974 bound_to 7965
  155.9676  140.1156  157.0841 H   0  0  0  0  0  0  0  0  0  0  0  0  # atno 8008 bound_to 7997
  154.4148  140.1169  156.5330 H   0  0  0  0  0  0  0  0  0  0  0  0  # atno 8009 bound_to 7997
  155.6639  140.3473  155.4795 H   0  0  0  0  0  0  0  0  0  0  0  0  # atno 8010 bound_to 7997
  139.7484  143.8556  152.2580 H   0  0  0  0  0  0  0  0  0  0  0  0  # atno 10167 bound_to 10162
  157.6441  130.9518  150.0762 H   0  0  0  0  0  0  0  0  0  0  0  0  # atno 10718 bound_to 10713
  153.1298  135.6737  153.9197 H   0  0  0  0  0  0  0  0  0  0  0  0  # atno 10763 bound_to 10752
  153.8687  135.3072  155.3442 H   0  0  0  0  0  0  0  0  0  0  0  0  # atno 10764 bound_to 10752
  154.7697  135.4946  153.9705 H   0  0  0  0  0  0  0  0  0  0  0  0  # atno 10765 bound_to 10752
  141.1586  133.7625  156.9582 H   0  0  0  0  0  0  0  0  0  0  0  0  # atno 11005 bound_to 11000
  145.8797  140.9370  143.0607 LP  0  0  0  0  0  0  0  0  0  0  0  0  # atno 17320 bound_to 7965
  144.6735  140.0764  143.7471 LP  0  0  0  0  0  0  0  0  0  0  0  0  # atno 17321 bound_to 7965
  139.8527  144.7156  150.9195 LP  0  0  0  0  0  0  0  0  0  0  0  0  # atno 17342 bound_to 10162
  140.7795  143.3885  151.1351 LP  0  0  0  0  0  0  0  0  0  0  0  0  # atno 17343 bound_to 10162
  156.1752  130.3648  149.9111 LP  0  0  0  0  0  0  0  0  0  0  0  0  # atno 17370 bound_to 10713
  156.7077  130.8958  151.3606 LP  0  0  0  0  0  0  0  0  0  0  0  0  # atno 17371 bound_to 10713
  140.1211  134.9416  157.2204 LP  0  0  0  0  0  0  0  0  0  0  0  0  # atno 17394 bound_to 11000
  140.3071  134.3065  155.7275 LP  0  0  0  0  0  0  0  0  0  0  0  0  # atno 17395 bound_to 11000

$$$$
