AV-unprocessed.smi:1147|AV-procd|sdf|4887|dock1
  -GOLD-   22720 3463D 1   1.00000     0.00000
 Structure written by MMmdl.
 41 42  0  0  0  0  0  0  0  0  1 V2000
  148.7100  140.9636  154.2974 C   0  0  0  0  0  0  0  0  0  0  0  0
  149.7728  139.8787  154.4846 C   0  0  0  0  0  0  0  0  0  0  0  0
  149.6653  138.8470  153.8213 O   0  0  0  0  0  0  0  0  0  0  0  0
  150.7831  140.0831  155.3641 N   0  0  0  0  0  0  0  0  0  0  0  0
  151.8473  139.1162  155.6806 C   0  0  0  0  0  0  0  0  0  0  0  0
  151.7646  138.7474  157.1750 C   0  0  0  0  0  0  0  0  0  0  0  0
  151.9047  139.9780  157.9765 N   0  0  0  0  0  0  0  0  0  0  0  0
  152.9357  140.2945  158.8003 C   0  0  0  0  0  0  0  0  0  0  0  0
  154.0495  139.7745  158.7197 O   0  0  0  0  0  0  0  0  0  0  0  0
  152.6524  141.2339  159.7179 N   0  0  0  0  0  0  0  0  0  0  0  0
  153.5901  141.7965  160.6870 C   0  0  2  0  0  0  0  0  0  0  0  0
  154.1075  140.6937  161.6241 C   0  0  0  0  0  0  0  0  0  0  0  0
  152.9112  142.9319  161.4774 C   0  0  0  0  0  0  0  0  0  0  0  0
  152.1357  143.8132  160.6218 N   0  0  0  0  0  0  0  0  0  0  0  0
  152.5025  144.3787  159.4189 C   0  0  0  0  0  0  0  0  0  0  0  0
  151.4440  145.1215  158.9802 C   0  0  0  0  0  0  0  0  0  0  0  0
  150.4639  144.9470  159.9969 C   0  0  0  0  0  0  0  0  0  0  0  0
  150.8804  144.1632  160.9782 N   0  0  0  0  0  0  0  0  0  0  0  0
  150.8247  140.9284  157.6723 C   0  0  0  0  0  0  0  0  0  0  0  0
  150.8937  141.3041  156.1782 C   0  0  0  0  0  0  0  0  0  0  0  0
  149.1598  141.8865  153.9303 H   0  0  0  0  0  0  0  0  0  0  0  0
  148.1954  141.1670  155.2368 H   0  0  0  0  0  0  0  0  0  0  0  0
  147.9609  140.6464  153.5712 H   0  0  0  0  0  0  0  0  0  0  0  0
  151.8030  138.2053  155.0858 H   0  0  0  0  0  0  0  0  0  0  0  0
  152.8153  139.5677  155.4579 H   0  0  0  0  0  0  0  0  0  0  0  0
  150.7994  138.2884  157.3940 H   0  0  0  0  0  0  0  0  0  0  0  0
  152.5061  137.9814  157.4011 H   0  0  0  0  0  0  0  0  0  0  0  0
  151.7187  141.6184  159.7195 H   0  0  0  0  0  0  0  0  0  0  0  0
  154.4430  142.2199  160.1529 H   0  0  0  0  0  0  0  0  0  0  0  0
  154.8121  141.0974  162.3519 H   0  0  0  0  0  0  0  0  0  0  0  0
  154.6248  139.9109  161.0683 H   0  0  0  0  0  0  0  0  0  0  0  0
  153.2909  140.2263  162.1754 H   0  0  0  0  0  0  0  0  0  0  0  0
  152.2626  142.5257  162.2556 H   0  0  0  0  0  0  0  0  0  0  0  0
  153.6638  143.5362  161.9851 H   0  0  0  0  0  0  0  0  0  0  0  0
  153.4736  144.2039  158.9793 H   0  0  0  0  0  0  0  0  0  0  0  0
  151.3793  145.7009  158.0711 H   0  0  0  0  0  0  0  0  0  0  0  0
  149.4688  145.3634  160.0505 H   0  0  0  0  0  0  0  0  0  0  0  0
  149.8627  140.4683  157.9030 H   0  0  0  0  0  0  0  0  0  0  0  0
  150.8744  141.8342  158.2779 H   0  0  0  0  0  0  0  0  0  0  0  0
  151.8409  141.7977  155.9557 H   0  0  0  0  0  0  0  0  0  0  0  0
  150.1153  142.0344  155.9539 H   0  0  0  0  0  0  0  0  0  0  0  0
  1  2  1  0  0  0  0
  1 21  1  0  0  0  0
  1 22  1  0  0  0  0
  1 23  1  0  0  0  0
  2  3  2  0  0  0  0
  2  4  1  0  0  0  0
  4 20  1  0  0  0  0
  4  5  1  0  0  0  0
  5  6  1  0  0  0  0
  5 24  1  0  0  0  0
  5 25  1  0  0  0  0
  6  7  1  0  0  0  0
  6 26  1  0  0  0  0
  6 27  1  0  0  0  0
  7  8  1  0  0  0  0
  7 19  1  0  0  0  0
  8  9  2  0  0  0  0
  8 10  1  0  0  0  0
 10 11  1  0  0  0  0
 10 28  1  0  0  0  0
 11 12  1  0  0  0  0
 11 13  1  0  0  0  0
 11 29  1  0  0  0  0
 12 30  1  0  0  0  0
 12 31  1  0  0  0  0
 12 32  1  0  0  0  0
 13 14  1  0  0  0  0
 13 33  1  0  0  0  0
 13 34  1  0  0  0  0
 14 18  1  0  0  0  0
 14 15  1  0  0  0  0
 15 16  2  0  0  0  0
 15 35  1  0  0  0  0
 16 17  1  0  0  0  0
 16 36  1  0  0  0  0
 17 18  2  0  0  0  0
 17 37  1  0  0  0  0
 19 20  1  0  0  0  0
 19 38  1  0  0  0  0
 19 39  1  0  0  0  0
 20 40  1  0  0  0  0
 20 41  1  0  0  0  0
M  END
> <s_m_source_file>
AV-unprocessed.smi

> <i_m_source_file_index>
1147

> <i_lp_mmshare_version>
43012

> <i_f3d_flags>
0

> <s_epik_input>
W0NIM11DKD1PKU4xW0NIMl1bQ0gyXU4oW0NIMl1bQ0gyXTEpQyg9TylbTkhdW0NASF0oW0NIM10pW0NIMl1uMltjSF1bY0hdW2NIXW4y

> <s_epik_cmdline>
J2VwaWtfcHl0aG9uJywgJy1waCcsICc3LjAnLCAnLXRuJywgJzgnLCAnLW1hJywgJzIwMCcsICctbWV0YWxfYmluZGluZycsICctaW1hZScsICc8aW5maWxlLm1hZT4nLCAnLW9tYWUnLCAnPG91dGZpbGUubWFlPic=

> <r_lp_tautomer_probability>
1

> <r_epik_Ionization_Penalty>
5.58143e-05

> <r_epik_Ionization_Penalty_Charging>
0

> <r_epik_Ionization_Penalty_Neutral>
5.58143e-05

> <r_epik_State_Penalty>
-0

> <r_epik_Charging_Adjusted_Penalty>
0

> <i_epik_Tot_Q>
0

> <i_epik_Tot_abs_Q>
0

> <r_epik_Metal_State_Penalty>
-0

> <b_epik_Metal_Only>
0

> <s_lp_Force_Field>
OPLS_2005

> <r_lp_Energy>
48.2147

> <b_lp_Chiralities_Consistent>
1

> <s_lp_Variant>
AV-unprocessed.smi:1147-1

> <Gold.Version>
5.8.1

> <Gold.Id.Protein>
6NUR|6NUR_protein|mol2

> <Gold.PLP.Fitness>
49.3617

> <Gold.PLP.PLP>
-47.3713

> <Gold.PLP.part.hbond>
-1.1639

> <Gold.PLP.part.metal>
0.0000

> <Gold.PLP.part.buried>
-5.9708

> <Gold.PLP.part.nonpolar>
-41.2820

> <Gold.PLP.part.repulsive>
1.6700

> <Gold.PLP.ligand.clash>
0.0000

> <Gold.PLP.ligand.torsion>
0.5209

> <Gold.PLP.Chemscore.Hbond>
1.0000

> <Gold.PLP.Chemscore.CHOScore>
0.0000

> <Gold.PLP.Chemscore.Metal>
0.0000

> <Gold.Chemscore.Hbonds>
donor molecule, donor type, donor heavy atom, donor atom, acceptor molecule, acceptor atom, score
      P1  H  7997  8009       L1     9  1.00

> <Gold.PLP.Chemscore.Internal.Correction>
0.0323

> <Gold.Rescore>
     Score         DG    S(hbond)    S(metal)    S(lipo)     H(rot)  DE(clash)    DE(int)     intcor
     15.59     -15.98       0.90        0.00      96.20       1.46       0.01       0.38       ----

> <Gold.Chemscore.Fitness>
15.5909

> <Gold.Chemscore.DG>
-15.9828

> <Gold.Chemscore.ZeroCoef>
-5.4800

> <Gold.Chemscore.Hbond>
0.8966

> <Gold.Chemscore.Metal>
0.0000

> <Gold.Chemscore.Lipo>
96.2036

> <Gold.Chemscore.Internal_Hbond>
0.0000

> <Gold.Chemscore.DEClash>
0.0092

> <Gold.Chemscore.DEInternal>
0.3827

> <Gold.Chemscore.Rot>
1.4640

> <Gold.Chemscore.Internal.Correction>
   9.000000E+99

> <Gold.Chemscore.Hbonds>
donor molecule, donor type, donor heavy atom, donor atom, acceptor molecule, acceptor atom, score
      P1  H  7997  8009       L1     9  0.92

> <Gold.Chemscore.Hbond.Weighted>
-2.9947

> <Gold.Chemscore.Metal.Weighted>
-0.0000

> <Gold.Chemscore.Lipo.Weighted>
-11.2558

> <Gold.Chemscore.Internal_Hbond.Weighted>
0.0000

> <Gold.Chemscore.DEClash.Weighted>
0.0092

> <Gold.Chemscore.DEInternal.Weighted>
0.3827

> <Gold.Chemscore.Rot.Weighted>
3.7477

> <Gold.Chemscore.Internal.Correction.Weighted>
   9.000000E+99

> <Gold.Protein.RotatedTorsions>
[ 6907 6896 6895 6894 ] final  -81.45 input  -60.11 | X-H torsion
[ 7974 7965 7964 7962 ] final -132.82 input  175.53 | X-H torsion
[ 8008 7997 7996 7995 ] final  134.21 input   59.86 | X-H torsion
[ 10167 10162 10161 10158 ] final -118.69 input  -65.29 | X-H torsion
[ 10718 10713 10712 10709 ] final -125.00 input   66.30 | X-H torsion
[ 10763 10752 10751 10750 ] final -143.18 input  -60.55 | X-H torsion
[ 11005 11000 10999 10996 ] final -140.20 input  -57.11 | X-H torsion

> <Gold.Protein.ActiveResidues>
 VAL166  LYS551  ARG553  GLY616  TRP617  ASP618  TYR619  PRO620  LYS621  CYS622 
 ASP623  PHE694  ASN695  SER759  ASP760  ASP761  ALA762  ILE779  LEU786  VAL792 
 PHE793  MET794  SER795  GLU796  ALA797  LYS798  CYS799  TRP800  GLU811  SER814 

> <Gold.Protein.RotatedAtoms>
  150.6912  134.3816  159.5036 H   0  0  0  0  0  0  0  0  0  0  0  0  # atno 6907 bound_to 6896
  152.1617  134.8904  160.0550 H   0  0  0  0  0  0  0  0  0  0  0  0  # atno 6908 bound_to 6896
  151.9963  133.3774  159.4201 H   0  0  0  0  0  0  0  0  0  0  0  0  # atno 6909 bound_to 6896
  144.9250  140.7060  143.4941 H   0  0  0  0  0  0  0  0  0  0  0  0  # atno 7974 bound_to 7965
  156.2997  140.2502  156.3379 H   0  0  0  0  0  0  0  0  0  0  0  0  # atno 8008 bound_to 7997
  154.9083  140.0404  157.1951 H   0  0  0  0  0  0  0  0  0  0  0  0  # atno 8009 bound_to 7997
  154.8431  140.2894  155.5650 H   0  0  0  0  0  0  0  0  0  0  0  0  # atno 8010 bound_to 7997
  140.0547  143.5026  152.2063 H   0  0  0  0  0  0  0  0  0  0  0  0  # atno 10167 bound_to 10162
  156.1637  130.6619  151.0085 H   0  0  0  0  0  0  0  0  0  0  0  0  # atno 10718 bound_to 10713
  154.8480  135.3475  154.6147 H   0  0  0  0  0  0  0  0  0  0  0  0  # atno 10763 bound_to 10752
  153.6755  135.6983  153.5138 H   0  0  0  0  0  0  0  0  0  0  0  0  # atno 10764 bound_to 10752
  153.2709  135.4293  155.0943 H   0  0  0  0  0  0  0  0  0  0  0  0  # atno 10765 bound_to 10752
  140.8445  134.2361  157.4793 H   0  0  0  0  0  0  0  0  0  0  0  0  # atno 11005 bound_to 11000
  145.3234  139.1781  143.4575 LP  0  0  0  0  0  0  0  0  0  0  0  0  # atno 17320 bound_to 7965
  146.3222  140.3254  142.8636 LP  0  0  0  0  0  0  0  0  0  0  0  0  # atno 17321 bound_to 7965
  139.5931  144.7557  151.3352 LP  0  0  0  0  0  0  0  0  0  0  0  0  # atno 17342 bound_to 10162
  140.7200  143.7161  150.7731 LP  0  0  0  0  0  0  0  0  0  0  0  0  # atno 17343 bound_to 10162
  157.6752  131.0852  150.7513 LP  0  0  0  0  0  0  0  0  0  0  0  0  # atno 17370 bound_to 10713
  156.7575  130.4788  149.5444 LP  0  0  0  0  0  0  0  0  0  0  0  0  # atno 17371 bound_to 10713
  139.8703  134.9652  156.4522 LP  0  0  0  0  0  0  0  0  0  0  0  0  # atno 17394 bound_to 11000
  140.8858  133.7884  155.9517 LP  0  0  0  0  0  0  0  0  0  0  0  0  # atno 17395 bound_to 11000

$$$$
