AV-unprocessed.smi:3220|AV-procd|sdf|12298|dock5
  -GOLD-   2272018143D 1   1.00000     0.00000
 Structure written by MMmdl.
 33 34  0  0  0  0  0  0  0  0  1 V2000
  150.0961  141.8829  155.8405 C   0  0  0  0  0  0  0  0  0  0  0  0
  150.9450  141.2080  156.9263 C   0  0  1  0  0  0  0  0  0  0  0  0
  152.0034  140.2696  156.3068 C   0  0  0  0  0  0  0  0  0  0  0  0
  151.4181  139.2107  155.5035 N   0  0  0  0  0  0  0  0  0  0  0  0
  151.4955  137.8467  155.6938 C   0  0  0  0  0  0  0  0  0  0  0  0
  150.7768  137.2560  154.6944 C   0  0  0  0  0  0  0  0  0  0  0  0
  150.2952  138.3552  153.9297 C   0  0  0  0  0  0  0  0  0  0  0  0
  150.6842  139.5235  154.4137 N   0  0  0  0  0  0  0  0  0  0  0  0
  151.5798  142.2436  157.7411 N   0  0  0  0  0  0  0  0  0  0  0  0
  152.1548  142.0585  158.9400 C   0  0  0  0  0  0  0  0  0  0  0  0
  152.1904  140.9686  159.5126 O   0  0  0  0  0  0  0  0  0  0  0  0
  152.7918  143.2994  159.5837 C   0  0  2  0  0  0  0  0  0  0  0  0
  152.0243  143.8110  160.8191 C   0  0  0  0  0  0  0  0  0  0  0  0
  151.6403  145.2362  160.4596 C   0  0  0  0  0  0  0  0  0  0  0  0
  151.6633  145.2218  158.9381 C   0  0  0  0  0  0  0  0  0  0  0  0
  152.7653  144.3750  158.6463 O   0  0  0  0  0  0  0  0  0  0  0  0
  149.5859  141.1415  155.2249 H   0  0  0  0  0  0  0  0  0  0  0  0
  150.7088  142.4979  155.1803 H   0  0  0  0  0  0  0  0  0  0  0  0
  149.3322  142.5243  156.2813 H   0  0  0  0  0  0  0  0  0  0  0  0
  150.2653  140.6162  157.5425 H   0  0  0  0  0  0  0  0  0  0  0  0
  152.6812  140.8386  155.6685 H   0  0  0  0  0  0  0  0  0  0  0  0
  152.6191  139.8184  157.0864 H   0  0  0  0  0  0  0  0  0  0  0  0
  152.0427  137.4158  156.5194 H   0  0  0  0  0  0  0  0  0  0  0  0
  150.6179  136.1999  154.5345 H   0  0  0  0  0  0  0  0  0  0  0  0
  149.6795  138.3389  153.0424 H   0  0  0  0  0  0  0  0  0  0  0  0
  151.5927  143.1768  157.3557 H   0  0  0  0  0  0  0  0  0  0  0  0
  153.8325  143.0940  159.8396 H   0  0  0  0  0  0  0  0  0  0  0  0
  151.1294  143.2201  161.0221 H   0  0  0  0  0  0  0  0  0  0  0  0
  152.6387  143.7818  161.7194 H   0  0  0  0  0  0  0  0  0  0  0  0
  150.6747  145.5353  160.8678 H   0  0  0  0  0  0  0  0  0  0  0  0
  152.3964  145.9288  160.8317 H   0  0  0  0  0  0  0  0  0  0  0  0
  150.7447  144.7915  158.5364 H   0  0  0  0  0  0  0  0  0  0  0  0
  151.7939  146.2152  158.5085 H   0  0  0  0  0  0  0  0  0  0  0  0
  1  2  1  0  0  0  0
  1 17  1  0  0  0  0
  1 18  1  0  0  0  0
  1 19  1  0  0  0  0
  2  3  1  0  0  0  0
  2  9  1  0  0  0  0
  2 20  1  0  0  0  0
  3  4  1  0  0  0  0
  3 21  1  0  0  0  0
  3 22  1  0  0  0  0
  4  8  1  0  0  0  0
  4  5  1  0  0  0  0
  5  6  2  0  0  0  0
  5 23  1  0  0  0  0
  6  7  1  0  0  0  0
  6 24  1  0  0  0  0
  7  8  2  0  0  0  0
  7 25  1  0  0  0  0
  9 10  1  0  0  0  0
  9 26  1  0  0  0  0
 10 11  2  0  0  0  0
 10 12  1  0  0  0  0
 12 16  1  0  0  0  0
 12 13  1  0  0  0  0
 12 27  1  0  0  0  0
 13 14  1  0  0  0  0
 13 28  1  0  0  0  0
 13 29  1  0  0  0  0
 14 15  1  0  0  0  0
 14 30  1  0  0  0  0
 14 31  1  0  0  0  0
 15 16  1  0  0  0  0
 15 32  1  0  0  0  0
 15 33  1  0  0  0  0
M  END
> <s_m_source_file>
AV-unprocessed.smi

> <i_m_source_file_index>
3220

> <i_lp_mmshare_version>
43012

> <i_f3d_flags>
0

> <s_epik_input>
bjFbY0hdW2NIXVtjSF1uMVtDSDJdW0NAQEhdKFtDSDNdKVtOSF1DKD1PKVtDQEBIXTJbQ0gyXVtDSDJdW0NIMl1PMg==

> <s_epik_cmdline>
J2VwaWtfcHl0aG9uJywgJy1waCcsICc3LjAnLCAnLXRuJywgJzgnLCAnLW1hJywgJzIwMCcsICctbWV0YWxfYmluZGluZycsICctaW1hZScsICc8aW5maWxlLm1hZT4nLCAnLW9tYWUnLCAnPG91dGZpbGUubWFlPic=

> <r_lp_tautomer_probability>
1

> <r_epik_Ionization_Penalty>
0.00033363

> <r_epik_Ionization_Penalty_Charging>
0

> <r_epik_Ionization_Penalty_Neutral>
0.00033363

> <r_epik_State_Penalty>
-0

> <r_epik_Charging_Adjusted_Penalty>
0

> <i_epik_Tot_Q>
0

> <i_epik_Tot_abs_Q>
0

> <r_epik_Metal_State_Penalty>
-0

> <b_epik_Metal_Only>
0

> <s_lp_Force_Field>
OPLS_2005

> <r_lp_Energy>
18.0853

> <b_lp_Chiralities_Consistent>
1

> <s_lp_Variant>
AV-unprocessed.smi:3220-2

> <Gold.Version>
5.8.1

> <Gold.Id.Protein>
6NUR|6NUR_protein|mol2

> <Gold.PLP.Fitness>
42.8206

> <Gold.PLP.PLP>
-34.8153

> <Gold.PLP.part.hbond>
-1.0000

> <Gold.PLP.part.metal>
0.0000

> <Gold.PLP.part.buried>
-3.3747

> <Gold.PLP.part.nonpolar>
-30.8274

> <Gold.PLP.part.repulsive>
0.1858

> <Gold.PLP.ligand.clash>
0.0000

> <Gold.PLP.ligand.torsion>
0.3181

> <Gold.PLP.Chemscore.Hbond>
1.0000

> <Gold.PLP.Chemscore.CHOScore>
1.8733

> <Gold.PLP.Chemscore.Metal>
0.0000

> <Gold.Chemscore.Hbonds>
donor molecule, donor type, donor heavy atom, donor atom, acceptor molecule, acceptor atom, score
      P1  H  7989  7998       L1     8  1.00
      L1  C     7    25       P1  7948  0.89
      L1  C     7    25       P1  7957  0.97

> <Gold.PLP.Chemscore.Internal.Correction>
0.0217

> <Gold.Rescore>
     Score         DG    S(hbond)    S(metal)    S(lipo)     H(rot)  DE(clash)    DE(int)     intcor
     13.43     -15.23       0.98        0.00      90.78       1.62       0.21       1.59       ----

> <Gold.Chemscore.Fitness>
13.4274

> <Gold.Chemscore.DG>
-15.2301

> <Gold.Chemscore.ZeroCoef>
-5.4800

> <Gold.Chemscore.Hbond>
0.9823

> <Gold.Chemscore.Metal>
0.0000

> <Gold.Chemscore.Lipo>
90.7797

> <Gold.Chemscore.Internal_Hbond>
0.0000

> <Gold.Chemscore.DEClash>
0.2150

> <Gold.Chemscore.DEInternal>
1.5878

> <Gold.Chemscore.Rot>
1.6219

> <Gold.Chemscore.Internal.Correction>
   9.000000E+99

> <Gold.Chemscore.Hbonds>
donor molecule, donor type, donor heavy atom, donor atom, acceptor molecule, acceptor atom, score
      P1  H  7989  7998       L1     8  0.60

> <Gold.Chemscore.Hbond.Weighted>
-3.2808

> <Gold.Chemscore.Metal.Weighted>
-0.0000

> <Gold.Chemscore.Lipo.Weighted>
-10.6212

> <Gold.Chemscore.Internal_Hbond.Weighted>
0.0000

> <Gold.Chemscore.DEClash.Weighted>
0.2150

> <Gold.Chemscore.DEInternal.Weighted>
1.5878

> <Gold.Chemscore.Rot.Weighted>
4.1520

> <Gold.Chemscore.Internal.Correction.Weighted>
   9.000000E+99

> <Gold.Protein.RotatedTorsions>
[ 6907 6896 6895 6894 ] final -123.06 input  -60.11 | X-H torsion
[ 7974 7965 7964 7962 ] final  -16.37 input  175.53 | X-H torsion
[ 8008 7997 7996 7995 ] final  -92.41 input   59.86 | X-H torsion
[ 10167 10162 10161 10158 ] final  109.23 input  -65.29 | X-H torsion
[ 10718 10713 10712 10709 ] final  154.57 input   66.30 | X-H torsion
[ 10763 10752 10751 10750 ] final  122.36 input  -60.55 | X-H torsion
[ 11005 11000 10999 10996 ] final  112.62 input  -57.11 | X-H torsion

> <Gold.Protein.ActiveResidues>
 VAL166  LYS551  ARG553  GLY616  TRP617  ASP618  TYR619  PRO620  LYS621  CYS622 
 ASP623  PHE694  ASN695  SER759  ASP760  ASP761  ALA762  ILE779  LEU786  VAL792 
 PHE793  MET794  SER795  GLU796  ALA797  LYS798  CYS799  TRP800  GLU811  SER814 

> <Gold.Protein.RotatedAtoms>
  150.8635  133.7609  159.2984 H   0  0  0  0  0  0  0  0  0  0  0  0  # atno 6907 bound_to 6896
  151.5243  135.1066  159.9896 H   0  0  0  0  0  0  0  0  0  0  0  0  # atno 6908 bound_to 6896
  152.4644  133.7846  159.6925 H   0  0  0  0  0  0  0  0  0  0  0  0  # atno 6909 bound_to 6896
  146.1990  140.3627  142.8430 H   0  0  0  0  0  0  0  0  0  0  0  0  # atno 7974 bound_to 7965
  154.7228  140.0509  157.0655 H   0  0  0  0  0  0  0  0  0  0  0  0  # atno 8008 bound_to 7997
  155.0404  140.3168  155.4707 H   0  0  0  0  0  0  0  0  0  0  0  0  # atno 8009 bound_to 7997
  156.2821  140.2134  156.5528 H   0  0  0  0  0  0  0  0  0  0  0  0  # atno 8010 bound_to 7997
  139.6783  144.7120  151.1562 H   0  0  0  0  0  0  0  0  0  0  0  0  # atno 10167 bound_to 10162
  157.2299  131.0736  151.1860 H   0  0  0  0  0  0  0  0  0  0  0  0  # atno 10718 bound_to 10713
  153.6286  135.3400  155.3034 H   0  0  0  0  0  0  0  0  0  0  0  0  # atno 10763 bound_to 10752
  154.8585  135.4290  154.2130 H   0  0  0  0  0  0  0  0  0  0  0  0  # atno 10764 bound_to 10752
  153.3021  135.7025  153.7267 H   0  0  0  0  0  0  0  0  0  0  0  0  # atno 10765 bound_to 10752
  139.8932  134.9533  156.6613 H   0  0  0  0  0  0  0  0  0  0  0  0  # atno 11005 bound_to 11000
  144.8643  140.7183  143.6087 LP  0  0  0  0  0  0  0  0  0  0  0  0  # atno 17320 bound_to 7965
  145.3546  139.1697  143.4416 LP  0  0  0  0  0  0  0  0  0  0  0  0  # atno 17321 bound_to 7965
  140.7643  143.5738  150.8967 LP  0  0  0  0  0  0  0  0  0  0  0  0  # atno 17342 bound_to 10162
  139.9409  143.6383  152.3054 LP  0  0  0  0  0  0  0  0  0  0  0  0  # atno 17343 bound_to 10162
  157.3489  130.7072  149.6428 LP  0  0  0  0  0  0  0  0  0  0  0  0  # atno 17370 bound_to 10713
  155.9676  130.4258  150.4671 LP  0  0  0  0  0  0  0  0  0  0  0  0  # atno 17371 bound_to 10713
  140.7445  133.8950  155.8302 LP  0  0  0  0  0  0  0  0  0  0  0  0  # atno 17394 bound_to 11000
  141.0051  134.1097  157.4278 LP  0  0  0  0  0  0  0  0  0  0  0  0  # atno 17395 bound_to 11000

$$$$
