AV-unprocessed.smi:1438|AV-procd|sdf|5867|dock6
  -GOLD-   22720 5543D 1   1.00000     0.00000
 Structure written by MMmdl.
 43 44  0  0  0  0  0  0  0  0  1 V2000
  155.5102  136.4348  160.0481 C   0  0  0  0  0  0  0  0  0  0  0  0
  154.7367  137.7635  160.0631 C   0  0  2  0  0  0  0  0  0  0  0  0
  153.5288  137.7329  159.1167 C   0  0  0  0  0  0  0  0  0  0  0  0
  152.5837  136.9732  159.3301 O   0  0  0  0  0  0  0  0  0  0  0  0
  153.5747  138.5640  158.0657 N   0  0  0  0  0  0  0  0  0  0  0  0
  152.5611  138.6346  157.0232 C   0  0  0  0  0  0  0  0  0  0  0  0
  151.9236  140.0084  156.9500 C   0  0  0  0  0  0  0  0  0  0  0  0
  150.9556  140.3031  155.9678 C   0  0  0  0  0  0  0  0  0  0  0  0
  150.3915  141.5933  155.9477 C   0  0  0  0  0  0  0  0  0  0  0  0
  150.7291  142.5630  156.8239 N   0  0  0  0  0  0  0  0  0  0  0  0
  151.6588  142.2798  157.7676 C   0  0  0  0  0  0  0  0  0  0  0  0
  152.0028  143.2800  158.6877 N   0  0  0  0  0  0  0  0  0  0  0  0
  151.3125  144.5458  158.4721 C   0  0  0  0  0  0  0  0  0  0  0  0
  151.8488  145.6083  159.4470 C   0  0  0  0  0  0  0  0  0  0  0  0
  151.7108  145.1397  160.7856 O   0  0  0  0  0  0  0  0  0  0  0  0
  152.4444  143.9389  161.0108 C   0  0  0  0  0  0  0  0  0  0  0  0
  151.9280  142.8339  160.0731 C   0  0  0  0  0  0  0  0  0  0  0  0
  152.2816  141.0179  157.8670 C   0  0  0  0  0  0  0  0  0  0  0  0
  155.8676  139.1586  159.5999 S   0  0  0  0  0  0  0  0  0  0  0  0
  154.8569  140.6563  159.9636 C   0  0  0  0  0  0  0  0  0  0  0  0
  157.0125  139.1425  160.5233 O   0  0  0  0  0  0  0  0  0  0  0  0
  156.1115  139.1149  158.1497 O   0  0  0  0  0  0  0  0  0  0  0  0
  154.8600  135.5943  160.2934 H   0  0  0  0  0  0  0  0  0  0  0  0
  156.3180  136.4482  160.7800 H   0  0  0  0  0  0  0  0  0  0  0  0
  155.9562  136.2410  159.0718 H   0  0  0  0  0  0  0  0  0  0  0  0
  154.3922  137.9536  161.0803 H   0  0  0  0  0  0  0  0  0  0  0  0
  154.3790  139.1653  157.9609 H   0  0  0  0  0  0  0  0  0  0  0  0
  153.0057  138.3817  156.0589 H   0  0  0  0  0  0  0  0  0  0  0  0
  151.7843  137.8950  157.2227 H   0  0  0  0  0  0  0  0  0  0  0  0
  150.6534  139.5608  155.2434 H   0  0  0  0  0  0  0  0  0  0  0  0
  149.6479  141.8533  155.2088 H   0  0  0  0  0  0  0  0  0  0  0  0
  151.4567  144.8739  157.4420 H   0  0  0  0  0  0  0  0  0  0  0  0
  150.2401  144.4146  158.6238 H   0  0  0  0  0  0  0  0  0  0  0  0
  152.8947  145.8376  159.2368 H   0  0  0  0  0  0  0  0  0  0  0  0
  151.2900  146.5376  159.3357 H   0  0  0  0  0  0  0  0  0  0  0  0
  153.5095  144.1163  160.8528 H   0  0  0  0  0  0  0  0  0  0  0  0
  152.3226  143.6369  162.0511 H   0  0  0  0  0  0  0  0  0  0  0  0
  150.8953  142.5873  160.3248 H   0  0  0  0  0  0  0  0  0  0  0  0
  152.5177  141.9257  160.2023 H   0  0  0  0  0  0  0  0  0  0  0  0
  153.0173  140.8297  158.6358 H   0  0  0  0  0  0  0  0  0  0  0  0
  155.4659  141.5463  159.8067 H   0  0  0  0  0  0  0  0  0  0  0  0
  154.5190  140.6292  160.9992 H   0  0  0  0  0  0  0  0  0  0  0  0
  153.9956  140.6953  159.2974 H   0  0  0  0  0  0  0  0  0  0  0  0
  1  2  1  0  0  0  0
  1 23  1  0  0  0  0
  1 24  1  0  0  0  0
  1 25  1  0  0  0  0
  2  3  1  0  0  0  0
  2 19  1  0  0  0  0
  2 26  1  0  0  0  0
  3  4  2  0  0  0  0
  3  5  1  0  0  0  0
  5  6  1  0  0  0  0
  5 27  1  0  0  0  0
  6  7  1  0  0  0  0
  6 28  1  0  0  0  0
  6 29  1  0  0  0  0
  7 18  1  0  0  0  0
  7  8  2  0  0  0  0
  8  9  1  0  0  0  0
  8 30  1  0  0  0  0
  9 10  2  0  0  0  0
  9 31  1  0  0  0  0
 10 11  1  0  0  0  0
 11 12  1  0  0  0  0
 11 18  2  0  0  0  0
 12 17  1  0  0  0  0
 12 13  1  0  0  0  0
 13 14  1  0  0  0  0
 13 32  1  0  0  0  0
 13 33  1  0  0  0  0
 14 15  1  0  0  0  0
 14 34  1  0  0  0  0
 14 35  1  0  0  0  0
 15 16  1  0  0  0  0
 16 17  1  0  0  0  0
 16 36  1  0  0  0  0
 16 37  1  0  0  0  0
 17 38  1  0  0  0  0
 17 39  1  0  0  0  0
 18 40  1  0  0  0  0
 19 20  1  0  0  0  0
 19 21  2  0  0  0  0
 19 22  2  0  0  0  0
 20 41  1  0  0  0  0
 20 42  1  0  0  0  0
 20 43  1  0  0  0  0
M  END
> <s_m_source_file>
AV-unprocessed.smi

> <i_m_source_file_index>
1438

> <i_lp_mmshare_version>
43012

> <i_f3d_flags>
0

> <s_epik_input>
W0NIM11TKD1PKSg9TylbQ0BIXShbQ0gzXSlDKD1PKVtOSF1bQ0gyXWMxW2NIXVtjSF1uYyhbY0hdMSlOMltDSDJdW0NIMl1PW0NIMl1bQ0gyXTI=

> <s_epik_cmdline>
J2VwaWtfcHl0aG9uJywgJy1waCcsICc3LjAnLCAnLXRuJywgJzgnLCAnLW1hJywgJzIwMCcsICctbWV0YWxfYmluZGluZycsICctaW1hZScsICc8aW5maWxlLm1hZT4nLCAnLW9tYWUnLCAnPG91dGZpbGUubWFlPic=

> <r_lp_tautomer_probability>
1

> <r_epik_Ionization_Penalty>
0.00387635

> <r_epik_Ionization_Penalty_Charging>
0

> <r_epik_Ionization_Penalty_Neutral>
0.00387635

> <r_epik_State_Penalty>
0.0027681

> <r_epik_Charging_Adjusted_Penalty>
0.0027681

> <i_epik_Tot_Q>
0

> <i_epik_Tot_abs_Q>
0

> <r_epik_Metal_State_Penalty>
-0

> <b_epik_Metal_Only>
0

> <s_lp_Force_Field>
OPLS_2005

> <r_lp_Energy>
15.2281

> <b_lp_Chiralities_Consistent>
1

> <s_lp_Variant>
AV-unprocessed.smi:1438-1

> <Gold.Version>
5.8.1

> <Gold.Id.Protein>
6NUR|6NUR_protein|mol2

> <Gold.PLP.Fitness>
40.8253

> <Gold.PLP.PLP>
-35.3517

> <Gold.PLP.part.hbond>
-2.0000

> <Gold.PLP.part.metal>
0.0000

> <Gold.PLP.part.buried>
-6.5339

> <Gold.PLP.part.nonpolar>
-27.8343

> <Gold.PLP.part.repulsive>
0.6490

> <Gold.PLP.ligand.clash>
0.0000

> <Gold.PLP.ligand.torsion>
0.3961

> <Gold.PLP.Chemscore.Hbond>
2.0000

> <Gold.PLP.Chemscore.CHOScore>
0.0000

> <Gold.PLP.Chemscore.Metal>
0.0000

> <Gold.Chemscore.Hbonds>
donor molecule, donor type, donor heavy atom, donor atom, acceptor molecule, acceptor atom, score
      P1  H  6896  6909       L1     4  0.80
      P1  H  7997  8009       L1    22  0.46

> <Gold.PLP.Chemscore.Internal.Correction>
0.2658

> <Gold.Rescore>
     Score         DG    S(hbond)    S(metal)    S(lipo)     H(rot)  DE(clash)    DE(int)     intcor
     15.55     -17.75       1.98        0.00      93.70       2.08       0.00       2.20       ----

> <Gold.Chemscore.Fitness>
15.5450

> <Gold.Chemscore.DG>
-17.7460

> <Gold.Chemscore.ZeroCoef>
-5.4800

> <Gold.Chemscore.Hbond>
1.9817

> <Gold.Chemscore.Metal>
0.0000

> <Gold.Chemscore.Lipo>
93.6981

> <Gold.Chemscore.Internal_Hbond>
0.0000

> <Gold.Chemscore.DEClash>
0.0000

> <Gold.Chemscore.DEInternal>
2.2010

> <Gold.Chemscore.Rot>
2.0764

> <Gold.Chemscore.Internal.Correction>
   9.000000E+99

> <Gold.Chemscore.Hbonds>
donor molecule, donor type, donor heavy atom, donor atom, acceptor molecule, acceptor atom, score
      P1  H  6896  6909       L1     4  0.77
      P1  H  7997  8009       L1    22  0.45

> <Gold.Chemscore.Hbond.Weighted>
-6.6189

> <Gold.Chemscore.Metal.Weighted>
-0.0000

> <Gold.Chemscore.Lipo.Weighted>
-10.9627

> <Gold.Chemscore.Internal_Hbond.Weighted>
0.0000

> <Gold.Chemscore.DEClash.Weighted>
0.0000

> <Gold.Chemscore.DEInternal.Weighted>
2.2010

> <Gold.Chemscore.Rot.Weighted>
5.3155

> <Gold.Chemscore.Internal.Correction.Weighted>
   9.000000E+99

> <Gold.Protein.RotatedTorsions>
[ 6907 6896 6895 6894 ] final  142.25 input  -60.11 | X-H torsion
[ 7974 7965 7964 7962 ] final   -1.23 input  175.53 | X-H torsion
[ 8008 7997 7996 7995 ] final   86.31 input   59.86 | X-H torsion
[ 10167 10162 10161 10158 ] final  -19.88 input  -65.29 | X-H torsion
[ 10718 10713 10712 10709 ] final -107.75 input   66.30 | X-H torsion
[ 10763 10752 10751 10750 ] final  -97.60 input  -60.55 | X-H torsion
[ 11005 11000 10999 10996 ] final -114.51 input  -57.11 | X-H torsion

> <Gold.Protein.ActiveResidues>
 VAL166  LYS551  ARG553  GLY616  TRP617  ASP618  TYR619  PRO620  LYS621  CYS622 
 ASP623  PHE694  ASN695  SER759  ASP760  ASP761  ALA762  ILE779  LEU786  VAL792 
 PHE793  MET794  SER795  GLU796  ALA797  LYS798  CYS799  TRP800  GLU811  SER814 

> <Gold.Protein.RotatedAtoms>
  152.2210  133.4983  159.5162 H   0  0  0  0  0  0  0  0  0  0  0  0  # atno 6907 bound_to 6896
  150.7013  134.1343  159.4090 H   0  0  0  0  0  0  0  0  0  0  0  0  # atno 6908 bound_to 6896
  151.9263  135.0276  160.0576 H   0  0  0  0  0  0  0  0  0  0  0  0  # atno 6909 bound_to 6896
  146.2419  140.1389  142.8336 H   0  0  0  0  0  0  0  0  0  0  0  0  # atno 7974 bound_to 7965
  155.9612  140.3393  155.6492 H   0  0  0  0  0  0  0  0  0  0  0  0  # atno 8008 bound_to 7997
  155.6796  140.0736  157.2508 H   0  0  0  0  0  0  0  0  0  0  0  0  # atno 8009 bound_to 7997
  154.4143  140.1677  156.1955 H   0  0  0  0  0  0  0  0  0  0  0  0  # atno 8010 bound_to 7997
  140.7272  143.4776  151.0161 H   0  0  0  0  0  0  0  0  0  0  0  0  # atno 10167 bound_to 10162
  156.0452  130.5678  150.7865 H   0  0  0  0  0  0  0  0  0  0  0  0  # atno 10718 bound_to 10713
  154.7342  135.5040  153.9014 H   0  0  0  0  0  0  0  0  0  0  0  0  # atno 10763 bound_to 10752
  153.0979  135.6677  153.9736 H   0  0  0  0  0  0  0  0  0  0  0  0  # atno 10764 bound_to 10752
  153.9530  135.3056  155.3417 H   0  0  0  0  0  0  0  0  0  0  0  0  # atno 10765 bound_to 10752
  141.0547  133.9631  157.2775 H   0  0  0  0  0  0  0  0  0  0  0  0  # atno 11005 bound_to 11000
  145.0263  140.8834  143.5136 LP  0  0  0  0  0  0  0  0  0  0  0  0  # atno 17320 bound_to 7965
  145.1446  139.2551  143.5472 LP  0  0  0  0  0  0  0  0  0  0  0  0  # atno 17321 bound_to 7965
  139.8472  143.7485  152.3179 LP  0  0  0  0  0  0  0  0  0  0  0  0  # atno 17342 bound_to 10162
  139.7655  144.7493  151.0301 LP  0  0  0  0  0  0  0  0  0  0  0  0  # atno 17343 bound_to 10162
  157.5318  131.0937  150.9945 LP  0  0  0  0  0  0  0  0  0  0  0  0  # atno 17370 bound_to 10713
  157.0249  130.5688  149.5336 LP  0  0  0  0  0  0  0  0  0  0  0  0  # atno 17371 bound_to 10713
  139.9380  135.0194  156.8617 LP  0  0  0  0  0  0  0  0  0  0  0  0  # atno 17394 bound_to 11000
  140.5987  134.0192  155.7528 LP  0  0  0  0  0  0  0  0  0  0  0  0  # atno 17395 bound_to 11000

$$$$
