AV-unprocessed.smi:2197|AV-procd|sdf|8909|dock3
  -GOLD-   2272012123D 1   1.00000     0.00000
 Structure written by MMmdl.
 28 28  0  0  0  0  0  0  0  0  1 V2000
  151.8922  145.5747  160.0901 C   0  0  0  0  0  0  0  0  0  0  0  0
  151.6108  144.9608  158.7147 C   0  0  0  0  0  0  0  0  0  0  0  0
  150.5811  143.8211  158.7782 C   0  0  0  0  0  0  0  0  0  0  0  0
  150.2827  143.2975  157.4504 N   0  0  0  0  0  0  0  0  0  0  0  0
  150.4299  142.0178  157.0746 C   0  0  0  0  0  0  0  0  0  0  0  0
  150.8147  141.1311  157.8384 O   0  0  0  0  0  0  0  0  0  0  0  0
  150.0693  141.6965  155.6169 C   0  0  0  0  0  0  0  0  0  0  0  0
  150.5151  140.3605  155.1947 N   0  0  0  0  0  0  0  0  0  0  0  0
  151.7779  139.9006  155.5407 C   0  0  0  0  0  0  0  0  0  0  0  0
  152.2544  138.6862  155.1778 C   0  0  0  0  0  0  0  0  0  0  0  0
  151.4353  137.7790  154.3811 C   0  0  0  0  0  0  0  0  0  0  0  0
  151.7767  136.6598  154.0053 O   0  0  0  0  0  0  0  0  0  0  0  0
  150.1728  138.2786  154.0508 N   0  0  0  0  0  0  0  0  0  0  0  0
  149.6758  139.5293  154.4209 C   0  0  0  0  0  0  0  0  0  0  0  0
  148.5466  139.8733  154.0735 O   0  0  0  0  0  0  0  0  0  0  0  0
  149.5708  137.6870  153.4968 H   0  0  0  0  0  0  0  0  0  0  0  0
  152.6185  146.3841  160.0128 H   0  0  0  0  0  0  0  0  0  0  0  0
  152.2953  144.8308  160.7775 H   0  0  0  0  0  0  0  0  0  0  0  0
  150.9834  145.9839  160.5320 H   0  0  0  0  0  0  0  0  0  0  0  0
  151.2532  145.7397  158.0403 H   0  0  0  0  0  0  0  0  0  0  0  0
  152.5464  144.5924  158.2915 H   0  0  0  0  0  0  0  0  0  0  0  0
  150.9352  143.0194  159.4290 H   0  0  0  0  0  0  0  0  0  0  0  0
  149.6506  144.1859  159.2139 H   0  0  0  0  0  0  0  0  0  0  0  0
  149.9544  143.9593  156.7621 H   0  0  0  0  0  0  0  0  0  0  0  0
  148.9877  141.7883  155.5083 H   0  0  0  0  0  0  0  0  0  0  0  0
  150.4912  142.4556  154.9545 H   0  0  0  0  0  0  0  0  0  0  0  0
  152.4221  140.5405  156.1270 H   0  0  0  0  0  0  0  0  0  0  0  0
  153.2478  138.3849  155.4777 H   0  0  0  0  0  0  0  0  0  0  0  0
  1  2  1  0  0  0  0
  1 17  1  0  0  0  0
  1 18  1  0  0  0  0
  1 19  1  0  0  0  0
  2  3  1  0  0  0  0
  2 20  1  0  0  0  0
  2 21  1  0  0  0  0
  3  4  1  0  0  0  0
  3 22  1  0  0  0  0
  3 23  1  0  0  0  0
  4  5  1  0  0  0  0
  4 24  1  0  0  0  0
  5  6  2  0  0  0  0
  5  7  1  0  0  0  0
  7  8  1  0  0  0  0
  7 25  1  0  0  0  0
  7 26  1  0  0  0  0
  8 14  1  0  0  0  0
  8  9  1  0  0  0  0
  9 10  2  0  0  0  0
  9 27  1  0  0  0  0
 10 11  1  0  0  0  0
 10 28  1  0  0  0  0
 11 12  2  0  0  0  0
 11 13  1  0  0  0  0
 13 16  1  0  0  0  0
 13 14  1  0  0  0  0
 14 15  2  0  0  0  0
M  END
> <s_m_source_file>
AV-unprocessed.smi

> <i_m_source_file_index>
2197

> <i_lp_mmshare_version>
43012

> <i_f3d_flags>
0

> <s_epik_input>
W0NIM11bQ0gyXVtDSDJdW05IXUMoPU8pW0NIMl1uMVtjSF1bY0hdYyg9TylbbkhdYzE9Tw==

> <s_epik_cmdline>
J2VwaWtfcHl0aG9uJywgJy1waCcsICc3LjAnLCAnLXRuJywgJzgnLCAnLW1hJywgJzIwMCcsICctbWV0YWxfYmluZGluZycsICctaW1hZScsICc8aW5maWxlLm1hZT4nLCAnLW9tYWUnLCAnPG91dGZpbGUubWFlPic=

> <r_lp_tautomer_probability>
0.999537

> <r_epik_Ionization_Penalty>
0.00328917

> <r_epik_Ionization_Penalty_Charging>
0.00328916

> <r_epik_Ionization_Penalty_Neutral>
1.81689e-08

> <r_epik_State_Penalty>
0.00232387

> <r_epik_Charging_Adjusted_Penalty>
0.00561303

> <i_epik_Tot_Q>
0

> <i_epik_Tot_abs_Q>
0

> <r_epik_Metal_State_Penalty>
0.365275

> <b_epik_Metal_Only>
0

> <s_lp_Force_Field>
OPLS_2005

> <r_lp_Energy>
1.80706

> <b_lp_Chiralities_Consistent>
1

> <s_lp_Variant>
AV-unprocessed.smi:2197-1

> <Gold.Version>
5.8.1

> <Gold.Id.Protein>
6NUR|6NUR_protein|mol2

> <Gold.PLP.Fitness>
39.1549

> <Gold.PLP.PLP>
-32.7158

> <Gold.PLP.part.hbond>
-2.3503

> <Gold.PLP.part.metal>
0.0000

> <Gold.PLP.part.buried>
-4.4576

> <Gold.PLP.part.nonpolar>
-28.3176

> <Gold.PLP.part.repulsive>
2.6802

> <Gold.PLP.ligand.clash>
0.0000

> <Gold.PLP.ligand.torsion>
0.3724

> <Gold.PLP.Chemscore.Hbond>
2.3900

> <Gold.PLP.Chemscore.CHOScore>
0.0000

> <Gold.PLP.Chemscore.Metal>
0.0000

> <Gold.Chemscore.Hbonds>
donor molecule, donor type, donor heavy atom, donor atom, acceptor molecule, acceptor atom, score
      L1  H     4    24       P1  8028  1.00
      L1  H    13    16       P1  7948  0.47
      P1  H 10752 10764       L1    12  1.00

> <Gold.PLP.Chemscore.Internal.Correction>
0.0138

> <Gold.Rescore>
     Score         DG    S(hbond)    S(metal)    S(lipo)     H(rot)  DE(clash)    DE(int)     intcor
     12.62     -16.49       2.89        0.00      56.29       2.05       2.00       1.87       ----

> <Gold.Chemscore.Fitness>
12.6192

> <Gold.Chemscore.DG>
-16.4859

> <Gold.Chemscore.ZeroCoef>
-5.4800

> <Gold.Chemscore.Hbond>
2.8922

> <Gold.Chemscore.Metal>
0.0000

> <Gold.Chemscore.Lipo>
56.2949

> <Gold.Chemscore.Internal_Hbond>
0.0000

> <Gold.Chemscore.DEClash>
2.0015

> <Gold.Chemscore.DEInternal>
1.8651

> <Gold.Chemscore.Rot>
2.0471

> <Gold.Chemscore.Internal.Correction>
   9.000000E+99

> <Gold.Chemscore.Hbonds>
donor molecule, donor type, donor heavy atom, donor atom, acceptor molecule, acceptor atom, score
      L1  H     4    24       P1  8028  0.98
      L1  H    13    16       P1  7948  0.43
      P1  H 10752 10764       L1    12  0.95

> <Gold.Chemscore.Hbond.Weighted>
-9.6600

> <Gold.Chemscore.Metal.Weighted>
-0.0000

> <Gold.Chemscore.Lipo.Weighted>
-6.5865

> <Gold.Chemscore.Internal_Hbond.Weighted>
0.0000

> <Gold.Chemscore.DEClash.Weighted>
2.0015

> <Gold.Chemscore.DEInternal.Weighted>
1.8651

> <Gold.Chemscore.Rot.Weighted>
5.2406

> <Gold.Chemscore.Internal.Correction.Weighted>
   9.000000E+99

> <Gold.Protein.RotatedTorsions>
[ 6907 6896 6895 6894 ] final   92.33 input  -60.11 | X-H torsion
[ 7974 7965 7964 7962 ] final  -99.44 input  175.53 | X-H torsion
[ 8008 7997 7996 7995 ] final  110.99 input   59.86 | X-H torsion
[ 10167 10162 10161 10158 ] final  -50.53 input  -65.29 | X-H torsion
[ 10718 10713 10712 10709 ] final -154.14 input   66.30 | X-H torsion
[ 10763 10752 10751 10750 ] final  -86.86 input  -60.55 | X-H torsion
[ 11005 11000 10999 10996 ] final   88.40 input  -57.11 | X-H torsion

> <Gold.Protein.ActiveResidues>
 VAL166  LYS551  ARG553  GLY616  TRP617  ASP618  TYR619  PRO620  LYS621  CYS622 
 ASP623  PHE694  ASN695  SER759  ASP760  ASP761  ALA762  ILE779  LEU786  VAL792 
 PHE793  MET794  SER795  GLU796  ALA797  LYS798  CYS799  TRP800  GLU811  SER814 

> <Gold.Protein.RotatedAtoms>
  152.5452  134.1519  159.8521 H   0  0  0  0  0  0  0  0  0  0  0  0  # atno 6907 bound_to 6896
  151.1545  133.4878  159.2602 H   0  0  0  0  0  0  0  0  0  0  0  0  # atno 6908 bound_to 6896
  151.1438  135.0203  159.8692 H   0  0  0  0  0  0  0  0  0  0  0  0  # atno 6909 bound_to 6896
  145.3075  140.9392  143.2788 H   0  0  0  0  0  0  0  0  0  0  0  0  # atno 7974 bound_to 7965
  156.2092  140.3028  155.9694 H   0  0  0  0  0  0  0  0  0  0  0  0  # atno 8008 bound_to 7997
  155.2766  140.0436  157.3029 H   0  0  0  0  0  0  0  0  0  0  0  0  # atno 8009 bound_to 7997
  154.5676  140.2338  155.8249 H   0  0  0  0  0  0  0  0  0  0  0  0  # atno 8010 bound_to 7997
  140.6633  143.2654  151.4373 H   0  0  0  0  0  0  0  0  0  0  0  0  # atno 10167 bound_to 10162
  156.4953  130.8366  151.2587 H   0  0  0  0  0  0  0  0  0  0  0  0  # atno 10718 bound_to 10713
  154.6271  135.5434  153.7639 H   0  0  0  0  0  0  0  0  0  0  0  0  # atno 10763 bound_to 10752
  153.0266  135.6427  154.1355 H   0  0  0  0  0  0  0  0  0  0  0  0  # atno 10764 bound_to 10752
  154.1287  135.2915  155.3170 H   0  0  0  0  0  0  0  0  0  0  0  0  # atno 10765 bound_to 10752
  139.8897  134.8485  156.2995 H   0  0  0  0  0  0  0  0  0  0  0  0  # atno 11005 bound_to 11000
  144.9043  139.4609  143.6617 LP  0  0  0  0  0  0  0  0  0  0  0  0  # atno 17320 bound_to 7965
  146.3130  139.7815  142.9005 LP  0  0  0  0  0  0  0  0  0  0  0  0  # atno 17321 bound_to 7965
  139.5873  144.1575  152.2045 LP  0  0  0  0  0  0  0  0  0  0  0  0  # atno 17342 bound_to 10162
  140.0919  144.5613  150.7048 LP  0  0  0  0  0  0  0  0  0  0  0  0  # atno 17343 bound_to 10162
  157.7469  131.0000  150.2909 LP  0  0  0  0  0  0  0  0  0  0  0  0  # atno 17370 bound_to 10713
  156.3386  130.3811  149.7429 LP  0  0  0  0  0  0  0  0  0  0  0  0  # atno 17371 bound_to 10713
  140.9923  133.7201  156.0832 LP  0  0  0  0  0  0  0  0  0  0  0  0  # atno 17394 bound_to 11000
  140.7609  134.3940  157.5526 LP  0  0  0  0  0  0  0  0  0  0  0  0  # atno 17395 bound_to 11000

$$$$
