AV-unprocessed.smi:869|AV-procd|sdf|4003|dock1
  -GOLD-   22720 1483D 1   1.00000     0.00000
 Structure written by MMmdl.
 46 48  0  0  0  0  0  0  0  0  1 V2000
  154.6354  143.0710  164.5932 C   0  0  0  0  0  0  0  0  0  0  0  0
  155.2289  142.1262  163.7208 O   0  0  0  0  0  0  0  0  0  0  0  0
  154.2632  141.3531  163.0238 C   0  0  0  0  0  0  0  0  0  0  0  0
  153.5871  142.2335  162.0111 C   0  0  0  0  0  0  0  0  0  0  0  0
  152.7854  143.2482  162.3453 N   0  0  0  0  0  0  0  0  0  0  0  0
  152.4083  143.7587  161.1192 C   0  0  0  0  0  0  0  0  0  0  0  0
  151.5616  144.8434  160.7963 C   0  0  0  0  0  0  0  0  0  0  0  0
  151.3216  145.1850  159.4491 C   0  0  0  0  0  0  0  0  0  0  0  0
  151.9240  144.4493  158.4080 C   0  0  0  0  0  0  0  0  0  0  0  0
  152.7714  143.3654  158.7081 C   0  0  0  0  0  0  0  0  0  0  0  0
  153.0062  143.0280  160.0545 C   0  0  0  0  0  0  0  0  0  0  0  0
  153.7647  142.0430  160.6789 N   0  0  0  0  0  0  0  0  0  0  0  0
  154.5743  141.0343  160.0070 C   0  0  0  0  0  0  0  0  0  0  0  0
  154.0163  139.6084  160.1894 C   0  0  2  0  0  0  0  0  0  0  0  0
  154.9866  138.6722  159.7631 O   0  0  0  0  0  0  0  0  0  0  0  0
  152.7337  139.3857  159.3726 C   0  0  0  0  0  0  0  0  0  0  0  0
  153.0628  139.3995  157.9897 O   0  0  0  0  0  0  0  0  0  0  0  0
  152.0966  139.8002  157.0919 C   0  0  0  0  0  0  0  0  0  0  0  0
  151.1470  140.7367  157.5497 C   0  0  0  0  0  0  0  0  0  0  0  0
  150.1234  141.2008  156.7014 C   0  0  0  0  0  0  0  0  0  0  0  0
  150.0355  140.7292  155.3769 C   0  0  0  0  0  0  0  0  0  0  0  0
  148.9365  141.2252  154.4602 C   0  0  0  0  0  0  0  0  0  0  0  0
  150.9804  139.7957  154.9075 C   0  0  0  0  0  0  0  0  0  0  0  0
  152.0049  139.3330  155.7563 C   0  0  0  0  0  0  0  0  0  0  0  0
  155.4142  143.6375  165.1040 H   0  0  0  0  0  0  0  0  0  0  0  0
  154.0244  142.5786  165.3511 H   0  0  0  0  0  0  0  0  0  0  0  0
  154.0108  143.7768  164.0437 H   0  0  0  0  0  0  0  0  0  0  0  0
  154.7404  140.5160  162.5121 H   0  0  0  0  0  0  0  0  0  0  0  0
  153.5221  140.9586  163.7201 H   0  0  0  0  0  0  0  0  0  0  0  0
  151.0961  145.4128  161.5871 H   0  0  0  0  0  0  0  0  0  0  0  0
  150.6726  146.0156  159.2135 H   0  0  0  0  0  0  0  0  0  0  0  0
  151.7349  144.7171  157.3788 H   0  0  0  0  0  0  0  0  0  0  0  0
  153.2338  142.7995  157.9134 H   0  0  0  0  0  0  0  0  0  0  0  0
  154.6065  141.2863  158.9465 H   0  0  0  0  0  0  0  0  0  0  0  0
  155.6040  141.0911  160.3599 H   0  0  0  0  0  0  0  0  0  0  0  0
  153.8077  139.4417  161.2471 H   0  0  0  0  0  0  0  0  0  0  0  0
  155.7686  138.7974  160.2790 H   0  0  0  0  0  0  0  0  0  0  0  0
  152.3166  138.4067  159.6147 H   0  0  0  0  0  0  0  0  0  0  0  0
  151.9831  140.1389  159.6188 H   0  0  0  0  0  0  0  0  0  0  0  0
  151.2038  141.1043  158.5637 H   0  0  0  0  0  0  0  0  0  0  0  0
  149.4067  141.9188  157.0722 H   0  0  0  0  0  0  0  0  0  0  0  0
  149.2995  142.0539  153.8523 H   0  0  0  0  0  0  0  0  0  0  0  0
  148.0750  141.5702  155.0329 H   0  0  0  0  0  0  0  0  0  0  0  0
  148.6017  140.4300  153.7935 H   0  0  0  0  0  0  0  0  0  0  0  0
  150.9229  139.4305  153.8927 H   0  0  0  0  0  0  0  0  0  0  0  0
  152.7081  138.6183  155.3572 H   0  0  0  0  0  0  0  0  0  0  0  0
  1  2  1  0  0  0  0
  1 25  1  0  0  0  0
  1 26  1  0  0  0  0
  1 27  1  0  0  0  0
  2  3  1  0  0  0  0
  3  4  1  0  0  0  0
  3 28  1  0  0  0  0
  3 29  1  0  0  0  0
  4 12  1  0  0  0  0
  4  5  2  0  0  0  0
  5  6  1  0  0  0  0
  6 11  2  0  0  0  0
  6  7  1  0  0  0  0
  7  8  2  0  0  0  0
  7 30  1  0  0  0  0
  8  9  1  0  0  0  0
  8 31  1  0  0  0  0
  9 10  2  0  0  0  0
  9 32  1  0  0  0  0
 10 11  1  0  0  0  0
 10 33  1  0  0  0  0
 11 12  1  0  0  0  0
 12 13  1  0  0  0  0
 13 14  1  0  0  0  0
 13 34  1  0  0  0  0
 13 35  1  0  0  0  0
 14 15  1  0  0  0  0
 14 16  1  0  0  0  0
 14 36  1  0  0  0  0
 15 37  1  0  0  0  0
 16 17  1  0  0  0  0
 16 38  1  0  0  0  0
 16 39  1  0  0  0  0
 17 18  1  0  0  0  0
 18 24  1  0  0  0  0
 18 19  2  0  0  0  0
 19 20  1  0  0  0  0
 19 40  1  0  0  0  0
 20 21  2  0  0  0  0
 20 41  1  0  0  0  0
 21 22  1  0  0  0  0
 21 23  1  0  0  0  0
 22 42  1  0  0  0  0
 22 43  1  0  0  0  0
 22 44  1  0  0  0  0
 23 24  2  0  0  0  0
 23 45  1  0  0  0  0
 24 46  1  0  0  0  0
M  END
> <s_m_source_file>
AV-unprocessed.smi

> <i_m_source_file_index>
869

> <i_lp_mmshare_version>
43012

> <i_f3d_flags>
0

> <s_epik_input>
W2NIXTFbY0hdW2NIXVtjSF1jKGMxMiluKGMobjIpW0NIMl1PW0NIM10pW0NIMl1bQ0BIXShbT0hdKVtDSDJdT2MzW2NIXVtjSF1jKFtDSDNdKVtjSF1bY0hdMw==

> <s_epik_cmdline>
J2VwaWtfcHl0aG9uJywgJy1waCcsICc3LjAnLCAnLXRuJywgJzgnLCAnLW1hJywgJzIwMCcsICctbWV0YWxfYmluZGluZycsICctaW1hZScsICc8aW5maWxlLm1hZT4nLCAnLW9tYWUnLCAnPG91dGZpbGUubWFlPic=

> <r_lp_tautomer_probability>
1

> <r_epik_Ionization_Penalty>
0.0446698

> <r_epik_Ionization_Penalty_Charging>
0

> <r_epik_Ionization_Penalty_Neutral>
0.0446698

> <r_epik_State_Penalty>
0.0378721

> <r_epik_Charging_Adjusted_Penalty>
0.0378721

> <i_epik_Tot_Q>
0

> <i_epik_Tot_abs_Q>
0

> <r_epik_Metal_State_Penalty>
3.91074e-05

> <b_epik_Metal_Only>
0

> <s_lp_Force_Field>
OPLS_2005

> <r_lp_Energy>
18.3229

> <b_lp_Chiralities_Consistent>
1

> <s_lp_Variant>
AV-unprocessed.smi:869-1

> <Gold.Version>
5.8.1

> <Gold.Id.Protein>
6NUR|6NUR_protein|mol2

> <Gold.PLP.Fitness>
61.6248

> <Gold.PLP.PLP>
-59.9274

> <Gold.PLP.part.hbond>
-1.7427

> <Gold.PLP.part.metal>
0.0000

> <Gold.PLP.part.buried>
-1.3266

> <Gold.PLP.part.nonpolar>
-55.4425

> <Gold.PLP.part.repulsive>
0.1374

> <Gold.PLP.ligand.clash>
0.0000

> <Gold.PLP.ligand.torsion>
0.7934

> <Gold.PLP.Chemscore.Hbond>
1.0000

> <Gold.PLP.Chemscore.CHOScore>
0.0000

> <Gold.PLP.Chemscore.Metal>
0.0000

> <Gold.Chemscore.Hbonds>
donor molecule, donor type, donor heavy atom, donor atom, acceptor molecule, acceptor atom, score
      P1  H  7997  8010       L1    17  1.00

> <Gold.PLP.Chemscore.Internal.Correction>
0.2842

> <Gold.Rescore>
     Score         DG    S(hbond)    S(metal)    S(lipo)     H(rot)  DE(clash)    DE(int)     intcor
     17.40     -20.98       0.79        0.00     161.63       2.36       1.98       1.60       ----

> <Gold.Chemscore.Fitness>
17.3964

> <Gold.Chemscore.DG>
-20.9759

> <Gold.Chemscore.ZeroCoef>
-5.4800

> <Gold.Chemscore.Hbond>
0.7854

> <Gold.Chemscore.Metal>
0.0000

> <Gold.Chemscore.Lipo>
161.6279

> <Gold.Chemscore.Internal_Hbond>
0.0000

> <Gold.Chemscore.DEClash>
1.9812

> <Gold.Chemscore.DEInternal>
1.5983

> <Gold.Chemscore.Rot>
2.3585

> <Gold.Chemscore.Internal.Correction>
   9.000000E+99

> <Gold.Chemscore.Hbonds>
donor molecule, donor type, donor heavy atom, donor atom, acceptor molecule, acceptor atom, score
      P1  H  7997  8010       L1    17  0.42

> <Gold.Chemscore.Hbond.Weighted>
-2.6232

> <Gold.Chemscore.Metal.Weighted>
-0.0000

> <Gold.Chemscore.Lipo.Weighted>
-18.9105

> <Gold.Chemscore.Internal_Hbond.Weighted>
0.0000

> <Gold.Chemscore.DEClash.Weighted>
1.9812

> <Gold.Chemscore.DEInternal.Weighted>
1.5983

> <Gold.Chemscore.Rot.Weighted>
6.0378

> <Gold.Chemscore.Internal.Correction.Weighted>
   9.000000E+99

> <Gold.Protein.RotatedTorsions>
[ 6907 6896 6895 6894 ] final -161.00 input  -60.11 | X-H torsion
[ 7974 7965 7964 7962 ] final   78.41 input  175.53 | X-H torsion
[ 8008 7997 7996 7995 ] final   20.94 input   59.86 | X-H torsion
[ 10167 10162 10161 10158 ] final   60.25 input  -65.29 | X-H torsion
[ 10718 10713 10712 10709 ] final -127.15 input   66.30 | X-H torsion
[ 10763 10752 10751 10750 ] final  143.54 input  -60.55 | X-H torsion
[ 11005 11000 10999 10996 ] final   32.78 input  -57.11 | X-H torsion

> <Gold.Protein.ActiveResidues>
 VAL166  LYS551  ARG553  GLY616  TRP617  ASP618  TYR619  PRO620  LYS621  CYS622 
 ASP623  PHE694  ASN695  SER759  ASP760  ASP761  ALA762  ILE779  LEU786  VAL792 
 PHE793  MET794  SER795  GLU796  ALA797  LYS798  CYS799  TRP800  GLU811  SER814 

> <Gold.Protein.RotatedAtoms>
  151.3578  133.3901  159.2686 H   0  0  0  0  0  0  0  0  0  0  0  0  # atno 6907 bound_to 6896
  150.9749  134.9116  159.7820 H   0  0  0  0  0  0  0  0  0  0  0  0  # atno 6908 bound_to 6896
  152.5197  134.3541  159.9314 H   0  0  0  0  0  0  0  0  0  0  0  0  # atno 6909 bound_to 6896
  145.6775  139.2514  143.1833 H   0  0  0  0  0  0  0  0  0  0  0  0  # atno 7974 bound_to 7965
  154.9432  140.3056  155.5111 H   0  0  0  0  0  0  0  0  0  0  0  0  # atno 8008 bound_to 7997
  156.2994  140.2332  156.4440 H   0  0  0  0  0  0  0  0  0  0  0  0  # atno 8009 bound_to 7997
  154.8126  140.0427  157.1342 H   0  0  0  0  0  0  0  0  0  0  0  0  # atno 8010 bound_to 7997
  140.1676  144.4309  150.6677 H   0  0  0  0  0  0  0  0  0  0  0  0  # atno 10167 bound_to 10162
  156.1831  130.6745  151.0330 H   0  0  0  0  0  0  0  0  0  0  0  0  # atno 10718 bound_to 10713
  153.9740  135.2948  155.3425 H   0  0  0  0  0  0  0  0  0  0  0  0  # atno 10763 bound_to 10752
  154.7306  135.5069  153.8961 H   0  0  0  0  0  0  0  0  0  0  0  0  # atno 10764 bound_to 10752
  153.0886  135.6701  154.0012 H   0  0  0  0  0  0  0  0  0  0  0  0  # atno 10765 bound_to 10752
  140.2699  134.3095  155.7831 H   0  0  0  0  0  0  0  0  0  0  0  0  # atno 11005 bound_to 11000
  146.0993  140.7563  142.9557 LP  0  0  0  0  0  0  0  0  0  0  0  0  # atno 17320 bound_to 7965
  144.7037  140.3761  143.7135 LP  0  0  0  0  0  0  0  0  0  0  0  0  # atno 17321 bound_to 7965
  140.6603  143.2250  151.5872 LP  0  0  0  0  0  0  0  0  0  0  0  0  # atno 17342 bound_to 10162
  139.5352  144.2800  152.1236 LP  0  0  0  0  0  0  0  0  0  0  0  0  # atno 17343 bound_to 10162
  157.6881  131.0818  150.7186 LP  0  0  0  0  0  0  0  0  0  0  0  0  # atno 17370 bound_to 10713
  156.7242  130.4690  149.5515 LP  0  0  0  0  0  0  0  0  0  0  0  0  # atno 17371 bound_to 10713
  141.2179  133.7460  156.9318 LP  0  0  0  0  0  0  0  0  0  0  0  0  # atno 17394 bound_to 11000
  140.1383  134.9310  157.2432 LP  0  0  0  0  0  0  0  0  0  0  0  0  # atno 17395 bound_to 11000

$$$$
