AV-unprocessed.smi:229|AV-procd|sdf|1758|dock1
  -GOLD-   2262020283D 1   1.00000     0.00000
 Structure written by MMmdl.
 58 62  0  0  0  0  0  0  0  0  1 V2000
  152.7439  131.5059  156.7460 C   0  0  0  0  0  0  0  0  0  0  0  0
  151.5570  132.0457  157.5535 C   0  0  0  0  0  0  0  0  0  0  0  0
  150.7118  133.0604  156.7690 C   0  0  1  0  0  0  0  0  0  0  0  0
  151.5108  134.3297  156.4320 C   0  0  0  0  0  0  0  0  0  0  0  0
  150.7090  135.2151  155.5994 N   0  0  0  0  0  0  0  0  0  0  0  0
  151.0491  136.5260  155.4950 C   0  0  0  0  0  0  0  0  0  0  0  0
  151.8256  136.8812  154.4380 N   0  0  0  0  0  0  0  0  0  0  0  0
  152.1893  138.1538  154.2581 C   0  0  0  0  0  0  0  0  0  0  0  0
  151.8938  139.2188  155.0039 N   0  0  0  0  0  0  0  0  0  0  0  0
  151.1191  138.8732  156.0711 C   0  0  0  0  0  0  0  0  0  0  0  0
  150.6540  137.5646  156.3928 C   0  0  0  0  0  0  0  0  0  0  0  0
  149.9022  137.6171  157.5631 N   0  0  0  0  0  0  0  0  0  0  0  0
  149.9135  138.8764  157.9033 C   0  0  0  0  0  0  0  0  0  0  0  0
  150.6198  139.7014  157.0600 N   0  0  0  0  0  0  0  0  0  0  0  0
  150.7984  141.1368  157.1917 C   0  0  0  0  0  0  0  0  0  0  0  0
  151.5394  141.5214  158.4880 C   0  0  1  0  0  0  0  0  0  0  0  0
  152.6816  140.6979  158.6319 O   0  0  0  0  0  0  0  0  0  0  0  0
  151.9867  142.9952  158.4913 C   0  0  2  0  0  0  0  0  0  0  0  0
  152.2409  143.5760  159.8828 C   0  0  0  0  0  0  0  0  0  0  0  0
  152.1028  145.0584  159.6230 C   0  0  0  0  0  0  0  0  0  0  0  0
  150.9644  145.0994  158.6065 C   0  0  0  0  0  0  0  0  0  0  0  0
  150.9655  143.8316  157.9538 O   0  0  0  0  0  0  0  0  0  0  0  0
  150.2044  134.5776  154.3875 C   0  0  0  0  0  0  0  0  0  0  0  0
  149.4546  133.2670  154.7231 C   0  0  2  0  0  0  0  0  0  0  0  0
  149.1427  132.4745  153.4572 C   0  0  0  0  0  0  0  0  0  0  0  0
  147.7153  132.8841  153.1283 C   0  0  0  0  0  0  0  0  0  0  0  0
  147.1136  132.9306  154.4082 O   0  0  0  0  0  0  0  0  0  0  0  0
  148.0455  133.5098  155.3145 C   0  0  0  0  0  0  0  0  0  0  0  0
  150.2759  132.4434  155.5564 O   0  0  0  0  0  0  0  0  0  0  0  0
  153.3091  130.7778  157.3279 H   0  0  0  0  0  0  0  0  0  0  0  0
  153.4277  132.3066  156.4628 H   0  0  0  0  0  0  0  0  0  0  0  0
  152.4073  131.0135  155.8332 H   0  0  0  0  0  0  0  0  0  0  0  0
  150.9278  131.2069  157.8525 H   0  0  0  0  0  0  0  0  0  0  0  0
  151.9189  132.5015  158.4758 H   0  0  0  0  0  0  0  0  0  0  0  0
  149.8520  133.3376  157.3796 H   0  0  0  0  0  0  0  0  0  0  0  0
  151.7930  134.8348  157.3564 H   0  0  0  0  0  0  0  0  0  0  0  0
  152.4280  134.0683  155.9026 H   0  0  0  0  0  0  0  0  0  0  0  0
  152.8031  138.3461  153.3904 H   0  0  0  0  0  0  0  0  0  0  0  0
  149.4016  139.2401  158.7824 H   0  0  0  0  0  0  0  0  0  0  0  0
  151.3393  141.5032  156.3180 H   0  0  0  0  0  0  0  0  0  0  0  0
  149.8128  141.6031  157.1651 H   0  0  0  0  0  0  0  0  0  0  0  0
  150.8858  141.3422  159.3428 H   0  0  0  0  0  0  0  0  0  0  0  0
  152.5919  139.9572  158.0521 H   0  0  0  0  0  0  0  0  0  0  0  0
  152.8811  143.1228  157.8787 H   0  0  0  0  0  0  0  0  0  0  0  0
  151.4734  143.2462  160.5847 H   0  0  0  0  0  0  0  0  0  0  0  0
  153.2161  143.3034  160.2874 H   0  0  0  0  0  0  0  0  0  0  0  0
  151.8926  145.6361  160.5236 H   0  0  0  0  0  0  0  0  0  0  0  0
  153.0199  145.4442  159.1755 H   0  0  0  0  0  0  0  0  0  0  0  0
  150.0048  145.2296  159.1077 H   0  0  0  0  0  0  0  0  0  0  0  0
  151.0845  145.9125  157.8901 H   0  0  0  0  0  0  0  0  0  0  0  0
  149.5505  135.2410  153.8204 H   0  0  0  0  0  0  0  0  0  0  0  0
  151.0599  134.3624  153.7456 H   0  0  0  0  0  0  0  0  0  0  0  0
  149.8385  132.6600  152.6384 H   0  0  0  0  0  0  0  0  0  0  0  0
  149.1625  131.4043  153.6693 H   0  0  0  0  0  0  0  0  0  0  0  0
  147.6835  133.8721  152.6660 H   0  0  0  0  0  0  0  0  0  0  0  0
  147.2121  132.1747  152.4711 H   0  0  0  0  0  0  0  0  0  0  0  0
  147.9081  133.0535  156.2943 H   0  0  0  0  0  0  0  0  0  0  0  0
  147.8337  134.5752  155.4138 H   0  0  0  0  0  0  0  0  0  0  0  0
  1  2  1  0  0  0  0
  1 30  1  0  0  0  0
  1 31  1  0  0  0  0
  1 32  1  0  0  0  0
  2  3  1  0  0  0  0
  2 33  1  0  0  0  0
  2 34  1  0  0  0  0
  3 29  1  0  0  0  0
  3  4  1  0  0  0  0
  3 35  1  0  0  0  0
  4  5  1  0  0  0  0
  4 36  1  0  0  0  0
  4 37  1  0  0  0  0
  5  6  1  0  0  0  0
  5 23  1  0  0  0  0
  6 11  1  0  0  0  0
  6  7  2  0  0  0  0
  7  8  1  0  0  0  0
  8  9  2  0  0  0  0
  8 38  1  0  0  0  0
  9 10  1  0  0  0  0
 10 14  1  0  0  0  0
 10 11  2  0  0  0  0
 11 12  1  0  0  0  0
 12 13  2  0  0  0  0
 13 14  1  0  0  0  0
 13 39  1  0  0  0  0
 14 15  1  0  0  0  0
 15 16  1  0  0  0  0
 15 40  1  0  0  0  0
 15 41  1  0  0  0  0
 16 17  1  0  0  0  0
 16 18  1  0  0  0  0
 16 42  1  0  0  0  0
 17 43  1  0  0  0  0
 18 22  1  0  0  0  0
 18 19  1  0  0  0  0
 18 44  1  0  0  0  0
 19 20  1  0  0  0  0
 19 45  1  0  0  0  0
 19 46  1  0  0  0  0
 20 21  1  0  0  0  0
 20 47  1  0  0  0  0
 20 48  1  0  0  0  0
 21 22  1  0  0  0  0
 21 49  1  0  0  0  0
 21 50  1  0  0  0  0
 23 24  1  0  0  0  0
 23 51  1  0  0  0  0
 23 52  1  0  0  0  0
 24 28  1  0  0  0  0
 24 25  1  0  0  0  0
 24 29  1  0  0  0  0
 25 26  1  0  0  0  0
 25 53  1  0  0  0  0
 25 54  1  0  0  0  0
 26 27  1  0  0  0  0
 26 55  1  0  0  0  0
 26 56  1  0  0  0  0
 27 28  1  0  0  0  0
 28 57  1  0  0  0  0
 28 58  1  0  0  0  0
M  END
> <s_m_source_file>
AV-unprocessed.smi

> <i_m_source_file_index>
229

> <i_lp_mmshare_version>
43012

> <i_f3d_flags>
0

> <s_epik_input>
W0NIMl0xT1tDSDJdW0NIMl1bQ0BdMTJbQ0gyXU4oW0NIMl1bQ0BIXShPMilbQ0gyXVtDSDNdKWMobltjSF1uMyljKGMzNCluW2NIXW40W0NIMl1bQ0BIXShbT0hdKVtDQEBIXTVbQ0gyXVtDSDJdW0NIMl1PNQ==

> <s_epik_cmdline>
J2VwaWtfcHl0aG9uJywgJy1waCcsICc3LjAnLCAnLXRuJywgJzgnLCAnLW1hJywgJzIwMCcsICctbWV0YWxfYmluZGluZycsICctaW1hZScsICc8aW5maWxlLm1hZT4nLCAnLW9tYWUnLCAnPG91dGZpbGUubWFlPic=

> <r_lp_tautomer_probability>
1

> <r_epik_Ionization_Penalty>
0.00318402

> <r_epik_Ionization_Penalty_Charging>
0

> <r_epik_Ionization_Penalty_Neutral>
0.00318402

> <r_epik_State_Penalty>
0.00215642

> <r_epik_Charging_Adjusted_Penalty>
0.00215642

> <i_epik_Tot_Q>
0

> <i_epik_Tot_abs_Q>
0

> <r_epik_Metal_State_Penalty>
-0

> <b_epik_Metal_Only>
0

> <s_lp_Force_Field>
OPLS_2005

> <r_lp_Energy>
55.1094

> <b_lp_Chiralities_Consistent>
1

> <s_lp_Variant>
AV-unprocessed.smi:229-12

> <Gold.Version>
5.8.1

> <Gold.Id.Protein>
6NUR|6NUR_protein|mol2

> <Gold.PLP.Fitness>
45.5570

> <Gold.PLP.PLP>
-41.9750

> <Gold.PLP.part.hbond>
-1.7094

> <Gold.PLP.part.metal>
0.0000

> <Gold.PLP.part.buried>
-6.6992

> <Gold.PLP.part.nonpolar>
-34.6064

> <Gold.PLP.part.repulsive>
0.9083

> <Gold.PLP.ligand.clash>
0.0000

> <Gold.PLP.ligand.torsion>
0.9374

> <Gold.PLP.Chemscore.Hbond>
1.6420

> <Gold.PLP.Chemscore.CHOScore>
0.0000

> <Gold.PLP.Chemscore.Metal>
0.0000

> <Gold.Chemscore.Hbonds>
donor molecule, donor type, donor heavy atom, donor atom, acceptor molecule, acceptor atom, score
      P1  H  7989  7998       L1     9  0.49
      P1  H 10752 10763       L1     7  0.91

> <Gold.PLP.Chemscore.Internal.Correction>
0.5307

> <Gold.Rescore>
     Score         DG    S(hbond)    S(metal)    S(lipo)     H(rot)  DE(clash)    DE(int)     intcor
     13.98     -14.83       0.88        0.00     108.68       2.46       0.10       0.75       ----

> <Gold.Chemscore.Fitness>
13.9814

> <Gold.Chemscore.DG>
-14.8330

> <Gold.Chemscore.ZeroCoef>
-5.4800

> <Gold.Chemscore.Hbond>
0.8779

> <Gold.Chemscore.Metal>
0.0000

> <Gold.Chemscore.Lipo>
108.6837

> <Gold.Chemscore.Internal_Hbond>
0.0000

> <Gold.Chemscore.DEClash>
0.1018

> <Gold.Chemscore.DEInternal>
0.7498

> <Gold.Chemscore.Rot>
2.4591

> <Gold.Chemscore.Internal.Correction>
   9.000000E+99

> <Gold.Chemscore.Hbonds>
donor molecule, donor type, donor heavy atom, donor atom, acceptor molecule, acceptor atom, score
      P1  H  7989  7998       L1     9  0.18
      P1  H 10752 10763       L1     7  0.70

> <Gold.Chemscore.Hbond.Weighted>
-2.9323

> <Gold.Chemscore.Metal.Weighted>
-0.0000

> <Gold.Chemscore.Lipo.Weighted>
-12.7160

> <Gold.Chemscore.Internal_Hbond.Weighted>
0.0000

> <Gold.Chemscore.DEClash.Weighted>
0.1018

> <Gold.Chemscore.DEInternal.Weighted>
0.7498

> <Gold.Chemscore.Rot.Weighted>
6.2953

> <Gold.Chemscore.Internal.Correction.Weighted>
   9.000000E+99

> <Gold.Protein.RotatedTorsions>
[ 6907 6896 6895 6894 ] final  134.18 input  -60.11 | X-H torsion
[ 7974 7965 7964 7962 ] final  -76.39 input  175.53 | X-H torsion
[ 8008 7997 7996 7995 ] final  121.77 input   59.86 | X-H torsion
[ 10167 10162 10161 10158 ] final -129.99 input  -65.29 | X-H torsion
[ 10718 10713 10712 10709 ] final  129.32 input   66.30 | X-H torsion
[ 10763 10752 10751 10750 ] final   24.90 input  -60.55 | X-H torsion
[ 11005 11000 10999 10996 ] final   68.26 input  -57.11 | X-H torsion

> <Gold.Protein.ActiveResidues>
 VAL166  LYS551  ARG553  GLY616  TRP617  ASP618  TYR619  PRO620  LYS621  CYS622 
 ASP623  PHE694  ASN695  SER759  ASP760  ASP761  ALA762  ILE779  LEU786  VAL792 
 PHE793  MET794  SER795  GLU796  ALA797  LYS798  CYS799  TRP800  GLU811  SER814 

> <Gold.Protein.RotatedAtoms>
  152.3141  133.5783  159.5700 H   0  0  0  0  0  0  0  0  0  0  0  0  # atno 6907 bound_to 6896
  150.7337  134.0109  159.3678 H   0  0  0  0  0  0  0  0  0  0  0  0  # atno 6908 bound_to 6896
  151.7999  135.0712  160.0450 H   0  0  0  0  0  0  0  0  0  0  0  0  # atno 6909 bound_to 6896
  145.6135  140.9381  143.1176 H   0  0  0  0  0  0  0  0  0  0  0  0  # atno 7974 bound_to 7965
  156.2700  140.2801  156.1360 H   0  0  0  0  0  0  0  0  0  0  0  0  # atno 8008 bound_to 7997
  155.1003  140.0389  157.2712 H   0  0  0  0  0  0  0  0  0  0  0  0  # atno 8009 bound_to 7997
  154.6820  140.2611  155.6904 H   0  0  0  0  0  0  0  0  0  0  0  0  # atno 8010 bound_to 7997
  139.9340  143.6239  152.2522 H   0  0  0  0  0  0  0  0  0  0  0  0  # atno 10167 bound_to 10162
  157.5165  131.1097  150.9217 H   0  0  0  0  0  0  0  0  0  0  0  0  # atno 10718 bound_to 10713
  153.0730  135.6595  154.0206 H   0  0  0  0  0  0  0  0  0  0  0  0  # atno 10763 bound_to 10752
  153.9847  135.2952  155.3418 H   0  0  0  0  0  0  0  0  0  0  0  0  # atno 10764 bound_to 10752
  154.7110  135.5205  153.8737 H   0  0  0  0  0  0  0  0  0  0  0  0  # atno 10765 bound_to 10752
  139.9722  134.6882  156.0425 H   0  0  0  0  0  0  0  0  0  0  0  0  # atno 11005 bound_to 11000
  144.7260  139.7874  143.7365 LP  0  0  0  0  0  0  0  0  0  0  0  0  # atno 17320 bound_to 7965
  146.1486  139.4562  143.0063 LP  0  0  0  0  0  0  0  0  0  0  0  0  # atno 17321 bound_to 7965
  139.6758  144.7658  151.1698 LP  0  0  0  0  0  0  0  0  0  0  0  0  # atno 17342 bound_to 10162
  140.7629  143.5797  150.8908 LP  0  0  0  0  0  0  0  0  0  0  0  0  # atno 17343 bound_to 10162
  156.9841  130.5538  149.5298 LP  0  0  0  0  0  0  0  0  0  0  0  0  # atno 17370 bound_to 10713
  156.0323  130.5414  150.8567 LP  0  0  0  0  0  0  0  0  0  0  0  0  # atno 17371 bound_to 10713
  141.1401  133.6566  156.3704 LP  0  0  0  0  0  0  0  0  0  0  0  0  # atno 17394 bound_to 11000
  140.5270  134.6249  157.5337 LP  0  0  0  0  0  0  0  0  0  0  0  0  # atno 17395 bound_to 11000

$$$$
