AV-unprocessed.smi:1190|AV-procd|sdf|4982|dock8
  -GOLD-   22720 3583D 1   1.00000     0.00000
 Structure written by MMmdl.
 44 45  0  0  0  0  0  0  0  0  2 V2000
  154.2913  141.0588  161.5990 C   0  0  0  0  0  0  0  0  0  0  0  0
  153.7394  142.3104  161.2056 O   0  0  0  0  0  0  0  0  0  0  0  0
  152.9162  142.3440  160.0988 C   0  0  0  0  0  0  0  0  0  0  0  0
  152.3954  143.5851  159.6832 C   0  0  0  0  0  0  0  0  0  0  0  0
  151.5567  143.6241  158.5538 C   0  0  0  0  0  0  0  0  0  0  0  0
  151.2684  142.4273  157.8672 C   0  0  0  0  0  0  0  0  0  0  0  0
  150.4058  142.5004  156.7398 N   0  0  0  0  0  0  0  0  0  0  0  0
  149.9893  141.5080  155.9347 C   0  0  0  0  0  0  0  0  0  0  0  0
  150.3120  140.3252  156.0338 O   0  0  0  0  0  0  0  0  0  0  0  0
  149.1775  141.9734  154.9749 N   0  0  0  0  0  0  0  0  0  0  0  0
  148.5378  141.1643  153.9379 C   0  0  0  0  0  0  0  0  0  0  0  0
  146.9999  141.3620  153.8580 C   0  0  2  0  0  0  0  0  0  0  0  0
  146.4838  142.0019  155.1654 C   0  0  0  0  0  0  0  0  0  0  0  0
  146.2714  140.0993  153.5072 N   0  3  0  0  0  0  0  0  0  0  0  0
  146.8644  139.3484  152.3662 C   0  0  0  0  0  0  0  0  0  0  0  0
  146.0534  138.0794  152.0528 C   0  0  0  0  0  0  0  0  0  0  0  0
  145.9734  137.2608  153.2098 O   0  0  0  0  0  0  0  0  0  0  0  0
  145.3052  137.9263  154.2705 C   0  0  0  0  0  0  0  0  0  0  0  0
  146.0941  139.1846  154.6684 C   0  0  0  0  0  0  0  0  0  0  0  0
  151.8302  141.2286  158.3713 C   0  0  0  0  0  0  0  0  0  0  0  0
  152.6348  141.1846  159.4545 N   0  0  0  0  0  0  0  0  0  0  0  0
  154.9155  141.2012  162.4810 H   0  0  0  0  0  0  0  0  0  0  0  0
  154.9201  140.6357  160.8143 H   0  0  0  0  0  0  0  0  0  0  0  0
  153.5109  140.3421  161.8583 H   0  0  0  0  0  0  0  0  0  0  0  0
  152.6345  144.4903  160.2216 H   0  0  0  0  0  0  0  0  0  0  0  0
  151.1445  144.5648  158.2188 H   0  0  0  0  0  0  0  0  0  0  0  0
  150.1055  143.4308  156.4894 H   0  0  0  0  0  0  0  0  0  0  0  0
  148.9625  142.9599  154.9773 H   0  0  0  0  0  0  0  0  0  0  0  0
  149.0002  141.3505  152.9669 H   0  0  0  0  0  0  0  0  0  0  0  0
  148.7669  140.1210  154.1535 H   0  0  0  0  0  0  0  0  0  0  0  0
  146.8082  142.0834  153.0620 H   0  0  0  0  0  0  0  0  0  0  0  0
  147.1152  142.8367  155.4709 H   0  0  0  0  0  0  0  0  0  0  0  0
  146.4677  141.2843  155.9861 H   0  0  0  0  0  0  0  0  0  0  0  0
  145.4792  142.4087  155.0523 H   0  0  0  0  0  0  0  0  0  0  0  0
  146.8802  139.9578  151.4638 H   0  0  0  0  0  0  0  0  0  0  0  0
  147.8973  139.0850  152.5988 H   0  0  0  0  0  0  0  0  0  0  0  0
  145.0524  138.3340  151.7010 H   0  0  0  0  0  0  0  0  0  0  0  0
  146.5355  137.5141  151.2549 H   0  0  0  0  0  0  0  0  0  0  0  0
  144.2855  138.1805  153.9761 H   0  0  0  0  0  0  0  0  0  0  0  0
  145.2306  137.2469  155.1198 H   0  0  0  0  0  0  0  0  0  0  0  0
  147.0714  138.9010  155.0618 H   0  0  0  0  0  0  0  0  0  0  0  0
  145.5556  139.6780  155.4760 H   0  0  0  0  0  0  0  0  0  0  0  0
  151.6292  140.2677  157.9248 H   0  0  0  0  0  0  0  0  0  0  0  0
  145.3464  140.3778  153.2122 H   0  0  0  0  0  0  0  0  0  0  0  0
  1  2  1  0  0  0  0
  1 22  1  0  0  0  0
  1 23  1  0  0  0  0
  1 24  1  0  0  0  0
  2  3  1  0  0  0  0
  3 21  1  0  0  0  0
  3  4  2  0  0  0  0
  4  5  1  0  0  0  0
  4 25  1  0  0  0  0
  5  6  2  0  0  0  0
  5 26  1  0  0  0  0
  6  7  1  0  0  0  0
  6 20  1  0  0  0  0
  7  8  1  0  0  0  0
  7 27  1  0  0  0  0
  8  9  2  0  0  0  0
  8 10  1  0  0  0  0
 10 11  1  0  0  0  0
 10 28  1  0  0  0  0
 11 12  1  0  0  0  0
 11 29  1  0  0  0  0
 11 30  1  0  0  0  0
 12 13  1  0  0  0  0
 12 14  1  0  0  0  0
 12 31  1  0  0  0  0
 13 32  1  0  0  0  0
 13 33  1  0  0  0  0
 13 34  1  0  0  0  0
 14 19  1  0  0  0  0
 14 15  1  0  0  0  0
 14 44  1  0  0  0  0
 15 16  1  0  0  0  0
 15 35  1  0  0  0  0
 15 36  1  0  0  0  0
 16 17  1  0  0  0  0
 16 37  1  0  0  0  0
 16 38  1  0  0  0  0
 17 18  1  0  0  0  0
 18 19  1  0  0  0  0
 18 39  1  0  0  0  0
 18 40  1  0  0  0  0
 19 41  1  0  0  0  0
 19 42  1  0  0  0  0
 20 21  2  0  0  0  0
 20 43  1  0  0  0  0
M  CHG  1  14   1
M  END
> <s_m_source_file>
AV-unprocessed.smi

> <i_m_source_file_index>
1190

> <i_lp_mmshare_version>
43012

> <i_f3d_flags>
0

> <s_epik_input>
W0NIM11PYzFbY0hdW2NIXWMoW2NIXW4xKVtOSF1DKD1PKVtOSF1bQ0gyXVtDQEhdKFtDSDNdKU4yW0NIMl1bQ0gyXU9bQ0gyXVtDSDJdMg==

> <s_epik_cmdline>
J2VwaWtfcHl0aG9uJywgJy1waCcsICc3LjAnLCAnLXRuJywgJzgnLCAnLW1hJywgJzIwMCcsICctbWV0YWxfYmluZGluZycsICctaW1hZScsICc8aW5maWxlLm1hZT4nLCAnLW9tYWUnLCAnPG91dGZpbGUubWFlPic=

> <r_lp_tautomer_probability>
1

> <r_epik_Ionization_Penalty>
0.602608

> <r_epik_Ionization_Penalty_Charging>
0.602531

> <r_epik_Ionization_Penalty_Neutral>
7.70246e-05

> <r_epik_State_Penalty>
0.617039

> <r_epik_Charging_Adjusted_Penalty>
1.21957

> <i_epik_Tot_Q>
1

> <i_epik_Tot_abs_Q>
1

> <r_epik_Metal_State_Penalty>
0.617043

> <b_epik_Metal_Only>
0

> <s_lp_Force_Field>
OPLS_2005

> <r_lp_Energy>
31.3292

> <b_lp_Chiralities_Consistent>
1

> <s_lp_Variant>
AV-unprocessed.smi:1190-3

> <Gold.Version>
5.8.1

> <Gold.Id.Protein>
6NUR|6NUR_protein|mol2

> <Gold.PLP.Fitness>
48.2486

> <Gold.PLP.PLP>
-39.4748

> <Gold.PLP.part.hbond>
-3.0615

> <Gold.PLP.part.metal>
0.0000

> <Gold.PLP.part.buried>
0.0271

> <Gold.PLP.part.nonpolar>
-36.2667

> <Gold.PLP.part.repulsive>
0.4950

> <Gold.PLP.ligand.clash>
1.7796

> <Gold.PLP.ligand.torsion>
0.7673

> <Gold.PLP.Chemscore.Hbond>
4.0000

> <Gold.PLP.Chemscore.CHOScore>
0.0000

> <Gold.PLP.Chemscore.Metal>
0.0000

> <Gold.Chemscore.Hbonds>
donor molecule, donor type, donor heavy atom, donor atom, acceptor molecule, acceptor atom, score
      L1  H     7    27       P1  8028  1.00
      L1  H    10    28       P1  8028  1.00
      L1  H    14    44       P1 10175  2.00

> <Gold.PLP.Chemscore.Internal.Correction>
0.0879

> <Gold.Rescore>
     Score         DG    S(hbond)    S(metal)    S(lipo)     H(rot)  DE(clash)    DE(int)     intcor
     18.95     -21.31       2.95        0.00      90.33       1.79       0.38       1.98       ----

> <Gold.Chemscore.Fitness>
18.9498

> <Gold.Chemscore.DG>
-21.3087

> <Gold.Chemscore.ZeroCoef>
-5.4800

> <Gold.Chemscore.Hbond>
2.9454

> <Gold.Chemscore.Metal>
0.0000

> <Gold.Chemscore.Lipo>
90.3288

> <Gold.Chemscore.Internal_Hbond>
0.0000

> <Gold.Chemscore.DEClash>
0.3768

> <Gold.Chemscore.DEInternal>
1.9821

> <Gold.Chemscore.Rot>
1.7881

> <Gold.Chemscore.Internal.Correction>
   9.000000E+99

> <Gold.Chemscore.Hbonds>
donor molecule, donor type, donor heavy atom, donor atom, acceptor molecule, acceptor atom, score
      L1  H     7    27       P1  8028  0.97
      L1  H    10    28       P1  8028  0.99
      L1  H    14    44       P1 10175  0.98

> <Gold.Chemscore.Hbond.Weighted>
-9.8377

> <Gold.Chemscore.Metal.Weighted>
-0.0000

> <Gold.Chemscore.Lipo.Weighted>
-10.5685

> <Gold.Chemscore.Internal_Hbond.Weighted>
0.0000

> <Gold.Chemscore.DEClash.Weighted>
0.3768

> <Gold.Chemscore.DEInternal.Weighted>
1.9821

> <Gold.Chemscore.Rot.Weighted>
4.5775

> <Gold.Chemscore.Internal.Correction.Weighted>
   9.000000E+99

> <Gold.Protein.RotatedTorsions>
[ 6907 6896 6895 6894 ] final -103.94 input  -60.11 | X-H torsion
[ 7974 7965 7964 7962 ] final   68.77 input  175.53 | X-H torsion
[ 8008 7997 7996 7995 ] final  -57.20 input   59.86 | X-H torsion
[ 10167 10162 10161 10158 ] final -108.51 input  -65.29 | X-H torsion
[ 10718 10713 10712 10709 ] final  -38.96 input   66.30 | X-H torsion
[ 10763 10752 10751 10750 ] final  -40.48 input  -60.55 | X-H torsion
[ 11005 11000 10999 10996 ] final -102.73 input  -57.11 | X-H torsion

> <Gold.Protein.ActiveResidues>
 VAL166  LYS551  ARG553  GLY616  TRP617  ASP618  TYR619  PRO620  LYS621  CYS622 
 ASP623  PHE694  ASN695  SER759  ASP760  ASP761  ALA762  ILE779  LEU786  VAL792 
 PHE793  MET794  SER795  GLU796  ALA797  LYS798  CYS799  TRP800  GLU811  SER814 

> <Gold.Protein.RotatedAtoms>
  150.7263  134.0353  159.3747 H   0  0  0  0  0  0  0  0  0  0  0  0  # atno 6907 bound_to 6896
  151.8324  135.0615  160.0448 H   0  0  0  0  0  0  0  0  0  0  0  0  # atno 6908 bound_to 6896
  152.2923  133.5537  159.5602 H   0  0  0  0  0  0  0  0  0  0  0  0  # atno 6909 bound_to 6896
  145.7986  139.2970  143.1168 H   0  0  0  0  0  0  0  0  0  0  0  0  # atno 7974 bound_to 7965
  154.4259  140.1112  156.5760 H   0  0  0  0  0  0  0  0  0  0  0  0  # atno 8008 bound_to 7997
  155.6162  140.3494  155.4619 H   0  0  0  0  0  0  0  0  0  0  0  0  # atno 8009 bound_to 7997
  156.0060  140.1209  157.0490 H   0  0  0  0  0  0  0  0  0  0  0  0  # atno 8010 bound_to 7997
  140.1653  143.4087  152.1395 H   0  0  0  0  0  0  0  0  0  0  0  0  # atno 10167 bound_to 10162
  156.2978  130.4236  149.8173 H   0  0  0  0  0  0  0  0  0  0  0  0  # atno 10718 bound_to 10713
  153.9467  135.6755  153.4744 H   0  0  0  0  0  0  0  0  0  0  0  0  # atno 10763 bound_to 10752
  153.0904  135.4877  154.8676 H   0  0  0  0  0  0  0  0  0  0  0  0  # atno 10764 bound_to 10752
  154.7347  135.3146  154.8790 H   0  0  0  0  0  0  0  0  0  0  0  0  # atno 10765 bound_to 10752
  141.1177  133.8582  157.1396 H   0  0  0  0  0  0  0  0  0  0  0  0  # atno 11005 bound_to 11000
  145.9902  140.8609  143.0070 LP  0  0  0  0  0  0  0  0  0  0  0  0  # atno 17320 bound_to 7965
  144.6772  140.2205  143.7367 LP  0  0  0  0  0  0  0  0  0  0  0  0  # atno 17321 bound_to 7965
  139.5362  144.7212  151.4885 LP  0  0  0  0  0  0  0  0  0  0  0  0  # atno 17342 bound_to 10162
  140.6617  143.8485  150.6895 LP  0  0  0  0  0  0  0  0  0  0  0  0  # atno 17343 bound_to 10162
  156.5563  130.8364  151.3315 LP  0  0  0  0  0  0  0  0  0  0  0  0  # atno 17370 bound_to 10713
  157.7360  130.9771  150.2112 LP  0  0  0  0  0  0  0  0  0  0  0  0  # atno 17371 bound_to 10713
  140.0110  134.9988  157.0395 LP  0  0  0  0  0  0  0  0  0  0  0  0  # atno 17394 bound_to 11000
  140.4599  134.1495  155.7190 LP  0  0  0  0  0  0  0  0  0  0  0  0  # atno 17395 bound_to 11000

$$$$
