AV-unprocessed.smi:1670|AV-procd|sdf|6694|dock7
  -GOLD-   22720 7423D 1   1.00000     0.00000
 Structure written by MMmdl.
 41 42  0  0  0  0  0  0  0  0  1 V2000
  149.5354  133.2919  155.8391 C   0  0  0  0  0  0  0  0  0  0  0  0
  149.3168  134.7051  155.2823 C   0  0  1  0  0  0  0  0  0  0  0  0
  150.6501  135.4748  155.1629 C   0  0  0  0  0  0  0  0  0  0  0  0
  150.4616  136.9134  155.0894 N   0  0  0  0  0  0  0  0  0  0  0  0
  150.9688  137.7958  154.1591 C   0  0  0  0  0  0  0  0  0  0  0  0
  150.5405  139.0445  154.5078 C   0  0  0  0  0  0  0  0  0  0  0  0
  149.7656  138.8209  155.6802 C   0  0  0  0  0  0  0  0  0  0  0  0
  149.7153  137.5439  156.0228 N   0  0  0  0  0  0  0  0  0  0  0  0
  148.6527  134.6073  153.9829 N   0  0  0  0  0  0  0  0  0  0  0  0
  147.5019  133.9620  153.7427 C   0  0  0  0  0  0  0  0  0  0  0  0
  146.8780  133.3279  154.5936 O   0  0  0  0  0  0  0  0  0  0  0  0
  147.1075  134.1156  152.4690 N   0  0  0  0  0  0  0  0  0  0  0  0
  145.8762  133.6158  151.8553 C   0  0  2  0  0  0  0  0  0  0  0  0
  146.0214  132.1709  151.3296 C   0  0  0  0  0  0  0  0  0  0  0  0
  144.6870  131.6554  150.7664 C   0  0  0  0  0  0  0  0  0  0  0  0
  144.1449  132.5975  149.6762 C   0  0  1  0  0  0  0  0  0  0  0  0
  142.8899  132.1282  149.2311 O   0  0  0  0  0  0  0  0  0  0  0  0
  143.9967  134.0366  150.2033 C   0  0  0  0  0  0  0  0  0  0  0  0
  145.3289  134.5605  150.7636 C   0  0  0  0  0  0  0  0  0  0  0  0
  150.0022  133.3273  156.8239 H   0  0  0  0  0  0  0  0  0  0  0  0
  150.1797  132.7016  155.1865 H   0  0  0  0  0  0  0  0  0  0  0  0
  148.5893  132.7600  155.9442 H   0  0  0  0  0  0  0  0  0  0  0  0
  148.6717  135.2316  155.9881 H   0  0  0  0  0  0  0  0  0  0  0  0
  151.2781  135.2686  156.0301 H   0  0  0  0  0  0  0  0  0  0  0  0
  151.2110  135.1398  154.2886 H   0  0  0  0  0  0  0  0  0  0  0  0
  151.5906  137.4653  153.3402 H   0  0  0  0  0  0  0  0  0  0  0  0
  150.7518  139.9759  154.0040 H   0  0  0  0  0  0  0  0  0  0  0  0
  149.2405  139.5432  156.2876 H   0  0  0  0  0  0  0  0  0  0  0  0
  149.0852  135.1020  153.2166 H   0  0  0  0  0  0  0  0  0  0  0  0
  147.7082  134.6585  151.8664 H   0  0  0  0  0  0  0  0  0  0  0  0
  145.1453  133.5956  152.6648 H   0  0  0  0  0  0  0  0  0  0  0  0
  146.7788  132.1214  150.5467 H   0  0  0  0  0  0  0  0  0  0  0  0
  146.3617  131.5126  152.1299 H   0  0  0  0  0  0  0  0  0  0  0  0
  144.8209  130.6513  150.3622 H   0  0  0  0  0  0  0  0  0  0  0  0
  143.9618  131.5692  151.5770 H   0  0  0  0  0  0  0  0  0  0  0  0
  144.8259  132.5936  148.8240 H   0  0  0  0  0  0  0  0  0  0  0  0
  142.2474  132.8057  149.3765 H   0  0  0  0  0  0  0  0  0  0  0  0
  143.6482  134.6945  149.4064 H   0  0  0  0  0  0  0  0  0  0  0  0
  143.2377  134.0689  150.9865 H   0  0  0  0  0  0  0  0  0  0  0  0
  145.1878  135.5625  151.1705 H   0  0  0  0  0  0  0  0  0  0  0  0
  146.0430  134.6563  149.9455 H   0  0  0  0  0  0  0  0  0  0  0  0
  1  2  1  0  0  0  0
  1 20  1  0  0  0  0
  1 21  1  0  0  0  0
  1 22  1  0  0  0  0
  2  3  1  0  0  0  0
  2  9  1  0  0  0  0
  2 23  1  0  0  0  0
  3  4  1  0  0  0  0
  3 24  1  0  0  0  0
  3 25  1  0  0  0  0
  4  8  1  0  0  0  0
  4  5  1  0  0  0  0
  5  6  2  0  0  0  0
  5 26  1  0  0  0  0
  6  7  1  0  0  0  0
  6 27  1  0  0  0  0
  7  8  2  0  0  0  0
  7 28  1  0  0  0  0
  9 10  1  0  0  0  0
  9 29  1  0  0  0  0
 10 11  2  0  0  0  0
 10 12  1  0  0  0  0
 12 13  1  0  0  0  0
 12 30  1  0  0  0  0
 13 19  1  0  0  0  0
 13 14  1  0  0  0  0
 13 31  1  0  0  0  0
 14 15  1  0  0  0  0
 14 32  1  0  0  0  0
 14 33  1  0  0  0  0
 15 16  1  0  0  0  0
 15 34  1  0  0  0  0
 15 35  1  0  0  0  0
 16 17  1  0  0  0  0
 16 18  1  0  0  0  0
 16 36  1  0  0  0  0
 17 37  1  0  0  0  0
 18 19  1  0  0  0  0
 18 38  1  0  0  0  0
 18 39  1  0  0  0  0
 19 40  1  0  0  0  0
 19 41  1  0  0  0  0
M  END
> <s_m_source_file>
AV-unprocessed.smi

> <i_m_source_file_index>
1670

> <i_lp_mmshare_version>
43012

> <i_f3d_flags>
0

> <s_epik_input>
bjFbY0hdW2NIXVtjSF1uMVtDSDJdW0NAQEhdKFtDSDNdKVtOSF1DKD1PKVtOSF1bQ0BASF0yW0NIMl1bQ0gyXVtDQEBIXShbT0hdKVtDSDJdW0NIMl0y

> <s_epik_cmdline>
J2VwaWtfcHl0aG9uJywgJy1waCcsICc3LjAnLCAnLXRuJywgJzgnLCAnLW1hJywgJzIwMCcsICctbWV0YWxfYmluZGluZycsICctaW1hZScsICc8aW5maWxlLm1hZT4nLCAnLW9tYWUnLCAnPG91dGZpbGUubWFlPic=

> <r_lp_tautomer_probability>
1

> <r_epik_Ionization_Penalty>
7.33369e-05

> <r_epik_Ionization_Penalty_Charging>
0

> <r_epik_Ionization_Penalty_Neutral>
7.33369e-05

> <r_epik_State_Penalty>
-0

> <r_epik_Charging_Adjusted_Penalty>
0

> <i_epik_Tot_Q>
0

> <i_epik_Tot_abs_Q>
0

> <r_epik_Metal_State_Penalty>
-0

> <b_epik_Metal_Only>
0

> <s_lp_Force_Field>
OPLS_2005

> <r_lp_Energy>
5.2693

> <b_lp_Chiralities_Consistent>
1

> <s_lp_Variant>
AV-unprocessed.smi:1670-2

> <Gold.Version>
5.8.1

> <Gold.Id.Protein>
6NUR|6NUR_protein|mol2

> <Gold.PLP.Fitness>
47.4139

> <Gold.PLP.PLP>
-34.3990

> <Gold.PLP.part.hbond>
-5.0000

> <Gold.PLP.part.metal>
0.0000

> <Gold.PLP.part.buried>
-3.8199

> <Gold.PLP.part.nonpolar>
-26.6127

> <Gold.PLP.part.repulsive>
0.0919

> <Gold.PLP.ligand.clash>
0.0000

> <Gold.PLP.ligand.torsion>
0.6138

> <Gold.PLP.Chemscore.Hbond>
3.7313

> <Gold.PLP.Chemscore.CHOScore>
1.0000

> <Gold.PLP.Chemscore.Metal>
0.0000

> <Gold.Chemscore.Hbonds>
donor molecule, donor type, donor heavy atom, donor atom, acceptor molecule, acceptor atom, score
      L1  H     9    29       P1  7948  0.90
      L1  H    12    30       P1  7948  0.88
      L1  H    17    37       P1 10186  0.99
      P1  H 10785 10796       L1    17  0.91
      L1  C     5    26       P1  7949  1.00

> <Gold.PLP.Chemscore.Internal.Correction>
0.0487

> <Gold.Rescore>
     Score         DG    S(hbond)    S(metal)    S(lipo)     H(rot)  DE(clash)    DE(int)     intcor
     17.34     -19.06       3.26        0.00      71.52       2.22       0.07       1.65       ----

> <Gold.Chemscore.Fitness>
17.3439

> <Gold.Chemscore.DG>
-19.0581

> <Gold.Chemscore.ZeroCoef>
-5.4800

> <Gold.Chemscore.Hbond>
3.2633

> <Gold.Chemscore.Metal>
0.0000

> <Gold.Chemscore.Lipo>
71.5220

> <Gold.Chemscore.Internal_Hbond>
0.0000

> <Gold.Chemscore.DEClash>
0.0650

> <Gold.Chemscore.DEInternal>
1.6492

> <Gold.Chemscore.Rot>
2.2224

> <Gold.Chemscore.Internal.Correction>
   9.000000E+99

> <Gold.Chemscore.Hbonds>
donor molecule, donor type, donor heavy atom, donor atom, acceptor molecule, acceptor atom, score
      L1  H     9    29       P1  7948  0.17
      L1  H    12    30       P1  7948  0.34
      L1  H    17    37       P1 10186  0.92
      P1  H 10785 10796       L1    17  0.43

> <Gold.Chemscore.Hbond.Weighted>
-10.8993

> <Gold.Chemscore.Metal.Weighted>
-0.0000

> <Gold.Chemscore.Lipo.Weighted>
-8.3681

> <Gold.Chemscore.Internal_Hbond.Weighted>
0.0000

> <Gold.Chemscore.DEClash.Weighted>
0.0650

> <Gold.Chemscore.DEInternal.Weighted>
1.6492

> <Gold.Chemscore.Rot.Weighted>
5.6893

> <Gold.Chemscore.Internal.Correction.Weighted>
   9.000000E+99

> <Gold.Protein.RotatedTorsions>
[ 6907 6896 6895 6894 ] final  -41.65 input  -60.11 | X-H torsion
[ 7974 7965 7964 7962 ] final  126.78 input  175.53 | X-H torsion
[ 8008 7997 7996 7995 ] final   76.16 input   59.86 | X-H torsion
[ 10167 10162 10161 10158 ] final -132.67 input  -65.29 | X-H torsion
[ 10718 10713 10712 10709 ] final -145.35 input   66.30 | X-H torsion
[ 10763 10752 10751 10750 ] final   20.41 input  -60.55 | X-H torsion
[ 11005 11000 10999 10996 ] final   16.92 input  -57.11 | X-H torsion

> <Gold.Protein.ActiveResidues>
 VAL166  LYS551  ARG553  GLY616  TRP617  ASP618  TYR619  PRO620  LYS621  CYS622 
 ASP623  PHE694  ASN695  SER759  ASP760  ASP761  ALA762  ILE779  LEU786  VAL792 
 PHE793  MET794  SER795  GLU796  ALA797  LYS798  CYS799  TRP800  GLU811  SER814 

> <Gold.Protein.RotatedAtoms>
  150.9643  134.9026  159.7749 H   0  0  0  0  0  0  0  0  0  0  0  0  # atno 6907 bound_to 6896
  152.5167  134.3629  159.9301 H   0  0  0  0  0  0  0  0  0  0  0  0  # atno 6908 bound_to 6896
  151.3640  133.3838  159.2727 H   0  0  0  0  0  0  0  0  0  0  0  0  # atno 6909 bound_to 6896
  145.0578  139.3829  143.5021 H   0  0  0  0  0  0  0  0  0  0  0  0  # atno 7974 bound_to 7965
  155.8234  140.3469  155.5528 H   0  0  0  0  0  0  0  0  0  0  0  0  # atno 8008 bound_to 7997
  155.8318  140.0928  157.1808 H   0  0  0  0  0  0  0  0  0  0  0  0  # atno 8009 bound_to 7997
  154.4004  140.1411  156.3611 H   0  0  0  0  0  0  0  0  0  0  0  0  # atno 8010 bound_to 7997
  139.9062  143.6548  152.2585 H   0  0  0  0  0  0  0  0  0  0  0  0  # atno 10167 bound_to 10162
  156.3814  130.7839  151.2031 H   0  0  0  0  0  0  0  0  0  0  0  0  # atno 10718 bound_to 10713
  153.1079  135.6689  153.9552 H   0  0  0  0  0  0  0  0  0  0  0  0  # atno 10763 bound_to 10752
  153.9104  135.3026  155.3450 H   0  0  0  0  0  0  0  0  0  0  0  0  # atno 10764 bound_to 10752
  154.7500  135.5039  153.9349 H   0  0  0  0  0  0  0  0  0  0  0  0  # atno 10765 bound_to 10752
  140.4417  134.1315  155.7691 H   0  0  0  0  0  0  0  0  0  0  0  0  # atno 11005 bound_to 11000
  146.3522  140.0261  142.8654 LP  0  0  0  0  0  0  0  0  0  0  0  0  # atno 17320 bound_to 7965
  145.1446  140.9590  143.4468 LP  0  0  0  0  0  0  0  0  0  0  0  0  # atno 17321 bound_to 7965
  139.6982  144.7638  151.1319 LP  0  0  0  0  0  0  0  0  0  0  0  0  # atno 17342 bound_to 10162
  140.7696  143.5494  150.9222 LP  0  0  0  0  0  0  0  0  0  0  0  0  # atno 17343 bound_to 10162
  157.7492  131.0343  150.4310 LP  0  0  0  0  0  0  0  0  0  0  0  0  # atno 17370 bound_to 10713
  156.4555  130.4020  149.6609 LP  0  0  0  0  0  0  0  0  0  0  0  0  # atno 17371 bound_to 10713
  141.1702  133.8623  157.1592 LP  0  0  0  0  0  0  0  0  0  0  0  0  # atno 17394 bound_to 11000
  140.0065  135.0006  157.0304 LP  0  0  0  0  0  0  0  0  0  0  0  0  # atno 17395 bound_to 11000

$$$$
