AV-unprocessed.smi:3303|AV-procd|sdf|12673|dock6
  -GOLD-   2272019 03D 1   1.00000     0.00000
 Structure written by MMmdl.
 44 45  0  0  0  0  0  0  0  0  2 V2000
  150.3526  139.9129  158.0515 C   0  0  0  0  0  0  0  0  0  0  0  0
  149.2721  140.2566  157.0118 C   0  0  2  0  0  0  0  0  0  0  0  0
  148.9335  139.0117  156.1687 C   0  0  0  0  0  0  0  0  0  0  0  0
  147.8721  139.2894  155.1974 N   0  0  0  0  0  0  0  0  0  0  0  0
  147.5515  138.0280  154.5347 C   0  0  0  0  0  0  0  0  0  0  0  0
  148.3134  140.3191  154.2410 C   0  0  1  0  0  0  0  0  0  0  0  0
  147.2497  140.6047  153.1611 C   0  0  0  0  0  0  0  0  0  0  0  0
  148.6253  141.6197  155.0108 C   0  0  0  0  0  0  0  0  0  0  0  0
  149.6991  141.4135  156.0880 C   0  0  1  0  0  0  0  0  0  0  0  0
  149.8791  142.6662  156.8558 N   0  3  0  0  0  0  0  0  0  0  0  0
  151.1994  142.8138  157.5000 C   0  0  0  0  0  0  0  0  0  0  0  0
  151.1109  143.7223  158.7338 C   0  0  0  0  0  0  0  0  0  0  0  0
  152.0229  143.2604  159.8542 C   0  0  0  0  0  0  0  0  0  0  0  0
  152.0026  143.9016  161.1112 C   0  0  0  0  0  0  0  0  0  0  0  0
  152.8652  143.4287  162.1192 C   0  0  0  0  0  0  0  0  0  0  0  0
  153.7097  142.3389  161.8328 C   0  0  0  0  0  0  0  0  0  0  0  0
  153.6536  141.7672  160.5461 C   0  0  0  0  0  0  0  0  0  0  0  0
  152.8282  142.2114  159.5732 N   0  0  0  0  0  0  0  0  0  0  0  0
  151.2900  139.6302  157.5710 H   0  0  0  0  0  0  0  0  0  0  0  0
  150.0388  139.0795  158.6805 H   0  0  0  0  0  0  0  0  0  0  0  0
  150.5578  140.7557  158.7118 H   0  0  0  0  0  0  0  0  0  0  0  0
  148.3704  140.5528  157.5512 H   0  0  0  0  0  0  0  0  0  0  0  0
  149.8245  138.6486  155.6532 H   0  0  0  0  0  0  0  0  0  0  0  0
  148.6075  138.2123  156.8360 H   0  0  0  0  0  0  0  0  0  0  0  0
  146.6795  138.1273  153.8891 H   0  0  0  0  0  0  0  0  0  0  0  0
  147.3070  137.2590  155.2685 H   0  0  0  0  0  0  0  0  0  0  0  0
  148.3884  137.6696  153.9335 H   0  0  0  0  0  0  0  0  0  0  0  0
  149.2233  139.9753  153.7456 H   0  0  0  0  0  0  0  0  0  0  0  0
  147.5415  141.4561  152.5454 H   0  0  0  0  0  0  0  0  0  0  0  0
  146.2814  140.8378  153.6055 H   0  0  0  0  0  0  0  0  0  0  0  0
  147.1175  139.7642  152.4800 H   0  0  0  0  0  0  0  0  0  0  0  0
  148.9591  142.3887  154.3126 H   0  0  0  0  0  0  0  0  0  0  0  0
  147.7101  141.9991  155.4689 H   0  0  0  0  0  0  0  0  0  0  0  0
  150.6335  141.1432  155.5921 H   0  0  0  0  0  0  0  0  0  0  0  0
  149.7391  143.4466  156.2300 H   0  0  0  0  0  0  0  0  0  0  0  0
  151.5703  141.8300  157.7911 H   0  0  0  0  0  0  0  0  0  0  0  0
  151.9044  143.2260  156.7769 H   0  0  0  0  0  0  0  0  0  0  0  0
  151.3735  144.7466  158.4646 H   0  0  0  0  0  0  0  0  0  0  0  0
  150.0839  143.7547  159.1002 H   0  0  0  0  0  0  0  0  0  0  0  0
  151.3430  144.7355  161.3018 H   0  0  0  0  0  0  0  0  0  0  0  0
  152.8783  143.8931  163.0942 H   0  0  0  0  0  0  0  0  0  0  0  0
  154.3846  141.9505  162.5813 H   0  0  0  0  0  0  0  0  0  0  0  0
  154.2872  140.9303  160.2920 H   0  0  0  0  0  0  0  0  0  0  0  0
  149.1681  142.6997  157.5722 H   0  0  0  0  0  0  0  0  0  0  0  0
  1  2  1  0  0  0  0
  1 19  1  0  0  0  0
  1 20  1  0  0  0  0
  1 21  1  0  0  0  0
  2  9  1  0  0  0  0
  2  3  1  0  0  0  0
  2 22  1  0  0  0  0
  3  4  1  0  0  0  0
  3 23  1  0  0  0  0
  3 24  1  0  0  0  0
  4  5  1  0  0  0  0
  4  6  1  0  0  0  0
  5 25  1  0  0  0  0
  5 26  1  0  0  0  0
  5 27  1  0  0  0  0
  6  7  1  0  0  0  0
  6  8  1  0  0  0  0
  6 28  1  0  0  0  0
  7 29  1  0  0  0  0
  7 30  1  0  0  0  0
  7 31  1  0  0  0  0
  8  9  1  0  0  0  0
  8 32  1  0  0  0  0
  8 33  1  0  0  0  0
  9 10  1  0  0  0  0
  9 34  1  0  0  0  0
 10 11  1  0  0  0  0
 10 35  1  0  0  0  0
 10 44  1  0  0  0  0
 11 12  1  0  0  0  0
 11 36  1  0  0  0  0
 11 37  1  0  0  0  0
 12 13  1  0  0  0  0
 12 38  1  0  0  0  0
 12 39  1  0  0  0  0
 13 18  1  0  0  0  0
 13 14  2  0  0  0  0
 14 15  1  0  0  0  0
 14 40  1  0  0  0  0
 15 16  2  0  0  0  0
 15 41  1  0  0  0  0
 16 17  1  0  0  0  0
 16 42  1  0  0  0  0
 17 18  2  0  0  0  0
 17 43  1  0  0  0  0
M  CHG  1  10   1
M  END
> <s_m_source_file>
AV-unprocessed.smi

> <i_m_source_file_index>
3303

> <i_lp_mmshare_version>
43012

> <i_f3d_flags>
0

> <s_epik_input>
W0NIM11bQ0BASF0xW0NIMl1OKFtDSDNdKVtDQEBIXShbQ0gzXSlbQ0gyXVtDQEhdMVtOSF1bQ0gyXVtDSDJdYzJbY0hdW2NIXVtjSF1bY0hdbjI=

> <s_epik_cmdline>
J2VwaWtfcHl0aG9uJywgJy1waCcsICc3LjAnLCAnLXRuJywgJzgnLCAnLW1hJywgJzIwMCcsICctbWV0YWxfYmluZGluZycsICctaW1hZScsICc8aW5maWxlLm1hZT4nLCAnLW9tYWUnLCAnPG91dGZpbGUubWFlPic=

> <r_epik_Ionization_Penalty>
1.37325

> <r_epik_Ionization_Penalty_Charging>
0.000251572

> <r_epik_Ionization_Penalty_Neutral>
1.373

> <r_epik_State_Penalty>
1.46343

> <r_epik_Charging_Adjusted_Penalty>
1.46368

> <i_epik_Tot_Q>
1

> <i_epik_Tot_abs_Q>
1

> <r_epik_Metal_State_Penalty>
1.46331

> <b_epik_Metal_Only>
0

> <s_lp_Force_Field>
OPLS_2005

> <r_lp_Energy>
21.6133

> <b_lp_Chiralities_Consistent>
1

> <s_lp_Variant>
AV-unprocessed.smi:3303-17

> <Gold.Version>
5.8.1

> <Gold.Id.Protein>
6NUR|6NUR_protein|mol2

> <Gold.PLP.Fitness>
41.4852

> <Gold.PLP.PLP>
-36.8376

> <Gold.PLP.part.hbond>
-1.0000

> <Gold.PLP.part.metal>
0.0000

> <Gold.PLP.part.buried>
-4.2451

> <Gold.PLP.part.nonpolar>
-31.5896

> <Gold.PLP.part.repulsive>
0.0638

> <Gold.PLP.ligand.clash>
0.0000

> <Gold.PLP.ligand.torsion>
0.6884

> <Gold.PLP.Chemscore.Hbond>
2.0000

> <Gold.PLP.Chemscore.CHOScore>
0.0000

> <Gold.PLP.Chemscore.Metal>
0.0000

> <Gold.Chemscore.Hbonds>
donor molecule, donor type, donor heavy atom, donor atom, acceptor molecule, acceptor atom, score
      L1  H    10    35       P1  8028  2.00

> <Gold.PLP.Chemscore.Internal.Correction>
0.0244

> <Gold.Rescore>
     Score         DG    S(hbond)    S(metal)    S(lipo)     H(rot)  DE(clash)    DE(int)     intcor
     17.77     -18.48       0.98        0.00     112.16       1.33       0.04       0.67       ----

> <Gold.Chemscore.Fitness>
17.7656

> <Gold.Chemscore.DG>
-18.4798

> <Gold.Chemscore.ZeroCoef>
-5.4800

> <Gold.Chemscore.Hbond>
0.9826

> <Gold.Chemscore.Metal>
0.0000

> <Gold.Chemscore.Lipo>
112.1565

> <Gold.Chemscore.Internal_Hbond>
0.0000

> <Gold.Chemscore.DEClash>
0.0441

> <Gold.Chemscore.DEInternal>
0.6701

> <Gold.Chemscore.Rot>
1.3298

> <Gold.Chemscore.Internal.Correction>
   9.000000E+99

> <Gold.Chemscore.Hbonds>
donor molecule, donor type, donor heavy atom, donor atom, acceptor molecule, acceptor atom, score
      L1  H    10    35       P1  8028  0.96

> <Gold.Chemscore.Hbond.Weighted>
-3.2818

> <Gold.Chemscore.Metal.Weighted>
-0.0000

> <Gold.Chemscore.Lipo.Weighted>
-13.1223

> <Gold.Chemscore.Internal_Hbond.Weighted>
0.0000

> <Gold.Chemscore.DEClash.Weighted>
0.0441

> <Gold.Chemscore.DEInternal.Weighted>
0.6701

> <Gold.Chemscore.Rot.Weighted>
3.4043

> <Gold.Chemscore.Internal.Correction.Weighted>
   9.000000E+99

> <Gold.Protein.RotatedTorsions>
[ 6907 6896 6895 6894 ] final   56.68 input  -60.11 | X-H torsion
[ 7974 7965 7964 7962 ] final   92.28 input  175.53 | X-H torsion
[ 8008 7997 7996 7995 ] final  -95.43 input   59.86 | X-H torsion
[ 10167 10162 10161 10158 ] final   10.03 input  -65.29 | X-H torsion
[ 10718 10713 10712 10709 ] final  -86.69 input   66.30 | X-H torsion
[ 10763 10752 10751 10750 ] final   44.39 input  -60.55 | X-H torsion
[ 11005 11000 10999 10996 ] final  124.54 input  -57.11 | X-H torsion

> <Gold.Protein.ActiveResidues>
 VAL166  LYS551  ARG553  GLY616  TRP617  ASP618  TYR619  PRO620  LYS621  CYS622 
 ASP623  PHE694  ASN695  SER759  ASP760  ASP761  ALA762  ILE779  LEU786  VAL792 
 PHE793  MET794  SER795  GLU796  ALA797  LYS798  CYS799  TRP800  GLU811  SER814 

> <Gold.Protein.RotatedAtoms>
  152.3659  134.6805  160.0191 H   0  0  0  0  0  0  0  0  0  0  0  0  # atno 6907 bound_to 6896
  151.7114  133.3307  159.3299 H   0  0  0  0  0  0  0  0  0  0  0  0  # atno 6908 bound_to 6896
  150.7638  134.6464  159.6309 H   0  0  0  0  0  0  0  0  0  0  0  0  # atno 6909 bound_to 6896
  145.4944  139.2276  143.2812 H   0  0  0  0  0  0  0  0  0  0  0  0  # atno 7974 bound_to 7965
  154.7612  140.0480  157.0975 H   0  0  0  0  0  0  0  0  0  0  0  0  # atno 8008 bound_to 7997
  154.9935  140.3116  155.4877 H   0  0  0  0  0  0  0  0  0  0  0  0  # atno 8009 bound_to 7997
  156.2904  140.2214  156.5041 H   0  0  0  0  0  0  0  0  0  0  0  0  # atno 8010 bound_to 7997
  140.6219  143.8186  150.7185 H   0  0  0  0  0  0  0  0  0  0  0  0  # atno 10167 bound_to 10162
  155.9988  130.4774  150.4754 H   0  0  0  0  0  0  0  0  0  0  0  0  # atno 10718 bound_to 10713
  152.9842  135.6072  154.3267 H   0  0  0  0  0  0  0  0  0  0  0  0  # atno 10763 bound_to 10752
  154.2973  135.2773  155.2629 H   0  0  0  0  0  0  0  0  0  0  0  0  # atno 10764 bound_to 10752
  154.4898  135.5895  153.6507 H   0  0  0  0  0  0  0  0  0  0  0  0  # atno 10765 bound_to 10752
  139.9363  134.9639  156.8425 H   0  0  0  0  0  0  0  0  0  0  0  0  # atno 11005 bound_to 11000
  146.2264  140.5740  142.8994 LP  0  0  0  0  0  0  0  0  0  0  0  0  # atno 17320 bound_to 7965
  144.7815  140.5850  143.6602 LP  0  0  0  0  0  0  0  0  0  0  0  0  # atno 17321 bound_to 7965
  140.1778  143.4140  152.1955 LP  0  0  0  0  0  0  0  0  0  0  0  0  # atno 17342 bound_to 10162
  139.5446  144.7287  151.4624 LP  0  0  0  0  0  0  0  0  0  0  0  0  # atno 17343 bound_to 10162
  157.2764  131.0598  151.2226 LP  0  0  0  0  0  0  0  0  0  0  0  0  # atno 17370 bound_to 10713
  157.3288  130.6974  149.6312 LP  0  0  0  0  0  0  0  0  0  0  0  0  # atno 17371 bound_to 10713
  140.6066  134.0122  155.7559 LP  0  0  0  0  0  0  0  0  0  0  0  0  # atno 17394 bound_to 11000
  141.0979  133.9815  157.3129 LP  0  0  0  0  0  0  0  0  0  0  0  0  # atno 17395 bound_to 11000

$$$$
