AV-unprocessed.smi:2627|AV-procd|sdf|10240|dock10
  -GOLD-   2272014253D 1   1.00000     0.00000
 Structure written by MMmdl.
 39 41  0  0  0  0  0  0  0  0  1 V2000
  150.6867  136.0233  155.6535 C   0  0  0  0  0  0  0  0  0  0  0  0
  151.3600  137.2763  155.0754 C   0  0  1  0  0  0  0  0  0  0  0  0
  152.0986  136.9027  153.9313 O   0  0  0  0  0  0  0  0  0  0  0  0
  150.3639  138.3610  154.7670 C   0  0  0  0  0  0  0  0  0  0  0  0
  149.2246  138.0875  154.1259 N   0  0  0  0  0  0  0  0  0  0  0  0
  148.6079  139.3194  154.0513 C   0  0  0  0  0  0  0  0  0  0  0  0
  147.3622  139.6905  153.4964 C   0  0  0  0  0  0  0  0  0  0  0  0
  146.9335  141.0331  153.5391 C   0  0  0  0  0  0  0  0  0  0  0  0
  147.7430  142.0216  154.1354 C   0  0  0  0  0  0  0  0  0  0  0  0
  148.9885  141.6727  154.6920 C   0  0  0  0  0  0  0  0  0  0  0  0
  149.4119  140.3305  154.6472 C   0  0  0  0  0  0  0  0  0  0  0  0
  150.5553  139.6695  155.0874 N   0  0  0  0  0  0  0  0  0  0  0  0
  151.6902  140.3058  155.7440 C   0  0  0  0  0  0  0  0  0  0  0  0
  151.3195  140.9089  157.1062 C   0  0  0  0  0  0  0  0  0  0  0  0
  151.1950  142.3203  156.9956 O   0  0  0  0  0  0  0  0  0  0  0  0
  151.5100  143.0906  158.0948 C   0  0  0  0  0  0  0  0  0  0  0  0
  151.8170  142.4079  159.2904 C   0  0  0  0  0  0  0  0  0  0  0  0
  152.1486  143.1161  160.4615 C   0  0  0  0  0  0  0  0  0  0  0  0
  152.1781  144.5226  160.4482 C   0  0  0  0  0  0  0  0  0  0  0  0
  151.8757  145.2174  159.2624 C   0  0  0  0  0  0  0  0  0  0  0  0
  151.5423  144.5087  158.0914 C   0  0  0  0  0  0  0  0  0  0  0  0
  150.1120  136.2658  156.5469 H   0  0  0  0  0  0  0  0  0  0  0  0
  151.4261  135.2709  155.9289 H   0  0  0  0  0  0  0  0  0  0  0  0
  150.0018  135.5697  154.9364 H   0  0  0  0  0  0  0  0  0  0  0  0
  152.0825  137.6257  155.8090 H   0  0  0  0  0  0  0  0  0  0  0  0
  151.4879  136.6500  153.2554 H   0  0  0  0  0  0  0  0  0  0  0  0
  146.7350  138.9402  153.0378 H   0  0  0  0  0  0  0  0  0  0  0  0
  145.9793  141.3058  153.1128 H   0  0  0  0  0  0  0  0  0  0  0  0
  147.4073  143.0478  154.1648 H   0  0  0  0  0  0  0  0  0  0  0  0
  149.6095  142.4284  155.1493 H   0  0  0  0  0  0  0  0  0  0  0  0
  152.5146  139.6000  155.8355 H   0  0  0  0  0  0  0  0  0  0  0  0
  152.0595  141.0970  155.0910 H   0  0  0  0  0  0  0  0  0  0  0  0
  150.3749  140.4783  157.4417 H   0  0  0  0  0  0  0  0  0  0  0  0
  152.0856  140.6514  157.8393 H   0  0  0  0  0  0  0  0  0  0  0  0
  151.8023  141.3282  159.3107 H   0  0  0  0  0  0  0  0  0  0  0  0
  152.3818  142.5795  161.3695 H   0  0  0  0  0  0  0  0  0  0  0  0
  152.4331  145.0675  161.3452 H   0  0  0  0  0  0  0  0  0  0  0  0
  151.8987  146.2971  159.2506 H   0  0  0  0  0  0  0  0  0  0  0  0
  151.3142  145.0776  157.2029 H   0  0  0  0  0  0  0  0  0  0  0  0
  1  2  1  0  0  0  0
  1 22  1  0  0  0  0
  1 23  1  0  0  0  0
  1 24  1  0  0  0  0
  2  3  1  0  0  0  0
  2  4  1  0  0  0  0
  2 25  1  0  0  0  0
  3 26  1  0  0  0  0
  4 12  1  0  0  0  0
  4  5  2  0  0  0  0
  5  6  1  0  0  0  0
  6 11  2  0  0  0  0
  6  7  1  0  0  0  0
  7  8  2  0  0  0  0
  7 27  1  0  0  0  0
  8  9  1  0  0  0  0
  8 28  1  0  0  0  0
  9 10  2  0  0  0  0
  9 29  1  0  0  0  0
 10 11  1  0  0  0  0
 10 30  1  0  0  0  0
 11 12  1  0  0  0  0
 12 13  1  0  0  0  0
 13 14  1  0  0  0  0
 13 31  1  0  0  0  0
 13 32  1  0  0  0  0
 14 15  1  0  0  0  0
 14 33  1  0  0  0  0
 14 34  1  0  0  0  0
 15 16  1  0  0  0  0
 16 21  1  0  0  0  0
 16 17  2  0  0  0  0
 17 18  1  0  0  0  0
 17 35  1  0  0  0  0
 18 19  2  0  0  0  0
 18 36  1  0  0  0  0
 19 20  1  0  0  0  0
 19 37  1  0  0  0  0
 20 21  2  0  0  0  0
 20 38  1  0  0  0  0
 21 39  1  0  0  0  0
M  END
> <s_m_source_file>
AV-unprocessed.smi

> <i_m_source_file_index>
2627

> <i_lp_mmshare_version>
43012

> <i_f3d_flags>
0

> <s_epik_input>
W2NIXTFbY0hdW2NIXVtjSF1jKGMxMiluKGMobjIpW0NASF0oW0NIM10pW09IXSlbQ0gyXVtDSDJdT2MzW2NIXVtjSF1bY0hdW2NIXVtjSF0z

> <s_epik_cmdline>
J2VwaWtfcHl0aG9uJywgJy1waCcsICc3LjAnLCAnLXRuJywgJzgnLCAnLW1hJywgJzIwMCcsICctbWV0YWxfYmluZGluZycsICctaW1hZScsICc8aW5maWxlLm1hZT4nLCAnLW9tYWUnLCAnPG91dGZpbGUubWFlPic=

> <r_lp_tautomer_probability>
1

> <r_epik_Ionization_Penalty>
0.0472514

> <r_epik_Ionization_Penalty_Charging>
0

> <r_epik_Ionization_Penalty_Neutral>
0.0472514

> <r_epik_State_Penalty>
0.040225

> <r_epik_Charging_Adjusted_Penalty>
0.040225

> <i_epik_Tot_Q>
0

> <i_epik_Tot_abs_Q>
0

> <r_epik_Metal_State_Penalty>
4.16204e-05

> <b_epik_Metal_Only>
0

> <s_lp_Force_Field>
OPLS_2005

> <r_lp_Energy>
14.021

> <b_lp_Chiralities_Consistent>
1

> <s_lp_Variant>
AV-unprocessed.smi:2627-2

> <Gold.Version>
5.8.1

> <Gold.Id.Protein>
6NUR|6NUR_protein|mol2

> <Gold.PLP.Fitness>
52.1168

> <Gold.PLP.PLP>
-50.0279

> <Gold.PLP.part.hbond>
-1.7784

> <Gold.PLP.part.metal>
0.0000

> <Gold.PLP.part.buried>
-2.9667

> <Gold.PLP.part.nonpolar>
-46.4198

> <Gold.PLP.part.repulsive>
1.5546

> <Gold.PLP.ligand.clash>
1.9642

> <Gold.PLP.ligand.torsion>
0.9679

> <Gold.PLP.Chemscore.Hbond>
1.9760

> <Gold.PLP.Chemscore.CHOScore>
0.0000

> <Gold.PLP.Chemscore.Metal>
0.0000

> <Gold.Chemscore.Hbonds>
donor molecule, donor type, donor heavy atom, donor atom, acceptor molecule, acceptor atom, score
      L1  H     3    26       P1  7949  0.98
      P1  H 10752 10763       L1     3  1.00

> <Gold.PLP.Chemscore.Internal.Correction>
0.0610

> <Gold.Rescore>
     Score         DG    S(hbond)    S(metal)    S(lipo)     H(rot)  DE(clash)    DE(int)     intcor
     19.65     -21.64       1.54        0.00     139.19       2.06       1.00       0.99       ----

> <Gold.Chemscore.Fitness>
19.6544

> <Gold.Chemscore.DG>
-21.6430

> <Gold.Chemscore.ZeroCoef>
-5.4800

> <Gold.Chemscore.Hbond>
1.5407

> <Gold.Chemscore.Metal>
0.0000

> <Gold.Chemscore.Lipo>
139.1882

> <Gold.Chemscore.Internal_Hbond>
0.0000

> <Gold.Chemscore.DEClash>
1.0005

> <Gold.Chemscore.DEInternal>
0.9881

> <Gold.Chemscore.Rot>
2.0577

> <Gold.Chemscore.Internal.Correction>
   9.000000E+99

> <Gold.Chemscore.Hbonds>
donor molecule, donor type, donor heavy atom, donor atom, acceptor molecule, acceptor atom, score
      L1  H     3    26       P1  7949  0.82
      P1  H 10752 10763       L1     3  0.37

> <Gold.Chemscore.Hbond.Weighted>
-5.1458

> <Gold.Chemscore.Metal.Weighted>
-0.0000

> <Gold.Chemscore.Lipo.Weighted>
-16.2850

> <Gold.Chemscore.Internal_Hbond.Weighted>
0.0000

> <Gold.Chemscore.DEClash.Weighted>
1.0005

> <Gold.Chemscore.DEInternal.Weighted>
0.9881

> <Gold.Chemscore.Rot.Weighted>
5.2678

> <Gold.Chemscore.Internal.Correction.Weighted>
   9.000000E+99

> <Gold.Protein.RotatedTorsions>
[ 6907 6896 6895 6894 ] final    6.73 input  -60.11 | X-H torsion
[ 7974 7965 7964 7962 ] final   -8.74 input  175.53 | X-H torsion
[ 8008 7997 7996 7995 ] final -114.54 input   59.86 | X-H torsion
[ 10167 10162 10161 10158 ] final -146.89 input  -65.29 | X-H torsion
[ 10718 10713 10712 10709 ] final  -69.99 input   66.30 | X-H torsion
[ 10763 10752 10751 10750 ] final   41.49 input  -60.55 | X-H torsion
[ 11005 11000 10999 10996 ] final   74.91 input  -57.11 | X-H torsion

> <Gold.Protein.ActiveResidues>
 VAL166  LYS551  ARG553  GLY616  TRP617  ASP618  TYR619  PRO620  LYS621  CYS622 
 ASP623  PHE694  ASN695  SER759  ASP760  ASP761  ALA762  ILE779  LEU786  VAL792 
 PHE793  MET794  SER795  GLU796  ALA797  LYS798  CYS799  TRP800  GLU811  SER814 

> <Gold.Protein.RotatedAtoms>
  151.6785  135.0965  160.0211 H   0  0  0  0  0  0  0  0  0  0  0  0  # atno 6907 bound_to 6896
  152.3849  133.6593  159.6199 H   0  0  0  0  0  0  0  0  0  0  0  0  # atno 6908 bound_to 6896
  150.7777  133.8968  159.3370 H   0  0  0  0  0  0  0  0  0  0  0  0  # atno 6909 bound_to 6896
  146.2272  140.2513  142.8347 H   0  0  0  0  0  0  0  0  0  0  0  0  # atno 7974 bound_to 7965
  155.0380  140.0392  157.2499 H   0  0  0  0  0  0  0  0  0  0  0  0  # atno 8008 bound_to 7997
  154.7240  140.2717  155.6491 H   0  0  0  0  0  0  0  0  0  0  0  0  # atno 8009 bound_to 7997
  156.2824  140.2697  156.1921 H   0  0  0  0  0  0  0  0  0  0  0  0  # atno 8010 bound_to 7997
  139.7672  143.8291  152.2618 H   0  0  0  0  0  0  0  0  0  0  0  0  # atno 10167 bound_to 10162
  156.0429  130.4323  150.2229 H   0  0  0  0  0  0  0  0  0  0  0  0  # atno 10718 bound_to 10713
  152.9907  135.6160  154.2797 H   0  0  0  0  0  0  0  0  0  0  0  0  # atno 10763 bound_to 10752
  154.2526  135.2785  155.2812 H   0  0  0  0  0  0  0  0  0  0  0  0  # atno 10764 bound_to 10752
  154.5275  135.5797  153.6788 H   0  0  0  0  0  0  0  0  0  0  0  0  # atno 10765 bound_to 10752
  139.9369  134.7473  156.1205 H   0  0  0  0  0  0  0  0  0  0  0  0  # atno 11005 bound_to 11000
  144.9410  140.8078  143.5631 LP  0  0  0  0  0  0  0  0  0  0  0  0  # atno 17320 bound_to 7965
  145.2464  139.2050  143.4965 LP  0  0  0  0  0  0  0  0  0  0  0  0  # atno 17321 bound_to 7965
  139.8314  144.7252  150.9445 LP  0  0  0  0  0  0  0  0  0  0  0  0  # atno 17342 bound_to 10162
  140.7811  143.4066  151.1061 LP  0  0  0  0  0  0  0  0  0  0  0  0  # atno 17343 bound_to 10162
  157.0322  131.0011  151.3309 LP  0  0  0  0  0  0  0  0  0  0  0  0  # atno 17370 bound_to 10713
  157.5269  130.8033  149.7872 LP  0  0  0  0  0  0  0  0  0  0  0  0  # atno 17371 bound_to 10713
  141.0986  133.6686  156.2702 LP  0  0  0  0  0  0  0  0  0  0  0  0  # atno 17394 bound_to 11000
  140.6053  134.5513  157.5524 LP  0  0  0  0  0  0  0  0  0  0  0  0  # atno 17395 bound_to 11000

$$$$
