AV-unprocessed.smi:282|AV-procd|sdf|2120|dock7
  -GOLD-   2262021423D 1   1.00000     0.00000
 Structure written by MMmdl.
 65 69  0  0  0  0  0  0  0  0  2 V2000
  144.6214  134.7759  150.2568 C   0  0  0  0  0  0  0  0  0  0  0  0
  145.9438  134.5869  151.0129 C   0  0  0  0  0  0  0  0  0  0  0  0
  146.0918  133.2101  151.7147 C   0  0  1  0  0  0  0  0  0  0  0  0
  146.3407  132.0841  150.6768 C   0  0  0  0  0  0  0  0  0  0  0  0
  146.5985  130.7647  151.3056 N   0  3  2  0  0  0  0  0  0  0  0  0
  145.3670  130.1140  151.8292 C   0  0  0  0  0  0  0  0  0  0  0  0
  145.6667  128.7084  152.3720 C   0  0  0  0  0  0  0  0  0  0  0  0
  146.7520  128.7619  153.4535 C   0  0  0  0  0  0  0  0  0  0  0  0
  148.0105  129.4429  152.8978 C   0  0  0  0  0  0  0  0  0  0  0  0
  147.7088  130.8307  152.2954 C   0  0  2  0  0  0  0  0  0  0  0  0
  147.4353  131.9141  153.3544 C   0  0  0  0  0  0  0  0  0  0  0  0
  147.1614  133.2041  152.7252 N   0  0  0  0  0  0  0  0  0  0  0  0
  147.0953  134.1977  153.6402 C   0  0  0  0  0  0  0  0  0  0  0  0
  145.9603  134.9346  153.7640 N   0  0  0  0  0  0  0  0  0  0  0  0
  145.9090  135.9292  154.6556 C   0  0  0  0  0  0  0  0  0  0  0  0
  146.8602  136.3496  155.4929 N   0  0  0  0  0  0  0  0  0  0  0  0
  148.0023  135.6154  155.3611 C   0  0  0  0  0  0  0  0  0  0  0  0
  148.1979  134.5239  154.4708 C   0  0  0  0  0  0  0  0  0  0  0  0
  149.4788  134.0091  154.6150 N   0  0  0  0  0  0  0  0  0  0  0  0
  150.0139  134.7576  155.5408 C   0  0  0  0  0  0  0  0  0  0  0  0
  149.2060  135.7611  156.0301 N   0  0  0  0  0  0  0  0  0  0  0  0
  149.5545  136.7373  157.0536 C   0  0  0  0  0  0  0  0  0  0  0  0
  150.7103  137.7087  156.6676 C   0  0  0  0  0  0  0  0  0  0  0  0
  152.0174  137.3332  157.4234 C   0  0  0  0  0  0  0  0  0  0  0  0
  152.3496  135.9678  157.2728 O   0  0  0  0  0  0  0  0  0  0  0  0
  150.9075  137.6473  155.1316 C   0  0  0  0  0  0  0  0  0  0  0  0
  151.8279  138.7600  154.6001 C   0  0  0  0  0  0  0  0  0  0  0  0
  151.3059  140.0302  154.9668 O   0  0  0  0  0  0  0  0  0  0  0  0
  151.2476  140.2154  156.3746 C   0  0  0  0  0  0  0  0  0  0  0  0
  150.3153  139.1680  157.0126 C   0  0  0  0  0  0  0  0  0  0  0  0
  144.5334  135.7988  149.8903 H   0  0  0  0  0  0  0  0  0  0  0  0
  143.7659  134.5824  150.9044 H   0  0  0  0  0  0  0  0  0  0  0  0
  144.5495  134.1181  149.3911 H   0  0  0  0  0  0  0  0  0  0  0  0
  146.7787  134.7453  150.3293 H   0  0  0  0  0  0  0  0  0  0  0  0
  145.9992  135.3912  151.7469 H   0  0  0  0  0  0  0  0  0  0  0  0
  145.1559  132.9992  152.2337 H   0  0  0  0  0  0  0  0  0  0  0  0
  145.5019  131.9874  149.9876 H   0  0  0  0  0  0  0  0  0  0  0  0
  147.2092  132.3391  150.0677 H   0  0  0  0  0  0  0  0  0  0  0  0
  144.9182  130.7241  152.6134 H   0  0  0  0  0  0  0  0  0  0  0  0
  144.6285  130.0417  151.0300 H   0  0  0  0  0  0  0  0  0  0  0  0
  144.7577  128.2643  152.7786 H   0  0  0  0  0  0  0  0  0  0  0  0
  145.9904  128.0598  151.5568 H   0  0  0  0  0  0  0  0  0  0  0  0
  146.3834  129.3052  154.3242 H   0  0  0  0  0  0  0  0  0  0  0  0
  146.9912  127.7546  153.7958 H   0  0  0  0  0  0  0  0  0  0  0  0
  148.7681  129.5265  153.6777 H   0  0  0  0  0  0  0  0  0  0  0  0
  148.4426  128.8064  152.1242 H   0  0  0  0  0  0  0  0  0  0  0  0
  148.6007  131.1394  151.7474 H   0  0  0  0  0  0  0  0  0  0  0  0
  146.5916  131.6277  153.9833 H   0  0  0  0  0  0  0  0  0  0  0  0
  148.3003  132.0074  154.0131 H   0  0  0  0  0  0  0  0  0  0  0  0
  144.9745  136.4686  154.7031 H   0  0  0  0  0  0  0  0  0  0  0  0
  151.0257  134.6032  155.8871 H   0  0  0  0  0  0  0  0  0  0  0  0
  148.6548  137.2975  157.3111 H   0  0  0  0  0  0  0  0  0  0  0  0
  149.8189  136.1824  157.9549 H   0  0  0  0  0  0  0  0  0  0  0  0
  152.8685  137.9139  157.0723 H   0  0  0  0  0  0  0  0  0  0  0  0
  151.9268  137.5522  158.4873 H   0  0  0  0  0  0  0  0  0  0  0  0
  151.7077  135.4495  157.7339 H   0  0  0  0  0  0  0  0  0  0  0  0
  151.2897  136.6727  154.8273 H   0  0  0  0  0  0  0  0  0  0  0  0
  149.9401  137.7513  154.6382 H   0  0  0  0  0  0  0  0  0  0  0  0
  152.8488  138.6475  154.9664 H   0  0  0  0  0  0  0  0  0  0  0  0
  151.8802  138.7078  153.5126 H   0  0  0  0  0  0  0  0  0  0  0  0
  152.2501  140.1750  156.8010 H   0  0  0  0  0  0  0  0  0  0  0  0
  150.8683  141.2172  156.5758 H   0  0  0  0  0  0  0  0  0  0  0  0
  149.3007  139.3608  156.6612 H   0  0  0  0  0  0  0  0  0  0  0  0
  150.2968  139.3176  158.0926 H   0  0  0  0  0  0  0  0  0  0  0  0
  146.9218  130.1611  150.5632 H   0  0  0  0  0  0  0  0  0  0  0  0
  1  2  1  0  0  0  0
  1 31  1  0  0  0  0
  1 32  1  0  0  0  0
  1 33  1  0  0  0  0
  2  3  1  0  0  0  0
  2 34  1  0  0  0  0
  2 35  1  0  0  0  0
  3 12  1  0  0  0  0
  3  4  1  0  0  0  0
  3 36  1  0  0  0  0
  4  5  1  0  0  0  0
  4 37  1  0  0  0  0
  4 38  1  0  0  0  0
  5 10  1  0  0  0  0
  5  6  1  0  0  0  0
  5 65  1  0  0  0  0
  6  7  1  0  0  0  0
  6 39  1  0  0  0  0
  6 40  1  0  0  0  0
  7  8  1  0  0  0  0
  7 41  1  0  0  0  0
  7 42  1  0  0  0  0
  8  9  1  0  0  0  0
  8 43  1  0  0  0  0
  8 44  1  0  0  0  0
  9 10  1  0  0  0  0
  9 45  1  0  0  0  0
  9 46  1  0  0  0  0
 10 11  1  0  0  0  0
 10 47  1  0  0  0  0
 11 12  1  0  0  0  0
 11 48  1  0  0  0  0
 11 49  1  0  0  0  0
 12 13  1  0  0  0  0
 13 18  1  0  0  0  0
 13 14  2  0  0  0  0
 14 15  1  0  0  0  0
 15 16  2  0  0  0  0
 15 50  1  0  0  0  0
 16 17  1  0  0  0  0
 17 21  1  0  0  0  0
 17 18  2  0  0  0  0
 18 19  1  0  0  0  0
 19 20  2  0  0  0  0
 20 21  1  0  0  0  0
 20 51  1  0  0  0  0
 21 22  1  0  0  0  0
 22 23  1  0  0  0  0
 22 52  1  0  0  0  0
 22 53  1  0  0  0  0
 23 30  1  0  0  0  0
 23 24  1  0  0  0  0
 23 26  1  0  0  0  0
 24 25  1  0  0  0  0
 24 54  1  0  0  0  0
 24 55  1  0  0  0  0
 25 56  1  0  0  0  0
 26 27  1  0  0  0  0
 26 57  1  0  0  0  0
 26 58  1  0  0  0  0
 27 28  1  0  0  0  0
 27 59  1  0  0  0  0
 27 60  1  0  0  0  0
 28 29  1  0  0  0  0
 29 30  1  0  0  0  0
 29 61  1  0  0  0  0
 29 62  1  0  0  0  0
 30 63  1  0  0  0  0
 30 64  1  0  0  0  0
M  CHG  1   5   1
M  END
> <s_m_source_file>
AV-unprocessed.smi

> <i_m_source_file_index>
282

> <i_lp_mmshare_version>
43012

> <i_f3d_flags>
0

> <s_epik_input>
W0NIMl0xW0NIMl1bQ0gyXVtDSDJdW0NAQEhdKE4xMilbQ0gyXU4oW0NAQEhdKFtDSDJdMilbQ0gyXVtDSDNdKWMobltjSF1uMyljKGMzNCluW2NIXW40W0NIMl1DNShbQ0gyXVtPSF0pW0NIMl1bQ0gyXU9bQ0gyXVtDSDJdNQ==

> <s_epik_cmdline>
J2VwaWtfcHl0aG9uJywgJy1waCcsICc3LjAnLCAnLXRuJywgJzgnLCAnLW1hJywgJzIwMCcsICctbWV0YWxfYmluZGluZycsICctaW1hZScsICc8aW5maWxlLm1hZT4nLCAnLW9tYWUnLCAnPG91dGZpbGUubWFlPic=

> <r_lp_tautomer_probability>
1

> <r_epik_Ionization_Penalty>
0.00308583

> <r_epik_Ionization_Penalty_Charging>
0.00300384

> <r_epik_Ionization_Penalty_Neutral>
8.19894e-05

> <r_epik_State_Penalty>
-0

> <r_epik_Charging_Adjusted_Penalty>
0.00300384

> <i_epik_Tot_Q>
1

> <i_epik_Tot_abs_Q>
1

> <r_epik_Metal_State_Penalty>
-0

> <b_epik_Metal_Only>
0

> <s_lp_Force_Field>
OPLS_2005

> <r_lp_Energy>
59.0592

> <b_lp_Chiralities_Consistent>
1

> <s_lp_Variant>
AV-unprocessed.smi:282-4

> <Gold.Version>
5.8.1

> <Gold.Id.Protein>
6NUR|6NUR_protein|mol2

> <Gold.PLP.Fitness>
39.5039

> <Gold.PLP.PLP>
-35.8459

> <Gold.PLP.part.hbond>
-3.0000

> <Gold.PLP.part.metal>
0.0000

> <Gold.PLP.part.buried>
1.5945

> <Gold.PLP.part.nonpolar>
-34.0627

> <Gold.PLP.part.repulsive>
0.4638

> <Gold.PLP.ligand.clash>
0.0000

> <Gold.PLP.ligand.torsion>
1.3155

> <Gold.PLP.Chemscore.Hbond>
2.0000

> <Gold.PLP.Chemscore.CHOScore>
0.0000

> <Gold.PLP.Chemscore.Metal>
0.0000

> <Gold.Chemscore.Hbonds>
donor molecule, donor type, donor heavy atom, donor atom, acceptor molecule, acceptor atom, score
      L1  H     5    65       P1 10747  0.04
      P1  H  7989  7998       L1    28  0.90
      P1  H 10752 10765       L1    25  0.18

> <Gold.PLP.Chemscore.Internal.Correction>
0.2889

> <Gold.Rescore>
     Score         DG    S(hbond)    S(metal)    S(lipo)     H(rot)  DE(clash)    DE(int)     intcor
     13.52     -18.86       1.86        0.00     114.94       2.46       1.78       3.56       ----

> <Gold.Chemscore.Fitness>
13.5200

> <Gold.Chemscore.DG>
-18.8635

> <Gold.Chemscore.ZeroCoef>
-5.4800

> <Gold.Chemscore.Hbond>
1.8644

> <Gold.Chemscore.Metal>
0.0000

> <Gold.Chemscore.Lipo>
114.9384

> <Gold.Chemscore.Internal_Hbond>
0.0000

> <Gold.Chemscore.DEClash>
1.7817

> <Gold.Chemscore.DEInternal>
3.5619

> <Gold.Chemscore.Rot>
2.4576

> <Gold.Chemscore.Internal.Correction>
   9.000000E+99

> <Gold.Chemscore.Hbonds>
donor molecule, donor type, donor heavy atom, donor atom, acceptor molecule, acceptor atom, score
      L1  H     5    65       P1 10747  0.06
      P1  H  7989  7998       L1    28  0.18
      P1  H 10752 10765       L1    25  0.18

> <Gold.Chemscore.Hbond.Weighted>
-6.2272

> <Gold.Chemscore.Metal.Weighted>
-0.0000

> <Gold.Chemscore.Lipo.Weighted>
-13.4478

> <Gold.Chemscore.Internal_Hbond.Weighted>
0.0000

> <Gold.Chemscore.DEClash.Weighted>
1.7817

> <Gold.Chemscore.DEInternal.Weighted>
3.5619

> <Gold.Chemscore.Rot.Weighted>
6.2915

> <Gold.Chemscore.Internal.Correction.Weighted>
   9.000000E+99

> <Gold.Protein.RotatedTorsions>
[ 6907 6896 6895 6894 ] final   95.79 input  -60.11 | X-H torsion
[ 7974 7965 7964 7962 ] final   95.12 input  175.53 | X-H torsion
[ 8008 7997 7996 7995 ] final  175.42 input   59.86 | X-H torsion
[ 10167 10162 10161 10158 ] final   15.71 input  -65.29 | X-H torsion
[ 10718 10713 10712 10709 ] final  -73.27 input   66.30 | X-H torsion
[ 10763 10752 10751 10750 ] final -117.41 input  -60.55 | X-H torsion
[ 11005 11000 10999 10996 ] final  154.05 input  -57.11 | X-H torsion

> <Gold.Protein.ActiveResidues>
 VAL166  LYS551  ARG553  GLY616  TRP617  ASP618  TYR619  PRO620  LYS621  CYS622 
 ASP623  PHE694  ASN695  SER759  ASP760  ASP761  ALA762  ILE779  LEU786  VAL792 
 PHE793  MET794  SER795  GLU796  ALA797  LYS798  CYS799  TRP800  GLU811  SER814 

> <Gold.Protein.RotatedAtoms>
  152.5441  134.0986  159.8307 H   0  0  0  0  0  0  0  0  0  0  0  0  # atno 6907 bound_to 6896
  151.1066  133.5196  159.2615 H   0  0  0  0  0  0  0  0  0  0  0  0  # atno 6908 bound_to 6896
  151.1931  135.0420  159.8895 H   0  0  0  0  0  0  0  0  0  0  0  0  # atno 6909 bound_to 6896
  145.4564  139.2289  143.3011 H   0  0  0  0  0  0  0  0  0  0  0  0  # atno 7974 bound_to 7965
  156.0872  140.1409  156.9638 H   0  0  0  0  0  0  0  0  0  0  0  0  # atno 8008 bound_to 7997
  154.4620  140.0940  156.6966 H   0  0  0  0  0  0  0  0  0  0  0  0  # atno 8009 bound_to 7997
  155.4979  140.3450  155.4368 H   0  0  0  0  0  0  0  0  0  0  0  0  # atno 8010 bound_to 7997
  140.5848  143.8910  150.6821 H   0  0  0  0  0  0  0  0  0  0  0  0  # atno 10167 bound_to 10162
  156.0287  130.4390  150.2717 H   0  0  0  0  0  0  0  0  0  0  0  0  # atno 10718 bound_to 10713
  154.8553  135.4311  154.1975 H   0  0  0  0  0  0  0  0  0  0  0  0  # atno 10763 bound_to 10752
  153.3029  135.6970  153.7192 H   0  0  0  0  0  0  0  0  0  0  0  0  # atno 10764 bound_to 10752
  153.6315  135.3484  155.3017 H   0  0  0  0  0  0  0  0  0  0  0  0  # atno 10765 bound_to 10752
  140.1453  134.8711  157.2385 H   0  0  0  0  0  0  0  0  0  0  0  0  # atno 11005 bound_to 11000
  146.2475  140.5329  142.8907 LP  0  0  0  0  0  0  0  0  0  0  0  0  # atno 17320 bound_to 7965
  144.8029  140.6247  143.6466 LP  0  0  0  0  0  0  0  0  0  0  0  0  # atno 17321 bound_to 7965
  140.2418  143.3658  152.1480 LP  0  0  0  0  0  0  0  0  0  0  0  0  # atno 17342 bound_to 10162
  139.5191  144.7015  151.5479 LP  0  0  0  0  0  0  0  0  0  0  0  0  # atno 17343 bound_to 10162
  157.0820  131.0146  151.3153 LP  0  0  0  0  0  0  0  0  0  0  0  0  # atno 17370 bound_to 10713
  157.4920  130.7828  149.7517 LP  0  0  0  0  0  0  0  0  0  0  0  0  # atno 17371 bound_to 10713
  140.2671  134.3503  155.7386 LP  0  0  0  0  0  0  0  0  0  0  0  0  # atno 17394 bound_to 11000
  141.2192  133.7402  156.9167 LP  0  0  0  0  0  0  0  0  0  0  0  0  # atno 17395 bound_to 11000

$$$$
