AV-unprocessed.smi:2074|AV-procd|sdf|8455|dock8
  -GOLD-   2272011153D 1   1.00000     0.00000
 Structure written by MMmdl.
 44 45  0  0  0  0  0  0  0  0  2 V2000
  145.9344  133.9174  162.4277 C   0  0  0  0  0  0  0  0  0  0  0  0
  146.8869  134.8671  161.7596 C   0  0  0  0  0  0  0  0  0  0  0  0
  146.9403  136.1258  162.1609 N   0  0  0  0  0  0  0  0  0  0  0  0
  147.9070  136.7426  161.3611 O   0  0  0  0  0  0  0  0  0  0  0  0
  148.4065  135.8186  160.5016 C   0  0  0  0  0  0  0  0  0  0  0  0
  149.4618  136.2864  159.5571 C   0  0  0  0  0  0  0  0  0  0  0  0
  147.8042  134.6063  160.7009 C   0  0  0  0  0  0  0  0  0  0  0  0
  148.0482  133.3060  159.9788 C   0  0  0  0  0  0  0  0  0  0  0  0
  148.1885  133.5691  158.4797 C   0  0  0  0  0  0  0  0  0  0  0  0
  149.3066  133.6549  157.9728 O   0  0  0  0  0  0  0  0  0  0  0  0
  147.0472  133.6954  157.7837 N   0  0  0  0  0  0  0  0  0  0  0  0
  146.9519  133.8984  156.3398 C   0  0  0  0  0  0  0  0  0  0  0  0
  145.5427  133.5836  155.7622 C   0  0  1  0  0  0  0  0  0  0  0  0
  144.7870  134.8917  155.4224 C   0  0  0  0  0  0  0  0  0  0  0  0
  145.6000  132.6667  154.5733 N   0  3  0  0  0  0  0  0  0  0  0  0
  146.1044  133.3068  153.3249 C   0  0  0  0  0  0  0  0  0  0  0  0
  146.1380  132.3141  152.1503 C   0  0  0  0  0  0  0  0  0  0  0  0
  146.9287  131.1879  152.4934 O   0  0  0  0  0  0  0  0  0  0  0  0
  146.3766  130.4933  153.6000 C   0  0  0  0  0  0  0  0  0  0  0  0
  146.3629  131.4127  154.8324 C   0  0  0  0  0  0  0  0  0  0  0  0
  145.4358  133.2824  161.6955 H   0  0  0  0  0  0  0  0  0  0  0  0
  145.1598  134.4476  162.9836 H   0  0  0  0  0  0  0  0  0  0  0  0
  146.4602  133.2679  163.1274 H   0  0  0  0  0  0  0  0  0  0  0  0
  150.1496  135.4778  159.3093 H   0  0  0  0  0  0  0  0  0  0  0  0
  150.0436  137.0989  159.9927 H   0  0  0  0  0  0  0  0  0  0  0  0
  149.0164  136.6473  158.6300 H   0  0  0  0  0  0  0  0  0  0  0  0
  148.9460  132.8055  160.3434 H   0  0  0  0  0  0  0  0  0  0  0  0
  147.2282  132.6052  160.1398 H   0  0  0  0  0  0  0  0  0  0  0  0
  146.1774  133.6128  158.2901 H   0  0  0  0  0  0  0  0  0  0  0  0
  147.2569  134.9091  156.0631 H   0  0  0  0  0  0  0  0  0  0  0  0
  147.6995  133.2250  155.9229 H   0  0  0  0  0  0  0  0  0  0  0  0
  144.9816  133.0684  156.5436 H   0  0  0  0  0  0  0  0  0  0  0  0
  144.7542  135.5763  156.2688 H   0  0  0  0  0  0  0  0  0  0  0  0
  143.7441  134.7211  155.1623 H   0  0  0  0  0  0  0  0  0  0  0  0
  145.2616  135.4181  154.5938 H   0  0  0  0  0  0  0  0  0  0  0  0
  145.4615  134.1311  153.0208 H   0  0  0  0  0  0  0  0  0  0  0  0
  147.1014  133.7141  153.4997 H   0  0  0  0  0  0  0  0  0  0  0  0
  145.1295  131.9992  151.8764 H   0  0  0  0  0  0  0  0  0  0  0  0
  146.5700  132.7910  151.2703 H   0  0  0  0  0  0  0  0  0  0  0  0
  145.3713  130.1400  153.3638 H   0  0  0  0  0  0  0  0  0  0  0  0
  146.9839  129.6100  153.7988 H   0  0  0  0  0  0  0  0  0  0  0  0
  147.3853  131.6601  155.1221 H   0  0  0  0  0  0  0  0  0  0  0  0
  145.9256  130.8454  155.6512 H   0  0  0  0  0  0  0  0  0  0  0  0
  144.6476  132.3901  154.3806 H   0  0  0  0  0  0  0  0  0  0  0  0
  1  2  1  0  0  0  0
  1 21  1  0  0  0  0
  1 22  1  0  0  0  0
  1 23  1  0  0  0  0
  2  7  1  0  0  0  0
  2  3  2  0  0  0  0
  3  4  1  0  0  0  0
  4  5  1  0  0  0  0
  5  6  1  0  0  0  0
  5  7  2  0  0  0  0
  6 24  1  0  0  0  0
  6 25  1  0  0  0  0
  6 26  1  0  0  0  0
  7  8  1  0  0  0  0
  8  9  1  0  0  0  0
  8 27  1  0  0  0  0
  8 28  1  0  0  0  0
  9 10  2  0  0  0  0
  9 11  1  0  0  0  0
 11 12  1  0  0  0  0
 11 29  1  0  0  0  0
 12 13  1  0  0  0  0
 12 30  1  0  0  0  0
 12 31  1  0  0  0  0
 13 14  1  0  0  0  0
 13 15  1  0  0  0  0
 13 32  1  0  0  0  0
 14 33  1  0  0  0  0
 14 34  1  0  0  0  0
 14 35  1  0  0  0  0
 15 20  1  0  0  0  0
 15 16  1  0  0  0  0
 15 44  1  0  0  0  0
 16 17  1  0  0  0  0
 16 36  1  0  0  0  0
 16 37  1  0  0  0  0
 17 18  1  0  0  0  0
 17 38  1  0  0  0  0
 17 39  1  0  0  0  0
 18 19  1  0  0  0  0
 19 20  1  0  0  0  0
 19 40  1  0  0  0  0
 19 41  1  0  0  0  0
 20 42  1  0  0  0  0
 20 43  1  0  0  0  0
M  CHG  1  15   1
M  END
> <s_m_source_file>
AV-unprocessed.smi

> <i_m_source_file_index>
2074

> <i_lp_mmshare_version>
43012

> <i_f3d_flags>
0

> <s_epik_input>
W0NIM11jMW5vYyhbQ0gzXSljMVtDSDJdQyg9TylbTkhdW0NIMl1bQ0BIXShbQ0gzXSlOMltDSDJdW0NIMl1PW0NIMl1bQ0gyXTI=

> <s_epik_cmdline>
J2VwaWtfcHl0aG9uJywgJy1waCcsICc3LjAnLCAnLXRuJywgJzgnLCAnLW1hJywgJzIwMCcsICctbWV0YWxfYmluZGluZycsICctaW1hZScsICc8aW5maWxlLm1hZT4nLCAnLW9tYWUnLCAnPG91dGZpbGUubWFlPic=

> <r_epik_Ionization_Penalty>
0.663207

> <r_epik_Ionization_Penalty_Charging>
0.663207

> <r_epik_Ionization_Penalty_Neutral>
1.0751e-07

> <r_epik_State_Penalty>
0.682743

> <r_epik_Charging_Adjusted_Penalty>
1.34595

> <i_epik_Tot_Q>
1

> <i_epik_Tot_abs_Q>
1

> <r_epik_Metal_State_Penalty>
0.682743

> <b_epik_Metal_Only>
0

> <s_lp_Force_Field>
OPLS_2005

> <r_lp_Energy>
15.6967

> <b_lp_Chiralities_Consistent>
1

> <s_lp_Variant>
AV-unprocessed.smi:2074-4

> <Gold.Version>
5.8.1

> <Gold.Id.Protein>
6NUR|6NUR_protein|mol2

> <Gold.PLP.Fitness>
35.9704

> <Gold.PLP.PLP>
-24.0772

> <Gold.PLP.part.hbond>
-4.0000

> <Gold.PLP.part.metal>
0.0000

> <Gold.PLP.part.buried>
-4.7546

> <Gold.PLP.part.nonpolar>
-16.0880

> <Gold.PLP.part.repulsive>
0.2804

> <Gold.PLP.ligand.clash>
0.0000

> <Gold.PLP.ligand.torsion>
1.4187

> <Gold.PLP.Chemscore.Hbond>
4.8880

> <Gold.PLP.Chemscore.CHOScore>
0.0000

> <Gold.PLP.Chemscore.Metal>
0.0000

> <Gold.Chemscore.Hbonds>
donor molecule, donor type, donor heavy atom, donor atom, acceptor molecule, acceptor atom, score
      L1  H    15    44       P1 10957  1.66
      P1  H  6896  6909       L1    10  1.00
      P1  H  6931  6943       L1     4  1.00
      P1  H  6934  6947       L1     4  0.01

> <Gold.PLP.Chemscore.Internal.Correction>
0.0665

> <Gold.Rescore>
     Score         DG    S(hbond)    S(metal)    S(lipo)     H(rot)  DE(clash)    DE(int)     intcor
     15.62     -18.06       3.24        0.00      54.44       1.80       0.01       2.43       ----

> <Gold.Chemscore.Fitness>
15.6195

> <Gold.Chemscore.DG>
-18.0622

> <Gold.Chemscore.ZeroCoef>
-5.4800

> <Gold.Chemscore.Hbond>
3.2368

> <Gold.Chemscore.Metal>
0.0000

> <Gold.Chemscore.Lipo>
54.4400

> <Gold.Chemscore.Internal_Hbond>
0.0000

> <Gold.Chemscore.DEClash>
0.0089

> <Gold.Chemscore.DEInternal>
2.4338

> <Gold.Chemscore.Rot>
1.7961

> <Gold.Chemscore.Internal.Correction>
   9.000000E+99

> <Gold.Chemscore.Hbonds>
donor molecule, donor type, donor heavy atom, donor atom, acceptor molecule, acceptor atom, score
      L1  H    15    44       P1 10957  0.49
      P1  H  6896  6909       L1    10  0.81
      P1  H  6931  6943       L1     4  0.95
      P1  H  6934  6947       L1     4  0.04

> <Gold.Chemscore.Hbond.Weighted>
-10.8108

> <Gold.Chemscore.Metal.Weighted>
-0.0000

> <Gold.Chemscore.Lipo.Weighted>
-6.3695

> <Gold.Chemscore.Internal_Hbond.Weighted>
0.0000

> <Gold.Chemscore.DEClash.Weighted>
0.0089

> <Gold.Chemscore.DEInternal.Weighted>
2.4338

> <Gold.Chemscore.Rot.Weighted>
4.5980

> <Gold.Chemscore.Internal.Correction.Weighted>
   9.000000E+99

> <Gold.Protein.RotatedTorsions>
[ 6907 6896 6895 6894 ] final   11.83 input  -60.11 | X-H torsion
[ 7974 7965 7964 7962 ] final -168.76 input  175.53 | X-H torsion
[ 8008 7997 7996 7995 ] final   77.89 input   59.86 | X-H torsion
[ 10167 10162 10161 10158 ] final  -79.70 input  -65.29 | X-H torsion
[ 10718 10713 10712 10709 ] final  159.46 input   66.30 | X-H torsion
[ 10763 10752 10751 10750 ] final -133.49 input  -60.55 | X-H torsion
[ 11005 11000 10999 10996 ] final   78.43 input  -57.11 | X-H torsion

> <Gold.Protein.ActiveResidues>
 VAL166  LYS551  ARG553  GLY616  TRP617  ASP618  TYR619  PRO620  LYS621  CYS622 
 ASP623  PHE694  ASN695  SER759  ASP760  ASP761  ALA762  ILE779  LEU786  VAL792 
 PHE793  MET794  SER795  GLU796  ALA797  LYS798  CYS799  TRP800  GLU811  SER814 

> <Gold.Protein.RotatedAtoms>
  151.7606  135.0811  160.0344 H   0  0  0  0  0  0  0  0  0  0  0  0  # atno 6907 bound_to 6896
  152.3355  133.6003  159.5848 H   0  0  0  0  0  0  0  0  0  0  0  0  # atno 6908 bound_to 6896
  150.7448  133.9718  159.3590 H   0  0  0  0  0  0  0  0  0  0  0  0  # atno 6909 bound_to 6896
  144.7197  140.2322  143.6302 H   0  0  0  0  0  0  0  0  0  0  0  0  # atno 7974 bound_to 7965
  155.8479  140.3459  155.5674 H   0  0  0  0  0  0  0  0  0  0  0  0  # atno 8008 bound_to 7997
  155.8069  140.0893  157.1945 H   0  0  0  0  0  0  0  0  0  0  0  0  # atno 8009 bound_to 7997
  154.4007  140.1455  156.3328 H   0  0  0  0  0  0  0  0  0  0  0  0  # atno 8010 bound_to 7997
  140.4570  143.2465  151.8406 H   0  0  0  0  0  0  0  0  0  0  0  0  # atno 10167 bound_to 10162
  157.1639  131.0594  151.2218 H   0  0  0  0  0  0  0  0  0  0  0  0  # atno 10718 bound_to 10713
  154.8732  135.3764  154.4581 H   0  0  0  0  0  0  0  0  0  0  0  0  # atno 10763 bound_to 10752
  153.5251  135.7028  153.5716 H   0  0  0  0  0  0  0  0  0  0  0  0  # atno 10764 bound_to 10752
  153.3946  135.3963  155.1912 H   0  0  0  0  0  0  0  0  0  0  0  0  # atno 10765 bound_to 10752
  139.9213  134.7763  156.1648 H   0  0  0  0  0  0  0  0  0  0  0  0  # atno 11005 bound_to 11000
  145.8399  139.2125  143.1833 LP  0  0  0  0  0  0  0  0  0  0  0  0  # atno 17320 bound_to 7965
  146.0355  140.8216  142.9854 LP  0  0  0  0  0  0  0  0  0  0  0  0  # atno 17321 bound_to 7965
  139.4802  144.5053  151.9005 LP  0  0  0  0  0  0  0  0  0  0  0  0  # atno 17342 bound_to 10162
  140.4140  144.2332  150.5888 LP  0  0  0  0  0  0  0  0  0  0  0  0  # atno 17343 bound_to 10162
  157.4106  130.7383  149.6836 LP  0  0  0  0  0  0  0  0  0  0  0  0  # atno 17370 bound_to 10713
  155.9749  130.4096  150.3888 LP  0  0  0  0  0  0  0  0  0  0  0  0  # atno 17371 bound_to 10713
  141.0736  133.6785  156.2190 LP  0  0  0  0  0  0  0  0  0  0  0  0  # atno 17394 bound_to 11000
  140.6466  134.5110  157.5574 LP  0  0  0  0  0  0  0  0  0  0  0  0  # atno 17395 bound_to 11000

$$$$
