AV-unprocessed.smi:229|AV-procd|sdf|1750|dock3
  -GOLD-   2262020273D 1   1.00000     0.00000
 Structure written by MMmdl.
 58 62  0  0  0  0  0  0  0  0  1 V2000
  148.5037  132.8866  159.6351 C   0  0  0  0  0  0  0  0  0  0  0  0
  147.8473  132.5386  158.2926 C   0  0  0  0  0  0  0  0  0  0  0  0
  148.7097  132.8968  157.0711 C   0  0  1  0  0  0  0  0  0  0  0  0
  149.2881  134.3221  157.1451 C   0  0  0  0  0  0  0  0  0  0  0  0
  150.2118  134.5467  156.0408 N   0  0  0  0  0  0  0  0  0  0  0  0
  150.5257  135.8475  155.8176 C   0  0  0  0  0  0  0  0  0  0  0  0
  150.9570  136.2440  154.5900 N   0  0  0  0  0  0  0  0  0  0  0  0
  151.2738  137.5228  154.3663 C   0  0  0  0  0  0  0  0  0  0  0  0
  151.2305  138.5536  155.2121 N   0  0  0  0  0  0  0  0  0  0  0  0
  150.7891  138.1642  156.4422 C   0  0  0  0  0  0  0  0  0  0  0  0
  150.4197  136.8448  156.8275 C   0  0  0  0  0  0  0  0  0  0  0  0
  150.0068  136.8382  158.1551 N   0  0  0  0  0  0  0  0  0  0  0  0
  150.1215  138.0828  158.5313 C   0  0  0  0  0  0  0  0  0  0  0  0
  150.5794  138.9472  157.5638 N   0  0  0  0  0  0  0  0  0  0  0  0
  150.7791  140.3781  157.7045 C   0  0  0  0  0  0  0  0  0  0  0  0
  151.8641  140.7365  158.7424 C   0  0  1  0  0  0  0  0  0  0  0  0
  153.0978  140.2613  158.2411 O   0  0  0  0  0  0  0  0  0  0  0  0
  151.9852  142.2482  159.0384 C   0  0  2  0  0  0  0  0  0  0  0  0
  152.9838  142.6109  160.1388 C   0  0  0  0  0  0  0  0  0  0  0  0
  152.5123  143.9792  160.6036 C   0  0  0  0  0  0  0  0  0  0  0  0
  151.0594  144.0485  160.1266 C   0  0  0  0  0  0  0  0  0  0  0  0
  150.7831  142.7610  159.5942 O   0  0  0  0  0  0  0  0  0  0  0  0
  151.2884  133.5630  155.9953 C   0  0  0  0  0  0  0  0  0  0  0  0
  150.7159  132.1314  155.9466 C   0  0  1  0  0  0  0  0  0  0  0  0
  150.1337  131.7327  154.5938 C   0  0  0  0  0  0  0  0  0  0  0  0
  150.2205  130.2152  154.6465 C   0  0  0  0  0  0  0  0  0  0  0  0
  151.4692  129.9675  155.2746 O   0  0  0  0  0  0  0  0  0  0  0  0
  151.8031  131.0600  156.1286 C   0  0  0  0  0  0  0  0  0  0  0  0
  149.7818  131.9537  157.0189 O   0  0  0  0  0  0  0  0  0  0  0  0
  147.8287  132.6673  160.4624 H   0  0  0  0  0  0  0  0  0  0  0  0
  148.7574  133.9456  159.6864 H   0  0  0  0  0  0  0  0  0  0  0  0
  149.4166  132.3135  159.7966 H   0  0  0  0  0  0  0  0  0  0  0  0
  147.5953  131.4778  158.2700 H   0  0  0  0  0  0  0  0  0  0  0  0
  146.9006  133.0758  158.2244 H   0  0  0  0  0  0  0  0  0  0  0  0
  148.0922  132.7996  156.1789 H   0  0  0  0  0  0  0  0  0  0  0  0
  148.4787  135.0506  157.1331 H   0  0  0  0  0  0  0  0  0  0  0  0
  149.8241  134.4616  158.0850 H   0  0  0  0  0  0  0  0  0  0  0  0
  151.6091  137.7533  153.3659 H   0  0  0  0  0  0  0  0  0  0  0  0
  149.8647  138.4086  159.5287 H   0  0  0  0  0  0  0  0  0  0  0  0
  151.0460  140.7798  156.7258 H   0  0  0  0  0  0  0  0  0  0  0  0
  149.8271  140.8355  157.9772 H   0  0  0  0  0  0  0  0  0  0  0  0
  151.6646  140.2052  159.6739 H   0  0  0  0  0  0  0  0  0  0  0  0
  153.5413  139.7904  158.9297 H   0  0  0  0  0  0  0  0  0  0  0  0
  152.2260  142.7975  158.1260 H   0  0  0  0  0  0  0  0  0  0  0  0
  152.9097  141.8986  160.9619 H   0  0  0  0  0  0  0  0  0  0  0  0
  154.0166  142.6165  159.7892 H   0  0  0  0  0  0  0  0  0  0  0  0
  152.5955  144.0817  161.6860 H   0  0  0  0  0  0  0  0  0  0  0  0
  153.1003  144.7741  160.1434 H   0  0  0  0  0  0  0  0  0  0  0  0
  150.3648  144.2916  160.9309 H   0  0  0  0  0  0  0  0  0  0  0  0
  150.9459  144.7959  159.3402 H   0  0  0  0  0  0  0  0  0  0  0  0
  151.9298  133.7398  155.1307 H   0  0  0  0  0  0  0  0  0  0  0  0
  151.9090  133.6803  156.8851 H   0  0  0  0  0  0  0  0  0  0  0  0
  149.1258  132.0951  154.3992 H   0  0  0  0  0  0  0  0  0  0  0  0
  150.7713  132.1003  153.7887 H   0  0  0  0  0  0  0  0  0  0  0  0
  149.4190  129.8049  155.2623 H   0  0  0  0  0  0  0  0  0  0  0  0
  150.1677  129.7537  153.6604 H   0  0  0  0  0  0  0  0  0  0  0  0
  152.7793  131.4339  155.8178 H   0  0  0  0  0  0  0  0  0  0  0  0
  151.8932  130.7342  157.1656 H   0  0  0  0  0  0  0  0  0  0  0  0
  1  2  1  0  0  0  0
  1 30  1  0  0  0  0
  1 31  1  0  0  0  0
  1 32  1  0  0  0  0
  2  3  1  0  0  0  0
  2 33  1  0  0  0  0
  2 34  1  0  0  0  0
  3 29  1  0  0  0  0
  3  4  1  0  0  0  0
  3 35  1  0  0  0  0
  4  5  1  0  0  0  0
  4 36  1  0  0  0  0
  4 37  1  0  0  0  0
  5  6  1  0  0  0  0
  5 23  1  0  0  0  0
  6 11  1  0  0  0  0
  6  7  2  0  0  0  0
  7  8  1  0  0  0  0
  8  9  2  0  0  0  0
  8 38  1  0  0  0  0
  9 10  1  0  0  0  0
 10 14  1  0  0  0  0
 10 11  2  0  0  0  0
 11 12  1  0  0  0  0
 12 13  2  0  0  0  0
 13 14  1  0  0  0  0
 13 39  1  0  0  0  0
 14 15  1  0  0  0  0
 15 16  1  0  0  0  0
 15 40  1  0  0  0  0
 15 41  1  0  0  0  0
 16 17  1  0  0  0  0
 16 18  1  0  0  0  0
 16 42  1  0  0  0  0
 17 43  1  0  0  0  0
 18 22  1  0  0  0  0
 18 19  1  0  0  0  0
 18 44  1  0  0  0  0
 19 20  1  0  0  0  0
 19 45  1  0  0  0  0
 19 46  1  0  0  0  0
 20 21  1  0  0  0  0
 20 47  1  0  0  0  0
 20 48  1  0  0  0  0
 21 22  1  0  0  0  0
 21 49  1  0  0  0  0
 21 50  1  0  0  0  0
 23 24  1  0  0  0  0
 23 51  1  0  0  0  0
 23 52  1  0  0  0  0
 24 28  1  0  0  0  0
 24 25  1  0  0  0  0
 24 29  1  0  0  0  0
 25 26  1  0  0  0  0
 25 53  1  0  0  0  0
 25 54  1  0  0  0  0
 26 27  1  0  0  0  0
 26 55  1  0  0  0  0
 26 56  1  0  0  0  0
 27 28  1  0  0  0  0
 28 57  1  0  0  0  0
 28 58  1  0  0  0  0
M  END
> <s_m_source_file>
AV-unprocessed.smi

> <i_m_source_file_index>
229

> <i_lp_mmshare_version>
43012

> <i_f3d_flags>
0

> <s_epik_input>
W0NIMl0xT1tDSDJdW0NIMl1bQ0BdMTJbQ0gyXU4oW0NIMl1bQ0BIXShPMilbQ0gyXVtDSDNdKWMobltjSF1uMyljKGMzNCluW2NIXW40W0NIMl1bQ0BIXShbT0hdKVtDQEBIXTVbQ0gyXVtDSDJdW0NIMl1PNQ==

> <s_epik_cmdline>
J2VwaWtfcHl0aG9uJywgJy1waCcsICc3LjAnLCAnLXRuJywgJzgnLCAnLW1hJywgJzIwMCcsICctbWV0YWxfYmluZGluZycsICctaW1hZScsICc8aW5maWxlLm1hZT4nLCAnLW9tYWUnLCAnPG91dGZpbGUubWFlPic=

> <r_lp_tautomer_probability>
1

> <r_epik_Ionization_Penalty>
0.00318402

> <r_epik_Ionization_Penalty_Charging>
0

> <r_epik_Ionization_Penalty_Neutral>
0.00318402

> <r_epik_State_Penalty>
0.00215642

> <r_epik_Charging_Adjusted_Penalty>
0.00215642

> <i_epik_Tot_Q>
0

> <i_epik_Tot_abs_Q>
0

> <r_epik_Metal_State_Penalty>
-0

> <b_epik_Metal_Only>
0

> <s_lp_Force_Field>
OPLS_2005

> <r_lp_Energy>
55.6403

> <b_lp_Chiralities_Consistent>
1

> <s_lp_Variant>
AV-unprocessed.smi:229-4

> <Gold.Version>
5.8.1

> <Gold.Id.Protein>
6NUR|6NUR_protein|mol2

> <Gold.PLP.Fitness>
43.1731

> <Gold.PLP.PLP>
-37.4484

> <Gold.PLP.part.hbond>
-3.0000

> <Gold.PLP.part.metal>
0.0000

> <Gold.PLP.part.buried>
-6.6191

> <Gold.PLP.part.nonpolar>
-26.9970

> <Gold.PLP.part.repulsive>
0.2984

> <Gold.PLP.ligand.clash>
0.0000

> <Gold.PLP.ligand.torsion>
0.5000

> <Gold.PLP.Chemscore.Hbond>
1.4960

> <Gold.PLP.Chemscore.CHOScore>
0.6356

> <Gold.PLP.Chemscore.Metal>
0.0000

> <Gold.Chemscore.Hbonds>
donor molecule, donor type, donor heavy atom, donor atom, acceptor molecule, acceptor atom, score
      P1  H  7997  8010       L1    17  0.75
      P1  H 10752 10763       L1     7  0.66
      L1  C     8    38       P1  7949  0.62

> <Gold.PLP.Chemscore.Internal.Correction>
0.3298

> <Gold.Rescore>
     Score         DG    S(hbond)    S(metal)    S(lipo)     H(rot)  DE(clash)    DE(int)     intcor
     10.42     -12.42       0.69        0.00      93.48       2.46       0.09       1.90       ----

> <Gold.Chemscore.Fitness>
10.4220

> <Gold.Chemscore.DG>
-12.4192

> <Gold.Chemscore.ZeroCoef>
-5.4800

> <Gold.Chemscore.Hbond>
0.6879

> <Gold.Chemscore.Metal>
0.0000

> <Gold.Chemscore.Lipo>
93.4794

> <Gold.Chemscore.Internal_Hbond>
0.0000

> <Gold.Chemscore.DEClash>
0.0945

> <Gold.Chemscore.DEInternal>
1.9028

> <Gold.Chemscore.Rot>
2.4591

> <Gold.Chemscore.Internal.Correction>
   9.000000E+99

> <Gold.Chemscore.Hbonds>
donor molecule, donor type, donor heavy atom, donor atom, acceptor molecule, acceptor atom, score
      P1  H  7997  8010       L1    17  0.13
      P1  H 10752 10763       L1     7  0.03

> <Gold.Chemscore.Hbond.Weighted>
-2.2975

> <Gold.Chemscore.Metal.Weighted>
-0.0000

> <Gold.Chemscore.Lipo.Weighted>
-10.9371

> <Gold.Chemscore.Internal_Hbond.Weighted>
0.0000

> <Gold.Chemscore.DEClash.Weighted>
0.0945

> <Gold.Chemscore.DEInternal.Weighted>
1.9028

> <Gold.Chemscore.Rot.Weighted>
6.2953

> <Gold.Chemscore.Internal.Correction.Weighted>
   9.000000E+99

> <Gold.Protein.RotatedTorsions>
[ 6907 6896 6895 6894 ] final  -77.20 input  -60.11 | X-H torsion
[ 7974 7965 7964 7962 ] final   64.12 input  175.53 | X-H torsion
[ 8008 7997 7996 7995 ] final   45.87 input   59.86 | X-H torsion
[ 10167 10162 10161 10158 ] final  -90.56 input  -65.29 | X-H torsion
[ 10718 10713 10712 10709 ] final   13.33 input   66.30 | X-H torsion
[ 10763 10752 10751 10750 ] final   60.21 input  -60.55 | X-H torsion
[ 11005 11000 10999 10996 ] final  135.48 input  -57.11 | X-H torsion

> <Gold.Protein.ActiveResidues>
 VAL166  LYS551  ARG553  GLY616  TRP617  ASP618  TYR619  PRO620  LYS621  CYS622 
 ASP623  PHE694  ASN695  SER759  ASP760  ASP761  ALA762  ILE779  LEU786  VAL792 
 PHE793  MET794  SER795  GLU796  ALA797  LYS798  CYS799  TRP800  GLU811  SER814 

> <Gold.Protein.RotatedAtoms>
  150.7005  134.4458  159.5312 H   0  0  0  0  0  0  0  0  0  0  0  0  # atno 6907 bound_to 6896
  152.2159  134.8455  160.0501 H   0  0  0  0  0  0  0  0  0  0  0  0  # atno 6908 bound_to 6896
  151.9323  133.3579  159.3972 H   0  0  0  0  0  0  0  0  0  0  0  0  # atno 6909 bound_to 6896
  145.8540  139.3272  143.0858 H   0  0  0  0  0  0  0  0  0  0  0  0  # atno 7974 bound_to 7965
  155.3431  140.3409  155.4239 H   0  0  0  0  0  0  0  0  0  0  0  0  # atno 8008 bound_to 7997
  156.1803  140.1661  156.8323 H   0  0  0  0  0  0  0  0  0  0  0  0  # atno 8009 bound_to 7997
  154.5326  140.0742  156.8355 H   0  0  0  0  0  0  0  0  0  0  0  0  # atno 8010 bound_to 7997
  140.3537  143.2878  151.9696 H   0  0  0  0  0  0  0  0  0  0  0  0  # atno 10167 bound_to 10162
  157.0231  130.6163  149.5724 H   0  0  0  0  0  0  0  0  0  0  0  0  # atno 10718 bound_to 10713
  152.9915  135.5544  154.5837 H   0  0  0  0  0  0  0  0  0  0  0  0  # atno 10763 bound_to 10752
  154.5213  135.2808  155.1262 H   0  0  0  0  0  0  0  0  0  0  0  0  # atno 10764 bound_to 10752
  154.2615  135.6380  153.5329 H   0  0  0  0  0  0  0  0  0  0  0  0  # atno 10765 bound_to 10752
  139.9982  134.9489  157.0013 H   0  0  0  0  0  0  0  0  0  0  0  0  # atno 11005 bound_to 11000
  145.9325  140.9038  143.0349 LP  0  0  0  0  0  0  0  0  0  0  0  0  # atno 17320 bound_to 7965
  144.6728  140.1438  143.7435 LP  0  0  0  0  0  0  0  0  0  0  0  0  # atno 17321 bound_to 7965
  139.4823  144.6054  151.7531 LP  0  0  0  0  0  0  0  0  0  0  0  0  # atno 17342 bound_to 10162
  140.5194  144.0902  150.6018 LP  0  0  0  0  0  0  0  0  0  0  0  0  # atno 17343 bound_to 10162
  156.0095  130.5185  150.7942 LP  0  0  0  0  0  0  0  0  0  0  0  0  # atno 17370 bound_to 10713
  157.5234  131.0933  151.0049 LP  0  0  0  0  0  0  0  0  0  0  0  0  # atno 17371 bound_to 10713
  140.4778  134.1321  155.7212 LP  0  0  0  0  0  0  0  0  0  0  0  0  # atno 17394 bound_to 11000
  141.1621  133.8773  157.1818 LP  0  0  0  0  0  0  0  0  0  0  0  0  # atno 17395 bound_to 11000

$$$$
