AV-unprocessed.smi:3338|AV-procd|sdf|12872|dock10
  -GOLD-   2272019273D 1   1.00000     0.00000
 Structure written by MMmdl.
 44 45  0  0  0  0  0  0  0  0  2 V2000
  145.9001  132.0765  149.9512 C   0  0  0  0  0  0  0  0  0  0  0  0
  146.2551  133.3917  150.6590 C   0  0  1  0  0  0  0  0  0  0  0  0
  145.1036  134.4070  150.5702 C   0  0  0  0  0  0  0  0  0  0  0  0
  145.4804  135.7010  151.3021 C   0  0  0  0  0  0  0  0  0  0  0  0
  145.8929  135.4113  152.7540 C   0  0  0  0  0  0  0  0  0  0  0  0
  147.0075  134.4301  152.8090 N   0  3  1  0  0  0  0  0  0  0  0  0
  147.5153  134.2380  154.1909 C   0  0  0  0  0  0  0  0  0  0  0  0
  147.5249  135.5473  155.0036 C   0  0  0  0  0  0  0  0  0  0  0  0
  148.5168  136.4859  154.4933 N   0  0  0  0  0  0  0  0  0  0  0  0
  148.8774  137.6288  155.1000 C   0  0  0  0  0  0  0  0  0  0  0  0
  148.4094  137.9845  156.1825 O   0  0  0  0  0  0  0  0  0  0  0  0
  149.9304  138.4857  154.3750 C   0  0  2  0  0  0  0  0  0  0  0  0
  151.2740  137.7536  154.1801 C   0  0  0  0  0  0  0  0  0  0  0  0
  150.1082  139.7675  155.0486 N   0  0  0  0  0  0  0  0  0  0  0  0
  151.2621  140.2836  155.6030 C   0  0  0  0  0  0  0  0  0  0  0  0
  150.9619  141.5192  156.1003 C   0  0  0  0  0  0  0  0  0  0  0  0
  149.5821  141.6807  155.7946 C   0  0  0  0  0  0  0  0  0  0  0  0
  149.0754  140.6352  155.1619 N   0  0  0  0  0  0  0  0  0  0  0  0
  146.6454  133.1554  152.1319 C   0  0  0  0  0  0  0  0  0  0  0  0
  145.0370  131.5966  150.4134 H   0  0  0  0  0  0  0  0  0  0  0  0
  146.7322  131.3727  149.9884 H   0  0  0  0  0  0  0  0  0  0  0  0
  145.6627  132.2487  148.9009 H   0  0  0  0  0  0  0  0  0  0  0  0
  147.1195  133.8156  150.1457 H   0  0  0  0  0  0  0  0  0  0  0  0
  144.8685  134.6251  149.5278 H   0  0  0  0  0  0  0  0  0  0  0  0
  144.1997  133.9857  151.0128 H   0  0  0  0  0  0  0  0  0  0  0  0
  146.3011  136.1934  150.7786 H   0  0  0  0  0  0  0  0  0  0  0  0
  144.6409  136.3964  151.2846 H   0  0  0  0  0  0  0  0  0  0  0  0
  146.1966  136.3448  153.2295 H   0  0  0  0  0  0  0  0  0  0  0  0
  145.0412  135.0296  153.3193 H   0  0  0  0  0  0  0  0  0  0  0  0
  146.8737  133.5209  154.7051 H   0  0  0  0  0  0  0  0  0  0  0  0
  148.5108  133.7922  154.1610 H   0  0  0  0  0  0  0  0  0  0  0  0
  146.5574  136.0451  154.9535 H   0  0  0  0  0  0  0  0  0  0  0  0
  147.7141  135.3424  156.0588 H   0  0  0  0  0  0  0  0  0  0  0  0
  148.9445  136.2648  153.6054 H   0  0  0  0  0  0  0  0  0  0  0  0
  149.5325  138.6974  153.3812 H   0  0  0  0  0  0  0  0  0  0  0  0
  151.1411  136.8252  153.6236 H   0  0  0  0  0  0  0  0  0  0  0  0
  151.7453  137.5044  155.1317 H   0  0  0  0  0  0  0  0  0  0  0  0
  151.9744  138.3716  153.6175 H   0  0  0  0  0  0  0  0  0  0  0  0
  152.1922  139.7344  155.5981 H   0  0  0  0  0  0  0  0  0  0  0  0
  151.6270  142.2048  156.6043 H   0  0  0  0  0  0  0  0  0  0  0  0
  148.9387  142.5213  156.0090 H   0  0  0  0  0  0  0  0  0  0  0  0
  145.8236  132.6793  152.6699 H   0  0  0  0  0  0  0  0  0  0  0  0
  147.4848  132.4620  152.1644 H   0  0  0  0  0  0  0  0  0  0  0  0
  147.7654  134.8395  152.2816 H   0  0  0  0  0  0  0  0  0  0  0  0
  1  2  1  0  0  0  0
  1 20  1  0  0  0  0
  1 21  1  0  0  0  0
  1 22  1  0  0  0  0
  2 19  1  0  0  0  0
  2  3  1  0  0  0  0
  2 23  1  0  0  0  0
  3  4  1  0  0  0  0
  3 24  1  0  0  0  0
  3 25  1  0  0  0  0
  4  5  1  0  0  0  0
  4 26  1  0  0  0  0
  4 27  1  0  0  0  0
  5  6  1  0  0  0  0
  5 28  1  0  0  0  0
  5 29  1  0  0  0  0
  6  7  1  0  0  0  0
  6 19  1  0  0  0  0
  6 44  1  0  0  0  0
  7  8  1  0  0  0  0
  7 30  1  0  0  0  0
  7 31  1  0  0  0  0
  8  9  1  0  0  0  0
  8 32  1  0  0  0  0
  8 33  1  0  0  0  0
  9 10  1  0  0  0  0
  9 34  1  0  0  0  0
 10 11  2  0  0  0  0
 10 12  1  0  0  0  0
 12 13  1  0  0  0  0
 12 14  1  0  0  0  0
 12 35  1  0  0  0  0
 13 36  1  0  0  0  0
 13 37  1  0  0  0  0
 13 38  1  0  0  0  0
 14 18  1  0  0  0  0
 14 15  1  0  0  0  0
 15 16  2  0  0  0  0
 15 39  1  0  0  0  0
 16 17  1  0  0  0  0
 16 40  1  0  0  0  0
 17 18  2  0  0  0  0
 17 41  1  0  0  0  0
 19 42  1  0  0  0  0
 19 43  1  0  0  0  0
M  CHG  1   6   1
M  END
> <s_m_source_file>
AV-unprocessed.smi

> <i_m_source_file_index>
3338

> <i_lp_mmshare_version>
43012

> <i_f3d_flags>
0

> <s_epik_input>
W0NIM11bQ0BASF0xW0NIMl1bQ0gyXVtDSDJdTihbQ0gyXTEpW0NIMl1bQ0gyXVtOSF1DKD1PKVtDQEhdKFtDSDNdKW4yW2NIXVtjSF1bY0hdbjI=

> <s_epik_cmdline>
J2VwaWtfcHl0aG9uJywgJy1waCcsICc3LjAnLCAnLXRuJywgJzgnLCAnLW1hJywgJzIwMCcsICctbWV0YWxfYmluZGluZycsICctaW1hZScsICc8aW5maWxlLm1hZT4nLCAnLW9tYWUnLCAnPG91dGZpbGUubWFlPic=

> <r_lp_tautomer_probability>
1

> <r_epik_Ionization_Penalty>
0.00225707

> <r_epik_Ionization_Penalty_Charging>
0.00223709

> <r_epik_Ionization_Penalty_Neutral>
1.99775e-05

> <r_epik_State_Penalty>
0.00153978

> <r_epik_Charging_Adjusted_Penalty>
0.00377687

> <i_epik_Tot_Q>
1

> <i_epik_Tot_abs_Q>
1

> <r_epik_Metal_State_Penalty>
-0

> <b_epik_Metal_Only>
0

> <s_lp_Force_Field>
OPLS_2005

> <r_lp_Energy>
19.9397

> <b_lp_Chiralities_Consistent>
1

> <s_lp_Variant>
AV-unprocessed.smi:3338-4

> <Gold.Version>
5.8.1

> <Gold.Id.Protein>
6NUR|6NUR_protein|mol2

> <Gold.PLP.Fitness>
44.8071

> <Gold.PLP.PLP>
-33.3891

> <Gold.PLP.part.hbond>
-2.0000

> <Gold.PLP.part.metal>
0.0000

> <Gold.PLP.part.buried>
-1.3808

> <Gold.PLP.part.nonpolar>
-29.9660

> <Gold.PLP.part.repulsive>
0.1021

> <Gold.PLP.ligand.clash>
0.0000

> <Gold.PLP.ligand.torsion>
0.3465

> <Gold.PLP.Chemscore.Hbond>
3.0000

> <Gold.PLP.Chemscore.CHOScore>
1.0000

> <Gold.PLP.Chemscore.Metal>
0.0000

> <Gold.Chemscore.Hbonds>
donor molecule, donor type, donor heavy atom, donor atom, acceptor molecule, acceptor atom, score
      L1  H     6    44       P1  7948  2.00
      L1  H     9    34       P1  7948  1.00
      L1  C    17    41       P1  8028  1.00

> <Gold.PLP.Chemscore.Internal.Correction>
0.1111

> <Gold.Rescore>
     Score         DG    S(hbond)    S(metal)    S(lipo)     H(rot)  DE(clash)    DE(int)     intcor
     15.33     -16.83       1.97        0.00      79.20       1.76       0.01       1.49       ----

> <Gold.Chemscore.Fitness>
15.3271

> <Gold.Chemscore.DG>
-16.8256

> <Gold.Chemscore.ZeroCoef>
-5.4800

> <Gold.Chemscore.Hbond>
1.9693

> <Gold.Chemscore.Metal>
0.0000

> <Gold.Chemscore.Lipo>
79.1965

> <Gold.Chemscore.Internal_Hbond>
0.0000

> <Gold.Chemscore.DEClash>
0.0121

> <Gold.Chemscore.DEInternal>
1.4864

> <Gold.Chemscore.Rot>
1.7570

> <Gold.Chemscore.Internal.Correction>
   9.000000E+99

> <Gold.Chemscore.Hbonds>
donor molecule, donor type, donor heavy atom, donor atom, acceptor molecule, acceptor atom, score
      L1  H     6    44       P1  7948  0.77
      L1  H     9    34       P1  7948  0.97

> <Gold.Chemscore.Hbond.Weighted>
-6.5775

> <Gold.Chemscore.Metal.Weighted>
-0.0000

> <Gold.Chemscore.Lipo.Weighted>
-9.2660

> <Gold.Chemscore.Internal_Hbond.Weighted>
0.0000

> <Gold.Chemscore.DEClash.Weighted>
0.0121

> <Gold.Chemscore.DEInternal.Weighted>
1.4864

> <Gold.Chemscore.Rot.Weighted>
4.4979

> <Gold.Chemscore.Internal.Correction.Weighted>
   9.000000E+99

> <Gold.Protein.RotatedTorsions>
[ 6907 6896 6895 6894 ] final  -80.60 input  -60.11 | X-H torsion
[ 7974 7965 7964 7962 ] final  124.53 input  175.53 | X-H torsion
[ 8008 7997 7996 7995 ] final -144.28 input   59.86 | X-H torsion
[ 10167 10162 10161 10158 ] final  176.97 input  -65.29 | X-H torsion
[ 10718 10713 10712 10709 ] final  -15.21 input   66.30 | X-H torsion
[ 10763 10752 10751 10750 ] final -132.92 input  -60.55 | X-H torsion
[ 11005 11000 10999 10996 ] final  175.24 input  -57.11 | X-H torsion

> <Gold.Protein.ActiveResidues>
 VAL166  LYS551  ARG553  GLY616  TRP617  ASP618  TYR619  PRO620  LYS621  CYS622 
 ASP623  PHE694  ASN695  SER759  ASP760  ASP761  ALA762  ILE779  LEU786  VAL792 
 PHE793  MET794  SER795  GLU796  ALA797  LYS798  CYS799  TRP800  GLU811  SER814 

> <Gold.Protein.RotatedAtoms>
  150.6926  134.3945  159.5091 H   0  0  0  0  0  0  0  0  0  0  0  0  # atno 6907 bound_to 6896
  152.1728  134.8817  160.0542 H   0  0  0  0  0  0  0  0  0  0  0  0  # atno 6908 bound_to 6896
  151.9836  133.3731  159.4154 H   0  0  0  0  0  0  0  0  0  0  0  0  # atno 6909 bound_to 6896
  145.0833  139.3641  143.4898 H   0  0  0  0  0  0  0  0  0  0  0  0  # atno 7974 bound_to 7965
  155.5244  140.0594  157.2901 H   0  0  0  0  0  0  0  0  0  0  0  0  # atno 8008 bound_to 7997
  154.4506  140.1947  156.0476 H   0  0  0  0  0  0  0  0  0  0  0  0  # atno 8009 bound_to 7997
  156.0696  140.3262  155.7564 H   0  0  0  0  0  0  0  0  0  0  0  0  # atno 8010 bound_to 7997
  139.5235  144.2853  152.0511 H   0  0  0  0  0  0  0  0  0  0  0  0  # atno 10167 bound_to 10162
  156.6050  130.4834  149.6224 H   0  0  0  0  0  0  0  0  0  0  0  0  # atno 10718 bound_to 10713
  154.8738  135.3782  154.4489 H   0  0  0  0  0  0  0  0  0  0  0  0  # atno 10763 bound_to 10752
  153.5167  135.7029  153.5758 H   0  0  0  0  0  0  0  0  0  0  0  0  # atno 10764 bound_to 10752
  153.4023  135.3945  155.1962 H   0  0  0  0  0  0  0  0  0  0  0  0  # atno 10765 bound_to 10752
  140.3600  134.7121  157.4325 H   0  0  0  0  0  0  0  0  0  0  0  0  # atno 11005 bound_to 11000
  146.3531  140.0634  142.8628 LP  0  0  0  0  0  0  0  0  0  0  0  0  # atno 17320 bound_to 7965
  145.1152  140.9429  143.4633 LP  0  0  0  0  0  0  0  0  0  0  0  0  # atno 17321 bound_to 7965
  140.2307  144.4372  150.6301 LP  0  0  0  0  0  0  0  0  0  0  0  0  # atno 17342 bound_to 10162
  140.6357  143.2194  151.6399 LP  0  0  0  0  0  0  0  0  0  0  0  0  # atno 17343 bound_to 10162
  156.2437  130.6866  151.1580 LP  0  0  0  0  0  0  0  0  0  0  0  0  # atno 17370 bound_to 10713
  157.7269  131.0643  150.5887 LP  0  0  0  0  0  0  0  0  0  0  0  0  # atno 17371 bound_to 10713
  140.0634  134.5963  155.8723 LP  0  0  0  0  0  0  0  0  0  0  0  0  # atno 17394 bound_to 11000
  141.1987  133.6603  156.5805 LP  0  0  0  0  0  0  0  0  0  0  0  0  # atno 17395 bound_to 11000

$$$$
