AV-unprocessed.smi:2555|AV-procd|sdf|10022|dock8
  -GOLD-   2272014 63D 1   1.00000     0.00000
 Structure written by MMmdl.
 40 41  0  0  0  0  0  0  0  0  1 V2000
  145.2847  143.1960  154.1477 C   0  0  0  0  0  0  0  0  0  0  0  0
  145.8227  142.3154  155.2388 C   0  0  0  0  0  0  0  0  0  0  0  0
  145.1352  142.1668  156.3587 N   0  0  0  0  0  0  0  0  0  0  0  0
  145.8889  141.3028  157.1590 O   0  0  0  0  0  0  0  0  0  0  0  0
  147.0150  140.9626  156.4817 C   0  0  0  0  0  0  0  0  0  0  0  0
  147.9610  140.0404  157.1732 C   0  0  0  0  0  0  0  0  0  0  0  0
  147.0359  141.5693  155.2559 C   0  0  0  0  0  0  0  0  0  0  0  0
  148.0860  141.4776  154.1796 C   0  0  0  0  0  0  0  0  0  0  0  0
  149.4390  141.1496  154.8107 C   0  0  0  0  0  0  0  0  0  0  0  0
  150.0916  140.1903  154.3992 O   0  0  0  0  0  0  0  0  0  0  0  0
  149.8456  141.9512  155.8078 N   0  0  0  0  0  0  0  0  0  0  0  0
  151.0830  141.7995  156.5678 C   0  0  0  0  0  0  0  0  0  0  0  0
  151.1010  142.6551  157.8526 C   0  0  0  0  0  0  0  0  0  0  0  0
  151.2384  144.1686  157.5681 C   0  0  0  0  0  0  0  0  0  0  0  0
  151.2937  144.9948  158.8637 C   0  0  0  0  0  0  0  0  0  0  0  0
  152.4205  144.5118  159.7882 C   0  0  0  0  0  0  0  0  0  0  0  0
  152.2790  143.0129  160.0898 C   0  0  0  0  0  0  0  0  0  0  0  0
  152.2315  142.1886  158.7933 C   0  0  0  0  0  0  0  0  0  0  0  0
  145.9840  143.9993  153.9159 H   0  0  0  0  0  0  0  0  0  0  0  0
  144.3359  143.6551  154.4280 H   0  0  0  0  0  0  0  0  0  0  0  0
  145.1195  142.6252  153.2338 H   0  0  0  0  0  0  0  0  0  0  0  0
  148.9945  140.3096  156.9539 H   0  0  0  0  0  0  0  0  0  0  0  0
  147.8032  139.0121  156.8480 H   0  0  0  0  0  0  0  0  0  0  0  0
  147.8266  140.0791  158.2544 H   0  0  0  0  0  0  0  0  0  0  0  0
  147.8431  140.7005  153.4542 H   0  0  0  0  0  0  0  0  0  0  0  0
  148.1582  142.4064  153.6122 H   0  0  0  0  0  0  0  0  0  0  0  0
  149.2424  142.7165  156.0729 H   0  0  0  0  0  0  0  0  0  0  0  0
  151.1696  140.7450  156.8314 H   0  0  0  0  0  0  0  0  0  0  0  0
  151.9528  142.0255  155.9485 H   0  0  0  0  0  0  0  0  0  0  0  0
  150.1536  142.4971  158.3705 H   0  0  0  0  0  0  0  0  0  0  0  0
  152.1393  144.3515  156.9809 H   0  0  0  0  0  0  0  0  0  0  0  0
  150.4018  144.5209  156.9650 H   0  0  0  0  0  0  0  0  0  0  0  0
  151.4360  146.0490  158.6249 H   0  0  0  0  0  0  0  0  0  0  0  0
  150.3378  144.9221  159.3840 H   0  0  0  0  0  0  0  0  0  0  0  0
  153.3864  144.7017  159.3183 H   0  0  0  0  0  0  0  0  0  0  0  0
  152.4103  145.0820  160.7177 H   0  0  0  0  0  0  0  0  0  0  0  0
  153.1106  142.6795  160.7111 H   0  0  0  0  0  0  0  0  0  0  0  0
  151.3709  142.8389  160.6684 H   0  0  0  0  0  0  0  0  0  0  0  0
  152.0996  141.1346  159.0401 H   0  0  0  0  0  0  0  0  0  0  0  0
  153.1915  142.2658  158.2810 H   0  0  0  0  0  0  0  0  0  0  0  0
  1  2  1  0  0  0  0
  1 19  1  0  0  0  0
  1 20  1  0  0  0  0
  1 21  1  0  0  0  0
  2  7  1  0  0  0  0
  2  3  2  0  0  0  0
  3  4  1  0  0  0  0
  4  5  1  0  0  0  0
  5  6  1  0  0  0  0
  5  7  2  0  0  0  0
  6 22  1  0  0  0  0
  6 23  1  0  0  0  0
  6 24  1  0  0  0  0
  7  8  1  0  0  0  0
  8  9  1  0  0  0  0
  8 25  1  0  0  0  0
  8 26  1  0  0  0  0
  9 10  2  0  0  0  0
  9 11  1  0  0  0  0
 11 12  1  0  0  0  0
 11 27  1  0  0  0  0
 12 13  1  0  0  0  0
 12 28  1  0  0  0  0
 12 29  1  0  0  0  0
 13 18  1  0  0  0  0
 13 14  1  0  0  0  0
 13 30  1  0  0  0  0
 14 15  1  0  0  0  0
 14 31  1  0  0  0  0
 14 32  1  0  0  0  0
 15 16  1  0  0  0  0
 15 33  1  0  0  0  0
 15 34  1  0  0  0  0
 16 17  1  0  0  0  0
 16 35  1  0  0  0  0
 16 36  1  0  0  0  0
 17 18  1  0  0  0  0
 17 37  1  0  0  0  0
 17 38  1  0  0  0  0
 18 39  1  0  0  0  0
 18 40  1  0  0  0  0
M  END
> <s_m_source_file>
AV-unprocessed.smi

> <i_m_source_file_index>
2555

> <i_lp_mmshare_version>
43012

> <i_f3d_flags>
0

> <s_epik_input>
W0NIM11jMW5vYyhbQ0gzXSljMVtDSDJdQyg9TylbTkhdW0NIMl1bQ0hdMltDSDJdW0NIMl1bQ0gyXVtDSDJdW0NIMl0y

> <s_epik_cmdline>
J2VwaWtfcHl0aG9uJywgJy1waCcsICc3LjAnLCAnLXRuJywgJzgnLCAnLW1hJywgJzIwMCcsICctbWV0YWxfYmluZGluZycsICctaW1hZScsICc8aW5maWxlLm1hZT4nLCAnLW9tYWUnLCAnPG91dGZpbGUubWFlPic=

> <r_lp_tautomer_probability>
1

> <r_epik_Ionization_Penalty>
1.94914e-08

> <r_epik_Ionization_Penalty_Charging>
0

> <r_epik_Ionization_Penalty_Neutral>
1.94914e-08

> <r_epik_State_Penalty>
-0

> <r_epik_Charging_Adjusted_Penalty>
0

> <i_epik_Tot_Q>
0

> <i_epik_Tot_abs_Q>
0

> <r_epik_Metal_State_Penalty>
-0

> <b_epik_Metal_Only>
0

> <s_lp_Force_Field>
OPLS_2005

> <r_lp_Energy>
4.99285

> <b_lp_Chiralities_Consistent>
1

> <s_lp_Variant>
AV-unprocessed.smi:2555-1

> <Gold.Version>
5.8.1

> <Gold.Id.Protein>
6NUR|6NUR_protein|mol2

> <Gold.PLP.Fitness>
45.8382

> <Gold.PLP.PLP>
-41.0188

> <Gold.PLP.part.hbond>
-2.0000

> <Gold.PLP.part.metal>
0.0000

> <Gold.PLP.part.buried>
-4.4184

> <Gold.PLP.part.nonpolar>
-34.8858

> <Gold.PLP.part.repulsive>
0.4219

> <Gold.PLP.ligand.clash>
0.0206

> <Gold.PLP.ligand.torsion>
0.5768

> <Gold.PLP.Chemscore.Hbond>
1.9920

> <Gold.PLP.Chemscore.CHOScore>
0.0000

> <Gold.PLP.Chemscore.Metal>
0.0000

> <Gold.Chemscore.Hbonds>
donor molecule, donor type, donor heavy atom, donor atom, acceptor molecule, acceptor atom, score
      L1  H    11    27       P1  8028  0.74
      P1  H  7989  7998       L1    10  1.00

> <Gold.PLP.Chemscore.Internal.Correction>
0.0176

> <Gold.Rescore>
     Score         DG    S(hbond)    S(metal)    S(lipo)     H(rot)  DE(clash)    DE(int)     intcor
     17.90     -19.39       1.63        0.00     103.79       1.43       0.41       1.09       ----

> <Gold.Chemscore.Fitness>
17.8993

> <Gold.Chemscore.DG>
-19.3937

> <Gold.Chemscore.ZeroCoef>
-5.4800

> <Gold.Chemscore.Hbond>
1.6285

> <Gold.Chemscore.Metal>
0.0000

> <Gold.Chemscore.Lipo>
103.7858

> <Gold.Chemscore.Internal_Hbond>
0.0000

> <Gold.Chemscore.DEClash>
0.4067

> <Gold.Chemscore.DEInternal>
1.0877

> <Gold.Chemscore.Rot>
1.4329

> <Gold.Chemscore.Internal.Correction>
   9.000000E+99

> <Gold.Chemscore.Hbonds>
donor molecule, donor type, donor heavy atom, donor atom, acceptor molecule, acceptor atom, score
      L1  H    11    27       P1  8028  0.71
      P1  H  7989  7998       L1    10  0.62

> <Gold.Chemscore.Hbond.Weighted>
-5.4391

> <Gold.Chemscore.Metal.Weighted>
-0.0000

> <Gold.Chemscore.Lipo.Weighted>
-12.1429

> <Gold.Chemscore.Internal_Hbond.Weighted>
0.0000

> <Gold.Chemscore.DEClash.Weighted>
0.4067

> <Gold.Chemscore.DEInternal.Weighted>
1.0877

> <Gold.Chemscore.Rot.Weighted>
3.6683

> <Gold.Chemscore.Internal.Correction.Weighted>
   9.000000E+99

> <Gold.Protein.RotatedTorsions>
[ 6907 6896 6895 6894 ] final   27.33 input  -60.11 | X-H torsion
[ 7974 7965 7964 7962 ] final   78.53 input  175.53 | X-H torsion
[ 8008 7997 7996 7995 ] final -102.65 input   59.86 | X-H torsion
[ 10167 10162 10161 10158 ] final   81.82 input  -65.29 | X-H torsion
[ 10718 10713 10712 10709 ] final  -72.95 input   66.30 | X-H torsion
[ 10763 10752 10751 10750 ] final  173.77 input  -60.55 | X-H torsion
[ 11005 11000 10999 10996 ] final  -46.49 input  -57.11 | X-H torsion

> <Gold.Protein.ActiveResidues>
 VAL166  LYS551  ARG553  GLY616  TRP617  ASP618  TYR619  PRO620  LYS621  CYS622 
 ASP623  PHE694  ASN695  SER759  ASP760  ASP761  ALA762  ILE779  LEU786  VAL792 
 PHE793  MET794  SER795  GLU796  ALA797  LYS798  CYS799  TRP800  GLU811  SER814 

> <Gold.Protein.RotatedAtoms>
  152.0007  134.9930  160.0564 H   0  0  0  0  0  0  0  0  0  0  0  0  # atno 6907 bound_to 6896
  152.1522  133.4524  159.4827 H   0  0  0  0  0  0  0  0  0  0  0  0  # atno 6908 bound_to 6896
  150.6877  134.2093  159.4396 H   0  0  0  0  0  0  0  0  0  0  0  0  # atno 6909 bound_to 6896
  145.6760  139.2510  143.1841 H   0  0  0  0  0  0  0  0  0  0  0  0  # atno 7974 bound_to 7965
  154.8596  140.0427  157.1657 H   0  0  0  0  0  0  0  0  0  0  0  0  # atno 8008 bound_to 7997
  154.8854  140.2978  155.5380 H   0  0  0  0  0  0  0  0  0  0  0  0  # atno 8009 bound_to 7997
  156.2998  140.2403  156.3862 H   0  0  0  0  0  0  0  0  0  0  0  0  # atno 8010 bound_to 7997
  139.9352  144.6126  150.8305 H   0  0  0  0  0  0  0  0  0  0  0  0  # atno 10167 bound_to 10162
  156.0300  130.4383  150.2669 H   0  0  0  0  0  0  0  0  0  0  0  0  # atno 10718 bound_to 10713
  154.4447  135.2763  155.1823 H   0  0  0  0  0  0  0  0  0  0  0  0  # atno 10763 bound_to 10752
  154.3675  135.6116  153.5726 H   0  0  0  0  0  0  0  0  0  0  0  0  # atno 10764 bound_to 10752
  152.9843  135.5849  154.4781 H   0  0  0  0  0  0  0  0  0  0  0  0  # atno 10765 bound_to 10752
  141.0582  133.6718  156.3162 H   0  0  0  0  0  0  0  0  0  0  0  0  # atno 11005 bound_to 11000
  146.1005  140.7549  142.9551 LP  0  0  0  0  0  0  0  0  0  0  0  0  # atno 17320 bound_to 7965
  144.7041  140.3779  143.7132 LP  0  0  0  0  0  0  0  0  0  0  0  0  # atno 17321 bound_to 7965
  140.7626  143.3203  151.2638 LP  0  0  0  0  0  0  0  0  0  0  0  0  # atno 17342 bound_to 10162
  139.6749  143.9955  152.2775 LP  0  0  0  0  0  0  0  0  0  0  0  0  # atno 17343 bound_to 10162
  157.0771  131.0133  151.3169 LP  0  0  0  0  0  0  0  0  0  0  0  0  # atno 17370 bound_to 10713
  157.4955  130.7848  149.7551 LP  0  0  0  0  0  0  0  0  0  0  0  0  # atno 17371 bound_to 10713
  140.5921  134.5639  157.5501 LP  0  0  0  0  0  0  0  0  0  0  0  0  # atno 17394 bound_to 11000
  139.9409  134.7789  156.0682 LP  0  0  0  0  0  0  0  0  0  0  0  0  # atno 17395 bound_to 11000

$$$$
