AV-unprocessed.smi:102|AV-procd|sdf|976|dock1
  -GOLD-   2262017533D 1   1.00000     0.00000
 Structure written by MMmdl.
 43 44  0  0  0  0  0  0  0  0  2 V2000
  151.5250  140.5215  158.8630 C   0  0  0  0  0  0  0  0  0  0  0  0
  152.2726  139.6489  157.8636 C   0  0  0  0  0  0  0  0  0  0  0  0
  153.4991  139.5448  157.8939 O   0  0  0  0  0  0  0  0  0  0  0  0
  151.4454  139.0440  156.9920 O   0  0  0  0  0  0  0  0  0  0  0  0
  151.9380  138.5603  155.7499 C   0  0  0  0  0  0  0  0  0  0  0  0
  150.8783  137.6967  155.0400 C   0  0  1  0  0  0  0  0  0  0  0  0
  151.2868  136.3321  155.0373 O   0  0  0  0  0  0  0  0  0  0  0  0
  150.8125  135.6762  156.1761 C   0  0  2  0  0  0  0  0  0  0  0  0
  150.2278  134.3443  155.7551 N   0  0  0  0  0  0  0  0  0  0  0  0
  149.3575  134.2677  154.6810 C   0  0  0  0  0  0  0  0  0  0  0  0
  148.8122  133.0933  154.3053 C   0  0  0  0  0  0  0  0  0  0  0  0
  147.9685  133.0514  153.2598 F   0  0  0  0  0  0  0  0  0  0  0  0
  149.1416  131.8751  155.0428 C   0  0  0  0  0  0  0  0  0  0  0  0
  148.6476  130.8052  154.6905 O   0  0  0  0  0  0  0  0  0  0  0  0
  149.9921  131.9820  156.1049 N   0  5  0  0  0  0  0  0  0  0  0  0
  150.5392  133.1705  156.4947 C   0  0  0  0  0  0  0  0  0  0  0  0
  151.2833  133.2804  157.4693 O   0  0  0  0  0  0  0  0  0  0  0  0
  149.7728  136.5945  156.8502 C   0  0  2  0  0  0  0  0  0  0  0  0
  148.5742  135.9164  157.2189 O   0  0  0  0  0  0  0  0  0  0  0  0
  148.3959  135.4898  158.4781 C   0  0  0  0  0  0  0  0  0  0  0  0
  147.1477  134.6306  158.6269 C   0  0  0  0  0  0  0  0  0  0  0  0
  149.1218  135.7432  159.4397 O   0  0  0  0  0  0  0  0  0  0  0  0
  149.5469  137.6741  155.7971 C   0  0  2  0  0  0  0  0  0  0  0  0
  148.4984  137.3035  154.9056 O   0  0  0  0  0  0  0  0  0  0  0  0
  147.2127  137.4181  155.2753 C   0  0  0  0  0  0  0  0  0  0  0  0
  146.2550  136.9840  154.1740 C   0  0  0  0  0  0  0  0  0  0  0  0
  146.8031  137.8268  156.3619 O   0  0  0  0  0  0  0  0  0  0  0  0
  150.7085  139.9628  159.3207 H   0  0  0  0  0  0  0  0  0  0  0  0
  151.1102  141.3968  158.3628 H   0  0  0  0  0  0  0  0  0  0  0  0
  152.1963  140.8605  159.6523 H   0  0  0  0  0  0  0  0  0  0  0  0
  152.2918  139.3704  155.1105 H   0  0  0  0  0  0  0  0  0  0  0  0
  152.8086  137.9431  155.9723 H   0  0  0  0  0  0  0  0  0  0  0  0
  150.7489  138.0563  154.0184 H   0  0  0  0  0  0  0  0  0  0  0  0
  151.6645  135.4540  156.8198 H   0  0  0  0  0  0  0  0  0  0  0  0
  149.1001  135.1603  154.1309 H   0  0  0  0  0  0  0  0  0  0  0  0
  150.2589  137.0298  157.7248 H   0  0  0  0  0  0  0  0  0  0  0  0
  146.9615  134.0632  157.7144 H   0  0  0  0  0  0  0  0  0  0  0  0
  146.2804  135.2595  158.8272 H   0  0  0  0  0  0  0  0  0  0  0  0
  147.2654  133.9276  159.4517 H   0  0  0  0  0  0  0  0  0  0  0  0
  149.3204  138.6312  156.2696 H   0  0  0  0  0  0  0  0  0  0  0  0
  146.5046  135.9805  153.8286 H   0  0  0  0  0  0  0  0  0  0  0  0
  146.3185  137.6676  153.3273 H   0  0  0  0  0  0  0  0  0  0  0  0
  145.2278  136.9786  154.5390 H   0  0  0  0  0  0  0  0  0  0  0  0
  1  2  1  0  0  0  0
  1 28  1  0  0  0  0
  1 29  1  0  0  0  0
  1 30  1  0  0  0  0
  2  3  2  0  0  0  0
  2  4  1  0  0  0  0
  4  5  1  0  0  0  0
  5  6  1  0  0  0  0
  5 31  1  0  0  0  0
  5 32  1  0  0  0  0
  6 23  1  0  0  0  0
  6  7  1  0  0  0  0
  6 33  1  0  0  0  0
  7  8  1  0  0  0  0
  8  9  1  0  0  0  0
  8 18  1  0  0  0  0
  8 34  1  0  0  0  0
  9 16  1  0  0  0  0
  9 10  1  0  0  0  0
 10 11  2  0  0  0  0
 10 35  1  0  0  0  0
 11 12  1  0  0  0  0
 11 13  1  0  0  0  0
 13 14  2  0  0  0  0
 13 15  1  0  0  0  0
 15 16  1  0  0  0  0
 16 17  2  0  0  0  0
 18 19  1  0  0  0  0
 18 23  1  0  0  0  0
 18 36  1  0  0  0  0
 19 20  1  0  0  0  0
 20 21  1  0  0  0  0
 20 22  2  0  0  0  0
 21 37  1  0  0  0  0
 21 38  1  0  0  0  0
 21 39  1  0  0  0  0
 23 24  1  0  0  0  0
 23 40  1  0  0  0  0
 24 25  1  0  0  0  0
 25 26  1  0  0  0  0
 25 27  2  0  0  0  0
 26 41  1  0  0  0  0
 26 42  1  0  0  0  0
 26 43  1  0  0  0  0
M  CHG  1  15  -1
M  END
> <s_m_source_file>
AV-unprocessed.smi

> <i_m_source_file_index>
102

> <i_lp_mmshare_version>
43012

> <i_f3d_flags>
0

> <s_epik_input>
W0NIM11DKD1PKU9bQ0gyXVtDQEBIXTFPW0NASF0oW0NAQEhdKE9DKD1PKVtDSDNdKVtDQEhdMU9DKD1PKVtDSDNdKW4yW2NIXWMoRiljKD1PKVtuSF1jMj1P

> <s_epik_cmdline>
J2VwaWtfcHl0aG9uJywgJy1waCcsICc3LjAnLCAnLXRuJywgJzgnLCAnLW1hJywgJzIwMCcsICctbWV0YWxfYmluZGluZycsICctaW1hZScsICc8aW5maWxlLm1hZT4nLCAnLW9tYWUnLCAnPG91dGZpbGUubWFlPic=

> <r_epik_Ionization_Penalty>
1.40304

> <r_epik_Ionization_Penalty_Charging>
1.43915e-08

> <r_epik_Ionization_Penalty_Neutral>
1.40304

> <r_epik_State_Penalty>
1.48536

> <r_epik_Charging_Adjusted_Penalty>
1.48536

> <i_epik_Tot_Q>
-1

> <i_epik_Tot_abs_Q>
1

> <r_epik_Metal_State_Penalty>
0.00663881

> <b_epik_Metal_Only>
0

> <s_epik_Chemistry_Notes>
This compound has an ester and may undergo hydrolysis at high or low pH. This compound contains an acetal/aminal-like group ( X-CH(R)-Y where X, Y are N, S, or O) that may be acid/base labile, releasing an aldehyde.

> <s_lp_Force_Field>
OPLS_2005

> <r_lp_Energy>
22.8271

> <b_lp_Chiralities_Consistent>
1

> <s_lp_Variant>
AV-unprocessed.smi:102-32

> <Gold.Version>
5.8.1

> <Gold.Id.Protein>
6NUR|6NUR_protein|mol2

> <Gold.PLP.Fitness>
41.8436

> <Gold.PLP.PLP>
-31.4042

> <Gold.PLP.part.hbond>
-4.0000

> <Gold.PLP.part.metal>
0.0000

> <Gold.PLP.part.buried>
-5.9464

> <Gold.PLP.part.nonpolar>
-23.3463

> <Gold.PLP.part.repulsive>
1.0292

> <Gold.PLP.ligand.clash>
0.0000

> <Gold.PLP.ligand.torsion>
2.0041

> <Gold.PLP.Chemscore.Hbond>
3.7360

> <Gold.PLP.Chemscore.CHOScore>
1.0000

> <Gold.PLP.Chemscore.Metal>
0.0000

> <Gold.Chemscore.Hbonds>
donor molecule, donor type, donor heavy atom, donor atom, acceptor molecule, acceptor atom, score
      P1  H  6896  6908       L1    17  0.67
      P1  H  6896  6909       L1    22  1.00
      P1  H  7997  8010       L1     3  0.89
      P1  H 10752 10765       L1     7  1.00
      L1  C    10    35       P1  7948  1.00

> <Gold.PLP.Chemscore.Internal.Correction>
0.2396

> <Gold.Rescore>
     Score         DG    S(hbond)    S(metal)    S(lipo)     H(rot)  DE(clash)    DE(int)     intcor
      8.16     -12.24       3.75        0.00      38.15       4.00       0.00       4.08       ----

> <Gold.Chemscore.Fitness>
8.1626

> <Gold.Chemscore.DG>
-12.2411

> <Gold.Chemscore.ZeroCoef>
-5.4800

> <Gold.Chemscore.Hbond>
3.7501

> <Gold.Chemscore.Metal>
0.0000

> <Gold.Chemscore.Lipo>
38.1467

> <Gold.Chemscore.Internal_Hbond>
0.0000

> <Gold.Chemscore.DEClash>
0.0000

> <Gold.Chemscore.DEInternal>
4.0785

> <Gold.Chemscore.Rot>
3.9951

> <Gold.Chemscore.Internal.Correction>
   9.000000E+99

> <Gold.Chemscore.Hbonds>
donor molecule, donor type, donor heavy atom, donor atom, acceptor molecule, acceptor atom, score
      P1  H  6896  6908       L1    17  0.68
      P1  H  6896  6909       L1    22  0.98
      P1  H  7997  8010       L1     3  0.86
      P1  H 10752 10765       L1     7  0.88

> <Gold.Chemscore.Hbond.Weighted>
-12.5253

> <Gold.Chemscore.Metal.Weighted>
-0.0000

> <Gold.Chemscore.Lipo.Weighted>
-4.4632

> <Gold.Chemscore.Internal_Hbond.Weighted>
0.0000

> <Gold.Chemscore.DEClash.Weighted>
0.0000

> <Gold.Chemscore.DEInternal.Weighted>
4.0785

> <Gold.Chemscore.Rot.Weighted>
10.2274

> <Gold.Chemscore.Internal.Correction.Weighted>
   9.000000E+99

> <Gold.Protein.RotatedTorsions>
[ 6907 6896 6895 6894 ] final   68.58 input  -60.11 | X-H torsion
[ 7974 7965 7964 7962 ] final   83.19 input  175.53 | X-H torsion
[ 8008 7997 7996 7995 ] final   30.16 input   59.86 | X-H torsion
[ 10167 10162 10161 10158 ] final  -48.49 input  -65.29 | X-H torsion
[ 10718 10713 10712 10709 ] final   68.52 input   66.30 | X-H torsion
[ 10763 10752 10751 10750 ] final  160.65 input  -60.55 | X-H torsion
[ 11005 11000 10999 10996 ] final -114.81 input  -57.11 | X-H torsion

> <Gold.Protein.ActiveResidues>
 VAL166  LYS551  ARG553  GLY616  TRP617  ASP618  TYR619  PRO620  LYS621  CYS622 
 ASP623  PHE694  ASN695  SER759  ASP760  ASP761  ALA762  ILE779  LEU786  VAL792 
 PHE793  MET794  SER795  GLU796  ALA797  LYS798  CYS799  TRP800  GLU811  SER814 

> <Gold.Protein.RotatedAtoms>
  152.4629  134.5142  159.9762 H   0  0  0  0  0  0  0  0  0  0  0  0  # atno 6907 bound_to 6896
  151.5186  133.3465  159.2905 H   0  0  0  0  0  0  0  0  0  0  0  0  # atno 6908 bound_to 6896
  150.8600  134.7979  159.7138 H   0  0  0  0  0  0  0  0  0  0  0  0  # atno 6909 bound_to 6896
  145.6151  139.2375  143.2170 H   0  0  0  0  0  0  0  0  0  0  0  0  # atno 7974 bound_to 7965
  155.0860  140.3215  155.4587 H   0  0  0  0  0  0  0  0  0  0  0  0  # atno 8008 bound_to 7997
  156.2755  140.2086  156.5933 H   0  0  0  0  0  0  0  0  0  0  0  0  # atno 8009 bound_to 7997
  154.6941  140.0513  157.0380 H   0  0  0  0  0  0  0  0  0  0  0  0  # atno 8010 bound_to 7997
  140.6728  143.2738  151.4079 H   0  0  0  0  0  0  0  0  0  0  0  0  # atno 10167 bound_to 10162
  157.6294  130.9377  150.0388 H   0  0  0  0  0  0  0  0  0  0  0  0  # atno 10718 bound_to 10713
  154.2507  135.2771  155.2818 H   0  0  0  0  0  0  0  0  0  0  0  0  # atno 10763 bound_to 10752
  154.5468  135.5687  153.6890 H   0  0  0  0  0  0  0  0  0  0  0  0  # atno 10764 bound_to 10752
  152.9981  135.6264  154.2653 H   0  0  0  0  0  0  0  0  0  0  0  0  # atno 10765 bound_to 10752
  141.0528  133.9660  157.2806 H   0  0  0  0  0  0  0  0  0  0  0  0  # atno 11005 bound_to 11000
  146.1474  140.6973  142.9338 LP  0  0  0  0  0  0  0  0  0  0  0  0  # atno 17320 bound_to 7965
  144.7254  140.4506  143.6977 LP  0  0  0  0  0  0  0  0  0  0  0  0  # atno 17321 bound_to 7965
  139.6005  144.1305  152.2193 LP  0  0  0  0  0  0  0  0  0  0  0  0  # atno 17342 bound_to 10162
  140.0688  144.5796  150.7207 LP  0  0  0  0  0  0  0  0  0  0  0  0  # atno 17343 bound_to 10162
  156.1486  130.3642  149.9472 LP  0  0  0  0  0  0  0  0  0  0  0  0  # atno 17370 bound_to 10713
  156.7496  130.9110  151.3636 LP  0  0  0  0  0  0  0  0  0  0  0  0  # atno 17371 bound_to 10713
  139.9365  135.0196  156.8571 LP  0  0  0  0  0  0  0  0  0  0  0  0  # atno 17394 bound_to 11000
  140.6022  134.0161  155.7542 LP  0  0  0  0  0  0  0  0  0  0  0  0  # atno 17395 bound_to 11000

$$$$
