AV-unprocessed.smi:564|AV-procd|sdf|2949|dock6
  -GOLD-   2262023453D 1   1.00000     0.00000
 Structure written by MMmdl.
 50 51  0  0  0  0  0  0  0  0  2 V2000
  151.0462  145.5049  160.2336 C   0  0  0  0  0  0  0  0  0  0  0  0
  151.9136  144.3298  160.5846 C   0  0  0  0  0  0  0  0  0  0  0  0
  152.3190  144.1897  161.8354 N   0  0  0  0  0  0  0  0  0  0  0  0
  153.0561  143.0614  161.8361 N   0  0  0  0  0  0  0  0  0  0  0  0
  153.6562  142.6080  163.0758 C   0  0  0  0  0  0  0  0  0  0  0  0
  153.1135  142.4842  160.5825 C   0  0  0  0  0  0  0  0  0  0  0  0
  153.8610  141.2172  160.3180 C   0  0  0  0  0  0  0  0  0  0  0  0
  152.3872  143.2822  159.7391 C   0  0  0  0  0  0  0  0  0  0  0  0
  152.1356  143.0983  158.2609 C   0  0  0  0  0  0  0  0  0  0  0  0
  150.7623  142.4698  157.9914 C   0  0  0  0  0  0  0  0  0  0  0  0
  149.7302  142.9631  158.4494 O   0  0  0  0  0  0  0  0  0  0  0  0
  150.7653  141.3614  157.2356 N   0  0  0  0  0  0  0  0  0  0  0  0
  149.5766  140.6041  156.8618 C   0  0  0  0  0  0  0  0  0  0  0  0
  149.1357  140.9257  155.4197 C   0  0  0  0  0  0  0  0  0  0  0  0
  147.8984  141.7494  155.3453 N   0  3  2  0  0  0  0  0  0  0  0  0
  146.9103  141.3590  156.3877 C   0  0  0  0  0  0  0  0  0  0  0  0
  145.7338  142.3460  156.4479 C   0  0  0  0  0  0  0  0  0  0  0  0
  145.0580  142.4803  155.0796 C   0  0  0  0  0  0  0  0  0  0  0  0
  146.0993  142.8698  154.0218 C   0  0  0  0  0  0  0  0  0  0  0  0
  147.2896  141.8871  153.9842 C   0  0  2  0  0  0  0  0  0  0  0  0
  146.9107  140.5381  153.3356 C   0  0  0  0  0  0  0  0  0  0  0  0
  150.8289  145.5419  159.1668 H   0  0  0  0  0  0  0  0  0  0  0  0
  151.5297  146.4438  160.5041 H   0  0  0  0  0  0  0  0  0  0  0  0
  150.0933  145.4570  160.7608 H   0  0  0  0  0  0  0  0  0  0  0  0
  154.6798  142.2801  162.8941 H   0  0  0  0  0  0  0  0  0  0  0  0
  153.0796  141.7740  163.4762 H   0  0  0  0  0  0  0  0  0  0  0  0
  153.6731  143.4139  163.8108 H   0  0  0  0  0  0  0  0  0  0  0  0
  153.5578  140.7721  159.3704 H   0  0  0  0  0  0  0  0  0  0  0  0
  153.6763  140.4821  161.1014 H   0  0  0  0  0  0  0  0  0  0  0  0
  154.9339  141.4045  160.2742 H   0  0  0  0  0  0  0  0  0  0  0  0
  152.1900  144.0484  157.7296 H   0  0  0  0  0  0  0  0  0  0  0  0
  152.9016  142.4639  157.8137 H   0  0  0  0  0  0  0  0  0  0  0  0
  151.6529  141.0226  156.8928 H   0  0  0  0  0  0  0  0  0  0  0  0
  149.7594  139.5345  156.9801 H   0  0  0  0  0  0  0  0  0  0  0  0
  148.7972  140.8712  157.5745 H   0  0  0  0  0  0  0  0  0  0  0  0
  149.9446  141.4059  154.8687 H   0  0  0  0  0  0  0  0  0  0  0  0
  148.9420  139.9846  154.9034 H   0  0  0  0  0  0  0  0  0  0  0  0
  146.5486  140.3475  156.2002 H   0  0  0  0  0  0  0  0  0  0  0  0
  147.3975  141.3367  157.3633 H   0  0  0  0  0  0  0  0  0  0  0  0
  145.0077  142.0154  157.1915 H   0  0  0  0  0  0  0  0  0  0  0  0
  146.0909  143.3226  156.7776 H   0  0  0  0  0  0  0  0  0  0  0  0
  144.5776  141.5398  154.8078 H   0  0  0  0  0  0  0  0  0  0  0  0
  144.2675  143.2302  155.1230 H   0  0  0  0  0  0  0  0  0  0  0  0
  145.6285  142.9336  153.0401 H   0  0  0  0  0  0  0  0  0  0  0  0
  146.4698  143.8719  154.2430 H   0  0  0  0  0  0  0  0  0  0  0  0
  148.0303  142.3530  153.3351 H   0  0  0  0  0  0  0  0  0  0  0  0
  146.4525  140.6968  152.3591 H   0  0  0  0  0  0  0  0  0  0  0  0
  146.1998  139.9730  153.9376 H   0  0  0  0  0  0  0  0  0  0  0  0
  147.7843  139.9079  153.1715 H   0  0  0  0  0  0  0  0  0  0  0  0
  148.1893  142.6828  155.6001 H   0  0  0  0  0  0  0  0  0  0  0  0
  1  2  1  0  0  0  0
  1 22  1  0  0  0  0
  1 23  1  0  0  0  0
  1 24  1  0  0  0  0
  2  8  1  0  0  0  0
  2  3  2  0  0  0  0
  3  4  1  0  0  0  0
  4  5  1  0  0  0  0
  4  6  1  0  0  0  0
  5 25  1  0  0  0  0
  5 26  1  0  0  0  0
  5 27  1  0  0  0  0
  6  7  1  0  0  0  0
  6  8  2  0  0  0  0
  7 28  1  0  0  0  0
  7 29  1  0  0  0  0
  7 30  1  0  0  0  0
  8  9  1  0  0  0  0
  9 10  1  0  0  0  0
  9 31  1  0  0  0  0
  9 32  1  0  0  0  0
 10 11  2  0  0  0  0
 10 12  1  0  0  0  0
 12 13  1  0  0  0  0
 12 33  1  0  0  0  0
 13 14  1  0  0  0  0
 13 34  1  0  0  0  0
 13 35  1  0  0  0  0
 14 15  1  0  0  0  0
 14 36  1  0  0  0  0
 14 37  1  0  0  0  0
 15 20  1  0  0  0  0
 15 16  1  0  0  0  0
 15 50  1  0  0  0  0
 16 17  1  0  0  0  0
 16 38  1  0  0  0  0
 16 39  1  0  0  0  0
 17 18  1  0  0  0  0
 17 40  1  0  0  0  0
 17 41  1  0  0  0  0
 18 19  1  0  0  0  0
 18 42  1  0  0  0  0
 18 43  1  0  0  0  0
 19 20  1  0  0  0  0
 19 44  1  0  0  0  0
 19 45  1  0  0  0  0
 20 21  1  0  0  0  0
 20 46  1  0  0  0  0
 21 47  1  0  0  0  0
 21 48  1  0  0  0  0
 21 49  1  0  0  0  0
M  CHG  1  15   1
M  END
> <s_m_source_file>
AV-unprocessed.smi

> <i_m_source_file_index>
564

> <i_lp_mmshare_version>
43012

> <i_f3d_flags>
0

> <s_epik_input>
W0NIM11jMW5uKFtDSDNdKWMoW0NIM10pYzFbQ0gyXUMoPU8pW05IXVtDSDJdW0NIMl1OMltDSDJdW0NIMl1bQ0gyXVtDSDJdW0NASF0yW0NIM10=

> <s_epik_cmdline>
J2VwaWtfcHl0aG9uJywgJy1waCcsICc3LjAnLCAnLXRuJywgJzgnLCAnLW1hJywgJzIwMCcsICctbWV0YWxfYmluZGluZycsICctaW1hZScsICc8aW5maWxlLm1hZT4nLCAnLW9tYWUnLCAnPG91dGZpbGUubWFlPic=

> <r_lp_tautomer_probability>
1

> <r_epik_Ionization_Penalty>
0.00456826

> <r_epik_Ionization_Penalty_Charging>
0.00240401

> <r_epik_Ionization_Penalty_Neutral>
0.00216425

> <r_epik_State_Penalty>
-0

> <r_epik_Charging_Adjusted_Penalty>
0.00240401

> <i_epik_Tot_Q>
1

> <i_epik_Tot_abs_Q>
1

> <r_epik_Metal_State_Penalty>
-0

> <b_epik_Metal_Only>
0

> <s_lp_Force_Field>
OPLS_2005

> <r_lp_Energy>
15.7718

> <b_lp_Chiralities_Consistent>
1

> <s_lp_Variant>
AV-unprocessed.smi:564-3

> <Gold.Version>
5.8.1

> <Gold.Id.Protein>
6NUR|6NUR_protein|mol2

> <Gold.PLP.Fitness>
53.6836

> <Gold.PLP.PLP>
-49.4825

> <Gold.PLP.part.hbond>
-1.0000

> <Gold.PLP.part.metal>
0.0000

> <Gold.PLP.part.buried>
-6.9934

> <Gold.PLP.part.nonpolar>
-41.0715

> <Gold.PLP.part.repulsive>
0.4910

> <Gold.PLP.ligand.clash>
0.0000

> <Gold.PLP.ligand.torsion>
0.9320

> <Gold.PLP.Chemscore.Hbond>
2.0000

> <Gold.PLP.Chemscore.CHOScore>
0.0000

> <Gold.PLP.Chemscore.Metal>
0.0000

> <Gold.Chemscore.Hbonds>
donor molecule, donor type, donor heavy atom, donor atom, acceptor molecule, acceptor atom, score
      L1  H    15    50       P1  8028  1.46

> <Gold.PLP.Chemscore.Internal.Correction>
0.0652

> <Gold.Rescore>
     Score         DG    S(hbond)    S(metal)    S(lipo)     H(rot)  DE(clash)    DE(int)     intcor
     17.55     -18.45       0.98        0.00     118.13       1.61       0.10       0.80       ----

> <Gold.Chemscore.Fitness>
17.5536

> <Gold.Chemscore.DG>
-18.4547

> <Gold.Chemscore.ZeroCoef>
-5.4800

> <Gold.Chemscore.Hbond>
0.9839

> <Gold.Chemscore.Metal>
0.0000

> <Gold.Chemscore.Lipo>
118.1260

> <Gold.Chemscore.Internal_Hbond>
0.0000

> <Gold.Chemscore.DEClash>
0.1027

> <Gold.Chemscore.DEInternal>
0.7984

> <Gold.Chemscore.Rot>
1.6142

> <Gold.Chemscore.Internal.Correction>
   9.000000E+99

> <Gold.Chemscore.Hbonds>
donor molecule, donor type, donor heavy atom, donor atom, acceptor molecule, acceptor atom, score
      L1  H    15    50       P1  8028  0.70

> <Gold.Chemscore.Hbond.Weighted>
-3.2864

> <Gold.Chemscore.Metal.Weighted>
-0.0000

> <Gold.Chemscore.Lipo.Weighted>
-13.8207

> <Gold.Chemscore.Internal_Hbond.Weighted>
0.0000

> <Gold.Chemscore.DEClash.Weighted>
0.1027

> <Gold.Chemscore.DEInternal.Weighted>
0.7984

> <Gold.Chemscore.Rot.Weighted>
4.1324

> <Gold.Chemscore.Internal.Correction.Weighted>
   9.000000E+99

> <Gold.Protein.RotatedTorsions>
[ 6907 6896 6895 6894 ] final -127.57 input  -60.11 | X-H torsion
[ 7974 7965 7964 7962 ] final  171.74 input  175.53 | X-H torsion
[ 8008 7997 7996 7995 ] final -142.92 input   59.86 | X-H torsion
[ 10167 10162 10161 10158 ] final -132.90 input  -65.29 | X-H torsion
[ 10718 10713 10712 10709 ] final  117.58 input   66.30 | X-H torsion
[ 10763 10752 10751 10750 ] final  -38.78 input  -60.55 | X-H torsion
[ 11005 11000 10999 10996 ] final  115.94 input  -57.11 | X-H torsion

> <Gold.Protein.ActiveResidues>
 VAL166  LYS551  ARG553  GLY616  TRP617  ASP618  TYR619  PRO620  LYS621  CYS622 
 ASP623  PHE694  ASN695  SER759  ASP760  ASP761  ALA762  ILE779  LEU786  VAL792 
 PHE793  MET794  SER795  GLU796  ALA797  LYS798  CYS799  TRP800  GLU811  SER814 

> <Gold.Protein.RotatedAtoms>
  150.9086  133.7026  159.2860 H   0  0  0  0  0  0  0  0  0  0  0  0  # atno 6907 bound_to 6896
  151.4520  135.1029  159.9710 H   0  0  0  0  0  0  0  0  0  0  0  0  # atno 6908 bound_to 6896
  152.4917  133.8470  159.7237 H   0  0  0  0  0  0  0  0  0  0  0  0  # atno 6909 bound_to 6896
  144.7286  139.9396  143.6428 H   0  0  0  0  0  0  0  0  0  0  0  0  # atno 7974 bound_to 7965
  155.5021  140.0576  157.2937 H   0  0  0  0  0  0  0  0  0  0  0  0  # atno 8008 bound_to 7997
  154.4583  140.1984  156.0266 H   0  0  0  0  0  0  0  0  0  0  0  0  # atno 8009 bound_to 7997
  156.0842  140.3243  155.7736 H   0  0  0  0  0  0  0  0  0  0  0  0  # atno 8010 bound_to 7997
  139.9037  143.6576  152.2589 H   0  0  0  0  0  0  0  0  0  0  0  0  # atno 10167 bound_to 10162
  157.6087  131.1039  150.7635 H   0  0  0  0  0  0  0  0  0  0  0  0  # atno 10718 bound_to 10713
  153.9186  135.6785  153.4748 H   0  0  0  0  0  0  0  0  0  0  0  0  # atno 10763 bound_to 10752
  153.1040  135.4814  154.8916 H   0  0  0  0  0  0  0  0  0  0  0  0  # atno 10764 bound_to 10752
  154.7490  135.3180  154.8549 H   0  0  0  0  0  0  0  0  0  0  0  0  # atno 10765 bound_to 10752
  139.9025  134.9591  156.7121 H   0  0  0  0  0  0  0  0  0  0  0  0  # atno 11005 bound_to 11000
  146.0795  139.3783  143.0473 LP  0  0  0  0  0  0  0  0  0  0  0  0  # atno 17320 bound_to 7965
  145.7860  140.9835  143.1074 LP  0  0  0  0  0  0  0  0  0  0  0  0  # atno 17321 bound_to 7965
  139.7002  144.7636  151.1286 LP  0  0  0  0  0  0  0  0  0  0  0  0  # atno 17342 bound_to 10162
  140.7701  143.5468  150.9250 LP  0  0  0  0  0  0  0  0  0  0  0  0  # atno 17343 bound_to 10162
  156.8017  130.4923  149.5369 LP  0  0  0  0  0  0  0  0  0  0  0  0  # atno 17370 bound_to 10713
  156.1182  130.6090  151.0153 LP  0  0  0  0  0  0  0  0  0  0  0  0  # atno 17371 bound_to 10713
  140.7067  133.9259  155.8058 LP  0  0  0  0  0  0  0  0  0  0  0  0  # atno 17394 bound_to 11000
  141.0331  134.0728  157.3991 LP  0  0  0  0  0  0  0  0  0  0  0  0  # atno 17395 bound_to 11000

$$$$
