AV-unprocessed.smi:1157|AV-procd|sdf|4906|dock9
  -GOLD-   22720 3483D 1   1.00000     0.00000
 Structure written by MMmdl.
 54 56  0  0  0  0  0  0  0  0  1 V2000
  155.1617  131.7641  161.4063 C   0  0  0  0  0  0  0  0  0  0  0  0
  155.6242  133.2113  161.7144 C   0  0  0  0  0  0  0  0  0  0  0  0
  157.0562  133.3659  161.1478 C   0  0  0  0  0  0  0  0  0  0  0  0
  154.6977  134.1482  160.8878 C   0  0  0  0  0  0  0  0  0  0  0  0
  154.9058  135.5558  161.2131 N   0  0  0  0  0  0  0  0  0  0  0  0
  154.2385  136.5723  160.6541 C   0  0  0  0  0  0  0  0  0  0  0  0
  153.3625  136.4207  159.8027 O   0  0  0  0  0  0  0  0  0  0  0  0
  154.6674  137.7540  161.1287 N   0  0  0  0  0  0  0  0  0  0  0  0
  154.2109  139.0569  160.7936 C   0  0  0  0  0  0  0  0  0  0  0  0
  153.4630  139.3637  159.6335 C   0  0  0  0  0  0  0  0  0  0  0  0
  153.0516  140.6931  159.4189 C   0  0  0  0  0  0  0  0  0  0  0  0
  153.3934  141.6837  160.3698 C   0  0  0  0  0  0  0  0  0  0  0  0
  152.9998  143.0248  160.1916 N   0  0  0  0  0  0  0  0  0  0  0  0
  152.4245  143.4945  158.9407 C   0  0  0  0  0  0  0  0  0  0  0  0
  152.0121  144.9381  159.2234 C   0  0  0  0  0  0  0  0  0  0  0  0
  151.6272  144.9049  160.7024 C   0  0  0  0  0  0  0  0  0  0  0  0
  152.5577  143.8480  161.3089 C   0  0  0  0  0  0  0  0  0  0  0  0
  154.0917  141.3830  161.4907 N   0  0  0  0  0  0  0  0  0  0  0  0
  154.4826  140.1073  161.6924 C   0  0  0  0  0  0  0  0  0  0  0  0
  155.5386  133.5021  163.1734 N   0  0  0  0  0  0  0  0  0  0  0  0
  156.5742  132.8600  163.9918 C   0  0  0  0  0  0  0  0  0  0  0  0
  156.5039  133.3005  165.4636 C   0  0  0  0  0  0  0  0  0  0  0  0
  155.2110  133.0198  165.9858 O   0  0  0  0  0  0  0  0  0  0  0  0
  154.1782  133.6714  165.2565 C   0  0  0  0  0  0  0  0  0  0  0  0
  154.2297  133.2367  163.7818 C   0  0  0  0  0  0  0  0  0  0  0  0
  155.0590  131.5967  160.3335 H   0  0  0  0  0  0  0  0  0  0  0  0
  154.1963  131.5428  161.8629 H   0  0  0  0  0  0  0  0  0  0  0  0
  155.8732  131.0183  161.7609 H   0  0  0  0  0  0  0  0  0  0  0  0
  157.0812  133.1357  160.0820 H   0  0  0  0  0  0  0  0  0  0  0  0
  157.7655  132.6933  161.6297 H   0  0  0  0  0  0  0  0  0  0  0  0
  157.4353  134.3818  161.2573 H   0  0  0  0  0  0  0  0  0  0  0  0
  154.8433  134.0059  159.8165 H   0  0  0  0  0  0  0  0  0  0  0  0
  153.6514  133.8955  161.0701 H   0  0  0  0  0  0  0  0  0  0  0  0
  155.6161  135.7631  161.9000 H   0  0  0  0  0  0  0  0  0  0  0  0
  155.4556  137.7198  161.7588 H   0  0  0  0  0  0  0  0  0  0  0  0
  153.1836  138.6087  158.9153 H   0  0  0  0  0  0  0  0  0  0  0  0
  152.4740  140.9300  158.5379 H   0  0  0  0  0  0  0  0  0  0  0  0
  153.1392  143.4326  158.1193 H   0  0  0  0  0  0  0  0  0  0  0  0
  151.5536  142.8875  158.6891 H   0  0  0  0  0  0  0  0  0  0  0  0
  152.8663  145.6013  159.0799 H   0  0  0  0  0  0  0  0  0  0  0  0
  151.2039  145.2826  158.5780 H   0  0  0  0  0  0  0  0  0  0  0  0
  151.7181  145.8769  161.1879 H   0  0  0  0  0  0  0  0  0  0  0  0
  150.5913  144.5778  160.8003 H   0  0  0  0  0  0  0  0  0  0  0  0
  152.0392  143.2653  162.0712 H   0  0  0  0  0  0  0  0  0  0  0  0
  153.4291  144.3166  161.7672 H   0  0  0  0  0  0  0  0  0  0  0  0
  155.0368  139.9223  162.6012 H   0  0  0  0  0  0  0  0  0  0  0  0
  156.4728  131.7756  163.9453 H   0  0  0  0  0  0  0  0  0  0  0  0
  157.5690  133.1009  163.6216 H   0  0  0  0  0  0  0  0  0  0  0  0
  157.2496  132.7682  166.0542 H   0  0  0  0  0  0  0  0  0  0  0  0
  156.7206  134.3658  165.5586 H   0  0  0  0  0  0  0  0  0  0  0  0
  153.2146  133.4108  165.6945 H   0  0  0  0  0  0  0  0  0  0  0  0
  154.2880  134.7536  165.3443 H   0  0  0  0  0  0  0  0  0  0  0  0
  153.4402  133.7686  163.2539 H   0  0  0  0  0  0  0  0  0  0  0  0
  153.9931  132.1744  163.7205 H   0  0  0  0  0  0  0  0  0  0  0  0
  1  2  1  0  0  0  0
  1 26  1  0  0  0  0
  1 27  1  0  0  0  0
  1 28  1  0  0  0  0
  2  3  1  0  0  0  0
  2  4  1  0  0  0  0
  2 20  1  0  0  0  0
  3 29  1  0  0  0  0
  3 30  1  0  0  0  0
  3 31  1  0  0  0  0
  4  5  1  0  0  0  0
  4 32  1  0  0  0  0
  4 33  1  0  0  0  0
  5  6  1  0  0  0  0
  5 34  1  0  0  0  0
  6  7  2  0  0  0  0
  6  8  1  0  0  0  0
  8  9  1  0  0  0  0
  8 35  1  0  0  0  0
  9 19  1  0  0  0  0
  9 10  2  0  0  0  0
 10 11  1  0  0  0  0
 10 36  1  0  0  0  0
 11 12  2  0  0  0  0
 11 37  1  0  0  0  0
 12 13  1  0  0  0  0
 12 18  1  0  0  0  0
 13 17  1  0  0  0  0
 13 14  1  0  0  0  0
 14 15  1  0  0  0  0
 14 38  1  0  0  0  0
 14 39  1  0  0  0  0
 15 16  1  0  0  0  0
 15 40  1  0  0  0  0
 15 41  1  0  0  0  0
 16 17  1  0  0  0  0
 16 42  1  0  0  0  0
 16 43  1  0  0  0  0
 17 44  1  0  0  0  0
 17 45  1  0  0  0  0
 18 19  2  0  0  0  0
 19 46  1  0  0  0  0
 20 25  1  0  0  0  0
 20 21  1  0  0  0  0
 21 22  1  0  0  0  0
 21 47  1  0  0  0  0
 21 48  1  0  0  0  0
 22 23  1  0  0  0  0
 22 49  1  0  0  0  0
 22 50  1  0  0  0  0
 23 24  1  0  0  0  0
 24 25  1  0  0  0  0
 24 51  1  0  0  0  0
 24 52  1  0  0  0  0
 25 53  1  0  0  0  0
 25 54  1  0  0  0  0
M  END
> <s_m_source_file>
AV-unprocessed.smi

> <i_m_source_file_index>
1157

> <i_lp_mmshare_version>
43012

> <i_f3d_flags>
0

> <s_epik_input>
W0NIMl0xW0NIMl1PW0NIMl1bQ0gyXU4xQyhbQ0gzXSkoW0NIM10pW0NIMl1bTkhdQyg9TylbTkhdYzJbY0hdW2NIXWMobltjSF0yKU4zW0NIMl1bQ0gyXVtDSDJdW0NIMl0z

> <s_epik_cmdline>
J2VwaWtfcHl0aG9uJywgJy1waCcsICc3LjAnLCAnLXRuJywgJzgnLCAnLW1hJywgJzIwMCcsICctbWV0YWxfYmluZGluZycsICctaW1hZScsICc8aW5maWxlLm1hZT4nLCAnLW9tYWUnLCAnPG91dGZpbGUubWFlPic=

> <r_lp_tautomer_probability>
1

> <r_epik_Ionization_Penalty>
0.366523

> <r_epik_Ionization_Penalty_Charging>
0

> <r_epik_Ionization_Penalty_Neutral>
0.366523

> <r_epik_State_Penalty>
0.351681

> <r_epik_Charging_Adjusted_Penalty>
0.351681

> <i_epik_Tot_Q>
0

> <i_epik_Tot_abs_Q>
0

> <r_epik_Metal_State_Penalty>
0.334658

> <b_epik_Metal_Only>
0

> <s_lp_Force_Field>
OPLS_2005

> <r_lp_Energy>
67.3279

> <b_lp_Chiralities_Consistent>
1

> <s_lp_Variant>
AV-unprocessed.smi:1157-1

> <Gold.Version>
5.8.1

> <Gold.Id.Protein>
6NUR|6NUR_protein|mol2

> <Gold.PLP.Fitness>
46.0624

> <Gold.PLP.PLP>
-44.0432

> <Gold.PLP.part.hbond>
-1.1843

> <Gold.PLP.part.metal>
0.0000

> <Gold.PLP.part.buried>
-5.9284

> <Gold.PLP.part.nonpolar>
-37.7349

> <Gold.PLP.part.repulsive>
0.1470

> <Gold.PLP.ligand.clash>
0.0000

> <Gold.PLP.ligand.torsion>
0.6136

> <Gold.PLP.Chemscore.Hbond>
1.0000

> <Gold.PLP.Chemscore.CHOScore>
0.0000

> <Gold.PLP.Chemscore.Metal>
0.0000

> <Gold.Chemscore.Hbonds>
donor molecule, donor type, donor heavy atom, donor atom, acceptor molecule, acceptor atom, score
      P1  H  6896  6907       L1     7  1.00

> <Gold.PLP.Chemscore.Internal.Correction>
0.2464

> <Gold.Rescore>
     Score         DG    S(hbond)    S(metal)    S(lipo)     H(rot)  DE(clash)    DE(int)     intcor
     15.79     -17.53       1.00        0.00     104.66       1.38       0.25       1.50       ----

> <Gold.Chemscore.Fitness>
15.7851

> <Gold.Chemscore.DG>
-17.5289

> <Gold.Chemscore.ZeroCoef>
-5.4800

> <Gold.Chemscore.Hbond>
1.0000

> <Gold.Chemscore.Metal>
0.0000

> <Gold.Chemscore.Lipo>
104.6553

> <Gold.Chemscore.Internal_Hbond>
0.0000

> <Gold.Chemscore.DEClash>
0.2483

> <Gold.Chemscore.DEInternal>
1.4955

> <Gold.Chemscore.Rot>
1.3812

> <Gold.Chemscore.Internal.Correction>
   9.000000E+99

> <Gold.Chemscore.Hbonds>
donor molecule, donor type, donor heavy atom, donor atom, acceptor molecule, acceptor atom, score
      P1  H  6896  6907       L1     7  0.90

> <Gold.Chemscore.Hbond.Weighted>
-3.3400

> <Gold.Chemscore.Metal.Weighted>
-0.0000

> <Gold.Chemscore.Lipo.Weighted>
-12.2447

> <Gold.Chemscore.Internal_Hbond.Weighted>
0.0000

> <Gold.Chemscore.DEClash.Weighted>
0.2483

> <Gold.Chemscore.DEInternal.Weighted>
1.4955

> <Gold.Chemscore.Rot.Weighted>
3.5358

> <Gold.Chemscore.Internal.Correction.Weighted>
   9.000000E+99

> <Gold.Protein.RotatedTorsions>
[ 6907 6896 6895 6894 ] final   44.20 input  -60.11 | X-H torsion
[ 7974 7965 7964 7962 ] final   20.04 input  175.53 | X-H torsion
[ 8008 7997 7996 7995 ] final  -70.19 input   59.86 | X-H torsion
[ 10167 10162 10161 10158 ] final -138.66 input  -65.29 | X-H torsion
[ 10718 10713 10712 10709 ] final  -92.56 input   66.30 | X-H torsion
[ 10763 10752 10751 10750 ] final   70.84 input  -60.55 | X-H torsion
[ 11005 11000 10999 10996 ] final  114.60 input  -57.11 | X-H torsion

> <Gold.Protein.ActiveResidues>
 VAL166  LYS551  ARG553  GLY616  TRP617  ASP618  TYR619  PRO620  LYS621  CYS622 
 ASP623  PHE694  ASN695  SER759  ASP760  ASP761  ALA762  ILE779  LEU786  VAL792 
 PHE793  MET794  SER795  GLU796  ALA797  LYS798  CYS799  TRP800  GLU811  SER814 

> <Gold.Protein.RotatedAtoms>
  152.2296  134.8335  160.0475 H   0  0  0  0  0  0  0  0  0  0  0  0  # atno 6907 bound_to 6896
  151.9089  133.3551  159.3864 H   0  0  0  0  0  0  0  0  0  0  0  0  # atno 6908 bound_to 6896
  150.7022  134.4678  159.5455 H   0  0  0  0  0  0  0  0  0  0  0  0  # atno 6909 bound_to 6896
  146.2126  139.8226  142.8676 H   0  0  0  0  0  0  0  0  0  0  0  0  # atno 7974 bound_to 7965
  154.4993  140.0839  156.7765 H   0  0  0  0  0  0  0  0  0  0  0  0  # atno 8008 bound_to 7997
  155.4040  140.3438  155.4241 H   0  0  0  0  0  0  0  0  0  0  0  0  # atno 8009 bound_to 7997
  156.1436  140.1537  156.8870 H   0  0  0  0  0  0  0  0  0  0  0  0  # atno 8010 bound_to 7997
  139.8456  143.7265  152.2661 H   0  0  0  0  0  0  0  0  0  0  0  0  # atno 10167 bound_to 10162
  156.0003  130.4992  150.5643 H   0  0  0  0  0  0  0  0  0  0  0  0  # atno 10718 bound_to 10713
  153.0365  135.5159  154.7503 H   0  0  0  0  0  0  0  0  0  0  0  0  # atno 10763 bound_to 10752
  154.6475  135.2920  155.0030 H   0  0  0  0  0  0  0  0  0  0  0  0  # atno 10764 bound_to 10752
  154.0926  135.6648  153.4907 H   0  0  0  0  0  0  0  0  0  0  0  0  # atno 10765 bound_to 10752
  139.8985  134.9570  156.6916 H   0  0  0  0  0  0  0  0  0  0  0  0  # atno 11005 bound_to 11000
  145.3080  141.0212  143.3570 LP  0  0  0  0  0  0  0  0  0  0  0  0  # atno 17320 bound_to 7965
  144.8956  139.4716  143.6657 LP  0  0  0  0  0  0  0  0  0  0  0  0  # atno 17321 bound_to 7965
  139.7516  144.7532  151.0498 LP  0  0  0  0  0  0  0  0  0  0  0  0  # atno 17342 bound_to 10162
  140.7793  143.4854  150.9963 LP  0  0  0  0  0  0  0  0  0  0  0  0  # atno 17343 bound_to 10162
  157.3548  131.0739  151.1684 LP  0  0  0  0  0  0  0  0  0  0  0  0  # atno 17370 bound_to 10713
  157.2489  130.6604  149.5922 LP  0  0  0  0  0  0  0  0  0  0  0  0  # atno 17371 bound_to 10713
  140.7220  133.9132  155.8153 LP  0  0  0  0  0  0  0  0  0  0  0  0  # atno 17394 bound_to 11000
  141.0220  134.0876  157.4110 LP  0  0  0  0  0  0  0  0  0  0  0  0  # atno 17395 bound_to 11000

$$$$
