AV-unprocessed.smi:925|AV-procd|sdf|4182|dock2
  -GOLD-   22720 2 83D 1   1.00000     0.00000
 Structure written by MMmdl.
 28 29  0  0  0  0  0  0  0  0  2 V2000
  150.7559  141.1678  157.0813 O   0  0  0  0  0  0  0  0  0  0  0  0
  151.8587  140.8563  157.5371 C   0  0  0  0  0  0  0  0  0  0  0  0
  152.6376  139.8324  157.1190 N   0  5  0  0  0  0  0  0  0  0  0  0
  152.2025  139.0103  156.1498 C   0  0  0  0  0  0  0  0  0  0  0  0
  152.6397  137.7463  156.0300 N   0  0  0  0  0  0  0  0  0  0  0  0
  152.0627  137.0675  154.9652 N   0  0  0  0  0  0  0  0  0  0  0  0
  151.1942  137.8384  154.3112 C   0  0  0  0  0  0  0  0  0  0  0  0
  150.9993  139.4615  154.9386 S   0  0  0  0  0  0  0  0  0  0  0  0
  152.3911  141.5623  158.5454 N   0  0  0  0  0  0  0  0  0  0  0  0
  151.7847  142.7168  159.2036 C   0  0  0  0  0  0  0  0  0  0  0  0
  151.5867  143.8738  158.2020 C   0  0  0  0  0  0  0  0  0  0  0  0
  151.0238  145.1265  158.8928 C   0  0  0  0  0  0  0  0  0  0  0  0
  151.9112  145.5619  160.0696 C   0  0  0  0  0  0  0  0  0  0  0  0
  152.1045  144.4134  161.0723 C   0  0  0  0  0  0  0  0  0  0  0  0
  152.6707  143.1614  160.3829 C   0  0  0  0  0  0  0  0  0  0  0  0
  150.6627  137.4480  153.4564 H   0  0  0  0  0  0  0  0  0  0  0  0
  153.2961  141.2701  158.8841 H   0  0  0  0  0  0  0  0  0  0  0  0
  150.8118  142.4261  159.6052 H   0  0  0  0  0  0  0  0  0  0  0  0
  152.5386  144.1187  157.7288 H   0  0  0  0  0  0  0  0  0  0  0  0
  150.9141  143.5677  157.3998 H   0  0  0  0  0  0  0  0  0  0  0  0
  150.9357  145.9400  158.1722 H   0  0  0  0  0  0  0  0  0  0  0  0
  150.0148  144.9213  159.2524 H   0  0  0  0  0  0  0  0  0  0  0  0
  152.8823  145.8870  159.6945 H   0  0  0  0  0  0  0  0  0  0  0  0
  151.4686  146.4232  160.5710 H   0  0  0  0  0  0  0  0  0  0  0  0
  152.7714  144.7290  161.8751 H   0  0  0  0  0  0  0  0  0  0  0  0
  151.1494  144.1719  161.5402 H   0  0  0  0  0  0  0  0  0  0  0  0
  152.7601  142.3520  161.1087 H   0  0  0  0  0  0  0  0  0  0  0  0
  153.6811  143.3710  160.0280 H   0  0  0  0  0  0  0  0  0  0  0  0
  1  2  2  0  0  0  0
  2  3  1  0  0  0  0
  2  9  1  0  0  0  0
  3  4  1  0  0  0  0
  4  8  1  0  0  0  0
  4  5  2  0  0  0  0
  5  6  1  0  0  0  0
  6  7  2  0  0  0  0
  7  8  1  0  0  0  0
  7 16  1  0  0  0  0
  9 10  1  0  0  0  0
  9 17  1  0  0  0  0
 10 15  1  0  0  0  0
 10 11  1  0  0  0  0
 10 18  1  0  0  0  0
 11 12  1  0  0  0  0
 11 19  1  0  0  0  0
 11 20  1  0  0  0  0
 12 13  1  0  0  0  0
 12 21  1  0  0  0  0
 12 22  1  0  0  0  0
 13 14  1  0  0  0  0
 13 23  1  0  0  0  0
 13 24  1  0  0  0  0
 14 15  1  0  0  0  0
 14 25  1  0  0  0  0
 14 26  1  0  0  0  0
 15 27  1  0  0  0  0
 15 28  1  0  0  0  0
M  CHG  1   3  -1
M  END
> <s_m_source_file>
AV-unprocessed.smi

> <i_m_source_file_index>
925

> <i_lp_mmshare_version>
43012

> <i_f3d_flags>
0

> <s_epik_input>
czFbY0hdbm5jMVtOSF1DKD1PKVtOSF1bQ0hdMltDSDJdW0NIMl1bQ0gyXVtDSDJdW0NIMl0y

> <s_epik_cmdline>
J2VwaWtfcHl0aG9uJywgJy1waCcsICc3LjAnLCAnLXRuJywgJzgnLCAnLW1hJywgJzIwMCcsICctbWV0YWxfYmluZGluZycsICctaW1hZScsICc8aW5maWxlLm1hZT4nLCAnLW9tYWUnLCAnPG91dGZpbGUubWFlPic=

> <r_lp_tautomer_probability>
1

> <r_epik_Ionization_Penalty>
4.54636

> <r_epik_Ionization_Penalty_Charging>
4.4996

> <r_epik_Ionization_Penalty_Neutral>
0.0467566

> <r_epik_State_Penalty>
4.4993

> <r_epik_Charging_Adjusted_Penalty>
8.99891

> <i_epik_Tot_Q>
-1

> <i_epik_Tot_abs_Q>
1

> <r_epik_Metal_State_Penalty>
0.819079

> <b_epik_Metal_Only>
1

> <s_lp_Force_Field>
OPLS_2005

> <r_lp_Energy>
6.60766

> <b_lp_Chiralities_Consistent>
1

> <s_lp_Variant>
AV-unprocessed.smi:925-2

> <Gold.Version>
5.8.1

> <Gold.Id.Protein>
6NUR|6NUR_protein|mol2

> <Gold.PLP.Fitness>
47.2013

> <Gold.PLP.PLP>
-35.2093

> <Gold.PLP.part.hbond>
-2.2426

> <Gold.PLP.part.metal>
0.0000

> <Gold.PLP.part.buried>
-4.2997

> <Gold.PLP.part.nonpolar>
-29.4146

> <Gold.PLP.part.repulsive>
0.2317

> <Gold.PLP.ligand.clash>
0.0041

> <Gold.PLP.ligand.torsion>
0.1479

> <Gold.PLP.Chemscore.Hbond>
2.9120

> <Gold.PLP.Chemscore.CHOScore>
1.1817

> <Gold.PLP.Chemscore.Metal>
0.0000

> <Gold.Chemscore.Hbonds>
donor molecule, donor type, donor heavy atom, donor atom, acceptor molecule, acceptor atom, score
      P1  H  7997  8010       L1     3  2.00
      P1  H 10752 10764       L1     6  0.88
      L1  C     7    16       P1  7948  0.45
      L1  C     7    16       P1  7949  0.70

> <Gold.PLP.Chemscore.Internal.Correction>
0.0109

> <Gold.Rescore>
     Score         DG    S(hbond)    S(metal)    S(lipo)     H(rot)  DE(clash)    DE(int)     intcor
     16.56     -18.24       1.62        0.00      84.70       1.00       0.04       1.64       ----

> <Gold.Chemscore.Fitness>
16.5577

> <Gold.Chemscore.DG>
-18.2386

> <Gold.Chemscore.ZeroCoef>
-5.4800

> <Gold.Chemscore.Hbond>
1.6193

> <Gold.Chemscore.Metal>
0.0000

> <Gold.Chemscore.Lipo>
84.7025

> <Gold.Chemscore.Internal_Hbond>
0.0000

> <Gold.Chemscore.DEClash>
0.0402

> <Gold.Chemscore.DEInternal>
1.6407

> <Gold.Chemscore.Rot>
1.0000

> <Gold.Chemscore.Internal.Correction>
   9.000000E+99

> <Gold.Chemscore.Hbonds>
donor molecule, donor type, donor heavy atom, donor atom, acceptor molecule, acceptor atom, score
      P1  H  7997  8010       L1     3  0.39
      P1  H 10752 10764       L1     6  0.80

> <Gold.Chemscore.Hbond.Weighted>
-5.4084

> <Gold.Chemscore.Metal.Weighted>
-0.0000

> <Gold.Chemscore.Lipo.Weighted>
-9.9102

> <Gold.Chemscore.Internal_Hbond.Weighted>
0.0000

> <Gold.Chemscore.DEClash.Weighted>
0.0402

> <Gold.Chemscore.DEInternal.Weighted>
1.6407

> <Gold.Chemscore.Rot.Weighted>
2.5600

> <Gold.Chemscore.Internal.Correction.Weighted>
   9.000000E+99

> <Gold.Protein.RotatedTorsions>
[ 6907 6896 6895 6894 ] final  -14.88 input  -60.11 | X-H torsion
[ 7974 7965 7964 7962 ] final  122.56 input  175.53 | X-H torsion
[ 8008 7997 7996 7995 ] final   57.77 input   59.86 | X-H torsion
[ 10167 10162 10161 10158 ] final   -2.36 input  -65.29 | X-H torsion
[ 10718 10713 10712 10709 ] final  128.49 input   66.30 | X-H torsion
[ 10763 10752 10751 10750 ] final  -72.12 input  -60.55 | X-H torsion
[ 11005 11000 10999 10996 ] final -119.90 input  -57.11 | X-H torsion

> <Gold.Protein.ActiveResidues>
 VAL166  LYS551  ARG553  GLY616  TRP617  ASP618  TYR619  PRO620  LYS621  CYS622 
 ASP623  PHE694  ASN695  SER759  ASP760  ASP761  ALA762  ILE779  LEU786  VAL792 
 PHE793  MET794  SER795  GLU796  ALA797  LYS798  CYS799  TRP800  GLU811  SER814 

> <Gold.Protein.RotatedAtoms>
  151.3326  135.0845  159.9343 H   0  0  0  0  0  0  0  0  0  0  0  0  # atno 6907 bound_to 6896
  152.5231  133.9527  159.7690 H   0  0  0  0  0  0  0  0  0  0  0  0  # atno 6908 bound_to 6896
  150.9869  133.6136  159.2744 H   0  0  0  0  0  0  0  0  0  0  0  0  # atno 6909 bound_to 6896
  145.1062  139.3484  143.4786 H   0  0  0  0  0  0  0  0  0  0  0  0  # atno 7974 bound_to 7965
  155.5391  140.3484  155.4443 H   0  0  0  0  0  0  0  0  0  0  0  0  # atno 8008 bound_to 7997
  156.0664  140.1352  156.9907 H   0  0  0  0  0  0  0  0  0  0  0  0  # atno 8009 bound_to 7997
  154.4505  140.0975  156.6578 H   0  0  0  0  0  0  0  0  0  0  0  0  # atno 8010 bound_to 7997
  140.6848  143.6666  150.8221 H   0  0  0  0  0  0  0  0  0  0  0  0  # atno 10167 bound_to 10162
  157.5240  131.1098  150.9111 H   0  0  0  0  0  0  0  0  0  0  0  0  # atno 10718 bound_to 10713
  154.4413  135.5940  153.6131 H   0  0  0  0  0  0  0  0  0  0  0  0  # atno 10763 bound_to 10752
  152.9806  135.5998  154.3719 H   0  0  0  0  0  0  0  0  0  0  0  0  # atno 10764 bound_to 10752
  154.3569  135.2841  155.2320 H   0  0  0  0  0  0  0  0  0  0  0  0  # atno 10765 bound_to 10752
  141.0182  134.0163  157.3319 H   0  0  0  0  0  0  0  0  0  0  0  0  # atno 11005 bound_to 11000
  146.3528  140.0961  142.8610 LP  0  0  0  0  0  0  0  0  0  0  0  0  # atno 17320 bound_to 7965
  145.0899  140.9277  143.4775 LP  0  0  0  0  0  0  0  0  0  0  0  0  # atno 17321 bound_to 7965
  140.0371  143.5384  152.2734 LP  0  0  0  0  0  0  0  0  0  0  0  0  # atno 17342 bound_to 10162
  139.6197  144.7627  151.2766 LP  0  0  0  0  0  0  0  0  0  0  0  0  # atno 17343 bound_to 10162
  156.9713  130.5492  149.5290 LP  0  0  0  0  0  0  0  0  0  0  0  0  # atno 17370 bound_to 10713
  156.0373  130.5460  150.8686 LP  0  0  0  0  0  0  0  0  0  0  0  0  # atno 17371 bound_to 10713
  139.9130  135.0193  156.7769 LP  0  0  0  0  0  0  0  0  0  0  0  0  # atno 17394 bound_to 11000
  140.6618  133.9638  155.7809 LP  0  0  0  0  0  0  0  0  0  0  0  0  # atno 17395 bound_to 11000

$$$$
