AV-unprocessed.smi:55|AV-procd|sdf|570|dock2
  -GOLD-   2262016473D 1   1.00000     0.00000
 Structure written by MMmdl.
 30 31  0  0  0  0  0  0  0  0  2 V2000
  152.1254  137.4475  154.0962 C   0  0  0  0  0  0  0  0  0  0  0  0
  151.2980  138.6919  154.3663 C   0  0  0  0  0  0  0  0  0  0  0  0
  150.0175  138.8110  153.9510 C   0  0  0  0  0  0  0  0  0  0  0  0
  149.2678  139.9474  154.1966 N   0  0  0  0  0  0  0  0  0  0  0  0
  147.8402  140.0410  153.7073 C   0  0  1  0  0  0  0  0  0  0  0  0
  147.7731  139.8576  152.1894 C   0  0  0  0  0  0  0  0  0  0  0  0
  146.5081  139.0385  152.0382 C   0  0  1  0  0  0  0  0  0  0  0  0
  146.5379  138.2824  150.8450 O   0  0  0  0  0  0  0  0  0  0  0  0
  146.5501  138.1597  153.2920 C   0  0  2  0  0  0  0  0  0  0  0  0
  145.1833  137.6347  153.7580 C   0  0  0  0  0  0  0  0  0  0  0  0
  144.2999  137.5045  152.6642 O   0  0  0  0  0  0  0  0  0  0  0  0
  147.0888  139.0180  154.2949 O   0  0  0  0  0  0  0  0  0  0  0  0
  149.8563  141.0414  154.8841 C   0  0  0  0  0  0  0  0  0  0  0  0
  149.1796  142.0554  155.0561 O   0  0  0  0  0  0  0  0  0  0  0  0
  151.1450  140.9267  155.3152 N   0  5  0  0  0  0  0  0  0  0  0  0
  151.9006  139.8118  155.0992 C   0  0  0  0  0  0  0  0  0  0  0  0
  153.0617  139.7214  155.4967 O   0  0  0  0  0  0  0  0  0  0  0  0
  147.4276  140.9898  154.0513 H   0  0  0  0  0  0  0  0  0  0  0  0
  145.6350  139.6924  152.0518 H   0  0  0  0  0  0  0  0  0  0  0  0
  147.2496  137.3335  153.1526 H   0  0  0  0  0  0  0  0  0  0  0  0
  151.5507  136.7009  153.5476 H   0  0  0  0  0  0  0  0  0  0  0  0
  152.4549  136.9983  155.0335 H   0  0  0  0  0  0  0  0  0  0  0  0
  153.0071  137.6970  153.5050 H   0  0  0  0  0  0  0  0  0  0  0  0
  149.5708  137.9936  153.4059 H   0  0  0  0  0  0  0  0  0  0  0  0
  147.7455  140.8183  151.6744 H   0  0  0  0  0  0  0  0  0  0  0  0
  148.6434  139.2946  151.8471 H   0  0  0  0  0  0  0  0  0  0  0  0
  145.6652  138.2657  150.4820 H   0  0  0  0  0  0  0  0  0  0  0  0
  145.2996  136.6542  154.2202 H   0  0  0  0  0  0  0  0  0  0  0  0
  144.7457  138.2939  154.5080 H   0  0  0  0  0  0  0  0  0  0  0  0
  143.7653  138.2825  152.6163 H   0  0  0  0  0  0  0  0  0  0  0  0
  1  2  1  0  0  0  0
  1 21  1  0  0  0  0
  1 22  1  0  0  0  0
  1 23  1  0  0  0  0
  2 16  1  0  0  0  0
  2  3  2  0  0  0  0
  3  4  1  0  0  0  0
  3 24  1  0  0  0  0
  4  5  1  0  0  0  0
  4 13  1  0  0  0  0
  5 18  1  0  0  0  0
  5 12  1  0  0  0  0
  5  6  1  0  0  0  0
  6  7  1  0  0  0  0
  6 25  1  0  0  0  0
  6 26  1  0  0  0  0
  7 19  1  0  0  0  0
  7  8  1  0  0  0  0
  7  9  1  0  0  0  0
  8 27  1  0  0  0  0
  9 20  1  0  0  0  0
  9 10  1  0  0  0  0
  9 12  1  0  0  0  0
 10 11  1  0  0  0  0
 10 28  1  0  0  0  0
 10 29  1  0  0  0  0
 11 30  1  0  0  0  0
 13 14  2  0  0  0  0
 13 15  1  0  0  0  0
 15 16  1  0  0  0  0
 16 17  2  0  0  0  0
M  CHG  1  15  -1
M  END
> <s_m_source_file>
AV-unprocessed.smi

> <i_m_source_file_index>
55

> <i_lp_mmshare_version>
43012

> <i_f3d_flags>
0

> <s_epik_input>
Tz1jMVtuSF1jKD1PKW4oW2NIXWMxW0NIM10pW0NAQEhdMltDSDJdW0NAQEhdKFtPSF0pW0NAQEhdKE8yKVtDSDJdW09IXQ==

> <s_epik_cmdline>
J2VwaWtfcHl0aG9uJywgJy1waCcsICc3LjAnLCAnLXRuJywgJzgnLCAnLW1hJywgJzIwMCcsICctbWV0YWxfYmluZGluZycsICctaW1hZScsICc8aW5maWxlLm1hZT4nLCAnLW9tYWUnLCAnPG91dGZpbGUubWFlPic=

> <r_lp_tautomer_probability>
0.999537

> <r_epik_Ionization_Penalty>
3.66603

> <r_epik_Ionization_Penalty_Charging>
1.09773e-07

> <r_epik_Ionization_Penalty_Neutral>
3.66603

> <r_epik_State_Penalty>
3.66562

> <r_epik_Charging_Adjusted_Penalty>
3.66562

> <i_epik_Tot_Q>
-1

> <i_epik_Tot_abs_Q>
1

> <r_epik_Metal_State_Penalty>
0.234536

> <b_epik_Metal_Only>
1

> <s_epik_Chemistry_Notes>
This compound contains an acetal/aminal-like group ( X-CH(R)-Y where X, Y are N, S, or O) that may be acid/base labile, releasing an aldehyde.

> <s_lp_Force_Field>
OPLS_2005

> <r_lp_Energy>
34.2111

> <b_lp_Chiralities_Consistent>
1

> <s_lp_Variant>
AV-unprocessed.smi:55-10

> <Gold.Version>
5.8.1

> <Gold.Id.Protein>
6NUR|6NUR_protein|mol2

> <Gold.PLP.Fitness>
39.1385

> <Gold.PLP.PLP>
-25.0450

> <Gold.PLP.part.hbond>
-5.9366

> <Gold.PLP.part.metal>
0.0000

> <Gold.PLP.part.buried>
6.4247

> <Gold.PLP.part.nonpolar>
-27.7617

> <Gold.PLP.part.repulsive>
2.7009

> <Gold.PLP.ligand.clash>
0.0000

> <Gold.PLP.ligand.torsion>
0.4458

> <Gold.PLP.Chemscore.Hbond>
3.9920

> <Gold.PLP.Chemscore.CHOScore>
1.0000

> <Gold.PLP.Chemscore.Metal>
0.0000

> <Gold.Chemscore.Hbonds>
donor molecule, donor type, donor heavy atom, donor atom, acceptor molecule, acceptor atom, score
      L1  H     8    27       P1 10171  1.00
      L1  H    11    30       P1 10175  0.67
      P1  H  7954  7966       L1     8  1.00
      P1  H  7997  8010       L1    17  0.94
      L1  C     3    24       P1  7948  1.00

> <Gold.PLP.Chemscore.Internal.Correction>
0.0091

> <Gold.Rescore>
     Score         DG    S(hbond)    S(metal)    S(lipo)     H(rot)  DE(clash)    DE(int)     intcor
     12.45     -17.40       3.76        0.00      53.27       2.69       4.71       0.24       ----

> <Gold.Chemscore.Fitness>
12.4501

> <Gold.Chemscore.DG>
-17.4006

> <Gold.Chemscore.ZeroCoef>
-5.4800

> <Gold.Chemscore.Hbond>
3.7624

> <Gold.Chemscore.Metal>
0.0000

> <Gold.Chemscore.Lipo>
53.2747

> <Gold.Chemscore.Internal_Hbond>
0.0000

> <Gold.Chemscore.DEClash>
4.7119

> <Gold.Chemscore.DEInternal>
0.2385

> <Gold.Chemscore.Rot>
2.6871

> <Gold.Chemscore.Internal.Correction>
   9.000000E+99

> <Gold.Chemscore.Hbonds>
donor molecule, donor type, donor heavy atom, donor atom, acceptor molecule, acceptor atom, score
      L1  H     8    27       P1 10171  1.00
      L1  H    11    30       P1 10175  0.62
      P1  H  7954  7966       L1     8  0.95
      P1  H  7997  8010       L1    17  0.90

> <Gold.Chemscore.Hbond.Weighted>
-12.5665

> <Gold.Chemscore.Metal.Weighted>
-0.0000

> <Gold.Chemscore.Lipo.Weighted>
-6.2331

> <Gold.Chemscore.Internal_Hbond.Weighted>
0.0000

> <Gold.Chemscore.DEClash.Weighted>
4.7119

> <Gold.Chemscore.DEInternal.Weighted>
0.2385

> <Gold.Chemscore.Rot.Weighted>
6.8791

> <Gold.Chemscore.Internal.Correction.Weighted>
   9.000000E+99

> <Gold.Protein.RotatedTorsions>
[ 6907 6896 6895 6894 ] final  175.91 input  -60.11 | X-H torsion
[ 7974 7965 7964 7962 ] final   71.60 input  175.53 | X-H torsion
[ 8008 7997 7996 7995 ] final  100.46 input   59.86 | X-H torsion
[ 10167 10162 10161 10158 ] final -155.75 input  -65.29 | X-H torsion
[ 10718 10713 10712 10709 ] final -156.67 input   66.30 | X-H torsion
[ 10763 10752 10751 10750 ] final   39.07 input  -60.55 | X-H torsion
[ 11005 11000 10999 10996 ] final  -16.62 input  -57.11 | X-H torsion

> <Gold.Protein.ActiveResidues>
 VAL166  LYS551  ARG553  GLY616  TRP617  ASP618  TYR619  PRO620  LYS621  CYS622 
 ASP623  PHE694  ASN695  SER759  ASP760  ASP761  ALA762  ILE779  LEU786  VAL792 
 PHE793  MET794  SER795  GLU796  ALA797  LYS798  CYS799  TRP800  GLU811  SER814 

> <Gold.Protein.RotatedAtoms>
  151.7286  133.3317  159.3334 H   0  0  0  0  0  0  0  0  0  0  0  0  # atno 6907 bound_to 6896
  150.7622  134.6384  159.6233 H   0  0  0  0  0  0  0  0  0  0  0  0  # atno 6908 bound_to 6896
  152.3606  134.6880  160.0260 H   0  0  0  0  0  0  0  0  0  0  0  0  # atno 6909 bound_to 6896
  145.7638  139.2812  143.1361 H   0  0  0  0  0  0  0  0  0  0  0  0  # atno 7974 bound_to 7965
  156.1205  140.3213  155.8201 H   0  0  0  0  0  0  0  0  0  0  0  0  # atno 8008 bound_to 7997
  155.4513  140.0532  157.3018 H   0  0  0  0  0  0  0  0  0  0  0  0  # atno 8009 bound_to 7997
  154.4824  140.2058  155.9747 H   0  0  0  0  0  0  0  0  0  0  0  0  # atno 8010 bound_to 7997
  139.6906  143.9427  152.2383 H   0  0  0  0  0  0  0  0  0  0  0  0  # atno 10167 bound_to 10162
  156.5298  130.8515  151.2712 H   0  0  0  0  0  0  0  0  0  0  0  0  # atno 10718 bound_to 10713
  152.9979  135.6231  154.2406 H   0  0  0  0  0  0  0  0  0  0  0  0  # atno 10763 bound_to 10752
  154.2146  135.2798  155.2948 H   0  0  0  0  0  0  0  0  0  0  0  0  # atno 10764 bound_to 10752
  154.5578  135.5714  153.7038 H   0  0  0  0  0  0  0  0  0  0  0  0  # atno 10765 bound_to 10752
  140.8086  133.8158  155.9541 H   0  0  0  0  0  0  0  0  0  0  0  0  # atno 11005 bound_to 11000
  146.0238  140.8323  142.9910 LP  0  0  0  0  0  0  0  0  0  0  0  0  # atno 17320 bound_to 7965
  144.6825  140.2667  143.7311 LP  0  0  0  0  0  0  0  0  0  0  0  0  # atno 17321 bound_to 7965
  139.9242  144.6781  150.8429 LP  0  0  0  0  0  0  0  0  0  0  0  0  # atno 17342 bound_to 10162
  140.7681  143.3353  151.2322 LP  0  0  0  0  0  0  0  0  0  0  0  0  # atno 17343 bound_to 10162
  157.7423  130.9889  150.2511 LP  0  0  0  0  0  0  0  0  0  0  0  0  # atno 17370 bound_to 10713
  156.3071  130.3766  149.7696 LP  0  0  0  0  0  0  0  0  0  0  0  0  # atno 17371 bound_to 10713
  140.9221  134.2128  157.4920 LP  0  0  0  0  0  0  0  0  0  0  0  0  # atno 17394 bound_to 11000
  139.8716  134.9797  156.5045 LP  0  0  0  0  0  0  0  0  0  0  0  0  # atno 17395 bound_to 11000

$$$$
