AV-unprocessed.smi:2087|AV-procd|sdf|8521|dock9
  -GOLD-   2272011233D 1   1.00000     0.00000
 Structure written by MMmdl.
 51 52  0  0  0  0  0  0  0  0  2 V2000
  146.1478  134.2746  150.7606 C   0  0  0  0  0  0  0  0  0  0  0  0
  145.1379  133.1566  151.0603 C   0  0  0  0  0  0  0  0  0  0  0  0
  145.0482  132.1830  149.8729 C   0  0  0  0  0  0  0  0  0  0  0  0
  143.7600  133.7528  151.4225 C   0  0  0  0  0  0  0  0  0  0  0  0
  143.6140  134.0432  152.8750 N   0  3  2  0  0  0  0  0  0  0  0  0
  142.6368  135.1186  153.1701 C   0  0  0  0  0  0  0  0  0  0  0  0
  143.2405  136.5068  152.8961 C   0  0  0  0  0  0  0  0  0  0  0  0
  144.4225  136.6662  153.6701 O   0  0  0  0  0  0  0  0  0  0  0  0
  145.4306  135.7182  153.3354 C   0  0  1  0  0  0  0  0  0  0  0  0
  146.6715  136.0474  154.1800 C   0  0  0  0  0  0  0  0  0  0  0  0
  147.2923  137.2945  153.7507 N   0  0  0  0  0  0  0  0  0  0  0  0
  146.9533  138.5076  154.2084 C   0  0  0  0  0  0  0  0  0  0  0  0
  146.0814  138.6864  155.0596 O   0  0  0  0  0  0  0  0  0  0  0  0
  147.7390  139.6902  153.6254 C   0  0  0  0  0  0  0  0  0  0  0  0
  149.0365  139.9006  154.2805 N   0  0  0  0  0  0  0  0  0  0  0  0
  150.0102  138.9215  154.1993 C   0  0  0  0  0  0  0  0  0  0  0  0
  151.2233  139.0269  154.7840 C   0  0  0  0  0  0  0  0  0  0  0  0
  151.5815  140.2131  155.5514 C   0  0  0  0  0  0  0  0  0  0  0  0
  152.6684  140.3533  156.1141 O   0  0  0  0  0  0  0  0  0  0  0  0
  150.5736  141.2030  155.6108 N   0  0  0  0  0  0  0  0  0  0  0  0
  150.8807  142.3948  156.3739 C   0  0  0  0  0  0  0  0  0  0  0  0
  149.3003  141.0827  155.0066 C   0  0  0  0  0  0  0  0  0  0  0  0
  148.4380  141.9593  155.1011 O   0  0  0  0  0  0  0  0  0  0  0  0
  144.8898  134.2910  153.5953 C   0  0  0  0  0  0  0  0  0  0  0  0
  145.8388  134.8706  149.9011 H   0  0  0  0  0  0  0  0  0  0  0  0
  147.1348  133.8652  150.5431 H   0  0  0  0  0  0  0  0  0  0  0  0
  146.2542  134.9481  151.6116 H   0  0  0  0  0  0  0  0  0  0  0  0
  145.5280  132.6060  151.9154 H   0  0  0  0  0  0  0  0  0  0  0  0
  144.6589  132.6772  148.9821 H   0  0  0  0  0  0  0  0  0  0  0  0
  144.3972  131.3375  150.0967 H   0  0  0  0  0  0  0  0  0  0  0  0
  146.0294  131.7775  149.6242 H   0  0  0  0  0  0  0  0  0  0  0  0
  143.5719  134.6553  150.8411 H   0  0  0  0  0  0  0  0  0  0  0  0
  142.9938  133.0380  151.1187 H   0  0  0  0  0  0  0  0  0  0  0  0
  141.7175  134.9738  152.6013 H   0  0  0  0  0  0  0  0  0  0  0  0
  142.3579  135.0493  154.2224 H   0  0  0  0  0  0  0  0  0  0  0  0
  143.4584  136.6446  151.8359 H   0  0  0  0  0  0  0  0  0  0  0  0
  142.5308  137.2851  153.1768 H   0  0  0  0  0  0  0  0  0  0  0  0
  145.6907  135.8393  152.2828 H   0  0  0  0  0  0  0  0  0  0  0  0
  146.3911  136.1436  155.2299 H   0  0  0  0  0  0  0  0  0  0  0  0
  147.3890  135.2274  154.1168 H   0  0  0  0  0  0  0  0  0  0  0  0
  148.0182  137.2343  153.0514 H   0  0  0  0  0  0  0  0  0  0  0  0
  147.8861  139.5072  152.5602 H   0  0  0  0  0  0  0  0  0  0  0  0
  147.1378  140.5993  153.6870 H   0  0  0  0  0  0  0  0  0  0  0  0
  149.7902  138.0209  153.6446 H   0  0  0  0  0  0  0  0  0  0  0  0
  151.9367  138.2220  154.6854 H   0  0  0  0  0  0  0  0  0  0  0  0
  150.1396  143.1747  156.2012 H   0  0  0  0  0  0  0  0  0  0  0  0
  151.8559  142.7602  156.0462 H   0  0  0  0  0  0  0  0  0  0  0  0
  150.8967  142.1037  157.4253 H   0  0  0  0  0  0  0  0  0  0  0  0
  144.6995  134.1686  154.6624 H   0  0  0  0  0  0  0  0  0  0  0  0
  145.6330  133.5386  153.3362 H   0  0  0  0  0  0  0  0  0  0  0  0
  143.2197  133.2006  153.2688 H   0  0  0  0  0  0  0  0  0  0  0  0
  1  2  1  0  0  0  0
  1 25  1  0  0  0  0
  1 26  1  0  0  0  0
  1 27  1  0  0  0  0
  2  3  1  0  0  0  0
  2  4  1  0  0  0  0
  2 28  1  0  0  0  0
  3 29  1  0  0  0  0
  3 30  1  0  0  0  0
  3 31  1  0  0  0  0
  4  5  1  0  0  0  0
  4 32  1  0  0  0  0
  4 33  1  0  0  0  0
  5 24  1  0  0  0  0
  5  6  1  0  0  0  0
  5 51  1  0  0  0  0
  6  7  1  0  0  0  0
  6 34  1  0  0  0  0
  6 35  1  0  0  0  0
  7  8  1  0  0  0  0
  7 36  1  0  0  0  0
  7 37  1  0  0  0  0
  8  9  1  0  0  0  0
  9 10  1  0  0  0  0
  9 24  1  0  0  0  0
  9 38  1  0  0  0  0
 10 11  1  0  0  0  0
 10 39  1  0  0  0  0
 10 40  1  0  0  0  0
 11 12  1  0  0  0  0
 11 41  1  0  0  0  0
 12 13  2  0  0  0  0
 12 14  1  0  0  0  0
 14 15  1  0  0  0  0
 14 42  1  0  0  0  0
 14 43  1  0  0  0  0
 15 22  1  0  0  0  0
 15 16  1  0  0  0  0
 16 17  2  0  0  0  0
 16 44  1  0  0  0  0
 17 18  1  0  0  0  0
 17 45  1  0  0  0  0
 18 19  2  0  0  0  0
 18 20  1  0  0  0  0
 20 21  1  0  0  0  0
 20 22  1  0  0  0  0
 21 46  1  0  0  0  0
 21 47  1  0  0  0  0
 21 48  1  0  0  0  0
 22 23  2  0  0  0  0
 24 49  1  0  0  0  0
 24 50  1  0  0  0  0
M  CHG  1   5   1
M  END
> <s_m_source_file>
AV-unprocessed.smi

> <i_m_source_file_index>
2087

> <i_lp_mmshare_version>
43012

> <i_f3d_flags>
0

> <s_epik_input>
W0NIM11bQ0hdKFtDSDNdKVtDSDJdTjFbQ0gyXVtDSDJdT1tDQEhdKFtDSDJdMSlbQ0gyXVtOSF1DKD1PKVtDSDJdbjJbY0hdW2NIXWMoPU8pbihbQ0gzXSljMj1P

> <s_epik_cmdline>
J2VwaWtfcHl0aG9uJywgJy1waCcsICc3LjAnLCAnLXRuJywgJzgnLCAnLW1hJywgJzIwMCcsICctbWV0YWxfYmluZGluZycsICctaW1hZScsICc8aW5maWxlLm1hZT4nLCAnLW9tYWUnLCAnPG91dGZpbGUubWFlPic=

> <r_lp_tautomer_probability>
1

> <r_epik_Ionization_Penalty>
0.097593

> <r_epik_Ionization_Penalty_Charging>
0.097593

> <r_epik_Ionization_Penalty_Neutral>
6.27044e-08

> <r_epik_State_Penalty>
0.0877056

> <r_epik_Charging_Adjusted_Penalty>
0.185299

> <i_epik_Tot_Q>
1

> <i_epik_Tot_abs_Q>
1

> <r_epik_Metal_State_Penalty>
0.0877109

> <b_epik_Metal_Only>
0

> <s_lp_Force_Field>
OPLS_2005

> <r_lp_Energy>
29.4179

> <b_lp_Chiralities_Consistent>
1

> <s_lp_Variant>
AV-unprocessed.smi:2087-2

> <Gold.Version>
5.8.1

> <Gold.Id.Protein>
6NUR|6NUR_protein|mol2

> <Gold.PLP.Fitness>
50.5749

> <Gold.PLP.PLP>
-38.7246

> <Gold.PLP.part.hbond>
-3.0000

> <Gold.PLP.part.metal>
0.0000

> <Gold.PLP.part.buried>
-4.4784

> <Gold.PLP.part.nonpolar>
-32.1830

> <Gold.PLP.part.repulsive>
0.2586

> <Gold.PLP.ligand.clash>
0.0000

> <Gold.PLP.ligand.torsion>
1.3251

> <Gold.PLP.Chemscore.Hbond>
3.7840

> <Gold.PLP.Chemscore.CHOScore>
1.0000

> <Gold.PLP.Chemscore.Metal>
0.0000

> <Gold.Chemscore.Hbonds>
donor molecule, donor type, donor heavy atom, donor atom, acceptor molecule, acceptor atom, score
      L1  H     5    51       P1 10957  1.40
      L1  H    11    41       P1  7948  0.99
      P1  H  7997  8008       L1    19  0.50
      L1  C    16    44       P1  7948  0.77

> <Gold.PLP.Chemscore.Internal.Correction>
0.1485

> <Gold.Rescore>
     Score         DG    S(hbond)    S(metal)    S(lipo)     H(rot)  DE(clash)    DE(int)     intcor
     16.40     -17.77       2.91        0.00      70.60       2.22       0.03       1.35       ----

> <Gold.Chemscore.Fitness>
16.3959

> <Gold.Chemscore.DG>
-17.7747

> <Gold.Chemscore.ZeroCoef>
-5.4800

> <Gold.Chemscore.Hbond>
2.9131

> <Gold.Chemscore.Metal>
0.0000

> <Gold.Chemscore.Lipo>
70.6030

> <Gold.Chemscore.Internal_Hbond>
0.0000

> <Gold.Chemscore.DEClash>
0.0314

> <Gold.Chemscore.DEInternal>
1.3474

> <Gold.Chemscore.Rot>
2.2249

> <Gold.Chemscore.Internal.Correction>
   9.000000E+99

> <Gold.Chemscore.Hbonds>
donor molecule, donor type, donor heavy atom, donor atom, acceptor molecule, acceptor atom, score
      L1  H     5    51       P1 10957  0.60
      L1  H    11    41       P1  7948  0.94
      P1  H  7997  8008       L1    19  0.50

> <Gold.Chemscore.Hbond.Weighted>
-9.7298

> <Gold.Chemscore.Metal.Weighted>
-0.0000

> <Gold.Chemscore.Lipo.Weighted>
-8.2606

> <Gold.Chemscore.Internal_Hbond.Weighted>
0.0000

> <Gold.Chemscore.DEClash.Weighted>
0.0314

> <Gold.Chemscore.DEInternal.Weighted>
1.3474

> <Gold.Chemscore.Rot.Weighted>
5.6957

> <Gold.Chemscore.Internal.Correction.Weighted>
   9.000000E+99

> <Gold.Protein.RotatedTorsions>
[ 6907 6896 6895 6894 ] final   40.06 input  -60.11 | X-H torsion
[ 7974 7965 7964 7962 ] final  138.77 input  175.53 | X-H torsion
[ 8008 7997 7996 7995 ] final  -71.31 input   59.86 | X-H torsion
[ 10167 10162 10161 10158 ] final   57.99 input  -65.29 | X-H torsion
[ 10718 10713 10712 10709 ] final  -27.88 input   66.30 | X-H torsion
[ 10763 10752 10751 10750 ] final   71.93 input  -60.55 | X-H torsion
[ 11005 11000 10999 10996 ] final -135.07 input  -57.11 | X-H torsion

> <Gold.Protein.ActiveResidues>
 VAL166  LYS551  ARG553  GLY616  TRP617  ASP618  TYR619  PRO620  LYS621  CYS622 
 ASP623  PHE694  ASN695  SER759  ASP760  ASP761  ALA762  ILE779  LEU786  VAL792 
 PHE793  MET794  SER795  GLU796  ALA797  LYS798  CYS799  TRP800  GLU811  SER814 

> <Gold.Protein.RotatedAtoms>
  152.1776  134.8781  160.0528 H   0  0  0  0  0  0  0  0  0  0  0  0  # atno 6907 bound_to 6896
  151.9718  133.3723  159.4082 H   0  0  0  0  0  0  0  0  0  0  0  0  # atno 6908 bound_to 6896
  150.6912  134.4055  159.5182 H   0  0  0  0  0  0  0  0  0  0  0  0  # atno 6909 bound_to 6896
  144.9341  139.5011  143.5603 H   0  0  0  0  0  0  0  0  0  0  0  0  # atno 7974 bound_to 7965
  154.5078  140.0818  156.7929 H   0  0  0  0  0  0  0  0  0  0  0  0  # atno 8008 bound_to 7997
  155.3854  140.3430  155.4230 H   0  0  0  0  0  0  0  0  0  0  0  0  # atno 8009 bound_to 7997
  156.1537  140.1566  156.8716 H   0  0  0  0  0  0  0  0  0  0  0  0  # atno 8010 bound_to 7997
  140.1920  144.4075  150.6567 H   0  0  0  0  0  0  0  0  0  0  0  0  # atno 10167 bound_to 10162
  156.4325  130.4448  149.7108 H   0  0  0  0  0  0  0  0  0  0  0  0  # atno 10718 bound_to 10713
  153.0428  135.5119  154.7667 H   0  0  0  0  0  0  0  0  0  0  0  0  # atno 10763 bound_to 10752
  154.6591  135.2936  154.9892 H   0  0  0  0  0  0  0  0  0  0  0  0  # atno 10764 bound_to 10752
  154.0749  135.6672  153.4882 H   0  0  0  0  0  0  0  0  0  0  0  0  # atno 10765 bound_to 10752
  140.8932  134.1785  157.4513 H   0  0  0  0  0  0  0  0  0  0  0  0  # atno 11005 bound_to 11000
  146.3259  139.8313  142.8908 LP  0  0  0  0  0  0  0  0  0  0  0  0  # atno 17320 bound_to 7965
  145.3095  141.0216  143.3563 LP  0  0  0  0  0  0  0  0  0  0  0  0  # atno 17321 bound_to 7965
  140.6449  143.2211  151.6208 LP  0  0  0  0  0  0  0  0  0  0  0  0  # atno 17342 bound_to 10162
  139.5252  144.3082  152.1016 LP  0  0  0  0  0  0  0  0  0  0  0  0  # atno 17343 bound_to 10162
  156.4005  130.7672  151.2680 LP  0  0  0  0  0  0  0  0  0  0  0  0  # atno 17370 bound_to 10713
  157.7508  131.0241  150.3862 LP  0  0  0  0  0  0  0  0  0  0  0  0  # atno 17371 bound_to 10713
  139.8732  134.9867  156.5336 LP  0  0  0  0  0  0  0  0  0  0  0  0  # atno 17394 bound_to 11000
  140.8322  133.8270  155.8994 LP  0  0  0  0  0  0  0  0  0  0  0  0  # atno 17395 bound_to 11000

$$$$
