AV-unprocessed.smi:1682|AV-procd|sdf|6746|dock1
  -GOLD-   22720 7503D 1   1.00000     0.00000
 Structure written by MMmdl.
 39 40  0  0  0  0  0  0  0  0  2 V2000
  150.9013  139.4702  154.7892 O   0  0  0  0  0  0  0  0  0  0  0  0
  150.9514  138.7231  155.7667 C   0  0  0  0  0  0  0  0  0  0  0  0
  150.6882  139.1310  157.0177 N   0  0  0  0  0  0  0  0  0  0  0  0
  150.2983  140.4868  157.3958 C   0  0  0  0  0  0  0  0  0  0  0  0
  151.2662  141.5668  156.8697 C   0  0  0  0  0  0  0  0  0  0  0  0
  151.5647  142.6632  157.8777 C   0  0  0  0  0  0  0  0  0  0  0  0
  152.3717  142.4389  159.0149 C   0  0  0  0  0  0  0  0  0  0  0  0
  152.6165  143.5028  159.9075 C   0  0  0  0  0  0  0  0  0  0  0  0
  152.0476  144.7667  159.6465 C   0  0  0  0  0  0  0  0  0  0  0  0
  151.2480  144.9348  158.4975 C   0  0  0  0  0  0  0  0  0  0  0  0
  151.0388  143.8912  157.6648 N   0  3  0  0  0  0  0  0  0  0  0  0
  151.3096  137.2393  155.5917 C   0  0  1  0  0  0  0  0  0  0  0  0
  151.2849  136.4978  156.9426 C   0  0  0  0  0  0  0  0  0  0  0  0
  150.1156  135.5368  156.8151 C   0  0  0  0  0  0  0  0  0  0  0  0
  149.7135  134.8520  157.7541 O   0  0  0  0  0  0  0  0  0  0  0  0
  149.6039  135.5627  155.5801 N   0  0  0  0  0  0  0  0  0  0  0  0
  148.4564  134.7937  155.1003 C   0  0  0  0  0  0  0  0  0  0  0  0
  148.8475  133.3797  154.6333 C   0  0  0  0  0  0  0  0  0  0  0  0
  149.5402  133.4195  153.4954 F   0  0  0  0  0  0  0  0  0  0  0  0
  149.6057  132.8091  155.5684 F   0  0  0  0  0  0  0  0  0  0  0  0
  147.7578  132.6325  154.4567 F   0  0  0  0  0  0  0  0  0  0  0  0
  150.3024  136.4832  154.6972 C   0  0  0  0  0  0  0  0  0  0  0  0
  150.7591  138.4516  157.7616 H   0  0  0  0  0  0  0  0  0  0  0  0
  149.3030  140.6630  156.9872 H   0  0  0  0  0  0  0  0  0  0  0  0
  150.2025  140.5590  158.4803 H   0  0  0  0  0  0  0  0  0  0  0  0
  152.2040  141.1003  156.5657 H   0  0  0  0  0  0  0  0  0  0  0  0
  150.8564  142.0232  155.9679 H   0  0  0  0  0  0  0  0  0  0  0  0
  152.8023  141.4650  159.1995 H   0  0  0  0  0  0  0  0  0  0  0  0
  153.2326  143.3509  160.7818 H   0  0  0  0  0  0  0  0  0  0  0  0
  152.2215  145.5946  160.3186 H   0  0  0  0  0  0  0  0  0  0  0  0
  150.7731  145.8651  158.2213 H   0  0  0  0  0  0  0  0  0  0  0  0
  152.3059  137.1647  155.1521 H   0  0  0  0  0  0  0  0  0  0  0  0
  152.2042  135.9327  157.0985 H   0  0  0  0  0  0  0  0  0  0  0  0
  151.1438  137.1545  157.8026 H   0  0  0  0  0  0  0  0  0  0  0  0
  147.7048  134.7314  155.8888 H   0  0  0  0  0  0  0  0  0  0  0  0
  147.9856  135.3325  154.2768 H   0  0  0  0  0  0  0  0  0  0  0  0
  149.5945  137.1458  154.1961 H   0  0  0  0  0  0  0  0  0  0  0  0
  150.8231  135.9167  153.9241 H   0  0  0  0  0  0  0  0  0  0  0  0
  150.4568  144.0359  156.8394 H   0  0  0  0  0  0  0  0  0  0  0  0
  1  2  2  0  0  0  0
  2  3  1  0  0  0  0
  2 12  1  0  0  0  0
  3  4  1  0  0  0  0
  3 23  1  0  0  0  0
  4  5  1  0  0  0  0
  4 24  1  0  0  0  0
  4 25  1  0  0  0  0
  5  6  1  0  0  0  0
  5 26  1  0  0  0  0
  5 27  1  0  0  0  0
  6 11  1  0  0  0  0
  6  7  2  0  0  0  0
  7  8  1  0  0  0  0
  7 28  1  0  0  0  0
  8  9  2  0  0  0  0
  8 29  1  0  0  0  0
  9 10  1  0  0  0  0
  9 30  1  0  0  0  0
 10 11  2  0  0  0  0
 10 31  1  0  0  0  0
 11 39  1  0  0  0  0
 12 22  1  0  0  0  0
 12 13  1  0  0  0  0
 12 32  1  0  0  0  0
 13 14  1  0  0  0  0
 13 33  1  0  0  0  0
 13 34  1  0  0  0  0
 14 15  2  0  0  0  0
 14 16  1  0  0  0  0
 16 17  1  0  0  0  0
 16 22  1  0  0  0  0
 17 18  1  0  0  0  0
 17 35  1  0  0  0  0
 17 36  1  0  0  0  0
 18 19  1  0  0  0  0
 18 20  1  0  0  0  0
 18 21  1  0  0  0  0
 22 37  1  0  0  0  0
 22 38  1  0  0  0  0
M  CHG  1  11   1
M  END
> <s_m_source_file>
AV-unprocessed.smi

> <i_m_source_file_index>
1682

> <i_lp_mmshare_version>
43012

> <i_f3d_flags>
0

> <s_epik_input>
RkMoRikoRilbQ0gyXU4oW0NIMl0xKUMoPU8pW0NIMl1bQ0BIXTFDKD1PKVtOSF1bQ0gyXVtDSDJdYzJbY0hdW2NIXVtjSF1bY0hdbjI=

> <s_epik_cmdline>
J2VwaWtfcHl0aG9uJywgJy1waCcsICc3LjAnLCAnLXRuJywgJzgnLCAnLW1hJywgJzIwMCcsICctbWV0YWxfYmluZGluZycsICctaW1hZScsICc8aW5maWxlLm1hZT4nLCAnLW9tYWUnLCAnPG91dGZpbGUubWFlPic=

> <r_epik_Ionization_Penalty>
1.88249

> <r_epik_Ionization_Penalty_Charging>
1.88249

> <r_epik_Ionization_Penalty_Neutral>
2.8664e-08

> <r_epik_State_Penalty>
2.00238

> <r_epik_Charging_Adjusted_Penalty>
3.88487

> <i_epik_Tot_Q>
1

> <i_epik_Tot_abs_Q>
1

> <r_epik_Metal_State_Penalty>
2.02677

> <b_epik_Metal_Only>
0

> <s_lp_Force_Field>
OPLS_2005

> <r_lp_Energy>
19.2524

> <b_lp_Chiralities_Consistent>
1

> <s_lp_Variant>
AV-unprocessed.smi:1682-4

> <Gold.Version>
5.8.1

> <Gold.Id.Protein>
6NUR|6NUR_protein|mol2

> <Gold.PLP.Fitness>
46.2807

> <Gold.PLP.PLP>
-37.6407

> <Gold.PLP.part.hbond>
-2.9796

> <Gold.PLP.part.metal>
0.0000

> <Gold.PLP.part.buried>
-5.7050

> <Gold.PLP.part.nonpolar>
-29.1584

> <Gold.PLP.part.repulsive>
0.1084

> <Gold.PLP.ligand.clash>
1.7652

> <Gold.PLP.ligand.torsion>
0.8926

> <Gold.PLP.Chemscore.Hbond>
3.9760

> <Gold.PLP.Chemscore.CHOScore>
0.0000

> <Gold.PLP.Chemscore.Metal>
0.0000

> <Gold.Chemscore.Hbonds>
donor molecule, donor type, donor heavy atom, donor atom, acceptor molecule, acceptor atom, score
      L1  H    11    39       P1  8028  1.85
      P1  H  6896  6908       L1    15  0.99
      P1  H  7989  7998       L1     1  0.98

> <Gold.PLP.Chemscore.Internal.Correction>
0.2623

> <Gold.Rescore>
     Score         DG    S(hbond)    S(metal)    S(lipo)     H(rot)  DE(clash)    DE(int)     intcor
     18.38     -20.00       2.83        0.00      91.17       2.19       0.02       1.60       ----

> <Gold.Chemscore.Fitness>
18.3816

> <Gold.Chemscore.DG>
-20.0008

> <Gold.Chemscore.ZeroCoef>
-5.4800

> <Gold.Chemscore.Hbond>
2.8349

> <Gold.Chemscore.Metal>
0.0000

> <Gold.Chemscore.Lipo>
91.1669

> <Gold.Chemscore.Internal_Hbond>
0.0000

> <Gold.Chemscore.DEClash>
0.0235

> <Gold.Chemscore.DEInternal>
1.5956

> <Gold.Chemscore.Rot>
2.1932

> <Gold.Chemscore.Internal.Correction>
   9.000000E+99

> <Gold.Chemscore.Hbonds>
donor molecule, donor type, donor heavy atom, donor atom, acceptor molecule, acceptor atom, score
      L1  H    11    39       P1  8028  0.88
      P1  H  6896  6908       L1    15  0.92
      P1  H  7989  7998       L1     1  0.92

> <Gold.Chemscore.Hbond.Weighted>
-9.4687

> <Gold.Chemscore.Metal.Weighted>
-0.0000

> <Gold.Chemscore.Lipo.Weighted>
-10.6665

> <Gold.Chemscore.Internal_Hbond.Weighted>
0.0000

> <Gold.Chemscore.DEClash.Weighted>
0.0235

> <Gold.Chemscore.DEInternal.Weighted>
1.5956

> <Gold.Chemscore.Rot.Weighted>
5.6145

> <Gold.Chemscore.Internal.Correction.Weighted>
   9.000000E+99

> <Gold.Protein.RotatedTorsions>
[ 6907 6896 6895 6894 ] final  144.52 input  -60.11 | X-H torsion
[ 7974 7965 7964 7962 ] final   50.50 input  175.53 | X-H torsion
[ 8008 7997 7996 7995 ] final -117.12 input   59.86 | X-H torsion
[ 10167 10162 10161 10158 ] final -173.39 input  -65.29 | X-H torsion
[ 10718 10713 10712 10709 ] final  136.66 input   66.30 | X-H torsion
[ 10763 10752 10751 10750 ] final  -50.51 input  -60.55 | X-H torsion
[ 11005 11000 10999 10996 ] final -168.53 input  -57.11 | X-H torsion

> <Gold.Protein.ActiveResidues>
 VAL166  LYS551  ARG553  GLY616  TRP617  ASP618  TYR619  PRO620  LYS621  CYS622 
 ASP623  PHE694  ASN695  SER759  ASP760  ASP761  ALA762  ILE779  LEU786  VAL792 
 PHE793  MET794  SER795  GLU796  ALA797  LYS798  CYS799  TRP800  GLU811  SER814 

> <Gold.Protein.RotatedAtoms>
  152.1926  133.4784  159.5015 H   0  0  0  0  0  0  0  0  0  0  0  0  # atno 6907 bound_to 6896
  150.6954  134.1693  159.4215 H   0  0  0  0  0  0  0  0  0  0  0  0  # atno 6908 bound_to 6896
  151.9608  135.0124  160.0598 H   0  0  0  0  0  0  0  0  0  0  0  0  # atno 6909 bound_to 6896
  146.0006  139.4435  143.0017 H   0  0  0  0  0  0  0  0  0  0  0  0  # atno 7974 bound_to 7965
  155.0786  140.0394  157.2632 H   0  0  0  0  0  0  0  0  0  0  0  0  # atno 8008 bound_to 7997
  154.6925  140.2656  155.6774 H   0  0  0  0  0  0  0  0  0  0  0  0  # atno 8009 bound_to 7997
  156.2733  140.2757  156.1507 H   0  0  0  0  0  0  0  0  0  0  0  0  # atno 8010 bound_to 7997
  139.5691  144.1685  152.1357 H   0  0  0  0  0  0  0  0  0  0  0  0  # atno 10167 bound_to 10162
  157.4443  131.1060  151.0108 H   0  0  0  0  0  0  0  0  0  0  0  0  # atno 10718 bound_to 10713
  154.1115  135.6548  153.4886 H   0  0  0  0  0  0  0  0  0  0  0  0  # atno 10763 bound_to 10752
  153.0255  135.5249  154.7187 H   0  0  0  0  0  0  0  0  0  0  0  0  # atno 10764 bound_to 10752
  154.6368  135.2983  155.0120 H   0  0  0  0  0  0  0  0  0  0  0  0  # atno 10765 bound_to 10752
  140.5410  134.5523  157.5099 H   0  0  0  0  0  0  0  0  0  0  0  0  # atno 11005 bound_to 11000
  145.7493  140.9978  143.1259 LP  0  0  0  0  0  0  0  0  0  0  0  0  # atno 17320 bound_to 7965
  144.6918  139.9195  143.7467 LP  0  0  0  0  0  0  0  0  0  0  0  0  # atno 17321 bound_to 7965
  140.1214  144.5370  150.6860 LP  0  0  0  0  0  0  0  0  0  0  0  0  # atno 17342 bound_to 10162
  140.6975  143.2413  151.4959 LP  0  0  0  0  0  0  0  0  0  0  0  0  # atno 17343 bound_to 10162
  157.0960  130.5962  149.5450 LP  0  0  0  0  0  0  0  0  0  0  0  0  # atno 17370 bound_to 10713
  155.9961  130.5029  150.7483 LP  0  0  0  0  0  0  0  0  0  0  0  0  # atno 17371 bound_to 10713
  139.9504  134.7627  156.0462 LP  0  0  0  0  0  0  0  0  0  0  0  0  # atno 17394 bound_to 11000
  141.1227  133.6608  156.3257 LP  0  0  0  0  0  0  0  0  0  0  0  0  # atno 17395 bound_to 11000

$$$$
