AV-unprocessed.smi:157|AV-procd|sdf|1300|dock2
  -GOLD-   2262018583D 1   1.00000     0.00000
 Structure written by MMmdl.
 35 37  0  0  0  0  0  0  0  0  1 V2000
  151.5528  136.4481  154.3335 O   0  0  0  0  0  0  0  0  0  0  0  0
  150.8935  136.2237  155.5619 C   0  0  0  0  0  0  0  0  0  0  0  0
  149.9296  135.0320  155.4506 C   0  0  2  0  0  0  0  0  0  0  0  0
  149.0388  135.2483  154.3575 O   0  0  0  0  0  0  0  0  0  0  0  0
  147.7548  134.8012  154.6795 C   0  0  1  0  0  0  0  0  0  0  0  0
  147.3047  133.8379  153.6253 N   0  0  0  0  0  0  0  0  0  0  0  0
  147.6730  132.5543  153.5176 C   0  0  0  0  0  0  0  0  0  0  0  0
  147.1269  131.9094  152.5007 N   0  0  0  0  0  0  0  0  0  0  0  0
  146.3241  132.8690  151.8863 C   0  0  0  0  0  0  0  0  0  0  0  0
  146.4183  134.0730  152.5698 C   0  0  0  0  0  0  0  0  0  0  0  0
  145.8607  135.3315  152.4485 N   0  0  0  0  0  0  0  0  0  0  0  0
  145.3438  135.6596  151.3064 C   0  0  0  0  0  0  0  0  0  0  0  0
  145.1603  134.9046  150.1569 N   0  0  0  0  0  0  0  0  0  0  0  0
  144.5642  133.5794  150.1621 C   0  0  0  0  0  0  0  0  0  0  0  0
  145.5027  132.4867  150.6886 C   0  0  1  0  0  0  0  0  0  0  0  0
  146.4075  132.1189  149.6675 O   0  0  0  0  0  0  0  0  0  0  0  0
  147.8446  134.1014  156.0336 C   0  0  0  0  0  0  0  0  0  0  0  0
  149.0093  134.8348  156.6608 C   0  0  1  0  0  0  0  0  0  0  0  0
  149.6057  134.0505  157.6732 O   0  0  0  0  0  0  0  0  0  0  0  0
  150.4784  134.1124  155.2386 H   0  0  0  0  0  0  0  0  0  0  0  0
  147.0563  135.6380  154.6576 H   0  0  0  0  0  0  0  0  0  0  0  0
  144.9075  131.6018  150.9158 H   0  0  0  0  0  0  0  0  0  0  0  0
  148.6801  135.7936  157.0641 H   0  0  0  0  0  0  0  0  0  0  0  0
  151.0218  136.0903  153.6385 H   0  0  0  0  0  0  0  0  0  0  0  0
  151.6294  136.0597  156.3497 H   0  0  0  0  0  0  0  0  0  0  0  0
  150.3404  137.1268  155.8215 H   0  0  0  0  0  0  0  0  0  0  0  0
  148.3560  132.0787  154.2060 H   0  0  0  0  0  0  0  0  0  0  0  0
  144.9730  136.6775  151.1790 H   0  0  0  0  0  0  0  0  0  0  0  0
  144.9695  135.3869  149.2904 H   0  0  0  0  0  0  0  0  0  0  0  0
  143.6831  133.6246  150.8037 H   0  0  0  0  0  0  0  0  0  0  0  0
  144.2009  133.3313  149.1643 H   0  0  0  0  0  0  0  0  0  0  0  0
  147.2359  131.9068  150.0704 H   0  0  0  0  0  0  0  0  0  0  0  0
  146.9106  134.1881  156.5895 H   0  0  0  0  0  0  0  0  0  0  0  0
  148.0811  133.0451  155.8892 H   0  0  0  0  0  0  0  0  0  0  0  0
  149.8004  133.1979  157.3140 H   0  0  0  0  0  0  0  0  0  0  0  0
  1  2  1  0  0  0  0
  1 24  1  0  0  0  0
  2  3  1  0  0  0  0
  2 25  1  0  0  0  0
  2 26  1  0  0  0  0
  3 20  1  0  0  0  0
  3 18  1  0  0  0  0
  3  4  1  0  0  0  0
  4  5  1  0  0  0  0
  5 21  1  0  0  0  0
  5  6  1  0  0  0  0
  5 17  1  0  0  0  0
  6 10  1  0  0  0  0
  6  7  1  0  0  0  0
  7  8  2  0  0  0  0
  7 27  1  0  0  0  0
  8  9  1  0  0  0  0
  9 15  1  0  0  0  0
  9 10  2  0  0  0  0
 10 11  1  0  0  0  0
 11 12  2  0  0  0  0
 12 13  1  0  0  0  0
 12 28  1  0  0  0  0
 13 14  1  0  0  0  0
 13 29  1  0  0  0  0
 14 15  1  0  0  0  0
 14 30  1  0  0  0  0
 14 31  1  0  0  0  0
 15 22  1  0  0  0  0
 15 16  1  0  0  0  0
 16 32  1  0  0  0  0
 17 18  1  0  0  0  0
 17 33  1  0  0  0  0
 17 34  1  0  0  0  0
 18 23  1  0  0  0  0
 18 19  1  0  0  0  0
 19 35  1  0  0  0  0
M  END
> <s_m_source_file>
AV-unprocessed.smi

> <i_m_source_file_index>
157

> <i_lp_mmshare_version>
43012

> <i_f3d_flags>
0

> <s_epik_input>
W09IXVtDSDJdW0NASF0xT1tDQEhdKFtDSDJdW0NAQEhdMVtPSF0pbihbY0hdbjIpYyhjMjMpTj1bQ0hdW05IXVtDSDJdW0NASF0zW09IXQ==

> <s_epik_cmdline>
J2VwaWtfcHl0aG9uJywgJy1waCcsICc3LjAnLCAnLXRuJywgJzgnLCAnLW1hJywgJzIwMCcsICctbWV0YWxfYmluZGluZycsICctaW1hZScsICc8aW5maWxlLm1hZT4nLCAnLW9tYWUnLCAnPG91dGZpbGUubWFlPic=

> <r_lp_tautomer_probability>
1

> <r_epik_Ionization_Penalty>
0.0357149

> <r_epik_Ionization_Penalty_Charging>
0.0355056

> <r_epik_Ionization_Penalty_Neutral>
0.000209255

> <r_epik_State_Penalty>
0.0296046

> <r_epik_Charging_Adjusted_Penalty>
0.0651102

> <i_epik_Tot_Q>
0

> <i_epik_Tot_abs_Q>
0

> <r_epik_Metal_State_Penalty>
3.03559e-05

> <b_epik_Metal_Only>
0

> <s_epik_Chemistry_Notes>
This compound has an imine and may undergo hydrolysis. This compound contains an acetal/aminal-like group ( X-CH(R)-Y where X, Y are N, S, or O) that may be acid/base labile, releasing an aldehyde.

> <s_lp_Force_Field>
OPLS_2005

> <r_lp_Energy>
44.6585

> <b_lp_Chiralities_Consistent>
1

> <s_lp_Variant>
AV-unprocessed.smi:157-10

> <Gold.Version>
5.8.1

> <Gold.Id.Protein>
6NUR|6NUR_protein|mol2

> <Gold.PLP.Fitness>
36.7647

> <Gold.PLP.PLP>
-23.8025

> <Gold.PLP.part.hbond>
-5.0000

> <Gold.PLP.part.metal>
0.0000

> <Gold.PLP.part.buried>
-5.7497

> <Gold.PLP.part.nonpolar>
-16.0772

> <Gold.PLP.part.repulsive>
3.5387

> <Gold.PLP.ligand.clash>
0.0000

> <Gold.PLP.ligand.torsion>
0.5668

> <Gold.PLP.Chemscore.Hbond>
3.8344

> <Gold.PLP.Chemscore.CHOScore>
0.8608

> <Gold.PLP.Chemscore.Metal>
0.0000

> <Gold.Chemscore.Hbonds>
donor molecule, donor type, donor heavy atom, donor atom, acceptor molecule, acceptor atom, score
      L1  H     1    24       P1  7949  0.48
      L1  H    13    29       P1  7921  0.28
      L1  H    16    32       P1 10747  0.99
      P1  H  6896  6907       L1    19  1.00
      P1  H 10752 10764       L1     1  0.95
      L1  C    12    28       P1 10171  0.85

> <Gold.PLP.Chemscore.Internal.Correction>
0.0102

> <Gold.Rescore>
     Score         DG    S(hbond)    S(metal)    S(lipo)     H(rot)  DE(clash)    DE(int)     intcor
      9.50     -10.61       3.03        0.00      36.89       3.64       0.51       0.60       ----

> <Gold.Chemscore.Fitness>
9.5033

> <Gold.Chemscore.DG>
-10.6133

> <Gold.Chemscore.ZeroCoef>
-5.4800

> <Gold.Chemscore.Hbond>
3.0317

> <Gold.Chemscore.Metal>
0.0000

> <Gold.Chemscore.Lipo>
36.8897

> <Gold.Chemscore.Internal_Hbond>
0.0000

> <Gold.Chemscore.DEClash>
0.5088

> <Gold.Chemscore.DEInternal>
0.6012

> <Gold.Chemscore.Rot>
3.6362

> <Gold.Chemscore.Internal.Correction>
   9.000000E+99

> <Gold.Chemscore.Hbonds>
donor molecule, donor type, donor heavy atom, donor atom, acceptor molecule, acceptor atom, score
      L1  H     1    24       P1  7949  0.11
      L1  H    13    29       P1  7921  0.28
      L1  H    16    32       P1 10747  0.91
      P1  H  6896  6907       L1    19  0.29
      P1  H 10752 10764       L1     1  0.18

> <Gold.Chemscore.Hbond.Weighted>
-10.1259

> <Gold.Chemscore.Metal.Weighted>
-0.0000

> <Gold.Chemscore.Lipo.Weighted>
-4.3161

> <Gold.Chemscore.Internal_Hbond.Weighted>
0.0000

> <Gold.Chemscore.DEClash.Weighted>
0.5088

> <Gold.Chemscore.DEInternal.Weighted>
0.6012

> <Gold.Chemscore.Rot.Weighted>
9.3087

> <Gold.Chemscore.Internal.Correction.Weighted>
   9.000000E+99

> <Gold.Protein.RotatedTorsions>
[ 6907 6896 6895 6894 ] final -105.42 input  -60.11 | X-H torsion
[ 7974 7965 7964 7962 ] final  100.89 input  175.53 | X-H torsion
[ 8008 7997 7996 7995 ] final   62.19 input   59.86 | X-H torsion
[ 10167 10162 10161 10158 ] final  -97.16 input  -65.29 | X-H torsion
[ 10718 10713 10712 10709 ] final  -95.23 input   66.30 | X-H torsion
[ 10763 10752 10751 10750 ] final  -56.30 input  -60.55 | X-H torsion
[ 11005 11000 10999 10996 ] final   99.51 input  -57.11 | X-H torsion

> <Gold.Protein.ActiveResidues>
 VAL166  LYS551  ARG553  GLY616  TRP617  ASP618  TYR619  PRO620  LYS621  CYS622 
 ASP623  PHE694  ASN695  SER759  ASP760  ASP761  ALA762  ILE779  LEU786  VAL792 
 PHE793  MET794  SER795  GLU796  ALA797  LYS798  CYS799  TRP800  GLU811  SER814 

> <Gold.Protein.RotatedAtoms>
  150.7336  134.0129  159.3675 H   0  0  0  0  0  0  0  0  0  0  0  0  # atno 6907 bound_to 6896
  151.8089  135.0684  160.0419 H   0  0  0  0  0  0  0  0  0  0  0  0  # atno 6908 bound_to 6896
  152.3087  133.5693  159.5702 H   0  0  0  0  0  0  0  0  0  0  0  0  # atno 6909 bound_to 6896
  145.3796  139.2382  143.3410 H   0  0  0  0  0  0  0  0  0  0  0  0  # atno 7974 bound_to 7965
  155.6105  140.3495  155.4621 H   0  0  0  0  0  0  0  0  0  0  0  0  # atno 8008 bound_to 7997
  156.0158  140.1243  157.0432 H   0  0  0  0  0  0  0  0  0  0  0  0  # atno 8009 bound_to 7997
  154.4297  140.1072  156.5880 H   0  0  0  0  0  0  0  0  0  0  0  0  # atno 8010 bound_to 7997
  140.2863  143.3250  152.0391 H   0  0  0  0  0  0  0  0  0  0  0  0  # atno 10167 bound_to 10162
  156.0040  130.5100  150.6045 H   0  0  0  0  0  0  0  0  0  0  0  0  # atno 10718 bound_to 10713
  154.2044  135.6405  153.5096 H   0  0  0  0  0  0  0  0  0  0  0  0  # atno 10763 bound_to 10752
  153.0004  135.5459  154.6281 H   0  0  0  0  0  0  0  0  0  0  0  0  # atno 10764 bound_to 10752
  154.5702  135.2916  155.0808 H   0  0  0  0  0  0  0  0  0  0  0  0  # atno 10765 bound_to 10752
  139.8771  134.9098  156.4616 H   0  0  0  0  0  0  0  0  0  0  0  0  # atno 11005 bound_to 11000
  146.2848  140.4461  142.8762 LP  0  0  0  0  0  0  0  0  0  0  0  0  # atno 17320 bound_to 7965
  144.8517  140.7011  143.6164 LP  0  0  0  0  0  0  0  0  0  0  0  0  # atno 17321 bound_to 7965
  139.4949  144.6556  151.6579 LP  0  0  0  0  0  0  0  0  0  0  0  0  # atno 17342 bound_to 10162
  140.5770  144.0012  150.6247 LP  0  0  0  0  0  0  0  0  0  0  0  0  # atno 17343 bound_to 10162
  157.3888  131.0792  151.1412 LP  0  0  0  0  0  0  0  0  0  0  0  0  # atno 17370 bound_to 10713
  157.2110  130.6438  149.5774 LP  0  0  0  0  0  0  0  0  0  0  0  0  # atno 17371 bound_to 10713
  140.8860  133.7883  155.9518 LP  0  0  0  0  0  0  0  0  0  0  0  0  # atno 17394 bound_to 11000
  140.8804  134.2618  157.5147 LP  0  0  0  0  0  0  0  0  0  0  0  0  # atno 17395 bound_to 11000

$$$$
