AV-unprocessed.smi:2001|AV-procd|sdf|8112|dock1
  -GOLD-   2272010343D 1   1.00000     0.00000
 Structure written by MMmdl.
 50 51  0  0  0  0  0  0  0  0  3 V2000
  144.4666  132.9153  149.4719 C   0  0  0  0  0  0  0  0  0  0  0  0
  145.0949  133.8389  150.3436 O   0  0  0  0  0  0  0  0  0  0  0  0
  146.2844  133.3204  150.9144 C   0  0  0  0  0  0  0  0  0  0  0  0
  145.9201  132.2143  151.9161 C   0  0  0  0  0  0  0  0  0  0  0  0
  147.1087  131.7153  152.6146 N   0  0  0  0  0  0  0  0  0  0  0  0
  147.7966  132.6882  153.3199 N   0  0  0  0  0  0  0  0  0  0  0  0
  148.8534  132.3809  154.0005 C   0  0  0  0  0  0  0  0  0  0  0  0
  149.5934  133.4310  154.7717 C   0  0  0  0  0  0  0  0  0  0  0  0
  150.5811  133.0266  155.4002 O   0  0  0  0  0  0  0  0  0  0  0  0
  149.1451  134.7215  154.7333 N   0  5  0  0  0  0  0  0  0  0  0  0
  149.5272  135.7779  155.6718 C   0  0  0  0  0  0  0  0  0  0  0  0
  148.8059  137.0869  155.3007 C   0  0  0  0  0  0  0  0  0  0  0  0
  149.4929  137.7964  154.1849 N   0  3  1  0  0  0  0  0  0  0  0  0
  149.0381  139.1930  153.9614 C   0  0  0  0  0  0  0  0  0  0  0  0
  149.6638  140.1600  154.9898 C   0  0  2  0  0  0  0  0  0  0  0  0
  149.3056  141.6210  154.6962 C   0  0  0  0  0  0  0  0  0  0  0  0
  151.0822  140.0353  154.9522 O   0  0  0  0  0  0  0  0  0  0  0  0
  151.5312  138.7243  155.2812 C   0  0  2  0  0  0  0  0  0  0  0  0
  153.0636  138.7356  155.3016 C   0  0  0  0  0  0  0  0  0  0  0  0
  150.9733  137.7322  154.2419 C   0  0  0  0  0  0  0  0  0  0  0  0
  149.3386  131.0058  154.0280 C   0  0  0  0  0  0  0  0  0  0  0  0
  148.6536  130.0675  153.3387 C   0  0  0  0  0  0  0  0  0  0  0  0
  147.4502  130.3929  152.5733 C   0  0  0  0  0  0  0  0  0  0  0  0
  146.7998  129.5521  151.9527 O   0  0  0  0  0  0  0  0  0  0  0  0
  143.5674  133.3634  149.0491 H   0  0  0  0  0  0  0  0  0  0  0  0
  144.1729  132.0095  150.0038 H   0  0  0  0  0  0  0  0  0  0  0  0
  145.1250  132.6391  148.6473 H   0  0  0  0  0  0  0  0  0  0  0  0
  146.9290  132.9171  150.1315 H   0  0  0  0  0  0  0  0  0  0  0  0
  146.8337  134.1200  151.4142 H   0  0  0  0  0  0  0  0  0  0  0  0
  145.1807  132.5831  152.6293 H   0  0  0  0  0  0  0  0  0  0  0  0
  145.4295  131.3941  151.3889 H   0  0  0  0  0  0  0  0  0  0  0  0
  149.2805  135.5229  156.7034 H   0  0  0  0  0  0  0  0  0  0  0  0
  150.6031  135.9528  155.6560 H   0  0  0  0  0  0  0  0  0  0  0  0
  147.7695  136.8731  155.0393 H   0  0  0  0  0  0  0  0  0  0  0  0
  148.7593  137.7221  156.1868 H   0  0  0  0  0  0  0  0  0  0  0  0
  149.3361  139.4876  152.9542 H   0  0  0  0  0  0  0  0  0  0  0  0
  147.9492  139.2477  153.9883 H   0  0  0  0  0  0  0  0  0  0  0  0
  149.3136  139.9198  155.9947 H   0  0  0  0  0  0  0  0  0  0  0  0
  148.2264  141.7739  154.7250 H   0  0  0  0  0  0  0  0  0  0  0  0
  149.6608  141.9247  153.7111 H   0  0  0  0  0  0  0  0  0  0  0  0
  149.7556  142.2879  155.4324 H   0  0  0  0  0  0  0  0  0  0  0  0
  151.1751  138.4608  156.2786 H   0  0  0  0  0  0  0  0  0  0  0  0
  153.4593  137.7534  155.5617 H   0  0  0  0  0  0  0  0  0  0  0  0
  153.4387  139.4491  156.0358 H   0  0  0  0  0  0  0  0  0  0  0  0
  153.4698  139.0138  154.3287 H   0  0  0  0  0  0  0  0  0  0  0  0
  151.2995  136.7125  154.4520 H   0  0  0  0  0  0  0  0  0  0  0  0
  151.3628  137.9790  153.2532 H   0  0  0  0  0  0  0  0  0  0  0  0
  150.2220  130.7244  154.5816 H   0  0  0  0  0  0  0  0  0  0  0  0
  149.0029  129.0456  153.3528 H   0  0  0  0  0  0  0  0  0  0  0  0
  149.2276  137.2671  153.3653 H   0  0  0  0  0  0  0  0  0  0  0  0
  1  2  1  0  0  0  0
  1 25  1  0  0  0  0
  1 26  1  0  0  0  0
  1 27  1  0  0  0  0
  2  3  1  0  0  0  0
  3  4  1  0  0  0  0
  3 28  1  0  0  0  0
  3 29  1  0  0  0  0
  4  5  1  0  0  0  0
  4 30  1  0  0  0  0
  4 31  1  0  0  0  0
  5 23  1  0  0  0  0
  5  6  1  0  0  0  0
  6  7  2  0  0  0  0
  7  8  1  0  0  0  0
  7 21  1  0  0  0  0
  8  9  2  0  0  0  0
  8 10  1  0  0  0  0
 10 11  1  0  0  0  0
 11 12  1  0  0  0  0
 11 32  1  0  0  0  0
 11 33  1  0  0  0  0
 12 13  1  0  0  0  0
 12 34  1  0  0  0  0
 12 35  1  0  0  0  0
 13 20  1  0  0  0  0
 13 14  1  0  0  0  0
 13 50  1  0  0  0  0
 14 15  1  0  0  0  0
 14 36  1  0  0  0  0
 14 37  1  0  0  0  0
 15 16  1  0  0  0  0
 15 17  1  0  0  0  0
 15 38  1  0  0  0  0
 16 39  1  0  0  0  0
 16 40  1  0  0  0  0
 16 41  1  0  0  0  0
 17 18  1  0  0  0  0
 18 19  1  0  0  0  0
 18 20  1  0  0  0  0
 18 42  1  0  0  0  0
 19 43  1  0  0  0  0
 19 44  1  0  0  0  0
 19 45  1  0  0  0  0
 20 46  1  0  0  0  0
 20 47  1  0  0  0  0
 21 22  2  0  0  0  0
 21 48  1  0  0  0  0
 22 23  1  0  0  0  0
 22 49  1  0  0  0  0
 23 24  2  0  0  0  0
M  CHG  1  10  -1
M  CHG  1  13   1
M  END
> <s_m_source_file>
AV-unprocessed.smi

> <i_m_source_file_index>
2001

> <i_lp_mmshare_version>
43012

> <i_f3d_flags>
0

> <s_epik_input>
W0NIM11PW0NIMl1bQ0gyXW4xbmMoW2NIXVtjSF1jMT1PKUMoPU8pW05IXVtDSDJdW0NIMl1OMltDSDJdW0NAQEhdKFtDSDNdKU9bQ0BASF0oW0NIM10pW0NIMl0y

> <s_epik_cmdline>
J2VwaWtfcHl0aG9uJywgJy1waCcsICc3LjAnLCAnLXRuJywgJzgnLCAnLW1hJywgJzIwMCcsICctbWV0YWxfYmluZGluZycsICctaW1hZScsICc8aW5maWxlLm1hZT4nLCAnLW9tYWUnLCAnPG91dGZpbGUubWFlPic=

> <r_lp_tautomer_probability>
1

> <r_epik_Ionization_Penalty>
6.90846

> <r_epik_Ionization_Penalty_Charging>
6.90846

> <r_epik_Ionization_Penalty_Neutral>
1.08445e-11

> <r_epik_State_Penalty>
7.54671

> <r_epik_Charging_Adjusted_Penalty>
14.4552

> <i_epik_Tot_Q>
0

> <i_epik_Tot_abs_Q>
2

> <r_epik_Metal_State_Penalty>
3.46181

> <b_epik_Metal_Only>
1

> <s_lp_Force_Field>
OPLS_2005

> <r_lp_Energy>
41.6735

> <b_lp_Chiralities_Consistent>
1

> <s_lp_Variant>
AV-unprocessed.smi:2001-11

> <Gold.Version>
5.8.1

> <Gold.Id.Protein>
6NUR|6NUR_protein|mol2

> <Gold.PLP.Fitness>
49.0369

> <Gold.PLP.PLP>
-40.3671

> <Gold.PLP.part.hbond>
-2.0000

> <Gold.PLP.part.metal>
0.0000

> <Gold.PLP.part.buried>
-2.1316

> <Gold.PLP.part.nonpolar>
-36.3060

> <Gold.PLP.part.repulsive>
0.5360

> <Gold.PLP.ligand.clash>
0.0000

> <Gold.PLP.ligand.torsion>
0.3423

> <Gold.PLP.Chemscore.Hbond>
3.0000

> <Gold.PLP.Chemscore.CHOScore>
0.0000

> <Gold.PLP.Chemscore.Metal>
0.0000

> <Gold.Chemscore.Hbonds>
donor molecule, donor type, donor heavy atom, donor atom, acceptor molecule, acceptor atom, score
      L1  H    13    50       P1  7948  2.00
      P1  H  7989  7998       L1    17  1.00

> <Gold.PLP.Chemscore.Internal.Correction>
0.3544

> <Gold.Rescore>
     Score         DG    S(hbond)    S(metal)    S(lipo)     H(rot)  DE(clash)    DE(int)     intcor
     16.45     -17.33       1.90        0.00      91.16       2.02       0.36       0.52       ----

> <Gold.Chemscore.Fitness>
16.4464

> <Gold.Chemscore.DG>
-17.3298

> <Gold.Chemscore.ZeroCoef>
-5.4800

> <Gold.Chemscore.Hbond>
1.9011

> <Gold.Chemscore.Metal>
0.0000

> <Gold.Chemscore.Lipo>
91.1626

> <Gold.Chemscore.Internal_Hbond>
0.0000

> <Gold.Chemscore.DEClash>
0.3632

> <Gold.Chemscore.DEInternal>
0.5202

> <Gold.Chemscore.Rot>
2.0179

> <Gold.Chemscore.Internal.Correction>
   9.000000E+99

> <Gold.Chemscore.Hbonds>
donor molecule, donor type, donor heavy atom, donor atom, acceptor molecule, acceptor atom, score
      L1  H    13    50       P1  7948  0.99
      P1  H  7989  7998       L1    17  0.60

> <Gold.Chemscore.Hbond.Weighted>
-6.3496

> <Gold.Chemscore.Metal.Weighted>
-0.0000

> <Gold.Chemscore.Lipo.Weighted>
-10.6660

> <Gold.Chemscore.Internal_Hbond.Weighted>
0.0000

> <Gold.Chemscore.DEClash.Weighted>
0.3632

> <Gold.Chemscore.DEInternal.Weighted>
0.5202

> <Gold.Chemscore.Rot.Weighted>
5.1659

> <Gold.Chemscore.Internal.Correction.Weighted>
   9.000000E+99

> <Gold.Protein.RotatedTorsions>
[ 6907 6896 6895 6894 ] final  -26.69 input  -60.11 | X-H torsion
[ 7974 7965 7964 7962 ] final  124.45 input  175.53 | X-H torsion
[ 8008 7997 7996 7995 ] final  154.09 input   59.86 | X-H torsion
[ 10167 10162 10161 10158 ] final -103.97 input  -65.29 | X-H torsion
[ 10718 10713 10712 10709 ] final    4.56 input   66.30 | X-H torsion
[ 10763 10752 10751 10750 ] final -159.52 input  -60.55 | X-H torsion
[ 11005 11000 10999 10996 ] final   84.52 input  -57.11 | X-H torsion

> <Gold.Protein.ActiveResidues>
 VAL166  LYS551  ARG553  GLY616  TRP617  ASP618  TYR619  PRO620  LYS621  CYS622 
 ASP623  PHE694  ASN695  SER759  ASP760  ASP761  ALA762  ILE779  LEU786  VAL792 
 PHE793  MET794  SER795  GLU796  ALA797  LYS798  CYS799  TRP800  GLU811  SER814 

> <Gold.Protein.RotatedAtoms>
  151.1574  135.0257  159.8695 H   0  0  0  0  0  0  0  0  0  0  0  0  # atno 6907 bound_to 6896
  152.5452  134.1318  159.8452 H   0  0  0  0  0  0  0  0  0  0  0  0  # atno 6908 bound_to 6896
  151.1410  133.4925  159.2629 H   0  0  0  0  0  0  0  0  0  0  0  0  # atno 6909 bound_to 6896
  145.0843  139.3634  143.4893 H   0  0  0  0  0  0  0  0  0  0  0  0  # atno 7974 bound_to 7965
  156.2549  140.1976  156.6592 H   0  0  0  0  0  0  0  0  0  0  0  0  # atno 8008 bound_to 7997
  154.6477  140.0576  156.9945 H   0  0  0  0  0  0  0  0  0  0  0  0  # atno 8009 bound_to 7997
  155.1465  140.3247  155.4443 H   0  0  0  0  0  0  0  0  0  0  0  0  # atno 8010 bound_to 7997
  140.2143  143.3723  152.1024 H   0  0  0  0  0  0  0  0  0  0  0  0  # atno 10167 bound_to 10162
  156.8945  130.5699  149.5649 H   0  0  0  0  0  0  0  0  0  0  0  0  # atno 10718 bound_to 10713
  154.7468  135.3082  154.8630 H   0  0  0  0  0  0  0  0  0  0  0  0  # atno 10763 bound_to 10752
  153.9429  135.6772  153.4748 H   0  0  0  0  0  0  0  0  0  0  0  0  # atno 10764 bound_to 10752
  153.1064  135.4887  154.8886 H   0  0  0  0  0  0  0  0  0  0  0  0  # atno 10765 bound_to 10752
  139.8998  134.8222  156.2456 H   0  0  0  0  0  0  0  0  0  0  0  0  # atno 11005 bound_to 11000
  146.3531  140.0648  142.8627 LP  0  0  0  0  0  0  0  0  0  0  0  0  # atno 17320 bound_to 7965
  145.1141  140.9423  143.4639 LP  0  0  0  0  0  0  0  0  0  0  0  0  # atno 17321 bound_to 7965
  139.5168  144.6983  151.5568 LP  0  0  0  0  0  0  0  0  0  0  0  0  # atno 17342 bound_to 10162
  140.6301  143.9092  150.6598 LP  0  0  0  0  0  0  0  0  0  0  0  0  # atno 17343 bound_to 10162
  156.0612  130.5665  150.9197 LP  0  0  0  0  0  0  0  0  0  0  0  0  # atno 17370 bound_to 10713
  157.6064  131.0939  150.8872 LP  0  0  0  0  0  0  0  0  0  0  0  0  # atno 17371 bound_to 10713
  141.0257  133.7016  156.1343 LP  0  0  0  0  0  0  0  0  0  0  0  0  # atno 17394 bound_to 11000
  140.7170  134.4400  157.5578 LP  0  0  0  0  0  0  0  0  0  0  0  0  # atno 17395 bound_to 11000

$$$$
