AV-unprocessed.smi:3033|AV-procd|sdf|11573|dock1
  -GOLD-   2272016533D 1   1.00000     0.00000
 Structure written by MMmdl.
 33 34  0  0  0  0  0  0  0  0  1 V2000
  152.2401  144.8072  158.4630 C   0  0  0  0  0  0  0  0  0  0  0  0
  152.6891  144.0353  159.5672 O   0  0  0  0  0  0  0  0  0  0  0  0
  152.7118  142.6636  159.4332 C   0  0  0  0  0  0  0  0  0  0  0  0
  153.6025  141.8100  160.1313 C   0  0  0  0  0  0  0  0  0  0  0  0
  153.5578  140.4173  159.9300 C   0  0  0  0  0  0  0  0  0  0  0  0
  152.6258  139.8611  159.0350 C   0  0  0  0  0  0  0  0  0  0  0  0
  151.7299  140.6974  158.3364 C   0  0  0  0  0  0  0  0  0  0  0  0
  150.7231  140.1087  157.3597 C   0  0  2  0  0  0  0  0  0  0  0  0
  150.8317  138.7001  157.3077 O   0  0  0  0  0  0  0  0  0  0  0  0
  150.9235  140.6898  155.9428 C   0  0  0  0  0  0  0  0  0  0  0  0
  149.8401  140.3756  155.0420 N   0  0  0  0  0  0  0  0  0  0  0  0
  148.7642  141.2310  154.8598 C   0  0  0  0  0  0  0  0  0  0  0  0
  147.7216  140.9510  154.0412 C   0  0  0  0  0  0  0  0  0  0  0  0
  146.4158  142.0690  153.8708 Cl  0  0  0  0  0  0  0  0  0  0  0  0
  147.6936  139.6925  153.2971 C   0  0  0  0  0  0  0  0  0  0  0  0
  146.8020  139.3392  152.5280 O   0  0  0  0  0  0  0  0  0  0  0  0
  148.7943  138.8585  153.5166 N   0  0  0  0  0  0  0  0  0  0  0  0
  149.8705  139.1370  154.3601 C   0  0  0  0  0  0  0  0  0  0  0  0
  150.7809  138.3173  154.4790 O   0  0  0  0  0  0  0  0  0  0  0  0
  151.7826  142.0925  158.5395 C   0  0  0  0  0  0  0  0  0  0  0  0
  148.8110  137.9775  153.0239 H   0  0  0  0  0  0  0  0  0  0  0  0
  152.2738  145.8645  158.7254 H   0  0  0  0  0  0  0  0  0  0  0  0
  151.2091  144.5659  158.2002 H   0  0  0  0  0  0  0  0  0  0  0  0
  152.8788  144.6636  157.5905 H   0  0  0  0  0  0  0  0  0  0  0  0
  154.3310  142.1991  160.8262 H   0  0  0  0  0  0  0  0  0  0  0  0
  154.2411  139.7736  160.4638 H   0  0  0  0  0  0  0  0  0  0  0  0
  152.6019  138.7913  158.8854 H   0  0  0  0  0  0  0  0  0  0  0  0
  149.7202  140.3493  157.7155 H   0  0  0  0  0  0  0  0  0  0  0  0
  151.6370  138.4459  157.7316 H   0  0  0  0  0  0  0  0  0  0  0  0
  150.9256  141.7808  155.9845 H   0  0  0  0  0  0  0  0  0  0  0  0
  151.8757  140.4164  155.4829 H   0  0  0  0  0  0  0  0  0  0  0  0
  148.7526  142.1674  155.3999 H   0  0  0  0  0  0  0  0  0  0  0  0
  151.1032  142.7391  158.0033 H   0  0  0  0  0  0  0  0  0  0  0  0
  1  2  1  0  0  0  0
  1 22  1  0  0  0  0
  1 23  1  0  0  0  0
  1 24  1  0  0  0  0
  2  3  1  0  0  0  0
  3 20  1  0  0  0  0
  3  4  2  0  0  0  0
  4  5  1  0  0  0  0
  4 25  1  0  0  0  0
  5  6  2  0  0  0  0
  5 26  1  0  0  0  0
  6  7  1  0  0  0  0
  6 27  1  0  0  0  0
  7  8  1  0  0  0  0
  7 20  2  0  0  0  0
  8  9  1  0  0  0  0
  8 10  1  0  0  0  0
  8 28  1  0  0  0  0
  9 29  1  0  0  0  0
 10 11  1  0  0  0  0
 10 30  1  0  0  0  0
 10 31  1  0  0  0  0
 11 18  1  0  0  0  0
 11 12  1  0  0  0  0
 12 13  2  0  0  0  0
 12 32  1  0  0  0  0
 13 14  1  0  0  0  0
 13 15  1  0  0  0  0
 15 16  2  0  0  0  0
 15 17  1  0  0  0  0
 17 21  1  0  0  0  0
 17 18  1  0  0  0  0
 18 19  2  0  0  0  0
 20 33  1  0  0  0  0
M  END
> <s_m_source_file>
AV-unprocessed.smi

> <i_m_source_file_index>
3033

> <i_lp_mmshare_version>
43012

> <i_f3d_flags>
0

> <s_epik_input>
W0NIM11PYzFbY0hdW2NIXVtjSF1jKFtjSF0xKVtDQEhdKFtPSF0pW0NIMl1uMltjSF1jKENsKWMoPU8pW25IXWMyPU8=

> <s_epik_cmdline>
J2VwaWtfcHl0aG9uJywgJy1waCcsICc3LjAnLCAnLXRuJywgJzgnLCAnLW1hJywgJzIwMCcsICctbWV0YWxfYmluZGluZycsICctaW1hZScsICc8aW5maWxlLm1hZT4nLCAnLW9tYWUnLCAnPG91dGZpbGUubWFlPic=

> <r_lp_tautomer_probability>
0.999537

> <r_epik_Ionization_Penalty>
0.0292058

> <r_epik_Ionization_Penalty_Charging>
0.0292057

> <r_epik_Ionization_Penalty_Neutral>
7.1713e-08

> <r_epik_State_Penalty>
0.0240115

> <r_epik_Charging_Adjusted_Penalty>
0.0532172

> <i_epik_Tot_Q>
0

> <i_epik_Tot_abs_Q>
0

> <r_epik_Metal_State_Penalty>
2.21956

> <b_epik_Metal_Only>
0

> <s_lp_Force_Field>
OPLS_2005

> <r_lp_Energy>
16.8707

> <b_lp_Chiralities_Consistent>
1

> <s_lp_Variant>
AV-unprocessed.smi:3033-1

> <Gold.Version>
5.8.1

> <Gold.Id.Protein>
6NUR|6NUR_protein|mol2

> <Gold.PLP.Fitness>
47.9138

> <Gold.PLP.PLP>
-43.8452

> <Gold.PLP.part.hbond>
-1.8412

> <Gold.PLP.part.metal>
0.0000

> <Gold.PLP.part.buried>
-4.9822

> <Gold.PLP.part.nonpolar>
-38.4363

> <Gold.PLP.part.repulsive>
0.5591

> <Gold.PLP.ligand.clash>
0.0788

> <Gold.PLP.ligand.torsion>
0.7841

> <Gold.PLP.Chemscore.Hbond>
0.8938

> <Gold.PLP.Chemscore.CHOScore>
1.0000

> <Gold.PLP.Chemscore.Metal>
0.0000

> <Gold.Chemscore.Hbonds>
donor molecule, donor type, donor heavy atom, donor atom, acceptor molecule, acceptor atom, score
      L1  H    17    21       P1  7948  0.88
      L1  C    12    32       P1  8028  0.92

> <Gold.PLP.Chemscore.Internal.Correction>
0.0344

> <Gold.Rescore>
     Score         DG    S(hbond)    S(metal)    S(lipo)     H(rot)  DE(clash)    DE(int)     intcor
     11.62     -14.03       0.99        0.00      99.72       2.51       0.32       2.10       ----

> <Gold.Chemscore.Fitness>
11.6166

> <Gold.Chemscore.DG>
-14.0325

> <Gold.Chemscore.ZeroCoef>
-5.4800

> <Gold.Chemscore.Hbond>
0.9918

> <Gold.Chemscore.Metal>
0.0000

> <Gold.Chemscore.Lipo>
99.7214

> <Gold.Chemscore.Internal_Hbond>
0.0000

> <Gold.Chemscore.DEClash>
0.3196

> <Gold.Chemscore.DEInternal>
2.0962

> <Gold.Chemscore.Rot>
2.5107

> <Gold.Chemscore.Internal.Correction>
   9.000000E+99

> <Gold.Chemscore.Hbonds>
donor molecule, donor type, donor heavy atom, donor atom, acceptor molecule, acceptor atom, score
      L1  H    17    21       P1  7948  0.86

> <Gold.Chemscore.Hbond.Weighted>
-3.3125

> <Gold.Chemscore.Metal.Weighted>
-0.0000

> <Gold.Chemscore.Lipo.Weighted>
-11.6674

> <Gold.Chemscore.Internal_Hbond.Weighted>
0.0000

> <Gold.Chemscore.DEClash.Weighted>
0.3196

> <Gold.Chemscore.DEInternal.Weighted>
2.0962

> <Gold.Chemscore.Rot.Weighted>
6.4274

> <Gold.Chemscore.Internal.Correction.Weighted>
   9.000000E+99

> <Gold.Protein.RotatedTorsions>
[ 6907 6896 6895 6894 ] final   27.41 input  -60.11 | X-H torsion
[ 7974 7965 7964 7962 ] final  103.36 input  175.53 | X-H torsion
[ 8008 7997 7996 7995 ] final  -58.45 input   59.86 | X-H torsion
[ 10167 10162 10161 10158 ] final -155.31 input  -65.29 | X-H torsion
[ 10718 10713 10712 10709 ] final    7.43 input   66.30 | X-H torsion
[ 10763 10752 10751 10750 ] final -103.46 input  -60.55 | X-H torsion
[ 11005 11000 10999 10996 ] final  -78.95 input  -57.11 | X-H torsion

> <Gold.Protein.ActiveResidues>
 VAL166  LYS551  ARG553  GLY616  TRP617  ASP618  TYR619  PRO620  LYS621  CYS622 
 ASP623  PHE694  ASN695  SER759  ASP760  ASP761  ALA762  ILE779  LEU786  VAL792 
 PHE793  MET794  SER795  GLU796  ALA797  LYS798  CYS799  TRP800  GLU811  SER814 

> <Gold.Protein.RotatedAtoms>
  152.0019  134.9924  160.0565 H   0  0  0  0  0  0  0  0  0  0  0  0  # atno 6907 bound_to 6896
  152.1511  133.4518  159.4822 H   0  0  0  0  0  0  0  0  0  0  0  0  # atno 6908 bound_to 6896
  150.6875  134.2106  159.4401 H   0  0  0  0  0  0  0  0  0  0  0  0  # atno 6909 bound_to 6896
  145.3469  139.2448  143.3579 H   0  0  0  0  0  0  0  0  0  0  0  0  # atno 7974 bound_to 7965
  154.4309  140.1084  156.5959 H   0  0  0  0  0  0  0  0  0  0  0  0  # atno 8008 bound_to 7997
  155.5962  140.3492  155.4562 H   0  0  0  0  0  0  0  0  0  0  0  0  # atno 8009 bound_to 7997
  156.0208  140.1239  157.0348 H   0  0  0  0  0  0  0  0  0  0  0  0  # atno 8010 bound_to 7997
  139.6942  143.9370  152.2399 H   0  0  0  0  0  0  0  0  0  0  0  0  # atno 10167 bound_to 10162
  156.9368  130.5846  149.5651 H   0  0  0  0  0  0  0  0  0  0  0  0  # atno 10718 bound_to 10713
  154.7809  135.4822  153.9842 H   0  0  0  0  0  0  0  0  0  0  0  0  # atno 10763 bound_to 10752
  153.1492  135.6788  153.8915 H   0  0  0  0  0  0  0  0  0  0  0  0  # atno 10764 bound_to 10752
  153.8565  135.3160  155.3414 H   0  0  0  0  0  0  0  0  0  0  0  0  # atno 10765 bound_to 10752
  141.1666  133.7085  156.8049 H   0  0  0  0  0  0  0  0  0  0  0  0  # atno 11005 bound_to 11000
  146.2984  140.4077  142.8713 LP  0  0  0  0  0  0  0  0  0  0  0  0  # atno 17320 bound_to 7965
  144.8747  140.7321  143.6024 LP  0  0  0  0  0  0  0  0  0  0  0  0  # atno 17321 bound_to 7965
  139.9195  144.6808  150.8477 LP  0  0  0  0  0  0  0  0  0  0  0  0  # atno 17342 bound_to 10162
  140.7691  143.3385  151.2258 LP  0  0  0  0  0  0  0  0  0  0  0  0  # atno 17343 bound_to 10162
  156.0422  130.5503  150.8798 LP  0  0  0  0  0  0  0  0  0  0  0  0  # atno 17370 bound_to 10713
  157.5811  131.0946  150.9269 LP  0  0  0  0  0  0  0  0  0  0  0  0  # atno 17371 bound_to 10713
  140.2230  134.8743  157.3397 LP  0  0  0  0  0  0  0  0  0  0  0  0  # atno 17394 bound_to 11000
  140.1969  134.4303  155.7684 LP  0  0  0  0  0  0  0  0  0  0  0  0  # atno 17395 bound_to 11000

$$$$
