AV-unprocessed.smi:72|AV-procd|sdf|691|dock3
  -GOLD-   2262017 03D 1   1.00000     0.00000
 Structure written by MMmdl.
 29 30  0  0  0  0  0  0  0  0  1 V2000
  153.6912  138.8090  157.6067 N   0  0  0  0  0  0  0  0  0  0  0  0
  152.4586  139.0604  157.3454 C   0  0  0  0  0  0  0  0  0  0  0  0
  151.4296  139.1537  158.2948 N   0  0  0  0  0  0  0  0  0  0  0  0
  150.2286  139.4225  157.8837 C   0  0  0  0  0  0  0  0  0  0  0  0
  149.9176  139.6271  156.4771 N   0  0  0  0  0  0  0  0  0  0  0  0
  148.5051  139.9382  156.0283 C   0  0  2  0  0  0  0  0  0  0  0  0
  148.1803  139.1065  154.9553 O   0  0  0  0  0  0  0  0  0  0  0  0
  147.4127  139.8384  154.0061 C   0  0  2  0  0  0  0  0  0  0  0  0
  147.4525  139.1663  152.6222 C   0  0  0  0  0  0  0  0  0  0  0  0
  146.9532  137.8484  152.7074 O   0  0  0  0  0  0  0  0  0  0  0  0
  148.0183  141.2480  154.0777 C   0  0  2  0  0  0  0  0  0  0  0  0
  149.1863  141.3408  153.2784 O   0  0  0  0  0  0  0  0  0  0  0  0
  148.3160  141.3994  155.5670 C   0  0  2  0  0  0  0  0  0  0  0  0
  149.3938  142.2799  155.8383 O   0  0  0  0  0  0  0  0  0  0  0  0
  150.9424  139.5221  155.5049 C   0  0  0  0  0  0  0  0  0  0  0  0
  150.7326  139.6630  154.3004 O   0  0  0  0  0  0  0  0  0  0  0  0
  152.1739  139.2472  155.9865 N   0  0  0  0  0  0  0  0  0  0  0  0
  147.8480  139.6780  156.8592 H   0  0  0  0  0  0  0  0  0  0  0  0
  146.3831  139.8946  154.3658 H   0  0  0  0  0  0  0  0  0  0  0  0
  147.3132  142.0042  153.7310 H   0  0  0  0  0  0  0  0  0  0  0  0
  147.4267  141.7802  156.0710 H   0  0  0  0  0  0  0  0  0  0  0  0
  153.8170  138.6873  158.6015 H   0  0  0  0  0  0  0  0  0  0  0  0
  149.3786  139.5098  158.5614 H   0  0  0  0  0  0  0  0  0  0  0  0
  146.8168  139.7097  151.9226 H   0  0  0  0  0  0  0  0  0  0  0  0
  148.4622  139.1628  152.2102 H   0  0  0  0  0  0  0  0  0  0  0  0
  147.6595  137.2472  152.5260 H   0  0  0  0  0  0  0  0  0  0  0  0
  149.1323  140.6881  152.5969 H   0  0  0  0  0  0  0  0  0  0  0  0
  149.0392  143.1384  156.0133 H   0  0  0  0  0  0  0  0  0  0  0  0
  152.9297  139.1682  155.3217 H   0  0  0  0  0  0  0  0  0  0  0  0
  1  2  2  0  0  0  0
  1 22  1  0  0  0  0
  2 17  1  0  0  0  0
  2  3  1  0  0  0  0
  3  4  2  0  0  0  0
  4  5  1  0  0  0  0
  4 23  1  0  0  0  0
  5  6  1  0  0  0  0
  5 15  1  0  0  0  0
  6 18  1  0  0  0  0
  6 13  1  0  0  0  0
  6  7  1  0  0  0  0
  7  8  1  0  0  0  0
  8 19  1  0  0  0  0
  8  9  1  0  0  0  0
  8 11  1  0  0  0  0
  9 10  1  0  0  0  0
  9 24  1  0  0  0  0
  9 25  1  0  0  0  0
 10 26  1  0  0  0  0
 11 20  1  0  0  0  0
 11 12  1  0  0  0  0
 11 13  1  0  0  0  0
 12 27  1  0  0  0  0
 13 21  1  0  0  0  0
 13 14  1  0  0  0  0
 14 28  1  0  0  0  0
 15 16  2  0  0  0  0
 15 17  1  0  0  0  0
 17 29  1  0  0  0  0
M  END
> <s_m_source_file>
AV-unprocessed.smi

> <i_m_source_file_index>
72

> <i_lp_mmshare_version>
43012

> <i_f3d_flags>
0

> <s_epik_input>
W05IMl1jMW5bY0hdbihjKD1PKW4xKVtDQEBIXTJPW0NASF0oW0NIMl1bT0hdKVtDQEBIXShbT0hdKVtDQEhdMltPSF0=

> <s_epik_cmdline>
J2VwaWtfcHl0aG9uJywgJy1waCcsICc3LjAnLCAnLXRuJywgJzgnLCAnLW1hJywgJzIwMCcsICctbWV0YWxfYmluZGluZycsICctaW1hZScsICc8aW5maWxlLm1hZT4nLCAnLW9tYWUnLCAnPG91dGZpbGUubWFlPic=

> <r_lp_tautomer_probability>
7.17554e-07

> <r_epik_Ionization_Penalty>
0.0066451

> <r_epik_Ionization_Penalty_Charging>
0.00663793

> <r_epik_Ionization_Penalty_Neutral>
7.17052e-06

> <r_epik_State_Penalty>
0.419231

> <r_epik_Charging_Adjusted_Penalty>
0.425868

> <i_epik_Tot_Q>
0

> <i_epik_Tot_abs_Q>
0

> <r_epik_Metal_State_Penalty>
1.44144

> <b_epik_Metal_Only>
0

> <s_epik_Chemistry_Notes>
This compound contains an acetal/aminal-like group ( X-CH(R)-Y where X, Y are N, S, or O) that may be acid/base labile, releasing an aldehyde.

> <s_lp_Force_Field>
OPLS_2005

> <r_lp_Energy>
48.2087

> <b_lp_Chiralities_Consistent>
1

> <s_lp_Variant>
AV-unprocessed.smi:72-29

> <Gold.Version>
5.8.1

> <Gold.Id.Protein>
6NUR|6NUR_protein|mol2

> <Gold.PLP.Fitness>
38.2043

> <Gold.PLP.PLP>
-21.0149

> <Gold.PLP.part.hbond>
-6.3581

> <Gold.PLP.part.metal>
0.0000

> <Gold.PLP.part.buried>
-1.7409

> <Gold.PLP.part.nonpolar>
-12.9426

> <Gold.PLP.part.repulsive>
0.3849

> <Gold.PLP.ligand.clash>
0.0000

> <Gold.PLP.ligand.torsion>
0.2748

> <Gold.PLP.Chemscore.Hbond>
5.9120

> <Gold.PLP.Chemscore.CHOScore>
0.0000

> <Gold.PLP.Chemscore.Metal>
0.0000

> <Gold.Chemscore.Hbonds>
donor molecule, donor type, donor heavy atom, donor atom, acceptor molecule, acceptor atom, score
      L1  H    10    26       P1  7948  1.00
      L1  H    12    27       P1  7957  1.00
      L1  H    14    28       P1  8028  1.00
      P1  H  7989  7998       L1    16  1.00
      P1  H  7997  8009       L1     1  1.00
      P1  H  8011  8017       L1    12  0.65

> <Gold.PLP.Chemscore.Internal.Correction>
0.0029

> <Gold.Rescore>
     Score         DG    S(hbond)    S(metal)    S(lipo)     H(rot)  DE(clash)    DE(int)     intcor
     11.38     -14.91       5.07        0.00      24.81       4.06       0.05       3.48       ----

> <Gold.Chemscore.Fitness>
11.3823

> <Gold.Chemscore.DG>
-14.9111

> <Gold.Chemscore.ZeroCoef>
-5.4800

> <Gold.Chemscore.Hbond>
5.0665

> <Gold.Chemscore.Metal>
0.0000

> <Gold.Chemscore.Lipo>
24.8087

> <Gold.Chemscore.Internal_Hbond>
0.0000

> <Gold.Chemscore.DEClash>
0.0515

> <Gold.Chemscore.DEInternal>
3.4773

> <Gold.Chemscore.Rot>
4.0600

> <Gold.Chemscore.Internal.Correction>
   9.000000E+99

> <Gold.Chemscore.Hbonds>
donor molecule, donor type, donor heavy atom, donor atom, acceptor molecule, acceptor atom, score
      L1  H    10    26       P1  7948  1.00
      L1  H    12    27       P1  7957  0.96
      L1  H    14    28       P1  8028  0.96
      P1  H  7989  7998       L1    16  0.96
      P1  H  7997  8009       L1     1  0.37
      P1  H  8011  8017       L1    12  0.05

> <Gold.Chemscore.Hbond.Weighted>
-16.9221

> <Gold.Chemscore.Metal.Weighted>
-0.0000

> <Gold.Chemscore.Lipo.Weighted>
-2.9026

> <Gold.Chemscore.Internal_Hbond.Weighted>
0.0000

> <Gold.Chemscore.DEClash.Weighted>
0.0515

> <Gold.Chemscore.DEInternal.Weighted>
3.4773

> <Gold.Chemscore.Rot.Weighted>
10.3936

> <Gold.Chemscore.Internal.Correction.Weighted>
   9.000000E+99

> <Gold.Protein.RotatedTorsions>
[ 6907 6896 6895 6894 ] final   34.04 input  -60.11 | X-H torsion
[ 7974 7965 7964 7962 ] final    4.88 input  175.53 | X-H torsion
[ 8008 7997 7996 7995 ] final  168.42 input   59.86 | X-H torsion
[ 10167 10162 10161 10158 ] final  -13.58 input  -65.29 | X-H torsion
[ 10718 10713 10712 10709 ] final  157.43 input   66.30 | X-H torsion
[ 10763 10752 10751 10750 ] final -131.04 input  -60.55 | X-H torsion
[ 11005 11000 10999 10996 ] final  118.95 input  -57.11 | X-H torsion

> <Gold.Protein.ActiveResidues>
 VAL166  LYS551  ARG553  GLY616  TRP617  ASP618  TYR619  PRO620  LYS621  CYS622 
 ASP623  PHE694  ASN695  SER759  ASP760  ASP761  ALA762  ILE779  LEU786  VAL792 
 PHE793  MET794  SER795  GLU796  ALA797  LYS798  CYS799  TRP800  GLU811  SER814 

> <Gold.Protein.RotatedAtoms>
  152.0969  134.9369  160.0570 H   0  0  0  0  0  0  0  0  0  0  0  0  # atno 6907 bound_to 6896
  152.0598  133.4052  159.4421 H   0  0  0  0  0  0  0  0  0  0  0  0  # atno 6908 bound_to 6896
  150.6838  134.3133  159.4799 H   0  0  0  0  0  0  0  0  0  0  0  0  # atno 6909 bound_to 6896
  146.2442  140.0467  142.8378 H   0  0  0  0  0  0  0  0  0  0  0  0  # atno 7974 bound_to 7965
  156.1548  140.1591  156.8710 H   0  0  0  0  0  0  0  0  0  0  0  0  # atno 8008 bound_to 7997
  154.5105  140.0802  156.8016 H   0  0  0  0  0  0  0  0  0  0  0  0  # atno 8009 bound_to 7997
  155.3824  140.3406  155.4249 H   0  0  0  0  0  0  0  0  0  0  0  0  # atno 8010 bound_to 7997
  140.7185  143.5411  150.9408 H   0  0  0  0  0  0  0  0  0  0  0  0  # atno 10167 bound_to 10162
  157.1916  131.0656  151.2076 H   0  0  0  0  0  0  0  0  0  0  0  0  # atno 10718 bound_to 10713
  154.8753  135.3843  154.4181 H   0  0  0  0  0  0  0  0  0  0  0  0  # atno 10763 bound_to 10752
  153.4887  135.7030  153.5901 H   0  0  0  0  0  0  0  0  0  0  0  0  # atno 10764 bound_to 10752
  153.4285  135.3884  155.2122 H   0  0  0  0  0  0  0  0  0  0  0  0  # atno 10765 bound_to 10752
  139.9128  134.9624  156.7581 H   0  0  0  0  0  0  0  0  0  0  0  0  # atno 11005 bound_to 11000
  145.1020  140.9352  143.4707 LP  0  0  0  0  0  0  0  0  0  0  0  0  # atno 17320 bound_to 7965
  145.0663  139.3066  143.5855 LP  0  0  0  0  0  0  0  0  0  0  0  0  # atno 17321 bound_to 7965
  139.9134  143.6692  152.3111 LP  0  0  0  0  0  0  0  0  0  0  0  0  # atno 17342 bound_to 10162
  139.7084  144.7624  151.1154 LP  0  0  0  0  0  0  0  0  0  0  0  0  # atno 17343 bound_to 10162
  157.3855  130.7254  149.6660 LP  0  0  0  0  0  0  0  0  0  0  0  0  # atno 17370 bound_to 10713
  155.9711  130.4161  150.4213 LP  0  0  0  0  0  0  0  0  0  0  0  0  # atno 17371 bound_to 10713
  140.6719  133.9552  155.7861 LP  0  0  0  0  0  0  0  0  0  0  0  0  # atno 17394 bound_to 11000
  141.0571  134.0400  157.3708 LP  0  0  0  0  0  0  0  0  0  0  0  0  # atno 17395 bound_to 11000

$$$$
