AV-unprocessed.smi:656|AV-procd|sdf|3219|dock7
  -GOLD-   22720 0153D 1   1.00000     0.00000
 Structure written by MMmdl.
 41 42  0  0  0  0  0  0  0  0  2 V2000
  143.7561  145.5224  154.3841 C   0  0  0  0  0  0  0  0  0  0  0  0
  144.3434  144.4355  155.2910 C   0  0  0  0  0  0  0  0  0  0  0  0
  143.8922  143.0238  154.8775 C   0  0  0  0  0  0  0  0  0  0  0  0
  145.0342  142.1046  154.6385 N   0  3  2  0  0  0  0  0  0  0  0  0
  145.5654  141.5349  155.9042 C   0  0  0  0  0  0  0  0  0  0  0  0
  146.6606  140.4863  155.6351 C   0  0  0  0  0  0  0  0  0  0  0  0
  147.8031  141.0527  154.7749 C   0  0  2  0  0  0  0  0  0  0  0  0
  148.6006  142.0060  155.5466 N   0  0  0  0  0  0  0  0  0  0  0  0
  149.3634  141.7004  156.6067 C   0  0  0  0  0  0  0  0  0  0  0  0
  149.4851  140.5571  157.0466 O   0  0  0  0  0  0  0  0  0  0  0  0
  149.9615  142.7950  157.1078 N   0  0  0  0  0  0  0  0  0  0  0  0
  150.8640  142.8750  158.2008 C   0  0  0  0  0  0  0  0  0  0  0  0
  151.6844  144.0231  158.2244 C   0  0  0  0  0  0  0  0  0  0  0  0
  152.6055  144.1627  159.2765 C   0  0  0  0  0  0  0  0  0  0  0  0
  152.6436  143.1387  160.2383 C   0  0  0  0  0  0  0  0  0  0  0  0
  151.8383  142.0561  160.1765 N   0  0  0  0  0  0  0  0  0  0  0  0
  150.9641  141.9300  159.1721 N   0  0  0  0  0  0  0  0  0  0  0  0
  147.2171  141.6880  153.4987 C   0  0  0  0  0  0  0  0  0  0  0  0
  146.1151  142.7133  153.8179 C   0  0  0  0  0  0  0  0  0  0  0  0
  144.0885  146.5120  154.6989 H   0  0  0  0  0  0  0  0  0  0  0  0
  142.6661  145.5130  154.4130 H   0  0  0  0  0  0  0  0  0  0  0  0
  144.0654  145.3824  153.3479 H   0  0  0  0  0  0  0  0  0  0  0  0
  145.4321  144.4955  155.2614 H   0  0  0  0  0  0  0  0  0  0  0  0
  144.0493  144.6481  156.3183 H   0  0  0  0  0  0  0  0  0  0  0  0
  143.2205  142.5964  155.6238 H   0  0  0  0  0  0  0  0  0  0  0  0
  143.3113  143.1151  153.9584 H   0  0  0  0  0  0  0  0  0  0  0  0
  145.9540  142.3392  156.5309 H   0  0  0  0  0  0  0  0  0  0  0  0
  144.7560  141.0642  156.4636 H   0  0  0  0  0  0  0  0  0  0  0  0
  147.0513  140.1010  156.5778 H   0  0  0  0  0  0  0  0  0  0  0  0
  146.2163  139.6328  155.1212 H   0  0  0  0  0  0  0  0  0  0  0  0
  148.4559  140.2253  154.4902 H   0  0  0  0  0  0  0  0  0  0  0  0
  148.5558  142.9734  155.2616 H   0  0  0  0  0  0  0  0  0  0  0  0
  149.7548  143.6712  156.6519 H   0  0  0  0  0  0  0  0  0  0  0  0
  151.6128  144.7800  157.4569 H   0  0  0  0  0  0  0  0  0  0  0  0
  153.2575  145.0209  159.3434 H   0  0  0  0  0  0  0  0  0  0  0  0
  153.3303  143.1870  161.0703 H   0  0  0  0  0  0  0  0  0  0  0  0
  148.0019  142.1564  152.9037 H   0  0  0  0  0  0  0  0  0  0  0  0
  146.7977  140.9011  152.8704 H   0  0  0  0  0  0  0  0  0  0  0  0
  145.7121  143.0910  152.8791 H   0  0  0  0  0  0  0  0  0  0  0  0
  146.5375  143.5706  154.3443 H   0  0  0  0  0  0  0  0  0  0  0  0
  144.6675  141.3246  154.1119 H   0  0  0  0  0  0  0  0  0  0  0  0
  1  2  1  0  0  0  0
  1 20  1  0  0  0  0
  1 21  1  0  0  0  0
  1 22  1  0  0  0  0
  2  3  1  0  0  0  0
  2 23  1  0  0  0  0
  2 24  1  0  0  0  0
  3  4  1  0  0  0  0
  3 25  1  0  0  0  0
  3 26  1  0  0  0  0
  4 19  1  0  0  0  0
  4  5  1  0  0  0  0
  4 41  1  0  0  0  0
  5  6  1  0  0  0  0
  5 27  1  0  0  0  0
  5 28  1  0  0  0  0
  6  7  1  0  0  0  0
  6 29  1  0  0  0  0
  6 30  1  0  0  0  0
  7  8  1  0  0  0  0
  7 18  1  0  0  0  0
  7 31  1  0  0  0  0
  8  9  1  0  0  0  0
  8 32  1  0  0  0  0
  9 10  2  0  0  0  0
  9 11  1  0  0  0  0
 11 12  1  0  0  0  0
 11 33  1  0  0  0  0
 12 17  1  0  0  0  0
 12 13  2  0  0  0  0
 13 14  1  0  0  0  0
 13 34  1  0  0  0  0
 14 15  2  0  0  0  0
 14 35  1  0  0  0  0
 15 16  1  0  0  0  0
 15 36  1  0  0  0  0
 16 17  2  0  0  0  0
 18 19  1  0  0  0  0
 18 37  1  0  0  0  0
 18 38  1  0  0  0  0
 19 39  1  0  0  0  0
 19 40  1  0  0  0  0
M  CHG  1   4   1
M  END
> <s_m_source_file>
AV-unprocessed.smi

> <i_m_source_file_index>
656

> <i_lp_mmshare_version>
43012

> <i_f3d_flags>
0

> <s_epik_input>
W0NIM11bQ0gyXVtDSDJdTjFbQ0gyXVtDSDJdW0NIXShbQ0gyXVtDSDJdMSlbTkhdQyg9TylbTkhdYzJbY0hdW2NIXVtjSF1ubjI=

> <s_epik_cmdline>
J2VwaWtfcHl0aG9uJywgJy1waCcsICc3LjAnLCAnLXRuJywgJzgnLCAnLW1hJywgJzIwMCcsICctbWV0YWxfYmluZGluZycsICctaW1hZScsICc8aW5maWxlLm1hZT4nLCAnLW9tYWUnLCAnPG91dGZpbGUubWFlPic=

> <r_lp_tautomer_probability>
1

> <r_epik_Ionization_Penalty>
0.00614766

> <r_epik_Ionization_Penalty_Charging>
0.00269617

> <r_epik_Ionization_Penalty_Neutral>
0.00345149

> <r_epik_State_Penalty>
-0

> <r_epik_Charging_Adjusted_Penalty>
0.00269617

> <i_epik_Tot_Q>
1

> <i_epik_Tot_abs_Q>
1

> <r_epik_Metal_State_Penalty>
-0

> <b_epik_Metal_Only>
0

> <s_lp_Force_Field>
OPLS_2005

> <r_lp_Energy>
22.9398

> <b_lp_Chiralities_Consistent>
1

> <s_lp_Variant>
AV-unprocessed.smi:656-2

> <Gold.Version>
5.8.1

> <Gold.Id.Protein>
6NUR|6NUR_protein|mol2

> <Gold.PLP.Fitness>
44.7911

> <Gold.PLP.PLP>
-34.9893

> <Gold.PLP.part.hbond>
-3.8155

> <Gold.PLP.part.metal>
0.0000

> <Gold.PLP.part.buried>
-5.1937

> <Gold.PLP.part.nonpolar>
-26.2083

> <Gold.PLP.part.repulsive>
0.1614

> <Gold.PLP.ligand.clash>
0.0000

> <Gold.PLP.ligand.torsion>
0.6806

> <Gold.PLP.Chemscore.Hbond>
3.7145

> <Gold.PLP.Chemscore.CHOScore>
0.0000

> <Gold.PLP.Chemscore.Metal>
0.0000

> <Gold.Chemscore.Hbonds>
donor molecule, donor type, donor heavy atom, donor atom, acceptor molecule, acceptor atom, score
      L1  H     4    41       P1 10175  1.82
      L1  H     8    32       P1  8028  0.99
      L1  H    11    33       P1  8028  1.00

> <Gold.PLP.Chemscore.Internal.Correction>
0.0195

> <Gold.Rescore>
     Score         DG    S(hbond)    S(metal)    S(lipo)     H(rot)  DE(clash)    DE(int)     intcor
     17.38     -19.53       2.63        0.00      76.80       1.45       0.14       2.01       ----

> <Gold.Chemscore.Fitness>
17.3783

> <Gold.Chemscore.DG>
-19.5269

> <Gold.Chemscore.ZeroCoef>
-5.4800

> <Gold.Chemscore.Hbond>
2.6281

> <Gold.Chemscore.Metal>
0.0000

> <Gold.Chemscore.Lipo>
76.8008

> <Gold.Chemscore.Internal_Hbond>
0.0000

> <Gold.Chemscore.DEClash>
0.1417

> <Gold.Chemscore.DEInternal>
2.0069

> <Gold.Chemscore.Rot>
1.4518

> <Gold.Chemscore.Internal.Correction>
   9.000000E+99

> <Gold.Chemscore.Hbonds>
donor molecule, donor type, donor heavy atom, donor atom, acceptor molecule, acceptor atom, score
      L1  H     4    41       P1 10175  0.47
      L1  H     8    32       P1  8028  0.93
      L1  H    11    33       P1  8028  0.99

> <Gold.Chemscore.Hbond.Weighted>
-8.7777

> <Gold.Chemscore.Metal.Weighted>
-0.0000

> <Gold.Chemscore.Lipo.Weighted>
-8.9857

> <Gold.Chemscore.Internal_Hbond.Weighted>
0.0000

> <Gold.Chemscore.DEClash.Weighted>
0.1417

> <Gold.Chemscore.DEInternal.Weighted>
2.0069

> <Gold.Chemscore.Rot.Weighted>
3.7165

> <Gold.Chemscore.Internal.Correction.Weighted>
   9.000000E+99

> <Gold.Protein.RotatedTorsions>
[ 6907 6896 6895 6894 ] final  -37.46 input  -60.11 | X-H torsion
[ 7974 7965 7964 7962 ] final -152.30 input  175.53 | X-H torsion
[ 8008 7997 7996 7995 ] final  121.22 input   59.86 | X-H torsion
[ 10167 10162 10161 10158 ] final  152.04 input  -65.29 | X-H torsion
[ 10718 10713 10712 10709 ] final   16.24 input   66.30 | X-H torsion
[ 10763 10752 10751 10750 ] final  159.39 input  -60.55 | X-H torsion
[ 11005 11000 10999 10996 ] final -103.33 input  -57.11 | X-H torsion

> <Gold.Protein.ActiveResidues>
 VAL166  LYS551  ARG553  GLY616  TRP617  ASP618  TYR619  PRO620  LYS621  CYS622 
 ASP623  PHE694  ASN695  SER759  ASP760  ASP761  ALA762  ILE779  LEU786  VAL792 
 PHE793  MET794  SER795  GLU796  ALA797  LYS798  CYS799  TRP800  GLU811  SER814 

> <Gold.Protein.RotatedAtoms>
  151.0144  134.9422  159.8024 H   0  0  0  0  0  0  0  0  0  0  0  0  # atno 6907 bound_to 6896
  152.5310  134.2985  159.9079 H   0  0  0  0  0  0  0  0  0  0  0  0  # atno 6908 bound_to 6896
  151.2992  133.4088  159.2672 H   0  0  0  0  0  0  0  0  0  0  0  0  # atno 6909 bound_to 6896
  144.7801  140.4680  143.5845 H   0  0  0  0  0  0  0  0  0  0  0  0  # atno 7974 bound_to 7965
  156.2677  140.2813  156.1273 H   0  0  0  0  0  0  0  0  0  0  0  0  # atno 8008 bound_to 7997
  155.1091  140.0390  157.2736 H   0  0  0  0  0  0  0  0  0  0  0  0  # atno 8009 bound_to 7997
  154.6756  140.2597  155.6967 H   0  0  0  0  0  0  0  0  0  0  0  0  # atno 8010 bound_to 7997
  139.4836  144.5391  151.7596 H   0  0  0  0  0  0  0  0  0  0  0  0  # atno 10167 bound_to 10162
  157.0650  130.6324  149.5794 H   0  0  0  0  0  0  0  0  0  0  0  0  # atno 10718 bound_to 10713
  154.2310  135.2778  155.2890 H   0  0  0  0  0  0  0  0  0  0  0  0  # atno 10763 bound_to 10752
  154.5624  135.5643  153.7022 H   0  0  0  0  0  0  0  0  0  0  0  0  # atno 10764 bound_to 10752
  153.0020  135.6301  154.2452 H   0  0  0  0  0  0  0  0  0  0  0  0  # atno 10765 bound_to 10752
  141.1150  133.8631  157.1472 H   0  0  0  0  0  0  0  0  0  0  0  0  # atno 11005 bound_to 11000
  145.6073  139.1509  143.3095 LP  0  0  0  0  0  0  0  0  0  0  0  0  # atno 17320 bound_to 7965
  146.2005  140.6191  142.9104 LP  0  0  0  0  0  0  0  0  0  0  0  0  # atno 17321 bound_to 7965
  140.4927  144.1286  150.5953 LP  0  0  0  0  0  0  0  0  0  0  0  0  # atno 17342 bound_to 10162
  140.4152  143.2637  151.9783 LP  0  0  0  0  0  0  0  0  0  0  0  0  # atno 17343 bound_to 10162
  155.9967  130.5037  150.7507 LP  0  0  0  0  0  0  0  0  0  0  0  0  # atno 17370 bound_to 10713
  157.4924  131.0912  151.0411 LP  0  0  0  0  0  0  0  0  0  0  0  0  # atno 17371 bound_to 10713
  140.0067  135.0005  157.0308 LP  0  0  0  0  0  0  0  0  0  0  0  0  # atno 17394 bound_to 11000
  140.4670  134.1426  155.7198 LP  0  0  0  0  0  0  0  0  0  0  0  0  # atno 17395 bound_to 11000

$$$$
