AV-unprocessed.smi:1703|AV-procd|sdf|6865|dock1
  -GOLD-   22720 8 53D 1   1.00000     0.00000
 Structure written by MMmdl.
 49 51  0  0  0  0  0  0  0  0  2 V2000
  146.4880  132.8272  154.5555 C   0  0  0  0  0  0  0  0  0  0  0  0
  146.6783  133.7112  153.3182 C   0  0  2  0  0  0  0  0  0  0  0  0
  146.1368  135.1373  153.5326 C   0  0  0  0  0  0  0  0  0  0  0  0
  146.2769  135.9336  152.2890 N   0  3  2  0  0  0  0  0  0  0  0  0
  145.8393  137.3464  152.4286 C   0  0  0  0  0  0  0  0  0  0  0  0
  146.9963  138.2854  152.8229 C   0  0  1  0  0  0  0  0  0  0  0  0
  147.7384  138.6032  151.6607 O   0  0  0  0  0  0  0  0  0  0  0  0
  146.4824  139.5827  153.4792 C   0  0  0  0  0  0  0  0  0  0  0  0
  147.5050  140.2595  154.2666 N   0  0  0  0  0  0  0  0  0  0  0  0
  147.6622  141.5922  154.4691 C   0  0  0  0  0  0  0  0  0  0  0  0
  146.7472  142.6087  153.8580 C   0  0  0  0  0  0  0  0  0  0  0  0
  145.3844  142.3236  154.0892 O   0  0  0  0  0  0  0  0  0  0  0  0
  148.6877  141.9446  155.2448 N   0  0  0  0  0  0  0  0  0  0  0  0
  149.2526  140.7281  155.5735 C   0  0  0  0  0  0  0  0  0  0  0  0
  150.3752  140.4242  156.3763 C   0  0  0  0  0  0  0  0  0  0  0  0
  150.7701  139.0849  156.5736 C   0  0  0  0  0  0  0  0  0  0  0  0
  150.0510  138.0325  155.9710 C   0  0  0  0  0  0  0  0  0  0  0  0
  148.9302  138.3131  155.1664 C   0  0  0  0  0  0  0  0  0  0  0  0
  148.5382  139.6519  154.9745 C   0  0  0  0  0  0  0  0  0  0  0  0
  145.6170  135.2405  151.1574 C   0  0  0  0  0  0  0  0  0  0  0  0
  146.1685  133.8099  151.0061 C   0  0  2  0  0  0  0  0  0  0  0  0
  145.4570  133.0297  149.8953 C   0  0  0  0  0  0  0  0  0  0  0  0
  145.9838  133.1087  152.2311 O   0  0  0  0  0  0  0  0  0  0  0  0
  147.0065  133.2435  155.4196 H   0  0  0  0  0  0  0  0  0  0  0  0
  146.8826  131.8255  154.3829 H   0  0  0  0  0  0  0  0  0  0  0  0
  145.4330  132.7294  154.8132 H   0  0  0  0  0  0  0  0  0  0  0  0
  147.7436  133.7547  153.0840 H   0  0  0  0  0  0  0  0  0  0  0  0
  145.0862  135.1013  153.8262 H   0  0  0  0  0  0  0  0  0  0  0  0
  146.6801  135.6097  154.3504 H   0  0  0  0  0  0  0  0  0  0  0  0
  145.4181  137.6946  151.4840 H   0  0  0  0  0  0  0  0  0  0  0  0
  145.0316  137.4036  153.1601 H   0  0  0  0  0  0  0  0  0  0  0  0
  147.6660  137.7841  153.5203 H   0  0  0  0  0  0  0  0  0  0  0  0
  148.2378  139.3888  151.8249 H   0  0  0  0  0  0  0  0  0  0  0  0
  146.1183  140.2742  152.7180 H   0  0  0  0  0  0  0  0  0  0  0  0
  145.6274  139.3691  154.1205 H   0  0  0  0  0  0  0  0  0  0  0  0
  146.9816  143.5997  154.2458 H   0  0  0  0  0  0  0  0  0  0  0  0
  146.9171  142.6450  152.7815 H   0  0  0  0  0  0  0  0  0  0  0  0
  145.0690  142.8973  154.7707 H   0  0  0  0  0  0  0  0  0  0  0  0
  150.9331  141.2233  156.8412 H   0  0  0  0  0  0  0  0  0  0  0  0
  151.6290  138.8643  157.1901 H   0  0  0  0  0  0  0  0  0  0  0  0
  150.3607  137.0096  156.1272 H   0  0  0  0  0  0  0  0  0  0  0  0
  148.3783  137.5081  154.7051 H   0  0  0  0  0  0  0  0  0  0  0  0
  144.5387  135.2167  151.3245 H   0  0  0  0  0  0  0  0  0  0  0  0
  145.7876  135.7973  150.2349 H   0  0  0  0  0  0  0  0  0  0  0  0
  147.2341  133.8490  150.7726 H   0  0  0  0  0  0  0  0  0  0  0  0
  145.5718  133.5261  148.9314 H   0  0  0  0  0  0  0  0  0  0  0  0
  144.3899  132.9356  150.0989 H   0  0  0  0  0  0  0  0  0  0  0  0
  145.8677  132.0240  149.8010 H   0  0  0  0  0  0  0  0  0  0  0  0
  147.2619  135.9642  152.0659 H   0  0  0  0  0  0  0  0  0  0  0  0
  1  2  1  0  0  0  0
  1 24  1  0  0  0  0
  1 25  1  0  0  0  0
  1 26  1  0  0  0  0
  2 23  1  0  0  0  0
  2  3  1  0  0  0  0
  2 27  1  0  0  0  0
  3  4  1  0  0  0  0
  3 28  1  0  0  0  0
  3 29  1  0  0  0  0
  4  5  1  0  0  0  0
  4 20  1  0  0  0  0
  4 49  1  0  0  0  0
  5  6  1  0  0  0  0
  5 30  1  0  0  0  0
  5 31  1  0  0  0  0
  6  7  1  0  0  0  0
  6  8  1  0  0  0  0
  6 32  1  0  0  0  0
  7 33  1  0  0  0  0
  8  9  1  0  0  0  0
  8 34  1  0  0  0  0
  8 35  1  0  0  0  0
  9 19  1  0  0  0  0
  9 10  1  0  0  0  0
 10 11  1  0  0  0  0
 10 13  2  0  0  0  0
 11 12  1  0  0  0  0
 11 36  1  0  0  0  0
 11 37  1  0  0  0  0
 12 38  1  0  0  0  0
 13 14  1  0  0  0  0
 14 19  2  0  0  0  0
 14 15  1  0  0  0  0
 15 16  2  0  0  0  0
 15 39  1  0  0  0  0
 16 17  1  0  0  0  0
 16 40  1  0  0  0  0
 17 18  2  0  0  0  0
 17 41  1  0  0  0  0
 18 19  1  0  0  0  0
 18 42  1  0  0  0  0
 20 21  1  0  0  0  0
 20 43  1  0  0  0  0
 20 44  1  0  0  0  0
 21 22  1  0  0  0  0
 21 23  1  0  0  0  0
 21 45  1  0  0  0  0
 22 46  1  0  0  0  0
 22 47  1  0  0  0  0
 22 48  1  0  0  0  0
M  CHG  1   4   1
M  END
> <s_m_source_file>
AV-unprocessed.smi

> <i_m_source_file_index>
1703

> <i_lp_mmshare_version>
43012

> <i_f3d_flags>
0

> <s_epik_input>
W0NIM11bQ0BASF0xW0NIMl1OKFtDSDJdW0NASF0oTzEpW0NIM10pW0NIMl1bQ0BIXShbT0hdKVtDSDJdbihjKG4yKVtDSDJdW09IXSljKGMyMylbY0hdW2NIXVtjSF1bY0hdMw==

> <s_epik_cmdline>
J2VwaWtfcHl0aG9uJywgJy1waCcsICc3LjAnLCAnLXRuJywgJzgnLCAnLW1hJywgJzIwMCcsICctbWV0YWxfYmluZGluZycsICctaW1hZScsICc8aW5maWxlLm1hZT4nLCAnLW9tYWUnLCAnPG91dGZpbGUubWFlPic=

> <r_epik_Ionization_Penalty>
0.655661

> <r_epik_Ionization_Penalty_Charging>
0.608065

> <r_epik_Ionization_Penalty_Neutral>
0.0475963

> <r_epik_State_Penalty>
0.695267

> <r_epik_Charging_Adjusted_Penalty>
1.30333

> <i_epik_Tot_Q>
1

> <i_epik_Tot_abs_Q>
1

> <r_epik_Metal_State_Penalty>
0.653591

> <b_epik_Metal_Only>
0

> <s_lp_Force_Field>
OPLS_2005

> <r_lp_Energy>
21.6457

> <b_lp_Chiralities_Consistent>
1

> <s_lp_Variant>
AV-unprocessed.smi:1703-13

> <Gold.Version>
5.8.1

> <Gold.Id.Protein>
6NUR|6NUR_protein|mol2

> <Gold.PLP.Fitness>
48.5419

> <Gold.PLP.PLP>
-39.7666

> <Gold.PLP.part.hbond>
-5.1738

> <Gold.PLP.part.metal>
0.0000

> <Gold.PLP.part.buried>
0.1977

> <Gold.PLP.part.nonpolar>
-35.3837

> <Gold.PLP.part.repulsive>
1.5640

> <Gold.PLP.ligand.clash>
0.0000

> <Gold.PLP.ligand.torsion>
1.3235

> <Gold.PLP.Chemscore.Hbond>
3.7600

> <Gold.PLP.Chemscore.CHOScore>
0.0000

> <Gold.PLP.Chemscore.Metal>
0.0000

> <Gold.Chemscore.Hbonds>
donor molecule, donor type, donor heavy atom, donor atom, acceptor molecule, acceptor atom, score
      L1  H     4    49       P1  7948  2.00
      L1  H     7    33       P1  7957  0.66
      P1  H  7954  7966       L1     7  0.91

> <Gold.PLP.Chemscore.Internal.Correction>
0.1423

> <Gold.Rescore>
     Score         DG    S(hbond)    S(metal)    S(lipo)     H(rot)  DE(clash)    DE(int)     intcor
     11.85     -14.76       1.83        0.00      91.73       2.96       0.42       2.49       ----

> <Gold.Chemscore.Fitness>
11.8466

> <Gold.Chemscore.DG>
-14.7571

> <Gold.Chemscore.ZeroCoef>
-5.4800

> <Gold.Chemscore.Hbond>
1.8338

> <Gold.Chemscore.Metal>
0.0000

> <Gold.Chemscore.Lipo>
91.7325

> <Gold.Chemscore.Internal_Hbond>
0.0000

> <Gold.Chemscore.DEClash>
0.4225

> <Gold.Chemscore.DEInternal>
2.4880

> <Gold.Chemscore.Rot>
2.9611

> <Gold.Chemscore.Internal.Correction>
   9.000000E+99

> <Gold.Chemscore.Hbonds>
donor molecule, donor type, donor heavy atom, donor atom, acceptor molecule, acceptor atom, score
      L1  H     4    49       P1  7948  1.00
      L1  H     7    33       P1  7957  0.63
      P1  H  7954  7966       L1     7  0.66

> <Gold.Chemscore.Hbond.Weighted>
-6.1247

> <Gold.Chemscore.Metal.Weighted>
-0.0000

> <Gold.Chemscore.Lipo.Weighted>
-10.7327

> <Gold.Chemscore.Internal_Hbond.Weighted>
0.0000

> <Gold.Chemscore.DEClash.Weighted>
0.4225

> <Gold.Chemscore.DEInternal.Weighted>
2.4880

> <Gold.Chemscore.Rot.Weighted>
7.5803

> <Gold.Chemscore.Internal.Correction.Weighted>
   9.000000E+99

> <Gold.Protein.RotatedTorsions>
[ 6907 6896 6895 6894 ] final  159.22 input  -60.11 | X-H torsion
[ 7974 7965 7964 7962 ] final  -11.35 input  175.53 | X-H torsion
[ 8008 7997 7996 7995 ] final   54.39 input   59.86 | X-H torsion
[ 10167 10162 10161 10158 ] final  -57.98 input  -65.29 | X-H torsion
[ 10718 10713 10712 10709 ] final -170.24 input   66.30 | X-H torsion
[ 10763 10752 10751 10750 ] final -159.60 input  -60.55 | X-H torsion
[ 11005 11000 10999 10996 ] final  154.03 input  -57.11 | X-H torsion

> <Gold.Protein.ActiveResidues>
 VAL166  LYS551  ARG553  GLY616  TRP617  ASP618  TYR619  PRO620  LYS621  CYS622 
 ASP623  PHE694  ASN695  SER759  ASP760  ASP761  ALA762  ILE779  LEU786  VAL792 
 PHE793  MET794  SER795  GLU796  ALA797  LYS798  CYS799  TRP800  GLU811  SER814 

> <Gold.Protein.RotatedAtoms>
  151.9888  133.3783  159.4135 H   0  0  0  0  0  0  0  0  0  0  0  0  # atno 6907 bound_to 6896
  150.6924  134.3959  159.5106 H   0  0  0  0  0  0  0  0  0  0  0  0  # atno 6908 bound_to 6896
  152.1689  134.8850  160.0586 H   0  0  0  0  0  0  0  0  0  0  0  0  # atno 6909 bound_to 6896
  146.2190  140.2898  142.8367 H   0  0  0  0  0  0  0  0  0  0  0  0  # atno 7974 bound_to 7965
  155.4839  140.3469  155.4344 H   0  0  0  0  0  0  0  0  0  0  0  0  # atno 8008 bound_to 7997
  156.1021  140.1438  156.9482 H   0  0  0  0  0  0  0  0  0  0  0  0  # atno 8009 bound_to 7997
  154.4700  140.0904  156.7099 H   0  0  0  0  0  0  0  0  0  0  0  0  # atno 8010 bound_to 7997
  140.6225  143.2425  151.5445 H   0  0  0  0  0  0  0  0  0  0  0  0  # atno 10167 bound_to 10162
  156.7232  130.9278  151.3099 H   0  0  0  0  0  0  0  0  0  0  0  0  # atno 10718 bound_to 10713
  154.7461  135.3080  154.8642 H   0  0  0  0  0  0  0  0  0  0  0  0  # atno 10763 bound_to 10752
  153.9443  135.6771  153.4748 H   0  0  0  0  0  0  0  0  0  0  0  0  # atno 10764 bound_to 10752
  153.1057  135.4890  154.8874 H   0  0  0  0  0  0  0  0  0  0  0  0  # atno 10765 bound_to 10752
  140.1451  134.8712  157.2382 H   0  0  0  0  0  0  0  0  0  0  0  0  # atno 11005 bound_to 11000
  144.9135  140.7785  143.5792 LP  0  0  0  0  0  0  0  0  0  0  0  0  # atno 17320 bound_to 7965
  145.2830  139.1911  143.4781 LP  0  0  0  0  0  0  0  0  0  0  0  0  # atno 17321 bound_to 7965
  139.5451  144.2543  152.1426 LP  0  0  0  0  0  0  0  0  0  0  0  0  # atno 17342 bound_to 10162
  140.1767  144.4884  150.6550 LP  0  0  0  0  0  0  0  0  0  0  0  0  # atno 17343 bound_to 10162
  157.6889  130.9213  150.0461 LP  0  0  0  0  0  0  0  0  0  0  0  0  # atno 17370 bound_to 10713
  156.1580  130.3643  149.9341 LP  0  0  0  0  0  0  0  0  0  0  0  0  # atno 17371 bound_to 10713
  140.2673  134.3501  155.7385 LP  0  0  0  0  0  0  0  0  0  0  0  0  # atno 17394 bound_to 11000
  141.2191  133.7403  156.9170 LP  0  0  0  0  0  0  0  0  0  0  0  0  # atno 17395 bound_to 11000

$$$$
