AV-unprocessed.smi:1836|AV-procd|sdf|7480|dock7
  -GOLD-   22720 9173D 1   1.00000     0.00000
 Structure written by MMmdl.
 32 33  0  0  0  0  0  0  0  0  2 V2000
  150.1443  137.5926  156.4720 C   0  0  0  0  0  0  0  0  0  0  0  0
  150.5383  138.4247  157.6996 C   0  0  1  0  0  0  0  0  0  0  0  0
  150.6995  139.9166  157.3299 C   0  0  0  0  0  0  0  0  0  0  0  0
  151.4897  140.6540  158.3153 N   0  0  0  0  0  0  0  0  0  0  0  0
  150.9514  141.8410  158.9584 C   0  0  0  0  0  0  0  0  0  0  0  0
  152.1363  142.4468  159.7230 C   0  0  0  0  0  0  0  0  0  0  0  0
  153.1928  141.3395  159.7941 C   0  0  0  0  0  0  0  0  0  0  0  0
  152.6993  140.3192  158.7825 C   0  0  0  0  0  0  0  0  0  0  0  0
  153.3559  139.3301  158.4607 O   0  0  0  0  0  0  0  0  0  0  0  0
  149.5139  138.2436  158.7281 N   0  0  0  0  0  0  0  0  0  0  0  0
  149.0878  137.0739  159.2288 C   0  0  0  0  0  0  0  0  0  0  0  0
  149.5621  136.0141  158.8122 O   0  0  0  0  0  0  0  0  0  0  0  0
  148.1517  137.2043  160.1957 N   0  5  0  0  0  0  0  0  0  0  0  0
  147.6708  136.1120  160.8116 C   0  0  0  0  0  0  0  0  0  0  0  0
  147.5697  134.9240  160.1943 N   0  0  0  0  0  0  0  0  0  0  0  0
  147.0445  133.9292  161.0081 N   0  0  0  0  0  0  0  0  0  0  0  0
  146.7559  134.3969  162.2224 C   0  0  0  0  0  0  0  0  0  0  0  0
  147.0945  136.0952  162.4812 S   0  0  0  0  0  0  0  0  0  0  0  0
  150.8985  137.6676  155.6884 H   0  0  0  0  0  0  0  0  0  0  0  0
  149.1943  137.9268  156.0534 H   0  0  0  0  0  0  0  0  0  0  0  0
  150.0428  136.5375  156.7292 H   0  0  0  0  0  0  0  0  0  0  0  0
  151.4976  138.0392  158.0494 H   0  0  0  0  0  0  0  0  0  0  0  0
  151.2063  140.0020  156.3677 H   0  0  0  0  0  0  0  0  0  0  0  0
  149.7225  140.3839  157.1945 H   0  0  0  0  0  0  0  0  0  0  0  0
  150.5419  142.5405  158.2288 H   0  0  0  0  0  0  0  0  0  0  0  0
  150.1519  141.5495  159.6407 H   0  0  0  0  0  0  0  0  0  0  0  0
  152.5355  143.3012  159.1745 H   0  0  0  0  0  0  0  0  0  0  0  0
  151.8427  142.7988  160.7122 H   0  0  0  0  0  0  0  0  0  0  0  0
  154.1888  141.7020  159.5380 H   0  0  0  0  0  0  0  0  0  0  0  0
  153.2268  140.8823  160.7834 H   0  0  0  0  0  0  0  0  0  0  0  0
  149.0996  139.0822  159.1076 H   0  0  0  0  0  0  0  0  0  0  0  0
  146.3373  133.7389  162.9691 H   0  0  0  0  0  0  0  0  0  0  0  0
  1  2  1  0  0  0  0
  1 19  1  0  0  0  0
  1 20  1  0  0  0  0
  1 21  1  0  0  0  0
  2  3  1  0  0  0  0
  2 10  1  0  0  0  0
  2 22  1  0  0  0  0
  3  4  1  0  0  0  0
  3 23  1  0  0  0  0
  3 24  1  0  0  0  0
  4  8  1  0  0  0  0
  4  5  1  0  0  0  0
  5  6  1  0  0  0  0
  5 25  1  0  0  0  0
  5 26  1  0  0  0  0
  6  7  1  0  0  0  0
  6 27  1  0  0  0  0
  6 28  1  0  0  0  0
  7  8  1  0  0  0  0
  7 29  1  0  0  0  0
  7 30  1  0  0  0  0
  8  9  2  0  0  0  0
 10 11  1  0  0  0  0
 10 31  1  0  0  0  0
 11 12  2  0  0  0  0
 11 13  1  0  0  0  0
 13 14  1  0  0  0  0
 14 18  1  0  0  0  0
 14 15  2  0  0  0  0
 15 16  1  0  0  0  0
 16 17  2  0  0  0  0
 17 18  1  0  0  0  0
 17 32  1  0  0  0  0
M  CHG  1  13  -1
M  END
> <s_m_source_file>
AV-unprocessed.smi

> <i_m_source_file_index>
1836

> <i_lp_mmshare_version>
43012

> <i_f3d_flags>
0

> <s_epik_input>
Tz1DMVtDSDJdW0NIMl1bQ0gyXU4xW0NIMl1bQ0BASF0oW0NIM10pW05IXUMoPU8pW05IXWMybm5bY0hdczI=

> <s_epik_cmdline>
J2VwaWtfcHl0aG9uJywgJy1waCcsICc3LjAnLCAnLXRuJywgJzgnLCAnLW1hJywgJzIwMCcsICctbWV0YWxfYmluZGluZycsICctaW1hZScsICc8aW5maWxlLm1hZT4nLCAnLW9tYWUnLCAnPG91dGZpbGUubWFlPic=

> <r_lp_tautomer_probability>
1

> <r_epik_Ionization_Penalty>
3.44722

> <r_epik_Ionization_Penalty_Charging>
3.40341

> <r_epik_Ionization_Penalty_Neutral>
0.0438099

> <r_epik_State_Penalty>
3.40151

> <r_epik_Charging_Adjusted_Penalty>
6.80491

> <i_epik_Tot_Q>
-1

> <i_epik_Tot_abs_Q>
1

> <r_epik_Metal_State_Penalty>
0.49534

> <b_epik_Metal_Only>
1

> <s_lp_Force_Field>
OPLS_2005

> <r_lp_Energy>
17.1678

> <b_lp_Chiralities_Consistent>
1

> <s_lp_Variant>
AV-unprocessed.smi:1836-4

> <Gold.Version>
5.8.1

> <Gold.Id.Protein>
6NUR|6NUR_protein|mol2

> <Gold.PLP.Fitness>
43.7728

> <Gold.PLP.PLP>
-31.6365

> <Gold.PLP.part.hbond>
-4.0000

> <Gold.PLP.part.metal>
0.0000

> <Gold.PLP.part.buried>
-4.0676

> <Gold.PLP.part.nonpolar>
-24.8369

> <Gold.PLP.part.repulsive>
0.2253

> <Gold.PLP.ligand.clash>
0.0000

> <Gold.PLP.ligand.torsion>
0.4261

> <Gold.PLP.Chemscore.Hbond>
4.2800

> <Gold.PLP.Chemscore.CHOScore>
0.0000

> <Gold.PLP.Chemscore.Metal>
0.0000

> <Gold.Chemscore.Hbonds>
donor molecule, donor type, donor heavy atom, donor atom, acceptor molecule, acceptor atom, score
      P1  H  6896  6909       L1    12  1.00
      P1  H  6931  6943       L1    13  0.83
      P1  H  6934  6947       L1    13  0.85
      P1  H  7997  8009       L1     9  1.00

> <Gold.PLP.Chemscore.Internal.Correction>
0.1485

> <Gold.Rescore>
     Score         DG    S(hbond)    S(metal)    S(lipo)     H(rot)  DE(clash)    DE(int)     intcor
     13.32     -16.50       2.70        0.00      54.94       1.73       0.02       3.16       ----

> <Gold.Chemscore.Fitness>
13.3184

> <Gold.Chemscore.DG>
-16.4973

> <Gold.Chemscore.ZeroCoef>
-5.4800

> <Gold.Chemscore.Hbond>
2.7004

> <Gold.Chemscore.Metal>
0.0000

> <Gold.Chemscore.Lipo>
54.9361

> <Gold.Chemscore.Internal_Hbond>
0.0000

> <Gold.Chemscore.DEClash>
0.0174

> <Gold.Chemscore.DEInternal>
3.1615

> <Gold.Chemscore.Rot>
1.7302

> <Gold.Chemscore.Internal.Correction>
   9.000000E+99

> <Gold.Chemscore.Hbonds>
donor molecule, donor type, donor heavy atom, donor atom, acceptor molecule, acceptor atom, score
      P1  H  6896  6909       L1    12  0.99
      P1  H  6931  6943       L1    13  0.08
      P1  H  6934  6947       L1    13  0.35
      P1  H  7997  8009       L1     9  0.43

> <Gold.Chemscore.Hbond.Weighted>
-9.0192

> <Gold.Chemscore.Metal.Weighted>
-0.0000

> <Gold.Chemscore.Lipo.Weighted>
-6.4275

> <Gold.Chemscore.Internal_Hbond.Weighted>
0.0000

> <Gold.Chemscore.DEClash.Weighted>
0.0174

> <Gold.Chemscore.DEInternal.Weighted>
3.1615

> <Gold.Chemscore.Rot.Weighted>
4.4294

> <Gold.Chemscore.Internal.Correction.Weighted>
   9.000000E+99

> <Gold.Protein.RotatedTorsions>
[ 6907 6896 6895 6894 ] final   53.97 input  -60.11 | X-H torsion
[ 7974 7965 7964 7962 ] final -118.24 input  175.53 | X-H torsion
[ 8008 7997 7996 7995 ] final  153.36 input   59.86 | X-H torsion
[ 10167 10162 10161 10158 ] final   16.30 input  -65.29 | X-H torsion
[ 10718 10713 10712 10709 ] final   64.97 input   66.30 | X-H torsion
[ 10763 10752 10751 10750 ] final   95.86 input  -60.55 | X-H torsion
[ 11005 11000 10999 10996 ] final   24.65 input  -57.11 | X-H torsion

> <Gold.Protein.ActiveResidues>
 VAL166  LYS551  ARG553  GLY616  TRP617  ASP618  TYR619  PRO620  LYS621  CYS622 
 ASP623  PHE694  ASN695  SER759  ASP760  ASP761  ALA762  ILE779  LEU786  VAL792 
 PHE793  MET794  SER795  GLU796  ALA797  LYS798  CYS799  TRP800  GLU811  SER814 

> <Gold.Protein.RotatedAtoms>
  152.3392  134.7158  160.0268 H   0  0  0  0  0  0  0  0  0  0  0  0  # atno 6907 bound_to 6896
  151.7549  133.3324  159.3409 H   0  0  0  0  0  0  0  0  0  0  0  0  # atno 6908 bound_to 6896
  150.7469  134.6091  159.6121 H   0  0  0  0  0  0  0  0  0  0  0  0  # atno 6909 bound_to 6896
  145.0761  140.8393  143.4066 H   0  0  0  0  0  0  0  0  0  0  0  0  # atno 7974 bound_to 7965
  156.2585  140.1996  156.6478 H   0  0  0  0  0  0  0  0  0  0  0  0  # atno 8008 bound_to 7997
  154.6560  140.0566  157.0034 H   0  0  0  0  0  0  0  0  0  0  0  0  # atno 8009 bound_to 7997
  155.1347  140.3237  155.4468 H   0  0  0  0  0  0  0  0  0  0  0  0  # atno 8010 bound_to 7997
  140.5807  143.8987  150.6787 H   0  0  0  0  0  0  0  0  0  0  0  0  # atno 10167 bound_to 10162
  157.6075  130.9189  149.9915 H   0  0  0  0  0  0  0  0  0  0  0  0  # atno 10718 bound_to 10713
  153.2581  135.4239  155.0866 H   0  0  0  0  0  0  0  0  0  0  0  0  # atno 10763 bound_to 10752
  154.8409  135.3442  154.6417 H   0  0  0  0  0  0  0  0  0  0  0  0  # atno 10764 bound_to 10752
  153.6837  135.7037  153.5167 H   0  0  0  0  0  0  0  0  0  0  0  0  # atno 10765 bound_to 10752
  140.3564  134.2173  155.7675 H   0  0  0  0  0  0  0  0  0  0  0  0  # atno 11005 bound_to 11000
  145.1234  139.2679  143.5577 LP  0  0  0  0  0  0  0  0  0  0  0  0  # atno 17320 bound_to 7965
  146.3530  140.0864  142.8615 LP  0  0  0  0  0  0  0  0  0  0  0  0  # atno 17321 bound_to 7965
  140.2485  143.3610  152.1426 LP  0  0  0  0  0  0  0  0  0  0  0  0  # atno 17342 bound_to 10162
  139.5168  144.6982  151.5568 LP  0  0  0  0  0  0  0  0  0  0  0  0  # atno 17343 bound_to 10162
  156.1166  130.3647  149.9958 LP  0  0  0  0  0  0  0  0  0  0  0  0  # atno 17370 bound_to 10713
  156.8046  130.9303  151.3645 LP  0  0  0  0  0  0  0  0  0  0  0  0  # atno 17371 bound_to 10713
  141.1997  133.8005  157.0523 LP  0  0  0  0  0  0  0  0  0  0  0  0  # atno 17394 bound_to 11000
  140.0662  134.9728  157.1389 LP  0  0  0  0  0  0  0  0  0  0  0  0  # atno 17395 bound_to 11000

$$$$
