AV-unprocessed.smi:2124|AV-procd|sdf|8659|dock7
  -GOLD-   2272011403D 1   1.00000     0.00000
 Structure written by MMmdl.
 47 49  0  0  0  0  0  0  0  0  1 V2000
  155.8867  140.2926  163.7644 C   0  0  0  0  0  0  0  0  0  0  0  0
  155.1370  140.7074  162.5172 C   0  0  0  0  0  0  0  0  0  0  0  0
  154.2407  141.7429  162.7254 N   0  0  0  0  0  0  0  0  0  0  0  0
  153.5064  142.1912  161.6416 C   0  0  0  0  0  0  0  0  0  0  0  0
  152.5529  143.3315  161.9525 C   0  0  0  0  0  0  0  0  0  0  0  0
  153.6574  141.6351  160.4129 C   0  0  0  0  0  0  0  0  0  0  0  0
  152.8765  142.1053  159.1863 C   0  0  0  0  0  0  0  0  0  0  0  0
  152.2102  141.0111  158.3479 C   0  0  0  0  0  0  0  0  0  0  0  0
  152.3870  139.8214  158.6117 O   0  0  0  0  0  0  0  0  0  0  0  0
  151.4394  141.4362  157.3356 N   0  0  0  0  0  0  0  0  0  0  0  0
  150.7044  140.5772  156.4099 C   0  0  1  0  0  0  0  0  0  0  0  0
  150.0150  139.4513  157.1990 C   0  0  0  0  0  0  0  0  0  0  0  0
  149.6936  141.4215  155.5993 C   0  0  2  0  0  0  0  0  0  0  0  0
  148.3319  141.6453  156.2951 C   0  0  0  0  0  0  0  0  0  0  0  0
  147.3165  141.2593  155.2033 C   0  0  2  0  0  0  0  0  0  0  0  0
  147.3058  139.7278  155.0452 C   0  0  0  0  0  0  0  0  0  0  0  0
  148.6461  139.4520  154.3401 C   0  0  0  0  0  0  0  0  0  0  0  0
  149.2654  140.8601  154.2193 C   0  0  1  0  0  0  0  0  0  0  0  0
  148.0273  141.7029  153.9301 C   0  0  0  0  0  0  0  0  0  0  0  0
  154.6358  140.5340  160.2510 C   0  0  0  0  0  0  0  0  0  0  0  0
  154.8273  139.9993  159.1597 O   0  0  0  0  0  0  0  0  0  0  0  0
  155.3527  140.1134  161.3829 N   0  0  0  0  0  0  0  0  0  0  0  0
  154.0979  142.1852  163.6221 H   0  0  0  0  0  0  0  0  0  0  0  0
  156.6175  139.5145  163.5398 H   0  0  0  0  0  0  0  0  0  0  0  0
  155.1940  139.9046  164.5118 H   0  0  0  0  0  0  0  0  0  0  0  0
  156.4177  141.1441  164.1907 H   0  0  0  0  0  0  0  0  0  0  0  0
  152.7630  144.1894  161.3134 H   0  0  0  0  0  0  0  0  0  0  0  0
  152.6406  143.6576  162.9897 H   0  0  0  0  0  0  0  0  0  0  0  0
  151.5214  143.0206  161.7856 H   0  0  0  0  0  0  0  0  0  0  0  0
  153.5502  142.6561  158.5301 H   0  0  0  0  0  0  0  0  0  0  0  0
  152.1200  142.8338  159.4811 H   0  0  0  0  0  0  0  0  0  0  0  0
  151.3539  142.4324  157.1944 H   0  0  0  0  0  0  0  0  0  0  0  0
  151.4037  140.1125  155.7136 H   0  0  0  0  0  0  0  0  0  0  0  0
  149.4793  138.7712  156.5367 H   0  0  0  0  0  0  0  0  0  0  0  0
  149.2968  139.8502  157.9161 H   0  0  0  0  0  0  0  0  0  0  0  0
  150.7426  138.8570  157.7530 H   0  0  0  0  0  0  0  0  0  0  0  0
  150.1466  142.3986  155.4212 H   0  0  0  0  0  0  0  0  0  0  0  0
  148.2045  141.0402  157.1937 H   0  0  0  0  0  0  0  0  0  0  0  0
  148.2186  142.6909  156.5837 H   0  0  0  0  0  0  0  0  0  0  0  0
  146.3264  141.6898  155.3551 H   0  0  0  0  0  0  0  0  0  0  0  0
  147.2258  139.2126  156.0032 H   0  0  0  0  0  0  0  0  0  0  0  0
  146.4711  139.4056  154.4215 H   0  0  0  0  0  0  0  0  0  0  0  0
  149.2743  138.7471  154.8837 H   0  0  0  0  0  0  0  0  0  0  0  0
  148.4700  139.0293  153.3503 H   0  0  0  0  0  0  0  0  0  0  0  0
  150.0439  140.9286  153.4590 H   0  0  0  0  0  0  0  0  0  0  0  0
  147.5051  141.4097  153.0175 H   0  0  0  0  0  0  0  0  0  0  0  0
  148.2279  142.7753  153.8973 H   0  0  0  0  0  0  0  0  0  0  0  0
  1 24  1  0  0  0  0
  1 25  1  0  0  0  0
  1 26  1  0  0  0  0
  1  2  1  0  0  0  0
  2  3  1  0  0  0  0
  2 22  2  0  0  0  0
  3  4  1  0  0  0  0
  3 23  1  0  0  0  0
  4  6  2  0  0  0  0
  4  5  1  0  0  0  0
  5 27  1  0  0  0  0
  5 28  1  0  0  0  0
  5 29  1  0  0  0  0
  6 20  1  0  0  0  0
  6  7  1  0  0  0  0
  7  8  1  0  0  0  0
  7 30  1  0  0  0  0
  7 31  1  0  0  0  0
  8  9  2  0  0  0  0
  8 10  1  0  0  0  0
 10 11  1  0  0  0  0
 10 32  1  0  0  0  0
 11 12  1  0  0  0  0
 11 13  1  0  0  0  0
 11 33  1  0  0  0  0
 12 34  1  0  0  0  0
 12 35  1  0  0  0  0
 12 36  1  0  0  0  0
 13 18  1  0  0  0  0
 13 14  1  0  0  0  0
 13 37  1  0  0  0  0
 14 15  1  0  0  0  0
 14 38  1  0  0  0  0
 14 39  1  0  0  0  0
 15 19  1  0  0  0  0
 15 16  1  0  0  0  0
 15 40  1  0  0  0  0
 16 17  1  0  0  0  0
 16 41  1  0  0  0  0
 16 42  1  0  0  0  0
 17 18  1  0  0  0  0
 17 43  1  0  0  0  0
 17 44  1  0  0  0  0
 18 19  1  0  0  0  0
 18 45  1  0  0  0  0
 19 46  1  0  0  0  0
 19 47  1  0  0  0  0
 20 21  2  0  0  0  0
 20 22  1  0  0  0  0
M  END
> <s_m_source_file>
AV-unprocessed.smi

> <i_m_source_file_index>
2124

> <i_lp_mmshare_version>
43012

> <i_f3d_flags>
0

> <s_epik_input>
W0NIM11jMW5jKFtDSDNdKWMoYyg9TylbbkhdMSlbQ0gyXUMoPU8pW05IXVtDQEhdKFtDSDNdKVtDQEhdKFtDSDJdW0NASF0yMylbQ0BIXShbQ0gyXTMpW0NIMl1bQ0gyXTI=

> <s_epik_cmdline>
J2VwaWtfcHl0aG9uJywgJy1waCcsICc3LjAnLCAnLXRuJywgJzgnLCAnLW1hJywgJzIwMCcsICctbWV0YWxfYmluZGluZycsICctaW1hZScsICc8aW5maWxlLm1hZT4nLCAnLW9tYWUnLCAnPG91dGZpbGUubWFlPic=

> <r_lp_tautomer_probability>
0.156392

> <r_epik_Ionization_Penalty>
0.0139374

> <r_epik_Ionization_Penalty_Charging>
0.0138122

> <r_epik_Ionization_Penalty_Neutral>
0.000125146

> <r_epik_State_Penalty>
1.15342

> <r_epik_Charging_Adjusted_Penalty>
1.16723

> <i_epik_Tot_Q>
0

> <i_epik_Tot_abs_Q>
0

> <r_epik_Metal_State_Penalty>
1.3173

> <b_epik_Metal_Only>
0

> <s_lp_Force_Field>
OPLS_2005

> <r_lp_Energy>
55.6294

> <b_lp_Chiralities_Consistent>
1

> <s_lp_Variant>
AV-unprocessed.smi:2124-10

> <Gold.Version>
5.8.1

> <Gold.Id.Protein>
6NUR|6NUR_protein|mol2

> <Gold.PLP.Fitness>
41.3461

> <Gold.PLP.PLP>
-40.0199

> <Gold.PLP.part.hbond>
-2.0000

> <Gold.PLP.part.metal>
0.0000

> <Gold.PLP.part.buried>
-1.5921

> <Gold.PLP.part.nonpolar>
-35.6393

> <Gold.PLP.part.repulsive>
0.0924

> <Gold.PLP.ligand.clash>
0.0000

> <Gold.PLP.ligand.torsion>
0.8430

> <Gold.PLP.Chemscore.Hbond>
1.0000

> <Gold.PLP.Chemscore.CHOScore>
0.0000

> <Gold.PLP.Chemscore.Metal>
0.0000

> <Gold.Chemscore.Hbonds>
donor molecule, donor type, donor heavy atom, donor atom, acceptor molecule, acceptor atom, score
      P1  H  7997  8009       L1    21  1.00

> <Gold.PLP.Chemscore.Internal.Correction>
0.0122

> <Gold.Rescore>
     Score         DG    S(hbond)    S(metal)    S(lipo)     H(rot)  DE(clash)    DE(int)     intcor
      9.42     -15.92       0.99        0.00      97.16       1.65       0.09       6.41       ----

> <Gold.Chemscore.Fitness>
9.4187

> <Gold.Chemscore.DG>
-15.9165

> <Gold.Chemscore.ZeroCoef>
-5.4800

> <Gold.Chemscore.Hbond>
0.9886

> <Gold.Chemscore.Metal>
0.0000

> <Gold.Chemscore.Lipo>
97.1560

> <Gold.Chemscore.Internal_Hbond>
0.0000

> <Gold.Chemscore.DEClash>
0.0880

> <Gold.Chemscore.DEInternal>
6.4098

> <Gold.Chemscore.Rot>
1.6534

> <Gold.Chemscore.Internal.Correction>
   9.000000E+99

> <Gold.Chemscore.Hbonds>
donor molecule, donor type, donor heavy atom, donor atom, acceptor molecule, acceptor atom, score
      P1  H  7997  8009       L1    21  0.97

> <Gold.Chemscore.Hbond.Weighted>
-3.3019

> <Gold.Chemscore.Metal.Weighted>
-0.0000

> <Gold.Chemscore.Lipo.Weighted>
-11.3673

> <Gold.Chemscore.Internal_Hbond.Weighted>
0.0000

> <Gold.Chemscore.DEClash.Weighted>
0.0880

> <Gold.Chemscore.DEInternal.Weighted>
6.4098

> <Gold.Chemscore.Rot.Weighted>
4.2326

> <Gold.Chemscore.Internal.Correction.Weighted>
   9.000000E+99

> <Gold.Protein.RotatedTorsions>
[ 6907 6896 6895 6894 ] final  -50.16 input  -60.11 | X-H torsion
[ 7974 7965 7964 7962 ] final  -29.60 input  175.53 | X-H torsion
[ 8008 7997 7996 7995 ] final  117.25 input   59.86 | X-H torsion
[ 10167 10162 10161 10158 ] final  149.03 input  -65.29 | X-H torsion
[ 10718 10713 10712 10709 ] final   20.15 input   66.30 | X-H torsion
[ 10763 10752 10751 10750 ] final  144.14 input  -60.55 | X-H torsion
[ 11005 11000 10999 10996 ] final  140.44 input  -57.11 | X-H torsion

> <Gold.Protein.ActiveResidues>
 VAL166  LYS551  ARG553  GLY616  TRP617  ASP618  TYR619  PRO620  LYS621  CYS622 
 ASP623  PHE694  ASN695  SER759  ASP760  ASP761  ALA762  ILE779  LEU786  VAL792 
 PHE793  MET794  SER795  GLU796  ALA797  LYS798  CYS799  TRP800  GLU811  SER814 

> <Gold.Protein.RotatedAtoms>
  150.8734  134.8112  159.7171 H   0  0  0  0  0  0  0  0  0  0  0  0  # atno 6907 bound_to 6896
  152.4730  134.4910  159.9705 H   0  0  0  0  0  0  0  0  0  0  0  0  # atno 6908 bound_to 6896
  151.4996  133.3469  159.2902 H   0  0  0  0  0  0  0  0  0  0  0  0  # atno 6909 bound_to 6896
  146.1204  140.5433  142.8738 H   0  0  0  0  0  0  0  0  0  0  0  0  # atno 7974 bound_to 7965
  156.2484  140.2900  156.0650 H   0  0  0  0  0  0  0  0  0  0  0  0  # atno 8008 bound_to 7997
  155.1734  140.0402  157.2885 H   0  0  0  0  0  0  0  0  0  0  0  0  # atno 8009 bound_to 7997
  154.6310  140.2499  155.7441 H   0  0  0  0  0  0  0  0  0  0  0  0  # atno 8010 bound_to 7997
  139.4867  144.5633  151.7190 H   0  0  0  0  0  0  0  0  0  0  0  0  # atno 10167 bound_to 10162
  157.1204  130.6547  149.5922 H   0  0  0  0  0  0  0  0  0  0  0  0  # atno 10718 bound_to 10713
  153.9839  135.2938  155.3418 H   0  0  0  0  0  0  0  0  0  0  0  0  # atno 10763 bound_to 10752
  154.7253  135.5091  153.8880 H   0  0  0  0  0  0  0  0  0  0  0  0  # atno 10764 bound_to 10752
  153.0841  135.6688  154.0099 H   0  0  0  0  0  0  0  0  0  0  0  0  # atno 10765 bound_to 10752
  140.0327  134.9344  157.0694 H   0  0  0  0  0  0  0  0  0  0  0  0  # atno 11005 bound_to 11000
  144.7592  140.5382  143.6747 LP  0  0  0  0  0  0  0  0  0  0  0  0  # atno 17320 bound_to 7965
  145.5477  139.1476  143.3411 LP  0  0  0  0  0  0  0  0  0  0  0  0  # atno 17321 bound_to 7965
  140.5207  144.0883  150.6022 LP  0  0  0  0  0  0  0  0  0  0  0  0  # atno 17342 bound_to 10162
  140.3840  143.2787  152.0137 LP  0  0  0  0  0  0  0  0  0  0  0  0  # atno 17343 bound_to 10162
  155.9830  130.4846  150.6909 LP  0  0  0  0  0  0  0  0  0  0  0  0  # atno 17370 bound_to 10713
  157.4481  131.0869  151.0874 LP  0  0  0  0  0  0  0  0  0  0  0  0  # atno 17371 bound_to 10713
  140.4199  134.1892  155.7164 LP  0  0  0  0  0  0  0  0  0  0  0  0  # atno 17394 bound_to 11000
  141.1840  133.8353  157.1155 LP  0  0  0  0  0  0  0  0  0  0  0  0  # atno 17395 bound_to 11000

$$$$
