AV-unprocessed.smi:1239|AV-procd|sdf|5186|dock4
  -GOLD-   22720 4273D 1   1.00000     0.00000
 Structure written by MMmdl.
 48 49  0  0  0  0  0  0  0  0  2 V2000
  147.3225  139.7756  153.1295 C   0  0  0  0  0  0  0  0  0  0  0  0
  147.7625  140.4650  154.4464 C   0  0  1  0  0  0  0  0  0  0  0  0
  148.9503  141.4213  154.1448 C   0  0  0  0  0  0  0  0  0  0  0  0
  149.4222  142.1331  155.3309 N   0  0  0  0  0  0  0  0  0  0  0  0
  150.1589  141.6028  156.3178 C   0  0  0  0  0  0  0  0  0  0  0  0
  150.5178  140.4259  156.3449 O   0  0  0  0  0  0  0  0  0  0  0  0
  150.4281  142.5165  157.2666 N   0  0  0  0  0  0  0  0  0  0  0  0
  151.2138  142.3675  158.4421 C   0  0  0  0  0  0  0  0  0  0  0  0
  151.3365  143.4813  159.2987 C   0  0  0  0  0  0  0  0  0  0  0  0
  152.1200  143.3864  160.4673 C   0  0  0  0  0  0  0  0  0  0  0  0
  152.7885  142.1751  160.7712 C   0  0  0  0  0  0  0  0  0  0  0  0
  153.5926  142.0020  161.9186 N   0  0  0  0  0  0  0  0  0  0  0  0
  153.3494  142.8165  163.1041 C   0  0  0  0  0  0  0  0  0  0  0  0
  154.6627  141.0132  161.9123 C   0  0  0  0  0  0  0  0  0  0  0  0
  152.6493  141.1362  159.9119 N   0  3  0  0  0  0  0  0  0  0  0  0
  151.9083  141.1829  158.7839 C   0  0  0  0  0  0  0  0  0  0  0  0
  146.6391  141.1332  155.1450 N   0  0  0  0  0  0  0  0  0  0  0  0
  146.0154  142.1848  154.3329 C   0  0  0  0  0  0  0  0  0  0  0  0
  144.8328  142.8671  155.0423 C   0  0  0  0  0  0  0  0  0  0  0  0
  143.8641  141.8922  155.4015 O   0  0  0  0  0  0  0  0  0  0  0  0
  144.4055  140.8943  156.2554 C   0  0  0  0  0  0  0  0  0  0  0  0
  145.5864  140.1971  155.5576 C   0  0  0  0  0  0  0  0  0  0  0  0
  148.1554  139.3084  152.6057 H   0  0  0  0  0  0  0  0  0  0  0  0
  146.8653  140.4907  152.4449 H   0  0  0  0  0  0  0  0  0  0  0  0
  146.6112  138.9690  153.2993 H   0  0  0  0  0  0  0  0  0  0  0  0
  148.1452  139.6809  155.1018 H   0  0  0  0  0  0  0  0  0  0  0  0
  149.7558  140.8684  153.6582 H   0  0  0  0  0  0  0  0  0  0  0  0
  148.6574  142.2087  153.4529 H   0  0  0  0  0  0  0  0  0  0  0  0
  149.1688  143.1078  155.3995 H   0  0  0  0  0  0  0  0  0  0  0  0
  149.9940  143.4201  157.1463 H   0  0  0  0  0  0  0  0  0  0  0  0
  150.8305  144.4073  159.0668 H   0  0  0  0  0  0  0  0  0  0  0  0
  152.1964  144.2493  161.1119 H   0  0  0  0  0  0  0  0  0  0  0  0
  152.3400  142.6511  163.4825 H   0  0  0  0  0  0  0  0  0  0  0  0
  153.4643  143.8756  162.8715 H   0  0  0  0  0  0  0  0  0  0  0  0
  154.0487  142.5729  163.9042 H   0  0  0  0  0  0  0  0  0  0  0  0
  155.3870  141.2374  161.1286 H   0  0  0  0  0  0  0  0  0  0  0  0
  154.2606  140.0143  161.7413 H   0  0  0  0  0  0  0  0  0  0  0  0
  155.1951  140.9990  162.8634 H   0  0  0  0  0  0  0  0  0  0  0  0
  151.9171  140.2743  158.2009 H   0  0  0  0  0  0  0  0  0  0  0  0
  146.7351  142.9660  154.0954 H   0  0  0  0  0  0  0  0  0  0  0  0
  145.6754  141.7666  153.3843 H   0  0  0  0  0  0  0  0  0  0  0  0
  145.1710  143.4018  155.9315 H   0  0  0  0  0  0  0  0  0  0  0  0
  144.3698  143.6023  154.3844 H   0  0  0  0  0  0  0  0  0  0  0  0
  144.7238  141.3433  157.1976 H   0  0  0  0  0  0  0  0  0  0  0  0
  143.6260  140.1705  156.4938 H   0  0  0  0  0  0  0  0  0  0  0  0
  145.2209  139.6454  154.6902 H   0  0  0  0  0  0  0  0  0  0  0  0
  145.9765  139.4634  156.2601 H   0  0  0  0  0  0  0  0  0  0  0  0
  153.1360  140.2659  160.1273 H   0  0  0  0  0  0  0  0  0  0  0  0
  1  2  1  0  0  0  0
  1 23  1  0  0  0  0
  1 24  1  0  0  0  0
  1 25  1  0  0  0  0
  2  3  1  0  0  0  0
  2 17  1  0  0  0  0
  2 26  1  0  0  0  0
  3  4  1  0  0  0  0
  3 27  1  0  0  0  0
  3 28  1  0  0  0  0
  4  5  1  0  0  0  0
  4 29  1  0  0  0  0
  5  6  2  0  0  0  0
  5  7  1  0  0  0  0
  7  8  1  0  0  0  0
  7 30  1  0  0  0  0
  8 16  1  0  0  0  0
  8  9  2  0  0  0  0
  9 10  1  0  0  0  0
  9 31  1  0  0  0  0
 10 11  2  0  0  0  0
 10 32  1  0  0  0  0
 11 12  1  0  0  0  0
 11 15  1  0  0  0  0
 12 13  1  0  0  0  0
 12 14  1  0  0  0  0
 13 33  1  0  0  0  0
 13 34  1  0  0  0  0
 13 35  1  0  0  0  0
 14 36  1  0  0  0  0
 14 37  1  0  0  0  0
 14 38  1  0  0  0  0
 15 16  2  0  0  0  0
 15 48  1  0  0  0  0
 16 39  1  0  0  0  0
 17 22  1  0  0  0  0
 17 18  1  0  0  0  0
 18 19  1  0  0  0  0
 18 40  1  0  0  0  0
 18 41  1  0  0  0  0
 19 20  1  0  0  0  0
 19 42  1  0  0  0  0
 19 43  1  0  0  0  0
 20 21  1  0  0  0  0
 21 22  1  0  0  0  0
 21 44  1  0  0  0  0
 21 45  1  0  0  0  0
 22 46  1  0  0  0  0
 22 47  1  0  0  0  0
M  CHG  1  15   1
M  END
> <s_m_source_file>
AV-unprocessed.smi

> <i_m_source_file_index>
1239

> <i_lp_mmshare_version>
43012

> <i_f3d_flags>
0

> <s_epik_input>
W0NIMl0xW0NIMl1PW0NIMl1bQ0gyXU4xW0NASF0oW0NIM10pW0NIMl1bTkhdQyg9TylbTkhdYzJbY0hdW2NIXWMoTihbQ0gzXSlbQ0gzXSluW2NIXTI=

> <s_epik_cmdline>
J2VwaWtfcHl0aG9uJywgJy1waCcsICc3LjAnLCAnLXRuJywgJzgnLCAnLW1hJywgJzIwMCcsICctbWV0YWxfYmluZGluZycsICctaW1hZScsICc8aW5maWxlLm1hZT4nLCAnLW9tYWUnLCAnPG91dGZpbGUubWFlPic=

> <r_lp_tautomer_probability>
0.999994

> <r_epik_Ionization_Penalty>
0.528791

> <r_epik_Ionization_Penalty_Charging>
0.26278

> <r_epik_Ionization_Penalty_Neutral>
0.26601

> <r_epik_State_Penalty>
0.520375

> <r_epik_Charging_Adjusted_Penalty>
0.783156

> <i_epik_Tot_Q>
1

> <i_epik_Tot_abs_Q>
1

> <r_epik_Metal_State_Penalty>
0.806531

> <b_epik_Metal_Only>
0

> <s_lp_Force_Field>
OPLS_2005

> <r_lp_Energy>
38.5694

> <b_lp_Chiralities_Consistent>
1

> <s_lp_Variant>
AV-unprocessed.smi:1239-2

> <Gold.Version>
5.8.1

> <Gold.Id.Protein>
6NUR|6NUR_protein|mol2

> <Gold.PLP.Fitness>
49.0628

> <Gold.PLP.PLP>
-44.2051

> <Gold.PLP.part.hbond>
-2.0000

> <Gold.PLP.part.metal>
0.0000

> <Gold.PLP.part.buried>
-3.3298

> <Gold.PLP.part.nonpolar>
-39.4960

> <Gold.PLP.part.repulsive>
0.7203

> <Gold.PLP.ligand.clash>
0.0000

> <Gold.PLP.ligand.torsion>
0.4008

> <Gold.PLP.Chemscore.Hbond>
1.8723

> <Gold.PLP.Chemscore.CHOScore>
0.0000

> <Gold.PLP.Chemscore.Metal>
0.0000

> <Gold.Chemscore.Hbonds>
donor molecule, donor type, donor heavy atom, donor atom, acceptor molecule, acceptor atom, score
      L1  H     4    29       P1  8028  1.00
      L1  H     7    30       P1  8028  0.39

> <Gold.PLP.Chemscore.Internal.Correction>
0.0425

> <Gold.Rescore>
     Score         DG    S(hbond)    S(metal)    S(lipo)     H(rot)  DE(clash)    DE(int)     intcor
     16.99     -18.60       1.92        0.00      89.37       1.46       0.06       1.55       ----

> <Gold.Chemscore.Fitness>
16.9942

> <Gold.Chemscore.DG>
-18.5995

> <Gold.Chemscore.ZeroCoef>
-5.4800

> <Gold.Chemscore.Hbond>
1.9168

> <Gold.Chemscore.Metal>
0.0000

> <Gold.Chemscore.Lipo>
89.3672

> <Gold.Chemscore.Internal_Hbond>
0.0000

> <Gold.Chemscore.DEClash>
0.0601

> <Gold.Chemscore.DEInternal>
1.5452

> <Gold.Chemscore.Rot>
1.4604

> <Gold.Chemscore.Internal.Correction>
   9.000000E+99

> <Gold.Chemscore.Hbonds>
donor molecule, donor type, donor heavy atom, donor atom, acceptor molecule, acceptor atom, score
      L1  H     4    29       P1  8028  1.00
      L1  H     7    30       P1  8028  0.37

> <Gold.Chemscore.Hbond.Weighted>
-6.4021

> <Gold.Chemscore.Metal.Weighted>
-0.0000

> <Gold.Chemscore.Lipo.Weighted>
-10.4560

> <Gold.Chemscore.Internal_Hbond.Weighted>
0.0000

> <Gold.Chemscore.DEClash.Weighted>
0.0601

> <Gold.Chemscore.DEInternal.Weighted>
1.5452

> <Gold.Chemscore.Rot.Weighted>
3.7385

> <Gold.Chemscore.Internal.Correction.Weighted>
   9.000000E+99

> <Gold.Protein.RotatedTorsions>
[ 6907 6896 6895 6894 ] final -119.91 input  -60.11 | X-H torsion
[ 7974 7965 7964 7962 ] final  135.52 input  175.53 | X-H torsion
[ 8008 7997 7996 7995 ] final   15.28 input   59.86 | X-H torsion
[ 10167 10162 10161 10158 ] final   14.33 input  -65.29 | X-H torsion
[ 10718 10713 10712 10709 ] final  -80.88 input   66.30 | X-H torsion
[ 10763 10752 10751 10750 ] final  -40.81 input  -60.55 | X-H torsion
[ 11005 11000 10999 10996 ] final -145.35 input  -57.11 | X-H torsion

> <Gold.Protein.ActiveResidues>
 VAL166  LYS551  ARG553  GLY616  TRP617  ASP618  TYR619  PRO620  LYS621  CYS622 
 ASP623  PHE694  ASN695  SER759  ASP760  ASP761  ALA762  ILE779  LEU786  VAL792 
 PHE793  MET794  SER795  GLU796  ALA797  LYS798  CYS799  TRP800  GLU811  SER814 

> <Gold.Protein.RotatedAtoms>
  150.8347  133.8033  159.3084 H   0  0  0  0  0  0  0  0  0  0  0  0  # atno 6907 bound_to 6896
  151.5753  135.1059  160.0014 H   0  0  0  0  0  0  0  0  0  0  0  0  # atno 6908 bound_to 6896
  152.4421  133.7426  159.6705 H   0  0  0  0  0  0  0  0  0  0  0  0  # atno 6909 bound_to 6896
  144.9655  139.4662  143.5458 H   0  0  0  0  0  0  0  0  0  0  0  0  # atno 7974 bound_to 7965
  154.8603  140.2943  155.5543 H   0  0  0  0  0  0  0  0  0  0  0  0  # atno 8008 bound_to 7997
  156.3019  140.2479  156.3509 H   0  0  0  0  0  0  0  0  0  0  0  0  # atno 8009 bound_to 7997
  154.8925  140.0394  157.1836 H   0  0  0  0  0  0  0  0  0  0  0  0  # atno 8010 bound_to 7997
  140.5943  143.8733  150.6903 H   0  0  0  0  0  0  0  0  0  0  0  0  # atno 10167 bound_to 10162
  156.0061  130.4587  150.3868 H   0  0  0  0  0  0  0  0  0  0  0  0  # atno 10718 bound_to 10713
  153.9522  135.6749  153.4744 H   0  0  0  0  0  0  0  0  0  0  0  0  # atno 10763 bound_to 10752
  153.0879  135.4889  154.8629 H   0  0  0  0  0  0  0  0  0  0  0  0  # atno 10764 bound_to 10752
  154.7319  135.3140  154.8836 H   0  0  0  0  0  0  0  0  0  0  0  0  # atno 10765 bound_to 10752
  140.7931  134.2945  157.5006 H   0  0  0  0  0  0  0  0  0  0  0  0  # atno 11005 bound_to 11000
  146.3366  139.8834  142.8820 LP  0  0  0  0  0  0  0  0  0  0  0  0  # atno 17320 bound_to 7965
  145.2635  141.0085  143.3812 LP  0  0  0  0  0  0  0  0  0  0  0  0  # atno 17321 bound_to 7965
  140.2263  143.3770  152.1602 LP  0  0  0  0  0  0  0  0  0  0  0  0  # atno 17342 bound_to 10162
  139.5248  144.7088  151.5272 LP  0  0  0  0  0  0  0  0  0  0  0  0  # atno 17343 bound_to 10162
  157.1945  131.0423  151.2683 LP  0  0  0  0  0  0  0  0  0  0  0  0  # atno 17370 bound_to 10713
  157.4031  130.7344  149.6782 LP  0  0  0  0  0  0  0  0  0  0  0  0  # atno 17371 bound_to 10713
  139.8729  134.9386  156.3719 LP  0  0  0  0  0  0  0  0  0  0  0  0  # atno 17394 bound_to 11000
  140.9369  133.7541  156.0096 LP  0  0  0  0  0  0  0  0  0  0  0  0  # atno 17395 bound_to 11000

$$$$
