AV-unprocessed.smi:1554|AV-procd|sdf|6252|dock10
  -GOLD-   22720 6433D 1   1.00000     0.00000
 Structure written by MMmdl.
 48 50  0  0  0  0  0  0  0  0  2 V2000
  152.5666  143.6755  161.2361 C   0  0  0  0  0  0  0  0  0  0  0  0
  152.3143  142.8717  159.9717 C   0  0  0  0  0  0  0  0  0  0  0  0
  151.3363  143.3339  159.0624 C   0  0  0  0  0  0  0  0  0  0  0  0
  151.1264  142.5752  157.9169 C   0  0  0  0  0  0  0  0  0  0  0  0
  150.2453  142.7577  156.8490 N   0  3  0  0  0  0  0  0  0  0  0  0
  150.4025  141.7451  155.9523 C   0  0  0  0  0  0  0  0  0  0  0  0
  151.3726  140.9196  156.4304 N   0  0  0  0  0  0  0  0  0  0  0  0
  151.9247  139.6877  155.8482 C   0  0  0  0  0  0  0  0  0  0  0  0
  150.8451  138.7795  155.2278 C   0  0  2  0  0  0  0  0  0  0  0  0
  150.3855  139.3494  154.0185 O   0  0  0  0  0  0  0  0  0  0  0  0
  149.6400  138.6104  156.1745 C   0  0  0  0  0  0  0  0  0  0  0  0
  149.8620  137.7435  157.3336 N   0  0  0  0  0  0  0  0  0  0  0  0
  150.8279  138.2984  158.2807 C   0  0  0  0  0  0  0  0  0  0  0  0
  151.0178  137.3884  159.5064 C   0  0  0  0  0  0  0  0  0  0  0  0
  149.7605  137.1599  160.1335 O   0  0  0  0  0  0  0  0  0  0  0  0
  148.8020  136.5711  159.2590 C   0  0  1  0  0  0  0  0  0  0  0  0
  147.5000  136.3650  160.0404 C   0  0  0  0  0  0  0  0  0  0  0  0
  148.6083  137.4884  158.0358 C   0  0  0  0  0  0  0  0  0  0  0  0
  151.8521  141.3964  157.6565 C   0  0  0  0  0  0  0  0  0  0  0  0
  152.8190  140.9272  158.5429 C   0  0  0  0  0  0  0  0  0  0  0  0
  153.0448  141.6824  159.7159 C   0  0  0  0  0  0  0  0  0  0  0  0
  154.0891  141.1907  160.7037 C   0  0  0  0  0  0  0  0  0  0  0  0
  151.9445  144.5704  161.2710 H   0  0  0  0  0  0  0  0  0  0  0  0
  153.6082  143.9934  161.2872 H   0  0  0  0  0  0  0  0  0  0  0  0
  152.3421  143.0783  162.1201 H   0  0  0  0  0  0  0  0  0  0  0  0
  150.7744  144.2370  159.2514 H   0  0  0  0  0  0  0  0  0  0  0  0
  149.8571  141.6204  155.0279 H   0  0  0  0  0  0  0  0  0  0  0  0
  152.6355  139.9923  155.0791 H   0  0  0  0  0  0  0  0  0  0  0  0
  152.5047  139.1584  156.6046 H   0  0  0  0  0  0  0  0  0  0  0  0
  151.2995  137.8155  155.0033 H   0  0  0  0  0  0  0  0  0  0  0  0
  149.5146  139.0225  153.8492 H   0  0  0  0  0  0  0  0  0  0  0  0
  149.3190  139.5929  156.5239 H   0  0  0  0  0  0  0  0  0  0  0  0
  148.8060  138.2206  155.5886 H   0  0  0  0  0  0  0  0  0  0  0  0
  151.7970  138.4359  157.8034 H   0  0  0  0  0  0  0  0  0  0  0  0
  150.4981  139.2843  158.6122 H   0  0  0  0  0  0  0  0  0  0  0  0
  151.4653  136.4369  159.2153 H   0  0  0  0  0  0  0  0  0  0  0  0
  151.6938  137.8546  160.2232 H   0  0  0  0  0  0  0  0  0  0  0  0
  149.1726  135.5981  158.9309 H   0  0  0  0  0  0  0  0  0  0  0  0
  146.7333  135.9097  159.4131 H   0  0  0  0  0  0  0  0  0  0  0  0
  147.1094  137.3129  160.4119 H   0  0  0  0  0  0  0  0  0  0  0  0
  147.6593  135.7111  160.8981 H   0  0  0  0  0  0  0  0  0  0  0  0
  148.1680  138.4336  158.3579 H   0  0  0  0  0  0  0  0  0  0  0  0
  147.8920  137.0289  157.3536 H   0  0  0  0  0  0  0  0  0  0  0  0
  153.3708  140.0186  158.3521 H   0  0  0  0  0  0  0  0  0  0  0  0
  154.5539  140.2642  160.3649 H   0  0  0  0  0  0  0  0  0  0  0  0
  153.6353  140.9990  161.6765 H   0  0  0  0  0  0  0  0  0  0  0  0
  154.8782  141.9328  160.8289 H   0  0  0  0  0  0  0  0  0  0  0  0
  149.5842  143.5159  156.7382 H   0  0  0  0  0  0  0  0  0  0  0  0
  1  2  1  0  0  0  0
  1 23  1  0  0  0  0
  1 24  1  0  0  0  0
  1 25  1  0  0  0  0
  2 21  1  0  0  0  0
  2  3  2  0  0  0  0
  3  4  1  0  0  0  0
  3 26  1  0  0  0  0
  4 19  2  0  0  0  0
  4  5  1  0  0  0  0
  5  6  2  0  0  0  0
  5 48  1  0  0  0  0
  6  7  1  0  0  0  0
  6 27  1  0  0  0  0
  7  8  1  0  0  0  0
  7 19  1  0  0  0  0
  8  9  1  0  0  0  0
  8 28  1  0  0  0  0
  8 29  1  0  0  0  0
  9 10  1  0  0  0  0
  9 11  1  0  0  0  0
  9 30  1  0  0  0  0
 10 31  1  0  0  0  0
 11 12  1  0  0  0  0
 11 32  1  0  0  0  0
 11 33  1  0  0  0  0
 12 18  1  0  0  0  0
 12 13  1  0  0  0  0
 13 14  1  0  0  0  0
 13 34  1  0  0  0  0
 13 35  1  0  0  0  0
 14 15  1  0  0  0  0
 14 36  1  0  0  0  0
 14 37  1  0  0  0  0
 15 16  1  0  0  0  0
 16 17  1  0  0  0  0
 16 18  1  0  0  0  0
 16 38  1  0  0  0  0
 17 39  1  0  0  0  0
 17 40  1  0  0  0  0
 17 41  1  0  0  0  0
 18 42  1  0  0  0  0
 18 43  1  0  0  0  0
 19 20  1  0  0  0  0
 20 21  2  0  0  0  0
 20 44  1  0  0  0  0
 21 22  1  0  0  0  0
 22 45  1  0  0  0  0
 22 46  1  0  0  0  0
 22 47  1  0  0  0  0
M  CHG  1   5   1
M  END
> <s_m_source_file>
AV-unprocessed.smi

> <i_m_source_file_index>
1554

> <i_lp_mmshare_version>
43012

> <i_f3d_flags>
0

> <s_epik_input>
W0NIM11jKFtjSF0xKWMoW0NIM10pW2NIXWMoYzEyKW4oW2NIXW4yKVtDSDJdW0NASF0oW09IXSlbQ0gyXU4zW0NIMl1bQ0gyXU9bQ0BASF0oW0NIM10pW0NIMl0z

> <s_epik_cmdline>
J2VwaWtfcHl0aG9uJywgJy1waCcsICc3LjAnLCAnLXRuJywgJzgnLCAnLW1hJywgJzIwMCcsICctbWV0YWxfYmluZGluZycsICctaW1hZScsICc8aW5maWxlLm1hZT4nLCAnLW9tYWUnLCAnPG91dGZpbGUubWFlPic=

> <r_epik_Ionization_Penalty>
1.42504

> <r_epik_Ionization_Penalty_Charging>
1.21068

> <r_epik_Ionization_Penalty_Neutral>
0.214359

> <r_epik_State_Penalty>
1.46962

> <r_epik_Charging_Adjusted_Penalty>
2.6803

> <i_epik_Tot_Q>
1

> <i_epik_Tot_abs_Q>
1

> <r_epik_Metal_State_Penalty>
5.48754

> <b_epik_Metal_Only>
0

> <s_lp_Force_Field>
OPLS_2005

> <r_lp_Energy>
34.8696

> <b_lp_Chiralities_Consistent>
1

> <s_lp_Variant>
AV-unprocessed.smi:1554-13

> <Gold.Version>
5.8.1

> <Gold.Id.Protein>
6NUR|6NUR_protein|mol2

> <Gold.PLP.Fitness>
51.3528

> <Gold.PLP.PLP>
-42.4310

> <Gold.PLP.part.hbond>
-4.0000

> <Gold.PLP.part.metal>
0.0000

> <Gold.PLP.part.buried>
-6.2145

> <Gold.PLP.part.nonpolar>
-33.5825

> <Gold.PLP.part.repulsive>
0.0353

> <Gold.PLP.ligand.clash>
0.0000

> <Gold.PLP.ligand.torsion>
0.4737

> <Gold.PLP.Chemscore.Hbond>
3.2803

> <Gold.PLP.Chemscore.CHOScore>
0.0000

> <Gold.PLP.Chemscore.Metal>
0.0000

> <Gold.Chemscore.Hbonds>
donor molecule, donor type, donor heavy atom, donor atom, acceptor molecule, acceptor atom, score
      L1  H     5    48       P1  8028  1.92
      P1  H  6931  6943       L1    15  0.20
      P1  H  7989  7998       L1    10  1.00

> <Gold.PLP.Chemscore.Internal.Correction>
0.0283

> <Gold.Rescore>
     Score         DG    S(hbond)    S(metal)    S(lipo)     H(rot)  DE(clash)    DE(int)     intcor
     19.42     -20.97       2.29        0.00     111.73       2.04       0.14       1.41       ----

> <Gold.Chemscore.Fitness>
19.4190

> <Gold.Chemscore.DG>
-20.9674

> <Gold.Chemscore.ZeroCoef>
-5.4800

> <Gold.Chemscore.Hbond>
2.2888

> <Gold.Chemscore.Metal>
0.0000

> <Gold.Chemscore.Lipo>
111.7288

> <Gold.Chemscore.Internal_Hbond>
0.0000

> <Gold.Chemscore.DEClash>
0.1419

> <Gold.Chemscore.DEInternal>
1.4065

> <Gold.Chemscore.Rot>
2.0427

> <Gold.Chemscore.Internal.Correction>
   9.000000E+99

> <Gold.Chemscore.Hbonds>
donor molecule, donor type, donor heavy atom, donor atom, acceptor molecule, acceptor atom, score
      L1  H     5    48       P1  8028  0.92
      P1  H  6931  6943       L1    15  0.21
      P1  H  7989  7998       L1    10  0.69

> <Gold.Chemscore.Hbond.Weighted>
-7.6446

> <Gold.Chemscore.Metal.Weighted>
-0.0000

> <Gold.Chemscore.Lipo.Weighted>
-13.0723

> <Gold.Chemscore.Internal_Hbond.Weighted>
0.0000

> <Gold.Chemscore.DEClash.Weighted>
0.1419

> <Gold.Chemscore.DEInternal.Weighted>
1.4065

> <Gold.Chemscore.Rot.Weighted>
5.2294

> <Gold.Chemscore.Internal.Correction.Weighted>
   9.000000E+99

> <Gold.Protein.RotatedTorsions>
[ 6907 6896 6895 6894 ] final -127.36 input  -60.11 | X-H torsion
[ 7974 7965 7964 7962 ] final   45.86 input  175.53 | X-H torsion
[ 8008 7997 7996 7995 ] final  -73.58 input   59.86 | X-H torsion
[ 10167 10162 10161 10158 ] final -110.42 input  -65.29 | X-H torsion
[ 10718 10713 10712 10709 ] final   -4.51 input   66.30 | X-H torsion
[ 10763 10752 10751 10750 ] final   85.29 input  -60.55 | X-H torsion
[ 11005 11000 10999 10996 ] final   13.12 input  -57.11 | X-H torsion

> <Gold.Protein.ActiveResidues>
 VAL166  LYS551  ARG553  GLY616  TRP617  ASP618  TYR619  PRO620  LYS621  CYS622 
 ASP623  PHE694  ASN695  SER759  ASP760  ASP761  ALA762  ILE779  LEU786  VAL792 
 PHE793  MET794  SER795  GLU796  ALA797  LYS798  CYS799  TRP800  GLU811  SER814 

> <Gold.Protein.RotatedAtoms>
  150.9065  133.7052  159.2865 H   0  0  0  0  0  0  0  0  0  0  0  0  # atno 6907 bound_to 6896
  151.4553  135.1032  159.9719 H   0  0  0  0  0  0  0  0  0  0  0  0  # atno 6908 bound_to 6896
  152.4906  133.8441  159.7223 H   0  0  0  0  0  0  0  0  0  0  0  0  # atno 6909 bound_to 6896
  146.0442  139.4918  142.9759 H   0  0  0  0  0  0  0  0  0  0  0  0  # atno 7974 bound_to 7965
  154.5259  140.0776  156.8258 H   0  0  0  0  0  0  0  0  0  0  0  0  # atno 8008 bound_to 7997
  155.3476  140.3411  155.4221 H   0  0  0  0  0  0  0  0  0  0  0  0  # atno 8009 bound_to 7997
  156.1731  140.1626  156.8398 H   0  0  0  0  0  0  0  0  0  0  0  0  # atno 8010 bound_to 7997
  140.1447  143.4249  152.1537 H   0  0  0  0  0  0  0  0  0  0  0  0  # atno 10167 bound_to 10162
  156.7602  130.5267  149.5786 H   0  0  0  0  0  0  0  0  0  0  0  0  # atno 10718 bound_to 10713
  153.1461  135.4622  154.9569 H   0  0  0  0  0  0  0  0  0  0  0  0  # atno 10763 bound_to 10752
  154.7787  135.3181  154.8038 H   0  0  0  0  0  0  0  0  0  0  0  0  # atno 10764 bound_to 10752
  153.8552  135.6918  153.4842 H   0  0  0  0  0  0  0  0  0  0  0  0  # atno 10765 bound_to 10752
  140.4843  134.0904  155.7757 H   0  0  0  0  0  0  0  0  0  0  0  0  # atno 11005 bound_to 11000
  145.6834  141.0185  143.1594 LP  0  0  0  0  0  0  0  0  0  0  0  0  # atno 17320 bound_to 7965
  144.7089  139.8448  143.7421 LP  0  0  0  0  0  0  0  0  0  0  0  0  # atno 17321 bound_to 7965
  139.5455  144.7294  151.4598 LP  0  0  0  0  0  0  0  0  0  0  0  0  # atno 17342 bound_to 10162
  140.6739  143.8233  150.7034 LP  0  0  0  0  0  0  0  0  0  0  0  0  # atno 17343 bound_to 10162
  156.1344  130.6201  151.0379 LP  0  0  0  0  0  0  0  0  0  0  0  0  # atno 17370 bound_to 10713
  157.6738  131.0855  150.7546 LP  0  0  0  0  0  0  0  0  0  0  0  0  # atno 17371 bound_to 10713
  141.1516  133.8959  157.2084 LP  0  0  0  0  0  0  0  0  0  0  0  0  # atno 17394 bound_to 11000
  139.9807  135.0099  156.9743 LP  0  0  0  0  0  0  0  0  0  0  0  0  # atno 17395 bound_to 11000

$$$$
