AV-unprocessed.smi:3234|AV-procd|sdf|12350|dock2
  -GOLD-   2272018213D 1   1.00000     0.00000
 Structure written by MMmdl.
 37 39  0  0  0  0  0  0  0  0  2 V2000
  146.2340  136.8590  152.9210 O   0  0  0  0  0  0  0  0  0  0  0  0
  145.4748  137.8251  152.8499 C   0  0  0  0  0  0  0  0  0  0  0  0
  145.8014  139.0982  153.1332 N   0  0  0  0  0  0  0  0  0  0  0  0
  147.0415  139.6152  153.5986 C   0  0  0  0  0  0  0  0  0  0  0  0
  148.0819  138.6971  153.8508 C   0  0  0  0  0  0  0  0  0  0  0  0
  149.3261  139.1856  154.2973 C   0  0  0  0  0  0  0  0  0  0  0  0
  149.5825  140.4967  154.4890 N   0  0  0  0  0  0  0  0  0  0  0  0
  148.5905  141.3755  154.2326 C   0  0  0  0  0  0  0  0  0  0  0  0
  147.3103  140.9928  153.7841 C   0  0  0  0  0  0  0  0  0  0  0  0
  144.1992  137.7276  152.4489 N   0  0  0  0  0  0  0  0  0  0  0  0
  143.5486  136.4826  152.0535 C   0  0  2  0  0  0  0  0  0  0  0  0
  143.5703  135.3899  153.1257 C   0  0  0  0  0  0  0  0  0  0  0  0
  143.5786  134.0709  152.3336 C   0  0  0  0  0  0  0  0  0  0  0  0
  143.7642  134.4278  150.9074 N   0  3  2  0  0  0  0  0  0  0  0  0
  144.5942  133.4726  150.1428 C   0  0  0  0  0  0  0  0  0  0  0  0
  143.8189  132.6936  149.1076 C   0  0  0  0  0  0  0  0  0  0  0  0
  144.2422  132.0264  150.3983 C   0  0  0  0  0  0  0  0  0  0  0  0
  144.2615  135.8145  150.8818 C   0  0  0  0  0  0  0  0  0  0  0  0
  145.0914  139.7906  152.9452 H   0  0  0  0  0  0  0  0  0  0  0  0
  147.9331  137.6362  153.7120 H   0  0  0  0  0  0  0  0  0  0  0  0
  150.1380  138.5039  154.5038 H   0  0  0  0  0  0  0  0  0  0  0  0
  148.8261  142.4186  154.3830 H   0  0  0  0  0  0  0  0  0  0  0  0
  146.5755  141.7565  153.5820 H   0  0  0  0  0  0  0  0  0  0  0  0
  143.6438  138.5702  152.4126 H   0  0  0  0  0  0  0  0  0  0  0  0
  142.5150  136.6830  151.7630 H   0  0  0  0  0  0  0  0  0  0  0  0
  144.4804  135.4613  153.7238 H   0  0  0  0  0  0  0  0  0  0  0  0
  142.7212  135.4629  153.8062 H   0  0  0  0  0  0  0  0  0  0  0  0
  144.3841  133.4259  152.6887 H   0  0  0  0  0  0  0  0  0  0  0  0
  142.6417  133.5257  152.4503 H   0  0  0  0  0  0  0  0  0  0  0  0
  145.6261  133.7657  149.9564 H   0  0  0  0  0  0  0  0  0  0  0  0
  142.7609  132.9160  148.9803 H   0  0  0  0  0  0  0  0  0  0  0  0
  144.3444  132.4015  148.2005 H   0  0  0  0  0  0  0  0  0  0  0  0
  145.0461  131.2952  150.3392 H   0  0  0  0  0  0  0  0  0  0  0  0
  143.4650  131.8049  151.1275 H   0  0  0  0  0  0  0  0  0  0  0  0
  144.0480  136.2996  149.9286 H   0  0  0  0  0  0  0  0  0  0  0  0
  145.3425  135.8215  151.0347 H   0  0  0  0  0  0  0  0  0  0  0  0
  142.8438  134.4440  150.4917 H   0  0  0  0  0  0  0  0  0  0  0  0
  1  2  2  0  0  0  0
  2  3  1  0  0  0  0
  2 10  1  0  0  0  0
  3  4  1  0  0  0  0
  3 19  1  0  0  0  0
  4  9  1  0  0  0  0
  4  5  2  0  0  0  0
  5  6  1  0  0  0  0
  5 20  1  0  0  0  0
  6  7  2  0  0  0  0
  6 21  1  0  0  0  0
  7  8  1  0  0  0  0
  8  9  2  0  0  0  0
  8 22  1  0  0  0  0
  9 23  1  0  0  0  0
 10 11  1  0  0  0  0
 10 24  1  0  0  0  0
 11 18  1  0  0  0  0
 11 12  1  0  0  0  0
 11 25  1  0  0  0  0
 12 13  1  0  0  0  0
 12 26  1  0  0  0  0
 12 27  1  0  0  0  0
 13 14  1  0  0  0  0
 13 28  1  0  0  0  0
 13 29  1  0  0  0  0
 14 15  1  0  0  0  0
 14 18  1  0  0  0  0
 14 37  1  0  0  0  0
 15 17  1  0  0  0  0
 15 16  1  0  0  0  0
 15 30  1  0  0  0  0
 16 17  1  0  0  0  0
 16 31  1  0  0  0  0
 16 32  1  0  0  0  0
 17 33  1  0  0  0  0
 17 34  1  0  0  0  0
 18 35  1  0  0  0  0
 18 36  1  0  0  0  0
M  CHG  1  14   1
M  END
> <s_m_source_file>
AV-unprocessed.smi

> <i_m_source_file_index>
3234

> <i_lp_mmshare_version>
43012

> <i_f3d_flags>
0

> <s_epik_input>
W2NIXTFbY0hdbltjSF1bY0hdYzFbTkhdQyg9TylbTkhdW0NAQEhdMltDSDJdW0NIMl1OKFtDSDJdMilbQ0hdM1tDSDJdW0NIMl0z

> <s_epik_cmdline>
J2VwaWtfcHl0aG9uJywgJy1waCcsICc3LjAnLCAnLXRuJywgJzgnLCAnLW1hJywgJzIwMCcsICctbWV0YWxfYmluZGluZycsICctaW1hZScsICc8aW5maWxlLm1hZT4nLCAnLW9tYWUnLCAnPG91dGZpbGUubWFlPic=

> <r_epik_Ionization_Penalty>
0.0934328

> <r_epik_Ionization_Penalty_Charging>
0.000606352

> <r_epik_Ionization_Penalty_Neutral>
0.0928265

> <r_epik_State_Penalty>
0.0830811

> <r_epik_Charging_Adjusted_Penalty>
0.0836875

> <i_epik_Tot_Q>
1

> <i_epik_Tot_abs_Q>
1

> <r_epik_Metal_State_Penalty>
0.0724491

> <b_epik_Metal_Only>
0

> <s_lp_Force_Field>
OPLS_2005

> <r_lp_Energy>
41.2347

> <b_lp_Chiralities_Consistent>
1

> <s_lp_Variant>
AV-unprocessed.smi:3234-3

> <Gold.Version>
5.8.1

> <Gold.Id.Protein>
6NUR|6NUR_protein|mol2

> <Gold.PLP.Fitness>
47.4132

> <Gold.PLP.PLP>
-32.7016

> <Gold.PLP.part.hbond>
-4.8375

> <Gold.PLP.part.metal>
0.0000

> <Gold.PLP.part.buried>
-0.6895

> <Gold.PLP.part.nonpolar>
-28.0833

> <Gold.PLP.part.repulsive>
1.4063

> <Gold.PLP.ligand.clash>
0.0000

> <Gold.PLP.ligand.torsion>
0.8190

> <Gold.PLP.Chemscore.Hbond>
4.3009

> <Gold.PLP.Chemscore.CHOScore>
0.7275

> <Gold.PLP.Chemscore.Metal>
0.0000

> <Gold.Chemscore.Hbonds>
donor molecule, donor type, donor heavy atom, donor atom, acceptor molecule, acceptor atom, score
      L1  H     3    19       P1 10175  1.00
      L1  H    10    24       P1 10175  0.94
      L1  H    14    37       P1 10186  1.89
      P1  H  7989  7998       L1     7  0.26
      L1  C     8    22       P1  8028  0.80

> <Gold.PLP.Chemscore.Internal.Correction>
1.2645

> <Gold.Rescore>
     Score         DG    S(hbond)    S(metal)    S(lipo)     H(rot)  DE(clash)    DE(int)     intcor
     16.84     -20.51       2.59        0.00      81.15       1.21       0.23       3.44       ----

> <Gold.Chemscore.Fitness>
16.8351

> <Gold.Chemscore.DG>
-20.5094

> <Gold.Chemscore.ZeroCoef>
-5.4800

> <Gold.Chemscore.Hbond>
2.5851

> <Gold.Chemscore.Metal>
0.0000

> <Gold.Chemscore.Lipo>
81.1522

> <Gold.Chemscore.Internal_Hbond>
0.0000

> <Gold.Chemscore.DEClash>
0.2299

> <Gold.Chemscore.DEInternal>
3.4444

> <Gold.Chemscore.Rot>
1.2108

> <Gold.Chemscore.Internal.Correction>
   9.000000E+99

> <Gold.Chemscore.Hbonds>
donor molecule, donor type, donor heavy atom, donor atom, acceptor molecule, acceptor atom, score
      L1  H     3    19       P1 10175  0.99
      L1  H    10    24       P1 10175  0.91
      L1  H    14    37       P1 10186  0.50
      P1  H  7989  7998       L1     7  0.14

> <Gold.Chemscore.Hbond.Weighted>
-8.6342

> <Gold.Chemscore.Metal.Weighted>
-0.0000

> <Gold.Chemscore.Lipo.Weighted>
-9.4948

> <Gold.Chemscore.Internal_Hbond.Weighted>
0.0000

> <Gold.Chemscore.DEClash.Weighted>
0.2299

> <Gold.Chemscore.DEInternal.Weighted>
3.4444

> <Gold.Chemscore.Rot.Weighted>
3.0996

> <Gold.Chemscore.Internal.Correction.Weighted>
   9.000000E+99

> <Gold.Protein.RotatedTorsions>
[ 6907 6896 6895 6894 ] final -143.62 input  -60.11 | X-H torsion
[ 7974 7965 7964 7962 ] final  -97.48 input  175.53 | X-H torsion
[ 8008 7997 7996 7995 ] final   51.48 input   59.86 | X-H torsion
[ 10167 10162 10161 10158 ] final   28.54 input  -65.29 | X-H torsion
[ 10718 10713 10712 10709 ] final  -57.46 input   66.30 | X-H torsion
[ 10763 10752 10751 10750 ] final -168.62 input  -60.55 | X-H torsion
[ 11005 11000 10999 10996 ] final  116.31 input  -57.11 | X-H torsion

> <Gold.Protein.ActiveResidues>
 VAL166  LYS551  ARG553  GLY616  TRP617  ASP618  TYR619  PRO620  LYS621  CYS622 
 ASP623  PHE694  ASN695  SER759  ASP760  ASP761  ALA762  ILE779  LEU786  VAL792 
 PHE793  MET794  SER795  GLU796  ALA797  LYS798  CYS799  TRP800  GLU811  SER814 

> <Gold.Protein.RotatedAtoms>
  151.1029  133.5230  159.2608 H   0  0  0  0  0  0  0  0  0  0  0  0  # atno 6907 bound_to 6896
  151.2054  135.0459  159.8899 H   0  0  0  0  0  0  0  0  0  0  0  0  # atno 6908 bound_to 6896
  152.5444  134.0852  159.8306 H   0  0  0  0  0  0  0  0  0  0  0  0  # atno 6909 bound_to 6896
  145.3332  140.9445  143.2650 H   0  0  0  0  0  0  0  0  0  0  0  0  # atno 7974 bound_to 7965
  155.4359  140.3452  155.4285 H   0  0  0  0  0  0  0  0  0  0  0  0  # atno 8008 bound_to 7997
  156.1308  140.1513  156.9099 H   0  0  0  0  0  0  0  0  0  0  0  0  # atno 8009 bound_to 7997
  154.4893  140.0846  156.7538 H   0  0  0  0  0  0  0  0  0  0  0  0  # atno 8010 bound_to 7997
  140.4844  144.0566  150.6276 H   0  0  0  0  0  0  0  0  0  0  0  0  # atno 10167 bound_to 10162
  156.1209  130.4166  150.0444 H   0  0  0  0  0  0  0  0  0  0  0  0  # atno 10718 bound_to 10713
  154.6609  135.2925  154.9867 H   0  0  0  0  0  0  0  0  0  0  0  0  # atno 10763 bound_to 10752
  154.0927  135.6588  153.4859 H   0  0  0  0  0  0  0  0  0  0  0  0  # atno 10764 bound_to 10752
  153.0429  135.5224  154.7560 H   0  0  0  0  0  0  0  0  0  0  0  0  # atno 10765 bound_to 10752
  139.9037  134.9596  156.7178 H   0  0  0  0  0  0  0  0  0  0  0  0  # atno 11005 bound_to 11000
  144.8848  139.4855  143.6706 LP  0  0  0  0  0  0  0  0  0  0  0  0  # atno 17320 bound_to 7965
  146.3037  139.7510  142.9072 LP  0  0  0  0  0  0  0  0  0  0  0  0  # atno 17321 bound_to 7965
  140.3817  143.2799  152.0163 LP  0  0  0  0  0  0  0  0  0  0  0  0  # atno 17342 bound_to 10162
  139.4839  144.6149  151.7364 LP  0  0  0  0  0  0  0  0  0  0  0  0  # atno 17343 bound_to 10162
  156.8383  130.9416  151.3633 LP  0  0  0  0  0  0  0  0  0  0  0  0  # atno 17370 bound_to 10713
  157.6392  130.8792  149.9416 LP  0  0  0  0  0  0  0  0  0  0  0  0  # atno 17371 bound_to 10713
  140.7025  133.9294  155.8033 LP  0  0  0  0  0  0  0  0  0  0  0  0  # atno 17394 bound_to 11000
  141.0361  134.0687  157.3957 LP  0  0  0  0  0  0  0  0  0  0  0  0  # atno 17395 bound_to 11000

$$$$
