AV-unprocessed.smi:693|AV-procd|sdf|3375|dock10
  -GOLD-   22720 0353D 1   1.00000     0.00000
 Structure written by MMmdl.
 47 48  0  0  0  0  0  0  0  0  2 V2000
  150.3771  143.1924  158.3859 C   0  0  0  0  0  0  0  0  0  0  0  0
  150.1431  142.0501  157.4199 C   0  0  0  0  0  0  0  0  0  0  0  0
  150.9465  140.8901  157.4282 C   0  0  0  0  0  0  0  0  0  0  0  0
  150.6776  139.8588  156.5041 C   0  0  0  0  0  0  0  0  0  0  0  0
  149.6110  140.0086  155.5909 C   0  0  0  0  0  0  0  0  0  0  0  0
  149.2863  138.9162  154.5911 C   0  0  0  0  0  0  0  0  0  0  0  0
  150.2411  137.7180  154.7173 C   0  0  0  0  0  0  0  0  0  0  0  0
  149.5246  136.4498  154.6477 N   0  0  0  0  0  0  0  0  0  0  0  0
  150.0663  135.2432  154.8876 C   0  0  0  0  0  0  0  0  0  0  0  0
  151.2456  135.1135  155.2203 O   0  0  0  0  0  0  0  0  0  0  0  0
  149.2096  134.1979  154.7625 N   0  0  0  0  0  0  0  0  0  0  0  0
  148.0152  134.1487  153.9040 C   0  0  0  0  0  0  0  0  0  0  0  0
  148.3349  133.2806  152.6758 C   0  0  0  0  0  0  0  0  0  0  0  0
  148.8053  131.8754  153.0978 C   0  0  0  0  0  0  0  0  0  0  0  0
  149.9322  131.9247  154.1610 C   0  0  2  0  0  0  0  0  0  0  0  0
  150.3194  130.5343  154.7147 C   0  0  0  0  0  0  0  0  0  0  0  0
  150.6442  129.5022  153.6294 C   0  0  0  0  0  0  0  0  0  0  0  0
  151.7672  129.6879  152.9311 N   0  0  0  0  0  0  0  0  0  0  0  0
  149.9064  128.5381  153.4378 O   0  0  0  0  0  0  0  0  0  0  0  0
  149.5201  132.8715  155.3109 C   0  0  0  0  0  0  0  0  0  0  0  0
  148.8419  141.1913  155.6280 C   0  0  0  0  0  0  0  0  0  0  0  0
  149.1322  142.1562  156.5279 N   0  3  0  0  0  0  0  0  0  0  0  0
  150.4385  142.8176  159.4079 H   0  0  0  0  0  0  0  0  0  0  0  0
  149.5695  143.9240  158.3405 H   0  0  0  0  0  0  0  0  0  0  0  0
  151.3128  143.6997  158.1498 H   0  0  0  0  0  0  0  0  0  0  0  0
  151.7583  140.7904  158.1343 H   0  0  0  0  0  0  0  0  0  0  0  0
  151.2821  138.9634  156.5004 H   0  0  0  0  0  0  0  0  0  0  0  0
  148.2543  138.5977  154.7453 H   0  0  0  0  0  0  0  0  0  0  0  0
  149.3326  139.3280  153.5819 H   0  0  0  0  0  0  0  0  0  0  0  0
  150.9763  137.7400  153.9122 H   0  0  0  0  0  0  0  0  0  0  0  0
  150.8030  137.7734  155.6513 H   0  0  0  0  0  0  0  0  0  0  0  0
  148.5494  136.4868  154.3880 H   0  0  0  0  0  0  0  0  0  0  0  0
  147.1881  133.7095  154.4639 H   0  0  0  0  0  0  0  0  0  0  0  0
  147.6576  135.1271  153.5840 H   0  0  0  0  0  0  0  0  0  0  0  0
  147.4579  133.2017  152.0329 H   0  0  0  0  0  0  0  0  0  0  0  0
  149.1120  133.7630  152.0812 H   0  0  0  0  0  0  0  0  0  0  0  0
  147.9549  131.3245  153.5018 H   0  0  0  0  0  0  0  0  0  0  0  0
  149.1305  131.3314  152.2112 H   0  0  0  0  0  0  0  0  0  0  0  0
  150.8182  132.3531  153.6884 H   0  0  0  0  0  0  0  0  0  0  0  0
  151.1844  130.6303  155.3729 H   0  0  0  0  0  0  0  0  0  0  0  0
  149.5129  130.1435  155.3365 H   0  0  0  0  0  0  0  0  0  0  0  0
  152.0251  129.0336  152.2066 H   0  0  0  0  0  0  0  0  0  0  0  0
  152.3563  130.4829  153.1322 H   0  0  0  0  0  0  0  0  0  0  0  0
  150.3055  132.9128  156.0674 H   0  0  0  0  0  0  0  0  0  0  0  0
  148.6421  132.4786  155.8260 H   0  0  0  0  0  0  0  0  0  0  0  0
  148.0069  141.3922  154.9723 H   0  0  0  0  0  0  0  0  0  0  0  0
  148.5618  143.0020  156.5353 H   0  0  0  0  0  0  0  0  0  0  0  0
  1  2  1  0  0  0  0
  1 23  1  0  0  0  0
  1 24  1  0  0  0  0
  1 25  1  0  0  0  0
  2 22  1  0  0  0  0
  2  3  2  0  0  0  0
  3  4  1  0  0  0  0
  3 26  1  0  0  0  0
  4  5  2  0  0  0  0
  4 27  1  0  0  0  0
  5  6  1  0  0  0  0
  5 21  1  0  0  0  0
  6  7  1  0  0  0  0
  6 28  1  0  0  0  0
  6 29  1  0  0  0  0
  7  8  1  0  0  0  0
  7 30  1  0  0  0  0
  7 31  1  0  0  0  0
  8  9  1  0  0  0  0
  8 32  1  0  0  0  0
  9 10  2  0  0  0  0
  9 11  1  0  0  0  0
 11 20  1  0  0  0  0
 11 12  1  0  0  0  0
 12 13  1  0  0  0  0
 12 33  1  0  0  0  0
 12 34  1  0  0  0  0
 13 14  1  0  0  0  0
 13 35  1  0  0  0  0
 13 36  1  0  0  0  0
 14 15  1  0  0  0  0
 14 37  1  0  0  0  0
 14 38  1  0  0  0  0
 15 16  1  0  0  0  0
 15 20  1  0  0  0  0
 15 39  1  0  0  0  0
 16 17  1  0  0  0  0
 16 40  1  0  0  0  0
 16 41  1  0  0  0  0
 17 18  1  0  0  0  0
 17 19  2  0  0  0  0
 18 42  1  0  0  0  0
 18 43  1  0  0  0  0
 20 44  1  0  0  0  0
 20 45  1  0  0  0  0
 21 22  2  0  0  0  0
 21 46  1  0  0  0  0
 22 47  1  0  0  0  0
M  CHG  1  22   1
M  END
> <s_m_source_file>
AV-unprocessed.smi

> <i_m_source_file_index>
693

> <i_lp_mmshare_version>
43012

> <i_f3d_flags>
0

> <s_epik_input>
W0NIM11jMVtjSF1bY0hdYyhbY0hdbjEpW0NIMl1bQ0gyXVtOSF1DKD1PKU4yW0NIMl1bQ0gyXVtDSDJdW0NASF0oW0NIMl0yKVtDSDJdQyg9TylbTkgyXQ==

> <s_epik_cmdline>
J2VwaWtfcHl0aG9uJywgJy1waCcsICc3LjAnLCAnLXRuJywgJzgnLCAnLW1hJywgJzIwMCcsICctbWV0YWxfYmluZGluZycsICctaW1hZScsICc8aW5maWxlLm1hZT4nLCAnLW9tYWUnLCAnPG91dGZpbGUubWFlPic=

> <r_epik_Ionization_Penalty>
1.41666

> <r_epik_Ionization_Penalty_Charging>
1.4166

> <r_epik_Ionization_Penalty_Neutral>
5.77403e-05

> <r_epik_State_Penalty>
1.50002

> <r_epik_Charging_Adjusted_Penalty>
2.91662

> <i_epik_Tot_Q>
1

> <i_epik_Tot_abs_Q>
1

> <r_epik_Metal_State_Penalty>
1.55252

> <b_epik_Metal_Only>
0

> <s_lp_Force_Field>
OPLS_2005

> <r_lp_Energy>
32.8

> <b_lp_Chiralities_Consistent>
1

> <s_lp_Variant>
AV-unprocessed.smi:693-4

> <Gold.Version>
5.8.1

> <Gold.Id.Protein>
6NUR|6NUR_protein|mol2

> <Gold.PLP.Fitness>
50.6623

> <Gold.PLP.PLP>
-40.1384

> <Gold.PLP.part.hbond>
-4.0000

> <Gold.PLP.part.metal>
0.0000

> <Gold.PLP.part.buried>
-0.0270

> <Gold.PLP.part.nonpolar>
-36.1436

> <Gold.PLP.part.repulsive>
0.3876

> <Gold.PLP.ligand.clash>
0.0000

> <Gold.PLP.ligand.torsion>
0.6393

> <Gold.PLP.Chemscore.Hbond>
3.8960

> <Gold.PLP.Chemscore.CHOScore>
0.0000

> <Gold.PLP.Chemscore.Metal>
0.0000

> <Gold.Chemscore.Hbonds>
donor molecule, donor type, donor heavy atom, donor atom, acceptor molecule, acceptor atom, score
      L1  H    22    47       P1  8028  1.22
      P1  H 10752 10764       L1    10  0.83

> <Gold.PLP.Chemscore.Internal.Correction>
0.1145

> <Gold.Rescore>
     Score         DG    S(hbond)    S(metal)    S(lipo)     H(rot)  DE(clash)    DE(int)     intcor
     17.85     -18.76       2.78        0.00      85.15       2.34       0.15       0.75       ----

> <Gold.Chemscore.Fitness>
17.8528

> <Gold.Chemscore.DG>
-18.7595

> <Gold.Chemscore.ZeroCoef>
-5.4800

> <Gold.Chemscore.Hbond>
2.7831

> <Gold.Chemscore.Metal>
0.0000

> <Gold.Chemscore.Lipo>
85.1492

> <Gold.Chemscore.Internal_Hbond>
0.0000

> <Gold.Chemscore.DEClash>
0.1524

> <Gold.Chemscore.DEInternal>
0.7542

> <Gold.Chemscore.Rot>
2.3354

> <Gold.Chemscore.Internal.Correction>
   9.000000E+99

> <Gold.Chemscore.Hbonds>
donor molecule, donor type, donor heavy atom, donor atom, acceptor molecule, acceptor atom, score
      L1  H    22    47       P1  8028  0.51
      P1  H 10752 10764       L1    10  0.81

> <Gold.Chemscore.Hbond.Weighted>
-9.2955

> <Gold.Chemscore.Metal.Weighted>
-0.0000

> <Gold.Chemscore.Lipo.Weighted>
-9.9625

> <Gold.Chemscore.Internal_Hbond.Weighted>
0.0000

> <Gold.Chemscore.DEClash.Weighted>
0.1524

> <Gold.Chemscore.DEInternal.Weighted>
0.7542

> <Gold.Chemscore.Rot.Weighted>
5.9785

> <Gold.Chemscore.Internal.Correction.Weighted>
   9.000000E+99

> <Gold.Protein.RotatedTorsions>
[ 6907 6896 6895 6894 ] final  114.24 input  -60.11 | X-H torsion
[ 7974 7965 7964 7962 ] final  -60.84 input  175.53 | X-H torsion
[ 8008 7997 7996 7995 ] final -147.50 input   59.86 | X-H torsion
[ 10167 10162 10161 10158 ] final  -28.16 input  -65.29 | X-H torsion
[ 10718 10713 10712 10709 ] final  -20.83 input   66.30 | X-H torsion
[ 10763 10752 10751 10750 ] final  -38.01 input  -60.55 | X-H torsion
[ 11005 11000 10999 10996 ] final  -47.68 input  -57.11 | X-H torsion

> <Gold.Protein.ActiveResidues>
 VAL166  LYS551  ARG553  GLY616  TRP617  ASP618  TYR619  PRO620  LYS621  CYS622 
 ASP623  PHE694  ASN695  SER759  ASP760  ASP761  ALA762  ILE779  LEU786  VAL792 
 PHE793  MET794  SER795  GLU796  ALA797  LYS798  CYS799  TRP800  GLU811  SER814 

> <Gold.Protein.RotatedAtoms>
  152.4814  133.8264  159.7080 H   0  0  0  0  0  0  0  0  0  0  0  0  # atno 6907 bound_to 6896
  150.8867  133.7289  159.2923 H   0  0  0  0  0  0  0  0  0  0  0  0  # atno 6908 bound_to 6896
  151.4775  135.1053  159.9821 H   0  0  0  0  0  0  0  0  0  0  0  0  # atno 6909 bound_to 6896
  145.8106  140.8601  143.0184 H   0  0  0  0  0  0  0  0  0  0  0  0  # atno 7974 bound_to 7965
  155.5766  140.0639  157.2793 H   0  0  0  0  0  0  0  0  0  0  0  0  # atno 8008 bound_to 7997
  154.4345  140.1859  156.0979 H   0  0  0  0  0  0  0  0  0  0  0  0  # atno 8009 bound_to 7997
  156.0337  140.3303  155.7171 H   0  0  0  0  0  0  0  0  0  0  0  0  # atno 8010 bound_to 7997
  140.7272  143.4033  151.1228 H   0  0  0  0  0  0  0  0  0  0  0  0  # atno 10167 bound_to 10162
  156.5265  130.4645  149.6569 H   0  0  0  0  0  0  0  0  0  0  0  0  # atno 10718 bound_to 10713
  153.9058  135.6797  153.4753 H   0  0  0  0  0  0  0  0  0  0  0  0  # atno 10763 bound_to 10752
  153.1105  135.4785  154.9024 H   0  0  0  0  0  0  0  0  0  0  0  0  # atno 10764 bound_to 10752
  154.7552  135.3195  154.8438 H   0  0  0  0  0  0  0  0  0  0  0  0  # atno 10765 bound_to 10752
  141.0655  133.6695  156.3333 H   0  0  0  0  0  0  0  0  0  0  0  0  # atno 11005 bound_to 11000
  144.6758  140.0391  143.7481 LP  0  0  0  0  0  0  0  0  0  0  0  0  # atno 17320 bound_to 7965
  145.9781  139.2920  143.1058 LP  0  0  0  0  0  0  0  0  0  0  0  0  # atno 17321 bound_to 7965
  139.7656  143.8570  152.3110 LP  0  0  0  0  0  0  0  0  0  0  0  0  # atno 17342 bound_to 10162
  139.8471  144.7182  150.9259 LP  0  0  0  0  0  0  0  0  0  0  0  0  # atno 17343 bound_to 10162
  156.3100  130.7224  151.2114 LP  0  0  0  0  0  0  0  0  0  0  0  0  # atno 17370 bound_to 10713
  157.7428  131.0484  150.4992 LP  0  0  0  0  0  0  0  0  0  0  0  0  # atno 17371 bound_to 10713
  140.5781  134.5773  157.5473 LP  0  0  0  0  0  0  0  0  0  0  0  0  # atno 17394 bound_to 11000
  139.9473  134.7680  156.0532 LP  0  0  0  0  0  0  0  0  0  0  0  0  # atno 17395 bound_to 11000

$$$$
