AV-unprocessed.smi:867|AV-procd|sdf|3995|dock8
  -GOLD-   22720 1473D 1   1.00000     0.00000
 Structure written by MMmdl.
 53 56  0  0  0  0  0  0  0  0  2 V2000
  148.2066  141.1762  155.4629 O   0  0  0  0  0  0  0  0  0  0  0  0
  149.2360  140.5046  155.3861 C   0  0  0  0  0  0  0  0  0  0  0  0
  150.3390  140.7980  156.0953 N   0  0  0  0  0  0  0  0  0  0  0  0
  150.4608  141.8985  157.0440 C   0  0  0  0  0  0  0  0  0  0  0  0
  151.8322  141.8950  157.7374 C   0  0  0  0  0  0  0  0  0  0  0  0
  151.9128  142.9286  158.8431 C   0  0  0  0  0  0  0  0  0  0  0  0
  151.6413  144.2876  158.5838 C   0  0  0  0  0  0  0  0  0  0  0  0
  151.7334  145.2117  159.6424 C   0  0  0  0  0  0  0  0  0  0  0  0
  152.0949  144.7358  160.9187 C   0  0  0  0  0  0  0  0  0  0  0  0
  152.3589  143.4370  161.1782 N   0  0  0  0  0  0  0  0  0  0  0  0
  152.2679  142.5574  160.1574 C   0  0  0  0  0  0  0  0  0  0  0  0
  149.3781  139.4636  154.5288 N   0  0  0  0  0  0  0  0  0  0  0  0
  150.6071  138.6927  154.3057 C   0  0  0  0  0  0  0  0  0  0  0  0
  150.4810  137.3150  154.9862 C   0  0  0  0  0  0  0  0  0  0  0  0
  149.2608  136.5765  154.5449 N   0  3  0  0  0  0  0  0  0  0  0  0
  149.0608  135.2502  155.2071 C   0  0  1  0  0  0  0  0  0  0  0  0
  147.8157  134.5110  154.6474 C   0  0  0  0  0  0  0  0  0  0  0  0
  148.3657  133.1399  154.2213 C   0  0  2  0  0  0  0  0  0  0  0  0
  148.7373  132.3237  155.4698 C   0  0  0  0  0  0  0  0  0  0  0  0
  150.0016  133.0422  155.9712 C   0  0  0  0  0  0  0  0  0  0  0  0
  150.1737  134.1922  154.9580 C   0  0  1  0  0  0  0  0  0  0  0  0
  149.7303  133.5209  153.6631 C   0  0  0  0  0  0  0  0  0  0  0  0
  148.0356  137.4250  154.6328 C   0  0  0  0  0  0  0  0  0  0  0  0
  148.2271  138.7817  153.9360 C   0  0  0  0  0  0  0  0  0  0  0  0
  151.1580  140.2242  155.9579 H   0  0  0  0  0  0  0  0  0  0  0  0
  150.3234  142.8318  156.4969 H   0  0  0  0  0  0  0  0  0  0  0  0
  149.6576  141.8506  157.7815 H   0  0  0  0  0  0  0  0  0  0  0  0
  152.0417  140.9111  158.1594 H   0  0  0  0  0  0  0  0  0  0  0  0
  152.6204  142.0919  157.0093 H   0  0  0  0  0  0  0  0  0  0  0  0
  151.3693  144.6179  157.5919 H   0  0  0  0  0  0  0  0  0  0  0  0
  151.5332  146.2602  159.4803 H   0  0  0  0  0  0  0  0  0  0  0  0
  152.1753  145.4171  161.7528 H   0  0  0  0  0  0  0  0  0  0  0  0
  152.4880  141.5274  160.3967 H   0  0  0  0  0  0  0  0  0  0  0  0
  150.7525  138.5637  153.2320 H   0  0  0  0  0  0  0  0  0  0  0  0
  151.5092  139.1898  154.6624 H   0  0  0  0  0  0  0  0  0  0  0  0
  151.3804  136.7553  154.7388 H   0  0  0  0  0  0  0  0  0  0  0  0
  150.4595  137.4347  156.0706 H   0  0  0  0  0  0  0  0  0  0  0  0
  148.9575  135.4233  156.2798 H   0  0  0  0  0  0  0  0  0  0  0  0
  147.0164  134.4275  155.3848 H   0  0  0  0  0  0  0  0  0  0  0  0
  147.4039  135.0119  153.7702 H   0  0  0  0  0  0  0  0  0  0  0  0
  147.7168  132.6052  153.5269 H   0  0  0  0  0  0  0  0  0  0  0  0
  147.9381  132.3161  156.2120 H   0  0  0  0  0  0  0  0  0  0  0  0
  148.9620  131.2892  155.2073 H   0  0  0  0  0  0  0  0  0  0  0  0
  149.8998  133.3994  156.9967 H   0  0  0  0  0  0  0  0  0  0  0  0
  150.8588  132.3683  155.9397 H   0  0  0  0  0  0  0  0  0  0  0  0
  151.1980  134.5574  154.9585 H   0  0  0  0  0  0  0  0  0  0  0  0
  150.3413  132.6585  153.3901 H   0  0  0  0  0  0  0  0  0  0  0  0
  149.6781  134.2061  152.8152 H   0  0  0  0  0  0  0  0  0  0  0  0
  147.1809  136.9191  154.1848 H   0  0  0  0  0  0  0  0  0  0  0  0
  147.7845  137.5876  155.6824 H   0  0  0  0  0  0  0  0  0  0  0  0
  147.3112  139.3713  154.0037 H   0  0  0  0  0  0  0  0  0  0  0  0
  148.4037  138.6347  152.8695 H   0  0  0  0  0  0  0  0  0  0  0  0
  149.4008  136.3840  153.5634 H   0  0  0  0  0  0  0  0  0  0  0  0
  1  2  2  0  0  0  0
  2  3  1  0  0  0  0
  2 12  1  0  0  0  0
  3  4  1  0  0  0  0
  3 25  1  0  0  0  0
  4  5  1  0  0  0  0
  4 26  1  0  0  0  0
  4 27  1  0  0  0  0
  5  6  1  0  0  0  0
  5 28  1  0  0  0  0
  5 29  1  0  0  0  0
  6 11  1  0  0  0  0
  6  7  2  0  0  0  0
  7  8  1  0  0  0  0
  7 30  1  0  0  0  0
  8  9  2  0  0  0  0
  8 31  1  0  0  0  0
  9 10  1  0  0  0  0
  9 32  1  0  0  0  0
 10 11  2  0  0  0  0
 11 33  1  0  0  0  0
 12 24  1  0  0  0  0
 12 13  1  0  0  0  0
 13 14  1  0  0  0  0
 13 34  1  0  0  0  0
 13 35  1  0  0  0  0
 14 15  1  0  0  0  0
 14 36  1  0  0  0  0
 14 37  1  0  0  0  0
 15 16  1  0  0  0  0
 15 23  1  0  0  0  0
 15 53  1  0  0  0  0
 16 21  1  0  0  0  0
 16 17  1  0  0  0  0
 16 38  1  0  0  0  0
 17 18  1  0  0  0  0
 17 39  1  0  0  0  0
 17 40  1  0  0  0  0
 18 22  1  0  0  0  0
 18 19  1  0  0  0  0
 18 41  1  0  0  0  0
 19 20  1  0  0  0  0
 19 42  1  0  0  0  0
 19 43  1  0  0  0  0
 20 21  1  0  0  0  0
 20 44  1  0  0  0  0
 20 45  1  0  0  0  0
 21 22  1  0  0  0  0
 21 46  1  0  0  0  0
 22 47  1  0  0  0  0
 22 48  1  0  0  0  0
 23 24  1  0  0  0  0
 23 49  1  0  0  0  0
 23 50  1  0  0  0  0
 24 51  1  0  0  0  0
 24 52  1  0  0  0  0
M  CHG  1  15   1
M  END
> <s_m_source_file>
AV-unprocessed.smi

> <i_m_source_file_index>
867

> <i_lp_mmshare_version>
43012

> <i_f3d_flags>
0

> <s_epik_input>
W0NIMl0xW0NIMl1bQ0BASF0oW0NIMl0yKVtDQEBIXShbQ0gyXVtDQEhdMTIpTihbQ0gyXVtDSDJdMylbQ0gyXVtDSDJdTjNDKD1PKVtOSF1bQ0gyXVtDSDJdYzRbY0hdW2NIXVtjSF1uW2NIXTQ=

> <s_epik_cmdline>
J2VwaWtfcHl0aG9uJywgJy1waCcsICc3LjAnLCAnLXRuJywgJzgnLCAnLW1hJywgJzIwMCcsICctbWV0YWxfYmluZGluZycsICctaW1hZScsICc8aW5maWxlLm1hZT4nLCAnLW9tYWUnLCAnPG91dGZpbGUubWFlPic=

> <r_epik_Ionization_Penalty>
0.0161279

> <r_epik_Ionization_Penalty_Charging>
0.00262064

> <r_epik_Ionization_Penalty_Neutral>
0.0135072

> <r_epik_State_Penalty>
0.0104914

> <r_epik_Charging_Adjusted_Penalty>
0.013112

> <i_epik_Tot_Q>
1

> <i_epik_Tot_abs_Q>
1

> <r_epik_Metal_State_Penalty>
0.0102536

> <b_epik_Metal_Only>
0

> <s_lp_Force_Field>
OPLS_2005

> <r_lp_Energy>
96.0256

> <b_lp_Chiralities_Consistent>
1

> <s_lp_Variant>
AV-unprocessed.smi:867-2

> <Gold.Version>
5.8.1

> <Gold.Id.Protein>
6NUR|6NUR_protein|mol2

> <Gold.PLP.Fitness>
49.6621

> <Gold.PLP.PLP>
-43.8250

> <Gold.PLP.part.hbond>
-1.0000

> <Gold.PLP.part.metal>
0.0000

> <Gold.PLP.part.buried>
-5.4564

> <Gold.PLP.part.nonpolar>
-37.6495

> <Gold.PLP.part.repulsive>
0.3050

> <Gold.PLP.ligand.clash>
0.0000

> <Gold.PLP.ligand.torsion>
0.1519

> <Gold.PLP.Chemscore.Hbond>
2.0000

> <Gold.PLP.Chemscore.CHOScore>
0.0000

> <Gold.PLP.Chemscore.Metal>
0.0000

> <Gold.Chemscore.Hbonds>
donor molecule, donor type, donor heavy atom, donor atom, acceptor molecule, acceptor atom, score
      L1  H    15    53       P1  7948  2.00

> <Gold.PLP.Chemscore.Internal.Correction>
0.1409

> <Gold.Rescore>
     Score         DG    S(hbond)    S(metal)    S(lipo)     H(rot)  DE(clash)    DE(int)     intcor
     19.25     -19.51       1.00        0.00     121.50       1.37       0.01       0.24       ----

> <Gold.Chemscore.Fitness>
19.2452

> <Gold.Chemscore.DG>
-19.5050

> <Gold.Chemscore.ZeroCoef>
-5.4800

> <Gold.Chemscore.Hbond>
0.9955

> <Gold.Chemscore.Metal>
0.0000

> <Gold.Chemscore.Lipo>
121.4973

> <Gold.Chemscore.Internal_Hbond>
0.0000

> <Gold.Chemscore.DEClash>
0.0149

> <Gold.Chemscore.DEInternal>
0.2450

> <Gold.Chemscore.Rot>
1.3731

> <Gold.Chemscore.Internal.Correction>
   9.000000E+99

> <Gold.Chemscore.Hbonds>
donor molecule, donor type, donor heavy atom, donor atom, acceptor molecule, acceptor atom, score
      L1  H    15    53       P1  7948  0.78

> <Gold.Chemscore.Hbond.Weighted>
-3.3250

> <Gold.Chemscore.Metal.Weighted>
-0.0000

> <Gold.Chemscore.Lipo.Weighted>
-14.2152

> <Gold.Chemscore.Internal_Hbond.Weighted>
0.0000

> <Gold.Chemscore.DEClash.Weighted>
0.0149

> <Gold.Chemscore.DEInternal.Weighted>
0.2450

> <Gold.Chemscore.Rot.Weighted>
3.5152

> <Gold.Chemscore.Internal.Correction.Weighted>
   9.000000E+99

> <Gold.Protein.RotatedTorsions>
[ 6907 6896 6895 6894 ] final  102.61 input  -60.11 | X-H torsion
[ 7974 7965 7964 7962 ] final  172.90 input  175.53 | X-H torsion
[ 8008 7997 7996 7995 ] final   83.52 input   59.86 | X-H torsion
[ 10167 10162 10161 10158 ] final   97.00 input  -65.29 | X-H torsion
[ 10718 10713 10712 10709 ] final  -76.63 input   66.30 | X-H torsion
[ 10763 10752 10751 10750 ] final   44.65 input  -60.55 | X-H torsion
[ 11005 11000 10999 10996 ] final -122.62 input  -57.11 | X-H torsion

> <Gold.Protein.ActiveResidues>
 VAL166  LYS551  ARG553  GLY616  TRP617  ASP618  TYR619  PRO620  LYS621  CYS622 
 ASP623  PHE694  ASN695  SER759  ASP760  ASP761  ALA762  ILE779  LEU786  VAL792 
 PHE793  MET794  SER795  GLU796  ALA797  LYS798  CYS799  TRP800  GLU811  SER814 

> <Gold.Protein.RotatedAtoms>
  152.5319  133.9949  159.7867 H   0  0  0  0  0  0  0  0  0  0  0  0  # atno 6907 bound_to 6896
  151.0178  133.5897  159.2682 H   0  0  0  0  0  0  0  0  0  0  0  0  # atno 6908 bound_to 6896
  151.2947  135.0759  159.9270 H   0  0  0  0  0  0  0  0  0  0  0  0  # atno 6909 bound_to 6896
  144.7256  139.9568  143.6433 H   0  0  0  0  0  0  0  0  0  0  0  0  # atno 7974 bound_to 7965
  155.9250  140.3418  155.6203 H   0  0  0  0  0  0  0  0  0  0  0  0  # atno 8008 bound_to 7997
  155.7227  140.0785  157.2342 H   0  0  0  0  0  0  0  0  0  0  0  0  # atno 8009 bound_to 7997
  154.4075  140.1602  156.2407 H   0  0  0  0  0  0  0  0  0  0  0  0  # atno 8010 bound_to 7997
  139.7842  144.6877  150.9981 H   0  0  0  0  0  0  0  0  0  0  0  0  # atno 10167 bound_to 10162
  156.0169  130.4470  150.3223 H   0  0  0  0  0  0  0  0  0  0  0  0  # atno 10718 bound_to 10713
  152.9837  135.6064  154.3309 H   0  0  0  0  0  0  0  0  0  0  0  0  # atno 10763 bound_to 10752
  154.3012  135.2773  155.2612 H   0  0  0  0  0  0  0  0  0  0  0  0  # atno 10764 bound_to 10752
  154.4863  135.5904  153.6482 H   0  0  0  0  0  0  0  0  0  0  0  0  # atno 10765 bound_to 10752
  140.9981  134.0442  157.3572 H   0  0  0  0  0  0  0  0  0  0  0  0  # atno 11005 bound_to 11000
  146.0669  139.3659  143.0547 LP  0  0  0  0  0  0  0  0  0  0  0  0  # atno 17320 bound_to 7965
  145.8019  140.9767  143.0994 LP  0  0  0  0  0  0  0  0  0  0  0  0  # atno 17321 bound_to 7965
  140.7819  143.4450  151.0495 LP  0  0  0  0  0  0  0  0  0  0  0  0  # atno 17342 bound_to 10162
  139.8130  143.7925  152.3172 LP  0  0  0  0  0  0  0  0  0  0  0  0  # atno 17343 bound_to 10162
  157.1323  131.0275  151.2964 LP  0  0  0  0  0  0  0  0  0  0  0  0  # atno 17370 bound_to 10713
  157.4540  130.7615  149.7177 LP  0  0  0  0  0  0  0  0  0  0  0  0  # atno 17371 bound_to 10713
  139.9025  135.0169  156.7335 LP  0  0  0  0  0  0  0  0  0  0  0  0  # atno 17394 bound_to 11000
  140.6933  133.9371  155.7979 LP  0  0  0  0  0  0  0  0  0  0  0  0  # atno 17395 bound_to 11000

$$$$
