AV-unprocessed.smi:1|AV-procd|sdf|19|dock5
  -GOLD-   2262015123D 1   1.00000     0.00000
 Structure written by MMmdl.
 56 61  0  0  0  0  0  0  0  0  2 V2000
  152.8686  139.7176  157.7636 O   0  0  0  0  0  0  0  0  0  0  0  0
  152.2081  140.7557  157.6859 C   0  0  0  0  0  0  0  0  0  0  0  0
  151.3096  141.1025  156.7297 N   0  5  0  0  0  0  0  0  0  0  0  0
  150.6455  140.1491  156.0589 C   0  0  0  0  0  0  0  0  0  0  0  0
  150.9348  139.8997  154.7558 N   0  0  0  0  0  0  0  0  0  0  0  0
  150.2761  138.9462  154.0860 C   0  0  0  0  0  0  0  0  0  0  0  0
  149.3087  138.1309  154.5179 N   0  0  0  0  0  0  0  0  0  0  0  0
  149.0178  138.3676  155.8299 C   0  0  0  0  0  0  0  0  0  0  0  0
  149.6383  139.3451  156.6596 C   0  0  0  0  0  0  0  0  0  0  0  0
  149.1056  139.3099  157.9404 N   0  0  0  0  0  0  0  0  0  0  0  0
  148.2048  138.3346  157.8316 C   0  0  0  0  0  0  0  0  0  0  0  0
  148.0904  137.7292  156.6315 N   0  0  0  0  0  0  0  0  0  0  0  0
  147.1860  136.6170  156.2161 C   0  0  2  0  0  0  0  0  0  0  0  0
  146.3191  136.3284  157.2671 O   0  0  0  0  0  0  0  0  0  0  0  0
  145.9164  134.9748  157.1311 C   0  0  2  0  0  0  0  0  0  0  0  0
  145.2493  134.4575  158.4124 C   0  0  0  0  0  0  0  0  0  0  0  0
  144.9801  133.0729  158.2597 O   0  0  0  0  0  0  0  0  0  0  0  0
  143.7423  132.5907  158.4814 C   0  0  0  0  0  0  0  0  0  0  0  0
  142.7734  133.2978  158.7650 O   0  0  0  0  0  0  0  0  0  0  0  0
  143.6710  131.1060  158.3588 C   0  0  0  0  0  0  0  0  0  0  0  0
  142.4189  130.4596  158.4809 C   0  0  0  0  0  0  0  0  0  0  0  0
  142.3223  129.0580  158.3793 C   0  0  0  0  0  0  0  0  0  0  0  0
  143.4762  128.2860  158.1515 C   0  0  0  0  0  0  0  0  0  0  0  0
  144.7272  128.9172  158.0248 C   0  0  0  0  0  0  0  0  0  0  0  0
  144.8263  130.3186  158.1280 C   0  0  0  0  0  0  0  0  0  0  0  0
  147.2170  134.2680  156.7386 C   0  0  2  0  0  0  0  0  0  0  0  0
  147.9821  133.9685  157.8944 O   0  0  0  0  0  0  0  0  0  0  0  0
  149.5439  134.5166  157.6806 S   0  0  0  0  0  0  0  0  0  0  0  0
  149.8501  135.4634  158.7634 O   0  0  0  0  0  0  0  0  0  0  0  0
  150.3982  133.3579  157.3784 O   0  0  0  0  0  0  0  0  0  0  0  0
  149.3224  135.3808  156.2694 O   0  0  0  0  0  0  0  0  0  0  0  0
  147.9550  135.3200  155.8934 C   0  0  2  0  0  0  0  0  0  0  0  0
  152.3192  141.7707  158.7917 C   0  0  0  0  0  0  0  0  0  0  0  0
  152.9067  141.4032  160.0240 C   0  0  0  0  0  0  0  0  0  0  0  0
  153.0399  142.3448  161.0632 C   0  0  0  0  0  0  0  0  0  0  0  0
  152.5962  143.6674  160.8775 C   0  0  0  0  0  0  0  0  0  0  0  0
  152.0232  144.0491  159.6499 C   0  0  0  0  0  0  0  0  0  0  0  0
  151.8892  143.1080  158.6103 C   0  0  0  0  0  0  0  0  0  0  0  0
  150.5677  138.8177  153.0544 H   0  0  0  0  0  0  0  0  0  0  0  0
  147.5990  138.0404  158.6761 H   0  0  0  0  0  0  0  0  0  0  0  0
  146.6293  137.0068  155.3624 H   0  0  0  0  0  0  0  0  0  0  0  0
  145.2083  134.9186  156.3018 H   0  0  0  0  0  0  0  0  0  0  0  0
  145.8975  134.6379  159.2713 H   0  0  0  0  0  0  0  0  0  0  0  0
  144.3141  134.9879  158.5940 H   0  0  0  0  0  0  0  0  0  0  0  0
  141.5193  131.0312  158.6590 H   0  0  0  0  0  0  0  0  0  0  0  0
  141.3611  128.5752  158.4778 H   0  0  0  0  0  0  0  0  0  0  0  0
  143.4022  127.2113  158.0747 H   0  0  0  0  0  0  0  0  0  0  0  0
  145.6137  128.3257  157.8491 H   0  0  0  0  0  0  0  0  0  0  0  0
  145.8020  130.7706  158.0266 H   0  0  0  0  0  0  0  0  0  0  0  0
  147.0348  133.3456  156.1866 H   0  0  0  0  0  0  0  0  0  0  0  0
  147.8660  135.1160  154.8260 H   0  0  0  0  0  0  0  0  0  0  0  0
  153.2534  140.3920  160.1822 H   0  0  0  0  0  0  0  0  0  0  0  0
  153.4842  142.0513  162.0028 H   0  0  0  0  0  0  0  0  0  0  0  0
  152.6989  144.3894  161.6738 H   0  0  0  0  0  0  0  0  0  0  0  0
  151.6875  145.0649  159.5036 H   0  0  0  0  0  0  0  0  0  0  0  0
  151.4554  143.4235  157.6723 H   0  0  0  0  0  0  0  0  0  0  0  0
  1  2  2  0  0  0  0
  2  3  1  0  0  0  0
  2 33  1  0  0  0  0
  3  4  1  0  0  0  0
  4  9  1  0  0  0  0
  4  5  2  0  0  0  0
  5  6  1  0  0  0  0
  6  7  2  0  0  0  0
  6 39  1  0  0  0  0
  7  8  1  0  0  0  0
  8 12  1  0  0  0  0
  8  9  2  0  0  0  0
  9 10  1  0  0  0  0
 10 11  2  0  0  0  0
 11 12  1  0  0  0  0
 11 40  1  0  0  0  0
 12 13  1  0  0  0  0
 13 32  1  0  0  0  0
 13 14  1  0  0  0  0
 13 41  1  0  0  0  0
 14 15  1  0  0  0  0
 15 16  1  0  0  0  0
 15 26  1  0  0  0  0
 15 42  1  0  0  0  0
 16 17  1  0  0  0  0
 16 43  1  0  0  0  0
 16 44  1  0  0  0  0
 17 18  1  0  0  0  0
 18 19  2  0  0  0  0
 18 20  1  0  0  0  0
 20 25  1  0  0  0  0
 20 21  2  0  0  0  0
 21 22  1  0  0  0  0
 21 45  1  0  0  0  0
 22 23  2  0  0  0  0
 22 46  1  0  0  0  0
 23 24  1  0  0  0  0
 23 47  1  0  0  0  0
 24 25  2  0  0  0  0
 24 48  1  0  0  0  0
 25 49  1  0  0  0  0
 26 32  1  0  0  0  0
 26 27  1  0  0  0  0
 26 50  1  0  0  0  0
 27 28  1  0  0  0  0
 28 29  2  0  0  0  0
 28 30  2  0  0  0  0
 28 31  1  0  0  0  0
 31 32  1  0  0  0  0
 32 51  1  0  0  0  0
 33 38  1  0  0  0  0
 33 34  2  0  0  0  0
 34 35  1  0  0  0  0
 34 52  1  0  0  0  0
 35 36  2  0  0  0  0
 35 53  1  0  0  0  0
 36 37  1  0  0  0  0
 36 54  1  0  0  0  0
 37 38  2  0  0  0  0
 37 55  1  0  0  0  0
 38 56  1  0  0  0  0
M  CHG  1   3  -1
M  END
> <s_m_source_file>
AV-unprocessed.smi

> <i_m_source_file_index>
1

> <i_lp_mmshare_version>
43012

> <i_f3d_flags>
0

> <s_epik_input>
W2NIXTFbY0hdW2NIXVtjSF1bY0hdYzFDKD1PKVtOSF1jKG5bY0hdbjIpYyhjMjMpbltjSF1uM1tDQEBIXShbQ0BIXShbQ0BIXTQ1KU9TKE81KSg9Tyk9TylPW0NASF00W0NIMl1PQyg9TyljNltjSF1bY0hdW2NIXVtjSF1bY0hdNg==

> <s_epik_cmdline>
J2VwaWtfcHl0aG9uJywgJy1waCcsICc3LjAnLCAnLXRuJywgJzgnLCAnLW1hJywgJzIwMCcsICctbWV0YWxfYmluZGluZycsICctaW1hZScsICc8aW5maWxlLm1hZT4nLCAnLW9tYWUnLCAnPG91dGZpbGUubWFlPic=

> <r_lp_tautomer_probability>
1

> <r_epik_Ionization_Penalty>
4.39121

> <r_epik_Ionization_Penalty_Charging>
3.39398

> <r_epik_Ionization_Penalty_Neutral>
0.997232

> <r_epik_State_Penalty>
3.39839

> <r_epik_Charging_Adjusted_Penalty>
6.79237

> <i_epik_Tot_Q>
-1

> <i_epik_Tot_abs_Q>
1

> <r_epik_Metal_State_Penalty>
0.497663

> <b_epik_Metal_Only>
1

> <s_epik_Chemistry_Notes>
This compound has an ester and may undergo hydrolysis at high or low pH. This compound contains an acetal/aminal-like group ( X-CH(R)-Y where X, Y are N, S, or O) that may be acid/base labile, releasing an aldehyde.

> <s_lp_Force_Field>
OPLS_2005

> <r_lp_Energy>
44.2661

> <b_lp_Chiralities_Consistent>
1

> <s_lp_Variant>
AV-unprocessed.smi:1-19

> <Gold.Version>
5.8.1

> <Gold.Id.Protein>
6NUR|6NUR_protein|mol2

> <Gold.PLP.Fitness>
58.4692

> <Gold.PLP.PLP>
-44.8974

> <Gold.PLP.part.hbond>
-5.0000

> <Gold.PLP.part.metal>
0.0000

> <Gold.PLP.part.buried>
-7.3477

> <Gold.PLP.part.nonpolar>
-33.3365

> <Gold.PLP.part.repulsive>
0.3871

> <Gold.PLP.ligand.clash>
0.0000

> <Gold.PLP.ligand.torsion>
1.4517

> <Gold.PLP.Chemscore.Hbond>
4.4480

> <Gold.PLP.Chemscore.CHOScore>
0.8610

> <Gold.PLP.Chemscore.Metal>
0.0000

> <Gold.Chemscore.Hbonds>
donor molecule, donor type, donor heavy atom, donor atom, acceptor molecule, acceptor atom, score
      P1  H  6896  6908       L1    30  0.46
      P1  H  6896  6909       L1    29  0.66
      P1  H  7989  7998       L1     5  1.00
      P1  H  7997  8010       L1     1  1.00
      L1  C     6    39       P1  7957  0.92

> <Gold.PLP.Chemscore.Internal.Correction>
0.5483

> <Gold.Rescore>
     Score         DG    S(hbond)    S(metal)    S(lipo)     H(rot)  DE(clash)    DE(int)     intcor
     20.27     -22.40       3.41        0.00      93.53       2.11       0.55       1.59       ----

> <Gold.Chemscore.Fitness>
20.2660

> <Gold.Chemscore.DG>
-22.4002

> <Gold.Chemscore.ZeroCoef>
-5.4800

> <Gold.Chemscore.Hbond>
3.4094

> <Gold.Chemscore.Metal>
0.0000

> <Gold.Chemscore.Lipo>
93.5342

> <Gold.Chemscore.Internal_Hbond>
0.0000

> <Gold.Chemscore.DEClash>
0.5480

> <Gold.Chemscore.DEInternal>
1.5863

> <Gold.Chemscore.Rot>
2.1136

> <Gold.Chemscore.Internal.Correction>
   9.000000E+99

> <Gold.Chemscore.Hbonds>
donor molecule, donor type, donor heavy atom, donor atom, acceptor molecule, acceptor atom, score
      P1  H  6896  6908       L1    30  0.03
      P1  H  6896  6909       L1    29  0.59
      P1  H  7989  7998       L1     5  0.40
      P1  H  7997  8010       L1     1  0.60
      P1  H 11000 11005       L1    19  0.03

> <Gold.Chemscore.Hbond.Weighted>
-11.3875

> <Gold.Chemscore.Metal.Weighted>
-0.0000

> <Gold.Chemscore.Lipo.Weighted>
-10.9435

> <Gold.Chemscore.Internal_Hbond.Weighted>
0.0000

> <Gold.Chemscore.DEClash.Weighted>
0.5480

> <Gold.Chemscore.DEInternal.Weighted>
1.5863

> <Gold.Chemscore.Rot.Weighted>
5.4107

> <Gold.Chemscore.Internal.Correction.Weighted>
   9.000000E+99

> <Gold.Protein.RotatedTorsions>
[ 6907 6896 6895 6894 ] final   86.33 input  -60.11 | X-H torsion
[ 7974 7965 7964 7962 ] final   25.18 input  175.53 | X-H torsion
[ 8008 7997 7996 7995 ] final   41.22 input   59.86 | X-H torsion
[ 10167 10162 10161 10158 ] final  -49.71 input  -65.29 | X-H torsion
[ 10718 10713 10712 10709 ] final   59.13 input   66.30 | X-H torsion
[ 10763 10752 10751 10750 ] final   28.02 input  -60.55 | X-H torsion
[ 11005 11000 10999 10996 ] final -142.90 input  -57.11 | X-H torsion

> <Gold.Protein.ActiveResidues>
 VAL166  LYS551  ARG553  GLY616  TRP617  ASP618  TYR619  PRO620  LYS621  CYS622 
 ASP623  PHE694  ASN695  SER759  ASP760  ASP761  ALA762  ILE779  LEU786  VAL792 
 PHE793  MET794  SER795  GLU796  ALA797  LYS798  CYS799  TRP800  GLU811  SER814 

> <Gold.Protein.RotatedAtoms>
  152.5392  134.2448  159.8875 H   0  0  0  0  0  0  0  0  0  0  0  0  # atno 6907 bound_to 6896
  151.2414  133.4391  159.2615 H   0  0  0  0  0  0  0  0  0  0  0  0  # atno 6908 bound_to 6896
  151.0623  134.9758  159.8323 H   0  0  0  0  0  0  0  0  0  0  0  0  # atno 6909 bound_to 6896
  146.1901  139.7501  142.8838 H   0  0  0  0  0  0  0  0  0  0  0  0  # atno 7974 bound_to 7965
  155.2660  140.3362  155.4269 H   0  0  0  0  0  0  0  0  0  0  0  0  # atno 8008 bound_to 7997
  156.2153  140.1786  156.7644 H   0  0  0  0  0  0  0  0  0  0  0  0  # atno 8009 bound_to 7997
  154.5745  140.0664  156.8998 H   0  0  0  0  0  0  0  0  0  0  0  0  # atno 8010 bound_to 7997
  140.6672  143.2686  151.4255 H   0  0  0  0  0  0  0  0  0  0  0  0  # atno 10167 bound_to 10162
  157.5651  130.8865  149.9175 H   0  0  0  0  0  0  0  0  0  0  0  0  # atno 10718 bound_to 10713
  153.0518  135.6523  154.0675 H   0  0  0  0  0  0  0  0  0  0  0  0  # atno 10763 bound_to 10752
  154.0361  135.2907  155.3363 H   0  0  0  0  0  0  0  0  0  0  0  0  # atno 10764 bound_to 10752
  154.6811  135.5319  153.8331 H   0  0  0  0  0  0  0  0  0  0  0  0  # atno 10765 bound_to 10752
  140.8179  134.2666  157.4913 H   0  0  0  0  0  0  0  0  0  0  0  0  # atno 11005 bound_to 11000
  145.3818  141.0359  143.3173 LP  0  0  0  0  0  0  0  0  0  0  0  0  # atno 17320 bound_to 7965
  144.8471  139.5380  143.6874 LP  0  0  0  0  0  0  0  0  0  0  0  0  # atno 17321 bound_to 7965
  139.5925  144.1468  152.2105 LP  0  0  0  0  0  0  0  0  0  0  0  0  # atno 17342 bound_to 10162
  140.0827  144.5687  150.7111 LP  0  0  0  0  0  0  0  0  0  0  0  0  # atno 17343 bound_to 10162
  156.0700  130.3686  150.0795 LP  0  0  0  0  0  0  0  0  0  0  0  0  # atno 17370 bound_to 10713
  156.8955  130.9603  151.3583 LP  0  0  0  0  0  0  0  0  0  0  0  0  # atno 17371 bound_to 10713
  139.8710  134.9519  156.4099 LP  0  0  0  0  0  0  0  0  0  0  0  0  # atno 17394 bound_to 11000
  140.9130  133.7699  155.9814 LP  0  0  0  0  0  0  0  0  0  0  0  0  # atno 17395 bound_to 11000

$$$$
