AV-unprocessed.smi:72|AV-procd|sdf|697|dock4
  -GOLD-   2262017 13D 1   1.00000     0.00000
 Structure written by MMmdl.
 30 31  0  0  0  0  0  0  0  0  2 V2000
  147.7265  143.4747  158.2592 N   0  0  0  0  0  0  0  0  0  0  0  0
  148.1478  142.2711  157.7335 C   0  0  0  0  0  0  0  0  0  0  0  0
  148.7241  142.2852  156.4765 N   0  3  0  0  0  0  0  0  0  0  0  0
  149.1742  141.2066  155.8211 C   0  0  0  0  0  0  0  0  0  0  0  0
  149.0555  140.0187  156.3836 N   0  0  0  0  0  0  0  0  0  0  0  0
  149.5482  138.7589  155.7090 C   0  0  2  0  0  0  0  0  0  0  0  0
  150.6144  138.2582  156.4542 O   0  0  0  0  0  0  0  0  0  0  0  0
  151.8370  138.7458  155.9115 C   0  0  1  0  0  0  0  0  0  0  0  0
  153.0428  137.9567  156.4491 C   0  0  0  0  0  0  0  0  0  0  0  0
  154.1730  138.2069  155.6406 O   0  0  0  0  0  0  0  0  0  0  0  0
  151.5722  138.6253  154.4077 C   0  0  1  0  0  0  0  0  0  0  0  0
  151.7779  137.2902  153.9756 O   0  0  0  0  0  0  0  0  0  0  0  0
  150.1103  139.0628  154.3010 C   0  0  1  0  0  0  0  0  0  0  0  0
  149.4150  138.3987  153.2622 O   0  0  0  0  0  0  0  0  0  0  0  0
  148.5174  139.9114  157.6925 C   0  0  0  0  0  0  0  0  0  0  0  0
  148.4525  138.8163  158.2499 O   0  0  0  0  0  0  0  0  0  0  0  0
  148.0710  141.0964  158.2947 N   0  0  0  0  0  0  0  0  0  0  0  0
  148.7049  138.0663  155.7327 H   0  0  0  0  0  0  0  0  0  0  0  0
  151.9482  139.8050  156.1526 H   0  0  0  0  0  0  0  0  0  0  0  0
  152.2287  139.2747  153.8277 H   0  0  0  0  0  0  0  0  0  0  0  0
  150.0747  140.1376  154.1162 H   0  0  0  0  0  0  0  0  0  0  0  0
  147.2995  143.5606  159.1707 H   0  0  0  0  0  0  0  0  0  0  0  0
  147.8079  144.3602  157.7803 H   0  0  0  0  0  0  0  0  0  0  0  0
  149.6304  141.3444  154.8496 H   0  0  0  0  0  0  0  0  0  0  0  0
  153.2570  138.2103  157.4878 H   0  0  0  0  0  0  0  0  0  0  0  0
  152.8401  136.8861  156.4087 H   0  0  0  0  0  0  0  0  0  0  0  0
  154.9065  137.7273  155.9949 H   0  0  0  0  0  0  0  0  0  0  0  0
  151.6208  137.2524  153.0441 H   0  0  0  0  0  0  0  0  0  0  0  0
  149.5036  138.9040  152.4680 H   0  0  0  0  0  0  0  0  0  0  0  0
  148.8157  143.1820  156.0208 H   0  0  0  0  0  0  0  0  0  0  0  0
  1  2  1  0  0  0  0
  1 22  1  0  0  0  0
  1 23  1  0  0  0  0
  2 17  2  0  0  0  0
  2  3  1  0  0  0  0
  3  4  2  0  0  0  0
  3 30  1  0  0  0  0
  4  5  1  0  0  0  0
  4 24  1  0  0  0  0
  5  6  1  0  0  0  0
  5 15  1  0  0  0  0
  6 18  1  0  0  0  0
  6 13  1  0  0  0  0
  6  7  1  0  0  0  0
  7  8  1  0  0  0  0
  8 19  1  0  0  0  0
  8  9  1  0  0  0  0
  8 11  1  0  0  0  0
  9 10  1  0  0  0  0
  9 25  1  0  0  0  0
  9 26  1  0  0  0  0
 10 27  1  0  0  0  0
 11 20  1  0  0  0  0
 11 12  1  0  0  0  0
 11 13  1  0  0  0  0
 12 28  1  0  0  0  0
 13 21  1  0  0  0  0
 13 14  1  0  0  0  0
 14 29  1  0  0  0  0
 15 16  2  0  0  0  0
 15 17  1  0  0  0  0
M  CHG  1   3   1
M  END
> <s_m_source_file>
AV-unprocessed.smi

> <i_m_source_file_index>
72

> <i_lp_mmshare_version>
43012

> <i_f3d_flags>
0

> <s_epik_input>
W05IMl1jMW5bY0hdbihjKD1PKW4xKVtDQEBIXTJPW0NASF0oW0NIMl1bT0hdKVtDQEBIXShbT0hdKVtDQEhdMltPSF0=

> <s_epik_cmdline>
J2VwaWtfcHl0aG9uJywgJy1waCcsICc3LjAnLCAnLXRuJywgJzgnLCAnLW1hJywgJzIwMCcsICctbWV0YWxfYmluZGluZycsICctaW1hZScsICc8aW5maWxlLm1hZT4nLCAnLW9tYWUnLCAnPG91dGZpbGUubWFlPic=

> <r_lp_tautomer_probability>
4.77166e-05

> <r_epik_Ionization_Penalty>
0.104979

> <r_epik_Ionization_Penalty_Charging>
0.0999619

> <r_epik_Ionization_Penalty_Neutral>
0.00501745

> <r_epik_State_Penalty>
2.51541

> <r_epik_Charging_Adjusted_Penalty>
2.61537

> <i_epik_Tot_Q>
1

> <i_epik_Tot_abs_Q>
1

> <r_epik_Metal_State_Penalty>
3.53763

> <b_epik_Metal_Only>
0

> <s_epik_Chemistry_Notes>
This compound contains an acetal/aminal-like group ( X-CH(R)-Y where X, Y are N, S, or O) that may be acid/base labile, releasing an aldehyde.

> <s_lp_Force_Field>
OPLS_2005

> <r_lp_Energy>
33.8759

> <b_lp_Chiralities_Consistent>
1

> <s_lp_Variant>
AV-unprocessed.smi:72-35

> <Gold.Version>
5.8.1

> <Gold.Id.Protein>
6NUR|6NUR_protein|mol2

> <Gold.PLP.Fitness>
41.7875

> <Gold.PLP.PLP>
-24.0542

> <Gold.PLP.part.hbond>
-10.1742

> <Gold.PLP.part.metal>
0.0000

> <Gold.PLP.part.buried>
-3.6625

> <Gold.PLP.part.nonpolar>
-10.6441

> <Gold.PLP.part.repulsive>
0.1204

> <Gold.PLP.ligand.clash>
0.0000

> <Gold.PLP.ligand.torsion>
0.1244

> <Gold.PLP.Chemscore.Hbond>
5.9832

> <Gold.PLP.Chemscore.CHOScore>
0.0000

> <Gold.PLP.Chemscore.Metal>
0.0000

> <Gold.Chemscore.Hbonds>
donor molecule, donor type, donor heavy atom, donor atom, acceptor molecule, acceptor atom, score
      L1  H     1    23       P1  8029  0.70
      L1  H     3    30       P1  8028  2.00
      L1  H    12    28       P1  7949  0.84
      L1  H    14    29       P1  7957  1.00
      P1  H  7997  8008       L1    10  0.42
      P1  H 10752 10763       L1    12  1.00

> <Gold.PLP.Chemscore.Internal.Correction>
0.0326

> <Gold.Rescore>
     Score         DG    S(hbond)    S(metal)    S(lipo)     H(rot)  DE(clash)    DE(int)     intcor
     11.29     -11.77       4.03        0.00      27.93       4.08       0.00       0.47       ----

> <Gold.Chemscore.Fitness>
11.2938

> <Gold.Chemscore.DG>
-11.7681

> <Gold.Chemscore.ZeroCoef>
-5.4800

> <Gold.Chemscore.Hbond>
4.0303

> <Gold.Chemscore.Metal>
0.0000

> <Gold.Chemscore.Lipo>
27.9261

> <Gold.Chemscore.Internal_Hbond>
0.0000

> <Gold.Chemscore.DEClash>
0.0021

> <Gold.Chemscore.DEInternal>
0.4721

> <Gold.Chemscore.Rot>
4.0783

> <Gold.Chemscore.Internal.Correction>
   9.000000E+99

> <Gold.Chemscore.Hbonds>
donor molecule, donor type, donor heavy atom, donor atom, acceptor molecule, acceptor atom, score
      L1  H     1    23       P1  8029  0.07
      L1  H     3    30       P1  8028  0.97
      L1  H    12    28       P1  7949  0.75
      L1  H    14    29       P1  7957  0.82
      P1  H  7997  8008       L1    10  0.07
      P1  H 10752 10763       L1    12  0.35

> <Gold.Chemscore.Hbond.Weighted>
-13.4611

> <Gold.Chemscore.Metal.Weighted>
-0.0000

> <Gold.Chemscore.Lipo.Weighted>
-3.2674

> <Gold.Chemscore.Internal_Hbond.Weighted>
0.0000

> <Gold.Chemscore.DEClash.Weighted>
0.0021

> <Gold.Chemscore.DEInternal.Weighted>
0.4721

> <Gold.Chemscore.Rot.Weighted>
10.4404

> <Gold.Chemscore.Internal.Correction.Weighted>
   9.000000E+99

> <Gold.Protein.RotatedTorsions>
[ 6907 6896 6895 6894 ] final  -64.07 input  -60.11 | X-H torsion
[ 7974 7965 7964 7962 ] final    9.61 input  175.53 | X-H torsion
[ 8008 7997 7996 7995 ] final  -24.35 input   59.86 | X-H torsion
[ 10167 10162 10161 10158 ] final -177.93 input  -65.29 | X-H torsion
[ 10718 10713 10712 10709 ] final  -80.26 input   66.30 | X-H torsion
[ 10763 10752 10751 10750 ] final   43.90 input  -60.55 | X-H torsion
[ 11005 11000 10999 10996 ] final   61.73 input  -57.11 | X-H torsion

> <Gold.Protein.ActiveResidues>
 VAL166  LYS551  ARG553  GLY616  TRP617  ASP618  TYR619  PRO620  LYS621  CYS622 
 ASP623  PHE694  ASN695  SER759  ASP760  ASP761  ALA762  ILE779  LEU786  VAL792 
 PHE793  MET794  SER795  GLU796  ALA797  LYS798  CYS799  TRP800  GLU811  SER814 

> <Gold.Protein.RotatedAtoms>
  150.7608  134.6349  159.6205 H   0  0  0  0  0  0  0  0  0  0  0  0  # atno 6907 bound_to 6896
  152.3615  134.6862  160.0214 H   0  0  0  0  0  0  0  0  0  0  0  0  # atno 6908 bound_to 6896
  151.7251  133.3279  159.3362 H   0  0  0  0  0  0  0  0  0  0  0  0  # atno 6909 bound_to 6896
  146.2401  139.9758  142.8442 H   0  0  0  0  0  0  0  0  0  0  0  0  # atno 7974 bound_to 7965
  154.4534  140.1956  156.0451 H   0  0  0  0  0  0  0  0  0  0  0  0  # atno 8008 bound_to 7997
  156.0696  140.3286  155.7532 H   0  0  0  0  0  0  0  0  0  0  0  0  # atno 8009 bound_to 7997
  155.5284  140.0576  157.2884 H   0  0  0  0  0  0  0  0  0  0  0  0  # atno 8010 bound_to 7997
  139.5456  144.2243  152.0982 H   0  0  0  0  0  0  0  0  0  0  0  0  # atno 10167 bound_to 10162
  156.0074  130.4569  150.3773 H   0  0  0  0  0  0  0  0  0  0  0  0  # atno 10718 bound_to 10713
  152.9851  135.6087  154.3187 H   0  0  0  0  0  0  0  0  0  0  0  0  # atno 10763 bound_to 10752
  154.2898  135.2775  155.2662 H   0  0  0  0  0  0  0  0  0  0  0  0  # atno 10764 bound_to 10752
  154.4962  135.5879  153.6553 H   0  0  0  0  0  0  0  0  0  0  0  0  # atno 10765 bound_to 10752
  140.0140  134.6252  155.9737 H   0  0  0  0  0  0  0  0  0  0  0  0  # atno 11005 bound_to 11000
  145.1638  140.9686  143.4361 LP  0  0  0  0  0  0  0  0  0  0  0  0  # atno 17320 bound_to 7965
  145.0091  139.3526  143.6129 LP  0  0  0  0  0  0  0  0  0  0  0  0  # atno 17321 bound_to 7965
  140.1730  144.4918  150.6569 LP  0  0  0  0  0  0  0  0  0  0  0  0  # atno 17342 bound_to 10162
  140.6703  143.2283  151.5641 LP  0  0  0  0  0  0  0  0  0  0  0  0  # atno 17343 bound_to 10162
  157.1855  131.0402  151.2727 LP  0  0  0  0  0  0  0  0  0  0  0  0  # atno 17370 bound_to 10713
  157.4108  130.7384  149.6838 LP  0  0  0  0  0  0  0  0  0  0  0  0  # atno 17371 bound_to 10713
  141.1730  133.6538  156.4724 LP  0  0  0  0  0  0  0  0  0  0  0  0  # atno 17394 bound_to 11000
  140.4503  134.6935  157.5036 LP  0  0  0  0  0  0  0  0  0  0  0  0  # atno 17395 bound_to 11000

$$$$
