AV-unprocessed.smi:284|AV-procd|sdf|2160|dock10
  -GOLD-   2262021513D 1   1.00000     0.00000
 Structure written by MMmdl.
 60 62  0  0  0  0  0  0  0  0  1 V2000
  155.0681  133.6092  159.3520 C   0  0  0  0  0  0  0  0  0  0  0  0
  155.1314  134.1467  160.7730 C   0  0  0  0  0  0  0  0  0  0  0  0
  155.0683  133.3336  161.8524 C   0  0  0  0  0  0  0  0  0  0  0  0
  155.1230  133.7890  163.1567 N   0  0  0  0  0  0  0  0  0  0  0  0
  155.0441  132.8338  164.3276 C   0  0  1  0  0  0  0  0  0  0  0  0
  153.7441  133.0491  165.1059 C   0  0  0  0  0  0  0  0  0  0  0  0
  152.8766  131.9201  164.5875 C   0  0  2  0  0  0  0  0  0  0  0  0
  151.9039  131.5504  165.5429 O   0  0  0  0  0  0  0  0  0  0  0  0
  153.9059  130.8139  164.3423 C   0  0  1  0  0  0  0  0  0  0  0  0
  153.4497  129.7631  163.3178 C   0  0  0  0  0  0  0  0  0  0  0  0
  152.2342  129.1770  163.7322 O   0  0  0  0  0  0  0  0  0  0  0  0
  155.0440  131.5196  163.8505 O   0  0  0  0  0  0  0  0  0  0  0  0
  155.2192  135.1726  163.4085 C   0  0  0  0  0  0  0  0  0  0  0  0
  155.2399  135.6060  164.5629 O   0  0  0  0  0  0  0  0  0  0  0  0
  155.2871  136.0499  162.3026 N   0  0  0  0  0  0  0  0  0  0  0  0
  155.4207  137.5004  162.5650 C   0  0  0  0  0  0  0  0  0  0  0  0
  154.4524  138.3571  161.7343 C   0  0  0  0  0  0  0  0  0  0  0  0
  153.5460  137.8232  161.0940 O   0  0  0  0  0  0  0  0  0  0  0  0
  154.6563  139.6852  161.8074 N   0  0  0  0  0  0  0  0  0  0  0  0
  153.9667  140.7350  161.1411 C   0  0  0  0  0  0  0  0  0  0  0  0
  153.7509  141.9239  161.8645 C   0  0  0  0  0  0  0  0  0  0  0  0
  153.0957  143.0196  161.2704 C   0  0  0  0  0  0  0  0  0  0  0  0
  152.6448  142.9554  159.9291 C   0  0  0  0  0  0  0  0  0  0  0  0
  151.9252  144.1318  159.2420 C   0  0  0  0  0  0  0  0  0  0  0  0
  151.8104  145.3157  160.2251 C   0  0  0  0  0  0  0  0  0  0  0  0
  150.4967  143.7742  158.7728 C   0  0  0  0  0  0  0  0  0  0  0  0
  152.7280  144.5755  158.0015 C   0  0  0  0  0  0  0  0  0  0  0  0
  152.8759  141.7615  159.2062 C   0  0  0  0  0  0  0  0  0  0  0  0
  153.5333  140.6659  159.7970 C   0  0  0  0  0  0  0  0  0  0  0  0
  155.2604  135.5938  160.9615 C   0  0  0  0  0  0  0  0  0  0  0  0
  155.3453  136.3901  160.0247 O   0  0  0  0  0  0  0  0  0  0  0  0
  154.9689  132.5235  159.3325 H   0  0  0  0  0  0  0  0  0  0  0  0
  155.9743  133.8707  158.8045 H   0  0  0  0  0  0  0  0  0  0  0  0
  154.2132  134.0312  158.8225 H   0  0  0  0  0  0  0  0  0  0  0  0
  154.9656  132.2736  161.6770 H   0  0  0  0  0  0  0  0  0  0  0  0
  155.9423  132.9915  164.9262 H   0  0  0  0  0  0  0  0  0  0  0  0
  153.9609  132.9227  166.1679 H   0  0  0  0  0  0  0  0  0  0  0  0
  153.3229  134.0429  164.9483 H   0  0  0  0  0  0  0  0  0  0  0  0
  152.3920  132.2149  163.6556 H   0  0  0  0  0  0  0  0  0  0  0  0
  151.1576  131.1893  165.0893 H   0  0  0  0  0  0  0  0  0  0  0  0
  154.1691  130.3482  165.2943 H   0  0  0  0  0  0  0  0  0  0  0  0
  153.2690  130.2356  162.3517 H   0  0  0  0  0  0  0  0  0  0  0  0
  154.2095  128.9963  163.1657 H   0  0  0  0  0  0  0  0  0  0  0  0
  151.7451  128.9233  162.9643 H   0  0  0  0  0  0  0  0  0  0  0  0
  155.2630  137.7369  163.6182 H   0  0  0  0  0  0  0  0  0  0  0  0
  156.4448  137.8269  162.3750 H   0  0  0  0  0  0  0  0  0  0  0  0
  155.3745  139.9834  162.4513 H   0  0  0  0  0  0  0  0  0  0  0  0
  154.0865  142.0015  162.8884 H   0  0  0  0  0  0  0  0  0  0  0  0
  152.9542  143.9023  161.8741 H   0  0  0  0  0  0  0  0  0  0  0  0
  151.2844  146.1574  159.7728 H   0  0  0  0  0  0  0  0  0  0  0  0
  152.7860  145.6841  160.5421 H   0  0  0  0  0  0  0  0  0  0  0  0
  151.2601  145.0312  161.1228 H   0  0  0  0  0  0  0  0  0  0  0  0
  149.8596  143.4787  159.6075 H   0  0  0  0  0  0  0  0  0  0  0  0
  150.5021  142.9615  158.0453 H   0  0  0  0  0  0  0  0  0  0  0  0
  150.0148  144.6263  158.2923 H   0  0  0  0  0  0  0  0  0  0  0  0
  152.2322  145.3953  157.4804 H   0  0  0  0  0  0  0  0  0  0  0  0
  152.8392  143.7558  157.2906 H   0  0  0  0  0  0  0  0  0  0  0  0
  153.7284  144.9218  158.2613 H   0  0  0  0  0  0  0  0  0  0  0  0
  152.5536  141.6750  158.1794 H   0  0  0  0  0  0  0  0  0  0  0  0
  153.7039  139.7901  159.1909 H   0  0  0  0  0  0  0  0  0  0  0  0
  1  2  1  0  0  0  0
  1 32  1  0  0  0  0
  1 33  1  0  0  0  0
  1 34  1  0  0  0  0
  2 30  1  0  0  0  0
  2  3  2  0  0  0  0
  3  4  1  0  0  0  0
  3 35  1  0  0  0  0
  4  5  1  0  0  0  0
  4 13  1  0  0  0  0
  5 12  1  0  0  0  0
  5  6  1  0  0  0  0
  5 36  1  0  0  0  0
  6  7  1  0  0  0  0
  6 37  1  0  0  0  0
  6 38  1  0  0  0  0
  7  8  1  0  0  0  0
  7  9  1  0  0  0  0
  7 39  1  0  0  0  0
  8 40  1  0  0  0  0
  9 10  1  0  0  0  0
  9 12  1  0  0  0  0
  9 41  1  0  0  0  0
 10 11  1  0  0  0  0
 10 42  1  0  0  0  0
 10 43  1  0  0  0  0
 11 44  1  0  0  0  0
 13 14  2  0  0  0  0
 13 15  1  0  0  0  0
 15 16  1  0  0  0  0
 15 30  1  0  0  0  0
 16 17  1  0  0  0  0
 16 45  1  0  0  0  0
 16 46  1  0  0  0  0
 17 18  2  0  0  0  0
 17 19  1  0  0  0  0
 19 20  1  0  0  0  0
 19 47  1  0  0  0  0
 20 29  1  0  0  0  0
 20 21  2  0  0  0  0
 21 22  1  0  0  0  0
 21 48  1  0  0  0  0
 22 23  2  0  0  0  0
 22 49  1  0  0  0  0
 23 24  1  0  0  0  0
 23 28  1  0  0  0  0
 24 25  1  0  0  0  0
 24 26  1  0  0  0  0
 24 27  1  0  0  0  0
 25 50  1  0  0  0  0
 25 51  1  0  0  0  0
 25 52  1  0  0  0  0
 26 53  1  0  0  0  0
 26 54  1  0  0  0  0
 26 55  1  0  0  0  0
 27 56  1  0  0  0  0
 27 57  1  0  0  0  0
 27 58  1  0  0  0  0
 28 29  2  0  0  0  0
 28 59  1  0  0  0  0
 29 60  1  0  0  0  0
 30 31  2  0  0  0  0
M  END
> <s_m_source_file>
AV-unprocessed.smi

> <i_m_source_file_index>
284

> <i_lp_mmshare_version>
43012

> <i_f3d_flags>
0

> <s_epik_input>
W09IXVtDSDJdW0NAQEhdKE8xKVtDQEhdKFtPSF0pW0NIMl1bQ0BIXTFuKFtjSF1jMltDSDNdKWMoPU8pbihjMj1PKVtDSDJdQyg9TylbTkhdYzNbY0hdW2NIXWMoQyhbQ0gzXSkoW0NIM10pW0NIM10pW2NIXVtjSF0z

> <s_epik_cmdline>
J2VwaWtfcHl0aG9uJywgJy1waCcsICc3LjAnLCAnLXRuJywgJzgnLCAnLW1hJywgJzIwMCcsICctbWV0YWxfYmluZGluZycsICctaW1hZScsICc8aW5maWxlLm1hZT4nLCAnLW9tYWUnLCAnPG91dGZpbGUubWFlPic=

> <r_lp_tautomer_probability>
1

> <r_epik_Ionization_Penalty>
4.92358e-06

> <r_epik_Ionization_Penalty_Charging>
1.29777e-07

> <r_epik_Ionization_Penalty_Neutral>
4.79381e-06

> <r_epik_State_Penalty>
-0

> <r_epik_Charging_Adjusted_Penalty>
1.29777e-07

> <i_epik_Tot_Q>
0

> <i_epik_Tot_abs_Q>
0

> <r_epik_Metal_State_Penalty>
-0

> <b_epik_Metal_Only>
0

> <s_epik_Chemistry_Notes>
This compound contains an acetal/aminal-like group ( X-CH(R)-Y where X, Y are N, S, or O) that may be acid/base labile, releasing an aldehyde.

> <s_lp_Force_Field>
OPLS_2005

> <r_lp_Energy>
39.3511

> <b_lp_Chiralities_Consistent>
1

> <s_lp_Variant>
AV-unprocessed.smi:284-4

> <Gold.Version>
5.8.1

> <Gold.Id.Protein>
6NUR|6NUR_protein|mol2

> <Gold.PLP.Fitness>
54.5810

> <Gold.PLP.PLP>
-55.6621

> <Gold.PLP.part.hbond>
-1.0000

> <Gold.PLP.part.metal>
0.0000

> <Gold.PLP.part.buried>
-7.2331

> <Gold.PLP.part.nonpolar>
-47.2457

> <Gold.PLP.part.repulsive>
0.0910

> <Gold.PLP.ligand.clash>
0.0000

> <Gold.PLP.ligand.torsion>
0.5860

> <Gold.PLP.Chemscore.Hbond>
0.0000

> <Gold.PLP.Chemscore.CHOScore>
0.0000

> <Gold.PLP.Chemscore.Metal>
0.0000

> <Gold.PLP.Chemscore.Internal.Correction>
0.0908

> <Gold.Rescore>
     Score         DG    S(hbond)    S(metal)    S(lipo)     H(rot)  DE(clash)    DE(int)     intcor
      8.52     -13.75       0.00        0.00     142.30       3.27       0.13       5.10       ----

> <Gold.Chemscore.Fitness>
8.5209

> <Gold.Chemscore.DG>
-13.7485

> <Gold.Chemscore.ZeroCoef>
-5.4800

> <Gold.Chemscore.Hbond>
0.0000

> <Gold.Chemscore.Metal>
0.0000

> <Gold.Chemscore.Lipo>
142.2951

> <Gold.Chemscore.Internal_Hbond>
0.0000

> <Gold.Chemscore.DEClash>
0.1292

> <Gold.Chemscore.DEInternal>
5.0984

> <Gold.Chemscore.Rot>
3.2735

> <Gold.Chemscore.Internal.Correction>
   9.000000E+99

> <Gold.Chemscore.Hbond.Weighted>
-0.0000

> <Gold.Chemscore.Metal.Weighted>
-0.0000

> <Gold.Chemscore.Lipo.Weighted>
-16.6485

> <Gold.Chemscore.Internal_Hbond.Weighted>
0.0000

> <Gold.Chemscore.DEClash.Weighted>
0.1292

> <Gold.Chemscore.DEInternal.Weighted>
5.0984

> <Gold.Chemscore.Rot.Weighted>
8.3801

> <Gold.Chemscore.Internal.Correction.Weighted>
   9.000000E+99

> <Gold.Protein.RotatedTorsions>
[ 6907 6896 6895 6894 ] final  -39.52 input  -60.11 | X-H torsion
[ 7974 7965 7964 7962 ] final -145.06 input  175.53 | X-H torsion
[ 8008 7997 7996 7995 ] final  109.05 input   59.86 | X-H torsion
[ 10167 10162 10161 10158 ] final   85.81 input  -65.29 | X-H torsion
[ 10718 10713 10712 10709 ] final   27.64 input   66.30 | X-H torsion
[ 10763 10752 10751 10750 ] final -132.11 input  -60.55 | X-H torsion
[ 11005 11000 10999 10996 ] final -122.68 input  -57.11 | X-H torsion

> <Gold.Protein.ActiveResidues>
 VAL166  LYS551  ARG553  GLY616  TRP617  ASP618  TYR619  PRO620  LYS621  CYS622 
 ASP623  PHE694  ASN695  SER759  ASP760  ASP761  ALA762  ILE779  LEU786  VAL792 
 PHE793  MET794  SER795  GLU796  ALA797  LYS798  CYS799  TRP800  GLU811  SER814 

> <Gold.Protein.RotatedAtoms>
  150.9894  134.9232  159.7890 H   0  0  0  0  0  0  0  0  0  0  0  0  # atno 6907 bound_to 6896
  152.5246  134.3302  159.9190 H   0  0  0  0  0  0  0  0  0  0  0  0  # atno 6908 bound_to 6896
  151.3308  133.3960  159.2697 H   0  0  0  0  0  0  0  0  0  0  0  0  # atno 6909 bound_to 6896
  144.8254  140.5631  143.5551 H   0  0  0  0  0  0  0  0  0  0  0  0  # atno 7974 bound_to 7965
  156.1950  140.3065  155.9409 H   0  0  0  0  0  0  0  0  0  0  0  0  # atno 8008 bound_to 7997
  155.3086  140.0450  157.3050 H   0  0  0  0  0  0  0  0  0  0  0  0  # atno 8009 bound_to 7997
  154.5498  140.2288  155.8512 H   0  0  0  0  0  0  0  0  0  0  0  0  # atno 8010 bound_to 7997
  139.8939  144.6369  150.8709 H   0  0  0  0  0  0  0  0  0  0  0  0  # atno 10167 bound_to 10162
  157.2229  130.6987  149.6278 H   0  0  0  0  0  0  0  0  0  0  0  0  # atno 10718 bound_to 10713
  154.8746  135.3808  154.4356 H   0  0  0  0  0  0  0  0  0  0  0  0  # atno 10763 bound_to 10752
  153.5046  135.7030  153.5818 H   0  0  0  0  0  0  0  0  0  0  0  0  # atno 10764 bound_to 10752
  153.4135  135.3919  155.2032 H   0  0  0  0  0  0  0  0  0  0  0  0  # atno 10765 bound_to 10752
  140.9976  134.0449  157.3577 H   0  0  0  0  0  0  0  0  0  0  0  0  # atno 11005 bound_to 11000
  145.5013  139.1483  143.3656 LP  0  0  0  0  0  0  0  0  0  0  0  0  # atno 17320 bound_to 7965
  146.2559  140.5152  142.8874 LP  0  0  0  0  0  0  0  0  0  0  0  0  # atno 17321 bound_to 7965
  140.7721  143.3488  151.2056 LP  0  0  0  0  0  0  0  0  0  0  0  0  # atno 17342 bound_to 10162
  139.7085  143.9416  152.2937 LP  0  0  0  0  0  0  0  0  0  0  0  0  # atno 17343 bound_to 10162
  155.9681  130.4514  150.5734 LP  0  0  0  0  0  0  0  0  0  0  0  0  # atno 17370 bound_to 10713
  157.3557  131.0741  151.1677 LP  0  0  0  0  0  0  0  0  0  0  0  0  # atno 17371 bound_to 10713
  139.9022  135.0168  156.7324 LP  0  0  0  0  0  0  0  0  0  0  0  0  # atno 17394 bound_to 11000
  140.6940  133.9365  155.7983 LP  0  0  0  0  0  0  0  0  0  0  0  0  # atno 17395 bound_to 11000

$$$$
