AV-unprocessed.smi:2691|AV-procd|sdf|10392|dock3
  -GOLD-   2272014423D 1   1.00000     0.00000
 Structure written by MMmdl.
 50 52  0  0  0  0  0  0  0  0  2 V2000
  152.6773  144.1049  161.6615 C   0  0  0  0  0  0  0  0  0  0  0  0
  152.3965  143.2103  160.4662 C   0  0  0  0  0  0  0  0  0  0  0  0
  152.7566  141.8457  160.5456 C   0  0  0  0  0  0  0  0  0  0  0  0
  152.4853  141.0524  159.4369 C   0  0  0  0  0  0  0  0  0  0  0  0
  152.7114  139.6935  159.2044 N   0  3  0  0  0  0  0  0  0  0  0  0
  152.2698  139.3662  157.9581 C   0  0  0  0  0  0  0  0  0  0  0  0
  151.7668  140.4966  157.3920 N   0  0  0  0  0  0  0  0  0  0  0  0
  151.1598  140.7035  156.0707 C   0  0  0  0  0  0  0  0  0  0  0  0
  150.8689  139.3800  155.3360 C   0  0  2  0  0  0  0  0  0  0  0  0
  150.3032  139.6963  154.0785 O   0  0  0  0  0  0  0  0  0  0  0  0
  149.8817  138.4897  156.1225 C   0  0  0  0  0  0  0  0  0  0  0  0
  149.8518  137.1137  155.6004 N   0  0  0  0  0  0  0  0  0  0  0  0
  148.5919  136.6122  155.2184 C   0  0  0  0  0  0  0  0  0  0  0  0
  148.4462  135.4089  154.7629 N   0  0  0  0  0  0  0  0  0  0  0  0
  149.5610  134.5717  154.6415 C   0  0  0  0  0  0  0  0  0  0  0  0
  149.3177  133.1681  154.1020 C   0  0  0  0  0  0  0  0  0  0  0  0
  147.8984  133.0194  153.5312 C   0  0  0  0  0  0  0  0  0  0  0  0
  149.6177  132.0967  155.1619 C   0  0  0  0  0  0  0  0  0  0  0  0
  150.7929  135.0076  155.0005 C   0  0  0  0  0  0  0  0  0  0  0  0
  150.9865  136.3599  155.5234 C   0  0  0  0  0  0  0  0  0  0  0  0
  152.0879  136.7835  155.8739 O   0  0  0  0  0  0  0  0  0  0  0  0
  151.8795  141.5731  158.2773 C   0  0  0  0  0  0  0  0  0  0  0  0
  151.5189  142.9146  158.1814 C   0  0  0  0  0  0  0  0  0  0  0  0
  151.7861  143.7379  159.2985 C   0  0  0  0  0  0  0  0  0  0  0  0
  151.4047  145.2064  159.2231 C   0  0  0  0  0  0  0  0  0  0  0  0
  153.1305  143.5463  162.4809 H   0  0  0  0  0  0  0  0  0  0  0  0
  151.7539  144.5499  162.0337 H   0  0  0  0  0  0  0  0  0  0  0  0
  153.3626  144.9068  161.3862 H   0  0  0  0  0  0  0  0  0  0  0  0
  153.2220  141.4372  161.4308 H   0  0  0  0  0  0  0  0  0  0  0  0
  152.3065  138.3869  157.5027 H   0  0  0  0  0  0  0  0  0  0  0  0
  150.2481  141.2876  156.2022 H   0  0  0  0  0  0  0  0  0  0  0  0
  151.8423  141.3225  155.4865 H   0  0  0  0  0  0  0  0  0  0  0  0
  151.8080  138.8496  155.1730 H   0  0  0  0  0  0  0  0  0  0  0  0
  150.0941  138.8900  153.6309 H   0  0  0  0  0  0  0  0  0  0  0  0
  150.1766  138.4616  157.1735 H   0  0  0  0  0  0  0  0  0  0  0  0
  148.8850  138.9351  156.1423 H   0  0  0  0  0  0  0  0  0  0  0  0
  147.7557  137.3032  155.3399 H   0  0  0  0  0  0  0  0  0  0  0  0
  150.0139  133.0078  153.2769 H   0  0  0  0  0  0  0  0  0  0  0  0
  147.7038  133.7692  152.7636 H   0  0  0  0  0  0  0  0  0  0  0  0
  147.1384  133.1298  154.3055 H   0  0  0  0  0  0  0  0  0  0  0  0
  147.7621  132.0389  153.0740 H   0  0  0  0  0  0  0  0  0  0  0  0
  150.6371  132.1917  155.5375 H   0  0  0  0  0  0  0  0  0  0  0  0
  149.5135  131.0951  154.7444 H   0  0  0  0  0  0  0  0  0  0  0  0
  148.9400  132.1719  156.0126 H   0  0  0  0  0  0  0  0  0  0  0  0
  151.6483  134.3547  154.9050 H   0  0  0  0  0  0  0  0  0  0  0  0
  151.0533  143.3142  157.2926 H   0  0  0  0  0  0  0  0  0  0  0  0
  150.9745  145.4574  158.2531 H   0  0  0  0  0  0  0  0  0  0  0  0
  152.2799  145.8393  159.3717 H   0  0  0  0  0  0  0  0  0  0  0  0
  150.6666  145.4493  159.9879 H   0  0  0  0  0  0  0  0  0  0  0  0
  153.1324  139.0351  159.8476 H   0  0  0  0  0  0  0  0  0  0  0  0
  1  2  1  0  0  0  0
  1 26  1  0  0  0  0
  1 27  1  0  0  0  0
  1 28  1  0  0  0  0
  2 24  1  0  0  0  0
  2  3  2  0  0  0  0
  3  4  1  0  0  0  0
  3 29  1  0  0  0  0
  4 22  2  0  0  0  0
  4  5  1  0  0  0  0
  5  6  2  0  0  0  0
  5 50  1  0  0  0  0
  6  7  1  0  0  0  0
  6 30  1  0  0  0  0
  7  8  1  0  0  0  0
  7 22  1  0  0  0  0
  8  9  1  0  0  0  0
  8 31  1  0  0  0  0
  8 32  1  0  0  0  0
  9 10  1  0  0  0  0
  9 11  1  0  0  0  0
  9 33  1  0  0  0  0
 10 34  1  0  0  0  0
 11 12  1  0  0  0  0
 11 35  1  0  0  0  0
 11 36  1  0  0  0  0
 12 20  1  0  0  0  0
 12 13  1  0  0  0  0
 13 14  2  0  0  0  0
 13 37  1  0  0  0  0
 14 15  1  0  0  0  0
 15 16  1  0  0  0  0
 15 19  2  0  0  0  0
 16 17  1  0  0  0  0
 16 18  1  0  0  0  0
 16 38  1  0  0  0  0
 17 39  1  0  0  0  0
 17 40  1  0  0  0  0
 17 41  1  0  0  0  0
 18 42  1  0  0  0  0
 18 43  1  0  0  0  0
 18 44  1  0  0  0  0
 19 20  1  0  0  0  0
 19 45  1  0  0  0  0
 20 21  2  0  0  0  0
 22 23  1  0  0  0  0
 23 24  2  0  0  0  0
 23 46  1  0  0  0  0
 24 25  1  0  0  0  0
 25 47  1  0  0  0  0
 25 48  1  0  0  0  0
 25 49  1  0  0  0  0
M  CHG  1   5   1
M  END
> <s_m_source_file>
AV-unprocessed.smi

> <i_m_source_file_index>
2691

> <i_lp_mmshare_version>
43012

> <i_f3d_flags>
0

> <s_epik_input>
W0NIM11jKFtjSF0xKWMoW0NIM10pW2NIXWMoYzEyKW4oW2NIXW4yKVtDSDJdW0NASF0oW09IXSlbQ0gyXW4zW2NIXW5jKFtDSF0oW0NIM10pW0NIM10pW2NIXWMzPU8=

> <s_epik_cmdline>
J2VwaWtfcHl0aG9uJywgJy1waCcsICc3LjAnLCAnLXRuJywgJzgnLCAnLW1hJywgJzIwMCcsICctbWV0YWxfYmluZGluZycsICctaW1hZScsICc8aW5maWxlLm1hZT4nLCAnLW9tYWUnLCAnPG91dGZpbGUubWFlPic=

> <r_lp_tautomer_probability>
1

> <r_epik_Ionization_Penalty>
1.0357

> <r_epik_Ionization_Penalty_Charging>
1.03568

> <r_epik_Ionization_Penalty_Neutral>
1.29543e-05

> <r_epik_State_Penalty>
1.08724

> <r_epik_Charging_Adjusted_Penalty>
2.12292

> <i_epik_Tot_Q>
1

> <i_epik_Tot_abs_Q>
1

> <r_epik_Metal_State_Penalty>
1.18376

> <b_epik_Metal_Only>
0

> <s_lp_Force_Field>
OPLS_2005

> <r_lp_Energy>
24.5824

> <b_lp_Chiralities_Consistent>
1

> <s_lp_Variant>
AV-unprocessed.smi:2691-3

> <Gold.Version>
5.8.1

> <Gold.Id.Protein>
6NUR|6NUR_protein|mol2

> <Gold.PLP.Fitness>
54.2259

> <Gold.PLP.PLP>
-48.8552

> <Gold.PLP.part.hbond>
-3.0000

> <Gold.PLP.part.metal>
0.0000

> <Gold.PLP.part.buried>
-5.9771

> <Gold.PLP.part.nonpolar>
-40.5300

> <Gold.PLP.part.repulsive>
1.2042

> <Gold.PLP.ligand.clash>
0.0000

> <Gold.PLP.ligand.torsion>
0.3549

> <Gold.PLP.Chemscore.Hbond>
2.0000

> <Gold.PLP.Chemscore.CHOScore>
0.0000

> <Gold.PLP.Chemscore.Metal>
0.0000

> <Gold.Chemscore.Hbonds>
donor molecule, donor type, donor heavy atom, donor atom, acceptor molecule, acceptor atom, score
      P1  H  7989  7998       L1    10  0.95
      P1  H 10752 10763       L1    21  0.90

> <Gold.PLP.Chemscore.Internal.Correction>
0.0805

> <Gold.Rescore>
     Score         DG    S(hbond)    S(metal)    S(lipo)     H(rot)  DE(clash)    DE(int)     intcor
     18.86     -19.56       1.95        0.00     119.92       2.52       0.26       0.44       ----

> <Gold.Chemscore.Fitness>
18.8567

> <Gold.Chemscore.DG>
-19.5616

> <Gold.Chemscore.ZeroCoef>
-5.4800

> <Gold.Chemscore.Hbond>
1.9471

> <Gold.Chemscore.Metal>
0.0000

> <Gold.Chemscore.Lipo>
119.9156

> <Gold.Chemscore.Internal_Hbond>
0.0000

> <Gold.Chemscore.DEClash>
0.2607

> <Gold.Chemscore.DEInternal>
0.4442

> <Gold.Chemscore.Rot>
2.5202

> <Gold.Chemscore.Internal.Correction>
   9.000000E+99

> <Gold.Chemscore.Hbonds>
donor molecule, donor type, donor heavy atom, donor atom, acceptor molecule, acceptor atom, score
      P1  H  7989  7998       L1    10  0.21
      P1  H 10752 10763       L1    21  0.17

> <Gold.Chemscore.Hbond.Weighted>
-6.5032

> <Gold.Chemscore.Metal.Weighted>
-0.0000

> <Gold.Chemscore.Lipo.Weighted>
-14.0301

> <Gold.Chemscore.Internal_Hbond.Weighted>
0.0000

> <Gold.Chemscore.DEClash.Weighted>
0.2607

> <Gold.Chemscore.DEInternal.Weighted>
0.4442

> <Gold.Chemscore.Rot.Weighted>
6.4517

> <Gold.Chemscore.Internal.Correction.Weighted>
   9.000000E+99

> <Gold.Protein.RotatedTorsions>
[ 6907 6896 6895 6894 ] final -135.77 input  -60.11 | X-H torsion
[ 7974 7965 7964 7962 ] final -137.88 input  175.53 | X-H torsion
[ 8008 7997 7996 7995 ] final  -85.79 input   59.86 | X-H torsion
[ 10167 10162 10161 10158 ] final    8.23 input  -65.29 | X-H torsion
[ 10718 10713 10712 10709 ] final   43.95 input   66.30 | X-H torsion
[ 10763 10752 10751 10750 ] final   90.15 input  -60.55 | X-H torsion
[ 11005 11000 10999 10996 ] final  -95.80 input  -57.11 | X-H torsion

> <Gold.Protein.ActiveResidues>
 VAL166  LYS551  ARG553  GLY616  TRP617  ASP618  TYR619  PRO620  LYS621  CYS622 
 ASP623  PHE694  ASN695  SER759  ASP760  ASP761  ALA762  ILE779  LEU786  VAL792 
 PHE793  MET794  SER795  GLU796  ALA797  LYS798  CYS799  TRP800  GLU811  SER814 

> <Gold.Protein.RotatedAtoms>
  151.0019  133.6048  159.2693 H   0  0  0  0  0  0  0  0  0  0  0  0  # atno 6907 bound_to 6896
  151.3231  135.0822  159.9322 H   0  0  0  0  0  0  0  0  0  0  0  0  # atno 6908 bound_to 6896
  152.5276  133.9662  159.7795 H   0  0  0  0  0  0  0  0  0  0  0  0  # atno 6909 bound_to 6896
  144.8804  140.6499  143.5209 H   0  0  0  0  0  0  0  0  0  0  0  0  # atno 7974 bound_to 7965
  154.6447  140.0587  156.9886 H   0  0  0  0  0  0  0  0  0  0  0  0  # atno 8008 bound_to 7997
  155.1463  140.3270  155.4422 H   0  0  0  0  0  0  0  0  0  0  0  0  # atno 8009 bound_to 7997
  156.2548  140.1955  156.6577 H   0  0  0  0  0  0  0  0  0  0  0  0  # atno 8010 bound_to 7997
  140.6326  143.7958  150.7316 H   0  0  0  0  0  0  0  0  0  0  0  0  # atno 10167 bound_to 10162
  157.4215  130.7972  149.7520 H   0  0  0  0  0  0  0  0  0  0  0  0  # atno 10718 bound_to 10713
  153.1945  135.4444  155.0191 H   0  0  0  0  0  0  0  0  0  0  0  0  # atno 10763 bound_to 10752
  154.8111  135.3294  154.7306 H   0  0  0  0  0  0  0  0  0  0  0  0  # atno 10764 bound_to 10752
  153.7757  135.6981  153.4953 H   0  0  0  0  0  0  0  0  0  0  0  0  # atno 10765 bound_to 10752
  141.1431  133.8052  157.0485 H   0  0  0  0  0  0  0  0  0  0  0  0  # atno 11005 bound_to 11000
  145.3964  139.1606  143.4201 LP  0  0  0  0  0  0  0  0  0  0  0  0  # atno 17320 bound_to 7965
  146.2991  140.4057  142.8711 LP  0  0  0  0  0  0  0  0  0  0  0  0  # atno 17321 bound_to 7965
  140.1573  143.4306  152.2091 LP  0  0  0  0  0  0  0  0  0  0  0  0  # atno 17342 bound_to 10162
  139.5539  144.7358  151.4352 LP  0  0  0  0  0  0  0  0  0  0  0  0  # atno 17343 bound_to 10162
  155.9882  130.3961  150.3128 LP  0  0  0  0  0  0  0  0  0  0  0  0  # atno 17370 bound_to 10713
  157.1276  131.0263  151.2983 LP  0  0  0  0  0  0  0  0  0  0  0  0  # atno 17371 bound_to 10713
  140.0647  134.9735  157.1365 LP  0  0  0  0  0  0  0  0  0  0  0  0  # atno 17394 bound_to 11000
  140.3797  134.2300  155.7172 LP  0  0  0  0  0  0  0  0  0  0  0  0  # atno 17395 bound_to 11000

$$$$
