AV-unprocessed.smi:3264|AV-procd|sdf|12494|dock10
  -GOLD-   2272018393D 1   1.00000     0.00000
 Structure written by MMmdl.
 32 33  0  0  0  0  0  0  0  0  1 V2000
  153.1805  143.0962  161.1920 C   0  0  0  0  0  0  0  0  0  0  0  0
  152.4193  143.1944  159.9147 C   0  0  0  0  0  0  0  0  0  0  0  0
  151.7924  142.1598  159.3491 N   0  0  0  0  0  0  0  0  0  0  0  0
  151.1466  142.5073  158.1582 C   0  0  0  0  0  0  0  0  0  0  0  0
  150.3871  141.4698  157.3883 C   0  0  0  0  0  0  0  0  0  0  0  0
  150.9140  141.3112  155.9524 C   0  0  0  0  0  0  0  0  0  0  0  0
  150.6225  139.9872  155.4148 N   0  0  0  0  0  0  0  0  0  0  0  0
  151.5407  139.0556  155.1163 C   0  0  0  0  0  0  0  0  0  0  0  0
  152.7511  139.2290  155.2638 O   0  0  0  0  0  0  0  0  0  0  0  0
  151.0072  137.7322  154.5559 C   0  0  2  0  0  0  0  0  0  0  0  0
  149.4725  137.6007  154.5975 C   0  0  0  0  0  0  0  0  0  0  0  0
  149.2303  136.4948  155.6070 C   0  0  0  0  0  0  0  0  0  0  0  0
  150.5077  135.6758  155.4919 C   0  0  0  0  0  0  0  0  0  0  0  0
  151.5096  136.6717  155.3657 O   0  0  0  0  0  0  0  0  0  0  0  0
  151.2935  143.8318  157.8295 C   0  0  0  0  0  0  0  0  0  0  0  0
  152.2504  144.6908  159.0051 S   0  0  0  0  0  0  0  0  0  0  0  0
  153.6038  142.0978  161.3074 H   0  0  0  0  0  0  0  0  0  0  0  0
  152.5195  143.2977  162.0348 H   0  0  0  0  0  0  0  0  0  0  0  0
  153.9933  143.8224  161.2020 H   0  0  0  0  0  0  0  0  0  0  0  0
  150.4431  140.5127  157.9082 H   0  0  0  0  0  0  0  0  0  0  0  0
  149.3285  141.7313  157.3600 H   0  0  0  0  0  0  0  0  0  0  0  0
  150.4445  142.0486  155.3006 H   0  0  0  0  0  0  0  0  0  0  0  0
  151.9876  141.5031  155.9152 H   0  0  0  0  0  0  0  0  0  0  0  0
  149.6511  139.7634  155.2531 H   0  0  0  0  0  0  0  0  0  0  0  0
  151.3564  137.5895  153.5318 H   0  0  0  0  0  0  0  0  0  0  0  0
  148.9510  138.5196  154.8685 H   0  0  0  0  0  0  0  0  0  0  0  0
  149.1043  137.2974  153.6166 H   0  0  0  0  0  0  0  0  0  0  0  0
  149.1468  136.9151  156.6101 H   0  0  0  0  0  0  0  0  0  0  0  0
  148.3303  135.9150  155.4007 H   0  0  0  0  0  0  0  0  0  0  0  0
  150.6813  135.0372  156.3582 H   0  0  0  0  0  0  0  0  0  0  0  0
  150.4941  135.0524  154.5965 H   0  0  0  0  0  0  0  0  0  0  0  0
  150.8960  144.3531  156.9711 H   0  0  0  0  0  0  0  0  0  0  0  0
  1  2  1  0  0  0  0
  1 17  1  0  0  0  0
  1 18  1  0  0  0  0
  1 19  1  0  0  0  0
  2 16  1  0  0  0  0
  2  3  2  0  0  0  0
  3  4  1  0  0  0  0
  4  5  1  0  0  0  0
  4 15  2  0  0  0  0
  5  6  1  0  0  0  0
  5 20  1  0  0  0  0
  5 21  1  0  0  0  0
  6  7  1  0  0  0  0
  6 22  1  0  0  0  0
  6 23  1  0  0  0  0
  7  8  1  0  0  0  0
  7 24  1  0  0  0  0
  8  9  2  0  0  0  0
  8 10  1  0  0  0  0
 10 14  1  0  0  0  0
 10 11  1  0  0  0  0
 10 25  1  0  0  0  0
 11 12  1  0  0  0  0
 11 26  1  0  0  0  0
 11 27  1  0  0  0  0
 12 13  1  0  0  0  0
 12 28  1  0  0  0  0
 12 29  1  0  0  0  0
 13 14  1  0  0  0  0
 13 30  1  0  0  0  0
 13 31  1  0  0  0  0
 15 16  1  0  0  0  0
 15 32  1  0  0  0  0
M  END
> <s_m_source_file>
AV-unprocessed.smi

> <i_m_source_file_index>
3264

> <i_lp_mmshare_version>
43012

> <i_f3d_flags>
0

> <s_epik_input>
W0NIM11jMW5jKFtjSF1zMSlbQ0gyXVtDSDJdW05IXUMoPU8pW0NAQEhdMltDSDJdW0NIMl1bQ0gyXU8y

> <s_epik_cmdline>
J2VwaWtfcHl0aG9uJywgJy1waCcsICc3LjAnLCAnLXRuJywgJzgnLCAnLW1hJywgJzIwMCcsICctbWV0YWxfYmluZGluZycsICctaW1hZScsICc8aW5maWxlLm1hZT4nLCAnLW9tYWUnLCAnPG91dGZpbGUubWFlPic=

> <r_epik_Ionization_Penalty>
0.00112246

> <r_epik_Ionization_Penalty_Charging>
0

> <r_epik_Ionization_Penalty_Neutral>
0.00112246

> <r_epik_State_Penalty>
0.000737392

> <r_epik_Charging_Adjusted_Penalty>
0.000737392

> <i_epik_Tot_Q>
0

> <i_epik_Tot_abs_Q>
0

> <r_epik_Metal_State_Penalty>
-0

> <b_epik_Metal_Only>
0

> <s_lp_Force_Field>
OPLS_2005

> <r_lp_Energy>
12.7546

> <b_lp_Chiralities_Consistent>
1

> <s_lp_Variant>
AV-unprocessed.smi:3264-1

> <Gold.Version>
5.8.1

> <Gold.Id.Protein>
6NUR|6NUR_protein|mol2

> <Gold.PLP.Fitness>
42.8777

> <Gold.PLP.PLP>
-34.3603

> <Gold.PLP.part.hbond>
-2.0000

> <Gold.PLP.part.metal>
0.0000

> <Gold.PLP.part.buried>
-3.9300

> <Gold.PLP.part.nonpolar>
-29.0417

> <Gold.PLP.part.repulsive>
0.2032

> <Gold.PLP.ligand.clash>
0.0000

> <Gold.PLP.ligand.torsion>
0.2479

> <Gold.PLP.Chemscore.Hbond>
2.0000

> <Gold.PLP.Chemscore.CHOScore>
1.0000

> <Gold.PLP.Chemscore.Metal>
0.0000

> <Gold.Chemscore.Hbonds>
donor molecule, donor type, donor heavy atom, donor atom, acceptor molecule, acceptor atom, score
      P1  H  7997  8008       L1     9  0.98
      P1  H 10752 10764       L1    14  0.95
      L1  C    15    32       P1  8028  1.00

> <Gold.PLP.Chemscore.Internal.Correction>
0.0131

> <Gold.Rescore>
     Score         DG    S(hbond)    S(metal)    S(lipo)     H(rot)  DE(clash)    DE(int)     intcor
     16.07     -16.78       1.46        0.00      88.11       1.52       0.52       0.19       ----

> <Gold.Chemscore.Fitness>
16.0705

> <Gold.Chemscore.DG>
-16.7810

> <Gold.Chemscore.ZeroCoef>
-5.4800

> <Gold.Chemscore.Hbond>
1.4588

> <Gold.Chemscore.Metal>
0.0000

> <Gold.Chemscore.Lipo>
88.1139

> <Gold.Chemscore.Internal_Hbond>
0.0000

> <Gold.Chemscore.DEClash>
0.5176

> <Gold.Chemscore.DEInternal>
0.1930

> <Gold.Chemscore.Rot>
1.5159

> <Gold.Chemscore.Internal.Correction>
   9.000000E+99

> <Gold.Chemscore.Hbonds>
donor molecule, donor type, donor heavy atom, donor atom, acceptor molecule, acceptor atom, score
      P1  H  7997  8008       L1     9  0.91
      P1  H 10752 10764       L1    14  0.20

> <Gold.Chemscore.Hbond.Weighted>
-4.8724

> <Gold.Chemscore.Metal.Weighted>
-0.0000

> <Gold.Chemscore.Lipo.Weighted>
-10.3093

> <Gold.Chemscore.Internal_Hbond.Weighted>
0.0000

> <Gold.Chemscore.DEClash.Weighted>
0.5176

> <Gold.Chemscore.DEInternal.Weighted>
0.1930

> <Gold.Chemscore.Rot.Weighted>
3.8807

> <Gold.Chemscore.Internal.Correction.Weighted>
   9.000000E+99

> <Gold.Protein.RotatedTorsions>
[ 6907 6896 6895 6894 ] final   69.70 input  -60.11 | X-H torsion
[ 7974 7965 7964 7962 ] final -176.37 input  175.53 | X-H torsion
[ 8008 7997 7996 7995 ] final  -27.67 input   59.86 | X-H torsion
[ 10167 10162 10161 10158 ] final   29.00 input  -65.29 | X-H torsion
[ 10718 10713 10712 10709 ] final   55.60 input   66.30 | X-H torsion
[ 10763 10752 10751 10750 ] final  -55.91 input  -60.55 | X-H torsion
[ 11005 11000 10999 10996 ] final   96.88 input  -57.11 | X-H torsion

> <Gold.Protein.ActiveResidues>
 VAL166  LYS551  ARG553  GLY616  TRP617  ASP618  TYR619  PRO620  LYS621  CYS622 
 ASP623  PHE694  ASN695  SER759  ASP760  ASP761  ALA762  ILE779  LEU786  VAL792 
 PHE793  MET794  SER795  GLU796  ALA797  LYS798  CYS799  TRP800  GLU811  SER814 

> <Gold.Protein.RotatedAtoms>
  152.4703  134.4977  159.9714 H   0  0  0  0  0  0  0  0  0  0  0  0  # atno 6907 bound_to 6896
  151.5006  133.3499  159.2876 H   0  0  0  0  0  0  0  0  0  0  0  0  # atno 6908 bound_to 6896
  150.8709  134.8110  159.7215 H   0  0  0  0  0  0  0  0  0  0  0  0  # atno 6909 bound_to 6896
  144.7127  140.1180  143.6407 H   0  0  0  0  0  0  0  0  0  0  0  0  # atno 7974 bound_to 7965
  154.4367  140.1866  156.0968 H   0  0  0  0  0  0  0  0  0  0  0  0  # atno 8008 bound_to 7997
  156.0323  140.3329  155.7127 H   0  0  0  0  0  0  0  0  0  0  0  0  # atno 8009 bound_to 7997
  155.5821  140.0622  157.2771 H   0  0  0  0  0  0  0  0  0  0  0  0  # atno 8010 bound_to 7997
  140.4804  144.0625  150.6263 H   0  0  0  0  0  0  0  0  0  0  0  0  # atno 10167 bound_to 10162
  157.5359  130.8663  149.8753 H   0  0  0  0  0  0  0  0  0  0  0  0  # atno 10718 bound_to 10713
  154.1982  135.6415  153.5079 H   0  0  0  0  0  0  0  0  0  0  0  0  # atno 10763 bound_to 10752
  153.0018  135.5445  154.6343 H   0  0  0  0  0  0  0  0  0  0  0  0  # atno 10764 bound_to 10752
  154.5749  135.2920  155.0763 H   0  0  0  0  0  0  0  0  0  0  0  0  # atno 10765 bound_to 10752
  139.8779  134.8973  156.4225 H   0  0  0  0  0  0  0  0  0  0  0  0  # atno 11005 bound_to 11000
  145.9396  139.2660  143.1276 LP  0  0  0  0  0  0  0  0  0  0  0  0  # atno 17320 bound_to 7965
  145.9437  140.8960  143.0294 LP  0  0  0  0  0  0  0  0  0  0  0  0  # atno 17321 bound_to 7965
  140.3866  143.2774  152.0109 LP  0  0  0  0  0  0  0  0  0  0  0  0  # atno 17342 bound_to 10162
  139.4832  144.6112  151.7430 LP  0  0  0  0  0  0  0  0  0  0  0  0  # atno 17343 bound_to 10162
  156.0458  130.3728  150.1321 LP  0  0  0  0  0  0  0  0  0  0  0  0  # atno 17370 bound_to 10713
  156.9503  130.9773  151.3499 LP  0  0  0  0  0  0  0  0  0  0  0  0  # atno 17371 bound_to 10713
  140.9124  133.7702  155.9807 LP  0  0  0  0  0  0  0  0  0  0  0  0  # atno 17394 bound_to 11000
  140.8532  134.2930  157.5266 LP  0  0  0  0  0  0  0  0  0  0  0  0  # atno 17395 bound_to 11000

$$$$
