AV-unprocessed.smi:2978|AV-procd|sdf|11368|dock3
  -GOLD-   2272016283D 1   1.00000     0.00000
 Structure written by MMmdl.
 32 33  0  0  0  0  0  0  0  0  1 V2000
  150.3686  140.2653  154.9121 O   0  0  0  0  0  0  0  0  0  0  0  0
  149.6994  141.2922  155.0364 C   0  0  0  0  0  0  0  0  0  0  0  0
  148.7591  141.7574  153.9148 C   0  0  0  0  0  0  0  0  0  0  0  0
  147.3812  141.9942  154.3703 N   0  0  0  0  0  0  0  0  0  0  0  0
  146.8745  143.2323  154.0153 N   0  0  0  0  0  0  0  0  0  0  0  0
  145.6684  143.5422  154.3458 C   0  0  0  0  0  0  0  0  0  0  0  0
  144.8155  142.6381  155.0852 C   0  0  0  0  0  0  0  0  0  0  0  0
  143.2050  143.1094  155.4992 Cl  0  0  0  0  0  0  0  0  0  0  0  0
  145.3245  141.4301  155.4349 C   0  0  0  0  0  0  0  0  0  0  0  0
  144.3657  140.2961  156.3234 Cl  0  0  0  0  0  0  0  0  0  0  0  0
  146.6957  141.0424  155.0758 C   0  0  0  0  0  0  0  0  0  0  0  0
  147.1952  139.9573  155.3768 O   0  0  0  0  0  0  0  0  0  0  0  0
  149.7535  142.0793  156.1216 N   0  0  0  0  0  0  0  0  0  0  0  0
  150.5803  141.8424  157.3005 C   0  0  0  0  0  0  0  0  0  0  0  0
  150.6746  143.0917  158.1929 C   0  0  2  0  0  0  0  0  0  0  0  0
  151.6602  144.1591  157.7146 C   0  0  0  0  0  0  0  0  0  0  0  0
  151.9914  144.8691  159.0066 C   0  0  0  0  0  0  0  0  0  0  0  0
  152.0351  143.7080  159.9954 C   0  0  0  0  0  0  0  0  0  0  0  0
  151.1252  142.7305  159.4959 O   0  0  0  0  0  0  0  0  0  0  0  0
  149.1588  142.6621  153.4525 H   0  0  0  0  0  0  0  0  0  0  0  0
  148.7721  140.9989  153.1303 H   0  0  0  0  0  0  0  0  0  0  0  0
  145.2264  144.5042  154.0859 H   0  0  0  0  0  0  0  0  0  0  0  0
  149.1743  142.9064  156.1339 H   0  0  0  0  0  0  0  0  0  0  0  0
  150.1236  141.0290  157.8649 H   0  0  0  0  0  0  0  0  0  0  0  0
  151.5764  141.4949  157.0213 H   0  0  0  0  0  0  0  0  0  0  0  0
  149.6869  143.5422  158.3062 H   0  0  0  0  0  0  0  0  0  0  0  0
  152.5596  143.6979  157.3040 H   0  0  0  0  0  0  0  0  0  0  0  0
  151.2387  144.8214  156.9579 H   0  0  0  0  0  0  0  0  0  0  0  0
  152.9267  145.4278  158.9633 H   0  0  0  0  0  0  0  0  0  0  0  0
  151.1896  145.5601  159.2706 H   0  0  0  0  0  0  0  0  0  0  0  0
  153.0329  143.2683  160.0218 H   0  0  0  0  0  0  0  0  0  0  0  0
  151.7738  144.0151  161.0082 H   0  0  0  0  0  0  0  0  0  0  0  0
  1  2  2  0  0  0  0
  2  3  1  0  0  0  0
  2 13  1  0  0  0  0
  3  4  1  0  0  0  0
  3 20  1  0  0  0  0
  3 21  1  0  0  0  0
  4 11  1  0  0  0  0
  4  5  1  0  0  0  0
  5  6  2  0  0  0  0
  6  7  1  0  0  0  0
  6 22  1  0  0  0  0
  7  8  1  0  0  0  0
  7  9  2  0  0  0  0
  9 10  1  0  0  0  0
  9 11  1  0  0  0  0
 11 12  2  0  0  0  0
 13 14  1  0  0  0  0
 13 23  1  0  0  0  0
 14 15  1  0  0  0  0
 14 24  1  0  0  0  0
 14 25  1  0  0  0  0
 15 19  1  0  0  0  0
 15 16  1  0  0  0  0
 15 26  1  0  0  0  0
 16 17  1  0  0  0  0
 16 27  1  0  0  0  0
 16 28  1  0  0  0  0
 17 18  1  0  0  0  0
 17 29  1  0  0  0  0
 17 30  1  0  0  0  0
 18 19  1  0  0  0  0
 18 31  1  0  0  0  0
 18 32  1  0  0  0  0
M  END
> <s_m_source_file>
AV-unprocessed.smi

> <i_m_source_file_index>
2978

> <i_lp_mmshare_version>
43012

> <i_f3d_flags>
0

> <s_epik_input>
TzFbQ0gyXVtDSDJdW0NIMl1bQ0BIXTFbQ0gyXVtOSF1DKD1PKVtDSDJdbjJuW2NIXWMoQ2wpYyhDbCljMj1P

> <s_epik_cmdline>
J2VwaWtfcHl0aG9uJywgJy1waCcsICc3LjAnLCAnLXRuJywgJzgnLCAnLW1hJywgJzIwMCcsICctbWV0YWxfYmluZGluZycsICctaW1hZScsICc8aW5maWxlLm1hZT4nLCAnLW9tYWUnLCAnPG91dGZpbGUubWFlPic=

> <r_lp_tautomer_probability>
1

> <r_epik_Ionization_Penalty>
2.68881e-08

> <r_epik_Ionization_Penalty_Charging>
2.90862e-11

> <r_epik_Ionization_Penalty_Neutral>
2.6859e-08

> <r_epik_State_Penalty>
-0

> <r_epik_Charging_Adjusted_Penalty>
2.90862e-11

> <i_epik_Tot_Q>
0

> <i_epik_Tot_abs_Q>
0

> <r_epik_Metal_State_Penalty>
-0

> <b_epik_Metal_Only>
0

> <s_lp_Force_Field>
OPLS_2005

> <r_lp_Energy>
31.3125

> <b_lp_Chiralities_Consistent>
1

> <s_lp_Variant>
AV-unprocessed.smi:2978-1

> <Gold.Version>
5.8.1

> <Gold.Id.Protein>
6NUR|6NUR_protein|mol2

> <Gold.PLP.Fitness>
41.1128

> <Gold.PLP.PLP>
-35.8053

> <Gold.PLP.part.hbond>
-2.8537

> <Gold.PLP.part.metal>
0.0000

> <Gold.PLP.part.buried>
-2.7546

> <Gold.PLP.part.nonpolar>
-31.9794

> <Gold.PLP.part.repulsive>
1.2599

> <Gold.PLP.ligand.clash>
0.0000

> <Gold.PLP.ligand.torsion>
0.3500

> <Gold.PLP.Chemscore.Hbond>
2.0000

> <Gold.PLP.Chemscore.CHOScore>
0.0000

> <Gold.PLP.Chemscore.Metal>
0.0000

> <Gold.Chemscore.Hbonds>
donor molecule, donor type, donor heavy atom, donor atom, acceptor molecule, acceptor atom, score
      L1  H    13    23       P1  8028  1.00
      P1  H  7989  7998       L1     1  0.95
      P1  H  8022  8030       L1     5  0.12

> <Gold.PLP.Chemscore.Internal.Correction>
0.0076

> <Gold.Rescore>
     Score         DG    S(hbond)    S(metal)    S(lipo)     H(rot)  DE(clash)    DE(int)     intcor
     12.90     -14.71       1.59        0.00      73.68       1.83       0.38       1.43       ----

> <Gold.Chemscore.Fitness>
12.9011

> <Gold.Chemscore.DG>
-14.7069

> <Gold.Chemscore.ZeroCoef>
-5.4800

> <Gold.Chemscore.Hbond>
1.5859

> <Gold.Chemscore.Metal>
0.0000

> <Gold.Chemscore.Lipo>
73.6754

> <Gold.Chemscore.Internal_Hbond>
0.0000

> <Gold.Chemscore.DEClash>
0.3764

> <Gold.Chemscore.DEInternal>
1.4294

> <Gold.Chemscore.Rot>
1.8320

> <Gold.Chemscore.Internal.Correction>
   9.000000E+99

> <Gold.Chemscore.Hbonds>
donor molecule, donor type, donor heavy atom, donor atom, acceptor molecule, acceptor atom, score
      L1  H    13    23       P1  8028  0.94
      P1  H  7989  7998       L1     1  0.21
      P1  H  8022  8030       L1     5  0.10

> <Gold.Chemscore.Hbond.Weighted>
-5.2969

> <Gold.Chemscore.Metal.Weighted>
-0.0000

> <Gold.Chemscore.Lipo.Weighted>
-8.6200

> <Gold.Chemscore.Internal_Hbond.Weighted>
0.0000

> <Gold.Chemscore.DEClash.Weighted>
0.3764

> <Gold.Chemscore.DEInternal.Weighted>
1.4294

> <Gold.Chemscore.Rot.Weighted>
4.6900

> <Gold.Chemscore.Internal.Correction.Weighted>
   9.000000E+99

> <Gold.Protein.RotatedTorsions>
[ 6907 6896 6895 6894 ] final  -98.61 input  -60.11 | X-H torsion
[ 7974 7965 7964 7962 ] final -144.48 input  175.53 | X-H torsion
[ 8008 7997 7996 7995 ] final  -91.42 input   59.86 | X-H torsion
[ 10167 10162 10161 10158 ] final  142.80 input  -65.29 | X-H torsion
[ 10718 10713 10712 10709 ] final   59.46 input   66.30 | X-H torsion
[ 10763 10752 10751 10750 ] final  124.56 input  -60.55 | X-H torsion
[ 11005 11000 10999 10996 ] final  -71.38 input  -57.11 | X-H torsion

> <Gold.Protein.ActiveResidues>
 VAL166  LYS551  ARG553  GLY616  TRP617  ASP618  TYR619  PRO620  LYS621  CYS622 
 ASP623  PHE694  ASN695  SER759  ASP760  ASP761  ALA762  ILE779  LEU786  VAL792 
 PHE793  MET794  SER795  GLU796  ALA797  LYS798  CYS799  TRP800  GLU811  SER814 

> <Gold.Protein.RotatedAtoms>
  150.7052  134.1168  159.4019 H   0  0  0  0  0  0  0  0  0  0  0  0  # atno 6907 bound_to 6896
  151.9154  135.0319  160.0527 H   0  0  0  0  0  0  0  0  0  0  0  0  # atno 6908 bound_to 6896
  152.2301  133.5016  159.5247 H   0  0  0  0  0  0  0  0  0  0  0  0  # atno 6909 bound_to 6896
  144.8294  140.5704  143.5525 H   0  0  0  0  0  0  0  0  0  0  0  0  # atno 7974 bound_to 7965
  154.7105  140.0520  157.0545 H   0  0  0  0  0  0  0  0  0  0  0  0  # atno 8008 bound_to 7997
  155.0562  140.3184  155.4657 H   0  0  0  0  0  0  0  0  0  0  0  0  # atno 8009 bound_to 7997
  156.2788  140.2107  156.5688 H   0  0  0  0  0  0  0  0  0  0  0  0  # atno 8010 bound_to 7997
  139.4985  144.6083  151.6330 H   0  0  0  0  0  0  0  0  0  0  0  0  # atno 10167 bound_to 10162
  157.5677  130.8884  149.9215 H   0  0  0  0  0  0  0  0  0  0  0  0  # atno 10718 bound_to 10713
  153.6633  135.3343  155.3133 H   0  0  0  0  0  0  0  0  0  0  0  0  # atno 10763 bound_to 10752
  154.8509  135.4369  154.1782 H   0  0  0  0  0  0  0  0  0  0  0  0  # atno 10764 bound_to 10752
  153.2754  135.7004  153.7514 H   0  0  0  0  0  0  0  0  0  0  0  0  # atno 10765 bound_to 10752
  141.1591  133.6816  156.6897 H   0  0  0  0  0  0  0  0  0  0  0  0  # atno 11005 bound_to 11000
  145.4928  139.1487  143.3700 LP  0  0  0  0  0  0  0  0  0  0  0  0  # atno 17320 bound_to 7965
  146.2598  140.5067  142.8858 LP  0  0  0  0  0  0  0  0  0  0  0  0  # atno 17321 bound_to 7965
  140.5750  144.0043  150.6237 LP  0  0  0  0  0  0  0  0  0  0  0  0  # atno 17342 bound_to 10162
  140.3174  143.3159  152.0819 LP  0  0  0  0  0  0  0  0  0  0  0  0  # atno 17343 bound_to 10162
  156.0725  130.3683  150.0747 LP  0  0  0  0  0  0  0  0  0  0  0  0  # atno 17370 bound_to 10713
  156.8903  130.9586  151.3589 LP  0  0  0  0  0  0  0  0  0  0  0  0  # atno 17371 bound_to 10713
  140.3040  134.8140  157.4121 LP  0  0  0  0  0  0  0  0  0  0  0  0  # atno 17394 bound_to 11000
  140.1237  134.5186  155.8162 LP  0  0  0  0  0  0  0  0  0  0  0  0  # atno 17395 bound_to 11000

$$$$
