AV-unprocessed.smi:1084|AV-procd|sdf|4718|dock5
  -GOLD-   22720 3243D 1   1.00000     0.00000
 Structure written by MMmdl.
 53 55  0  0  0  0  0  0  0  0  2 V2000
  144.0686  136.2209  152.9288 C   0  0  0  0  0  0  0  0  0  0  0  0
  145.5893  136.4754  153.0430 C   0  0  2  0  0  0  0  0  0  0  0  0
  145.9817  137.7913  152.3150 C   0  0  0  0  0  0  0  0  0  0  0  0
  147.3233  138.2564  152.6606 N   0  0  0  0  0  0  0  0  0  0  0  0
  147.6540  138.9351  153.7689 C   0  0  0  0  0  0  0  0  0  0  0  0
  146.8454  139.2302  154.6477 O   0  0  0  0  0  0  0  0  0  0  0  0
  148.9642  139.2355  153.7737 N   0  0  0  0  0  0  0  0  0  0  0  0
  149.7351  139.9222  154.7526 C   0  0  0  0  0  0  0  0  0  0  0  0
  151.0626  139.5982  155.1207 C   0  0  0  0  0  0  0  0  0  0  0  0
  151.7078  140.3758  156.1019 C   0  0  0  0  0  0  0  0  0  0  0  0
  151.0181  141.4599  156.6938 C   0  0  0  0  0  0  0  0  0  0  0  0
  151.6492  142.2541  157.6759 N   0  0  0  0  0  0  0  0  0  0  0  0
  151.1092  143.5891  157.9278 C   0  0  0  0  0  0  0  0  0  0  0  0
  152.0794  144.4048  158.7986 C   0  0  0  0  0  0  0  0  0  0  0  0
  152.3595  143.6920  159.9987 O   0  0  0  0  0  0  0  0  0  0  0  0
  152.9868  142.4411  159.7363 C   0  0  0  0  0  0  0  0  0  0  0  0
  152.0543  141.5543  158.8924 C   0  0  0  0  0  0  0  0  0  0  0  0
  149.7496  141.7718  156.3328 N   0  0  0  0  0  0  0  0  0  0  0  0
  149.1343  141.0234  155.3944 C   0  0  0  0  0  0  0  0  0  0  0  0
  146.3465  135.2726  152.5609 N   0  3  0  0  0  0  0  0  0  0  0  0
  146.5227  134.1764  153.5537 C   0  0  0  0  0  0  0  0  0  0  0  0
  147.3438  133.0181  152.9607 C   0  0  0  0  0  0  0  0  0  0  0  0
  146.7165  132.5349  151.7824 O   0  0  0  0  0  0  0  0  0  0  0  0
  146.6414  133.5419  150.7844 C   0  0  0  0  0  0  0  0  0  0  0  0
  145.7874  134.7118  151.2997 C   0  0  0  0  0  0  0  0  0  0  0  0
  143.4881  137.0457  153.3405 H   0  0  0  0  0  0  0  0  0  0  0  0
  143.7464  135.3346  153.4719 H   0  0  0  0  0  0  0  0  0  0  0  0
  143.7695  136.0966  151.8877 H   0  0  0  0  0  0  0  0  0  0  0  0
  145.8329  136.6150  154.0977 H   0  0  0  0  0  0  0  0  0  0  0  0
  146.0048  137.6401  151.2359 H   0  0  0  0  0  0  0  0  0  0  0  0
  145.2379  138.5671  152.5045 H   0  0  0  0  0  0  0  0  0  0  0  0
  148.0556  138.0581  151.9944 H   0  0  0  0  0  0  0  0  0  0  0  0
  149.4823  138.9412  152.9587 H   0  0  0  0  0  0  0  0  0  0  0  0
  151.6084  138.7836  154.6732 H   0  0  0  0  0  0  0  0  0  0  0  0
  152.7266  140.1430  156.3740 H   0  0  0  0  0  0  0  0  0  0  0  0
  150.9425  144.1133  156.9859 H   0  0  0  0  0  0  0  0  0  0  0  0
  150.1438  143.5003  158.4280 H   0  0  0  0  0  0  0  0  0  0  0  0
  153.0059  144.6119  158.2604 H   0  0  0  0  0  0  0  0  0  0  0  0
  151.6367  145.3682  159.0518 H   0  0  0  0  0  0  0  0  0  0  0  0
  153.9386  142.5994  159.2266 H   0  0  0  0  0  0  0  0  0  0  0  0
  153.2118  141.9521  160.6841 H   0  0  0  0  0  0  0  0  0  0  0  0
  151.1616  141.3021  159.4659 H   0  0  0  0  0  0  0  0  0  0  0  0
  152.5626  140.6173  158.6696 H   0  0  0  0  0  0  0  0  0  0  0  0
  148.1247  141.3176  155.1470 H   0  0  0  0  0  0  0  0  0  0  0  0
  147.0549  134.5306  154.4358 H   0  0  0  0  0  0  0  0  0  0  0  0
  145.5459  133.8152  153.8798 H   0  0  0  0  0  0  0  0  0  0  0  0
  148.3637  133.3375  152.7400 H   0  0  0  0  0  0  0  0  0  0  0  0
  147.4160  132.2030  153.6808 H   0  0  0  0  0  0  0  0  0  0  0  0
  147.6418  133.8783  150.5076 H   0  0  0  0  0  0  0  0  0  0  0  0
  146.1906  133.1149  149.8885 H   0  0  0  0  0  0  0  0  0  0  0  0
  144.7659  134.3703  151.4746 H   0  0  0  0  0  0  0  0  0  0  0  0
  145.7361  135.4685  150.5194 H   0  0  0  0  0  0  0  0  0  0  0  0
  147.2793  135.5975  152.3488 H   0  0  0  0  0  0  0  0  0  0  0  0
  1  2  1  0  0  0  0
  1 26  1  0  0  0  0
  1 27  1  0  0  0  0
  1 28  1  0  0  0  0
  2  3  1  0  0  0  0
  2 20  1  0  0  0  0
  2 29  1  0  0  0  0
  3  4  1  0  0  0  0
  3 30  1  0  0  0  0
  3 31  1  0  0  0  0
  4  5  1  0  0  0  0
  4 32  1  0  0  0  0
  5  6  2  0  0  0  0
  5  7  1  0  0  0  0
  7  8  1  0  0  0  0
  7 33  1  0  0  0  0
  8 19  1  0  0  0  0
  8  9  2  0  0  0  0
  9 10  1  0  0  0  0
  9 34  1  0  0  0  0
 10 11  2  0  0  0  0
 10 35  1  0  0  0  0
 11 12  1  0  0  0  0
 11 18  1  0  0  0  0
 12 17  1  0  0  0  0
 12 13  1  0  0  0  0
 13 14  1  0  0  0  0
 13 36  1  0  0  0  0
 13 37  1  0  0  0  0
 14 15  1  0  0  0  0
 14 38  1  0  0  0  0
 14 39  1  0  0  0  0
 15 16  1  0  0  0  0
 16 17  1  0  0  0  0
 16 40  1  0  0  0  0
 16 41  1  0  0  0  0
 17 42  1  0  0  0  0
 17 43  1  0  0  0  0
 18 19  2  0  0  0  0
 19 44  1  0  0  0  0
 20 25  1  0  0  0  0
 20 21  1  0  0  0  0
 20 53  1  0  0  0  0
 21 22  1  0  0  0  0
 21 45  1  0  0  0  0
 21 46  1  0  0  0  0
 22 23  1  0  0  0  0
 22 47  1  0  0  0  0
 22 48  1  0  0  0  0
 23 24  1  0  0  0  0
 24 25  1  0  0  0  0
 24 49  1  0  0  0  0
 24 50  1  0  0  0  0
 25 51  1  0  0  0  0
 25 52  1  0  0  0  0
M  CHG  1  20   1
M  END
> <s_m_source_file>
AV-unprocessed.smi

> <i_m_source_file_index>
1084

> <i_lp_mmshare_version>
43012

> <i_f3d_flags>
0

> <s_epik_input>
W0NIMl0xW0NIMl1PW0NIMl1bQ0gyXU4xW0NASF0oW0NIM10pW0NIMl1bTkhdQyg9TylbTkhdYzJbY0hdW2NIXWMobltjSF0yKU4zW0NIMl1bQ0gyXU9bQ0gyXVtDSDJdMw==

> <s_epik_cmdline>
J2VwaWtfcHl0aG9uJywgJy1waCcsICc3LjAnLCAnLXRuJywgJzgnLCAnLW1hJywgJzIwMCcsICctbWV0YWxfYmluZGluZycsICctaW1hZScsICc8aW5maWxlLm1hZT4nLCAnLW9tYWUnLCAnPG91dGZpbGUubWFlPic=

> <r_lp_tautomer_probability>
1

> <r_epik_Ionization_Penalty>
0.604236

> <r_epik_Ionization_Penalty_Charging>
0.602531

> <r_epik_Ionization_Penalty_Neutral>
0.00170595

> <r_epik_State_Penalty>
0.59929

> <r_epik_Charging_Adjusted_Penalty>
1.20182

> <i_epik_Tot_Q>
1

> <i_epik_Tot_abs_Q>
1

> <r_epik_Metal_State_Penalty>
0.598238

> <b_epik_Metal_Only>
0

> <s_lp_Force_Field>
OPLS_2005

> <r_lp_Energy>
38.6371

> <b_lp_Chiralities_Consistent>
1

> <s_lp_Variant>
AV-unprocessed.smi:1084-3

> <Gold.Version>
5.8.1

> <Gold.Id.Protein>
6NUR|6NUR_protein|mol2

> <Gold.PLP.Fitness>
52.9839

> <Gold.PLP.PLP>
-46.8694

> <Gold.PLP.part.hbond>
-4.0000

> <Gold.PLP.part.metal>
0.0000

> <Gold.PLP.part.buried>
-4.1198

> <Gold.PLP.part.nonpolar>
-39.7801

> <Gold.PLP.part.repulsive>
1.3035

> <Gold.PLP.ligand.clash>
0.0000

> <Gold.PLP.ligand.torsion>
1.2383

> <Gold.PLP.Chemscore.Hbond>
2.7064

> <Gold.PLP.Chemscore.CHOScore>
0.0000

> <Gold.PLP.Chemscore.Metal>
0.0000

> <Gold.Chemscore.Hbonds>
donor molecule, donor type, donor heavy atom, donor atom, acceptor molecule, acceptor atom, score
      L1  H     4    32       P1  7948  0.48
      L1  H     7    33       P1  7957  0.42
      L1  H    20    53       P1  7948  2.00

> <Gold.PLP.Chemscore.Internal.Correction>
0.4721

> <Gold.Rescore>
     Score         DG    S(hbond)    S(metal)    S(lipo)     H(rot)  DE(clash)    DE(int)     intcor
     17.15     -19.50       1.74        0.00     106.87       1.68       0.23       2.11       ----

> <Gold.Chemscore.Fitness>
17.1481

> <Gold.Chemscore.DG>
-19.4967

> <Gold.Chemscore.ZeroCoef>
-5.4800

> <Gold.Chemscore.Hbond>
1.7408

> <Gold.Chemscore.Metal>
0.0000

> <Gold.Chemscore.Lipo>
106.8653

> <Gold.Chemscore.Internal_Hbond>
0.0000

> <Gold.Chemscore.DEClash>
0.2337

> <Gold.Chemscore.DEInternal>
2.1150

> <Gold.Chemscore.Rot>
1.6800

> <Gold.Chemscore.Internal.Correction>
   9.000000E+99

> <Gold.Chemscore.Hbonds>
donor molecule, donor type, donor heavy atom, donor atom, acceptor molecule, acceptor atom, score
      L1  H     4    32       P1  7948  0.46
      L1  H     7    33       P1  7957  0.39
      L1  H    20    53       P1  7948  1.00

> <Gold.Chemscore.Hbond.Weighted>
-5.8142

> <Gold.Chemscore.Metal.Weighted>
-0.0000

> <Gold.Chemscore.Lipo.Weighted>
-12.5032

> <Gold.Chemscore.Internal_Hbond.Weighted>
0.0000

> <Gold.Chemscore.DEClash.Weighted>
0.2337

> <Gold.Chemscore.DEInternal.Weighted>
2.1150

> <Gold.Chemscore.Rot.Weighted>
4.3007

> <Gold.Chemscore.Internal.Correction.Weighted>
   9.000000E+99

> <Gold.Protein.RotatedTorsions>
[ 6907 6896 6895 6894 ] final  143.76 input  -60.11 | X-H torsion
[ 7974 7965 7964 7962 ] final   45.87 input  175.53 | X-H torsion
[ 8008 7997 7996 7995 ] final -165.90 input   59.86 | X-H torsion
[ 10167 10162 10161 10158 ] final  176.65 input  -65.29 | X-H torsion
[ 10718 10713 10712 10709 ] final  -26.21 input   66.30 | X-H torsion
[ 10763 10752 10751 10750 ] final  178.70 input  -60.55 | X-H torsion
[ 11005 11000 10999 10996 ] final   43.35 input  -57.11 | X-H torsion

> <Gold.Protein.ActiveResidues>
 VAL166  LYS551  ARG553  GLY616  TRP617  ASP618  TYR619  PRO620  LYS621  CYS622 
 ASP623  PHE694  ASN695  SER759  ASP760  ASP761  ALA762  ILE779  LEU786  VAL792 
 PHE793  MET794  SER795  GLU796  ALA797  LYS798  CYS799  TRP800  GLU811  SER814 

> <Gold.Protein.RotatedAtoms>
  152.2022  133.4849  159.5064 H   0  0  0  0  0  0  0  0  0  0  0  0  # atno 6907 bound_to 6896
  150.6972  134.1576  159.4173 H   0  0  0  0  0  0  0  0  0  0  0  0  # atno 6908 bound_to 6896
  151.9493  135.0176  160.0591 H   0  0  0  0  0  0  0  0  0  0  0  0  # atno 6909 bound_to 6896
  146.0441  139.4918  142.9759 H   0  0  0  0  0  0  0  0  0  0  0  0  # atno 7974 bound_to 7965
  155.8563  140.0971  157.1642 H   0  0  0  0  0  0  0  0  0  0  0  0  # atno 8008 bound_to 7997
  154.3988  140.1373  156.3968 H   0  0  0  0  0  0  0  0  0  0  0  0  # atno 8009 bound_to 7997
  155.7906  140.3456  155.5349 H   0  0  0  0  0  0  0  0  0  0  0  0  # atno 8010 bound_to 7997
  139.5222  144.2890  152.0480 H   0  0  0  0  0  0  0  0  0  0  0  0  # atno 10167 bound_to 10162
  156.4542  130.4490  149.6970 H   0  0  0  0  0  0  0  0  0  0  0  0  # atno 10718 bound_to 10713
  154.5110  135.2788  155.1342 H   0  0  0  0  0  0  0  0  0  0  0  0  # atno 10763 bound_to 10752
  154.2938  135.6261  153.5400 H   0  0  0  0  0  0  0  0  0  0  0  0  # atno 10764 bound_to 10752
  152.9919  135.5680  154.5576 H   0  0  0  0  0  0  0  0  0  0  0  0  # atno 10765 bound_to 10752
  140.1653  134.4290  155.8291 H   0  0  0  0  0  0  0  0  0  0  0  0  # atno 11005 bound_to 11000
  145.6834  141.0184  143.1594 LP  0  0  0  0  0  0  0  0  0  0  0  0  # atno 17320 bound_to 7965
  144.7089  139.8448  143.7421 LP  0  0  0  0  0  0  0  0  0  0  0  0  # atno 17321 bound_to 7965
  140.2342  144.4336  150.6287 LP  0  0  0  0  0  0  0  0  0  0  0  0  # atno 17342 bound_to 10162
  140.6334  143.2191  151.6446 LP  0  0  0  0  0  0  0  0  0  0  0  0  # atno 17343 bound_to 10162
  156.3785  130.7567  151.2557 LP  0  0  0  0  0  0  0  0  0  0  0  0  # atno 17370 bound_to 10713
  157.7501  131.0302  150.4129 LP  0  0  0  0  0  0  0  0  0  0  0  0  # atno 17371 bound_to 10713
  141.2213  133.6931  156.7667 LP  0  0  0  0  0  0  0  0  0  0  0  0  # atno 17394 bound_to 11000
  140.2441  134.8591  157.3603 LP  0  0  0  0  0  0  0  0  0  0  0  0  # atno 17395 bound_to 11000

$$$$
