AV-unprocessed.smi:1772|AV-procd|sdf|7161|dock6
  -GOLD-   22720 8403D 1   1.00000     0.00000
 Structure written by MMmdl.
 34 35  0  0  0  0  0  0  0  0  2 V2000
  144.6268  136.7796  151.9014 O   0  0  0  0  0  0  0  0  0  0  0  0
  145.8403  136.5760  151.8765 C   0  0  0  0  0  0  0  0  0  0  0  0
  146.7553  137.5478  152.0011 N   0  0  0  0  0  0  0  0  0  0  0  0
  146.4532  138.9636  152.1863 C   0  0  0  0  0  0  0  0  0  0  0  0
  147.0600  139.5281  153.4864 C   0  0  2  0  0  0  0  0  0  0  0  0
  147.3323  141.0464  153.4287 C   0  0  0  0  0  0  0  0  0  0  0  0
  148.1985  141.4354  154.6299 C   0  0  0  0  0  0  0  0  0  0  0  0
  149.3011  140.0043  154.9252 S   0  0  0  0  0  0  0  0  0  0  0  0
  150.6128  140.2632  154.3124 O   0  0  0  0  0  0  0  0  0  0  0  0
  149.1899  139.5960  156.3335 O   0  0  0  0  0  0  0  0  0  0  0  0
  148.3739  138.8274  153.8678 C   0  0  0  0  0  0  0  0  0  0  0  0
  146.4231  135.3771  151.7009 N   0  0  0  0  0  0  0  0  0  0  0  0
  145.8047  134.1047  151.5634 C   0  0  0  0  0  0  0  0  0  0  0  0
  144.3984  134.0705  151.4337 C   0  0  0  0  0  0  0  0  0  0  0  0
  143.7441  132.8316  151.2759 C   0  0  0  0  0  0  0  0  0  0  0  0
  144.4651  131.6906  151.2392 N   0  3  0  0  0  0  0  0  0  0  0  0
  145.8114  131.6739  151.3441 C   0  0  0  0  0  0  0  0  0  0  0  0
  146.5205  132.8818  151.5049 C   0  0  0  0  0  0  0  0  0  0  0  0
  147.7318  137.2936  151.9655 H   0  0  0  0  0  0  0  0  0  0  0  0
  146.8069  139.5338  151.3256 H   0  0  0  0  0  0  0  0  0  0  0  0
  145.3685  139.0756  152.2014 H   0  0  0  0  0  0  0  0  0  0  0  0
  146.3579  139.3564  154.3039 H   0  0  0  0  0  0  0  0  0  0  0  0
  147.8767  141.2785  152.5124 H   0  0  0  0  0  0  0  0  0  0  0  0
  146.4090  141.6260  153.4062 H   0  0  0  0  0  0  0  0  0  0  0  0
  148.7860  142.3382  154.4612 H   0  0  0  0  0  0  0  0  0  0  0  0
  147.5846  141.5777  155.5196 H   0  0  0  0  0  0  0  0  0  0  0  0
  148.2135  137.8904  154.4015 H   0  0  0  0  0  0  0  0  0  0  0  0
  148.9835  138.6232  152.9871 H   0  0  0  0  0  0  0  0  0  0  0  0
  147.4284  135.3828  151.6085 H   0  0  0  0  0  0  0  0  0  0  0  0
  143.8210  134.9834  151.4594 H   0  0  0  0  0  0  0  0  0  0  0  0
  142.6741  132.7202  151.1758 H   0  0  0  0  0  0  0  0  0  0  0  0
  146.2793  130.7017  151.2900 H   0  0  0  0  0  0  0  0  0  0  0  0
  147.5976  132.8469  151.5658 H   0  0  0  0  0  0  0  0  0  0  0  0
  143.9731  130.8043  151.1221 H   0  0  0  0  0  0  0  0  0  0  0  0
  1  2  2  0  0  0  0
  2  3  1  0  0  0  0
  2 12  1  0  0  0  0
  3  4  1  0  0  0  0
  3 19  1  0  0  0  0
  4  5  1  0  0  0  0
  4 20  1  0  0  0  0
  4 21  1  0  0  0  0
  5 11  1  0  0  0  0
  5  6  1  0  0  0  0
  5 22  1  0  0  0  0
  6  7  1  0  0  0  0
  6 23  1  0  0  0  0
  6 24  1  0  0  0  0
  7  8  1  0  0  0  0
  7 25  1  0  0  0  0
  7 26  1  0  0  0  0
  8  9  2  0  0  0  0
  8 10  2  0  0  0  0
  8 11  1  0  0  0  0
 11 27  1  0  0  0  0
 11 28  1  0  0  0  0
 12 13  1  0  0  0  0
 12 29  1  0  0  0  0
 13 18  1  0  0  0  0
 13 14  2  0  0  0  0
 14 15  1  0  0  0  0
 14 30  1  0  0  0  0
 15 16  2  0  0  0  0
 15 31  1  0  0  0  0
 16 17  1  0  0  0  0
 16 34  1  0  0  0  0
 17 18  2  0  0  0  0
 17 32  1  0  0  0  0
 18 33  1  0  0  0  0
M  CHG  1  16   1
M  END
> <s_m_source_file>
AV-unprocessed.smi

> <i_m_source_file_index>
1772

> <i_lp_mmshare_version>
43012

> <i_f3d_flags>
0

> <s_epik_input>
W2NIXTFbY0hdbltjSF1bY0hdYzFbTkhdQyg9TylbTkhdW0NIMl1bQ0BASF0oW0NIMl0yKVtDSDJdW0NIMl1TMig9Tyk9Tw==

> <s_epik_cmdline>
J2VwaWtfcHl0aG9uJywgJy1waCcsICc3LjAnLCAnLXRuJywgJzgnLCAnLW1hJywgJzIwMCcsICctbWV0YWxfYmluZGluZycsICctaW1hZScsICc8aW5maWxlLm1hZT4nLCAnLW9tYWUnLCAnPG91dGZpbGUubWFlPic=

> <r_epik_Ionization_Penalty>
1.04917

> <r_epik_Ionization_Penalty_Charging>
1.04915

> <r_epik_Ionization_Penalty_Neutral>
1.90771e-05

> <r_epik_State_Penalty>
1.10185

> <r_epik_Charging_Adjusted_Penalty>
2.151

> <i_epik_Tot_Q>
1

> <i_epik_Tot_abs_Q>
1

> <r_epik_Metal_State_Penalty>
1.19638

> <b_epik_Metal_Only>
0

> <s_lp_Force_Field>
OPLS_2005

> <r_lp_Energy>
16.4165

> <b_lp_Chiralities_Consistent>
1

> <s_lp_Variant>
AV-unprocessed.smi:1772-3

> <Gold.Version>
5.8.1

> <Gold.Id.Protein>
6NUR|6NUR_protein|mol2

> <Gold.PLP.Fitness>
38.6353

> <Gold.PLP.PLP>
-30.3809

> <Gold.PLP.part.hbond>
-2.8172

> <Gold.PLP.part.metal>
0.0000

> <Gold.PLP.part.buried>
-5.5086

> <Gold.PLP.part.nonpolar>
-25.3115

> <Gold.PLP.part.repulsive>
2.2749

> <Gold.PLP.ligand.clash>
0.0000

> <Gold.PLP.ligand.torsion>
0.3387

> <Gold.PLP.Chemscore.Hbond>
2.9760

> <Gold.PLP.Chemscore.CHOScore>
0.0000

> <Gold.PLP.Chemscore.Metal>
0.0000

> <Gold.Chemscore.Hbonds>
donor molecule, donor type, donor heavy atom, donor atom, acceptor molecule, acceptor atom, score
      L1  H     3    19       P1  7948  1.00
      L1  H    12    29       P1  7948  1.00
      P1  H  7989  7998       L1     9  0.76

> <Gold.PLP.Chemscore.Internal.Correction>
0.0038

> <Gold.Rescore>
     Score         DG    S(hbond)    S(metal)    S(lipo)     H(rot)  DE(clash)    DE(int)     intcor
     17.09     -19.03       2.88        0.00      62.27       1.32       0.31       1.62       ----

> <Gold.Chemscore.Fitness>
17.0931

> <Gold.Chemscore.DG>
-19.0254

> <Gold.Chemscore.ZeroCoef>
-5.4800

> <Gold.Chemscore.Hbond>
2.8825

> <Gold.Chemscore.Metal>
0.0000

> <Gold.Chemscore.Lipo>
62.2668

> <Gold.Chemscore.Internal_Hbond>
0.0000

> <Gold.Chemscore.DEClash>
0.3107

> <Gold.Chemscore.DEInternal>
1.6216

> <Gold.Chemscore.Rot>
1.3153

> <Gold.Chemscore.Internal.Correction>
   9.000000E+99

> <Gold.Chemscore.Hbonds>
donor molecule, donor type, donor heavy atom, donor atom, acceptor molecule, acceptor atom, score
      L1  H     3    19       P1  7948  0.96
      L1  H    12    29       P1  7948  0.89
      P1  H  7989  7998       L1     9  0.74

> <Gold.Chemscore.Hbond.Weighted>
-9.6275

> <Gold.Chemscore.Metal.Weighted>
-0.0000

> <Gold.Chemscore.Lipo.Weighted>
-7.2852

> <Gold.Chemscore.Internal_Hbond.Weighted>
0.0000

> <Gold.Chemscore.DEClash.Weighted>
0.3107

> <Gold.Chemscore.DEInternal.Weighted>
1.6216

> <Gold.Chemscore.Rot.Weighted>
3.3673

> <Gold.Chemscore.Internal.Correction.Weighted>
   9.000000E+99

> <Gold.Protein.RotatedTorsions>
[ 6907 6896 6895 6894 ] final   83.58 input  -60.11 | X-H torsion
[ 7974 7965 7964 7962 ] final -165.25 input  175.53 | X-H torsion
[ 8008 7997 7996 7995 ] final   54.44 input   59.86 | X-H torsion
[ 10167 10162 10161 10158 ] final   69.29 input  -65.29 | X-H torsion
[ 10718 10713 10712 10709 ] final   76.86 input   66.30 | X-H torsion
[ 10763 10752 10751 10750 ] final  100.33 input  -60.55 | X-H torsion
[ 11005 11000 10999 10996 ] final   -3.45 input  -57.11 | X-H torsion

> <Gold.Protein.ActiveResidues>
 VAL166  LYS551  ARG553  GLY616  TRP617  ASP618  TYR619  PRO620  LYS621  CYS622 
 ASP623  PHE694  ASN695  SER759  ASP760  ASP761  ALA762  ILE779  LEU786  VAL792 
 PHE793  MET794  SER795  GLU796  ALA797  LYS798  CYS799  TRP800  GLU811  SER814 

> <Gold.Protein.RotatedAtoms>
  152.5331  134.2874  159.9029 H   0  0  0  0  0  0  0  0  0  0  0  0  # atno 6907 bound_to 6896
  151.2827  133.4196  159.2635 H   0  0  0  0  0  0  0  0  0  0  0  0  # atno 6908 bound_to 6896
  151.0270  134.9527  159.8147 H   0  0  0  0  0  0  0  0  0  0  0  0  # atno 6909 bound_to 6896
  144.7275  140.2841  143.6231 H   0  0  0  0  0  0  0  0  0  0  0  0  # atno 7974 bound_to 7965
  155.4848  140.3469  155.4345 H   0  0  0  0  0  0  0  0  0  0  0  0  # atno 8008 bound_to 7997
  156.1015  140.1437  156.9489 H   0  0  0  0  0  0  0  0  0  0  0  0  # atno 8009 bound_to 7997
  154.4697  140.0905  156.7090 H   0  0  0  0  0  0  0  0  0  0  0  0  # atno 8010 bound_to 7997
  140.0694  144.5165  150.7237 H   0  0  0  0  0  0  0  0  0  0  0  0  # atno 10167 bound_to 10162
  157.6689  130.9794  150.1557 H   0  0  0  0  0  0  0  0  0  0  0  0  # atno 10718 bound_to 10713
  153.3126  135.4082  155.1349 H   0  0  0  0  0  0  0  0  0  0  0  0  # atno 10763 bound_to 10752
  154.8580  135.3568  154.5703 H   0  0  0  0  0  0  0  0  0  0  0  0  # atno 10764 bound_to 10752
  153.6133  135.7067  153.5397 H   0  0  0  0  0  0  0  0  0  0  0  0  # atno 10765 bound_to 10752
  140.6694  133.9250  155.8485 H   0  0  0  0  0  0  0  0  0  0  0  0  # atno 11005 bound_to 11000
  145.7920  139.1931  143.2097 LP  0  0  0  0  0  0  0  0  0  0  0  0  # atno 17320 bound_to 7965
  146.0748  140.7830  142.9670 LP  0  0  0  0  0  0  0  0  0  0  0  0  # atno 17321 bound_to 7965
  140.7133  143.2523  151.4514 LP  0  0  0  0  0  0  0  0  0  0  0  0  # atno 17342 bound_to 10162
  139.5845  144.1636  152.2011 LP  0  0  0  0  0  0  0  0  0  0  0  0  # atno 17343 bound_to 10162
  156.2346  130.3685  149.8406 LP  0  0  0  0  0  0  0  0  0  0  0  0  # atno 17370 bound_to 10713
  156.6223  130.8631  151.3478 LP  0  0  0  0  0  0  0  0  0  0  0  0  # atno 17371 bound_to 10713
  141.0404  134.0630  157.3909 LP  0  0  0  0  0  0  0  0  0  0  0  0  # atno 17394 bound_to 11000
  139.8986  135.0155  156.7158 LP  0  0  0  0  0  0  0  0  0  0  0  0  # atno 17395 bound_to 11000

$$$$
