AV-unprocessed.smi:773|AV-procd|sdf|3690|dock3
  -GOLD-   22720 1103D 1   1.00000     0.00000
 Structure written by MMmdl.
 39 40  0  0  0  0  0  0  0  0  1 V2000
  147.1095  141.9415  153.9772 C   0  0  0  0  0  0  0  0  0  0  0  0
  148.2706  140.9936  154.0638 C   0  0  0  0  0  0  0  0  0  0  0  0
  149.5047  141.4651  154.0066 N   0  0  0  0  0  0  0  0  0  0  0  0
  150.3442  140.3502  154.0894 O   0  0  0  0  0  0  0  0  0  0  0  0
  149.5729  139.2385  154.1957 C   0  0  0  0  0  0  0  0  0  0  0  0
  150.2859  137.9317  154.2742 C   0  0  0  0  0  0  0  0  0  0  0  0
  148.2474  139.5747  154.1897 C   0  0  0  0  0  0  0  0  0  0  0  0
  147.0445  138.6658  154.2638 C   0  0  0  0  0  0  0  0  0  0  0  0
  146.3307  138.4875  152.9046 C   0  0  1  0  0  0  0  0  0  0  0  0
  146.7147  139.5932  151.9121 C   0  0  0  0  0  0  0  0  0  0  0  0
  146.6333  137.1825  152.3154 N   0  0  0  0  0  0  0  0  0  0  0  0
  145.7469  136.2006  152.0932 C   0  0  0  0  0  0  0  0  0  0  0  0
  144.5345  136.3038  152.2822 O   0  0  0  0  0  0  0  0  0  0  0  0
  146.3464  135.0753  151.6848 N   0  0  0  0  0  0  0  0  0  0  0  0
  145.6551  133.8078  151.4890 C   0  0  0  0  0  0  0  0  0  0  0  0
  146.3252  132.9000  150.4456 C   0  0  0  0  0  0  0  0  0  0  0  0
  144.9160  132.5712  149.9384 C   0  0  0  0  0  0  0  0  0  0  0  0
  144.4674  133.9166  150.5238 C   0  0  0  0  0  0  0  0  0  0  0  0
  146.3678  141.5840  153.2628 H   0  0  0  0  0  0  0  0  0  0  0  0
  147.4221  142.9357  153.6554 H   0  0  0  0  0  0  0  0  0  0  0  0
  146.6177  142.0433  154.9446 H   0  0  0  0  0  0  0  0  0  0  0  0
  149.8700  137.3111  155.0680 H   0  0  0  0  0  0  0  0  0  0  0  0
  151.3475  138.0738  154.4773 H   0  0  0  0  0  0  0  0  0  0  0  0
  150.1921  137.3871  153.3346 H   0  0  0  0  0  0  0  0  0  0  0  0
  147.3357  137.6852  154.6418 H   0  0  0  0  0  0  0  0  0  0  0  0
  146.3291  139.0508  154.9913 H   0  0  0  0  0  0  0  0  0  0  0  0
  145.2556  138.5643  153.0758 H   0  0  0  0  0  0  0  0  0  0  0  0
  146.4792  140.5791  152.3139 H   0  0  0  0  0  0  0  0  0  0  0  0
  146.1721  139.4830  150.9726 H   0  0  0  0  0  0  0  0  0  0  0  0
  147.7813  139.5724  151.6853 H   0  0  0  0  0  0  0  0  0  0  0  0
  147.6050  136.9911  152.1212 H   0  0  0  0  0  0  0  0  0  0  0  0
  147.3474  135.0798  151.5551 H   0  0  0  0  0  0  0  0  0  0  0  0
  145.3995  133.2787  152.4094 H   0  0  0  0  0  0  0  0  0  0  0  0
  146.9227  133.4434  149.7104 H   0  0  0  0  0  0  0  0  0  0  0  0
  146.8714  132.0533  150.8622 H   0  0  0  0  0  0  0  0  0  0  0  0
  144.8274  132.4905  148.8548 H   0  0  0  0  0  0  0  0  0  0  0  0
  144.4700  131.7153  150.4479 H   0  0  0  0  0  0  0  0  0  0  0  0
  143.4872  133.9014  151.0011 H   0  0  0  0  0  0  0  0  0  0  0  0
  144.5574  134.7363  149.8083 H   0  0  0  0  0  0  0  0  0  0  0  0
  1  2  1  0  0  0  0
  1 19  1  0  0  0  0
  1 20  1  0  0  0  0
  1 21  1  0  0  0  0
  2  7  1  0  0  0  0
  2  3  2  0  0  0  0
  3  4  1  0  0  0  0
  4  5  1  0  0  0  0
  5  6  1  0  0  0  0
  5  7  2  0  0  0  0
  6 22  1  0  0  0  0
  6 23  1  0  0  0  0
  6 24  1  0  0  0  0
  7  8  1  0  0  0  0
  8  9  1  0  0  0  0
  8 25  1  0  0  0  0
  8 26  1  0  0  0  0
  9 10  1  0  0  0  0
  9 11  1  0  0  0  0
  9 27  1  0  0  0  0
 10 28  1  0  0  0  0
 10 29  1  0  0  0  0
 10 30  1  0  0  0  0
 11 12  1  0  0  0  0
 11 31  1  0  0  0  0
 12 13  2  0  0  0  0
 12 14  1  0  0  0  0
 14 15  1  0  0  0  0
 14 32  1  0  0  0  0
 15 18  1  0  0  0  0
 15 16  1  0  0  0  0
 15 33  1  0  0  0  0
 16 17  1  0  0  0  0
 16 34  1  0  0  0  0
 16 35  1  0  0  0  0
 17 18  1  0  0  0  0
 17 36  1  0  0  0  0
 17 37  1  0  0  0  0
 18 38  1  0  0  0  0
 18 39  1  0  0  0  0
M  END
> <s_m_source_file>
AV-unprocessed.smi

> <i_m_source_file_index>
773

> <i_lp_mmshare_version>
43012

> <i_f3d_flags>
0

> <s_epik_input>
W0NIM11jMW5vYyhbQ0gzXSljMVtDSDJdW0NASF0oW0NIM10pW05IXUMoPU8pW05IXVtDSF0yW0NIMl1bQ0gyXVtDSDJdMg==

> <s_epik_cmdline>
J2VwaWtfcHl0aG9uJywgJy1waCcsICc3LjAnLCAnLXRuJywgJzgnLCAnLW1hJywgJzIwMCcsICctbWV0YWxfYmluZGluZycsICctaW1hZScsICc8aW5maWxlLm1hZT4nLCAnLW9tYWUnLCAnPG91dGZpbGUubWFlPic=

> <r_lp_tautomer_probability>
1

> <r_epik_Ionization_Penalty>
6.63278e-05

> <r_epik_Ionization_Penalty_Charging>
0

> <r_epik_Ionization_Penalty_Neutral>
6.63278e-05

> <r_epik_State_Penalty>
-0

> <r_epik_Charging_Adjusted_Penalty>
0

> <i_epik_Tot_Q>
0

> <i_epik_Tot_abs_Q>
0

> <r_epik_Metal_State_Penalty>
-0

> <b_epik_Metal_Only>
0

> <s_lp_Force_Field>
OPLS_2005

> <r_lp_Energy>
6.89309

> <b_lp_Chiralities_Consistent>
1

> <s_lp_Variant>
AV-unprocessed.smi:773-2

> <Gold.Version>
5.8.1

> <Gold.Id.Protein>
6NUR|6NUR_protein|mol2

> <Gold.PLP.Fitness>
42.2390

> <Gold.PLP.PLP>
-33.5761

> <Gold.PLP.part.hbond>
-4.8202

> <Gold.PLP.part.metal>
0.0000

> <Gold.PLP.part.buried>
-1.7247

> <Gold.PLP.part.nonpolar>
-28.7185

> <Gold.PLP.part.repulsive>
0.7703

> <Gold.PLP.ligand.clash>
0.1701

> <Gold.PLP.ligand.torsion>
1.0027

> <Gold.PLP.Chemscore.Hbond>
3.5280

> <Gold.PLP.Chemscore.CHOScore>
0.0000

> <Gold.PLP.Chemscore.Metal>
0.0000

> <Gold.Chemscore.Hbonds>
donor molecule, donor type, donor heavy atom, donor atom, acceptor molecule, acceptor atom, score
      L1  H    11    31       P1  7948  1.00
      L1  H    14    32       P1  7948  0.85
      P1  H  7989  7998       L1     4  0.86
      P1  H  8011  8017       L1     3  0.69

> <Gold.PLP.Chemscore.Internal.Correction>
0.2544

> <Gold.Rescore>
     Score         DG    S(hbond)    S(metal)    S(lipo)     H(rot)  DE(clash)    DE(int)     intcor
     17.35     -19.63       2.70        0.00      78.10       1.56       0.28       2.00       ----

> <Gold.Chemscore.Fitness>
17.3487

> <Gold.Chemscore.DG>
-19.6289

> <Gold.Chemscore.ZeroCoef>
-5.4800

> <Gold.Chemscore.Hbond>
2.6980

> <Gold.Chemscore.Metal>
0.0000

> <Gold.Chemscore.Lipo>
78.0987

> <Gold.Chemscore.Internal_Hbond>
0.0000

> <Gold.Chemscore.DEClash>
0.2841

> <Gold.Chemscore.DEInternal>
1.9961

> <Gold.Chemscore.Rot>
1.5625

> <Gold.Chemscore.Internal.Correction>
   9.000000E+99

> <Gold.Chemscore.Hbonds>
donor molecule, donor type, donor heavy atom, donor atom, acceptor molecule, acceptor atom, score
      L1  H    11    31       P1  7948  0.95
      L1  H    14    32       P1  7948  0.66
      P1  H  7989  7998       L1     4  0.28
      P1  H  8011  8017       L1     3  0.41

> <Gold.Chemscore.Hbond.Weighted>
-9.0114

> <Gold.Chemscore.Metal.Weighted>
-0.0000

> <Gold.Chemscore.Lipo.Weighted>
-9.1375

> <Gold.Chemscore.Internal_Hbond.Weighted>
0.0000

> <Gold.Chemscore.DEClash.Weighted>
0.2841

> <Gold.Chemscore.DEInternal.Weighted>
1.9961

> <Gold.Chemscore.Rot.Weighted>
4.0000

> <Gold.Chemscore.Internal.Correction.Weighted>
   9.000000E+99

> <Gold.Protein.RotatedTorsions>
[ 6907 6896 6895 6894 ] final  -58.77 input  -60.11 | X-H torsion
[ 7974 7965 7964 7962 ] final -111.59 input  175.53 | X-H torsion
[ 8008 7997 7996 7995 ] final  174.65 input   59.86 | X-H torsion
[ 10167 10162 10161 10158 ] final  -28.59 input  -65.29 | X-H torsion
[ 10718 10713 10712 10709 ] final  -97.95 input   66.30 | X-H torsion
[ 10763 10752 10751 10750 ] final   73.88 input  -60.55 | X-H torsion
[ 11005 11000 10999 10996 ] final   76.98 input  -57.11 | X-H torsion

> <Gold.Protein.ActiveResidues>
 VAL166  LYS551  ARG553  GLY616  TRP617  ASP618  TYR619  PRO620  LYS621  CYS622 
 ASP623  PHE694  ASN695  SER759  ASP760  ASP761  ALA762  ILE779  LEU786  VAL792 
 PHE793  MET794  SER795  GLU796  ALA797  LYS798  CYS799  TRP800  GLU811  SER814 

> <Gold.Protein.RotatedAtoms>
  150.7981  134.7055  159.6573 H   0  0  0  0  0  0  0  0  0  0  0  0  # atno 6907 bound_to 6896
  152.4095  134.6145  160.0044 H   0  0  0  0  0  0  0  0  0  0  0  0  # atno 6908 bound_to 6896
  151.6393  133.3290  159.3162 H   0  0  0  0  0  0  0  0  0  0  0  0  # atno 6909 bound_to 6896
  145.1543  140.8845  143.3628 H   0  0  0  0  0  0  0  0  0  0  0  0  # atno 7974 bound_to 7965
  156.0952  140.1429  156.9540 H   0  0  0  0  0  0  0  0  0  0  0  0  # atno 8008 bound_to 7997
  154.4667  140.0924  156.7085 H   0  0  0  0  0  0  0  0  0  0  0  0  # atno 8009 bound_to 7997
  155.4852  140.3446  155.4348 H   0  0  0  0  0  0  0  0  0  0  0  0  # atno 8010 bound_to 7997
  140.7268  143.3998  151.1285 H   0  0  0  0  0  0  0  0  0  0  0  0  # atno 10167 bound_to 10162
  156.0096  130.5217  150.6451 H   0  0  0  0  0  0  0  0  0  0  0  0  # atno 10718 bound_to 10713
  153.0550  135.5046  154.7960 H   0  0  0  0  0  0  0  0  0  0  0  0  # atno 10763 bound_to 10752
  154.6793  135.2965  154.9638 H   0  0  0  0  0  0  0  0  0  0  0  0  # atno 10764 bound_to 10752
  154.0430  135.6714  153.4844 H   0  0  0  0  0  0  0  0  0  0  0  0  # atno 10765 bound_to 10752
  139.9274  134.7645  156.1463 H   0  0  0  0  0  0  0  0  0  0  0  0  # atno 11005 bound_to 11000
  145.0398  139.3270  143.5982 LP  0  0  0  0  0  0  0  0  0  0  0  0  # atno 17320 bound_to 7965
  146.3491  139.9767  142.8700 LP  0  0  0  0  0  0  0  0  0  0  0  0  # atno 17321 bound_to 7965
  139.7616  143.8627  152.3101 LP  0  0  0  0  0  0  0  0  0  0  0  0  # atno 17342 bound_to 10162
  139.8515  144.7162  150.9208 LP  0  0  0  0  0  0  0  0  0  0  0  0  # atno 17343 bound_to 10162
  157.4223  131.0838  151.1119 LP  0  0  0  0  0  0  0  0  0  0  0  0  # atno 17370 bound_to 10713
  157.1717  130.6270  149.5643 LP  0  0  0  0  0  0  0  0  0  0  0  0  # atno 17371 bound_to 10713
  141.0842  133.6741  156.2400 LP  0  0  0  0  0  0  0  0  0  0  0  0  # atno 17394 bound_to 11000
  140.6296  134.5277  157.5558 LP  0  0  0  0  0  0  0  0  0  0  0  0  # atno 17395 bound_to 11000

$$$$
