AV-unprocessed.smi:3116|AV-procd|sdf|11875|dock4
  -GOLD-   2272017263D 1   1.00000     0.00000
 Structure written by MMmdl.
 33 33  0  0  0  0  0  0  0  0  1 V2000
  148.3773  141.7058  154.5959 C   0  0  0  0  0  0  0  0  0  0  0  0
  148.8848  140.3308  154.1354 C   0  0  1  0  0  0  0  0  0  0  0  0
  149.7553  139.7503  155.1735 N   0  0  0  0  0  0  0  0  0  0  0  0
  150.7239  140.6766  155.7642 C   0  0  2  0  0  0  0  0  0  0  0  0
  151.9908  139.8525  156.0512 C   0  0  0  0  0  0  0  0  0  0  0  0
  150.1159  141.3235  157.0398 C   0  0  1  0  0  0  0  0  0  0  0  0
  149.4894  140.2928  157.9993 C   0  0  0  0  0  0  0  0  0  0  0  0
  151.0977  142.1352  157.7516 N   0  0  0  0  0  0  0  0  0  0  0  0
  151.1667  143.5111  157.8305 C   0  0  0  0  0  0  0  0  0  0  0  0
  152.2681  143.8242  158.5740 C   0  0  0  0  0  0  0  0  0  0  0  0
  152.8198  142.5570  158.9105 C   0  0  0  0  0  0  0  0  0  0  0  0
  152.1205  141.5487  158.4157 N   0  0  0  0  0  0  0  0  0  0  0  0
  147.7063  139.4150  153.7664 C   0  0  0  0  0  0  0  0  0  0  0  0
  147.6599  138.9565  152.5131 N   0  0  0  0  0  0  0  0  0  0  0  0
  146.8596  139.1115  154.6048 O   0  0  0  0  0  0  0  0  0  0  0  0
  147.7324  142.1626  153.8442 H   0  0  0  0  0  0  0  0  0  0  0  0
  149.2093  142.3895  154.7681 H   0  0  0  0  0  0  0  0  0  0  0  0
  147.8093  141.6362  155.5247 H   0  0  0  0  0  0  0  0  0  0  0  0
  149.4840  140.4993  153.2400 H   0  0  0  0  0  0  0  0  0  0  0  0
  149.2225  139.3051  155.9064 H   0  0  0  0  0  0  0  0  0  0  0  0
  150.9944  141.4672  155.0637 H   0  0  0  0  0  0  0  0  0  0  0  0
  152.8061  140.4808  156.4086 H   0  0  0  0  0  0  0  0  0  0  0  0
  152.3484  139.3562  155.1481 H   0  0  0  0  0  0  0  0  0  0  0  0
  151.8064  139.0835  156.8021 H   0  0  0  0  0  0  0  0  0  0  0  0
  149.3160  141.9982  156.7297 H   0  0  0  0  0  0  0  0  0  0  0  0
  148.6278  139.7984  157.5517 H   0  0  0  0  0  0  0  0  0  0  0  0
  149.1399  140.7732  158.9139 H   0  0  0  0  0  0  0  0  0  0  0  0
  150.2059  139.5212  158.2828 H   0  0  0  0  0  0  0  0  0  0  0  0
  150.4366  144.1470  157.3515 H   0  0  0  0  0  0  0  0  0  0  0  0
  152.6262  144.8088  158.8353 H   0  0  0  0  0  0  0  0  0  0  0  0
  153.7031  142.3413  159.4931 H   0  0  0  0  0  0  0  0  0  0  0  0
  146.9015  138.3560  152.2238 H   0  0  0  0  0  0  0  0  0  0  0  0
  148.3825  139.2174  151.8581 H   0  0  0  0  0  0  0  0  0  0  0  0
  1  2  1  0  0  0  0
  1 16  1  0  0  0  0
  1 17  1  0  0  0  0
  1 18  1  0  0  0  0
  2  3  1  0  0  0  0
  2 13  1  0  0  0  0
  2 19  1  0  0  0  0
  3  4  1  0  0  0  0
  3 20  1  0  0  0  0
  4  5  1  0  0  0  0
  4  6  1  0  0  0  0
  4 21  1  0  0  0  0
  5 22  1  0  0  0  0
  5 23  1  0  0  0  0
  5 24  1  0  0  0  0
  6  7  1  0  0  0  0
  6  8  1  0  0  0  0
  6 25  1  0  0  0  0
  7 26  1  0  0  0  0
  7 27  1  0  0  0  0
  7 28  1  0  0  0  0
  8 12  1  0  0  0  0
  8  9  1  0  0  0  0
  9 10  2  0  0  0  0
  9 29  1  0  0  0  0
 10 11  1  0  0  0  0
 10 30  1  0  0  0  0
 11 12  2  0  0  0  0
 11 31  1  0  0  0  0
 13 14  1  0  0  0  0
 13 15  2  0  0  0  0
 14 32  1  0  0  0  0
 14 33  1  0  0  0  0
M  END
> <s_m_source_file>
AV-unprocessed.smi

> <i_m_source_file_index>
3116

> <i_lp_mmshare_version>
43012

> <i_f3d_flags>
0

> <s_epik_input>
W05IMl1DKD1PKVtDQEhdKFtDSDNdKVtOSF1bQ0BIXShbQ0gzXSlbQ0BIXShbQ0gzXSluMVtjSF1bY0hdW2NIXW4x

> <s_epik_cmdline>
J2VwaWtfcHl0aG9uJywgJy1waCcsICc3LjAnLCAnLXRuJywgJzgnLCAnLW1hJywgJzIwMCcsICctbWV0YWxfYmluZGluZycsICctaW1hZScsICc8aW5maWxlLm1hZT4nLCAnLW9tYWUnLCAnPG91dGZpbGUubWFlPic=

> <r_lp_tautomer_probability>
1

> <r_epik_Ionization_Penalty>
0.865977

> <r_epik_Ionization_Penalty_Charging>
0

> <r_epik_Ionization_Penalty_Neutral>
0.865977

> <r_epik_State_Penalty>
0.901888

> <r_epik_Charging_Adjusted_Penalty>
0.901888

> <i_epik_Tot_Q>
0

> <i_epik_Tot_abs_Q>
0

> <r_epik_Metal_State_Penalty>
0.901181

> <b_epik_Metal_Only>
0

> <s_lp_Force_Field>
OPLS_2005

> <r_lp_Energy>
8.89759

> <b_lp_Chiralities_Consistent>
1

> <s_lp_Variant>
AV-unprocessed.smi:3116-14

> <Gold.Version>
5.8.1

> <Gold.Id.Protein>
6NUR|6NUR_protein|mol2

> <Gold.PLP.Fitness>
34.1134

> <Gold.PLP.PLP>
-29.5820

> <Gold.PLP.part.hbond>
-1.9910

> <Gold.PLP.part.metal>
0.0000

> <Gold.PLP.part.buried>
-1.9736

> <Gold.PLP.part.nonpolar>
-26.4399

> <Gold.PLP.part.repulsive>
0.1682

> <Gold.PLP.ligand.clash>
0.0000

> <Gold.PLP.ligand.torsion>
0.7979

> <Gold.PLP.Chemscore.Hbond>
1.0000

> <Gold.PLP.Chemscore.CHOScore>
1.0000

> <Gold.PLP.Chemscore.Metal>
0.0000

> <Gold.Chemscore.Hbonds>
donor molecule, donor type, donor heavy atom, donor atom, acceptor molecule, acceptor atom, score
      L1  H    14    33       P1  7957  1.00
      L1  C     9    29       P1  8028  1.00

> <Gold.PLP.Chemscore.Internal.Correction>
0.1273

> <Gold.Rescore>
     Score         DG    S(hbond)    S(metal)    S(lipo)     H(rot)  DE(clash)    DE(int)     intcor
     10.12     -11.40       0.99        0.00      74.54       2.38       0.07       1.21       ----

> <Gold.Chemscore.Fitness>
10.1194

> <Gold.Chemscore.DG>
-11.4034

> <Gold.Chemscore.ZeroCoef>
-5.4800

> <Gold.Chemscore.Hbond>
0.9892

> <Gold.Chemscore.Metal>
0.0000

> <Gold.Chemscore.Lipo>
74.5428

> <Gold.Chemscore.Internal_Hbond>
0.0000

> <Gold.Chemscore.DEClash>
0.0705

> <Gold.Chemscore.DEInternal>
1.2134

> <Gold.Chemscore.Rot>
2.3836

> <Gold.Chemscore.Internal.Correction>
   9.000000E+99

> <Gold.Chemscore.Hbonds>
donor molecule, donor type, donor heavy atom, donor atom, acceptor molecule, acceptor atom, score
      L1  H    14    33       P1  7957  0.97

> <Gold.Chemscore.Hbond.Weighted>
-3.3038

> <Gold.Chemscore.Metal.Weighted>
-0.0000

> <Gold.Chemscore.Lipo.Weighted>
-8.7215

> <Gold.Chemscore.Internal_Hbond.Weighted>
0.0000

> <Gold.Chemscore.DEClash.Weighted>
0.0705

> <Gold.Chemscore.DEInternal.Weighted>
1.2134

> <Gold.Chemscore.Rot.Weighted>
6.1020

> <Gold.Chemscore.Internal.Correction.Weighted>
   9.000000E+99

> <Gold.Protein.RotatedTorsions>
[ 6907 6896 6895 6894 ] final -129.36 input  -60.11 | X-H torsion
[ 7974 7965 7964 7962 ] final   85.54 input  175.53 | X-H torsion
[ 8008 7997 7996 7995 ] final  -20.72 input   59.86 | X-H torsion
[ 10167 10162 10161 10158 ] final  114.55 input  -65.29 | X-H torsion
[ 10718 10713 10712 10709 ] final   56.27 input   66.30 | X-H torsion
[ 10763 10752 10751 10750 ] final  -66.35 input  -60.55 | X-H torsion
[ 11005 11000 10999 10996 ] final  174.61 input  -57.11 | X-H torsion

> <Gold.Protein.ActiveResidues>
 VAL166  LYS551  ARG553  GLY616  TRP617  ASP618  TYR619  PRO620  LYS621  CYS622 
 ASP623  PHE694  ASN695  SER759  ASP760  ASP761  ALA762  ILE779  LEU786  VAL792 
 PHE793  MET794  SER795  GLU796  ALA797  LYS798  CYS799  TRP800  GLU811  SER814 

> <Gold.Protein.RotatedAtoms>
  150.9279  133.6802  159.2817 H   0  0  0  0  0  0  0  0  0  0  0  0  # atno 6907 bound_to 6896
  151.4234  135.0999  159.9630 H   0  0  0  0  0  0  0  0  0  0  0  0  # atno 6908 bound_to 6896
  152.5011  133.8725  159.7361 H   0  0  0  0  0  0  0  0  0  0  0  0  # atno 6909 bound_to 6896
  145.5842  139.2329  143.2336 H   0  0  0  0  0  0  0  0  0  0  0  0  # atno 7974 bound_to 7965
  154.4751  140.2054  155.9897 H   0  0  0  0  0  0  0  0  0  0  0  0  # atno 8008 bound_to 7997
  156.1076  140.3234  155.7998 H   0  0  0  0  0  0  0  0  0  0  0  0  # atno 8009 bound_to 7997
  155.4690  140.0530  157.2972 H   0  0  0  0  0  0  0  0  0  0  0  0  # atno 8010 bound_to 7997
  139.6380  144.7121  151.2294 H   0  0  0  0  0  0  0  0  0  0  0  0  # atno 10167 bound_to 10162
  157.5417  130.8702  149.8831 H   0  0  0  0  0  0  0  0  0  0  0  0  # atno 10718 bound_to 10713
  154.3585  135.6121  153.5679 H   0  0  0  0  0  0  0  0  0  0  0  0  # atno 10763 bound_to 10752
  152.9794  135.5809  154.4660 H   0  0  0  0  0  0  0  0  0  0  0  0  # atno 10764 bound_to 10752
  154.4394  135.2850  155.1835 H   0  0  0  0  0  0  0  0  0  0  0  0  # atno 10765 bound_to 10752
  140.3532  134.7177  157.4282 H   0  0  0  0  0  0  0  0  0  0  0  0  # atno 11005 bound_to 11000
  146.1694  140.6668  142.9240 LP  0  0  0  0  0  0  0  0  0  0  0  0  # atno 17320 bound_to 7965
  144.7380  140.4864  143.6889 LP  0  0  0  0  0  0  0  0  0  0  0  0  # atno 17321 bound_to 7965
  140.7476  143.6361  150.8378 LP  0  0  0  0  0  0  0  0  0  0  0  0  # atno 17342 bound_to 10162
  139.9995  143.5760  152.2881 LP  0  0  0  0  0  0  0  0  0  0  0  0  # atno 17343 bound_to 10162
  156.0502  130.3719  150.1220 LP  0  0  0  0  0  0  0  0  0  0  0  0  # atno 17370 bound_to 10713
  156.9399  130.9741  151.3518 LP  0  0  0  0  0  0  0  0  0  0  0  0  # atno 17371 bound_to 10713
  140.0686  134.5894  155.8667 LP  0  0  0  0  0  0  0  0  0  0  0  0  # atno 17394 bound_to 11000
  141.2006  133.6613  156.5905 LP  0  0  0  0  0  0  0  0  0  0  0  0  # atno 17395 bound_to 11000

$$$$
