AV-unprocessed.smi:804|AV-procd|sdf|3795|dock2
  -GOLD-   22720 1233D 1   1.00000     0.00000
 Structure written by MMmdl.
 38 39  0  0  0  0  0  0  0  0  2 V2000
  151.7366  140.1615  155.6106 C   0  0  0  0  0  0  0  0  0  0  0  0
  152.2187  138.7068  155.4688 C   0  0  0  0  0  0  0  0  0  0  0  0
  151.0377  137.7533  155.7465 C   0  0  0  0  0  0  0  0  0  0  0  0
  152.7711  138.4935  154.0438 C   0  0  0  0  0  0  0  0  0  0  0  0
  153.2825  138.5039  156.4645 N   0  5  0  0  0  0  0  0  0  0  0  0
  153.3719  137.4908  157.3788 C   0  0  0  0  0  0  0  0  0  0  0  0
  153.3925  136.2711  157.1861 O   0  0  0  0  0  0  0  0  0  0  0  0
  153.4525  137.9987  158.8007 C   0  0  0  0  0  0  0  0  0  0  0  0
  153.1734  139.3093  159.0203 N   0  0  0  0  0  0  0  0  0  0  0  0
  153.2467  139.7915  160.2649 C   0  0  0  0  0  0  0  0  0  0  0  0
  152.9463  141.1473  160.4527 N   0  0  0  0  0  0  0  0  0  0  0  0
  153.2001  141.8250  161.7269 C   0  0  0  0  0  0  0  0  0  0  0  0
  152.1806  142.9526  161.9591 C   0  0  0  0  0  0  0  0  0  0  0  0
  152.1930  143.8498  160.8555 O   0  0  0  0  0  0  0  0  0  0  0  0
  151.8214  143.1971  159.6477 C   0  0  0  0  0  0  0  0  0  0  0  0
  152.8262  142.0775  159.3276 C   0  0  0  0  0  0  0  0  0  0  0  0
  153.5876  139.0748  161.3420 N   0  0  0  0  0  0  0  0  0  0  0  0
  153.8703  137.7692  161.1578 C   0  0  0  0  0  0  0  0  0  0  0  0
  153.8178  137.1609  159.8891 C   0  0  0  0  0  0  0  0  0  0  0  0
  154.1577  135.4694  159.7453 Cl  0  0  0  0  0  0  0  0  0  0  0  0
  150.9421  140.3856  154.8982 H   0  0  0  0  0  0  0  0  0  0  0  0
  152.5461  140.8704  155.4307 H   0  0  0  0  0  0  0  0  0  0  0  0
  151.3442  140.3574  156.6096 H   0  0  0  0  0  0  0  0  0  0  0  0
  150.6592  137.8722  156.7628 H   0  0  0  0  0  0  0  0  0  0  0  0
  151.3155  136.7070  155.6177 H   0  0  0  0  0  0  0  0  0  0  0  0
  150.2095  137.9489  155.0650 H   0  0  0  0  0  0  0  0  0  0  0  0
  152.0155  138.7262  153.2930 H   0  0  0  0  0  0  0  0  0  0  0  0
  153.0808  137.4623  153.8742 H   0  0  0  0  0  0  0  0  0  0  0  0
  153.6324  139.1338  153.8497 H   0  0  0  0  0  0  0  0  0  0  0  0
  153.1496  141.1413  162.5743 H   0  0  0  0  0  0  0  0  0  0  0  0
  154.2119  142.2316  161.7097 H   0  0  0  0  0  0  0  0  0  0  0  0
  151.1779  142.5463  162.1024 H   0  0  0  0  0  0  0  0  0  0  0  0
  152.4324  143.5030  162.8656 H   0  0  0  0  0  0  0  0  0  0  0  0
  150.8090  142.7983  159.7320 H   0  0  0  0  0  0  0  0  0  0  0  0
  151.8080  143.9293  158.8403 H   0  0  0  0  0  0  0  0  0  0  0  0
  153.8085  142.5032  159.1208 H   0  0  0  0  0  0  0  0  0  0  0  0
  152.4997  141.5782  158.4158 H   0  0  0  0  0  0  0  0  0  0  0  0
  154.1346  137.2009  162.0373 H   0  0  0  0  0  0  0  0  0  0  0  0
  1  2  1  0  0  0  0
  1 21  1  0  0  0  0
  1 22  1  0  0  0  0
  1 23  1  0  0  0  0
  2  3  1  0  0  0  0
  2  4  1  0  0  0  0
  2  5  1  0  0  0  0
  3 24  1  0  0  0  0
  3 25  1  0  0  0  0
  3 26  1  0  0  0  0
  4 27  1  0  0  0  0
  4 28  1  0  0  0  0
  4 29  1  0  0  0  0
  5  6  1  0  0  0  0
  6  7  2  0  0  0  0
  6  8  1  0  0  0  0
  8 19  1  0  0  0  0
  8  9  2  0  0  0  0
  9 10  1  0  0  0  0
 10 11  1  0  0  0  0
 10 17  2  0  0  0  0
 11 16  1  0  0  0  0
 11 12  1  0  0  0  0
 12 13  1  0  0  0  0
 12 30  1  0  0  0  0
 12 31  1  0  0  0  0
 13 14  1  0  0  0  0
 13 32  1  0  0  0  0
 13 33  1  0  0  0  0
 14 15  1  0  0  0  0
 15 16  1  0  0  0  0
 15 34  1  0  0  0  0
 15 35  1  0  0  0  0
 16 36  1  0  0  0  0
 16 37  1  0  0  0  0
 17 18  1  0  0  0  0
 18 19  2  0  0  0  0
 18 38  1  0  0  0  0
 19 20  1  0  0  0  0
M  CHG  1   5  -1
M  END
> <s_m_source_file>
AV-unprocessed.smi

> <i_m_source_file_index>
804

> <i_lp_mmshare_version>
43012

> <i_f3d_flags>
0

> <s_epik_input>
W0NIM11DKFtDSDNdKShbQ0gzXSlbTkhdQyg9TyljMW5jKG5bY0hdYzFDbClOMltDSDJdW0NIMl1PW0NIMl1bQ0gyXTI=

> <s_epik_cmdline>
J2VwaWtfcHl0aG9uJywgJy1waCcsICc3LjAnLCAnLXRuJywgJzgnLCAnLW1hJywgJzIwMCcsICctbWV0YWxfYmluZGluZycsICctaW1hZScsICc8aW5maWxlLm1hZT4nLCAnLW9tYWUnLCAnPG91dGZpbGUubWFlPic=

> <r_lp_tautomer_probability>
1

> <r_epik_Ionization_Penalty>
6.49938

> <r_epik_Ionization_Penalty_Charging>
6.49935

> <r_epik_Ionization_Penalty_Neutral>
2.43511e-05

> <r_epik_State_Penalty>
6.49934

> <r_epik_Charging_Adjusted_Penalty>
12.9987

> <i_epik_Tot_Q>
-1

> <i_epik_Tot_abs_Q>
1

> <r_epik_Metal_State_Penalty>
2.42664

> <b_epik_Metal_Only>
1

> <s_lp_Force_Field>
OPLS_2005

> <r_lp_Energy>
19.224

> <b_lp_Chiralities_Consistent>
1

> <s_lp_Variant>
AV-unprocessed.smi:804-2

> <Gold.Version>
5.8.1

> <Gold.Id.Protein>
6NUR|6NUR_protein|mol2

> <Gold.PLP.Fitness>
42.7461

> <Gold.PLP.PLP>
-35.5003

> <Gold.PLP.part.hbond>
-2.2433

> <Gold.PLP.part.metal>
0.0000

> <Gold.PLP.part.buried>
-5.8227

> <Gold.PLP.part.nonpolar>
-27.2218

> <Gold.PLP.part.repulsive>
0.0895

> <Gold.PLP.ligand.clash>
0.0000

> <Gold.PLP.ligand.torsion>
0.7845

> <Gold.PLP.Chemscore.Hbond>
2.8880

> <Gold.PLP.Chemscore.CHOScore>
0.0000

> <Gold.PLP.Chemscore.Metal>
0.0000

> <Gold.Chemscore.Hbonds>
donor molecule, donor type, donor heavy atom, donor atom, acceptor molecule, acceptor atom, score
      P1  H  7997  8010       L1     5  1.86
      P1  H 10752 10764       L1     7  0.89

> <Gold.PLP.Chemscore.Internal.Correction>
0.1508

> <Gold.Rescore>
     Score         DG    S(hbond)    S(metal)    S(lipo)     H(rot)  DE(clash)    DE(int)     intcor
     14.64     -18.91       1.73        0.00      87.39       1.00       1.19       3.08       ----

> <Gold.Chemscore.Fitness>
14.6429

> <Gold.Chemscore.DG>
-18.9131

> <Gold.Chemscore.ZeroCoef>
-5.4800

> <Gold.Chemscore.Hbond>
1.7270

> <Gold.Chemscore.Metal>
0.0000

> <Gold.Chemscore.Lipo>
87.3930

> <Gold.Chemscore.Internal_Hbond>
0.0000

> <Gold.Chemscore.DEClash>
1.1909

> <Gold.Chemscore.DEInternal>
3.0793

> <Gold.Chemscore.Rot>
1.0000

> <Gold.Chemscore.Internal.Correction>
   9.000000E+99

> <Gold.Chemscore.Hbonds>
donor molecule, donor type, donor heavy atom, donor atom, acceptor molecule, acceptor atom, score
      P1  H  7997  8010       L1     5  0.73
      P1  H 10752 10764       L1     7  0.84

> <Gold.Chemscore.Hbond.Weighted>
-5.7681

> <Gold.Chemscore.Metal.Weighted>
-0.0000

> <Gold.Chemscore.Lipo.Weighted>
-10.2250

> <Gold.Chemscore.Internal_Hbond.Weighted>
0.0000

> <Gold.Chemscore.DEClash.Weighted>
1.1909

> <Gold.Chemscore.DEInternal.Weighted>
3.0793

> <Gold.Chemscore.Rot.Weighted>
2.5600

> <Gold.Chemscore.Internal.Correction.Weighted>
   9.000000E+99

> <Gold.Protein.RotatedTorsions>
[ 6907 6896 6895 6894 ] final -152.94 input  -60.11 | X-H torsion
[ 7974 7965 7964 7962 ] final   81.87 input  175.53 | X-H torsion
[ 8008 7997 7996 7995 ] final   58.78 input   59.86 | X-H torsion
[ 10167 10162 10161 10158 ] final   -6.63 input  -65.29 | X-H torsion
[ 10718 10713 10712 10709 ] final  -52.57 input   66.30 | X-H torsion
[ 10763 10752 10751 10750 ] final   20.65 input  -60.55 | X-H torsion
[ 11005 11000 10999 10996 ] final  136.50 input  -57.11 | X-H torsion

> <Gold.Protein.ActiveResidues>
 VAL166  LYS551  ARG553  GLY616  TRP617  ASP618  TYR619  PRO620  LYS621  CYS622 
 ASP623  PHE694  ASN695  SER759  ASP760  ASP761  ALA762  ILE779  LEU786  VAL792 
 PHE793  MET794  SER795  GLU796  ALA797  LYS798  CYS799  TRP800  GLU811  SER814 

> <Gold.Protein.RotatedAtoms>
  151.2352  133.4429  159.2604 H   0  0  0  0  0  0  0  0  0  0  0  0  # atno 6907 bound_to 6896
  151.0757  134.9827  159.8341 H   0  0  0  0  0  0  0  0  0  0  0  0  # atno 6908 bound_to 6896
  152.5418  134.2294  159.8872 H   0  0  0  0  0  0  0  0  0  0  0  0  # atno 6909 bound_to 6896
  145.6325  139.2408  143.2076 H   0  0  0  0  0  0  0  0  0  0  0  0  # atno 7974 bound_to 7965
  155.5555  140.3487  155.4478 H   0  0  0  0  0  0  0  0  0  0  0  0  # atno 8008 bound_to 7997
  156.0552  140.1327  157.0030 H   0  0  0  0  0  0  0  0  0  0  0  0  # atno 8009 bound_to 7997
  154.4453  140.0996  156.6420 H   0  0  0  0  0  0  0  0  0  0  0  0  # atno 8010 bound_to 7997
  140.7003  143.6173  150.8646 H   0  0  0  0  0  0  0  0  0  0  0  0  # atno 10167 bound_to 10162
  156.1610  130.4149  149.9794 H   0  0  0  0  0  0  0  0  0  0  0  0  # atno 10718 bound_to 10713
  153.1060  135.6685  153.9586 H   0  0  0  0  0  0  0  0  0  0  0  0  # atno 10763 bound_to 10752
  153.9143  135.3021  155.3450 H   0  0  0  0  0  0  0  0  0  0  0  0  # atno 10764 bound_to 10752
  154.7481  135.5048  153.9316 H   0  0  0  0  0  0  0  0  0  0  0  0  # atno 10765 bound_to 10752
  140.0050  134.9463  157.0155 H   0  0  0  0  0  0  0  0  0  0  0  0  # atno 11005 bound_to 11000
  146.1345  140.7141  142.9396 LP  0  0  0  0  0  0  0  0  0  0  0  0  # atno 17320 bound_to 7965
  144.7188  140.4302  143.7024 LP  0  0  0  0  0  0  0  0  0  0  0  0  # atno 17321 bound_to 7965
  139.9894  143.5863  152.2915 LP  0  0  0  0  0  0  0  0  0  0  0  0  # atno 17342 bound_to 10162
  139.6513  144.7661  151.2142 LP  0  0  0  0  0  0  0  0  0  0  0  0  # atno 17343 bound_to 10162
  156.7623  130.9155  151.3642 LP  0  0  0  0  0  0  0  0  0  0  0  0  # atno 17370 bound_to 10713
  157.6732  130.9070  150.0088 LP  0  0  0  0  0  0  0  0  0  0  0  0  # atno 17371 bound_to 10713
  140.4657  134.1438  155.7197 LP  0  0  0  0  0  0  0  0  0  0  0  0  # atno 17394 bound_to 11000
  141.1670  133.8683  157.1684 LP  0  0  0  0  0  0  0  0  0  0  0  0  # atno 17395 bound_to 11000

$$$$
