AV-unprocessed.smi:216|AV-procd|sdf|1659|dock7
  -GOLD-   2262020 53D 1   1.00000     0.00000
 Structure written by MMmdl.
 65 69  0  0  0  0  0  0  0  0  1 V2000
  142.6214  135.4849  163.1859 C   0  0  0  0  0  0  0  0  0  0  0  0
  143.1869  135.8671  161.8008 C   0  0  1  0  0  0  0  0  0  0  0  0
  142.5511  137.1927  161.3357 C   0  0  0  0  0  0  0  0  0  0  0  0
  142.9927  137.5607  159.9168 C   0  0  0  0  0  0  0  0  0  0  0  0
  144.4493  137.5773  159.8209 N   0  0  0  0  0  0  0  0  0  0  0  0
  144.9885  138.1649  158.7214 C   0  0  0  0  0  0  0  0  0  0  0  0
  144.1766  138.6877  157.7629 N   0  0  0  0  0  0  0  0  0  0  0  0
  144.6966  139.2635  156.6754 C   0  0  0  0  0  0  0  0  0  0  0  0
  145.9801  139.4276  156.3520 N   0  0  0  0  0  0  0  0  0  0  0  0
  146.8017  138.9130  157.3110 C   0  0  0  0  0  0  0  0  0  0  0  0
  146.3931  138.2658  158.5117 C   0  0  0  0  0  0  0  0  0  0  0  0
  147.5106  137.8752  159.2384 N   0  0  0  0  0  0  0  0  0  0  0  0
  148.5200  138.2570  158.5054 C   0  0  0  0  0  0  0  0  0  0  0  0
  148.1859  138.9091  157.3398 N   0  0  0  0  0  0  0  0  0  0  0  0
  149.1039  139.4503  156.3475 C   0  0  0  0  0  0  0  0  0  0  0  0
  150.1282  140.4855  156.9025 C   0  0  0  0  0  0  0  0  0  0  0  0
  150.9809  141.0927  155.7513 C   0  0  0  0  0  0  0  0  0  0  0  0
  151.5891  140.0978  154.9519 O   0  0  0  0  0  0  0  0  0  0  0  0
  149.3477  141.5855  157.6650 C   0  0  0  0  0  0  0  0  0  0  0  0
  150.2608  142.5028  158.4988 C   0  0  0  0  0  0  0  0  0  0  0  0
  151.0284  141.7260  159.4088 O   0  0  0  0  0  0  0  0  0  0  0  0
  151.8904  140.8035  158.7558 C   0  0  0  0  0  0  0  0  0  0  0  0
  151.0634  139.8004  157.9310 C   0  0  0  0  0  0  0  0  0  0  0  0
  145.1001  136.3295  160.2215 C   0  0  0  0  0  0  0  0  0  0  0  0
  144.7517  135.9030  161.6797 C   0  0  0  0  0  0  0  0  0  0  0  0
  145.3952  136.8821  162.7079 C   0  0  0  0  0  0  0  0  0  0  0  0
  146.9342  136.8233  162.7491 C   0  0  0  0  0  0  0  0  0  0  0  0
  147.4380  135.3953  162.9923 C   0  0  0  0  0  0  0  0  0  0  0  0
  146.8693  134.4281  161.9465 C   0  0  0  0  0  0  0  0  0  0  0  0
  145.3308  134.4800  161.9264 C   0  0  0  0  0  0  0  0  0  0  0  0
  142.8694  136.2217  163.9491 H   0  0  0  0  0  0  0  0  0  0  0  0
  142.9674  134.5114  163.5282 H   0  0  0  0  0  0  0  0  0  0  0  0
  141.5332  135.4271  163.1479 H   0  0  0  0  0  0  0  0  0  0  0  0
  142.8354  135.0983  161.1107 H   0  0  0  0  0  0  0  0  0  0  0  0
  141.4635  137.1155  161.3598 H   0  0  0  0  0  0  0  0  0  0  0  0
  142.8117  137.9986  162.0221 H   0  0  0  0  0  0  0  0  0  0  0  0
  142.5905  136.8387  159.2046 H   0  0  0  0  0  0  0  0  0  0  0  0
  142.5864  138.5382  159.6527 H   0  0  0  0  0  0  0  0  0  0  0  0
  143.9822  139.6480  155.9628 H   0  0  0  0  0  0  0  0  0  0  0  0
  149.5436  138.0831  158.8037 H   0  0  0  0  0  0  0  0  0  0  0  0
  149.6233  138.6133  155.8788 H   0  0  0  0  0  0  0  0  0  0  0  0
  148.5064  139.9016  155.5543 H   0  0  0  0  0  0  0  0  0  0  0  0
  150.3819  141.7186  155.0923 H   0  0  0  0  0  0  0  0  0  0  0  0
  151.7615  141.7428  156.1465 H   0  0  0  0  0  0  0  0  0  0  0  0
  151.9584  139.4398  155.5211 H   0  0  0  0  0  0  0  0  0  0  0  0
  148.7503  142.1838  156.9765 H   0  0  0  0  0  0  0  0  0  0  0  0
  148.6348  141.1173  158.3451 H   0  0  0  0  0  0  0  0  0  0  0  0
  150.9156  143.1029  157.8663 H   0  0  0  0  0  0  0  0  0  0  0  0
  149.6546  143.2053  159.0710 H   0  0  0  0  0  0  0  0  0  0  0  0
  152.6131  141.3357  158.1364 H   0  0  0  0  0  0  0  0  0  0  0  0
  152.4656  140.2716  159.5138 H   0  0  0  0  0  0  0  0  0  0  0  0
  150.4659  139.2080  158.6250 H   0  0  0  0  0  0  0  0  0  0  0  0
  151.7355  139.0997  157.4345 H   0  0  0  0  0  0  0  0  0  0  0  0
  144.7736  135.5529  159.5282 H   0  0  0  0  0  0  0  0  0  0  0  0
  146.1774  136.4051  160.0882 H   0  0  0  0  0  0  0  0  0  0  0  0
  145.0867  137.9085  162.5099 H   0  0  0  0  0  0  0  0  0  0  0  0
  145.0402  136.6527  163.7115 H   0  0  0  0  0  0  0  0  0  0  0  0
  147.3546  137.2035  161.8202 H   0  0  0  0  0  0  0  0  0  0  0  0
  147.3044  137.4811  163.5358 H   0  0  0  0  0  0  0  0  0  0  0  0
  148.5279  135.3742  162.9677 H   0  0  0  0  0  0  0  0  0  0  0  0
  147.1440  135.0698  163.9910 H   0  0  0  0  0  0  0  0  0  0  0  0
  147.2735  134.6632  160.9618 H   0  0  0  0  0  0  0  0  0  0  0  0
  147.1979  133.4131  162.1714 H   0  0  0  0  0  0  0  0  0  0  0  0
  144.9904  134.0938  162.8854 H   0  0  0  0  0  0  0  0  0  0  0  0
  144.9536  133.7849  161.1753 H   0  0  0  0  0  0  0  0  0  0  0  0
  1  2  1  0  0  0  0
  1 31  1  0  0  0  0
  1 32  1  0  0  0  0
  1 33  1  0  0  0  0
  2 25  1  0  0  0  0
  2  3  1  0  0  0  0
  2 34  1  0  0  0  0
  3  4  1  0  0  0  0
  3 35  1  0  0  0  0
  3 36  1  0  0  0  0
  4  5  1  0  0  0  0
  4 37  1  0  0  0  0
  4 38  1  0  0  0  0
  5  6  1  0  0  0  0
  5 24  1  0  0  0  0
  6 11  1  0  0  0  0
  6  7  2  0  0  0  0
  7  8  1  0  0  0  0
  8  9  2  0  0  0  0
  8 39  1  0  0  0  0
  9 10  1  0  0  0  0
 10 14  1  0  0  0  0
 10 11  2  0  0  0  0
 11 12  1  0  0  0  0
 12 13  2  0  0  0  0
 13 14  1  0  0  0  0
 13 40  1  0  0  0  0
 14 15  1  0  0  0  0
 15 16  1  0  0  0  0
 15 41  1  0  0  0  0
 15 42  1  0  0  0  0
 16 23  1  0  0  0  0
 16 17  1  0  0  0  0
 16 19  1  0  0  0  0
 17 18  1  0  0  0  0
 17 43  1  0  0  0  0
 17 44  1  0  0  0  0
 18 45  1  0  0  0  0
 19 20  1  0  0  0  0
 19 46  1  0  0  0  0
 19 47  1  0  0  0  0
 20 21  1  0  0  0  0
 20 48  1  0  0  0  0
 20 49  1  0  0  0  0
 21 22  1  0  0  0  0
 22 23  1  0  0  0  0
 22 50  1  0  0  0  0
 22 51  1  0  0  0  0
 23 52  1  0  0  0  0
 23 53  1  0  0  0  0
 24 25  1  0  0  0  0
 24 54  1  0  0  0  0
 24 55  1  0  0  0  0
 25 30  1  0  0  0  0
 25 26  1  0  0  0  0
 26 27  1  0  0  0  0
 26 56  1  0  0  0  0
 26 57  1  0  0  0  0
 27 28  1  0  0  0  0
 27 58  1  0  0  0  0
 27 59  1  0  0  0  0
 28 29  1  0  0  0  0
 28 60  1  0  0  0  0
 28 61  1  0  0  0  0
 29 30  1  0  0  0  0
 29 62  1  0  0  0  0
 29 63  1  0  0  0  0
 30 64  1  0  0  0  0
 30 65  1  0  0  0  0
M  END
> <s_m_source_file>
AV-unprocessed.smi

> <i_m_source_file_index>
216

> <i_lp_mmshare_version>
43012

> <i_f3d_flags>
0

> <s_epik_input>
W0NIMl0xW0NIMl1bQ0gyXVtDSDJdW0NIMl1DMTJbQ0BIXShbQ0gzXSlbQ0gyXVtDSDJdTihbQ0gyXTIpYyhuW2NIXW4zKWMoYzM0KW5bY0hdbjRbQ0gyXUM1KFtDSDJdW09IXSlbQ0gyXVtDSDJdT1tDSDJdW0NIMl01

> <s_epik_cmdline>
J2VwaWtfcHl0aG9uJywgJy1waCcsICc3LjAnLCAnLXRuJywgJzgnLCAnLW1hJywgJzIwMCcsICctbWV0YWxfYmluZGluZycsICctaW1hZScsICc8aW5maWxlLm1hZT4nLCAnLW9tYWUnLCAnPG91dGZpbGUubWFlPic=

> <r_lp_tautomer_probability>
1

> <r_epik_Ionization_Penalty>
0.00291566

> <r_epik_Ionization_Penalty_Charging>
0

> <r_epik_Ionization_Penalty_Neutral>
0.00291566

> <r_epik_State_Penalty>
0.00199166

> <r_epik_Charging_Adjusted_Penalty>
0.00199166

> <i_epik_Tot_Q>
0

> <i_epik_Tot_abs_Q>
0

> <r_epik_Metal_State_Penalty>
-0

> <b_epik_Metal_Only>
0

> <s_lp_Force_Field>
OPLS_2005

> <r_lp_Energy>
50.0726

> <b_lp_Chiralities_Consistent>
1

> <s_lp_Variant>
AV-unprocessed.smi:216-2

> <Gold.Version>
5.8.1

> <Gold.Id.Protein>
6NUR|6NUR_protein|mol2

> <Gold.PLP.Fitness>
38.3130

> <Gold.PLP.PLP>
-34.2741

> <Gold.PLP.part.hbond>
-3.0000

> <Gold.PLP.part.metal>
0.0000

> <Gold.PLP.part.buried>
-5.7701

> <Gold.PLP.part.nonpolar>
-27.2687

> <Gold.PLP.part.repulsive>
0.0178

> <Gold.PLP.ligand.clash>
0.0000

> <Gold.PLP.ligand.torsion>
0.3101

> <Gold.PLP.Chemscore.Hbond>
1.4451

> <Gold.PLP.Chemscore.CHOScore>
0.0000

> <Gold.PLP.Chemscore.Metal>
0.0000

> <Gold.Chemscore.Hbonds>
donor molecule, donor type, donor heavy atom, donor atom, acceptor molecule, acceptor atom, score
      P1  H  6934  6947       L1    12  0.46
      P1  H  7989  7998       L1    18  1.00

> <Gold.PLP.Chemscore.Internal.Correction>
0.3239

> <Gold.Rescore>
     Score         DG    S(hbond)    S(metal)    S(lipo)     H(rot)  DE(clash)    DE(int)     intcor
     13.22     -13.76       0.97        0.00      91.30       2.20       0.18       0.36       ----

> <Gold.Chemscore.Fitness>
13.2202

> <Gold.Chemscore.DG>
-13.7553

> <Gold.Chemscore.ZeroCoef>
-5.4800

> <Gold.Chemscore.Hbond>
0.9672

> <Gold.Chemscore.Metal>
0.0000

> <Gold.Chemscore.Lipo>
91.2977

> <Gold.Chemscore.Internal_Hbond>
0.0000

> <Gold.Chemscore.DEClash>
0.1795

> <Gold.Chemscore.DEInternal>
0.3557

> <Gold.Chemscore.Rot>
2.2019

> <Gold.Chemscore.Internal.Correction>
   9.000000E+99

> <Gold.Chemscore.Hbonds>
donor molecule, donor type, donor heavy atom, donor atom, acceptor molecule, acceptor atom, score
      P1  H  6934  6947       L1    12  0.08
      P1  H  7989  7998       L1    18  0.29

> <Gold.Chemscore.Hbond.Weighted>
-3.2305

> <Gold.Chemscore.Metal.Weighted>
-0.0000

> <Gold.Chemscore.Lipo.Weighted>
-10.6818

> <Gold.Chemscore.Internal_Hbond.Weighted>
0.0000

> <Gold.Chemscore.DEClash.Weighted>
0.1795

> <Gold.Chemscore.DEInternal.Weighted>
0.3557

> <Gold.Chemscore.Rot.Weighted>
5.6370

> <Gold.Chemscore.Internal.Correction.Weighted>
   9.000000E+99

> <Gold.Protein.RotatedTorsions>
[ 6907 6896 6895 6894 ] final -132.89 input  -60.11 | X-H torsion
[ 7974 7965 7964 7962 ] final  -67.29 input  175.53 | X-H torsion
[ 8008 7997 7996 7995 ] final  161.11 input   59.86 | X-H torsion
[ 10167 10162 10161 10158 ] final  -33.22 input  -65.29 | X-H torsion
[ 10718 10713 10712 10709 ] final  125.74 input   66.30 | X-H torsion
[ 10763 10752 10751 10750 ] final  -28.20 input  -60.55 | X-H torsion
[ 11005 11000 10999 10996 ] final  128.09 input  -57.11 | X-H torsion

> <Gold.Protein.ActiveResidues>
 VAL166  LYS551  ARG553  GLY616  TRP617  ASP618  TYR619  PRO620  LYS621  CYS622 
 ASP623  PHE694  ASN695  SER759  ASP760  ASP761  ALA762  ILE779  LEU786  VAL792 
 PHE793  MET794  SER795  GLU796  ALA797  LYS798  CYS799  TRP800  GLU811  SER814 

> <Gold.Protein.RotatedAtoms>
  150.9676  133.6378  159.2743 H   0  0  0  0  0  0  0  0  0  0  0  0  # atno 6907 bound_to 6896
  151.3678  135.0915  159.9465 H   0  0  0  0  0  0  0  0  0  0  0  0  # atno 6908 bound_to 6896
  152.5171  133.9236  159.7601 H   0  0  0  0  0  0  0  0  0  0  0  0  # atno 6909 bound_to 6896
  145.7311  140.8996  143.0579 H   0  0  0  0  0  0  0  0  0  0  0  0  # atno 7974 bound_to 7965
  156.2126  140.1786  156.7661 H   0  0  0  0  0  0  0  0  0  0  0  0  # atno 8008 bound_to 7997
  154.5744  140.0677  156.9042 H   0  0  0  0  0  0  0  0  0  0  0  0  # atno 8009 bound_to 7997
  155.2614  140.3336  155.4275 H   0  0  0  0  0  0  0  0  0  0  0  0  # atno 8010 bound_to 7997
  140.7208  143.3636  151.1914 H   0  0  0  0  0  0  0  0  0  0  0  0  # atno 10167 bound_to 10162
  157.5477  131.1095  150.8754 H   0  0  0  0  0  0  0  0  0  0  0  0  # atno 10718 bound_to 10713
  153.7444  135.6930  153.4959 H   0  0  0  0  0  0  0  0  0  0  0  0  # atno 10763 bound_to 10752
  153.2046  135.4424  155.0306 H   0  0  0  0  0  0  0  0  0  0  0  0  # atno 10764 bound_to 10752
  154.8209  135.3421  154.6968 H   0  0  0  0  0  0  0  0  0  0  0  0  # atno 10765 bound_to 10752
  139.9542  134.9616  156.8951 H   0  0  0  0  0  0  0  0  0  0  0  0  # atno 11005 bound_to 11000
  144.6893  139.9332  143.7472 LP  0  0  0  0  0  0  0  0  0  0  0  0  # atno 17320 bound_to 7965
  146.0537  139.3535  143.0624 LP  0  0  0  0  0  0  0  0  0  0  0  0  # atno 17321 bound_to 7965
  139.7193  143.9249  152.2979 LP  0  0  0  0  0  0  0  0  0  0  0  0  # atno 17342 bound_to 10162
  139.9000  144.6917  150.8675 LP  0  0  0  0  0  0  0  0  0  0  0  0  # atno 17343 bound_to 10162
  156.9287  130.5342  149.5279 LP  0  0  0  0  0  0  0  0  0  0  0  0  # atno 17370 bound_to 10713
  156.0550  130.5613  150.9072 LP  0  0  0  0  0  0  0  0  0  0  0  0  # atno 17371 bound_to 10713
  140.5648  134.0500  155.7410 LP  0  0  0  0  0  0  0  0  0  0  0  0  # atno 17394 bound_to 11000
  141.1211  133.9460  157.2728 LP  0  0  0  0  0  0  0  0  0  0  0  0  # atno 17395 bound_to 11000

$$$$
