AV-unprocessed.smi:1736|AV-procd|sdf|6990|dock4
  -GOLD-   22720 8203D 1   1.00000     0.00000
 Structure written by MMmdl.
 45 46  0  0  0  0  0  0  0  0  2 V2000
  145.5150  132.1036  149.4146 C   0  0  0  0  0  0  0  0  0  0  0  0
  145.0815  131.9003  150.8163 N   0  3  0  0  0  0  0  0  0  0  0  0
  143.7459  132.4624  151.1202 C   0  0  0  0  0  0  0  0  0  0  0  0
  143.7999  133.9953  151.2758 C   0  0  0  0  0  0  0  0  0  0  0  0
  144.7318  134.3709  152.3526 N   0  0  0  0  0  0  0  0  0  0  0  0
  144.6733  135.8036  152.7517 C   0  0  0  0  0  0  0  0  0  0  0  0
  143.1955  136.2400  152.9194 C   0  0  0  0  0  0  0  0  0  0  0  0
  145.4155  136.0595  154.0852 C   0  0  0  0  0  0  0  0  0  0  0  0
  145.3087  136.7022  151.6492 C   0  0  0  0  0  0  0  0  0  0  0  0
  145.4017  138.1096  152.0391 N   0  0  0  0  0  0  0  0  0  0  0  0
  146.4935  138.7184  152.5234 C   0  0  0  0  0  0  0  0  0  0  0  0
  147.5737  138.1530  152.6917 O   0  0  0  0  0  0  0  0  0  0  0  0
  146.2451  140.0073  152.8054 N   0  0  0  0  0  0  0  0  0  0  0  0
  147.1591  140.9664  153.3080 C   0  0  0  0  0  0  0  0  0  0  0  0
  148.5845  140.9296  153.3322 C   0  0  0  0  0  0  0  0  0  0  0  0
  149.0827  142.0280  153.8825 N   0  0  0  0  0  0  0  0  0  0  0  0
  147.9949  142.7620  154.2076 N   0  0  0  0  0  0  0  0  0  0  0  0
  146.8048  142.1543  153.8744 C   0  0  0  0  0  0  0  0  0  0  0  0
  146.0684  133.8898  151.9638 C   0  0  0  0  0  0  0  0  0  0  0  0
  146.0680  132.3543  151.8223 C   0  0  0  0  0  0  0  0  0  0  0  0
  148.0805  143.6660  154.6499 H   0  0  0  0  0  0  0  0  0  0  0  0
  145.6423  133.1593  149.1752 H   0  0  0  0  0  0  0  0  0  0  0  0
  144.7819  131.6857  148.7239 H   0  0  0  0  0  0  0  0  0  0  0  0
  146.4641  131.5982  149.2327 H   0  0  0  0  0  0  0  0  0  0  0  0
  143.0376  132.1819  150.3398 H   0  0  0  0  0  0  0  0  0  0  0  0
  143.3793  132.0140  152.0448 H   0  0  0  0  0  0  0  0  0  0  0  0
  144.0875  134.4626  150.3340 H   0  0  0  0  0  0  0  0  0  0  0  0
  142.7887  134.3294  151.4955 H   0  0  0  0  0  0  0  0  0  0  0  0
  143.1126  137.3250  152.9933 H   0  0  0  0  0  0  0  0  0  0  0  0
  142.7427  135.8445  153.8284 H   0  0  0  0  0  0  0  0  0  0  0  0
  142.5803  135.9269  152.0752 H   0  0  0  0  0  0  0  0  0  0  0  0
  145.3389  137.1093  154.3705 H   0  0  0  0  0  0  0  0  0  0  0  0
  146.4792  135.8323  154.0183 H   0  0  0  0  0  0  0  0  0  0  0  0
  145.0007  135.4809  154.9100 H   0  0  0  0  0  0  0  0  0  0  0  0
  146.2952  136.3160  151.3856 H   0  0  0  0  0  0  0  0  0  0  0  0
  144.7486  136.6471  150.7167 H   0  0  0  0  0  0  0  0  0  0  0  0
  144.5601  138.6580  151.9442 H   0  0  0  0  0  0  0  0  0  0  0  0
  145.3065  140.3387  152.6388 H   0  0  0  0  0  0  0  0  0  0  0  0
  149.2650  140.1694  152.9786 H   0  0  0  0  0  0  0  0  0  0  0  0
  145.8428  142.6071  154.0642 H   0  0  0  0  0  0  0  0  0  0  0  0
  146.3951  134.3586  151.0357 H   0  0  0  0  0  0  0  0  0  0  0  0
  146.8115  134.1356  152.7193 H   0  0  0  0  0  0  0  0  0  0  0  0
  145.8224  131.8992  152.7832 H   0  0  0  0  0  0  0  0  0  0  0  0
  147.0627  131.9941  151.5571 H   0  0  0  0  0  0  0  0  0  0  0  0
  145.0010  130.8997  150.9281 H   0  0  0  0  0  0  0  0  0  0  0  0
  1  2  1  0  0  0  0
  1 22  1  0  0  0  0
  1 23  1  0  0  0  0
  1 24  1  0  0  0  0
  2 20  1  0  0  0  0
  2  3  1  0  0  0  0
  2 45  1  0  0  0  0
  3  4  1  0  0  0  0
  3 25  1  0  0  0  0
  3 26  1  0  0  0  0
  4  5  1  0  0  0  0
  4 27  1  0  0  0  0
  4 28  1  0  0  0  0
  5  6  1  0  0  0  0
  5 19  1  0  0  0  0
  6  7  1  0  0  0  0
  6  8  1  0  0  0  0
  6  9  1  0  0  0  0
  7 29  1  0  0  0  0
  7 30  1  0  0  0  0
  7 31  1  0  0  0  0
  8 32  1  0  0  0  0
  8 33  1  0  0  0  0
  8 34  1  0  0  0  0
  9 10  1  0  0  0  0
  9 35  1  0  0  0  0
  9 36  1  0  0  0  0
 10 11  1  0  0  0  0
 10 37  1  0  0  0  0
 11 12  2  0  0  0  0
 11 13  1  0  0  0  0
 13 14  1  0  0  0  0
 13 38  1  0  0  0  0
 14 18  2  0  0  0  0
 14 15  1  0  0  0  0
 15 16  2  0  0  0  0
 15 39  1  0  0  0  0
 16 17  1  0  0  0  0
 17 21  1  0  0  0  0
 17 18  1  0  0  0  0
 18 40  1  0  0  0  0
 19 20  1  0  0  0  0
 19 41  1  0  0  0  0
 19 42  1  0  0  0  0
 20 43  1  0  0  0  0
 20 44  1  0  0  0  0
M  CHG  1   2   1
M  END
> <s_m_source_file>
AV-unprocessed.smi

> <i_m_source_file_index>
1736

> <i_lp_mmshare_version>
43012

> <i_f3d_flags>
0

> <s_epik_input>
W0NIM11OMVtDSDJdW0NIMl1OKFtDSDJdW0NIMl0xKUMoW0NIM10pKFtDSDNdKVtDSDJdW05IXUMoPU8pW05IXWMyW2NIXW5bbkhdW2NIXTI=

> <s_epik_cmdline>
J2VwaWtfcHl0aG9uJywgJy1waCcsICc3LjAnLCAnLXRuJywgJzgnLCAnLW1hJywgJzIwMCcsICctbWV0YWxfYmluZGluZycsICctaW1hZScsICc8aW5maWxlLm1hZT4nLCAnLW9tYWUnLCAnPG91dGZpbGUubWFlPic=

> <r_lp_tautomer_probability>
0.5

> <r_epik_Ionization_Penalty>
0.0248316

> <r_epik_Ionization_Penalty_Charging>
0.0238192

> <r_epik_Ionization_Penalty_Neutral>
0.00101244

> <r_epik_State_Penalty>
0.139266

> <r_epik_Charging_Adjusted_Penalty>
0.163085

> <i_epik_Tot_Q>
1

> <i_epik_Tot_abs_Q>
1

> <r_epik_Metal_State_Penalty>
0.139266

> <b_epik_Metal_Only>
0

> <s_lp_Force_Field>
OPLS_2005

> <r_lp_Energy>
29.1357

> <b_lp_Chiralities_Consistent>
1

> <s_lp_Variant>
AV-unprocessed.smi:1736-1

> <Gold.Version>
5.8.1

> <Gold.Id.Protein>
6NUR|6NUR_protein|mol2

> <Gold.PLP.Fitness>
41.2722

> <Gold.PLP.PLP>
-30.9536

> <Gold.PLP.part.hbond>
-5.0109

> <Gold.PLP.part.metal>
0.0000

> <Gold.PLP.part.buried>
-3.2498

> <Gold.PLP.part.nonpolar>
-27.1305

> <Gold.PLP.part.repulsive>
4.6127

> <Gold.PLP.ligand.clash>
0.0000

> <Gold.PLP.ligand.torsion>
0.4299

> <Gold.PLP.Chemscore.Hbond>
2.9844

> <Gold.PLP.Chemscore.CHOScore>
0.7304

> <Gold.PLP.Chemscore.Metal>
0.0000

> <Gold.Chemscore.Hbonds>
donor molecule, donor type, donor heavy atom, donor atom, acceptor molecule, acceptor atom, score
      L1  H    10    37       P1 10175  0.84
      L1  H    13    38       P1 10175  1.00
      L1  H    17    21       P1  8028  1.00
      P1  H  8011  8017       L1    16  0.19
      L1  C    15    39       P1  7957  0.44

> <Gold.PLP.Chemscore.Internal.Correction>
0.0343

> <Gold.Rescore>
     Score         DG    S(hbond)    S(metal)    S(lipo)     H(rot)  DE(clash)    DE(int)     intcor
     15.68     -18.94       2.80        0.00      70.84       1.63       1.83       1.43       ----

> <Gold.Chemscore.Fitness>
15.6838

> <Gold.Chemscore.DG>
-18.9440

> <Gold.Chemscore.ZeroCoef>
-5.4800

> <Gold.Chemscore.Hbond>
2.7964

> <Gold.Chemscore.Metal>
0.0000

> <Gold.Chemscore.Lipo>
70.8433

> <Gold.Chemscore.Internal_Hbond>
0.0000

> <Gold.Chemscore.DEClash>
1.8308

> <Gold.Chemscore.DEInternal>
1.4294

> <Gold.Chemscore.Rot>
1.6267

> <Gold.Chemscore.Internal.Correction>
   9.000000E+99

> <Gold.Chemscore.Hbonds>
donor molecule, donor type, donor heavy atom, donor atom, acceptor molecule, acceptor atom, score
      L1  H    10    37       P1 10175  0.79
      L1  H    13    38       P1 10175  0.82
      L1  H    17    21       P1  8028  0.72
      P1  H  8011  8017       L1    16  0.01

> <Gold.Chemscore.Hbond.Weighted>
-9.3398

> <Gold.Chemscore.Metal.Weighted>
-0.0000

> <Gold.Chemscore.Lipo.Weighted>
-8.2887

> <Gold.Chemscore.Internal_Hbond.Weighted>
0.0000

> <Gold.Chemscore.DEClash.Weighted>
1.8308

> <Gold.Chemscore.DEInternal.Weighted>
1.4294

> <Gold.Chemscore.Rot.Weighted>
4.1645

> <Gold.Chemscore.Internal.Correction.Weighted>
   9.000000E+99

> <Gold.Protein.RotatedTorsions>
[ 6907 6896 6895 6894 ] final  -52.12 input  -60.11 | X-H torsion
[ 7974 7965 7964 7962 ] final   39.46 input  175.53 | X-H torsion
[ 8008 7997 7996 7995 ] final -132.94 input   59.86 | X-H torsion
[ 10167 10162 10161 10158 ] final   58.73 input  -65.29 | X-H torsion
[ 10718 10713 10712 10709 ] final  -32.09 input   66.30 | X-H torsion
[ 10763 10752 10751 10750 ] final  -86.01 input  -60.55 | X-H torsion
[ 11005 11000 10999 10996 ] final  -75.69 input  -57.11 | X-H torsion

> <Gold.Protein.ActiveResidues>
 VAL166  LYS551  ARG553  GLY616  TRP617  ASP618  TYR619  PRO620  LYS621  CYS622 
 ASP623  PHE694  ASN695  SER759  ASP760  ASP761  ALA762  ILE779  LEU786  VAL792 
 PHE793  MET794  SER795  GLU796  ALA797  LYS798  CYS799  TRP800  GLU811  SER814 

> <Gold.Protein.RotatedAtoms>
  150.8548  134.7883  159.7036 H   0  0  0  0  0  0  0  0  0  0  0  0  # atno 6907 bound_to 6896
  152.4602  134.5197  159.9788 H   0  0  0  0  0  0  0  0  0  0  0  0  # atno 6908 bound_to 6896
  151.5312  133.3411  159.2954 H   0  0  0  0  0  0  0  0  0  0  0  0  # atno 6909 bound_to 6896
  146.0982  139.5649  142.9431 H   0  0  0  0  0  0  0  0  0  0  0  0  # atno 7974 bound_to 7965
  155.3372  140.0470  157.3044 H   0  0  0  0  0  0  0  0  0  0  0  0  # atno 8008 bound_to 7997
  154.5297  140.2253  155.8792 H   0  0  0  0  0  0  0  0  0  0  0  0  # atno 8009 bound_to 7997
  156.1775  140.3081  155.9093 H   0  0  0  0  0  0  0  0  0  0  0  0  # atno 8010 bound_to 7997
  140.1840  144.4153  150.6602 H   0  0  0  0  0  0  0  0  0  0  0  0  # atno 10167 bound_to 10162
  156.3792  130.4353  149.7482 H   0  0  0  0  0  0  0  0  0  0  0  0  # atno 10718 bound_to 10713
  154.6176  135.5464  153.7540 H   0  0  0  0  0  0  0  0  0  0  0  0  # atno 10763 bound_to 10752
  153.0223  135.6405  154.1488 H   0  0  0  0  0  0  0  0  0  0  0  0  # atno 10764 bound_to 10752
  154.1423  135.2907  155.3137 H   0  0  0  0  0  0  0  0  0  0  0  0  # atno 10765 bound_to 10752
  141.1648  133.6956  156.7555 H   0  0  0  0  0  0  0  0  0  0  0  0  # atno 11005 bound_to 11000
  145.5906  141.0370  143.2072 LP  0  0  0  0  0  0  0  0  0  0  0  0  # atno 17320 bound_to 7965
  144.7412  139.7444  143.7310 LP  0  0  0  0  0  0  0  0  0  0  0  0  # atno 17321 bound_to 7965
  140.6500  143.2223  151.6098 LP  0  0  0  0  0  0  0  0  0  0  0  0  # atno 17342 bound_to 10162
  139.5284  144.2990  152.1089 LP  0  0  0  0  0  0  0  0  0  0  0  0  # atno 17343 bound_to 10162
  156.4579  130.7938  151.2958 LP  0  0  0  0  0  0  0  0  0  0  0  0  # atno 17370 bound_to 10713
  157.7491  131.0075  150.3192 LP  0  0  0  0  0  0  0  0  0  0  0  0  # atno 17371 bound_to 10713
  140.2572  134.8495  157.3724 LP  0  0  0  0  0  0  0  0  0  0  0  0  # atno 17394 bound_to 11000
  140.1646  134.4686  155.7872 LP  0  0  0  0  0  0  0  0  0  0  0  0  # atno 17395 bound_to 11000

$$$$
