AV-unprocessed.smi:1244|AV-procd|sdf|5233|dock5
  -GOLD-   22720 4333D 1   1.00000     0.00000
 Structure written by MMmdl.
 56 58  0  0  0  0  0  0  0  0  3 V2000
  147.8777  133.2762  152.7857 C   0  0  0  0  0  0  0  0  0  0  0  0
  146.6012  133.7929  152.1130 C   0  0  2  0  0  0  0  0  0  0  0  0
  145.4227  133.8886  153.1035 C   0  0  0  0  0  0  0  0  0  0  0  0
  144.1747  134.3069  152.4192 N   0  3  1  0  0  0  0  0  0  0  0  0
  144.1172  135.7628  152.1218 C   0  0  0  0  0  0  0  0  0  0  0  0
  143.7706  136.6008  153.3678 C   0  0  0  0  0  0  0  0  0  0  0  0
  144.4291  137.9022  153.3402 N   0  0  0  0  0  0  0  0  0  0  0  0
  145.6238  138.1661  153.8884 C   0  0  0  0  0  0  0  0  0  0  0  0
  146.2937  137.3275  154.4910 O   0  0  0  0  0  0  0  0  0  0  0  0
  145.9891  139.4420  153.6775 N   0  0  0  0  0  0  0  0  0  0  0  0
  147.1967  140.0843  154.0750 C   0  0  0  0  0  0  0  0  0  0  0  0
  148.4026  139.3528  154.2300 C   0  0  0  0  0  0  0  0  0  0  0  0
  149.5635  139.9999  154.6936 C   0  0  0  0  0  0  0  0  0  0  0  0
  149.4989  141.3668  155.0119 C   0  0  0  0  0  0  0  0  0  0  0  0
  148.3348  142.0325  154.8664 N   0  3  0  0  0  0  0  0  0  0  0  0
  147.1876  141.4696  154.4107 C   0  0  0  0  0  0  0  0  0  0  0  0
  146.0458  142.2949  154.2970 N   0  0  0  0  0  0  0  0  0  0  0  0
  145.4856  142.9448  155.4764 C   0  0  0  0  0  0  0  0  0  0  0  0
  144.5346  144.0052  154.9287 C   0  0  0  0  0  0  0  0  0  0  0  0
  145.2518  144.4655  153.6630 C   0  0  0  0  0  0  0  0  0  0  0  0
  145.9433  143.1961  153.1532 C   0  0  0  0  0  0  0  0  0  0  0  0
  143.9010  133.4226  151.2572 C   0  0  0  0  0  0  0  0  0  0  0  0
  145.1232  133.3159  150.3193 C   0  0  2  0  0  0  0  0  0  0  0  0
  144.8932  132.3062  149.1895 C   0  0  0  0  0  0  0  0  0  0  0  0
  146.2543  132.8880  151.0702 O   0  0  0  0  0  0  0  0  0  0  0  0
  148.1939  133.9399  153.5908 H   0  0  0  0  0  0  0  0  0  0  0  0
  148.6967  133.2107  152.0689 H   0  0  0  0  0  0  0  0  0  0  0  0
  147.7270  132.2833  153.2101 H   0  0  0  0  0  0  0  0  0  0  0  0
  146.8124  134.7739  151.6842 H   0  0  0  0  0  0  0  0  0  0  0  0
  145.2499  132.9121  153.5581 H   0  0  0  0  0  0  0  0  0  0  0  0
  145.6561  134.5685  153.9239 H   0  0  0  0  0  0  0  0  0  0  0  0
  145.0926  136.0913  151.7603 H   0  0  0  0  0  0  0  0  0  0  0  0
  143.4137  135.9579  151.3126 H   0  0  0  0  0  0  0  0  0  0  0  0
  142.6948  136.7485  153.4661 H   0  0  0  0  0  0  0  0  0  0  0  0
  144.0940  136.0771  154.2680 H   0  0  0  0  0  0  0  0  0  0  0  0
  143.9464  138.6478  152.8599 H   0  0  0  0  0  0  0  0  0  0  0  0
  145.3821  139.9873  153.0832 H   0  0  0  0  0  0  0  0  0  0  0  0
  148.4513  138.2947  154.0222 H   0  0  0  0  0  0  0  0  0  0  0  0
  150.4862  139.4514  154.8154 H   0  0  0  0  0  0  0  0  0  0  0  0
  150.3347  141.9439  155.3805 H   0  0  0  0  0  0  0  0  0  0  0  0
  144.9691  142.2303  156.1183 H   0  0  0  0  0  0  0  0  0  0  0  0
  146.2721  143.4265  156.0584 H   0  0  0  0  0  0  0  0  0  0  0  0
  143.5765  143.5520  154.6699 H   0  0  0  0  0  0  0  0  0  0  0  0
  144.3484  144.8150  155.6351 H   0  0  0  0  0  0  0  0  0  0  0  0
  144.5781  144.9058  152.9274 H   0  0  0  0  0  0  0  0  0  0  0  0
  146.0024  145.2141  153.9203 H   0  0  0  0  0  0  0  0  0  0  0  0
  146.9179  143.4233  152.7189 H   0  0  0  0  0  0  0  0  0  0  0  0
  145.3318  142.7220  152.3850 H   0  0  0  0  0  0  0  0  0  0  0  0
  143.6563  132.4319  151.6430 H   0  0  0  0  0  0  0  0  0  0  0  0
  143.0226  133.7562  150.7066 H   0  0  0  0  0  0  0  0  0  0  0  0
  145.3398  134.2846  149.8671 H   0  0  0  0  0  0  0  0  0  0  0  0
  144.0393  132.5925  148.5750 H   0  0  0  0  0  0  0  0  0  0  0  0
  144.7022  131.3077  149.5837 H   0  0  0  0  0  0  0  0  0  0  0  0
  145.7650  132.2455  148.5377 H   0  0  0  0  0  0  0  0  0  0  0  0
  143.4318  134.1456  153.0843 H   0  0  0  0  0  0  0  0  0  0  0  0
  148.3198  143.0237  155.1071 H   0  0  0  0  0  0  0  0  0  0  0  0
  1  2  1  0  0  0  0
  1 26  1  0  0  0  0
  1 27  1  0  0  0  0
  1 28  1  0  0  0  0
  2 25  1  0  0  0  0
  2  3  1  0  0  0  0
  2 29  1  0  0  0  0
  3  4  1  0  0  0  0
  3 30  1  0  0  0  0
  3 31  1  0  0  0  0
  4  5  1  0  0  0  0
  4 22  1  0  0  0  0
  4 55  1  0  0  0  0
  5  6  1  0  0  0  0
  5 32  1  0  0  0  0
  5 33  1  0  0  0  0
  6  7  1  0  0  0  0
  6 34  1  0  0  0  0
  6 35  1  0  0  0  0
  7  8  1  0  0  0  0
  7 36  1  0  0  0  0
  8  9  2  0  0  0  0
  8 10  1  0  0  0  0
 10 11  1  0  0  0  0
 10 37  1  0  0  0  0
 11 16  1  0  0  0  0
 11 12  2  0  0  0  0
 12 13  1  0  0  0  0
 12 38  1  0  0  0  0
 13 14  2  0  0  0  0
 13 39  1  0  0  0  0
 14 15  1  0  0  0  0
 14 40  1  0  0  0  0
 15 16  2  0  0  0  0
 15 56  1  0  0  0  0
 16 17  1  0  0  0  0
 17 21  1  0  0  0  0
 17 18  1  0  0  0  0
 18 19  1  0  0  0  0
 18 41  1  0  0  0  0
 18 42  1  0  0  0  0
 19 20  1  0  0  0  0
 19 43  1  0  0  0  0
 19 44  1  0  0  0  0
 20 21  1  0  0  0  0
 20 45  1  0  0  0  0
 20 46  1  0  0  0  0
 21 47  1  0  0  0  0
 21 48  1  0  0  0  0
 22 23  1  0  0  0  0
 22 49  1  0  0  0  0
 22 50  1  0  0  0  0
 23 24  1  0  0  0  0
 23 25  1  0  0  0  0
 23 51  1  0  0  0  0
 24 52  1  0  0  0  0
 24 53  1  0  0  0  0
 24 54  1  0  0  0  0
M  CHG  1   4   1
M  CHG  1  15   1
M  END
> <s_m_source_file>
AV-unprocessed.smi

> <i_m_source_file_index>
1244

> <i_lp_mmshare_version>
43012

> <i_f3d_flags>
0

> <s_epik_input>
W0NIM11bQ0BASF0xW0NIMl1OKFtDSDJdW0NASF0oTzEpW0NIM10pW0NIMl1bQ0gyXVtOSF1DKD1PKVtOSF1jMltjSF1bY0hdW2NIXW5jMk4zW0NIMl1bQ0gyXVtDSDJdW0NIMl0z

> <s_epik_cmdline>
J2VwaWtfcHl0aG9uJywgJy1waCcsICc3LjAnLCAnLXRuJywgJzgnLCAnLW1hJywgJzIwMCcsICctbWV0YWxfYmluZGluZycsICctaW1hZScsICc8aW5maWxlLm1hZT4nLCAnLW9tYWUnLCAnPG91dGZpbGUubWFlPic=

> <r_lp_tautomer_probability>
0.999994

> <r_epik_Ionization_Penalty>
1.81601

> <r_epik_Ionization_Penalty_Charging>
1.81599

> <r_epik_Ionization_Penalty_Neutral>
2.01972e-05

> <r_epik_State_Penalty>
1.85672

> <r_epik_Charging_Adjusted_Penalty>
3.6727

> <i_epik_Tot_Q>
2

> <i_epik_Tot_abs_Q>
2

> <r_epik_Metal_State_Penalty>
1.93796

> <b_epik_Metal_Only>
0

> <s_lp_Force_Field>
OPLS_2005

> <r_lp_Energy>
53.9706

> <b_lp_Chiralities_Consistent>
1

> <s_lp_Variant>
AV-unprocessed.smi:1244-13

> <Gold.Version>
5.8.1

> <Gold.Id.Protein>
6NUR|6NUR_protein|mol2

> <Gold.PLP.Fitness>
51.0536

> <Gold.PLP.PLP>
-40.7819

> <Gold.PLP.part.hbond>
-3.0000

> <Gold.PLP.part.metal>
0.0000

> <Gold.PLP.part.buried>
-6.5206

> <Gold.PLP.part.nonpolar>
-30.8838

> <Gold.PLP.part.repulsive>
0.6288

> <Gold.PLP.ligand.clash>
0.0000

> <Gold.PLP.ligand.torsion>
1.0635

> <Gold.PLP.Chemscore.Hbond>
4.0000

> <Gold.PLP.Chemscore.CHOScore>
0.0000

> <Gold.PLP.Chemscore.Metal>
0.0000

> <Gold.Chemscore.Hbonds>
donor molecule, donor type, donor heavy atom, donor atom, acceptor molecule, acceptor atom, score
      L1  H     7    36       P1 10175  1.00
      L1  H    10    37       P1 10175  1.00
      L1  H    15    56       P1  8028  2.00

> <Gold.PLP.Chemscore.Internal.Correction>
0.3988

> <Gold.Rescore>
     Score         DG    S(hbond)    S(metal)    S(lipo)     H(rot)  DE(clash)    DE(int)     intcor
     19.68     -22.16       2.91        0.00      95.21       1.63       0.08       2.39       ----

> <Gold.Chemscore.Fitness>
19.6824

> <Gold.Chemscore.DG>
-22.1594

> <Gold.Chemscore.ZeroCoef>
-5.4800

> <Gold.Chemscore.Hbond>
2.9072

> <Gold.Chemscore.Metal>
0.0000

> <Gold.Chemscore.Lipo>
95.2145

> <Gold.Chemscore.Internal_Hbond>
0.0000

> <Gold.Chemscore.DEClash>
0.0824

> <Gold.Chemscore.DEInternal>
2.3946

> <Gold.Chemscore.Rot>
1.6293

> <Gold.Chemscore.Internal.Correction>
   9.000000E+99

> <Gold.Chemscore.Hbonds>
donor molecule, donor type, donor heavy atom, donor atom, acceptor molecule, acceptor atom, score
      L1  H     7    36       P1 10175  0.97
      L1  H    10    37       P1 10175  0.96
      L1  H    15    56       P1  8028  0.99

> <Gold.Chemscore.Hbond.Weighted>
-9.7102

> <Gold.Chemscore.Metal.Weighted>
-0.0000

> <Gold.Chemscore.Lipo.Weighted>
-11.1401

> <Gold.Chemscore.Internal_Hbond.Weighted>
0.0000

> <Gold.Chemscore.DEClash.Weighted>
0.0824

> <Gold.Chemscore.DEInternal.Weighted>
2.3946

> <Gold.Chemscore.Rot.Weighted>
4.1709

> <Gold.Chemscore.Internal.Correction.Weighted>
   9.000000E+99

> <Gold.Protein.RotatedTorsions>
[ 6907 6896 6895 6894 ] final -125.02 input  -60.11 | X-H torsion
[ 7974 7965 7964 7962 ] final -124.87 input  175.53 | X-H torsion
[ 8008 7997 7996 7995 ] final  172.48 input   59.86 | X-H torsion
[ 10167 10162 10161 10158 ] final  116.50 input  -65.29 | X-H torsion
[ 10718 10713 10712 10709 ] final -132.42 input   66.30 | X-H torsion
[ 10763 10752 10751 10750 ] final  177.63 input  -60.55 | X-H torsion
[ 11005 11000 10999 10996 ] final -135.10 input  -57.11 | X-H torsion

> <Gold.Protein.ActiveResidues>
 VAL166  LYS551  ARG553  GLY616  TRP617  ASP618  TYR619  PRO620  LYS621  CYS622 
 ASP623  PHE694  ASN695  SER759  ASP760  ASP761  ALA762  ILE779  LEU786  VAL792 
 PHE793  MET794  SER795  GLU796  ALA797  LYS798  CYS799  TRP800  GLU811  SER814 

> <Gold.Protein.RotatedAtoms>
  150.8826  133.7351  159.2927 H   0  0  0  0  0  0  0  0  0  0  0  0  # atno 6907 bound_to 6896
  151.4928  135.1057  159.9817 H   0  0  0  0  0  0  0  0  0  0  0  0  # atno 6908 bound_to 6896
  152.4769  133.8114  159.7061 H   0  0  0  0  0  0  0  0  0  0  0  0  # atno 6909 bound_to 6896
  145.0035  140.7842  143.4481 H   0  0  0  0  0  0  0  0  0  0  0  0  # atno 7974 bound_to 7965
  156.1170  140.1485  156.9258 H   0  0  0  0  0  0  0  0  0  0  0  0  # atno 8008 bound_to 7997
  154.4808  140.0880  156.7414 H   0  0  0  0  0  0  0  0  0  0  0  0  # atno 8009 bound_to 7997
  155.4496  140.3434  155.4301 H   0  0  0  0  0  0  0  0  0  0  0  0  # atno 8010 bound_to 7997
  139.6243  144.7106  151.2567 H   0  0  0  0  0  0  0  0  0  0  0  0  # atno 10167 bound_to 10162
  156.2344  130.7057  151.0892 H   0  0  0  0  0  0  0  0  0  0  0  0  # atno 10718 bound_to 10713
  154.4970  135.2781  155.1451 H   0  0  0  0  0  0  0  0  0  0  0  0  # atno 10763 bound_to 10752
  154.3100  135.6231  153.5465 H   0  0  0  0  0  0  0  0  0  0  0  0  # atno 10764 bound_to 10752
  152.9896  135.5717  154.5404 H   0  0  0  0  0  0  0  0  0  0  0  0  # atno 10765 bound_to 10752
  140.8929  134.1788  157.4515 H   0  0  0  0  0  0  0  0  0  0  0  0  # atno 11005 bound_to 11000
  145.2120  139.2200  143.5138 LP  0  0  0  0  0  0  0  0  0  0  0  0  # atno 17320 bound_to 7965
  146.3456  140.1960  142.8589 LP  0  0  0  0  0  0  0  0  0  0  0  0  # atno 17321 bound_to 7965
  140.7401  143.6597  150.8175 LP  0  0  0  0  0  0  0  0  0  0  0  0  # atno 17342 bound_to 10162
  140.0212  143.5540  152.2799 LP  0  0  0  0  0  0  0  0  0  0  0  0  # atno 17343 bound_to 10162
  157.7148  131.0715  150.6369 LP  0  0  0  0  0  0  0  0  0  0  0  0  # atno 17370 bound_to 10713
  156.6438  130.4466  149.5743 LP  0  0  0  0  0  0  0  0  0  0  0  0  # atno 17371 bound_to 10713
  139.8732  134.9866  156.5332 LP  0  0  0  0  0  0  0  0  0  0  0  0  # atno 17394 bound_to 11000
  140.8324  133.8268  155.8997 LP  0  0  0  0  0  0  0  0  0  0  0  0  # atno 17395 bound_to 11000

$$$$
