AV-unprocessed.smi:1741|AV-procd|sdf|7017|dock3
  -GOLD-   22720 8233D 1   1.00000     0.00000
 Structure written by MMmdl.
 38 39  0  0  0  0  0  0  0  0  1 V2000
  146.4072  138.2937  154.1518 C   0  0  0  0  0  0  0  0  0  0  0  0
  147.2408  139.2939  153.3426 C   0  0  0  0  0  0  0  0  0  0  0  0
  148.2599  139.9233  154.1591 N   0  0  0  0  0  0  0  0  0  0  0  0
  148.2790  141.2117  154.6550 C   0  0  0  0  0  0  0  0  0  0  0  0
  149.4497  141.3221  155.3504 C   0  0  0  0  0  0  0  0  0  0  0  0
  149.9725  142.4316  156.0617 N   0  0  0  0  0  0  0  0  0  0  0  0
  150.9746  142.4286  156.9557 C   0  0  0  0  0  0  0  0  0  0  0  0
  151.6052  141.4309  157.3058 O   0  0  0  0  0  0  0  0  0  0  0  0
  151.2036  143.6619  157.4288 N   0  0  0  0  0  0  0  0  0  0  0  0
  152.1973  144.0219  158.4379 C   0  0  1  0  0  0  0  0  0  0  0  0
  151.9153  145.4532  158.9208 C   0  0  0  0  0  0  0  0  0  0  0  0
  152.1556  142.9911  159.5832 C   0  0  2  0  0  0  0  0  0  0  0  0
  152.4982  143.5550  160.9630 C   0  0  0  0  0  0  0  0  0  0  0  0
  152.9651  142.3170  161.6928 C   0  0  0  0  0  0  0  0  0  0  0  0
  153.7318  141.5821  160.5981 C   0  0  0  0  0  0  0  0  0  0  0  0
  153.1245  141.9660  159.3671 O   0  0  0  0  0  0  0  0  0  0  0  0
  150.0896  140.0611  155.2341 C   0  0  0  0  0  0  0  0  0  0  0  0
  149.3657  139.2211  154.5098 N   0  0  0  0  0  0  0  0  0  0  0  0
  145.6491  137.8245  153.5245 H   0  0  0  0  0  0  0  0  0  0  0  0
  145.8966  138.7856  154.9802 H   0  0  0  0  0  0  0  0  0  0  0  0
  147.0332  137.5026  154.5656 H   0  0  0  0  0  0  0  0  0  0  0  0
  147.7275  138.7904  152.5064 H   0  0  0  0  0  0  0  0  0  0  0  0
  146.5993  140.0667  152.9164 H   0  0  0  0  0  0  0  0  0  0  0  0
  147.4766  141.9101  154.4681 H   0  0  0  0  0  0  0  0  0  0  0  0
  149.5325  143.3207  155.8744 H   0  0  0  0  0  0  0  0  0  0  0  0
  150.6274  144.4135  157.0795 H   0  0  0  0  0  0  0  0  0  0  0  0
  153.1987  144.0096  158.0038 H   0  0  0  0  0  0  0  0  0  0  0  0
  152.6667  145.7867  159.6366 H   0  0  0  0  0  0  0  0  0  0  0  0
  150.9400  145.5256  159.4033 H   0  0  0  0  0  0  0  0  0  0  0  0
  151.9285  146.1570  158.0879 H   0  0  0  0  0  0  0  0  0  0  0  0
  151.1747  142.5142  159.6277 H   0  0  0  0  0  0  0  0  0  0  0  0
  153.3136  144.2765  160.8944 H   0  0  0  0  0  0  0  0  0  0  0  0
  151.6505  144.0401  161.4478 H   0  0  0  0  0  0  0  0  0  0  0  0
  153.5766  142.5373  162.5681 H   0  0  0  0  0  0  0  0  0  0  0  0
  152.1060  141.7262  162.0136 H   0  0  0  0  0  0  0  0  0  0  0  0
  154.7745  141.9015  160.5822 H   0  0  0  0  0  0  0  0  0  0  0  0
  153.7108  140.5004  160.7321 H   0  0  0  0  0  0  0  0  0  0  0  0
  151.0359  139.7347  155.6398 H   0  0  0  0  0  0  0  0  0  0  0  0
  1  2  1  0  0  0  0
  1 19  1  0  0  0  0
  1 20  1  0  0  0  0
  1 21  1  0  0  0  0
  2  3  1  0  0  0  0
  2 22  1  0  0  0  0
  2 23  1  0  0  0  0
  3 18  1  0  0  0  0
  3  4  1  0  0  0  0
  4  5  2  0  0  0  0
  4 24  1  0  0  0  0
  5  6  1  0  0  0  0
  5 17  1  0  0  0  0
  6  7  1  0  0  0  0
  6 25  1  0  0  0  0
  7  8  2  0  0  0  0
  7  9  1  0  0  0  0
  9 10  1  0  0  0  0
  9 26  1  0  0  0  0
 10 11  1  0  0  0  0
 10 12  1  0  0  0  0
 10 27  1  0  0  0  0
 11 28  1  0  0  0  0
 11 29  1  0  0  0  0
 11 30  1  0  0  0  0
 12 16  1  0  0  0  0
 12 13  1  0  0  0  0
 12 31  1  0  0  0  0
 13 14  1  0  0  0  0
 13 32  1  0  0  0  0
 13 33  1  0  0  0  0
 14 15  1  0  0  0  0
 14 34  1  0  0  0  0
 14 35  1  0  0  0  0
 15 16  1  0  0  0  0
 15 36  1  0  0  0  0
 15 37  1  0  0  0  0
 17 18  2  0  0  0  0
 17 38  1  0  0  0  0
M  END
> <s_m_source_file>
AV-unprocessed.smi

> <i_m_source_file_index>
1741

> <i_lp_mmshare_version>
43012

> <i_f3d_flags>
0

> <s_epik_input>
W0NIM11bQ0gyXW4xW2NIXWMoW2NIXW4xKVtOSF1DKD1PKVtOSF1bQ0BIXShbQ0gzXSlbQ0BASF0yW0NIMl1bQ0gyXVtDSDJdTzI=

> <s_epik_cmdline>
J2VwaWtfcHl0aG9uJywgJy1waCcsICc3LjAnLCAnLXRuJywgJzgnLCAnLW1hJywgJzIwMCcsICctbWV0YWxfYmluZGluZycsICctaW1hZScsICc8aW5maWxlLm1hZT4nLCAnLW9tYWUnLCAnPG91dGZpbGUubWFlPic=

> <r_lp_tautomer_probability>
1

> <r_epik_Ionization_Penalty>
0.000179292

> <r_epik_Ionization_Penalty_Charging>
0

> <r_epik_Ionization_Penalty_Neutral>
0.000179292

> <r_epik_State_Penalty>
-0

> <r_epik_Charging_Adjusted_Penalty>
0

> <i_epik_Tot_Q>
0

> <i_epik_Tot_abs_Q>
0

> <r_epik_Metal_State_Penalty>
-0

> <b_epik_Metal_Only>
0

> <s_lp_Force_Field>
OPLS_2005

> <r_lp_Energy>
22.1754

> <b_lp_Chiralities_Consistent>
1

> <s_lp_Variant>
AV-unprocessed.smi:1741-2

> <Gold.Version>
5.8.1

> <Gold.Id.Protein>
6NUR|6NUR_protein|mol2

> <Gold.PLP.Fitness>
44.0019

> <Gold.PLP.PLP>
-42.3021

> <Gold.PLP.part.hbond>
-1.9061

> <Gold.PLP.part.metal>
0.0000

> <Gold.PLP.part.buried>
-3.7833

> <Gold.PLP.part.nonpolar>
-36.8757

> <Gold.PLP.part.repulsive>
0.3073

> <Gold.PLP.ligand.clash>
0.0000

> <Gold.PLP.ligand.torsion>
1.2906

> <Gold.PLP.Chemscore.Hbond>
1.4203

> <Gold.PLP.Chemscore.CHOScore>
0.0000

> <Gold.PLP.Chemscore.Metal>
0.0000

> <Gold.Chemscore.Hbonds>
donor molecule, donor type, donor heavy atom, donor atom, acceptor molecule, acceptor atom, score
      L1  H     6    25       P1  8028  1.00
      L1  H     9    26       P1  8028  0.40

> <Gold.PLP.Chemscore.Internal.Correction>
0.0203

> <Gold.Rescore>
     Score         DG    S(hbond)    S(metal)    S(lipo)     H(rot)  DE(clash)    DE(int)     intcor
     14.29     -19.74       1.83        0.00      99.67       1.38       0.04       5.42       ----

> <Gold.Chemscore.Fitness>
14.2863

> <Gold.Chemscore.DG>
-19.7391

> <Gold.Chemscore.ZeroCoef>
-5.4800

> <Gold.Chemscore.Hbond>
1.8345

> <Gold.Chemscore.Metal>
0.0000

> <Gold.Chemscore.Lipo>
99.6749

> <Gold.Chemscore.Internal_Hbond>
0.0000

> <Gold.Chemscore.DEClash>
0.0366

> <Gold.Chemscore.DEInternal>
5.4162

> <Gold.Chemscore.Rot>
1.3790

> <Gold.Chemscore.Internal.Correction>
   9.000000E+99

> <Gold.Chemscore.Hbonds>
donor molecule, donor type, donor heavy atom, donor atom, acceptor molecule, acceptor atom, score
      L1  H     6    25       P1  8028  0.96
      L1  H     9    26       P1  8028  0.34

> <Gold.Chemscore.Hbond.Weighted>
-6.1273

> <Gold.Chemscore.Metal.Weighted>
-0.0000

> <Gold.Chemscore.Lipo.Weighted>
-11.6620

> <Gold.Chemscore.Internal_Hbond.Weighted>
0.0000

> <Gold.Chemscore.DEClash.Weighted>
0.0366

> <Gold.Chemscore.DEInternal.Weighted>
5.4162

> <Gold.Chemscore.Rot.Weighted>
3.5302

> <Gold.Chemscore.Internal.Correction.Weighted>
   9.000000E+99

> <Gold.Protein.RotatedTorsions>
[ 6907 6896 6895 6894 ] final   27.20 input  -60.11 | X-H torsion
[ 7974 7965 7964 7962 ] final  162.53 input  175.53 | X-H torsion
[ 8008 7997 7996 7995 ] final   33.76 input   59.86 | X-H torsion
[ 10167 10162 10161 10158 ] final  -69.95 input  -65.29 | X-H torsion
[ 10718 10713 10712 10709 ] final  -36.95 input   66.30 | X-H torsion
[ 10763 10752 10751 10750 ] final  101.90 input  -60.55 | X-H torsion
[ 11005 11000 10999 10996 ] final  155.06 input  -57.11 | X-H torsion

> <Gold.Protein.ActiveResidues>
 VAL166  LYS551  ARG553  GLY616  TRP617  ASP618  TYR619  PRO620  LYS621  CYS622 
 ASP623  PHE694  ASN695  SER759  ASP760  ASP761  ALA762  ILE779  LEU786  VAL792 
 PHE793  MET794  SER795  GLU796  ALA797  LYS798  CYS799  TRP800  GLU811  SER814 

> <Gold.Protein.RotatedAtoms>
  151.9987  134.9940  160.0564 H   0  0  0  0  0  0  0  0  0  0  0  0  # atno 6907 bound_to 6896
  152.1540  133.4535  159.4836 H   0  0  0  0  0  0  0  0  0  0  0  0  # atno 6908 bound_to 6896
  150.6879  134.2072  159.4388 H   0  0  0  0  0  0  0  0  0  0  0  0  # atno 6909 bound_to 6896
  144.7632  139.8054  143.6325 H   0  0  0  0  0  0  0  0  0  0  0  0  # atno 7974 bound_to 7965
  155.1439  140.3268  155.4446 H   0  0  0  0  0  0  0  0  0  0  0  0  # atno 8008 bound_to 7997
  156.2596  140.1989  156.6503 H   0  0  0  0  0  0  0  0  0  0  0  0  # atno 8009 bound_to 7997
  154.6522  140.0557  156.9955 H   0  0  0  0  0  0  0  0  0  0  0  0  # atno 8010 bound_to 7997
  140.5390  143.2316  151.7123 H   0  0  0  0  0  0  0  0  0  0  0  0  # atno 10167 bound_to 10162
  156.3209  130.4265  149.7961 H   0  0  0  0  0  0  0  0  0  0  0  0  # atno 10718 bound_to 10713
  153.3326  135.4029  155.1507 H   0  0  0  0  0  0  0  0  0  0  0  0  # atno 10763 bound_to 10752
  154.8626  135.3614  154.5451 H   0  0  0  0  0  0  0  0  0  0  0  0  # atno 10764 bound_to 10752
  153.5890  135.7074  153.5490 H   0  0  0  0  0  0  0  0  0  0  0  0  # atno 10765 bound_to 10752
  140.1547  134.8651  157.2498 H   0  0  0  0  0  0  0  0  0  0  0  0  # atno 11005 bound_to 11000
  146.1715  139.4868  142.9924 LP  0  0  0  0  0  0  0  0  0  0  0  0  # atno 17320 bound_to 7965
  145.6553  141.0253  143.1738 LP  0  0  0  0  0  0  0  0  0  0  0  0  # atno 17321 bound_to 7965
  139.4982  144.3997  152.0194 LP  0  0  0  0  0  0  0  0  0  0  0  0  # atno 17342 bound_to 10162
  140.3105  144.3543  150.6035 LP  0  0  0  0  0  0  0  0  0  0  0  0  # atno 17343 bound_to 10162
  156.5269  130.8240  151.3223 LP  0  0  0  0  0  0  0  0  0  0  0  0  # atno 17370 bound_to 10713
  157.7411  130.9864  150.2426 LP  0  0  0  0  0  0  0  0  0  0  0  0  # atno 17371 bound_to 10713
  140.2562  134.3624  155.7423 LP  0  0  0  0  0  0  0  0  0  0  0  0  # atno 17394 bound_to 11000
  141.2203  133.7344  156.9011 LP  0  0  0  0  0  0  0  0  0  0  0  0  # atno 17395 bound_to 11000

$$$$
