AV-unprocessed.smi:20|AV-procd|sdf|114|dock2
  -GOLD-   2262015283D 1   1.00000     0.00000
 Structure written by MMmdl.
 57 61  0  0  0  0  0  0  0  0  1 V2000
  148.7869  144.8553  159.8670 O   0  0  0  0  0  0  0  0  0  0  0  0
  149.9997  144.6777  159.7828 C   0  0  0  0  0  0  0  0  0  0  0  0
  150.6919  143.3795  160.1623 C   0  0  0  0  0  0  0  0  0  0  0  0
  152.0916  143.5238  159.5196 C   0  0  1  0  0  0  0  0  0  0  0  0
  153.2225  142.9007  160.3700 C   0  0  0  0  0  0  0  0  0  0  0  0
  153.1385  141.3651  160.3833 C   0  0  0  0  0  0  0  0  0  0  0  0
  153.1176  140.7994  158.9550 C   0  0  0  0  0  0  0  0  0  0  0  0
  152.0566  141.4300  158.1713 N   0  0  0  0  0  0  0  0  0  0  0  0
  151.6376  140.8135  157.0381 C   0  0  0  0  0  0  0  0  0  0  0  0
  152.4347  139.8934  156.4319 N   0  0  0  0  0  0  0  0  0  0  0  0
  152.0349  139.2901  155.3084 C   0  0  0  0  0  0  0  0  0  0  0  0
  150.8960  139.4538  154.6327 N   0  0  0  0  0  0  0  0  0  0  0  0
  150.0888  140.3688  155.2413 C   0  0  0  0  0  0  0  0  0  0  0  0
  150.3770  141.0869  156.4357 C   0  0  0  0  0  0  0  0  0  0  0  0
  149.3090  141.9177  156.7566 N   0  0  0  0  0  0  0  0  0  0  0  0
  148.4452  141.7118  155.8001 C   0  0  0  0  0  0  0  0  0  0  0  0
  148.8371  140.8023  154.8442 N   0  0  0  0  0  0  0  0  0  0  0  0
  148.0858  140.3877  153.6732 C   0  0  0  0  0  0  0  0  0  0  0  0
  147.4349  138.9911  153.8335 C   0  0  2  0  0  0  0  0  0  0  0  0
  146.6537  138.5494  152.5720 C   0  0  0  0  0  0  0  0  0  0  0  0
  147.4421  138.6730  151.4058 O   0  0  0  0  0  0  0  0  0  0  0  0
  146.5758  138.9037  155.1201 C   0  0  2  0  0  0  0  0  0  0  0  0
  145.7513  137.6345  155.2484 C   0  0  0  0  0  0  0  0  0  0  0  0
  144.7093  138.0308  156.2882 C   0  0  0  0  0  0  0  0  0  0  0  0
  144.4701  139.4178  156.0805 O   0  0  0  0  0  0  0  0  0  0  0  0
  145.4726  139.9626  155.2279 C   0  0  0  0  0  0  0  0  0  0  0  0
  152.1142  142.8903  158.1054 C   0  0  0  0  0  0  0  0  0  0  0  0
  152.2510  145.0568  159.3969 C   0  0  0  0  0  0  0  0  0  0  0  0
  150.8939  145.5675  159.3574 N   0  0  0  0  0  0  0  0  0  0  0  0
  150.7495  143.3226  161.2499 H   0  0  0  0  0  0  0  0  0  0  0  0
  150.1382  142.5110  159.8045 H   0  0  0  0  0  0  0  0  0  0  0  0
  154.1893  143.1997  159.9626 H   0  0  0  0  0  0  0  0  0  0  0  0
  153.1899  143.2836  161.3906 H   0  0  0  0  0  0  0  0  0  0  0  0
  153.9811  140.9490  160.9358 H   0  0  0  0  0  0  0  0  0  0  0  0
  152.2379  141.0511  160.9124 H   0  0  0  0  0  0  0  0  0  0  0  0
  154.0772  140.9766  158.4678 H   0  0  0  0  0  0  0  0  0  0  0  0
  152.9689  139.7195  158.9953 H   0  0  0  0  0  0  0  0  0  0  0  0
  152.7276  138.5747  154.8904 H   0  0  0  0  0  0  0  0  0  0  0  0
  147.4957  142.2261  155.7613 H   0  0  0  0  0  0  0  0  0  0  0  0
  147.3276  141.1476  153.4840 H   0  0  0  0  0  0  0  0  0  0  0  0
  148.7542  140.3975  152.8113 H   0  0  0  0  0  0  0  0  0  0  0  0
  148.2507  138.2760  153.9489 H   0  0  0  0  0  0  0  0  0  0  0  0
  146.3204  137.5152  152.6603 H   0  0  0  0  0  0  0  0  0  0  0  0
  145.7487  139.1433  152.4466 H   0  0  0  0  0  0  0  0  0  0  0  0
  148.0774  139.3590  151.5441 H   0  0  0  0  0  0  0  0  0  0  0  0
  147.2200  138.9831  155.9974 H   0  0  0  0  0  0  0  0  0  0  0  0
  145.2631  137.3983  154.3017 H   0  0  0  0  0  0  0  0  0  0  0  0
  146.3365  136.7678  155.5569 H   0  0  0  0  0  0  0  0  0  0  0  0
  143.7915  137.4492  156.2026 H   0  0  0  0  0  0  0  0  0  0  0  0
  145.1055  137.8938  157.2950 H   0  0  0  0  0  0  0  0  0  0  0  0
  145.8431  140.9107  155.6181 H   0  0  0  0  0  0  0  0  0  0  0  0
  145.0218  140.1531  154.2530 H   0  0  0  0  0  0  0  0  0  0  0  0
  151.3049  143.2984  157.5008 H   0  0  0  0  0  0  0  0  0  0  0  0
  153.0382  143.1633  157.5937 H   0  0  0  0  0  0  0  0  0  0  0  0
  152.7510  145.4790  160.2700 H   0  0  0  0  0  0  0  0  0  0  0  0
  152.8142  145.3570  158.5126 H   0  0  0  0  0  0  0  0  0  0  0  0
  150.6673  146.5026  159.0510 H   0  0  0  0  0  0  0  0  0  0  0  0
  1  2  2  0  0  0  0
  2 29  1  0  0  0  0
  2  3  1  0  0  0  0
  3  4  1  0  0  0  0
  3 30  1  0  0  0  0
  3 31  1  0  0  0  0
  4 27  1  0  0  0  0
  4  5  1  0  0  0  0
  4 28  1  0  0  0  0
  5  6  1  0  0  0  0
  5 32  1  0  0  0  0
  5 33  1  0  0  0  0
  6  7  1  0  0  0  0
  6 34  1  0  0  0  0
  6 35  1  0  0  0  0
  7  8  1  0  0  0  0
  7 36  1  0  0  0  0
  7 37  1  0  0  0  0
  8  9  1  0  0  0  0
  8 27  1  0  0  0  0
  9 14  1  0  0  0  0
  9 10  2  0  0  0  0
 10 11  1  0  0  0  0
 11 12  2  0  0  0  0
 11 38  1  0  0  0  0
 12 13  1  0  0  0  0
 13 17  1  0  0  0  0
 13 14  2  0  0  0  0
 14 15  1  0  0  0  0
 15 16  2  0  0  0  0
 16 17  1  0  0  0  0
 16 39  1  0  0  0  0
 17 18  1  0  0  0  0
 18 19  1  0  0  0  0
 18 40  1  0  0  0  0
 18 41  1  0  0  0  0
 19 20  1  0  0  0  0
 19 22  1  0  0  0  0
 19 42  1  0  0  0  0
 20 21  1  0  0  0  0
 20 43  1  0  0  0  0
 20 44  1  0  0  0  0
 21 45  1  0  0  0  0
 22 26  1  0  0  0  0
 22 23  1  0  0  0  0
 22 46  1  0  0  0  0
 23 24  1  0  0  0  0
 23 47  1  0  0  0  0
 23 48  1  0  0  0  0
 24 25  1  0  0  0  0
 24 49  1  0  0  0  0
 24 50  1  0  0  0  0
 25 26  1  0  0  0  0
 26 51  1  0  0  0  0
 26 52  1  0  0  0  0
 27 53  1  0  0  0  0
 27 54  1  0  0  0  0
 28 29  1  0  0  0  0
 28 55  1  0  0  0  0
 28 56  1  0  0  0  0
 29 57  1  0  0  0  0
M  END
> <s_m_source_file>
AV-unprocessed.smi

> <i_m_source_file_index>
20

> <i_lp_mmshare_version>
43012

> <i_f3d_flags>
0

> <s_epik_input>
W0NIMl0xW05IXUMoPU8pW0NIMl1bQ0BAXTEyW0NIMl1bQ0gyXVtDSDJdTihbQ0gyXTIpYyhuW2NIXW4zKWMoYzM0KW5bY0hdbjRbQ0gyXVtDQEhdKFtDSDJdW09IXSlbQ0BASF01W0NIMl1bQ0gyXU9bQ0gyXTU=

> <s_epik_cmdline>
J2VwaWtfcHl0aG9uJywgJy1waCcsICc3LjAnLCAnLXRuJywgJzgnLCAnLW1hJywgJzIwMCcsICctbWV0YWxfYmluZGluZycsICctaW1hZScsICc8aW5maWxlLm1hZT4nLCAnLW9tYWUnLCAnPG91dGZpbGUubWFlPic=

> <r_lp_tautomer_probability>
1

> <r_epik_Ionization_Penalty>
0.0019697

> <r_epik_Ionization_Penalty_Charging>
0

> <r_epik_Ionization_Penalty_Neutral>
0.0019697

> <r_epik_State_Penalty>
0.00113613

> <r_epik_Charging_Adjusted_Penalty>
0.00113613

> <i_epik_Tot_Q>
0

> <i_epik_Tot_abs_Q>
0

> <r_epik_Metal_State_Penalty>
-0

> <b_epik_Metal_Only>
0

> <s_lp_Force_Field>
OPLS_2005

> <r_lp_Energy>
58.2949

> <b_lp_Chiralities_Consistent>
1

> <s_lp_Variant>
AV-unprocessed.smi:20-2

> <Gold.Version>
5.8.1

> <Gold.Id.Protein>
6NUR|6NUR_protein|mol2

> <Gold.PLP.Fitness>
52.1654

> <Gold.PLP.PLP>
-43.0638

> <Gold.PLP.part.hbond>
-5.0000

> <Gold.PLP.part.metal>
0.0000

> <Gold.PLP.part.buried>
-0.4406

> <Gold.PLP.part.nonpolar>
-37.7316

> <Gold.PLP.part.repulsive>
1.7810

> <Gold.PLP.ligand.clash>
0.0000

> <Gold.PLP.ligand.torsion>
0.6519

> <Gold.PLP.Chemscore.Hbond>
3.2460

> <Gold.PLP.Chemscore.CHOScore>
0.0221

> <Gold.PLP.Chemscore.Metal>
0.0000

> <Gold.Chemscore.Hbonds>
donor molecule, donor type, donor heavy atom, donor atom, acceptor molecule, acceptor atom, score
      L1  H    21    45       P1  7957  0.94
      P1  H  7954  7966       L1    21  0.93
      P1  H  7989  7998       L1    12  0.32
      P1  H  7997  8009       L1    10  1.00
      L1  C    16    39       P1  8028  0.05

> <Gold.PLP.Chemscore.Internal.Correction>
0.6010

> <Gold.Rescore>
     Score         DG    S(hbond)    S(metal)    S(lipo)     H(rot)  DE(clash)    DE(int)     intcor
     15.15     -17.47       2.17        0.00     100.66       2.74       1.78       0.54       ----

> <Gold.Chemscore.Fitness>
15.1489

> <Gold.Chemscore.DG>
-17.4718

> <Gold.Chemscore.ZeroCoef>
-5.4800

> <Gold.Chemscore.Hbond>
2.1656

> <Gold.Chemscore.Metal>
0.0000

> <Gold.Chemscore.Lipo>
100.6575

> <Gold.Chemscore.Internal_Hbond>
0.0000

> <Gold.Chemscore.DEClash>
1.7812

> <Gold.Chemscore.DEInternal>
0.5417

> <Gold.Chemscore.Rot>
2.7415

> <Gold.Chemscore.Internal.Correction>
   9.000000E+99

> <Gold.Chemscore.Hbonds>
donor molecule, donor type, donor heavy atom, donor atom, acceptor molecule, acceptor atom, score
      L1  H    21    45       P1  7957  0.88
      P1  H  7954  7966       L1    21  0.20
      P1  H  7997  8009       L1    10  0.72

> <Gold.Chemscore.Hbond.Weighted>
-7.2331

> <Gold.Chemscore.Metal.Weighted>
-0.0000

> <Gold.Chemscore.Lipo.Weighted>
-11.7769

> <Gold.Chemscore.Internal_Hbond.Weighted>
0.0000

> <Gold.Chemscore.DEClash.Weighted>
1.7812

> <Gold.Chemscore.DEInternal.Weighted>
0.5417

> <Gold.Chemscore.Rot.Weighted>
7.0182

> <Gold.Chemscore.Internal.Correction.Weighted>
   9.000000E+99

> <Gold.Protein.RotatedTorsions>
[ 6907 6896 6895 6894 ] final   74.95 input  -60.11 | X-H torsion
[ 7974 7965 7964 7962 ] final  -37.02 input  175.53 | X-H torsion
[ 8008 7997 7996 7995 ] final -167.33 input   59.86 | X-H torsion
[ 10167 10162 10161 10158 ] final   70.38 input  -65.29 | X-H torsion
[ 10718 10713 10712 10709 ] final   40.50 input   66.30 | X-H torsion
[ 10763 10752 10751 10750 ] final -148.43 input  -60.55 | X-H torsion
[ 11005 11000 10999 10996 ] final   19.97 input  -57.11 | X-H torsion

> <Gold.Protein.ActiveResidues>
 VAL166  LYS551  ARG553  GLY616  TRP617  ASP618  TYR619  PRO620  LYS621  CYS622 
 ASP623  PHE694  ASN695  SER759  ASP760  ASP761  ALA762  ILE779  LEU786  VAL792 
 PHE793  MET794  SER795  GLU796  ALA797  LYS798  CYS799  TRP800  GLU811  SER814 

> <Gold.Protein.RotatedAtoms>
  152.5002  134.4194  159.9475 H   0  0  0  0  0  0  0  0  0  0  0  0  # atno 6907 bound_to 6896
  151.4166  133.3705  159.2758 H   0  0  0  0  0  0  0  0  0  0  0  0  # atno 6908 bound_to 6896
  150.9253  134.8692  159.7575 H   0  0  0  0  0  0  0  0  0  0  0  0  # atno 6909 bound_to 6896
  146.0611  140.6347  142.8996 H   0  0  0  0  0  0  0  0  0  0  0  0  # atno 7974 bound_to 7965
  155.8762  140.1001  157.1516 H   0  0  0  0  0  0  0  0  0  0  0  0  # atno 8008 bound_to 7997
  154.4001  140.1337  156.4203 H   0  0  0  0  0  0  0  0  0  0  0  0  # atno 8009 bound_to 7997
  155.7694  140.3461  155.5241 H   0  0  0  0  0  0  0  0  0  0  0  0  # atno 8010 bound_to 7997
  140.0575  144.5260  150.7318 H   0  0  0  0  0  0  0  0  0  0  0  0  # atno 10167 bound_to 10162
  157.3828  130.7763  149.7207 H   0  0  0  0  0  0  0  0  0  0  0  0  # atno 10718 bound_to 10713
  154.8233  135.3334  154.6973 H   0  0  0  0  0  0  0  0  0  0  0  0  # atno 10763 bound_to 10752
  153.7603  135.6933  153.4931 H   0  0  0  0  0  0  0  0  0  0  0  0  # atno 10764 bound_to 10752
  153.2115  135.4480  155.0334 H   0  0  0  0  0  0  0  0  0  0  0  0  # atno 10765 bound_to 10752
  140.4078  134.1650  155.7666 H   0  0  0  0  0  0  0  0  0  0  0  0  # atno 11005 bound_to 11000
  144.7175  140.4262  143.7033 LP  0  0  0  0  0  0  0  0  0  0  0  0  # atno 17320 bound_to 7965
  145.6558  139.1573  143.2836 LP  0  0  0  0  0  0  0  0  0  0  0  0  # atno 17321 bound_to 7965
  140.7187  143.2568  151.4348 LP  0  0  0  0  0  0  0  0  0  0  0  0  # atno 17342 bound_to 10162
  139.5914  144.1491  152.2093 LP  0  0  0  0  0  0  0  0  0  0  0  0  # atno 17343 bound_to 10162
  155.9780  130.4057  150.3678 LP  0  0  0  0  0  0  0  0  0  0  0  0  # atno 17370 bound_to 10713
  157.1784  131.0386  151.2761 LP  0  0  0  0  0  0  0  0  0  0  0  0  # atno 17371 bound_to 10713
  141.1833  133.8368  157.1181 LP  0  0  0  0  0  0  0  0  0  0  0  0  # atno 17394 bound_to 11000
  140.0289  134.9910  157.0742 LP  0  0  0  0  0  0  0  0  0  0  0  0  # atno 17395 bound_to 11000

$$$$
