AV-unprocessed.smi:265|AV-procd|sdf|2028|dock4
  -GOLD-   2262021233D 1   1.00000     0.00000
 Structure written by MMmdl.
 52 56  0  0  0  0  0  0  0  0  1 V2000
  153.4196  142.5922  160.2548 C   0  0  0  0  0  0  0  0  0  0  0  0
  151.9784  142.8341  159.7802 C   0  0  1  0  0  0  0  0  0  0  0  0
  151.2063  143.4899  160.7852 O   0  0  0  0  0  0  0  0  0  0  0  0
  150.4481  144.5512  160.2167 C   0  0  0  0  0  0  0  0  0  0  0  0
  150.4376  144.2805  158.7160 C   0  0  0  0  0  0  0  0  0  0  0  0
  151.8074  143.6581  158.4832 C   0  0  1  0  0  0  0  0  0  0  0  0
  152.7701  144.6980  158.4280 O   0  0  0  0  0  0  0  0  0  0  0  0
  151.9536  142.8684  157.1564 C   0  0  0  0  0  0  0  0  0  0  0  0
  151.0901  141.7039  157.0347 N   0  0  0  0  0  0  0  0  0  0  0  0
  149.7183  141.6997  156.9189 C   0  0  0  0  0  0  0  0  0  0  0  0
  149.1715  140.5195  156.8151 N   0  0  0  0  0  0  0  0  0  0  0  0
  150.2485  139.6412  156.8506 C   0  0  0  0  0  0  0  0  0  0  0  0
  150.3764  138.2249  156.7783 C   0  0  0  0  0  0  0  0  0  0  0  0
  149.3075  137.3951  156.6722 N   0  0  0  0  0  0  0  0  0  0  0  0
  149.0056  136.6286  157.8845 C   0  0  0  0  0  0  0  0  0  0  0  0
  147.5957  136.0119  157.8216 C   0  0  0  0  0  0  0  0  0  0  0  0
  147.4382  135.1951  156.5327 C   0  0  1  0  0  0  0  0  0  0  0  0
  146.1202  134.6906  156.3795 O   0  0  0  0  0  0  0  0  0  0  0  0
  145.9797  133.7957  155.2706 C   0  0  0  0  0  0  0  0  0  0  0  0
  146.6283  134.3363  153.9781 C   0  0  0  0  0  0  0  0  0  0  0  0
  146.3846  133.7990  152.9002 O   0  0  0  0  0  0  0  0  0  0  0  0
  147.4838  135.3668  154.0804 N   0  0  0  0  0  0  0  0  0  0  0  0
  147.7061  136.0995  155.3199 C   0  0  2  0  0  0  0  0  0  0  0  0
  149.1259  136.6817  155.4038 C   0  0  0  0  0  0  0  0  0  0  0  0
  151.6343  137.7087  156.8206 N   0  0  0  0  0  0  0  0  0  0  0  0
  152.6928  138.5163  156.9344 C   0  0  0  0  0  0  0  0  0  0  0  0
  152.7212  139.8473  157.0180 N   0  0  0  0  0  0  0  0  0  0  0  0
  151.4637  140.3726  156.9717 C   0  0  0  0  0  0  0  0  0  0  0  0
  148.1445  134.3620  156.5563 H   0  0  0  0  0  0  0  0  0  0  0  0
  146.9922  136.9254  155.3276 H   0  0  0  0  0  0  0  0  0  0  0  0
  154.0077  142.0969  159.4820 H   0  0  0  0  0  0  0  0  0  0  0  0
  153.4317  141.9554  161.1395 H   0  0  0  0  0  0  0  0  0  0  0  0
  153.9204  143.5245  160.5163 H   0  0  0  0  0  0  0  0  0  0  0  0
  151.4954  141.8659  159.6577 H   0  0  0  0  0  0  0  0  0  0  0  0
  149.4452  144.5973  160.6413 H   0  0  0  0  0  0  0  0  0  0  0  0
  150.9503  145.4952  160.4319 H   0  0  0  0  0  0  0  0  0  0  0  0
  149.6429  143.5671  158.5012 H   0  0  0  0  0  0  0  0  0  0  0  0
  150.2539  145.1751  158.1197 H   0  0  0  0  0  0  0  0  0  0  0  0
  153.6023  144.3538  158.7133 H   0  0  0  0  0  0  0  0  0  0  0  0
  151.7512  143.5249  156.3090 H   0  0  0  0  0  0  0  0  0  0  0  0
  152.9851  142.5338  157.0372 H   0  0  0  0  0  0  0  0  0  0  0  0
  149.1305  142.6062  156.9185 H   0  0  0  0  0  0  0  0  0  0  0  0
  149.7493  135.8373  157.9871 H   0  0  0  0  0  0  0  0  0  0  0  0
  149.0857  137.2459  158.7782 H   0  0  0  0  0  0  0  0  0  0  0  0
  147.4241  135.3795  158.6930 H   0  0  0  0  0  0  0  0  0  0  0  0
  146.8460  136.8036  157.8552 H   0  0  0  0  0  0  0  0  0  0  0  0
  146.4423  132.8402  155.5205 H   0  0  0  0  0  0  0  0  0  0  0  0
  144.9198  133.6059  155.0994 H   0  0  0  0  0  0  0  0  0  0  0  0
  147.9388  135.7059  153.2452 H   0  0  0  0  0  0  0  0  0  0  0  0
  149.2904  137.3631  154.5677 H   0  0  0  0  0  0  0  0  0  0  0  0
  149.8667  135.8843  155.3259 H   0  0  0  0  0  0  0  0  0  0  0  0
  153.6544  138.0255  156.9639 H   0  0  0  0  0  0  0  0  0  0  0  0
  1  2  1  0  0  0  0
  1 31  1  0  0  0  0
  1 32  1  0  0  0  0
  1 33  1  0  0  0  0
  2  6  1  0  0  0  0
  2  3  1  0  0  0  0
  2 34  1  0  0  0  0
  3  4  1  0  0  0  0
  4  5  1  0  0  0  0
  4 35  1  0  0  0  0
  4 36  1  0  0  0  0
  5  6  1  0  0  0  0
  5 37  1  0  0  0  0
  5 38  1  0  0  0  0
  6  7  1  0  0  0  0
  6  8  1  0  0  0  0
  7 39  1  0  0  0  0
  8  9  1  0  0  0  0
  8 40  1  0  0  0  0
  8 41  1  0  0  0  0
  9 28  1  0  0  0  0
  9 10  1  0  0  0  0
 10 11  2  0  0  0  0
 10 42  1  0  0  0  0
 11 12  1  0  0  0  0
 12 28  2  0  0  0  0
 12 13  1  0  0  0  0
 13 14  1  0  0  0  0
 13 25  2  0  0  0  0
 14 24  1  0  0  0  0
 14 15  1  0  0  0  0
 15 16  1  0  0  0  0
 15 43  1  0  0  0  0
 15 44  1  0  0  0  0
 16 17  1  0  0  0  0
 16 45  1  0  0  0  0
 16 46  1  0  0  0  0
 17 29  1  0  0  0  0
 17 23  1  0  0  0  0
 17 18  1  0  0  0  0
 18 19  1  0  0  0  0
 19 20  1  0  0  0  0
 19 47  1  0  0  0  0
 19 48  1  0  0  0  0
 20 21  2  0  0  0  0
 20 22  1  0  0  0  0
 22 23  1  0  0  0  0
 22 49  1  0  0  0  0
 23 30  1  0  0  0  0
 23 24  1  0  0  0  0
 24 50  1  0  0  0  0
 24 51  1  0  0  0  0
 25 26  1  0  0  0  0
 26 27  2  0  0  0  0
 26 52  1  0  0  0  0
 27 28  1  0  0  0  0
M  END
> <s_m_source_file>
AV-unprocessed.smi

> <i_m_source_file_index>
265

> <i_lp_mmshare_version>
43012

> <i_f3d_flags>
0

> <s_epik_input>
W0NIMl0xW0NIMl1PW0NAQEhdKFtDSDNdKVtDQEBdMShbT0hdKVtDSDJdbihbY0hdbjIpYyhjMjMpbltjSF1uYzNOKFtDSDJdW0NIMl00KVtDSDJdW0NAQEhdKFtDQEhdNDUpW05IXUMoPU8pW0NIMl1PNQ==

> <s_epik_cmdline>
J2VwaWtfcHl0aG9uJywgJy1waCcsICc3LjAnLCAnLXRuJywgJzgnLCAnLW1hJywgJzIwMCcsICctbWV0YWxfYmluZGluZycsICctaW1hZScsICc8aW5maWxlLm1hZT4nLCAnLW9tYWUnLCAnPG91dGZpbGUubWFlPic=

> <r_lp_tautomer_probability>
1

> <r_epik_Ionization_Penalty>
0.00221504

> <r_epik_Ionization_Penalty_Charging>
0

> <r_epik_Ionization_Penalty_Neutral>
0.00221504

> <r_epik_State_Penalty>
-0

> <r_epik_Charging_Adjusted_Penalty>
0

> <i_epik_Tot_Q>
0

> <i_epik_Tot_abs_Q>
0

> <r_epik_Metal_State_Penalty>
-0

> <b_epik_Metal_Only>
0

> <s_lp_Force_Field>
OPLS_2005

> <r_lp_Energy>
47.2889

> <b_lp_Chiralities_Consistent>
1

> <s_lp_Variant>
AV-unprocessed.smi:265-14

> <Gold.Version>
5.8.1

> <Gold.Id.Protein>
6NUR|6NUR_protein|mol2

> <Gold.PLP.Fitness>
37.4315

> <Gold.PLP.PLP>
-28.5431

> <Gold.PLP.part.hbond>
-3.0000

> <Gold.PLP.part.metal>
0.0000

> <Gold.PLP.part.buried>
-6.2169

> <Gold.PLP.part.nonpolar>
-19.7266

> <Gold.PLP.part.repulsive>
0.2596

> <Gold.PLP.ligand.clash>
0.0000

> <Gold.PLP.ligand.torsion>
0.2684

> <Gold.PLP.Chemscore.Hbond>
2.0000

> <Gold.PLP.Chemscore.CHOScore>
1.0000

> <Gold.PLP.Chemscore.Metal>
0.0000

> <Gold.Chemscore.Hbonds>
donor molecule, donor type, donor heavy atom, donor atom, acceptor molecule, acceptor atom, score
      L1  H    22    49       P1  7948  1.00
      P1  H  7997  8009       L1    27  0.95
      L1  C    10    42       P1  8028  1.00

> <Gold.PLP.Chemscore.Internal.Correction>
0.4251

> <Gold.Rescore>
     Score         DG    S(hbond)    S(metal)    S(lipo)     H(rot)  DE(clash)    DE(int)     intcor
     13.23     -14.98       2.06        0.00      71.39       2.25       1.52       0.23       ----

> <Gold.Chemscore.Fitness>
13.2325

> <Gold.Chemscore.DG>
-14.9765

> <Gold.Chemscore.ZeroCoef>
-5.4800

> <Gold.Chemscore.Hbond>
2.0633

> <Gold.Chemscore.Metal>
0.0000

> <Gold.Chemscore.Lipo>
71.3939

> <Gold.Chemscore.Internal_Hbond>
0.0000

> <Gold.Chemscore.DEClash>
1.5163

> <Gold.Chemscore.DEInternal>
0.2277

> <Gold.Chemscore.Rot>
2.2453

> <Gold.Chemscore.Internal.Correction>
   9.000000E+99

> <Gold.Chemscore.Hbonds>
donor molecule, donor type, donor heavy atom, donor atom, acceptor molecule, acceptor atom, score
      L1  H    22    49       P1  7948  1.00
      P1  H  7997  8009       L1    27  0.21

> <Gold.Chemscore.Hbond.Weighted>
-6.8914

> <Gold.Chemscore.Metal.Weighted>
-0.0000

> <Gold.Chemscore.Lipo.Weighted>
-8.3531

> <Gold.Chemscore.Internal_Hbond.Weighted>
0.0000

> <Gold.Chemscore.DEClash.Weighted>
1.5163

> <Gold.Chemscore.DEInternal.Weighted>
0.2277

> <Gold.Chemscore.Rot.Weighted>
5.7479

> <Gold.Chemscore.Internal.Correction.Weighted>
   9.000000E+99

> <Gold.Protein.RotatedTorsions>
[ 6907 6896 6895 6894 ] final  151.39 input  -60.11 | X-H torsion
[ 7974 7965 7964 7962 ] final   83.59 input  175.53 | X-H torsion
[ 8008 7997 7996 7995 ] final -169.94 input   59.86 | X-H torsion
[ 10167 10162 10161 10158 ] final -105.75 input  -65.29 | X-H torsion
[ 10718 10713 10712 10709 ] final  138.63 input   66.30 | X-H torsion
[ 10763 10752 10751 10750 ] final   50.60 input  -60.55 | X-H torsion
[ 11005 11000 10999 10996 ] final  111.54 input  -57.11 | X-H torsion

> <Gold.Protein.ActiveResidues>
 VAL166  LYS551  ARG553  GLY616  TRP617  ASP618  TYR619  PRO620  LYS621  CYS622 
 ASP623  PHE694  ASN695  SER759  ASP760  ASP761  ALA762  ILE779  LEU786  VAL792 
 PHE793  MET794  SER795  GLU796  ALA797  LYS798  CYS799  TRP800  GLU811  SER814 

> <Gold.Protein.RotatedAtoms>
  152.1013  133.4251  159.4588 H   0  0  0  0  0  0  0  0  0  0  0  0  # atno 6907 bound_to 6896
  150.6864  134.2756  159.4615 H   0  0  0  0  0  0  0  0  0  0  0  0  # atno 6908 bound_to 6896
  152.0617  134.9589  160.0625 H   0  0  0  0  0  0  0  0  0  0  0  0  # atno 6909 bound_to 6896
  145.6099  139.2366  143.2198 H   0  0  0  0  0  0  0  0  0  0  0  0  # atno 7974 bound_to 7965
  155.9118  140.1058  157.1274 H   0  0  0  0  0  0  0  0  0  0  0  0  # atno 8008 bound_to 7997
  154.4040  140.1273  156.4631 H   0  0  0  0  0  0  0  0  0  0  0  0  # atno 8009 bound_to 7997
  155.7301  140.3468  155.5058 H   0  0  0  0  0  0  0  0  0  0  0  0  # atno 8010 bound_to 7997
  140.1951  143.3861  152.1175 H   0  0  0  0  0  0  0  0  0  0  0  0  # atno 10167 bound_to 10162
  157.4232  131.1041  151.0331 H   0  0  0  0  0  0  0  0  0  0  0  0  # atno 10718 bound_to 10713
  152.9784  135.5873  154.4280 H   0  0  0  0  0  0  0  0  0  0  0  0  # atno 10763 bound_to 10752
  154.3896  135.2767  155.2164 H   0  0  0  0  0  0  0  0  0  0  0  0  # atno 10764 bound_to 10752
  154.4042  135.6096  153.5969 H   0  0  0  0  0  0  0  0  0  0  0  0  # atno 10765 bound_to 10752
  139.8906  134.9510  156.6448 H   0  0  0  0  0  0  0  0  0  0  0  0  # atno 11005 bound_to 11000
  146.1512  140.6922  142.9321 LP  0  0  0  0  0  0  0  0  0  0  0  0  # atno 17320 bound_to 7965
  144.7274  140.4568  143.6963 LP  0  0  0  0  0  0  0  0  0  0  0  0  # atno 17321 bound_to 7965
  139.5240  144.7078  151.5301 LP  0  0  0  0  0  0  0  0  0  0  0  0  # atno 17342 bound_to 10162
  140.6429  143.8853  150.6709 LP  0  0  0  0  0  0  0  0  0  0  0  0  # atno 17343 bound_to 10162
  157.1254  130.6079  149.5515 LP  0  0  0  0  0  0  0  0  0  0  0  0  # atno 17370 bound_to 10713
  155.9887  130.4932  150.7184 LP  0  0  0  0  0  0  0  0  0  0  0  0  # atno 17371 bound_to 10713
  140.7565  133.8853  155.8386 LP  0  0  0  0  0  0  0  0  0  0  0  0  # atno 17394 bound_to 11000
  140.9957  134.1218  157.4366 LP  0  0  0  0  0  0  0  0  0  0  0  0  # atno 17395 bound_to 11000

$$$$
