AV-unprocessed.smi:1803|AV-procd|sdf|7294|dock10
  -GOLD-   22720 8553D 1   1.00000     0.00000
 Structure written by MMmdl.
 35 37  0  0  0  0  0  0  0  0  3 V2000
  147.6459  132.1665  153.7753 O   0  0  0  0  0  0  0  0  0  0  0  0
  148.2849  133.1984  153.5748 C   0  0  0  0  0  0  0  0  0  0  0  0
  149.5528  133.3921  154.0225 N   0  5  0  0  0  0  0  0  0  0  0  0
  150.0170  132.8288  155.1533 C   0  0  0  0  0  0  0  0  0  0  0  0
  150.1983  133.5276  156.2855 N   0  0  0  0  0  0  0  0  0  0  0  0
  150.6933  132.7573  157.3287 N   0  0  0  0  0  0  0  0  0  0  0  0
  150.8585  131.4874  156.9595 C   0  0  0  0  0  0  0  0  0  0  0  0
  150.4360  131.1200  155.3005 S   0  0  0  0  0  0  0  0  0  0  0  0
  147.7075  134.1949  152.8777 N   0  0  0  0  0  0  0  0  0  0  0  0
  146.3659  134.1725  152.3079 C   0  0  1  0  0  0  0  0  0  0  0  0
  145.7315  135.5630  152.1461 C   0  0  0  0  0  0  0  0  0  0  0  0
  144.9858  135.5165  150.7980 C   0  0  0  0  0  0  0  0  0  0  0  0
  145.1108  134.1310  150.2898 N   0  3  2  0  0  0  0  0  0  0  0  0
  143.9108  133.3082  150.6051 C   0  0  0  0  0  0  0  0  0  0  0  0
  144.1313  131.8218  150.2953 C   0  0  0  0  0  0  0  0  0  0  0  0
  145.3349  131.2915  151.0786 C   0  0  0  0  0  0  0  0  0  0  0  0
  146.5805  132.1073  150.7161 C   0  0  0  0  0  0  0  0  0  0  0  0
  146.3768  133.6304  150.8768 C   0  0  2  0  0  0  0  0  0  0  0  0
  151.2330  130.7634  157.6676 H   0  0  0  0  0  0  0  0  0  0  0  0
  148.2506  135.0338  152.7346 H   0  0  0  0  0  0  0  0  0  0  0  0
  145.7175  133.5503  152.9272 H   0  0  0  0  0  0  0  0  0  0  0  0
  145.0568  135.7802  152.9747 H   0  0  0  0  0  0  0  0  0  0  0  0
  146.4878  136.3492  152.1254 H   0  0  0  0  0  0  0  0  0  0  0  0
  143.9473  135.8400  150.8835 H   0  0  0  0  0  0  0  0  0  0  0  0
  145.4742  136.1854  150.0885 H   0  0  0  0  0  0  0  0  0  0  0  0
  143.6482  133.4222  151.6581 H   0  0  0  0  0  0  0  0  0  0  0  0
  143.0632  133.6842  150.0311 H   0  0  0  0  0  0  0  0  0  0  0  0
  143.2388  131.2517  150.5547 H   0  0  0  0  0  0  0  0  0  0  0  0
  144.2902  131.6825  149.2251 H   0  0  0  0  0  0  0  0  0  0  0  0
  145.1418  131.3525  152.1502 H   0  0  0  0  0  0  0  0  0  0  0  0
  145.4983  130.2376  150.8514 H   0  0  0  0  0  0  0  0  0  0  0  0
  147.4331  131.7763  151.3102 H   0  0  0  0  0  0  0  0  0  0  0  0
  146.8400  131.8977  149.6776 H   0  0  0  0  0  0  0  0  0  0  0  0
  147.1866  134.1280  150.3387 H   0  0  0  0  0  0  0  0  0  0  0  0
  145.2059  134.1502  149.2846 H   0  0  0  0  0  0  0  0  0  0  0  0
  1  2  2  0  0  0  0
  2  3  1  0  0  0  0
  2  9  1  0  0  0  0
  3  4  1  0  0  0  0
  4  8  1  0  0  0  0
  4  5  2  0  0  0  0
  5  6  1  0  0  0  0
  6  7  2  0  0  0  0
  7  8  1  0  0  0  0
  7 19  1  0  0  0  0
  9 10  1  0  0  0  0
  9 20  1  0  0  0  0
 10 18  1  0  0  0  0
 10 11  1  0  0  0  0
 10 21  1  0  0  0  0
 11 12  1  0  0  0  0
 11 22  1  0  0  0  0
 11 23  1  0  0  0  0
 12 13  1  0  0  0  0
 12 24  1  0  0  0  0
 12 25  1  0  0  0  0
 13 18  1  0  0  0  0
 13 14  1  0  0  0  0
 13 35  1  0  0  0  0
 14 15  1  0  0  0  0
 14 26  1  0  0  0  0
 14 27  1  0  0  0  0
 15 16  1  0  0  0  0
 15 28  1  0  0  0  0
 15 29  1  0  0  0  0
 16 17  1  0  0  0  0
 16 30  1  0  0  0  0
 16 31  1  0  0  0  0
 17 18  1  0  0  0  0
 17 32  1  0  0  0  0
 17 33  1  0  0  0  0
 18 34  1  0  0  0  0
M  CHG  1   3  -1
M  CHG  1  13   1
M  END
> <s_m_source_file>
AV-unprocessed.smi

> <i_m_source_file_index>
1803

> <i_lp_mmshare_version>
43012

> <i_f3d_flags>
0

> <s_epik_input>
czFbY0hdbm5jMVtOSF1DKD1PKVtOSF1bQ0BIXShbQ0gyXVtDSDJdMilbQ0BASF0oTjIzKVtDSDJdW0NIMl1bQ0gyXVtDSDJdMw==

> <s_epik_cmdline>
J2VwaWtfcHl0aG9uJywgJy1waCcsICc3LjAnLCAnLXRuJywgJzgnLCAnLW1hJywgJzIwMCcsICctbWV0YWxfYmluZGluZycsICctaW1hZScsICc8aW5maWxlLm1hZT4nLCAnLW9tYWUnLCAnPG91dGZpbGUubWFlPic=

> <r_lp_tautomer_probability>
1

> <r_epik_Ionization_Penalty>
3.78828

> <r_epik_Ionization_Penalty_Charging>
3.7591

> <r_epik_Ionization_Penalty_Neutral>
0.0291838

> <r_epik_State_Penalty>
3.757

> <r_epik_Charging_Adjusted_Penalty>
7.51609

> <i_epik_Tot_Q>
0

> <i_epik_Tot_abs_Q>
2

> <r_epik_Metal_State_Penalty>
0.558016

> <b_epik_Metal_Only>
1

> <s_lp_Force_Field>
OPLS_2005

> <r_lp_Energy>
31.4395

> <b_lp_Chiralities_Consistent>
1

> <s_lp_Variant>
AV-unprocessed.smi:1803-16

> <Gold.Version>
5.8.1

> <Gold.Id.Protein>
6NUR|6NUR_protein|mol2

> <Gold.PLP.Fitness>
36.3664

> <Gold.PLP.PLP>
-29.8992

> <Gold.PLP.part.hbond>
-3.0000

> <Gold.PLP.part.metal>
0.0000

> <Gold.PLP.part.buried>
-1.2560

> <Gold.PLP.part.nonpolar>
-26.5785

> <Gold.PLP.part.repulsive>
0.2827

> <Gold.PLP.ligand.clash>
0.0000

> <Gold.PLP.ligand.torsion>
1.2581

> <Gold.PLP.Chemscore.Hbond>
2.9913

> <Gold.PLP.Chemscore.CHOScore>
0.0000

> <Gold.PLP.Chemscore.Metal>
0.0000

> <Gold.Chemscore.Hbonds>
donor molecule, donor type, donor heavy atom, donor atom, acceptor molecule, acceptor atom, score
      L1  H     9    20       P1  7948  1.00
      L1  H    13    35       P1  7921  1.00
      P1  H  6896  6908       L1     6  0.96

> <Gold.PLP.Chemscore.Internal.Correction>
0.0095

> <Gold.Rescore>
     Score         DG    S(hbond)    S(metal)    S(lipo)     H(rot)  DE(clash)    DE(int)     intcor
     17.52     -20.17       2.72        0.00      69.93       1.00       1.37       1.27       ----

> <Gold.Chemscore.Fitness>
17.5238

> <Gold.Chemscore.DG>
-20.1725

> <Gold.Chemscore.ZeroCoef>
-5.4800

> <Gold.Chemscore.Hbond>
2.7157

> <Gold.Chemscore.Metal>
0.0000

> <Gold.Chemscore.Lipo>
69.9331

> <Gold.Chemscore.Internal_Hbond>
0.0000

> <Gold.Chemscore.DEClash>
1.3739

> <Gold.Chemscore.DEInternal>
1.2748

> <Gold.Chemscore.Rot>
1.0000

> <Gold.Chemscore.Internal.Correction>
   9.000000E+99

> <Gold.Chemscore.Hbonds>
donor molecule, donor type, donor heavy atom, donor atom, acceptor molecule, acceptor atom, score
      L1  H     9    20       P1  7948  0.80
      L1  H    13    35       P1  7921  0.88
      P1  H  6896  6908       L1     6  0.88

> <Gold.Chemscore.Hbond.Weighted>
-9.0703

> <Gold.Chemscore.Metal.Weighted>
-0.0000

> <Gold.Chemscore.Lipo.Weighted>
-8.1822

> <Gold.Chemscore.Internal_Hbond.Weighted>
0.0000

> <Gold.Chemscore.DEClash.Weighted>
1.3739

> <Gold.Chemscore.DEInternal.Weighted>
1.2748

> <Gold.Chemscore.Rot.Weighted>
2.5600

> <Gold.Chemscore.Internal.Correction.Weighted>
   9.000000E+99

> <Gold.Protein.RotatedTorsions>
[ 6907 6896 6895 6894 ] final   87.80 input  -60.11 | X-H torsion
[ 7974 7965 7964 7962 ] final  -70.48 input  175.53 | X-H torsion
[ 8008 7997 7996 7995 ] final   34.46 input   59.86 | X-H torsion
[ 10167 10162 10161 10158 ] final   53.49 input  -65.29 | X-H torsion
[ 10718 10713 10712 10709 ] final   85.60 input   66.30 | X-H torsion
[ 10763 10752 10751 10750 ] final   26.08 input  -60.55 | X-H torsion
[ 11005 11000 10999 10996 ] final -137.62 input  -57.11 | X-H torsion

> <Gold.Protein.ActiveResidues>
 VAL166  LYS551  ARG553  GLY616  TRP617  ASP618  TYR619  PRO620  LYS621  CYS622 
 ASP623  PHE694  ASN695  SER759  ASP760  ASP761  ALA762  ILE779  LEU786  VAL792 
 PHE793  MET794  SER795  GLU796  ALA797  LYS798  CYS799  TRP800  GLU811  SER814 

> <Gold.Protein.RotatedAtoms>
  152.5416  134.2219  159.8790 H   0  0  0  0  0  0  0  0  0  0  0  0  # atno 6907 bound_to 6896
  151.2196  133.4503  159.2608 H   0  0  0  0  0  0  0  0  0  0  0  0  # atno 6908 bound_to 6896
  151.0818  134.9876  159.8416 H   0  0  0  0  0  0  0  0  0  0  0  0  # atno 6909 bound_to 6896
  145.6904  140.9155  143.0785 H   0  0  0  0  0  0  0  0  0  0  0  0  # atno 7974 bound_to 7965
  155.1552  140.3278  155.4422 H   0  0  0  0  0  0  0  0  0  0  0  0  # atno 8008 bound_to 7997
  156.2561  140.1970  156.6613 H   0  0  0  0  0  0  0  0  0  0  0  0  # atno 8009 bound_to 7997
  154.6444  140.0566  156.9869 H   0  0  0  0  0  0  0  0  0  0  0  0  # atno 8010 bound_to 7997
  140.2402  144.3592  150.6383 H   0  0  0  0  0  0  0  0  0  0  0  0  # atno 10167 bound_to 10162
  157.6917  131.0181  150.2847 H   0  0  0  0  0  0  0  0  0  0  0  0  # atno 10718 bound_to 10713
  153.0647  135.6568  154.0381 H   0  0  0  0  0  0  0  0  0  0  0  0  # atno 10763 bound_to 10752
  154.0041  135.2934  155.3401 H   0  0  0  0  0  0  0  0  0  0  0  0  # atno 10764 bound_to 10752
  154.7000  135.5248  153.8582 H   0  0  0  0  0  0  0  0  0  0  0  0  # atno 10765 bound_to 10752
  140.8694  134.2070  157.4660 H   0  0  0  0  0  0  0  0  0  0  0  0  # atno 11005 bound_to 11000
  144.6998  139.8814  143.7447 LP  0  0  0  0  0  0  0  0  0  0  0  0  # atno 17320 bound_to 7965
  146.0887  139.3876  143.0419 LP  0  0  0  0  0  0  0  0  0  0  0  0  # atno 17321 bound_to 7965
  140.6119  143.2170  151.6868 LP  0  0  0  0  0  0  0  0  0  0  0  0  # atno 17342 bound_to 10162
  139.5080  144.3627  152.0547 LP  0  0  0  0  0  0  0  0  0  0  0  0  # atno 17343 bound_to 10162
  156.3387  130.3812  149.7427 LP  0  0  0  0  0  0  0  0  0  0  0  0  # atno 17370 bound_to 10713
  156.4943  130.8099  151.3107 LP  0  0  0  0  0  0  0  0  0  0  0  0  # atno 17371 bound_to 10713
  139.8711  134.9767  156.4931 LP  0  0  0  0  0  0  0  0  0  0  0  0  # atno 17394 bound_to 11000
  140.8591  133.8073  155.9246 LP  0  0  0  0  0  0  0  0  0  0  0  0  # atno 17395 bound_to 11000

$$$$
