AV-unprocessed.smi:1920|AV-procd|sdf|7781|dock2
  -GOLD-   22720 9523D 1   1.00000     0.00000
 Structure written by MMmdl.
 36 37  0  0  0  0  0  0  0  0  1 V2000
  150.6964  137.4484  155.4342 C   0  0  0  0  0  0  0  0  0  0  0  0
  149.9401  138.7597  155.7043 C   0  0  2  0  0  0  0  0  0  0  0  0
  149.8456  139.6695  154.4594 C   0  0  0  0  0  0  0  0  0  0  0  0
  148.8157  140.6838  154.5841 N   0  0  0  0  0  0  0  0  0  0  0  0
  147.9780  141.1514  153.5798 C   0  0  0  0  0  0  0  0  0  0  0  0
  147.1638  142.0996  154.1570 C   0  0  0  0  0  0  0  0  0  0  0  0
  147.4760  142.2255  155.5087 N   0  0  0  0  0  0  0  0  0  0  0  0
  148.4600  141.3538  155.6890 C   0  0  0  0  0  0  0  0  0  0  0  0
  150.5900  139.4680  156.8034 N   0  0  0  0  0  0  0  0  0  0  0  0
  151.8603  139.9013  156.8059 C   0  0  0  0  0  0  0  0  0  0  0  0
  152.6316  139.7412  155.8598 O   0  0  0  0  0  0  0  0  0  0  0  0
  152.3324  140.6280  158.0701 C   0  0  0  0  0  0  0  0  0  0  0  0
  151.4918  141.8765  158.4161 C   0  0  2  0  0  0  0  0  0  0  0  0
  151.4122  142.8823  157.2927 C   0  0  0  0  0  0  0  0  0  0  0  0
  151.7897  144.1025  157.6668 C   0  0  0  0  0  0  0  0  0  0  0  0
  152.1984  144.1613  159.1124 C   0  0  0  0  0  0  0  0  0  0  0  0
  152.0776  142.6979  159.5935 C   0  0  0  0  0  0  0  0  0  0  0  0
  150.1915  136.8424  154.6816 H   0  0  0  0  0  0  0  0  0  0  0  0
  150.7686  136.8439  156.3389 H   0  0  0  0  0  0  0  0  0  0  0  0
  151.7098  137.6415  155.0808 H   0  0  0  0  0  0  0  0  0  0  0  0
  148.9293  138.4936  156.0195 H   0  0  0  0  0  0  0  0  0  0  0  0
  150.7940  140.1780  154.2816 H   0  0  0  0  0  0  0  0  0  0  0  0
  149.6408  139.0723  153.5694 H   0  0  0  0  0  0  0  0  0  0  0  0
  148.0317  140.7824  152.5661 H   0  0  0  0  0  0  0  0  0  0  0  0
  146.3820  142.6942  153.7076 H   0  0  0  0  0  0  0  0  0  0  0  0
  148.9349  141.2019  156.6471 H   0  0  0  0  0  0  0  0  0  0  0  0
  150.0296  139.6450  157.6245 H   0  0  0  0  0  0  0  0  0  0  0  0
  152.2914  139.9195  158.8979 H   0  0  0  0  0  0  0  0  0  0  0  0
  153.3808  140.9103  157.9591 H   0  0  0  0  0  0  0  0  0  0  0  0
  150.4714  141.5774  158.6609 H   0  0  0  0  0  0  0  0  0  0  0  0
  151.0671  142.6183  156.3035 H   0  0  0  0  0  0  0  0  0  0  0  0
  151.8007  144.9742  157.0293 H   0  0  0  0  0  0  0  0  0  0  0  0
  153.2176  144.5369  159.2076 H   0  0  0  0  0  0  0  0  0  0  0  0
  151.5289  144.8238  159.6616 H   0  0  0  0  0  0  0  0  0  0  0  0
  151.4399  142.6265  160.4753 H   0  0  0  0  0  0  0  0  0  0  0  0
  153.0604  142.3232  159.8826 H   0  0  0  0  0  0  0  0  0  0  0  0
  1  2  1  0  0  0  0
  1 18  1  0  0  0  0
  1 19  1  0  0  0  0
  1 20  1  0  0  0  0
  2  3  1  0  0  0  0
  2  9  1  0  0  0  0
  2 21  1  0  0  0  0
  3  4  1  0  0  0  0
  3 22  1  0  0  0  0
  3 23  1  0  0  0  0
  4  8  1  0  0  0  0
  4  5  1  0  0  0  0
  5  6  2  0  0  0  0
  5 24  1  0  0  0  0
  6  7  1  0  0  0  0
  6 25  1  0  0  0  0
  7  8  2  0  0  0  0
  8 26  1  0  0  0  0
  9 10  1  0  0  0  0
  9 27  1  0  0  0  0
 10 11  2  0  0  0  0
 10 12  1  0  0  0  0
 12 13  1  0  0  0  0
 12 28  1  0  0  0  0
 12 29  1  0  0  0  0
 13 17  1  0  0  0  0
 13 14  1  0  0  0  0
 13 30  1  0  0  0  0
 14 15  2  0  0  0  0
 14 31  1  0  0  0  0
 15 16  1  0  0  0  0
 15 32  1  0  0  0  0
 16 17  1  0  0  0  0
 16 33  1  0  0  0  0
 16 34  1  0  0  0  0
 17 35  1  0  0  0  0
 17 36  1  0  0  0  0
M  END
> <s_m_source_file>
AV-unprocessed.smi

> <i_m_source_file_index>
1920

> <i_lp_mmshare_version>
43012

> <i_f3d_flags>
0

> <s_epik_input>
W2NIXTFuW2NIXVtjSF1uMVtDSDJdW0NAQEhdKFtDSDNdKVtOSF1DKD1PKVtDSDJdW0NAQEhdMltDSF09W0NIXVtDSDJdW0NIMl0y

> <s_epik_cmdline>
J2VwaWtfcHl0aG9uJywgJy1waCcsICc3LjAnLCAnLXRuJywgJzgnLCAnLW1hJywgJzIwMCcsICctbWV0YWxfYmluZGluZycsICctaW1hZScsICc8aW5maWxlLm1hZT4nLCAnLW9tYWUnLCAnPG91dGZpbGUubWFlPic=

> <r_lp_tautomer_probability>
1

> <r_epik_Ionization_Penalty>
0.635367

> <r_epik_Ionization_Penalty_Charging>
0.635367

> <r_epik_Ionization_Penalty_Neutral>
2.1249e-08

> <r_epik_State_Penalty>
0.65258

> <r_epik_Charging_Adjusted_Penalty>
1.28795

> <i_epik_Tot_Q>
0

> <i_epik_Tot_abs_Q>
0

> <r_epik_Metal_State_Penalty>
0.310403

> <b_epik_Metal_Only>
0

> <s_lp_Force_Field>
OPLS_2005

> <r_lp_Energy>
18.8766

> <b_lp_Chiralities_Consistent>
1

> <s_lp_Variant>
AV-unprocessed.smi:1920-5

> <Gold.Version>
5.8.1

> <Gold.Id.Protein>
6NUR|6NUR_protein|mol2

> <Gold.PLP.Fitness>
40.0463

> <Gold.PLP.PLP>
-34.9675

> <Gold.PLP.part.hbond>
-1.0000

> <Gold.PLP.part.metal>
0.0000

> <Gold.PLP.part.buried>
-3.0803

> <Gold.PLP.part.nonpolar>
-31.9953

> <Gold.PLP.part.repulsive>
0.9519

> <Gold.PLP.ligand.clash>
0.0000

> <Gold.PLP.ligand.torsion>
0.4877

> <Gold.PLP.Chemscore.Hbond>
1.0000

> <Gold.PLP.Chemscore.CHOScore>
1.0000

> <Gold.PLP.Chemscore.Metal>
0.0000

> <Gold.Chemscore.Hbonds>
donor molecule, donor type, donor heavy atom, donor atom, acceptor molecule, acceptor atom, score
      P1  H  7997  8009       L1    11  1.00
      L1  C     5    24       P1  7957  1.00

> <Gold.PLP.Chemscore.Internal.Correction>
0.0541

> <Gold.Rescore>
     Score         DG    S(hbond)    S(metal)    S(lipo)     H(rot)  DE(clash)    DE(int)     intcor
     12.75     -14.53       0.98        0.00      91.55       1.93       0.16       1.62       ----

> <Gold.Chemscore.Fitness>
12.7531

> <Gold.Chemscore.DG>
-14.5279

> <Gold.Chemscore.ZeroCoef>
-5.4800

> <Gold.Chemscore.Hbond>
0.9817

> <Gold.Chemscore.Metal>
0.0000

> <Gold.Chemscore.Lipo>
91.5520

> <Gold.Chemscore.Internal_Hbond>
0.0000

> <Gold.Chemscore.DEClash>
0.1556

> <Gold.Chemscore.DEInternal>
1.6192

> <Gold.Chemscore.Rot>
1.9306

> <Gold.Chemscore.Internal.Correction>
   9.000000E+99

> <Gold.Chemscore.Hbonds>
donor molecule, donor type, donor heavy atom, donor atom, acceptor molecule, acceptor atom, score
      P1  H  7997  8009       L1    11  0.93

> <Gold.Chemscore.Hbond.Weighted>
-3.2787

> <Gold.Chemscore.Metal.Weighted>
-0.0000

> <Gold.Chemscore.Lipo.Weighted>
-10.7116

> <Gold.Chemscore.Internal_Hbond.Weighted>
0.0000

> <Gold.Chemscore.DEClash.Weighted>
0.1556

> <Gold.Chemscore.DEInternal.Weighted>
1.6192

> <Gold.Chemscore.Rot.Weighted>
4.9424

> <Gold.Chemscore.Internal.Correction.Weighted>
   9.000000E+99

> <Gold.Protein.RotatedTorsions>
[ 6907 6896 6895 6894 ] final -167.28 input  -60.11 | X-H torsion
[ 7974 7965 7964 7962 ] final -137.55 input  175.53 | X-H torsion
[ 8008 7997 7996 7995 ] final -151.95 input   59.86 | X-H torsion
[ 10167 10162 10161 10158 ] final -126.75 input  -65.29 | X-H torsion
[ 10718 10713 10712 10709 ] final  146.32 input   66.30 | X-H torsion
[ 10763 10752 10751 10750 ] final  134.69 input  -60.55 | X-H torsion
[ 11005 11000 10999 10996 ] final  -41.61 input  -57.11 | X-H torsion

> <Gold.Protein.ActiveResidues>
 VAL166  LYS551  ARG553  GLY616  TRP617  ASP618  TYR619  PRO620  LYS621  CYS622 
 ASP623  PHE694  ASN695  SER759  ASP760  ASP761  ALA762  ILE779  LEU786  VAL792 
 PHE793  MET794  SER795  GLU796  ALA797  LYS798  CYS799  TRP800  GLU811  SER814 

> <Gold.Protein.RotatedAtoms>
  151.4570  133.3602  159.2803 H   0  0  0  0  0  0  0  0  0  0  0  0  # atno 6907 bound_to 6896
  150.9051  134.8467  159.7398 H   0  0  0  0  0  0  0  0  0  0  0  0  # atno 6908 bound_to 6896
  152.4901  134.4495  159.9621 H   0  0  0  0  0  0  0  0  0  0  0  0  # atno 6909 bound_to 6896
  144.8832  140.6538  143.5192 H   0  0  0  0  0  0  0  0  0  0  0  0  # atno 7974 bound_to 7965
  155.6475  140.0708  157.2598 H   0  0  0  0  0  0  0  0  0  0  0  0  # atno 8008 bound_to 7997
  154.4170  140.1739  156.1689 H   0  0  0  0  0  0  0  0  0  0  0  0  # atno 8009 bound_to 7997
  155.9804  140.3354  155.6661 H   0  0  0  0  0  0  0  0  0  0  0  0  # atno 8010 bound_to 7997
  139.9682  143.5875  152.2422 H   0  0  0  0  0  0  0  0  0  0  0  0  # atno 10167 bound_to 10162
  157.3346  131.0926  151.1134 H   0  0  0  0  0  0  0  0  0  0  0  0  # atno 10718 bound_to 10713
  153.8277  135.3108  155.3416 H   0  0  0  0  0  0  0  0  0  0  0  0  # atno 10763 bound_to 10752
  154.7986  135.4740  154.0224 H   0  0  0  0  0  0  0  0  0  0  0  0  # atno 10764 bound_to 10752
  153.1653  135.6868  153.8774 H   0  0  0  0  0  0  0  0  0  0  0  0  # atno 10765 bound_to 10752
  141.0258  133.6842  156.2481 H   0  0  0  0  0  0  0  0  0  0  0  0  # atno 11005 bound_to 11000
  145.3916  139.1615  143.4226 LP  0  0  0  0  0  0  0  0  0  0  0  0  # atno 17320 bound_to 7965
  146.3008  140.4005  142.8705 LP  0  0  0  0  0  0  0  0  0  0  0  0  # atno 17321 bound_to 7965
  139.6501  144.7660  151.2164 LP  0  0  0  0  0  0  0  0  0  0  0  0  # atno 17342 bound_to 10162
  140.7531  143.6174  150.8546 LP  0  0  0  0  0  0  0  0  0  0  0  0  # atno 17343 bound_to 10162
  157.2369  130.6551  149.5873 LP  0  0  0  0  0  0  0  0  0  0  0  0  # atno 17370 bound_to 10713
  155.9700  130.4581  150.5986 LP  0  0  0  0  0  0  0  0  0  0  0  0  # atno 17371 bound_to 10713
  140.6494  134.5083  157.5576 LP  0  0  0  0  0  0  0  0  0  0  0  0  # atno 17394 bound_to 11000
  139.9175  134.8216  156.1319 LP  0  0  0  0  0  0  0  0  0  0  0  0  # atno 17395 bound_to 11000

$$$$
