AV-unprocessed.smi:2482|AV-procd|sdf|9775|dock2
  -GOLD-   2272013413D 1   1.00000     0.00000
 Structure written by MMmdl.
 35 36  0  0  0  0  0  0  0  0  2 V2000
  152.2227  143.9973  160.8576 C   0  0  0  0  0  0  0  0  0  0  0  0
  152.5147  142.6767  160.1701 C   0  0  0  0  0  0  0  0  0  0  0  0
  153.5195  141.9487  160.7043 N   0  0  0  0  0  0  0  0  0  0  0  0
  153.8175  140.7633  160.1345 C   0  0  0  0  0  0  0  0  0  0  0  0
  153.1402  140.2514  159.0114 C   0  0  0  0  0  0  0  0  0  0  0  0
  152.0970  141.0185  158.4394 C   0  0  0  0  0  0  0  0  0  0  0  0
  151.3318  140.5909  157.3193 N   0  0  0  0  0  0  0  0  0  0  0  0
  151.7356  139.9326  156.2165 C   0  0  0  0  0  0  0  0  0  0  0  0
  152.8931  139.5688  156.0091 O   0  0  0  0  0  0  0  0  0  0  0  0
  150.6417  139.6363  155.1782 C   0  0  2  0  0  0  0  0  0  0  0  0
  149.7246  140.8531  154.9110 C   0  0  0  0  0  0  0  0  0  0  0  0
  148.6450  140.4949  153.9626 N   0  3  2  0  0  0  0  0  0  0  0  0
  147.7627  141.6380  153.6453 C   0  0  0  0  0  0  0  0  0  0  0  0
  147.8957  139.3098  154.4359 C   0  0  0  0  0  0  0  0  0  0  0  0
  148.8605  138.1447  154.7061 C   0  0  0  0  0  0  0  0  0  0  0  0
  149.8436  138.5511  155.6498 O   0  0  0  0  0  0  0  0  0  0  0  0
  151.7698  142.2550  159.0436 C   0  0  0  0  0  0  0  0  0  0  0  0
  150.4887  143.2362  158.4134 Cl  0  0  0  0  0  0  0  0  0  0  0  0
  152.3487  144.8241  160.1582 H   0  0  0  0  0  0  0  0  0  0  0  0
  152.8917  144.1667  161.7024 H   0  0  0  0  0  0  0  0  0  0  0  0
  151.1983  144.0131  161.2309 H   0  0  0  0  0  0  0  0  0  0  0  0
  154.6174  140.2004  160.5924 H   0  0  0  0  0  0  0  0  0  0  0  0
  153.4240  139.2847  158.6260 H   0  0  0  0  0  0  0  0  0  0  0  0
  150.3693  140.8969  157.3181 H   0  0  0  0  0  0  0  0  0  0  0  0
  151.1411  139.3395  154.2542 H   0  0  0  0  0  0  0  0  0  0  0  0
  149.2836  141.2088  155.8445 H   0  0  0  0  0  0  0  0  0  0  0  0
  150.3036  141.6784  154.4939 H   0  0  0  0  0  0  0  0  0  0  0  0
  147.2408  141.9900  154.5361 H   0  0  0  0  0  0  0  0  0  0  0  0
  147.0181  141.3540  152.9012 H   0  0  0  0  0  0  0  0  0  0  0  0
  148.3412  142.4676  153.2375 H   0  0  0  0  0  0  0  0  0  0  0  0
  147.3476  139.5598  155.3460 H   0  0  0  0  0  0  0  0  0  0  0  0
  147.1594  139.0158  153.6871 H   0  0  0  0  0  0  0  0  0  0  0  0
  148.3158  137.2908  155.1088 H   0  0  0  0  0  0  0  0  0  0  0  0
  149.3394  137.8116  153.7839 H   0  0  0  0  0  0  0  0  0  0  0  0
  149.0944  140.2274  153.0982 H   0  0  0  0  0  0  0  0  0  0  0  0
  1  2  1  0  0  0  0
  1 19  1  0  0  0  0
  1 20  1  0  0  0  0
  1 21  1  0  0  0  0
  2 17  1  0  0  0  0
  2  3  2  0  0  0  0
  3  4  1  0  0  0  0
  4  5  2  0  0  0  0
  4 22  1  0  0  0  0
  5  6  1  0  0  0  0
  5 23  1  0  0  0  0
  6  7  1  0  0  0  0
  6 17  2  0  0  0  0
  7  8  1  0  0  0  0
  7 24  1  0  0  0  0
  8  9  2  0  0  0  0
  8 10  1  0  0  0  0
 10 16  1  0  0  0  0
 10 11  1  0  0  0  0
 10 25  1  0  0  0  0
 11 12  1  0  0  0  0
 11 26  1  0  0  0  0
 11 27  1  0  0  0  0
 12 13  1  0  0  0  0
 12 14  1  0  0  0  0
 12 35  1  0  0  0  0
 13 28  1  0  0  0  0
 13 29  1  0  0  0  0
 13 30  1  0  0  0  0
 14 15  1  0  0  0  0
 14 31  1  0  0  0  0
 14 32  1  0  0  0  0
 15 16  1  0  0  0  0
 15 33  1  0  0  0  0
 15 34  1  0  0  0  0
 17 18  1  0  0  0  0
M  CHG  1  12   1
M  END
> <s_m_source_file>
AV-unprocessed.smi

> <i_m_source_file_index>
2482

> <i_lp_mmshare_version>
43012

> <i_f3d_flags>
0

> <s_epik_input>
W0NIM11jMW5bY0hdW2NIXWMoYzFDbClbTkhdQyg9TylbQ0BASF0yW0NIMl1OKFtDSDNdKVtDSDJdW0NIMl1PMg==

> <s_epik_cmdline>
J2VwaWtfcHl0aG9uJywgJy1waCcsICc3LjAnLCAnLXRuJywgJzgnLCAnLW1hJywgJzIwMCcsICctbWV0YWxfYmluZGluZycsICctaW1hZScsICc8aW5maWxlLm1hZT4nLCAnLW9tYWUnLCAnPG91dGZpbGUubWFlPic=

> <r_epik_Ionization_Penalty>
0.314226

> <r_epik_Ionization_Penalty_Charging>
0.314023

> <r_epik_Ionization_Penalty_Neutral>
0.00020299

> <r_epik_State_Penalty>
0.308208

> <r_epik_Charging_Adjusted_Penalty>
0.62223

> <i_epik_Tot_Q>
1

> <i_epik_Tot_abs_Q>
1

> <r_epik_Metal_State_Penalty>
0.314444

> <b_epik_Metal_Only>
0

> <s_lp_Force_Field>
OPLS_2005

> <r_lp_Energy>
22.3098

> <b_lp_Chiralities_Consistent>
1

> <s_lp_Variant>
AV-unprocessed.smi:2482-1

> <Gold.Version>
5.8.1

> <Gold.Id.Protein>
6NUR|6NUR_protein|mol2

> <Gold.PLP.Fitness>
38.1582

> <Gold.PLP.PLP>
-33.5225

> <Gold.PLP.part.hbond>
-2.0000

> <Gold.PLP.part.metal>
0.0000

> <Gold.PLP.part.buried>
-4.6519

> <Gold.PLP.part.nonpolar>
-26.8902

> <Gold.PLP.part.repulsive>
0.2403

> <Gold.PLP.ligand.clash>
0.0000

> <Gold.PLP.ligand.torsion>
0.6830

> <Gold.PLP.Chemscore.Hbond>
2.0000

> <Gold.PLP.Chemscore.CHOScore>
0.0000

> <Gold.PLP.Chemscore.Metal>
0.0000

> <Gold.Chemscore.Hbonds>
donor molecule, donor type, donor heavy atom, donor atom, acceptor molecule, acceptor atom, score
      L1  H    12    35       P1  7957  1.00
      P1  H  7997  8010       L1     9  1.00

> <Gold.PLP.Chemscore.Internal.Correction>
0.0017

> <Gold.Rescore>
     Score         DG    S(hbond)    S(metal)    S(lipo)     H(rot)  DE(clash)    DE(int)     intcor
     19.12     -20.48       1.98        0.00      93.47       1.00       0.12       1.24       ----

> <Gold.Chemscore.Fitness>
19.1153

> <Gold.Chemscore.DG>
-20.4757

> <Gold.Chemscore.ZeroCoef>
-5.4800

> <Gold.Chemscore.Hbond>
1.9819

> <Gold.Chemscore.Metal>
0.0000

> <Gold.Chemscore.Lipo>
93.4712

> <Gold.Chemscore.Internal_Hbond>
0.0000

> <Gold.Chemscore.DEClash>
0.1205

> <Gold.Chemscore.DEInternal>
1.2400

> <Gold.Chemscore.Rot>
1.0000

> <Gold.Chemscore.Internal.Correction>
   9.000000E+99

> <Gold.Chemscore.Hbonds>
donor molecule, donor type, donor heavy atom, donor atom, acceptor molecule, acceptor atom, score
      L1  H    12    35       P1  7957  0.95
      P1  H  7997  8010       L1     9  0.97

> <Gold.Chemscore.Hbond.Weighted>
-6.6196

> <Gold.Chemscore.Metal.Weighted>
-0.0000

> <Gold.Chemscore.Lipo.Weighted>
-10.9361

> <Gold.Chemscore.Internal_Hbond.Weighted>
0.0000

> <Gold.Chemscore.DEClash.Weighted>
0.1205

> <Gold.Chemscore.DEInternal.Weighted>
1.2400

> <Gold.Chemscore.Rot.Weighted>
2.5600

> <Gold.Chemscore.Internal.Correction.Weighted>
   9.000000E+99

> <Gold.Protein.RotatedTorsions>
[ 6907 6896 6895 6894 ] final  -38.47 input  -60.11 | X-H torsion
[ 7974 7965 7964 7962 ] final    7.13 input  175.53 | X-H torsion
[ 8008 7997 7996 7995 ] final   79.12 input   59.86 | X-H torsion
[ 10167 10162 10161 10158 ] final   91.81 input  -65.29 | X-H torsion
[ 10718 10713 10712 10709 ] final  -41.76 input   66.30 | X-H torsion
[ 10763 10752 10751 10750 ] final -136.34 input  -60.55 | X-H torsion
[ 11005 11000 10999 10996 ] final  100.19 input  -57.11 | X-H torsion

> <Gold.Protein.ActiveResidues>
 VAL166  LYS551  ARG553  GLY616  TRP617  ASP618  TYR619  PRO620  LYS621  CYS622 
 ASP623  PHE694  ASN695  SER759  ASP760  ASP761  ALA762  ILE779  LEU786  VAL792 
 PHE793  MET794  SER795  GLU796  ALA797  LYS798  CYS799  TRP800  GLU811  SER814 

> <Gold.Protein.RotatedAtoms>
  151.0020  134.9329  159.7958 H   0  0  0  0  0  0  0  0  0  0  0  0  # atno 6907 bound_to 6896
  152.5280  134.3142  159.9134 H   0  0  0  0  0  0  0  0  0  0  0  0  # atno 6908 bound_to 6896
  151.3147  133.4024  159.2684 H   0  0  0  0  0  0  0  0  0  0  0  0  # atno 6909 bound_to 6896
  146.2429  140.0130  142.8405 H   0  0  0  0  0  0  0  0  0  0  0  0  # atno 7974 bound_to 7965
  155.8653  140.3452  155.5784 H   0  0  0  0  0  0  0  0  0  0  0  0  # atno 8008 bound_to 7997
  155.7888  140.0869  157.2039 H   0  0  0  0  0  0  0  0  0  0  0  0  # atno 8009 bound_to 7997
  154.4014  140.1487  156.3126 H   0  0  0  0  0  0  0  0  0  0  0  0  # atno 8010 bound_to 7997
  139.8338  144.6674  150.9367 H   0  0  0  0  0  0  0  0  0  0  0  0  # atno 10167 bound_to 10162
  156.2669  130.4202  149.8481 H   0  0  0  0  0  0  0  0  0  0  0  0  # atno 10718 bound_to 10713
  154.8685  135.3675  154.5045 H   0  0  0  0  0  0  0  0  0  0  0  0  # atno 10763 bound_to 10752
  153.5684  135.7021  153.5520 H   0  0  0  0  0  0  0  0  0  0  0  0  # atno 10764 bound_to 10752
  153.3564  135.4058  155.1648 H   0  0  0  0  0  0  0  0  0  0  0  0  # atno 10765 bound_to 10752
  139.8771  134.9129  156.4719 H   0  0  0  0  0  0  0  0  0  0  0  0  # atno 11005 bound_to 11000
  145.1311  140.9518  143.4544 LP  0  0  0  0  0  0  0  0  0  0  0  0  # atno 17320 bound_to 7965
  145.0387  139.3278  143.5988 LP  0  0  0  0  0  0  0  0  0  0  0  0  # atno 17321 bound_to 7965
  140.7804  143.3976  151.1203 LP  0  0  0  0  0  0  0  0  0  0  0  0  # atno 17342 bound_to 10162
  139.7628  143.8610  152.3104 LP  0  0  0  0  0  0  0  0  0  0  0  0  # atno 17343 bound_to 10162
  156.5976  130.8533  151.3424 LP  0  0  0  0  0  0  0  0  0  0  0  0  # atno 17370 bound_to 10713
  157.7270  130.9637  150.1681 LP  0  0  0  0  0  0  0  0  0  0  0  0  # atno 17371 bound_to 10713
  140.8789  133.7932  155.9445 LP  0  0  0  0  0  0  0  0  0  0  0  0  # atno 17394 bound_to 11000
  140.8874  134.2537  157.5112 LP  0  0  0  0  0  0  0  0  0  0  0  0  # atno 17395 bound_to 11000

$$$$
