AV-unprocessed.smi:1506|AV-procd|sdf|6079|dock8
  -GOLD-   22720 6203D 1   1.00000     0.00000
 Structure written by MMmdl.
 40 42  0  0  0  0  0  0  0  0  2 V2000
  145.4123  143.3206  155.7904 C   0  0  0  0  0  0  0  0  0  0  0  0
  146.5018  142.3470  155.3908 C   0  0  0  0  0  0  0  0  0  0  0  0
  146.8400  142.1736  154.0341 C   0  0  0  0  0  0  0  0  0  0  0  0
  147.8543  141.2675  153.6739 C   0  0  0  0  0  0  0  0  0  0  0  0
  148.5339  140.5333  154.6650 C   0  0  0  0  0  0  0  0  0  0  0  0
  148.2040  140.7004  156.0340 C   0  0  0  0  0  0  0  0  0  0  0  0
  148.8177  140.0252  157.0675 O   0  0  0  0  0  0  0  0  0  0  0  0
  149.7649  139.0161  156.7429 C   0  0  0  0  0  0  0  0  0  0  0  0
  150.8232  138.9435  157.8535 C   0  0  1  0  0  0  0  0  0  0  0  0
  151.2742  137.6070  157.9529 O   0  0  0  0  0  0  0  0  0  0  0  0
  152.0139  139.8889  157.5965 C   0  0  0  0  0  0  0  0  0  0  0  0
  151.6099  141.2995  157.5060 N   0  0  0  0  0  0  0  0  0  0  0  0
  150.8927  141.9337  156.5391 C   0  0  0  0  0  0  0  0  0  0  0  0
  150.7733  143.2401  156.9045 N   0  3  0  0  0  0  0  0  0  0  0  0
  151.4235  143.4448  158.1231 C   0  0  0  0  0  0  0  0  0  0  0  0
  151.5749  144.5948  158.8919 C   0  0  0  0  0  0  0  0  0  0  0  0
  152.2981  144.4612  160.0953 C   0  0  0  0  0  0  0  0  0  0  0  0
  152.8378  143.2212  160.4938 C   0  0  0  0  0  0  0  0  0  0  0  0
  152.6789  142.0618  159.7062 C   0  0  0  0  0  0  0  0  0  0  0  0
  151.9638  142.2018  158.5168 C   0  0  0  0  0  0  0  0  0  0  0  0
  147.1851  141.6119  156.3808 C   0  0  0  0  0  0  0  0  0  0  0  0
  144.8138  143.6209  154.9296 H   0  0  0  0  0  0  0  0  0  0  0  0
  145.8516  144.2156  156.2315 H   0  0  0  0  0  0  0  0  0  0  0  0
  144.7456  142.8669  156.5241 H   0  0  0  0  0  0  0  0  0  0  0  0
  146.3247  142.7328  153.2668 H   0  0  0  0  0  0  0  0  0  0  0  0
  148.1126  141.1345  152.6336 H   0  0  0  0  0  0  0  0  0  0  0  0
  149.3043  139.8475  154.3478 H   0  0  0  0  0  0  0  0  0  0  0  0
  149.2532  138.0553  156.6613 H   0  0  0  0  0  0  0  0  0  0  0  0
  150.2434  139.2283  155.7851 H   0  0  0  0  0  0  0  0  0  0  0  0
  150.3568  139.2000  158.8057 H   0  0  0  0  0  0  0  0  0  0  0  0
  151.7449  137.3892  157.1633 H   0  0  0  0  0  0  0  0  0  0  0  0
  152.7819  139.7790  158.3621 H   0  0  0  0  0  0  0  0  0  0  0  0
  152.4915  139.6347  156.6496 H   0  0  0  0  0  0  0  0  0  0  0  0
  150.4892  141.4815  155.6445 H   0  0  0  0  0  0  0  0  0  0  0  0
  151.1613  145.5457  158.5895 H   0  0  0  0  0  0  0  0  0  0  0  0
  152.4408  145.3270  160.7258 H   0  0  0  0  0  0  0  0  0  0  0  0
  153.3846  143.1574  161.4234 H   0  0  0  0  0  0  0  0  0  0  0  0
  153.0940  141.1175  160.0249 H   0  0  0  0  0  0  0  0  0  0  0  0
  146.9257  141.7476  157.4207 H   0  0  0  0  0  0  0  0  0  0  0  0
  150.2815  143.9379  156.3611 H   0  0  0  0  0  0  0  0  0  0  0  0
  1  2  1  0  0  0  0
  1 22  1  0  0  0  0
  1 23  1  0  0  0  0
  1 24  1  0  0  0  0
  2 21  1  0  0  0  0
  2  3  2  0  0  0  0
  3  4  1  0  0  0  0
  3 25  1  0  0  0  0
  4  5  2  0  0  0  0
  4 26  1  0  0  0  0
  5  6  1  0  0  0  0
  5 27  1  0  0  0  0
  6  7  1  0  0  0  0
  6 21  2  0  0  0  0
  7  8  1  0  0  0  0
  8  9  1  0  0  0  0
  8 28  1  0  0  0  0
  8 29  1  0  0  0  0
  9 10  1  0  0  0  0
  9 11  1  0  0  0  0
  9 30  1  0  0  0  0
 10 31  1  0  0  0  0
 11 12  1  0  0  0  0
 11 32  1  0  0  0  0
 11 33  1  0  0  0  0
 12 20  1  0  0  0  0
 12 13  1  0  0  0  0
 13 14  2  0  0  0  0
 13 34  1  0  0  0  0
 14 15  1  0  0  0  0
 14 40  1  0  0  0  0
 15 20  2  0  0  0  0
 15 16  1  0  0  0  0
 16 17  2  0  0  0  0
 16 35  1  0  0  0  0
 17 18  1  0  0  0  0
 17 36  1  0  0  0  0
 18 19  2  0  0  0  0
 18 37  1  0  0  0  0
 19 20  1  0  0  0  0
 19 38  1  0  0  0  0
 21 39  1  0  0  0  0
M  CHG  1  14   1
M  END
> <s_m_source_file>
AV-unprocessed.smi

> <i_m_source_file_index>
1506

> <i_lp_mmshare_version>
43012

> <i_f3d_flags>
0

> <s_epik_input>
W0NIM11jMVtjSF1bY0hdW2NIXWMoW2NIXTEpT1tDSDJdW0NASF0oW09IXSlbQ0gyXW4oW2NIXW4yKWMoYzIzKVtjSF1bY0hdW2NIXVtjSF0z

> <s_epik_cmdline>
J2VwaWtfcHl0aG9uJywgJy1waCcsICc3LjAnLCAnLXRuJywgJzgnLCAnLW1hJywgJzIwMCcsICctbWV0YWxfYmluZGluZycsICctaW1hZScsICc8aW5maWxlLm1hZT4nLCAnLW9tYWUnLCAnPG91dGZpbGUubWFlPic=

> <r_lp_tautomer_probability>
1

> <r_epik_Ionization_Penalty>
1.37864

> <r_epik_Ionization_Penalty_Charging>
1.37864

> <r_epik_Ionization_Penalty_Neutral>
2.3993e-06

> <r_epik_State_Penalty>
1.45896

> <r_epik_Charging_Adjusted_Penalty>
2.8376

> <i_epik_Tot_Q>
1

> <i_epik_Tot_abs_Q>
1

> <r_epik_Metal_State_Penalty>
5.49899

> <b_epik_Metal_Only>
0

> <s_lp_Force_Field>
OPLS_2005

> <r_lp_Energy>
20.0977

> <b_lp_Chiralities_Consistent>
1

> <s_lp_Variant>
AV-unprocessed.smi:1506-4

> <Gold.Version>
5.8.1

> <Gold.Id.Protein>
6NUR|6NUR_protein|mol2

> <Gold.PLP.Fitness>
48.4900

> <Gold.PLP.PLP>
-43.8254

> <Gold.PLP.part.hbond>
-0.8708

> <Gold.PLP.part.metal>
0.0000

> <Gold.PLP.part.buried>
-6.8017

> <Gold.PLP.part.nonpolar>
-36.2259

> <Gold.PLP.part.repulsive>
0.0641

> <Gold.PLP.ligand.clash>
0.0000

> <Gold.PLP.ligand.torsion>
0.6949

> <Gold.PLP.Chemscore.Hbond>
2.0000

> <Gold.PLP.Chemscore.CHOScore>
0.0000

> <Gold.PLP.Chemscore.Metal>
0.0000

> <Gold.Chemscore.Hbonds>
donor molecule, donor type, donor heavy atom, donor atom, acceptor molecule, acceptor atom, score
      L1  H    14    40       P1  8028  2.00

> <Gold.PLP.Chemscore.Internal.Correction>
0.0543

> <Gold.Rescore>
     Score         DG    S(hbond)    S(metal)    S(lipo)     H(rot)  DE(clash)    DE(int)     intcor
     14.51     -16.60       0.98        0.00     116.89       2.27       0.14       1.95       ----

> <Gold.Chemscore.Fitness>
14.5099

> <Gold.Chemscore.DG>
-16.5960

> <Gold.Chemscore.ZeroCoef>
-5.4800

> <Gold.Chemscore.Hbond>
0.9752

> <Gold.Chemscore.Metal>
0.0000

> <Gold.Chemscore.Lipo>
116.8874

> <Gold.Chemscore.Internal_Hbond>
0.0000

> <Gold.Chemscore.DEClash>
0.1357

> <Gold.Chemscore.DEInternal>
1.9504

> <Gold.Chemscore.Rot>
2.2723

> <Gold.Chemscore.Internal.Correction>
   9.000000E+99

> <Gold.Chemscore.Hbonds>
donor molecule, donor type, donor heavy atom, donor atom, acceptor molecule, acceptor atom, score
      L1  H    14    40       P1  8028  0.99

> <Gold.Chemscore.Hbond.Weighted>
-3.2572

> <Gold.Chemscore.Metal.Weighted>
-0.0000

> <Gold.Chemscore.Lipo.Weighted>
-13.6758

> <Gold.Chemscore.Internal_Hbond.Weighted>
0.0000

> <Gold.Chemscore.DEClash.Weighted>
0.1357

> <Gold.Chemscore.DEInternal.Weighted>
1.9504

> <Gold.Chemscore.Rot.Weighted>
5.8170

> <Gold.Chemscore.Internal.Correction.Weighted>
   9.000000E+99

> <Gold.Protein.RotatedTorsions>
[ 6907 6896 6895 6894 ] final -151.46 input  -60.11 | X-H torsion
[ 7974 7965 7964 7962 ] final  104.70 input  175.53 | X-H torsion
[ 8008 7997 7996 7995 ] final -167.52 input   59.86 | X-H torsion
[ 10167 10162 10161 10158 ] final   62.72 input  -65.29 | X-H torsion
[ 10718 10713 10712 10709 ] final  -95.59 input   66.30 | X-H torsion
[ 10763 10752 10751 10750 ] final  132.15 input  -60.55 | X-H torsion
[ 11005 11000 10999 10996 ] final   88.37 input  -57.11 | X-H torsion

> <Gold.Protein.ActiveResidues>
 VAL166  LYS551  ARG553  GLY616  TRP617  ASP618  TYR619  PRO620  LYS621  CYS622 
 ASP623  PHE694  ASN695  SER759  ASP760  ASP761  ALA762  ILE779  LEU786  VAL792 
 PHE793  MET794  SER795  GLU796  ALA797  LYS798  CYS799  TRP800  GLU811  SER814 

> <Gold.Protein.RotatedAtoms>
  151.2135  133.4542  159.2598 H   0  0  0  0  0  0  0  0  0  0  0  0  # atno 6907 bound_to 6896
  151.0953  134.9941  159.8433 H   0  0  0  0  0  0  0  0  0  0  0  0  # atno 6908 bound_to 6896
  152.5438  134.2066  159.8786 H   0  0  0  0  0  0  0  0  0  0  0  0  # atno 6909 bound_to 6896
  145.3294  139.2491  143.3669 H   0  0  0  0  0  0  0  0  0  0  0  0  # atno 7974 bound_to 7965
  155.8788  140.1005  157.1499 H   0  0  0  0  0  0  0  0  0  0  0  0  # atno 8008 bound_to 7997
  154.4003  140.1333  156.4234 H   0  0  0  0  0  0  0  0  0  0  0  0  # atno 8009 bound_to 7997
  155.7666  140.3462  155.5228 H   0  0  0  0  0  0  0  0  0  0  0  0  # atno 8010 bound_to 7997
  140.1408  144.4555  150.6812 H   0  0  0  0  0  0  0  0  0  0  0  0  # atno 10167 bound_to 10162
  156.0046  130.5116  150.6100 H   0  0  0  0  0  0  0  0  0  0  0  0  # atno 10718 bound_to 10713
  153.7859  135.3162  155.3372 H   0  0  0  0  0  0  0  0  0  0  0  0  # atno 10763 bound_to 10752
  154.8144  135.4646  154.0605 H   0  0  0  0  0  0  0  0  0  0  0  0  # atno 10764 bound_to 10752
  153.1909  135.6908  153.8440 H   0  0  0  0  0  0  0  0  0  0  0  0  # atno 10765 bound_to 10752
  139.8898  134.8483  156.2991 H   0  0  0  0  0  0  0  0  0  0  0  0  # atno 11005 bound_to 11000
  146.3051  140.3868  142.8690 LP  0  0  0  0  0  0  0  0  0  0  0  0  # atno 17320 bound_to 7965
  144.8876  140.7482  143.5947 LP  0  0  0  0  0  0  0  0  0  0  0  0  # atno 17321 bound_to 7965
  140.6761  143.2306  151.5503 LP  0  0  0  0  0  0  0  0  0  0  0  0  # atno 17342 bound_to 10162
  139.5473  144.2488  152.1465 LP  0  0  0  0  0  0  0  0  0  0  0  0  # atno 17343 bound_to 10162
  157.3934  131.0799  151.1374 LP  0  0  0  0  0  0  0  0  0  0  0  0  # atno 17370 bound_to 10713
  157.2058  130.6415  149.5755 LP  0  0  0  0  0  0  0  0  0  0  0  0  # atno 17371 bound_to 10713
  140.9925  133.7200  156.0836 LP  0  0  0  0  0  0  0  0  0  0  0  0  # atno 17394 bound_to 11000
  140.7606  134.3944  157.5526 LP  0  0  0  0  0  0  0  0  0  0  0  0  # atno 17395 bound_to 11000

$$$$
