AV-unprocessed.smi:1965|AV-procd|sdf|7944|dock7
  -GOLD-   2272010113D 1   1.00000     0.00000
 Structure written by MMmdl.
 36 38  0  0  0  0  0  0  0  0  3 V2000
  150.2422  134.3866  156.5201 O   0  0  0  0  0  0  0  0  0  0  0  0
  150.4262  135.1117  155.5437 C   0  0  0  0  0  0  0  0  0  0  0  0
  151.4213  136.0336  155.4685 N   0  5  0  0  0  0  0  0  0  0  0  0
  151.1881  137.3256  155.1704 C   0  0  0  0  0  0  0  0  0  0  0  0
  150.1587  137.7282  154.4163 N   0  0  0  0  0  0  0  0  0  0  0  0
  150.1041  139.1126  154.2443 C   0  0  0  0  0  0  0  0  0  0  0  0
  151.1156  139.7797  154.8828 C   0  0  0  0  0  0  0  0  0  0  0  0
  152.1767  138.6822  155.7187 S   0  0  0  0  0  0  0  0  0  0  0  0
  149.6063  134.9953  154.4832 N   0  0  0  0  0  0  0  0  0  0  0  0
  148.4730  134.0859  154.3550 C   0  0  2  0  0  0  0  0  0  0  0  0
  148.5968  133.1081  153.1663 C   0  0  0  0  0  0  0  0  0  0  0  0
  147.2344  133.1582  152.4674 C   0  0  0  0  0  0  0  0  0  0  0  0
  146.7759  134.5283  152.7267 N   0  3  1  0  0  0  0  0  0  0  0  0
  145.3696  134.8646  152.4232 C   0  0  0  0  0  0  0  0  0  0  0  0
  145.1669  136.3808  152.6329 C   0  0  0  0  0  0  0  0  0  0  0  0
  145.6422  136.8467  154.0276 C   0  0  0  0  0  0  0  0  0  0  0  0
  147.0770  136.3653  154.3280 C   0  0  0  0  0  0  0  0  0  0  0  0
  147.1490  134.8412  154.1163 C   0  0  2  0  0  0  0  0  0  0  0  0
  149.3092  139.5381  153.6500 H   0  0  0  0  0  0  0  0  0  0  0  0
  151.3037  140.8425  154.9087 H   0  0  0  0  0  0  0  0  0  0  0  0
  149.7884  135.6041  153.6987 H   0  0  0  0  0  0  0  0  0  0  0  0
  148.3821  133.5224  155.2856 H   0  0  0  0  0  0  0  0  0  0  0  0
  149.3688  133.4483  152.4739 H   0  0  0  0  0  0  0  0  0  0  0  0
  148.8634  132.0991  153.4821 H   0  0  0  0  0  0  0  0  0  0  0  0
  147.3002  132.9441  151.4002 H   0  0  0  0  0  0  0  0  0  0  0  0
  146.5441  132.4461  152.9229 H   0  0  0  0  0  0  0  0  0  0  0  0
  145.1409  134.5934  151.3920 H   0  0  0  0  0  0  0  0  0  0  0  0
  144.6998  134.2910  153.0657 H   0  0  0  0  0  0  0  0  0  0  0  0
  145.7242  136.9242  151.8685 H   0  0  0  0  0  0  0  0  0  0  0  0
  144.1179  136.6412  152.4892 H   0  0  0  0  0  0  0  0  0  0  0  0
  145.5891  137.9334  154.0987 H   0  0  0  0  0  0  0  0  0  0  0  0
  144.9641  136.4555  154.7873 H   0  0  0  0  0  0  0  0  0  0  0  0
  147.7830  136.8772  153.6719 H   0  0  0  0  0  0  0  0  0  0  0  0
  147.3522  136.6220  155.3516 H   0  0  0  0  0  0  0  0  0  0  0  0
  146.4056  134.3747  154.7668 H   0  0  0  0  0  0  0  0  0  0  0  0
  147.3504  135.1208  152.1445 H   0  0  0  0  0  0  0  0  0  0  0  0
  1  2  2  0  0  0  0
  2  3  1  0  0  0  0
  2  9  1  0  0  0  0
  3  4  1  0  0  0  0
  4  8  1  0  0  0  0
  4  5  2  0  0  0  0
  5  6  1  0  0  0  0
  6  7  2  0  0  0  0
  6 19  1  0  0  0  0
  7  8  1  0  0  0  0
  7 20  1  0  0  0  0
  9 10  1  0  0  0  0
  9 21  1  0  0  0  0
 10 18  1  0  0  0  0
 10 11  1  0  0  0  0
 10 22  1  0  0  0  0
 11 12  1  0  0  0  0
 11 23  1  0  0  0  0
 11 24  1  0  0  0  0
 12 13  1  0  0  0  0
 12 25  1  0  0  0  0
 12 26  1  0  0  0  0
 13 18  1  0  0  0  0
 13 14  1  0  0  0  0
 13 36  1  0  0  0  0
 14 15  1  0  0  0  0
 14 27  1  0  0  0  0
 14 28  1  0  0  0  0
 15 16  1  0  0  0  0
 15 29  1  0  0  0  0
 15 30  1  0  0  0  0
 16 17  1  0  0  0  0
 16 31  1  0  0  0  0
 16 32  1  0  0  0  0
 17 18  1  0  0  0  0
 17 33  1  0  0  0  0
 17 34  1  0  0  0  0
 18 35  1  0  0  0  0
M  CHG  1   3  -1
M  CHG  1  13   1
M  END
> <s_m_source_file>
AV-unprocessed.smi

> <i_m_source_file_index>
1965

> <i_lp_mmshare_version>
43012

> <i_f3d_flags>
0

> <s_epik_input>
czFbY0hdW2NIXW5jMVtOSF1DKD1PKVtOSF1bQ0BIXShbQ0gyXVtDSDJdMilbQ0BASF0oTjIzKVtDSDJdW0NIMl1bQ0gyXVtDSDJdMw==

> <s_epik_cmdline>
J2VwaWtfcHl0aG9uJywgJy1waCcsICc3LjAnLCAnLXRuJywgJzgnLCAnLW1hJywgJzIwMCcsICctbWV0YWxfYmluZGluZycsICctaW1hZScsICc8aW5maWxlLm1hZT4nLCAnLW9tYWUnLCAnPG91dGZpbGUubWFlPic=

> <r_lp_tautomer_probability>
1

> <r_epik_Ionization_Penalty>
7.4116

> <r_epik_Ionization_Penalty_Charging>
6.13869

> <r_epik_Ionization_Penalty_Neutral>
1.27291

> <r_epik_State_Penalty>
6.13761

> <r_epik_Charging_Adjusted_Penalty>
12.2763

> <i_epik_Tot_Q>
0

> <i_epik_Tot_abs_Q>
2

> <r_epik_Metal_State_Penalty>
2.08142

> <b_epik_Metal_Only>
1

> <s_lp_Force_Field>
OPLS_2005

> <r_lp_Energy>
32.5811

> <b_lp_Chiralities_Consistent>
1

> <s_lp_Variant>
AV-unprocessed.smi:1965-13

> <Gold.Version>
5.8.1

> <Gold.Id.Protein>
6NUR|6NUR_protein|mol2

> <Gold.PLP.Fitness>
39.1178

> <Gold.PLP.PLP>
-24.2381

> <Gold.PLP.part.hbond>
-3.0000

> <Gold.PLP.part.metal>
0.0000

> <Gold.PLP.part.buried>
0.9373

> <Gold.PLP.part.nonpolar>
-22.1616

> <Gold.PLP.part.repulsive>
0.3589

> <Gold.PLP.ligand.clash>
0.0000

> <Gold.PLP.ligand.torsion>
0.6565

> <Gold.PLP.Chemscore.Hbond>
4.5691

> <Gold.PLP.Chemscore.CHOScore>
0.8273

> <Gold.PLP.Chemscore.Metal>
0.0000

> <Gold.Chemscore.Hbonds>
donor molecule, donor type, donor heavy atom, donor atom, acceptor molecule, acceptor atom, score
      L1  H     9    21       P1  7948  0.54
      L1  H    13    36       P1  7948  2.00
      P1  H 10752 10764       L1     3  2.00
      L1  C     6    19       P1  7957  0.78

> <Gold.PLP.Chemscore.Internal.Correction>
0.0034

> <Gold.Rescore>
     Score         DG    S(hbond)    S(metal)    S(lipo)     H(rot)  DE(clash)    DE(int)     intcor
     14.16     -15.03       1.80        0.00      52.12       1.00       0.19       0.68       ----

> <Gold.Chemscore.Fitness>
14.1600

> <Gold.Chemscore.DG>
-15.0300

> <Gold.Chemscore.ZeroCoef>
-5.4800

> <Gold.Chemscore.Hbond>
1.8000

> <Gold.Chemscore.Metal>
0.0000

> <Gold.Chemscore.Lipo>
52.1208

> <Gold.Chemscore.Internal_Hbond>
0.0000

> <Gold.Chemscore.DEClash>
0.1897

> <Gold.Chemscore.DEInternal>
0.6803

> <Gold.Chemscore.Rot>
1.0000

> <Gold.Chemscore.Internal.Correction>
   9.000000E+99

> <Gold.Chemscore.Hbonds>
donor molecule, donor type, donor heavy atom, donor atom, acceptor molecule, acceptor atom, score
      L1  H     9    21       P1  7948  0.05
      L1  H    13    36       P1  7948  0.95
      P1  H 10752 10764       L1     3  0.58

> <Gold.Chemscore.Hbond.Weighted>
-6.0119

> <Gold.Chemscore.Metal.Weighted>
-0.0000

> <Gold.Chemscore.Lipo.Weighted>
-6.0981

> <Gold.Chemscore.Internal_Hbond.Weighted>
0.0000

> <Gold.Chemscore.DEClash.Weighted>
0.1897

> <Gold.Chemscore.DEInternal.Weighted>
0.6803

> <Gold.Chemscore.Rot.Weighted>
2.5600

> <Gold.Chemscore.Internal.Correction.Weighted>
   9.000000E+99

> <Gold.Protein.RotatedTorsions>
[ 6907 6896 6895 6894 ] final  -87.62 input  -60.11 | X-H torsion
[ 7974 7965 7964 7962 ] final   74.58 input  175.53 | X-H torsion
[ 8008 7997 7996 7995 ] final -154.81 input   59.86 | X-H torsion
[ 10167 10162 10161 10158 ] final -121.97 input  -65.29 | X-H torsion
[ 10718 10713 10712 10709 ] final  -15.03 input   66.30 | X-H torsion
[ 10763 10752 10751 10750 ] final  -58.12 input  -60.55 | X-H torsion
[ 11005 11000 10999 10996 ] final  125.16 input  -57.11 | X-H torsion

> <Gold.Protein.ActiveResidues>
 VAL166  LYS551  ARG553  GLY616  TRP617  ASP618  TYR619  PRO620  LYS621  CYS622 
 ASP623  PHE694  ASN695  SER759  ASP760  ASP761  ALA762  ILE779  LEU786  VAL792 
 PHE793  MET794  SER795  GLU796  ALA797  LYS798  CYS799  TRP800  GLU811  SER814 

> <Gold.Protein.RotatedAtoms>
  150.6867  134.2867  159.4649 H   0  0  0  0  0  0  0  0  0  0  0  0  # atno 6907 bound_to 6896
  152.0776  134.9490  160.0583 H   0  0  0  0  0  0  0  0  0  0  0  0  # atno 6908 bound_to 6896
  152.0855  133.4139  159.4557 H   0  0  0  0  0  0  0  0  0  0  0  0  # atno 6909 bound_to 6896
  145.7265  139.2667  143.1566 H   0  0  0  0  0  0  0  0  0  0  0  0  # atno 7974 bound_to 7965
  155.6921  140.0756  157.2444 H   0  0  0  0  0  0  0  0  0  0  0  0  # atno 8008 bound_to 7997
  154.4087  140.1662  156.2150 H   0  0  0  0  0  0  0  0  0  0  0  0  # atno 8009 bound_to 7997
  155.9442  140.3382  155.6356 H   0  0  0  0  0  0  0  0  0  0  0  0  # atno 8010 bound_to 7997
  140.0193  143.5361  152.2228 H   0  0  0  0  0  0  0  0  0  0  0  0  # atno 10167 bound_to 10162
  156.6075  130.4841  149.6214 H   0  0  0  0  0  0  0  0  0  0  0  0  # atno 10718 bound_to 10713
  154.2331  135.6357  153.5182 H   0  0  0  0  0  0  0  0  0  0  0  0  # atno 10763 bound_to 10752
  152.9945  135.5524  154.5991 H   0  0  0  0  0  0  0  0  0  0  0  0  # atno 10764 bound_to 10752
  154.5479  135.2899  155.1010 H   0  0  0  0  0  0  0  0  0  0  0  0  # atno 10765 bound_to 10752
  139.9393  134.9637  156.8517 H   0  0  0  0  0  0  0  0  0  0  0  0  # atno 11005 bound_to 11000
  146.0577  140.8003  142.9750 LP  0  0  0  0  0  0  0  0  0  0  0  0  # atno 17320 bound_to 7965
  144.6903  140.3149  143.7242 LP  0  0  0  0  0  0  0  0  0  0  0  0  # atno 17321 bound_to 7965
  139.6151  144.7617  151.2865 LP  0  0  0  0  0  0  0  0  0  0  0  0  # atno 17342 bound_to 10162
  140.7349  143.6752  150.8047 LP  0  0  0  0  0  0  0  0  0  0  0  0  # atno 17343 bound_to 10162
  156.2417  130.6855  151.1562 LP  0  0  0  0  0  0  0  0  0  0  0  0  # atno 17370 bound_to 10713
  157.7263  131.0647  150.5915 LP  0  0  0  0  0  0  0  0  0  0  0  0  # atno 17371 bound_to 10713
  140.5993  134.0187  155.7531 LP  0  0  0  0  0  0  0  0  0  0  0  0  # atno 17394 bound_to 11000
  141.1021  133.9752  157.3061 LP  0  0  0  0  0  0  0  0  0  0  0  0  # atno 17395 bound_to 11000

$$$$
