AV-unprocessed.smi:1296|AV-procd|sdf|5414|dock3
  -GOLD-   22720 4573D 1   1.00000     0.00000
 Structure written by MMmdl.
 36 36  0  0  0  0  0  0  0  0  1 V2000
  146.5805  138.6359  151.9623 C   0  0  0  0  0  0  0  0  0  0  0  0
  147.5966  139.3011  152.8654 C   0  0  0  0  0  0  0  0  0  0  0  0
  148.6343  138.4660  153.2452 N   0  0  0  0  0  0  0  0  0  0  0  0
  149.6070  138.9820  154.0834 C   0  0  0  0  0  0  0  0  0  0  0  0
  150.7041  138.0005  154.4569 C   0  0  0  0  0  0  0  0  0  0  0  0
  149.5527  140.2676  154.5149 C   0  0  0  0  0  0  0  0  0  0  0  0
  150.6043  140.8755  155.4427 C   0  0  0  0  0  0  0  0  0  0  0  0
  150.0797  141.6099  156.6795 C   0  0  0  0  0  0  0  0  0  0  0  0
  148.8728  141.6640  156.9170 O   0  0  0  0  0  0  0  0  0  0  0  0
  151.0088  142.1728  157.4644 N   0  0  0  0  0  0  0  0  0  0  0  0
  150.7206  142.9012  158.6932 C   0  0  0  0  0  0  0  0  0  0  0  0
  151.9939  143.5281  159.2939 C   0  0  0  0  0  0  0  0  0  0  0  0
  152.5457  144.6770  158.4318 C   0  0  0  0  0  0  0  0  0  0  0  0
  153.0712  142.4578  159.5228 C   0  0  0  0  0  0  0  0  0  0  0  0
  148.4264  141.1174  154.0617 C   0  0  0  0  0  0  0  0  0  0  0  0
  148.3326  142.2965  154.4003 O   0  0  0  0  0  0  0  0  0  0  0  0
  147.4588  140.5419  153.2220 N   0  0  0  0  0  0  0  0  0  0  0  0
  148.7134  137.5045  152.9473 H   0  0  0  0  0  0  0  0  0  0  0  0
  145.8175  139.3470  151.6432 H   0  0  0  0  0  0  0  0  0  0  0  0
  146.0863  137.8171  152.4861 H   0  0  0  0  0  0  0  0  0  0  0  0
  147.0660  138.2353  151.0720 H   0  0  0  0  0  0  0  0  0  0  0  0
  150.7101  137.8267  155.5330 H   0  0  0  0  0  0  0  0  0  0  0  0
  151.6794  138.3901  154.1644 H   0  0  0  0  0  0  0  0  0  0  0  0
  150.5671  137.0377  153.9630 H   0  0  0  0  0  0  0  0  0  0  0  0
  151.2052  141.5803  154.8677 H   0  0  0  0  0  0  0  0  0  0  0  0
  151.3106  140.1110  155.7683 H   0  0  0  0  0  0  0  0  0  0  0  0
  151.9789  142.0822  157.1996 H   0  0  0  0  0  0  0  0  0  0  0  0
  149.9888  143.6807  158.4752 H   0  0  0  0  0  0  0  0  0  0  0  0
  150.2595  142.2247  159.4149 H   0  0  0  0  0  0  0  0  0  0  0  0
  151.7355  143.9417  160.2699 H   0  0  0  0  0  0  0  0  0  0  0  0
  152.7979  144.3322  157.4284 H   0  0  0  0  0  0  0  0  0  0  0  0
  153.4484  145.0994  158.8740 H   0  0  0  0  0  0  0  0  0  0  0  0
  151.8251  145.4889  158.3334 H   0  0  0  0  0  0  0  0  0  0  0  0
  153.3764  141.9960  158.5831 H   0  0  0  0  0  0  0  0  0  0  0  0
  152.7073  141.6674  160.1796 H   0  0  0  0  0  0  0  0  0  0  0  0
  153.9599  142.8862  159.9870 H   0  0  0  0  0  0  0  0  0  0  0  0
  1 19  1  0  0  0  0
  1 20  1  0  0  0  0
  1 21  1  0  0  0  0
  1  2  1  0  0  0  0
  2  3  1  0  0  0  0
  2 17  2  0  0  0  0
  3  4  1  0  0  0  0
  3 18  1  0  0  0  0
  4  6  2  0  0  0  0
  4  5  1  0  0  0  0
  5 22  1  0  0  0  0
  5 23  1  0  0  0  0
  5 24  1  0  0  0  0
  6 15  1  0  0  0  0
  6  7  1  0  0  0  0
  7  8  1  0  0  0  0
  7 25  1  0  0  0  0
  7 26  1  0  0  0  0
  8  9  2  0  0  0  0
  8 10  1  0  0  0  0
 10 11  1  0  0  0  0
 10 27  1  0  0  0  0
 11 12  1  0  0  0  0
 11 28  1  0  0  0  0
 11 29  1  0  0  0  0
 12 13  1  0  0  0  0
 12 14  1  0  0  0  0
 12 30  1  0  0  0  0
 13 31  1  0  0  0  0
 13 32  1  0  0  0  0
 13 33  1  0  0  0  0
 14 34  1  0  0  0  0
 14 35  1  0  0  0  0
 14 36  1  0  0  0  0
 15 16  2  0  0  0  0
 15 17  1  0  0  0  0
M  END
> <s_m_source_file>
AV-unprocessed.smi

> <i_m_source_file_index>
1296

> <i_lp_mmshare_version>
43012

> <i_f3d_flags>
0

> <s_epik_input>
W0NIM11jMW5jKFtDSDNdKWMoYyg9TylbbkhdMSlbQ0gyXUMoPU8pW05IXVtDSDJdW0NIXShbQ0gzXSlbQ0gzXQ==

> <s_epik_cmdline>
J2VwaWtfcHl0aG9uJywgJy1waCcsICc3LjAnLCAnLXRuJywgJzgnLCAnLW1hJywgJzIwMCcsICctbWV0YWxfYmluZGluZycsICctaW1hZScsICc8aW5maWxlLm1hZT4nLCAnLW9tYWUnLCAnPG91dGZpbGUubWFlPic=

> <r_lp_tautomer_probability>
0.156392

> <r_epik_Ionization_Penalty>
0.0142343

> <r_epik_Ionization_Penalty_Charging>
0.0141145

> <r_epik_Ionization_Penalty_Neutral>
0.000119779

> <r_epik_State_Penalty>
1.52879

> <r_epik_Charging_Adjusted_Penalty>
1.5429

> <i_epik_Tot_Q>
0

> <i_epik_Tot_abs_Q>
0

> <r_epik_Metal_State_Penalty>
1.70685

> <b_epik_Metal_Only>
0

> <s_lp_Force_Field>
OPLS_2005

> <r_lp_Energy>
9.70595

> <b_lp_Chiralities_Consistent>
1

> <s_lp_Variant>
AV-unprocessed.smi:1296-2

> <Gold.Version>
5.8.1

> <Gold.Id.Protein>
6NUR|6NUR_protein|mol2

> <Gold.PLP.Fitness>
39.7752

> <Gold.PLP.PLP>
-37.0233

> <Gold.PLP.part.hbond>
-2.9889

> <Gold.PLP.part.metal>
0.0000

> <Gold.PLP.part.buried>
-0.8881

> <Gold.PLP.part.nonpolar>
-35.8613

> <Gold.PLP.part.repulsive>
3.0550

> <Gold.PLP.ligand.clash>
0.0000

> <Gold.PLP.ligand.torsion>
0.1313

> <Gold.PLP.Chemscore.Hbond>
1.0000

> <Gold.PLP.Chemscore.CHOScore>
0.0000

> <Gold.PLP.Chemscore.Metal>
0.0000

> <Gold.Chemscore.Hbonds>
donor molecule, donor type, donor heavy atom, donor atom, acceptor molecule, acceptor atom, score
      L1  H     3    18       P1  7948  1.00

> <Gold.PLP.Chemscore.Internal.Correction>
0.0144

> <Gold.Rescore>
     Score         DG    S(hbond)    S(metal)    S(lipo)     H(rot)  DE(clash)    DE(int)     intcor
      9.45     -13.97       1.00        0.00      82.01       1.73       0.13       4.40       ----

> <Gold.Chemscore.Fitness>
9.4495

> <Gold.Chemscore.DG>
-13.9747

> <Gold.Chemscore.ZeroCoef>
-5.4800

> <Gold.Chemscore.Hbond>
0.9960

> <Gold.Chemscore.Metal>
0.0000

> <Gold.Chemscore.Lipo>
82.0140

> <Gold.Chemscore.Internal_Hbond>
0.0000

> <Gold.Chemscore.DEClash>
0.1294

> <Gold.Chemscore.DEInternal>
4.3958

> <Gold.Chemscore.Rot>
1.7296

> <Gold.Chemscore.Internal.Correction>
   9.000000E+99

> <Gold.Chemscore.Hbonds>
donor molecule, donor type, donor heavy atom, donor atom, acceptor molecule, acceptor atom, score
      L1  H     3    18       P1  7948  0.98

> <Gold.Chemscore.Hbond.Weighted>
-3.3267

> <Gold.Chemscore.Metal.Weighted>
-0.0000

> <Gold.Chemscore.Lipo.Weighted>
-9.5956

> <Gold.Chemscore.Internal_Hbond.Weighted>
0.0000

> <Gold.Chemscore.DEClash.Weighted>
0.1294

> <Gold.Chemscore.DEInternal.Weighted>
4.3958

> <Gold.Chemscore.Rot.Weighted>
4.4277

> <Gold.Chemscore.Internal.Correction.Weighted>
   9.000000E+99

> <Gold.Protein.RotatedTorsions>
[ 6907 6896 6895 6894 ] final -155.76 input  -60.11 | X-H torsion
[ 7974 7965 7964 7962 ] final -171.89 input  175.53 | X-H torsion
[ 8008 7997 7996 7995 ] final  -97.97 input   59.86 | X-H torsion
[ 10167 10162 10161 10158 ] final -120.40 input  -65.29 | X-H torsion
[ 10718 10713 10712 10709 ] final  -80.07 input   66.30 | X-H torsion
[ 10763 10752 10751 10750 ] final    7.96 input  -60.55 | X-H torsion
[ 11005 11000 10999 10996 ] final  132.29 input  -57.11 | X-H torsion

> <Gold.Protein.ActiveResidues>
 VAL166  LYS551  ARG553  GLY616  TRP617  ASP618  TYR619  PRO620  LYS621  CYS622 
 ASP623  PHE694  ASN695  SER759  ASP760  ASP761  ALA762  ILE779  LEU786  VAL792 
 PHE793  MET794  SER795  GLU796  ALA797  LYS798  CYS799  TRP800  GLU811  SER814 

> <Gold.Protein.RotatedAtoms>
  151.2773  133.4226  159.2624 H   0  0  0  0  0  0  0  0  0  0  0  0  # atno 6907 bound_to 6896
  151.0391  134.9595  159.8162 H   0  0  0  0  0  0  0  0  0  0  0  0  # atno 6908 bound_to 6896
  152.5361  134.2732  159.9032 H   0  0  0  0  0  0  0  0  0  0  0  0  # atno 6909 bound_to 6896
  144.7152  140.1854  143.6354 H   0  0  0  0  0  0  0  0  0  0  0  0  # atno 7974 bound_to 7965
  154.7948  140.0459  157.1229 H   0  0  0  0  0  0  0  0  0  0  0  0  # atno 8008 bound_to 7997
  154.9548  140.3070  155.5038 H   0  0  0  0  0  0  0  0  0  0  0  0  # atno 8009 bound_to 7997
  156.2954  140.2281  156.4628 H   0  0  0  0  0  0  0  0  0  0  0  0  # atno 8010 bound_to 7997
  140.0362  143.5199  152.2152 H   0  0  0  0  0  0  0  0  0  0  0  0  # atno 10167 bound_to 10162
  156.0078  130.4564  150.3745 H   0  0  0  0  0  0  0  0  0  0  0  0  # atno 10718 bound_to 10713
  153.2304  135.6892  153.7896 H   0  0  0  0  0  0  0  0  0  0  0  0  # atno 10763 bound_to 10752
  153.7062  135.3289  155.3237 H   0  0  0  0  0  0  0  0  0  0  0  0  # atno 10764 bound_to 10752
  154.8311  135.4579  154.1187 H   0  0  0  0  0  0  0  0  0  0  0  0  # atno 10765 bound_to 10752
  139.9781  134.9557  156.9561 H   0  0  0  0  0  0  0  0  0  0  0  0  # atno 11005 bound_to 11000
  145.8818  139.2327  143.1601 LP  0  0  0  0  0  0  0  0  0  0  0  0  # atno 17320 bound_to 7965
  145.9987  140.8539  143.0029 LP  0  0  0  0  0  0  0  0  0  0  0  0  # atno 17321 bound_to 7965
  139.6044  144.7592  151.3097 LP  0  0  0  0  0  0  0  0  0  0  0  0  # atno 17342 bound_to 10162
  140.7280  143.6946  150.7894 LP  0  0  0  0  0  0  0  0  0  0  0  0  # atno 17343 bound_to 10162
  157.1828  131.0396  151.2740 LP  0  0  0  0  0  0  0  0  0  0  0  0  # atno 17370 bound_to 10713
  157.4131  130.7396  149.6854 LP  0  0  0  0  0  0  0  0  0  0  0  0  # atno 17371 bound_to 10713
  140.5152  134.0962  155.7279 LP  0  0  0  0  0  0  0  0  0  0  0  0  # atno 17394 bound_to 11000
  141.1456  133.9060  157.2222 LP  0  0  0  0  0  0  0  0  0  0  0  0  # atno 17395 bound_to 11000

$$$$
