AV-unprocessed.smi:1914|AV-procd|sdf|7757|dock8
  -GOLD-   22720 9493D 1   1.00000     0.00000
 Structure written by MMmdl.
 44 45  0  0  0  0  0  0  0  0  2 V2000
  145.4798  135.6924  151.3015 C   0  0  0  0  0  0  0  0  0  0  0  0
  145.1302  134.5505  152.2728 C   0  0  1  0  0  0  0  0  0  0  0  0
  145.5011  133.1621  151.7196 C   0  0  0  0  0  0  0  0  0  0  0  0
  147.0183  132.9335  151.7623 C   0  0  0  0  0  0  0  0  0  0  0  0
  147.5751  133.1849  153.1723 C   0  0  0  0  0  0  0  0  0  0  0  0
  147.2273  134.5471  153.6531 N   0  3  2  0  0  0  0  0  0  0  0  0
  147.8782  134.8633  154.9492 C   0  0  0  0  0  0  0  0  0  0  0  0
  149.4039  134.6433  154.9167 C   0  0  0  0  0  0  0  0  0  0  0  0
  150.1055  135.8539  154.5082 N   0  0  0  0  0  0  0  0  0  0  0  0
  151.1371  136.4015  155.1684 C   0  0  0  0  0  0  0  0  0  0  0  0
  151.5814  135.9421  156.2214 O   0  0  0  0  0  0  0  0  0  0  0  0
  151.7467  137.6655  154.5473 C   0  0  0  0  0  0  0  0  0  0  0  0
  150.8832  138.8486  154.6966 N   0  0  0  0  0  0  0  0  0  0  0  0
  149.6210  138.8078  154.0714 C   0  0  0  0  0  0  0  0  0  0  0  0
  148.7573  139.8325  154.1491 C   0  0  0  0  0  0  0  0  0  0  0  0
  149.1505  141.0021  154.8987 C   0  0  0  0  0  0  0  0  0  0  0  0
  150.3539  141.0501  155.5039 C   0  0  0  0  0  0  0  0  0  0  0  0
  151.2996  139.9307  155.4250 C   0  0  0  0  0  0  0  0  0  0  0  0
  152.3981  139.9619  155.9815 O   0  0  0  0  0  0  0  0  0  0  0  0
  145.7538  134.7600  153.6684 C   0  0  0  0  0  0  0  0  0  0  0  0
  146.5540  135.7723  151.1345 H   0  0  0  0  0  0  0  0  0  0  0  0
  145.1351  136.6523  151.6867 H   0  0  0  0  0  0  0  0  0  0  0  0
  145.0045  135.5409  150.3318 H   0  0  0  0  0  0  0  0  0  0  0  0
  144.0461  134.5719  152.3928 H   0  0  0  0  0  0  0  0  0  0  0  0
  145.0093  132.3947  152.3192 H   0  0  0  0  0  0  0  0  0  0  0  0
  145.1269  133.0405  150.7025 H   0  0  0  0  0  0  0  0  0  0  0  0
  147.2473  131.9142  151.4502 H   0  0  0  0  0  0  0  0  0  0  0  0
  147.5154  133.5898  151.0473 H   0  0  0  0  0  0  0  0  0  0  0  0
  147.1862  132.4416  153.8703 H   0  0  0  0  0  0  0  0  0  0  0  0
  148.6588  133.0640  153.1518 H   0  0  0  0  0  0  0  0  0  0  0  0
  147.6313  135.8862  155.2378 H   0  0  0  0  0  0  0  0  0  0  0  0
  147.4647  134.2177  155.7257 H   0  0  0  0  0  0  0  0  0  0  0  0
  149.7606  134.3633  155.9084 H   0  0  0  0  0  0  0  0  0  0  0  0
  149.6812  133.8303  154.2453 H   0  0  0  0  0  0  0  0  0  0  0  0
  149.7966  136.2992  153.6557 H   0  0  0  0  0  0  0  0  0  0  0  0
  152.7247  137.8616  154.9920 H   0  0  0  0  0  0  0  0  0  0  0  0
  151.9460  137.4626  153.4943 H   0  0  0  0  0  0  0  0  0  0  0  0
  149.4001  137.8955  153.5368 H   0  0  0  0  0  0  0  0  0  0  0  0
  147.7921  139.7824  153.6669 H   0  0  0  0  0  0  0  0  0  0  0  0
  148.4761  141.8421  154.9761 H   0  0  0  0  0  0  0  0  0  0  0  0
  150.6301  141.9332  156.0610 H   0  0  0  0  0  0  0  0  0  0  0  0
  145.5105  135.7614  154.0210 H   0  0  0  0  0  0  0  0  0  0  0  0
  145.3033  134.0663  154.3804 H   0  0  0  0  0  0  0  0  0  0  0  0
  147.6115  135.1902  152.9759 H   0  0  0  0  0  0  0  0  0  0  0  0
  1  2  1  0  0  0  0
  1 21  1  0  0  0  0
  1 22  1  0  0  0  0
  1 23  1  0  0  0  0
  2 20  1  0  0  0  0
  2  3  1  0  0  0  0
  2 24  1  0  0  0  0
  3  4  1  0  0  0  0
  3 25  1  0  0  0  0
  3 26  1  0  0  0  0
  4  5  1  0  0  0  0
  4 27  1  0  0  0  0
  4 28  1  0  0  0  0
  5  6  1  0  0  0  0
  5 29  1  0  0  0  0
  5 30  1  0  0  0  0
  6  7  1  0  0  0  0
  6 20  1  0  0  0  0
  6 44  1  0  0  0  0
  7  8  1  0  0  0  0
  7 31  1  0  0  0  0
  7 32  1  0  0  0  0
  8  9  1  0  0  0  0
  8 33  1  0  0  0  0
  8 34  1  0  0  0  0
  9 10  1  0  0  0  0
  9 35  1  0  0  0  0
 10 11  2  0  0  0  0
 10 12  1  0  0  0  0
 12 13  1  0  0  0  0
 12 36  1  0  0  0  0
 12 37  1  0  0  0  0
 13 18  1  0  0  0  0
 13 14  1  0  0  0  0
 14 15  2  0  0  0  0
 14 38  1  0  0  0  0
 15 16  1  0  0  0  0
 15 39  1  0  0  0  0
 16 17  2  0  0  0  0
 16 40  1  0  0  0  0
 17 18  1  0  0  0  0
 17 41  1  0  0  0  0
 18 19  2  0  0  0  0
 20 42  1  0  0  0  0
 20 43  1  0  0  0  0
M  CHG  1   6   1
M  END
> <s_m_source_file>
AV-unprocessed.smi

> <i_m_source_file_index>
1914

> <i_lp_mmshare_version>
43012

> <i_f3d_flags>
0

> <s_epik_input>
W0NIM11bQ0BASF0xW0NIMl1bQ0gyXVtDSDJdTihbQ0gyXTEpW0NIMl1bQ0gyXVtOSF1DKD1PKVtDSDJdbjJbY0hdW2NIXVtjSF1bY0hdYzI9Tw==

> <s_epik_cmdline>
J2VwaWtfcHl0aG9uJywgJy1waCcsICc3LjAnLCAnLXRuJywgJzgnLCAnLW1hJywgJzIwMCcsICctbWV0YWxfYmluZGluZycsICctaW1hZScsICc8aW5maWxlLm1hZT4nLCAnLW9tYWUnLCAnPG91dGZpbGUubWFlPic=

> <r_lp_tautomer_probability>
1

> <r_epik_Ionization_Penalty>
0.00192477

> <r_epik_Ionization_Penalty_Charging>
0.00192469

> <r_epik_Ionization_Penalty_Neutral>
8.16761e-08

> <r_epik_State_Penalty>
0.00131115

> <r_epik_Charging_Adjusted_Penalty>
0.00323584

> <i_epik_Tot_Q>
1

> <i_epik_Tot_abs_Q>
1

> <r_epik_Metal_State_Penalty>
-0

> <b_epik_Metal_Only>
0

> <s_lp_Force_Field>
OPLS_2005

> <r_lp_Energy>
26.9479

> <b_lp_Chiralities_Consistent>
1

> <s_lp_Variant>
AV-unprocessed.smi:1914-2

> <Gold.Version>
5.8.1

> <Gold.Id.Protein>
6NUR|6NUR_protein|mol2

> <Gold.PLP.Fitness>
51.3770

> <Gold.PLP.PLP>
-37.6058

> <Gold.PLP.part.hbond>
-4.8594

> <Gold.PLP.part.metal>
0.0000

> <Gold.PLP.part.buried>
2.4200

> <Gold.PLP.part.nonpolar>
-33.8801

> <Gold.PLP.part.repulsive>
0.0799

> <Gold.PLP.ligand.clash>
0.0000

> <Gold.PLP.ligand.torsion>
0.3999

> <Gold.PLP.Chemscore.Hbond>
3.8480

> <Gold.PLP.Chemscore.CHOScore>
1.0000

> <Gold.PLP.Chemscore.Metal>
0.0000

> <Gold.Chemscore.Hbonds>
donor molecule, donor type, donor heavy atom, donor atom, acceptor molecule, acceptor atom, score
      L1  H     6    44       P1  7948  2.00
      L1  H     9    35       P1  7948  1.00
      P1  H  7997  8010       L1    19  1.00
      L1  C    14    38       P1  7948  1.00

> <Gold.PLP.Chemscore.Internal.Correction>
0.0271

> <Gold.Rescore>
     Score         DG    S(hbond)    S(metal)    S(lipo)     H(rot)  DE(clash)    DE(int)     intcor
     16.68     -17.28       2.41        0.00      72.83       1.86       0.01       0.59       ----

> <Gold.Chemscore.Fitness>
16.6760

> <Gold.Chemscore.DG>
-17.2792

> <Gold.Chemscore.ZeroCoef>
-5.4800

> <Gold.Chemscore.Hbond>
2.4061

> <Gold.Chemscore.Metal>
0.0000

> <Gold.Chemscore.Lipo>
72.8279

> <Gold.Chemscore.Internal_Hbond>
0.0000

> <Gold.Chemscore.DEClash>
0.0098

> <Gold.Chemscore.DEInternal>
0.5934

> <Gold.Chemscore.Rot>
1.8586

> <Gold.Chemscore.Internal.Correction>
   9.000000E+99

> <Gold.Chemscore.Hbonds>
donor molecule, donor type, donor heavy atom, donor atom, acceptor molecule, acceptor atom, score
      L1  H     6    44       P1  7948  0.95
      L1  H     9    35       P1  7948  0.28
      P1  H  7997  8010       L1    19  0.98

> <Gold.Chemscore.Hbond.Weighted>
-8.0365

> <Gold.Chemscore.Metal.Weighted>
-0.0000

> <Gold.Chemscore.Lipo.Weighted>
-8.5209

> <Gold.Chemscore.Internal_Hbond.Weighted>
0.0000

> <Gold.Chemscore.DEClash.Weighted>
0.0098

> <Gold.Chemscore.DEInternal.Weighted>
0.5934

> <Gold.Chemscore.Rot.Weighted>
4.7581

> <Gold.Chemscore.Internal.Correction.Weighted>
   9.000000E+99

> <Gold.Protein.RotatedTorsions>
[ 6907 6896 6895 6894 ] final  -78.12 input  -60.11 | X-H torsion
[ 7974 7965 7964 7962 ] final  -56.22 input  175.53 | X-H torsion
[ 8008 7997 7996 7995 ] final   80.75 input   59.86 | X-H torsion
[ 10167 10162 10161 10158 ] final  170.65 input  -65.29 | X-H torsion
[ 10718 10713 10712 10709 ] final   69.51 input   66.30 | X-H torsion
[ 10763 10752 10751 10750 ] final -163.68 input  -60.55 | X-H torsion
[ 11005 11000 10999 10996 ] final  114.10 input  -57.11 | X-H torsion

> <Gold.Protein.ActiveResidues>
 VAL166  LYS551  ARG553  GLY616  TRP617  ASP618  TYR619  PRO620  LYS621  CYS622 
 ASP623  PHE694  ASN695  SER759  ASP760  ASP761  ALA762  ILE779  LEU786  VAL792 
 PHE793  MET794  SER795  GLU796  ALA797  LYS798  CYS799  TRP800  GLU811  SER814 

> <Gold.Protein.RotatedAtoms>
  150.6981  134.4320  159.5252 H   0  0  0  0  0  0  0  0  0  0  0  0  # atno 6907 bound_to 6896
  152.2045  134.8555  160.0513 H   0  0  0  0  0  0  0  0  0  0  0  0  # atno 6908 bound_to 6896
  151.9463  133.3617  159.4020 H   0  0  0  0  0  0  0  0  0  0  0  0  # atno 6909 bound_to 6896
  145.8652  140.8257  142.9916 H   0  0  0  0  0  0  0  0  0  0  0  0  # atno 7974 bound_to 7965
  155.8878  140.3440  155.5934 H   0  0  0  0  0  0  0  0  0  0  0  0  # atno 8008 bound_to 7997
  155.7646  140.0837  157.2157 H   0  0  0  0  0  0  0  0  0  0  0  0  # atno 8009 bound_to 7997
  154.4030  140.1529  156.2859 H   0  0  0  0  0  0  0  0  0  0  0  0  # atno 8010 bound_to 7997
  139.5024  144.3573  151.9861 H   0  0  0  0  0  0  0  0  0  0  0  0  # atno 10167 bound_to 10162
  157.6349  130.9429  150.0523 H   0  0  0  0  0  0  0  0  0  0  0  0  # atno 10718 bound_to 10713
  154.7100  135.3004  154.9212 H   0  0  0  0  0  0  0  0  0  0  0  0  # atno 10763 bound_to 10752
  154.0117  135.6694  153.4770 H   0  0  0  0  0  0  0  0  0  0  0  0  # atno 10764 bound_to 10752
  153.0747  135.5041  154.8292 H   0  0  0  0  0  0  0  0  0  0  0  0  # atno 10765 bound_to 10752
  139.8971  134.9562  156.6840 H   0  0  0  0  0  0  0  0  0  0  0  0  # atno 11005 bound_to 11000
  144.6726  140.1155  143.7453 LP  0  0  0  0  0  0  0  0  0  0  0  0  # atno 17320 bound_to 7965
  145.9202  139.2541  143.1386 LP  0  0  0  0  0  0  0  0  0  0  0  0  # atno 17321 bound_to 7965
  140.3009  144.3647  150.6060 LP  0  0  0  0  0  0  0  0  0  0  0  0  # atno 17342 bound_to 10162
  140.5874  143.2169  151.7317 LP  0  0  0  0  0  0  0  0  0  0  0  0  # atno 17343 bound_to 10162
  156.1581  130.3643  149.9339 LP  0  0  0  0  0  0  0  0  0  0  0  0  # atno 17370 bound_to 10713
  156.7343  130.9055  151.3628 LP  0  0  0  0  0  0  0  0  0  0  0  0  # atno 17371 bound_to 10713
  140.7277  133.9086  155.8190 LP  0  0  0  0  0  0  0  0  0  0  0  0  # atno 17394 bound_to 11000
  141.0178  134.0931  157.4153 LP  0  0  0  0  0  0  0  0  0  0  0  0  # atno 17395 bound_to 11000

$$$$
