AV-unprocessed.smi:1308|AV-procd|sdf|5440|dock9
  -GOLD-   22720 5 03D 1   1.00000     0.00000
 Structure written by MMmdl.
 45 45  0  0  0  0  0  0  0  0  1 V2000
  151.0922  143.3704  157.8480 C   0  0  0  0  0  0  0  0  0  0  0  0
  151.0537  142.1291  156.9836 C   0  0  0  0  0  0  0  0  0  0  0  0
  150.0425  142.1419  156.0371 N   0  0  0  0  0  0  0  0  0  0  0  0
  149.9224  141.0442  155.2033 C   0  0  0  0  0  0  0  0  0  0  0  0
  148.7902  141.1376  154.1957 C   0  0  0  0  0  0  0  0  0  0  0  0
  150.7698  139.9890  155.3053 C   0  0  0  0  0  0  0  0  0  0  0  0
  150.6778  138.7596  154.4019 C   0  0  0  0  0  0  0  0  0  0  0  0
  150.4242  137.4214  155.1011 C   0  0  0  0  0  0  0  0  0  0  0  0
  151.0095  137.1386  156.1468 O   0  0  0  0  0  0  0  0  0  0  0  0
  149.5328  136.6128  154.5073 N   0  0  0  0  0  0  0  0  0  0  0  0
  149.0881  135.3114  155.0045 C   0  0  2  0  0  0  0  0  0  0  0  0
  148.4286  135.4921  156.3786 C   0  0  0  0  0  0  0  0  0  0  0  0
  150.2721  134.3268  155.0654 C   0  0  0  0  0  0  0  0  0  0  0  0
  149.8446  132.8508  155.1863 C   0  0  0  0  0  0  0  0  0  0  0  0
  149.3955  132.2127  153.8559 C   0  0  0  0  0  0  0  0  0  0  0  0
  148.2672  133.0057  153.1749 C   0  0  0  0  0  0  0  0  0  0  0  0
  148.9679  130.7533  154.0735 C   0  0  0  0  0  0  0  0  0  0  0  0
  151.8401  140.0386  156.3290 C   0  0  0  0  0  0  0  0  0  0  0  0
  152.6514  139.1224  156.4560 O   0  0  0  0  0  0  0  0  0  0  0  0
  151.9125  141.1709  157.1568 N   0  0  0  0  0  0  0  0  0  0  0  0
  149.3922  142.9064  155.9263 H   0  0  0  0  0  0  0  0  0  0  0  0
  151.9474  143.3477  158.5245 H   0  0  0  0  0  0  0  0  0  0  0  0
  150.1845  143.4432  158.4479 H   0  0  0  0  0  0  0  0  0  0  0  0
  151.1722  144.2641  157.2283 H   0  0  0  0  0  0  0  0  0  0  0  0
  149.1760  141.0433  153.1805 H   0  0  0  0  0  0  0  0  0  0  0  0
  148.2656  142.0912  154.2672 H   0  0  0  0  0  0  0  0  0  0  0  0
  148.0633  140.3430  154.3646 H   0  0  0  0  0  0  0  0  0  0  0  0
  151.6062  138.6686  153.8383 H   0  0  0  0  0  0  0  0  0  0  0  0
  149.9070  138.9086  153.6446 H   0  0  0  0  0  0  0  0  0  0  0  0
  149.1089  136.9354  153.6494 H   0  0  0  0  0  0  0  0  0  0  0  0
  148.3362  134.8881  154.3359 H   0  0  0  0  0  0  0  0  0  0  0  0
  148.0642  134.5405  156.7666 H   0  0  0  0  0  0  0  0  0  0  0  0
  147.5766  136.1701  156.3196 H   0  0  0  0  0  0  0  0  0  0  0  0
  149.1306  135.9009  157.1062 H   0  0  0  0  0  0  0  0  0  0  0  0
  150.8940  134.4617  154.1800 H   0  0  0  0  0  0  0  0  0  0  0  0
  150.8998  134.5834  155.9196 H   0  0  0  0  0  0  0  0  0  0  0  0
  150.6876  132.2827  155.5819 H   0  0  0  0  0  0  0  0  0  0  0  0
  149.0451  132.7515  155.9214 H   0  0  0  0  0  0  0  0  0  0  0  0
  150.2512  132.2002  153.1798 H   0  0  0  0  0  0  0  0  0  0  0  0
  147.4005  133.1031  153.8292 H   0  0  0  0  0  0  0  0  0  0  0  0
  147.9384  132.5115  152.2602 H   0  0  0  0  0  0  0  0  0  0  0  0
  148.5910  134.0082  152.8966 H   0  0  0  0  0  0  0  0  0  0  0  0
  148.1148  130.6873  154.7498 H   0  0  0  0  0  0  0  0  0  0  0  0
  149.7789  130.1643  154.5031 H   0  0  0  0  0  0  0  0  0  0  0  0
  148.6845  130.2805  153.1327 H   0  0  0  0  0  0  0  0  0  0  0  0
  1 22  1  0  0  0  0
  1 23  1  0  0  0  0
  1 24  1  0  0  0  0
  1  2  1  0  0  0  0
  2  3  1  0  0  0  0
  2 20  2  0  0  0  0
  3  4  1  0  0  0  0
  3 21  1  0  0  0  0
  4  6  2  0  0  0  0
  4  5  1  0  0  0  0
  5 25  1  0  0  0  0
  5 26  1  0  0  0  0
  5 27  1  0  0  0  0
  6 18  1  0  0  0  0
  6  7  1  0  0  0  0
  7  8  1  0  0  0  0
  7 28  1  0  0  0  0
  7 29  1  0  0  0  0
  8  9  2  0  0  0  0
  8 10  1  0  0  0  0
 10 11  1  0  0  0  0
 10 30  1  0  0  0  0
 11 12  1  0  0  0  0
 11 13  1  0  0  0  0
 11 31  1  0  0  0  0
 12 32  1  0  0  0  0
 12 33  1  0  0  0  0
 12 34  1  0  0  0  0
 13 14  1  0  0  0  0
 13 35  1  0  0  0  0
 13 36  1  0  0  0  0
 14 15  1  0  0  0  0
 14 37  1  0  0  0  0
 14 38  1  0  0  0  0
 15 16  1  0  0  0  0
 15 17  1  0  0  0  0
 15 39  1  0  0  0  0
 16 40  1  0  0  0  0
 16 41  1  0  0  0  0
 16 42  1  0  0  0  0
 17 43  1  0  0  0  0
 17 44  1  0  0  0  0
 17 45  1  0  0  0  0
 18 19  2  0  0  0  0
 18 20  1  0  0  0  0
M  END
> <s_m_source_file>
AV-unprocessed.smi

> <i_m_source_file_index>
1308

> <i_lp_mmshare_version>
43012

> <i_f3d_flags>
0

> <s_epik_input>
W0NIM11jMW5jKFtDSDNdKWMoYyg9TylbbkhdMSlbQ0gyXUMoPU8pW05IXVtDQEhdKFtDSDNdKVtDSDJdW0NIMl1bQ0hdKFtDSDNdKVtDSDNd

> <s_epik_cmdline>
J2VwaWtfcHl0aG9uJywgJy1waCcsICc3LjAnLCAnLXRuJywgJzgnLCAnLW1hJywgJzIwMCcsICctbWV0YWxfYmluZGluZycsICctaW1hZScsICc8aW5maWxlLm1hZT4nLCAnLW9tYWUnLCAnPG91dGZpbGUubWFlPic=

> <r_lp_tautomer_probability>
0.156392

> <r_epik_Ionization_Penalty>
0.0141156

> <r_epik_Ionization_Penalty_Charging>
0.0139937

> <r_epik_Ionization_Penalty_Neutral>
0.00012188

> <r_epik_State_Penalty>
1.52994

> <r_epik_Charging_Adjusted_Penalty>
1.54393

> <i_epik_Tot_Q>
0

> <i_epik_Tot_abs_Q>
0

> <r_epik_Metal_State_Penalty>
1.70663

> <b_epik_Metal_Only>
0

> <s_lp_Force_Field>
OPLS_2005

> <r_lp_Energy>
10.8122

> <b_lp_Chiralities_Consistent>
1

> <s_lp_Variant>
AV-unprocessed.smi:1308-3

> <Gold.Version>
5.8.1

> <Gold.Id.Protein>
6NUR|6NUR_protein|mol2

> <Gold.PLP.Fitness>
43.8676

> <Gold.PLP.PLP>
-36.6351

> <Gold.PLP.part.hbond>
-3.0000

> <Gold.PLP.part.metal>
0.0000

> <Gold.PLP.part.buried>
-2.3953

> <Gold.PLP.part.nonpolar>
-30.2422

> <Gold.PLP.part.repulsive>
0.1503

> <Gold.PLP.ligand.clash>
0.0000

> <Gold.PLP.ligand.torsion>
0.4531

> <Gold.PLP.Chemscore.Hbond>
2.7040

> <Gold.PLP.Chemscore.CHOScore>
0.0000

> <Gold.PLP.Chemscore.Metal>
0.0000

> <Gold.Chemscore.Hbonds>
donor molecule, donor type, donor heavy atom, donor atom, acceptor molecule, acceptor atom, score
      L1  H     3    21       P1  8028  1.00
      L1  H    10    30       P1  7948  0.69
      P1  H  7997  8008       L1    19  1.00

> <Gold.PLP.Chemscore.Internal.Correction>
0.0268

> <Gold.Rescore>
     Score         DG    S(hbond)    S(metal)    S(lipo)     H(rot)  DE(clash)    DE(int)     intcor
     12.93     -17.35       2.45        0.00      74.86       1.98       1.48       2.93       ----

> <Gold.Chemscore.Fitness>
12.9336

> <Gold.Chemscore.DG>
-17.3499

> <Gold.Chemscore.ZeroCoef>
-5.4800

> <Gold.Chemscore.Hbond>
2.4519

> <Gold.Chemscore.Metal>
0.0000

> <Gold.Chemscore.Lipo>
74.8574

> <Gold.Chemscore.Internal_Hbond>
0.0000

> <Gold.Chemscore.DEClash>
1.4843

> <Gold.Chemscore.DEInternal>
2.9320

> <Gold.Chemscore.Rot>
1.9835

> <Gold.Chemscore.Internal.Correction>
   9.000000E+99

> <Gold.Chemscore.Hbonds>
donor molecule, donor type, donor heavy atom, donor atom, acceptor molecule, acceptor atom, score
      L1  H     3    21       P1  8028  0.98
      L1  H    10    30       P1  7948  0.68
      P1  H  7997  8008       L1    19  0.25

> <Gold.Chemscore.Hbond.Weighted>
-8.1893

> <Gold.Chemscore.Metal.Weighted>
-0.0000

> <Gold.Chemscore.Lipo.Weighted>
-8.7583

> <Gold.Chemscore.Internal_Hbond.Weighted>
0.0000

> <Gold.Chemscore.DEClash.Weighted>
1.4843

> <Gold.Chemscore.DEInternal.Weighted>
2.9320

> <Gold.Chemscore.Rot.Weighted>
5.0778

> <Gold.Chemscore.Internal.Correction.Weighted>
   9.000000E+99

> <Gold.Protein.RotatedTorsions>
[ 6907 6896 6895 6894 ] final  -59.54 input  -60.11 | X-H torsion
[ 7974 7965 7964 7962 ] final -168.61 input  175.53 | X-H torsion
[ 8008 7997 7996 7995 ] final  -36.74 input   59.86 | X-H torsion
[ 10167 10162 10161 10158 ] final -165.88 input  -65.29 | X-H torsion
[ 10718 10713 10712 10709 ] final  174.62 input   66.30 | X-H torsion
[ 10763 10752 10751 10750 ] final   66.23 input  -60.55 | X-H torsion
[ 11005 11000 10999 10996 ] final  129.26 input  -57.11 | X-H torsion

> <Gold.Protein.ActiveResidues>
 VAL166  LYS551  ARG553  GLY616  TRP617  ASP618  TYR619  PRO620  LYS621  CYS622 
 ASP623  PHE694  ASN695  SER759  ASP760  ASP761  ALA762  ILE779  LEU786  VAL792 
 PHE793  MET794  SER795  GLU796  ALA797  LYS798  CYS799  TRP800  GLU811  SER814 

> <Gold.Protein.RotatedAtoms>
  150.7923  134.6955  159.6520 H   0  0  0  0  0  0  0  0  0  0  0  0  # atno 6907 bound_to 6896
  152.4030  134.6251  160.0071 H   0  0  0  0  0  0  0  0  0  0  0  0  # atno 6908 bound_to 6896
  151.6517  133.3284  159.3189 H   0  0  0  0  0  0  0  0  0  0  0  0  # atno 6909 bound_to 6896
  144.7200  140.2345  143.6300 H   0  0  0  0  0  0  0  0  0  0  0  0  # atno 7974 bound_to 7965
  154.4067  140.1622  156.2423 H   0  0  0  0  0  0  0  0  0  0  0  0  # atno 8008 bound_to 7997
  155.9190  140.3422  155.6135 H   0  0  0  0  0  0  0  0  0  0  0  0  # atno 8009 bound_to 7997
  155.7244  140.0772  157.2307 H   0  0  0  0  0  0  0  0  0  0  0  0  # atno 8010 bound_to 7997
  139.6152  144.0735  152.1881 H   0  0  0  0  0  0  0  0  0  0  0  0  # atno 10167 bound_to 10162
  156.9469  131.0019  151.2957 H   0  0  0  0  0  0  0  0  0  0  0  0  # atno 10718 bound_to 10713
  153.0130  135.5328  154.6791 H   0  0  0  0  0  0  0  0  0  0  0  0  # atno 10763 bound_to 10752
  154.5955  135.2863  155.0593 H   0  0  0  0  0  0  0  0  0  0  0  0  # atno 10764 bound_to 10752
  154.1669  135.6538  153.5052 H   0  0  0  0  0  0  0  0  0  0  0  0  # atno 10765 bound_to 10752
  139.9606  134.9603  156.9123 H   0  0  0  0  0  0  0  0  0  0  0  0  # atno 11005 bound_to 11000
  145.8379  139.2116  143.1845 LP  0  0  0  0  0  0  0  0  0  0  0  0  # atno 17320 bound_to 7965
  146.0373  140.8200  142.9846 LP  0  0  0  0  0  0  0  0  0  0  0  0  # atno 17321 bound_to 7965
  140.0363  144.6042  150.7447 LP  0  0  0  0  0  0  0  0  0  0  0  0  # atno 17342 bound_to 10162
  140.7346  143.2731  151.3827 LP  0  0  0  0  0  0  0  0  0  0  0  0  # atno 17343 bound_to 10162
  157.5748  130.8335  149.8441 LP  0  0  0  0  0  0  0  0  0  0  0  0  # atno 17370 bound_to 10713
  156.0380  130.3746  150.1510 LP  0  0  0  0  0  0  0  0  0  0  0  0  # atno 17371 bound_to 10713
  140.5509  134.0628  155.7369 LP  0  0  0  0  0  0  0  0  0  0  0  0  # atno 17394 bound_to 11000
  141.1282  133.9346  157.2590 LP  0  0  0  0  0  0  0  0  0  0  0  0  # atno 17395 bound_to 11000

$$$$
