AV-unprocessed.smi:1543|AV-procd|sdf|6209|dock2
  -GOLD-   22720 6383D 1   1.00000     0.00000
 Structure written by MMmdl.
 49 50  0  0  0  0  0  0  0  0  2 V2000
  148.7936  141.4585  154.5364 C   0  0  0  0  0  0  0  0  0  0  0  0
  149.4318  140.1097  154.8859 C   0  0  1  0  0  0  0  0  0  0  0  0
  148.9445  138.9825  153.9591 C   0  0  0  0  0  0  0  0  0  0  0  0
  149.6030  137.6808  154.2691 N   0  3  2  0  0  0  0  0  0  0  0  0
  148.9950  136.7580  155.3045 C   0  0  0  0  0  0  0  0  0  0  0  0
  149.9645  135.5645  155.4804 C   0  0  0  0  0  0  0  0  0  0  0  0
  148.8213  137.4446  156.6825 C   0  0  0  0  0  0  0  0  0  0  0  0
  147.6182  136.1928  154.8316 C   0  0  0  0  0  0  0  0  0  0  0  0
  147.7126  135.0677  153.8995 N   0  0  0  0  0  0  0  0  0  0  0  0
  146.7090  134.5800  153.1551 C   0  0  0  0  0  0  0  0  0  0  0  0
  145.5614  135.0236  153.1899 O   0  0  0  0  0  0  0  0  0  0  0  0
  147.1300  133.5686  152.3767 N   0  0  0  0  0  0  0  0  0  0  0  0
  146.3804  132.7863  151.4568 C   0  0  0  0  0  0  0  0  0  0  0  0
  146.9171  132.1915  150.2891 C   0  0  0  0  0  0  0  0  0  0  0  0
  146.0624  131.4533  149.4480 C   0  0  0  0  0  0  0  0  0  0  0  0
  144.7032  131.3423  149.7995 C   0  0  0  0  0  0  0  0  0  0  0  0
  144.1754  131.9141  150.9019 N   0  0  0  0  0  0  0  0  0  0  0  0
  145.0007  132.6206  151.7033 C   0  0  0  0  0  0  0  0  0  0  0  0
  151.0849  137.8503  154.2833 C   0  0  0  0  0  0  0  0  0  0  0  0
  151.5457  139.0682  155.1230 C   0  0  1  0  0  0  0  0  0  0  0  0
  153.0441  139.3421  154.9532 C   0  0  0  0  0  0  0  0  0  0  0  0
  150.8387  140.2350  154.7214 O   0  0  0  0  0  0  0  0  0  0  0  0
  147.7097  141.4202  154.6480 H   0  0  0  0  0  0  0  0  0  0  0  0
  149.0146  141.7471  153.5084 H   0  0  0  0  0  0  0  0  0  0  0  0
  149.1662  142.2469  155.1907 H   0  0  0  0  0  0  0  0  0  0  0  0
  149.1960  139.8809  155.9251 H   0  0  0  0  0  0  0  0  0  0  0  0
  147.8589  138.9332  153.9217 H   0  0  0  0  0  0  0  0  0  0  0  0
  149.2299  139.2407  152.9382 H   0  0  0  0  0  0  0  0  0  0  0  0
  149.6055  134.8508  156.2224 H   0  0  0  0  0  0  0  0  0  0  0  0
  150.9531  135.8778  155.8137 H   0  0  0  0  0  0  0  0  0  0  0  0
  150.0952  135.0217  154.5435 H   0  0  0  0  0  0  0  0  0  0  0  0
  148.4365  136.7510  157.4295 H   0  0  0  0  0  0  0  0  0  0  0  0
  148.1206  138.2768  156.6375 H   0  0  0  0  0  0  0  0  0  0  0  0
  149.7631  137.8096  157.0903 H   0  0  0  0  0  0  0  0  0  0  0  0
  147.0168  135.8822  155.6870 H   0  0  0  0  0  0  0  0  0  0  0  0
  147.0514  136.9743  154.3238 H   0  0  0  0  0  0  0  0  0  0  0  0
  148.6213  134.6380  153.8021 H   0  0  0  0  0  0  0  0  0  0  0  0
  148.1194  133.3692  152.4036 H   0  0  0  0  0  0  0  0  0  0  0  0
  147.9548  132.2954  150.0143 H   0  0  0  0  0  0  0  0  0  0  0  0
  146.4402  130.9863  148.5507 H   0  0  0  0  0  0  0  0  0  0  0  0
  144.0208  130.7840  149.1757 H   0  0  0  0  0  0  0  0  0  0  0  0
  144.5429  133.0655  152.5748 H   0  0  0  0  0  0  0  0  0  0  0  0
  151.5962  136.9441  154.6047 H   0  0  0  0  0  0  0  0  0  0  0  0
  151.3938  138.0072  153.2489 H   0  0  0  0  0  0  0  0  0  0  0  0
  151.3609  138.9060  156.1835 H   0  0  0  0  0  0  0  0  0  0  0  0
  153.6377  138.4837  155.2683 H   0  0  0  0  0  0  0  0  0  0  0  0
  153.3543  140.1977  155.5531 H   0  0  0  0  0  0  0  0  0  0  0  0
  153.2925  139.5577  153.9136 H   0  0  0  0  0  0  0  0  0  0  0  0
  149.4344  137.1539  153.4240 H   0  0  0  0  0  0  0  0  0  0  0  0
  1  2  1  0  0  0  0
  1 23  1  0  0  0  0
  1 24  1  0  0  0  0
  1 25  1  0  0  0  0
  2 22  1  0  0  0  0
  2  3  1  0  0  0  0
  2 26  1  0  0  0  0
  3  4  1  0  0  0  0
  3 27  1  0  0  0  0
  3 28  1  0  0  0  0
  4  5  1  0  0  0  0
  4 19  1  0  0  0  0
  4 49  1  0  0  0  0
  5  6  1  0  0  0  0
  5  7  1  0  0  0  0
  5  8  1  0  0  0  0
  6 29  1  0  0  0  0
  6 30  1  0  0  0  0
  6 31  1  0  0  0  0
  7 32  1  0  0  0  0
  7 33  1  0  0  0  0
  7 34  1  0  0  0  0
  8  9  1  0  0  0  0
  8 35  1  0  0  0  0
  8 36  1  0  0  0  0
  9 10  1  0  0  0  0
  9 37  1  0  0  0  0
 10 11  2  0  0  0  0
 10 12  1  0  0  0  0
 12 13  1  0  0  0  0
 12 38  1  0  0  0  0
 13 18  1  0  0  0  0
 13 14  2  0  0  0  0
 14 15  1  0  0  0  0
 14 39  1  0  0  0  0
 15 16  2  0  0  0  0
 15 40  1  0  0  0  0
 16 17  1  0  0  0  0
 16 41  1  0  0  0  0
 17 18  2  0  0  0  0
 18 42  1  0  0  0  0
 19 20  1  0  0  0  0
 19 43  1  0  0  0  0
 19 44  1  0  0  0  0
 20 21  1  0  0  0  0
 20 22  1  0  0  0  0
 20 45  1  0  0  0  0
 21 46  1  0  0  0  0
 21 47  1  0  0  0  0
 21 48  1  0  0  0  0
M  CHG  1   4   1
M  END
> <s_m_source_file>
AV-unprocessed.smi

> <i_m_source_file_index>
1543

> <i_lp_mmshare_version>
43012

> <i_f3d_flags>
0

> <s_epik_input>
W0NIM11bQ0BASF0xW0NIMl1OKFtDSDJdW0NASF0oTzEpW0NIM10pQyhbQ0gzXSkoW0NIM10pW0NIMl1bTkhdQyg9TylbTkhdYzJbY0hdW2NIXVtjSF1uW2NIXTI=

> <s_epik_cmdline>
J2VwaWtfcHl0aG9uJywgJy1waCcsICc3LjAnLCAnLXRuJywgJzgnLCAnLW1hJywgJzIwMCcsICctbWV0YWxfYmluZGluZycsICctaW1hZScsICc8aW5maWxlLm1hZT4nLCAnLW9tYWUnLCAnPG91dGZpbGUubWFlPic=

> <r_epik_Ionization_Penalty>
0.60676

> <r_epik_Ionization_Penalty_Charging>
0.602531

> <r_epik_Ionization_Penalty_Neutral>
0.00422967

> <r_epik_State_Penalty>
0.607492

> <r_epik_Charging_Adjusted_Penalty>
1.21002

> <i_epik_Tot_Q>
1

> <i_epik_Tot_abs_Q>
1

> <r_epik_Metal_State_Penalty>
0.604589

> <b_epik_Metal_Only>
0

> <s_lp_Force_Field>
OPLS_2005

> <r_lp_Energy>
33.1144

> <b_lp_Chiralities_Consistent>
1

> <s_lp_Variant>
AV-unprocessed.smi:1543-5

> <Gold.Version>
5.8.1

> <Gold.Id.Protein>
6NUR|6NUR_protein|mol2

> <Gold.PLP.Fitness>
47.2919

> <Gold.PLP.PLP>
-37.0156

> <Gold.PLP.part.hbond>
-3.1440

> <Gold.PLP.part.metal>
0.0000

> <Gold.PLP.part.buried>
-2.6167

> <Gold.PLP.part.nonpolar>
-32.7041

> <Gold.PLP.part.repulsive>
0.3813

> <Gold.PLP.ligand.clash>
0.0000

> <Gold.PLP.ligand.torsion>
0.9836

> <Gold.PLP.Chemscore.Hbond>
3.0000

> <Gold.PLP.Chemscore.CHOScore>
0.9916

> <Gold.PLP.Chemscore.Metal>
0.0000

> <Gold.Chemscore.Hbonds>
donor molecule, donor type, donor heavy atom, donor atom, acceptor molecule, acceptor atom, score
      L1  H     4    49       P1  7948  2.00
      P1  H  7989  7998       L1    22  1.00

> <Gold.PLP.Chemscore.Internal.Correction>
0.2687

> <Gold.Rescore>
     Score         DG    S(hbond)    S(metal)    S(lipo)     H(rot)  DE(clash)    DE(int)     intcor
     15.55     -18.92       1.81        0.00      95.13       1.46       1.20       2.18       ----

> <Gold.Chemscore.Fitness>
15.5482

> <Gold.Chemscore.DG>
-18.9243

> <Gold.Chemscore.ZeroCoef>
-5.4800

> <Gold.Chemscore.Hbond>
1.8143

> <Gold.Chemscore.Metal>
0.0000

> <Gold.Chemscore.Lipo>
95.1303

> <Gold.Chemscore.Internal_Hbond>
0.0000

> <Gold.Chemscore.DEClash>
1.1979

> <Gold.Chemscore.DEInternal>
2.1782

> <Gold.Chemscore.Rot>
1.4632

> <Gold.Chemscore.Internal.Correction>
   9.000000E+99

> <Gold.Chemscore.Hbonds>
donor molecule, donor type, donor heavy atom, donor atom, acceptor molecule, acceptor atom, score
      L1  H     4    49       P1  7948  0.93
      P1  H  7989  7998       L1    22  0.59

> <Gold.Chemscore.Hbond.Weighted>
-6.0599

> <Gold.Chemscore.Metal.Weighted>
-0.0000

> <Gold.Chemscore.Lipo.Weighted>
-11.1302

> <Gold.Chemscore.Internal_Hbond.Weighted>
0.0000

> <Gold.Chemscore.DEClash.Weighted>
1.1979

> <Gold.Chemscore.DEInternal.Weighted>
2.1782

> <Gold.Chemscore.Rot.Weighted>
3.7459

> <Gold.Chemscore.Internal.Correction.Weighted>
   9.000000E+99

> <Gold.Protein.RotatedTorsions>
[ 6907 6896 6895 6894 ] final  -22.97 input  -60.11 | X-H torsion
[ 7974 7965 7964 7962 ] final   -2.74 input  175.53 | X-H torsion
[ 8008 7997 7996 7995 ] final -133.06 input   59.86 | X-H torsion
[ 10167 10162 10161 10158 ] final   65.82 input  -65.29 | X-H torsion
[ 10718 10713 10712 10709 ] final   -6.03 input   66.30 | X-H torsion
[ 10763 10752 10751 10750 ] final  -36.58 input  -60.55 | X-H torsion
[ 11005 11000 10999 10996 ] final  161.46 input  -57.11 | X-H torsion

> <Gold.Protein.ActiveResidues>
 VAL166  LYS551  ARG553  GLY616  TRP617  ASP618  TYR619  PRO620  LYS621  CYS622 
 ASP623  PHE694  ASN695  SER759  ASP760  ASP761  ALA762  ILE779  LEU786  VAL792 
 PHE793  MET794  SER795  GLU796  ALA797  LYS798  CYS799  TRP800  GLU811  SER814 

> <Gold.Protein.RotatedAtoms>
  151.2108  135.0480  159.8910 H   0  0  0  0  0  0  0  0  0  0  0  0  # atno 6907 bound_to 6896
  152.5425  134.0747  159.8219 H   0  0  0  0  0  0  0  0  0  0  0  0  # atno 6908 bound_to 6896
  151.0900  133.5276  159.2647 H   0  0  0  0  0  0  0  0  0  0  0  0  # atno 6909 bound_to 6896
  146.2400  140.1616  142.8332 H   0  0  0  0  0  0  0  0  0  0  0  0  # atno 7974 bound_to 7965
  155.3393  140.0471  157.3044 H   0  0  0  0  0  0  0  0  0  0  0  0  # atno 8008 bound_to 7997
  154.5286  140.2249  155.8810 H   0  0  0  0  0  0  0  0  0  0  0  0  # atno 8009 bound_to 7997
  156.1765  140.3084  155.9075 H   0  0  0  0  0  0  0  0  0  0  0  0  # atno 8010 bound_to 7997
  140.1071  144.4852  150.7001 H   0  0  0  0  0  0  0  0  0  0  0  0  # atno 10167 bound_to 10162
  156.7378  130.5200  149.5831 H   0  0  0  0  0  0  0  0  0  0  0  0  # atno 10718 bound_to 10713
  153.8820  135.6820  153.4766 H   0  0  0  0  0  0  0  0  0  0  0  0  # atno 10763 bound_to 10752
  153.1228  135.4732  154.9221 H   0  0  0  0  0  0  0  0  0  0  0  0  # atno 10764 bound_to 10752
  154.7664  135.3225  154.8230 H   0  0  0  0  0  0  0  0  0  0  0  0  # atno 10765 bound_to 10752
  140.2160  134.8231  157.3171 H   0  0  0  0  0  0  0  0  0  0  0  0  # atno 11005 bound_to 11000
  145.0085  140.8693  143.5238 LP  0  0  0  0  0  0  0  0  0  0  0  0  # atno 17320 bound_to 7965
  145.1645  139.2439  143.5374 LP  0  0  0  0  0  0  0  0  0  0  0  0  # atno 17321 bound_to 7965
  140.6946  143.2396  151.5036 LP  0  0  0  0  0  0  0  0  0  0  0  0  # atno 17342 bound_to 10162
  139.5639  144.2089  152.1735 LP  0  0  0  0  0  0  0  0  0  0  0  0  # atno 17343 bound_to 10162
  156.1485  130.6293  151.0563 LP  0  0  0  0  0  0  0  0  0  0  0  0  # atno 17370 bound_to 10713
  157.6831  131.0832  150.7316 LP  0  0  0  0  0  0  0  0  0  0  0  0  # atno 17371 bound_to 10713
  140.1900  134.4384  155.7721 LP  0  0  0  0  0  0  0  0  0  0  0  0  # atno 17394 bound_to 11000
  141.2225  133.7022  156.8010 LP  0  0  0  0  0  0  0  0  0  0  0  0  # atno 17395 bound_to 11000

$$$$
