AV-unprocessed.smi:1703|AV-procd|sdf|6862|dock7
  -GOLD-   22720 8 53D 1   1.00000     0.00000
 Structure written by MMmdl.
 49 51  0  0  0  0  0  0  0  0  2 V2000
  144.5757  134.5756  155.3577 C   0  0  0  0  0  0  0  0  0  0  0  0
  144.7626  135.1784  153.9610 C   0  0  1  0  0  0  0  0  0  0  0  0
  146.2137  135.6521  153.7262 C   0  0  0  0  0  0  0  0  0  0  0  0
  146.4244  136.1115  152.3292 N   0  3  2  0  0  0  0  0  0  0  0  0
  145.9097  137.4762  152.0354 C   0  0  0  0  0  0  0  0  0  0  0  0
  146.8934  138.5823  152.4639 C   0  0  1  0  0  0  0  0  0  0  0  0
  146.3708  139.8353  152.0651 O   0  0  0  0  0  0  0  0  0  0  0  0
  147.1216  138.5754  153.9886 C   0  0  0  0  0  0  0  0  0  0  0  0
  148.4665  138.9904  154.3650 N   0  0  0  0  0  0  0  0  0  0  0  0
  149.0118  140.2316  154.2990 C   0  0  0  0  0  0  0  0  0  0  0  0
  148.2489  141.4174  153.7922 C   0  0  0  0  0  0  0  0  0  0  0  0
  147.8416  142.2881  154.8259 O   0  0  0  0  0  0  0  0  0  0  0  0
  150.2763  140.3322  154.7094 N   0  0  0  0  0  0  0  0  0  0  0  0
  150.5836  139.0351  155.0704 C   0  0  0  0  0  0  0  0  0  0  0  0
  151.7794  138.4833  155.5832 C   0  0  0  0  0  0  0  0  0  0  0  0
  151.8600  137.1075  155.8823 C   0  0  0  0  0  0  0  0  0  0  0  0
  150.7486  136.2655  155.6739 C   0  0  0  0  0  0  0  0  0  0  0  0
  149.5477  136.7946  155.1635 C   0  0  0  0  0  0  0  0  0  0  0  0
  149.4723  138.1688  154.8661 C   0  0  0  0  0  0  0  0  0  0  0  0
  145.9615  135.0808  151.3687 C   0  0  0  0  0  0  0  0  0  0  0  0
  144.5084  134.6563  151.6608 C   0  0  1  0  0  0  0  0  0  0  0  0
  144.0374  133.5355  150.7280 C   0  0  0  0  0  0  0  0  0  0  0  0
  144.4307  134.1812  153.0005 O   0  0  0  0  0  0  0  0  0  0  0  0
  144.8078  135.3051  156.1342 H   0  0  0  0  0  0  0  0  0  0  0  0
  145.2236  133.7112  155.5058 H   0  0  0  0  0  0  0  0  0  0  0  0
  143.5463  134.2492  155.5071 H   0  0  0  0  0  0  0  0  0  0  0  0
  144.0702  136.0148  153.8595 H   0  0  0  0  0  0  0  0  0  0  0  0
  146.4831  136.4297  154.4400 H   0  0  0  0  0  0  0  0  0  0  0  0
  146.8977  134.8225  153.9107 H   0  0  0  0  0  0  0  0  0  0  0  0
  145.7249  137.5780  150.9648 H   0  0  0  0  0  0  0  0  0  0  0  0
  144.9439  137.6218  152.5189 H   0  0  0  0  0  0  0  0  0  0  0  0
  147.8524  138.4482  151.9657 H   0  0  0  0  0  0  0  0  0  0  0  0
  145.4295  139.7694  152.0115 H   0  0  0  0  0  0  0  0  0  0  0  0
  146.4065  139.2362  154.4803 H   0  0  0  0  0  0  0  0  0  0  0  0
  146.9338  137.5811  154.3936 H   0  0  0  0  0  0  0  0  0  0  0  0
  148.8527  141.9676  153.0714 H   0  0  0  0  0  0  0  0  0  0  0  0
  147.3615  141.0734  153.2596 H   0  0  0  0  0  0  0  0  0  0  0  0
  148.4633  142.9972  154.8836 H   0  0  0  0  0  0  0  0  0  0  0  0
  152.6365  139.1199  155.7466 H   0  0  0  0  0  0  0  0  0  0  0  0
  152.7791  136.6965  156.2736 H   0  0  0  0  0  0  0  0  0  0  0  0
  150.8188  135.2129  155.9059 H   0  0  0  0  0  0  0  0  0  0  0  0
  148.6960  136.1507  155.0042 H   0  0  0  0  0  0  0  0  0  0  0  0
  146.0665  135.4384  150.3437 H   0  0  0  0  0  0  0  0  0  0  0  0
  146.6184  134.2142  151.4570 H   0  0  0  0  0  0  0  0  0  0  0  0
  143.8370  135.5082  151.5401 H   0  0  0  0  0  0  0  0  0  0  0  0
  144.0712  133.8523  149.6853 H   0  0  0  0  0  0  0  0  0  0  0  0
  143.0108  133.2464  150.9537 H   0  0  0  0  0  0  0  0  0  0  0  0
  144.6630  132.6480  150.8285 H   0  0  0  0  0  0  0  0  0  0  0  0
  147.4238  136.1807  152.1959 H   0  0  0  0  0  0  0  0  0  0  0  0
  1  2  1  0  0  0  0
  1 24  1  0  0  0  0
  1 25  1  0  0  0  0
  1 26  1  0  0  0  0
  2 23  1  0  0  0  0
  2  3  1  0  0  0  0
  2 27  1  0  0  0  0
  3  4  1  0  0  0  0
  3 28  1  0  0  0  0
  3 29  1  0  0  0  0
  4  5  1  0  0  0  0
  4 20  1  0  0  0  0
  4 49  1  0  0  0  0
  5  6  1  0  0  0  0
  5 30  1  0  0  0  0
  5 31  1  0  0  0  0
  6  7  1  0  0  0  0
  6  8  1  0  0  0  0
  6 32  1  0  0  0  0
  7 33  1  0  0  0  0
  8  9  1  0  0  0  0
  8 34  1  0  0  0  0
  8 35  1  0  0  0  0
  9 19  1  0  0  0  0
  9 10  1  0  0  0  0
 10 11  1  0  0  0  0
 10 13  2  0  0  0  0
 11 12  1  0  0  0  0
 11 36  1  0  0  0  0
 11 37  1  0  0  0  0
 12 38  1  0  0  0  0
 13 14  1  0  0  0  0
 14 19  2  0  0  0  0
 14 15  1  0  0  0  0
 15 16  2  0  0  0  0
 15 39  1  0  0  0  0
 16 17  1  0  0  0  0
 16 40  1  0  0  0  0
 17 18  2  0  0  0  0
 17 41  1  0  0  0  0
 18 19  1  0  0  0  0
 18 42  1  0  0  0  0
 20 21  1  0  0  0  0
 20 43  1  0  0  0  0
 20 44  1  0  0  0  0
 21 22  1  0  0  0  0
 21 23  1  0  0  0  0
 21 45  1  0  0  0  0
 22 46  1  0  0  0  0
 22 47  1  0  0  0  0
 22 48  1  0  0  0  0
M  CHG  1   4   1
M  END
> <s_m_source_file>
AV-unprocessed.smi

> <i_m_source_file_index>
1703

> <i_lp_mmshare_version>
43012

> <i_f3d_flags>
0

> <s_epik_input>
W0NIM11bQ0BASF0xW0NIMl1OKFtDSDJdW0NASF0oTzEpW0NIM10pW0NIMl1bQ0BIXShbT0hdKVtDSDJdbihjKG4yKVtDSDJdW09IXSljKGMyMylbY0hdW2NIXVtjSF1bY0hdMw==

> <s_epik_cmdline>
J2VwaWtfcHl0aG9uJywgJy1waCcsICc3LjAnLCAnLXRuJywgJzgnLCAnLW1hJywgJzIwMCcsICctbWV0YWxfYmluZGluZycsICctaW1hZScsICc8aW5maWxlLm1hZT4nLCAnLW9tYWUnLCAnPG91dGZpbGUubWFlPic=

> <r_epik_Ionization_Penalty>
0.655661

> <r_epik_Ionization_Penalty_Charging>
0.608065

> <r_epik_Ionization_Penalty_Neutral>
0.0475963

> <r_epik_State_Penalty>
0.695267

> <r_epik_Charging_Adjusted_Penalty>
1.30333

> <i_epik_Tot_Q>
1

> <i_epik_Tot_abs_Q>
1

> <r_epik_Metal_State_Penalty>
0.653591

> <b_epik_Metal_Only>
0

> <s_lp_Force_Field>
OPLS_2005

> <r_lp_Energy>
23.9002

> <b_lp_Chiralities_Consistent>
1

> <s_lp_Variant>
AV-unprocessed.smi:1703-10

> <Gold.Version>
5.8.1

> <Gold.Id.Protein>
6NUR|6NUR_protein|mol2

> <Gold.PLP.Fitness>
46.9946

> <Gold.PLP.PLP>
-34.1320

> <Gold.PLP.part.hbond>
-4.0000

> <Gold.PLP.part.metal>
0.0000

> <Gold.PLP.part.buried>
-3.6067

> <Gold.PLP.part.nonpolar>
-28.4234

> <Gold.PLP.part.repulsive>
0.2105

> <Gold.PLP.ligand.clash>
0.0000

> <Gold.PLP.ligand.torsion>
1.0432

> <Gold.PLP.Chemscore.Hbond>
4.9520

> <Gold.PLP.Chemscore.CHOScore>
0.0000

> <Gold.PLP.Chemscore.Metal>
0.0000

> <Gold.Chemscore.Hbonds>
donor molecule, donor type, donor heavy atom, donor atom, acceptor molecule, acceptor atom, score
      L1  H     4    49       P1  7948  2.00
      L1  H     7    33       P1 10175  0.99
      L1  H    12    38       P1  8028  0.93
      P1  H  7989  7998       L1    13  1.00

> <Gold.PLP.Chemscore.Internal.Correction>
0.0930

> <Gold.Rescore>
     Score         DG    S(hbond)    S(metal)    S(lipo)     H(rot)  DE(clash)    DE(int)     intcor
     17.36     -18.78       3.56        0.00      76.91       2.96       0.17       1.25       ----

> <Gold.Chemscore.Fitness>
17.3646

> <Gold.Chemscore.DG>
-18.7830

> <Gold.Chemscore.ZeroCoef>
-5.4800

> <Gold.Chemscore.Hbond>
3.5583

> <Gold.Chemscore.Metal>
0.0000

> <Gold.Chemscore.Lipo>
76.9129

> <Gold.Chemscore.Internal_Hbond>
0.0000

> <Gold.Chemscore.DEClash>
0.1657

> <Gold.Chemscore.DEInternal>
1.2528

> <Gold.Chemscore.Rot>
2.9611

> <Gold.Chemscore.Internal.Correction>
   9.000000E+99

> <Gold.Chemscore.Hbonds>
donor molecule, donor type, donor heavy atom, donor atom, acceptor molecule, acceptor atom, score
      L1  H     4    49       P1  7948  0.95
      L1  H     7    33       P1 10175  0.77
      L1  H    12    38       P1  8028  0.89
      P1  H  7989  7998       L1    13  0.57

> <Gold.Chemscore.Hbond.Weighted>
-11.8846

> <Gold.Chemscore.Metal.Weighted>
-0.0000

> <Gold.Chemscore.Lipo.Weighted>
-8.9988

> <Gold.Chemscore.Internal_Hbond.Weighted>
0.0000

> <Gold.Chemscore.DEClash.Weighted>
0.1657

> <Gold.Chemscore.DEInternal.Weighted>
1.2528

> <Gold.Chemscore.Rot.Weighted>
7.5803

> <Gold.Chemscore.Internal.Correction.Weighted>
   9.000000E+99

> <Gold.Protein.RotatedTorsions>
[ 6907 6896 6895 6894 ] final  169.00 input  -60.11 | X-H torsion
[ 7974 7965 7964 7962 ] final   24.42 input  175.53 | X-H torsion
[ 8008 7997 7996 7995 ] final -155.61 input   59.86 | X-H torsion
[ 10167 10162 10161 10158 ] final -128.77 input  -65.29 | X-H torsion
[ 10718 10713 10712 10709 ] final   80.57 input   66.30 | X-H torsion
[ 10763 10752 10751 10750 ] final  132.92 input  -60.55 | X-H torsion
[ 11005 11000 10999 10996 ] final  -98.57 input  -57.11 | X-H torsion

> <Gold.Protein.ActiveResidues>
 VAL166  LYS551  ARG553  GLY616  TRP617  ASP618  TYR619  PRO620  LYS621  CYS622 
 ASP623  PHE694  ASN695  SER759  ASP760  ASP761  ALA762  ILE779  LEU786  VAL792 
 PHE793  MET794  SER795  GLU796  ALA797  LYS798  CYS799  TRP800  GLU811  SER814 

> <Gold.Protein.RotatedAtoms>
  151.8388  133.3420  159.3636 H   0  0  0  0  0  0  0  0  0  0  0  0  # atno 6907 bound_to 6896
  150.7241  134.5411  159.5757 H   0  0  0  0  0  0  0  0  0  0  0  0  # atno 6908 bound_to 6896
  152.2880  134.7754  160.0434 H   0  0  0  0  0  0  0  0  0  0  0  0  # atno 6909 bound_to 6896
  146.1938  139.7607  142.8812 H   0  0  0  0  0  0  0  0  0  0  0  0  # atno 7974 bound_to 7965
  155.7044  140.0770  157.2397 H   0  0  0  0  0  0  0  0  0  0  0  0  # atno 8008 bound_to 7997
  154.4068  140.1641  156.2280 H   0  0  0  0  0  0  0  0  0  0  0  0  # atno 8009 bound_to 7997
  155.9339  140.3389  155.6274 H   0  0  0  0  0  0  0  0  0  0  0  0  # atno 8010 bound_to 7997
  139.9467  143.6101  152.2487 H   0  0  0  0  0  0  0  0  0  0  0  0  # atno 10167 bound_to 10162
  157.6809  130.9965  150.2098 H   0  0  0  0  0  0  0  0  0  0  0  0  # atno 10718 bound_to 10713
  153.7986  135.3145  155.3387 H   0  0  0  0  0  0  0  0  0  0  0  0  # atno 10763 bound_to 10752
  154.8098  135.4675  154.0488 H   0  0  0  0  0  0  0  0  0  0  0  0  # atno 10764 bound_to 10752
  153.1829  135.6896  153.8541 H   0  0  0  0  0  0  0  0  0  0  0  0  # atno 10765 bound_to 10752
  141.1340  133.8256  157.0857 H   0  0  0  0  0  0  0  0  0  0  0  0  # atno 11005 bound_to 11000
  145.3708  141.0342  143.3232 LP  0  0  0  0  0  0  0  0  0  0  0  0  # atno 17320 bound_to 7965
  144.8539  139.5279  143.6843 LP  0  0  0  0  0  0  0  0  0  0  0  0  # atno 17321 bound_to 7965
  139.6661  144.7662  151.1871 LP  0  0  0  0  0  0  0  0  0  0  0  0  # atno 17342 bound_to 10162
  140.7595  143.5936  150.8771 LP  0  0  0  0  0  0  0  0  0  0  0  0  # atno 17343 bound_to 10162
  156.2771  130.3729  149.7972 LP  0  0  0  0  0  0  0  0  0  0  0  0  # atno 17370 bound_to 10713
  156.5671  130.8409  151.3346 LP  0  0  0  0  0  0  0  0  0  0  0  0  # atno 17371 bound_to 10713
  140.0423  134.9848  157.0985 LP  0  0  0  0  0  0  0  0  0  0  0  0  # atno 17394 bound_to 11000
  140.4116  134.1975  155.7163 LP  0  0  0  0  0  0  0  0  0  0  0  0  # atno 17395 bound_to 11000

$$$$
