AV-unprocessed.smi:53|AV-procd|sdf|525|dock2
  -GOLD-   2262016403D 1   1.00000     0.00000
 Structure written by MMmdl.
 30 31  0  0  0  0  0  0  0  0  1 V2000
  152.9298  141.1844  159.1098 N   0  0  0  0  0  0  0  0  0  0  0  0
  152.1856  141.0587  158.0019 C   0  0  0  0  0  0  0  0  0  0  0  0
  151.1372  142.0115  157.7138 C   0  0  0  0  0  0  0  0  0  0  0  0
  150.4334  141.8191  156.5764 C   0  0  0  0  0  0  0  0  0  0  0  0
  150.7032  140.7684  155.7101 N   0  0  0  0  0  0  0  0  0  0  0  0
  149.8930  140.5574  154.4522 C   0  0  2  0  0  0  0  0  0  0  0  0
  148.9570  141.5868  154.3369 O   0  0  0  0  0  0  0  0  0  0  0  0
  147.7168  141.0522  153.8921 C   0  0  2  0  0  0  0  0  0  0  0  0
  146.5474  141.9946  154.2280 C   0  0  0  0  0  0  0  0  0  0  0  0
  146.9220  143.3361  153.9973 O   0  0  0  0  0  0  0  0  0  0  0  0
  147.6714  139.6727  154.5631 C   0  0  2  0  0  0  0  0  0  0  0  0
  147.2186  139.7677  155.9021 O   0  0  0  0  0  0  0  0  0  0  0  0
  149.1269  139.2232  154.5240 C   0  0  1  0  0  0  0  0  0  0  0  0
  149.3618  138.4343  153.3747 O   0  0  0  0  0  0  0  0  0  0  0  0
  151.7193  139.8377  156.0316 C   0  0  0  0  0  0  0  0  0  0  0  0
  151.9602  138.8668  155.3146 O   0  0  0  0  0  0  0  0  0  0  0  0
  152.4242  140.0503  157.1858 N   0  0  0  0  0  0  0  0  0  0  0  0
  150.5880  140.6317  153.6130 H   0  0  0  0  0  0  0  0  0  0  0  0
  147.7769  140.8996  152.8125 H   0  0  0  0  0  0  0  0  0  0  0  0
  147.0074  138.9870  154.0346 H   0  0  0  0  0  0  0  0  0  0  0  0
  149.4095  138.6456  155.4060 H   0  0  0  0  0  0  0  0  0  0  0  0
  153.6588  140.5152  159.3103 H   0  0  0  0  0  0  0  0  0  0  0  0
  152.7575  141.9508  159.7446 H   0  0  0  0  0  0  0  0  0  0  0  0
  150.9004  142.8479  158.3560 H   0  0  0  0  0  0  0  0  0  0  0  0
  149.6385  142.5159  156.3544 H   0  0  0  0  0  0  0  0  0  0  0  0
  145.6957  141.7807  153.5817 H   0  0  0  0  0  0  0  0  0  0  0  0
  146.2157  141.8661  155.2589 H   0  0  0  0  0  0  0  0  0  0  0  0
  147.7289  143.5075  154.4585 H   0  0  0  0  0  0  0  0  0  0  0  0
  147.8126  139.2836  156.4550 H   0  0  0  0  0  0  0  0  0  0  0  0
  149.2623  138.9835  152.6115 H   0  0  0  0  0  0  0  0  0  0  0  0
  1  2  1  0  0  0  0
  1 22  1  0  0  0  0
  1 23  1  0  0  0  0
  2 17  2  0  0  0  0
  2  3  1  0  0  0  0
  3  4  2  0  0  0  0
  3 24  1  0  0  0  0
  4  5  1  0  0  0  0
  4 25  1  0  0  0  0
  5  6  1  0  0  0  0
  5 15  1  0  0  0  0
  6 18  1  0  0  0  0
  6 13  1  0  0  0  0
  6  7  1  0  0  0  0
  7  8  1  0  0  0  0
  8 19  1  0  0  0  0
  8  9  1  0  0  0  0
  8 11  1  0  0  0  0
  9 10  1  0  0  0  0
  9 26  1  0  0  0  0
  9 27  1  0  0  0  0
 10 28  1  0  0  0  0
 11 20  1  0  0  0  0
 11 12  1  0  0  0  0
 11 13  1  0  0  0  0
 12 29  1  0  0  0  0
 13 21  1  0  0  0  0
 13 14  1  0  0  0  0
 14 30  1  0  0  0  0
 15 16  2  0  0  0  0
 15 17  1  0  0  0  0
M  END
> <s_m_source_file>
AV-unprocessed.smi

> <i_m_source_file_index>
53

> <i_lp_mmshare_version>
43012

> <i_f3d_flags>
0

> <s_epik_input>
W05IMl1jMVtjSF1bY0hdbihjKD1PKW4xKVtDQEBIXTJPW0NASF0oW0NIMl1bT0hdKVtDQEBIXShbT0hdKVtDQEBIXTJbT0hd

> <s_epik_cmdline>
J2VwaWtfcHl0aG9uJywgJy1waCcsICc3LjAnLCAnLXRuJywgJzgnLCAnLW1hJywgJzIwMCcsICctbWV0YWxfYmluZGluZycsICctaW1hZScsICc8aW5maWxlLm1hZT4nLCAnLW9tYWUnLCAnPG91dGZpbGUubWFlPic=

> <r_lp_tautomer_probability>
0.99996

> <r_epik_Ionization_Penalty>
0.00069087

> <r_epik_Ionization_Penalty_Charging>
2.61959e-08

> <r_epik_Ionization_Penalty_Neutral>
0.000690844

> <r_epik_State_Penalty>
1.15523e-05

> <r_epik_Charging_Adjusted_Penalty>
1.15785e-05

> <i_epik_Tot_Q>
0

> <i_epik_Tot_abs_Q>
0

> <r_epik_Metal_State_Penalty>
-0

> <b_epik_Metal_Only>
0

> <s_epik_Chemistry_Notes>
This compound contains an acetal/aminal-like group ( X-CH(R)-Y where X, Y are N, S, or O) that may be acid/base labile, releasing an aldehyde.

> <s_lp_Force_Field>
OPLS_2005

> <r_lp_Energy>
30.3986

> <b_lp_Chiralities_Consistent>
1

> <s_lp_Variant>
AV-unprocessed.smi:53-13

> <Gold.Version>
5.8.1

> <Gold.Id.Protein>
6NUR|6NUR_protein|mol2

> <Gold.PLP.Fitness>
40.8416

> <Gold.PLP.PLP>
-28.8291

> <Gold.PLP.part.hbond>
-5.9902

> <Gold.PLP.part.metal>
0.0000

> <Gold.PLP.part.buried>
0.4975

> <Gold.PLP.part.nonpolar>
-22.2520

> <Gold.PLP.part.repulsive>
0.2787

> <Gold.PLP.ligand.clash>
0.0000

> <Gold.PLP.ligand.torsion>
0.2145

> <Gold.PLP.Chemscore.Hbond>
3.1433

> <Gold.PLP.Chemscore.CHOScore>
1.0000

> <Gold.PLP.Chemscore.Metal>
0.0000

> <Gold.Chemscore.Hbonds>
donor molecule, donor type, donor heavy atom, donor atom, acceptor molecule, acceptor atom, score
      L1  H    10    28       P1  8028  0.98
      L1  H    14    30       P1  7957  1.00
      P1  H  7997  8010       L1    17  0.99
      P1  H  8011  8017       L1     7  0.13
      L1  C     4    25       P1  8028  1.00

> <Gold.PLP.Chemscore.Internal.Correction>
0.0117

> <Gold.Rescore>
     Score         DG    S(hbond)    S(metal)    S(lipo)     H(rot)  DE(clash)    DE(int)     intcor
      3.20      -5.78       1.61        0.00      37.69       3.71       1.41       1.17       ----

> <Gold.Chemscore.Fitness>
3.1977

> <Gold.Chemscore.DG>
-5.7772

> <Gold.Chemscore.ZeroCoef>
-5.4800

> <Gold.Chemscore.Hbond>
1.6118

> <Gold.Chemscore.Metal>
0.0000

> <Gold.Chemscore.Lipo>
37.6934

> <Gold.Chemscore.Internal_Hbond>
0.0000

> <Gold.Chemscore.DEClash>
1.4087

> <Gold.Chemscore.DEInternal>
1.1708

> <Gold.Chemscore.Rot>
3.7095

> <Gold.Chemscore.Internal.Correction>
   9.000000E+99

> <Gold.Chemscore.Hbonds>
donor molecule, donor type, donor heavy atom, donor atom, acceptor molecule, acceptor atom, score
      L1  H    10    28       P1  8028  0.44
      L1  H    14    30       P1  7957  0.98
      P1  H  7997  8010       L1    17  0.27
      P1  H  8011  8017       L1     7  0.01

> <Gold.Chemscore.Hbond.Weighted>
-5.3835

> <Gold.Chemscore.Metal.Weighted>
-0.0000

> <Gold.Chemscore.Lipo.Weighted>
-4.4101

> <Gold.Chemscore.Internal_Hbond.Weighted>
0.0000

> <Gold.Chemscore.DEClash.Weighted>
1.4087

> <Gold.Chemscore.DEInternal.Weighted>
1.1708

> <Gold.Chemscore.Rot.Weighted>
9.4964

> <Gold.Chemscore.Internal.Correction.Weighted>
   9.000000E+99

> <Gold.Protein.RotatedTorsions>
[ 6907 6896 6895 6894 ] final  123.87 input  -60.11 | X-H torsion
[ 7974 7965 7964 7962 ] final    4.74 input  175.53 | X-H torsion
[ 8008 7997 7996 7995 ] final   66.85 input   59.86 | X-H torsion
[ 10167 10162 10161 10158 ] final  -68.77 input  -65.29 | X-H torsion
[ 10718 10713 10712 10709 ] final -170.99 input   66.30 | X-H torsion
[ 10763 10752 10751 10750 ] final   -5.30 input  -60.55 | X-H torsion
[ 11005 11000 10999 10996 ] final  178.80 input  -57.11 | X-H torsion

> <Gold.Protein.ActiveResidues>
 VAL166  LYS551  ARG553  GLY616  TRP617  ASP618  TYR619  PRO620  LYS621  CYS622 
 ASP623  PHE694  ASN695  SER759  ASP760  ASP761  ALA762  ILE779  LEU786  VAL792 
 PHE793  MET794  SER795  GLU796  ALA797  LYS798  CYS799  TRP800  GLU811  SER814 

> <Gold.Protein.RotatedAtoms>
  152.4126  133.6987  159.6410 H   0  0  0  0  0  0  0  0  0  0  0  0  # atno 6907 bound_to 6896
  150.8005  133.8598  159.3237 H   0  0  0  0  0  0  0  0  0  0  0  0  # atno 6908 bound_to 6896
  151.6336  135.1022  160.0178 H   0  0  0  0  0  0  0  0  0  0  0  0  # atno 6909 bound_to 6896
  146.2443  140.0489  142.8376 H   0  0  0  0  0  0  0  0  0  0  0  0  # atno 7974 bound_to 7965
  155.6838  140.3496  155.4866 H   0  0  0  0  0  0  0  0  0  0  0  0  # atno 8008 bound_to 7997
  155.9583  140.1132  157.0940 H   0  0  0  0  0  0  0  0  0  0  0  0  # atno 8009 bound_to 7997
  154.4137  140.1180  156.5131 H   0  0  0  0  0  0  0  0  0  0  0  0  # atno 8010 bound_to 7997
  140.5482  143.2312  151.6961 H   0  0  0  0  0  0  0  0  0  0  0  0  # atno 10167 bound_to 10162
  156.7343  130.9318  151.3106 H   0  0  0  0  0  0  0  0  0  0  0  0  # atno 10718 bound_to 10713
  153.3966  135.7003  153.6456 H   0  0  0  0  0  0  0  0  0  0  0  0  # atno 10763 bound_to 10752
  153.5007  135.3653  155.2538 H   0  0  0  0  0  0  0  0  0  0  0  0  # atno 10764 bound_to 10752
  154.8707  135.4111  154.3293 H   0  0  0  0  0  0  0  0  0  0  0  0  # atno 10765 bound_to 10752
  140.3991  134.6794  157.4551 H   0  0  0  0  0  0  0  0  0  0  0  0  # atno 11005 bound_to 11000
  145.1002  140.9341  143.4717 LP  0  0  0  0  0  0  0  0  0  0  0  0  # atno 17320 bound_to 7965
  145.0680  139.3053  143.5846 LP  0  0  0  0  0  0  0  0  0  0  0  0  # atno 17321 bound_to 7965
  139.5016  144.3860  152.0328 LP  0  0  0  0  0  0  0  0  0  0  0  0  # atno 17342 bound_to 10162
  140.2975  144.3684  150.6070 LP  0  0  0  0  0  0  0  0  0  0  0  0  # atno 17343 bound_to 10162
  157.6845  130.9172  150.0352 LP  0  0  0  0  0  0  0  0  0  0  0  0  # atno 17370 bound_to 10713
  156.1507  130.3642  149.9442 LP  0  0  0  0  0  0  0  0  0  0  0  0  # atno 17371 bound_to 10713
  140.0350  134.6351  155.9056 LP  0  0  0  0  0  0  0  0  0  0  0  0  # atno 17394 bound_to 11000
  141.1863  133.6557  156.5235 LP  0  0  0  0  0  0  0  0  0  0  0  0  # atno 17395 bound_to 11000

$$$$
