AV-unprocessed.smi:213|AV-procd|sdf|1633|dock6
  -GOLD-   2262019593D 1   1.00000     0.00000
 Structure written by MMmdl.
 59 62  0  0  0  0  0  0  0  0  2 V2000
  154.4856  132.9563  165.0992 C   0  0  0  0  0  0  0  0  0  0  0  0
  154.3155  132.7624  163.5835 C   0  0  2  0  0  0  0  0  0  0  0  0
  154.5690  131.2904  163.1739 C   0  0  0  0  0  0  0  0  0  0  0  0
  153.8134  130.3166  164.0028 N   0  3  0  0  0  0  0  0  0  0  0  0
  154.5200  129.9391  165.2476 C   0  0  0  0  0  0  0  0  0  0  0  0
  153.7269  128.8540  165.9952 C   0  0  0  0  0  0  0  0  0  0  0  0
  152.4130  129.3253  166.2693 O   0  0  0  0  0  0  0  0  0  0  0  0
  151.6926  129.6229  165.0791 C   0  0  0  0  0  0  0  0  0  0  0  0
  152.4204  130.7314  164.3008 C   0  0  0  0  0  0  0  0  0  0  0  0
  155.1387  133.7158  162.8225 N   0  0  0  0  0  0  0  0  0  0  0  0
  155.5513  133.3796  161.4597 C   0  0  0  0  0  0  0  0  0  0  0  0
  154.9340  135.0332  163.0900 C   0  0  0  0  0  0  0  0  0  0  0  0
  155.1913  135.5071  164.3393 N   0  0  0  0  0  0  0  0  0  0  0  0
  155.0608  136.8085  164.6104 C   0  0  0  0  0  0  0  0  0  0  0  0
  154.7016  137.7973  163.7910 N   0  0  0  0  0  0  0  0  0  0  0  0
  154.4270  137.3290  162.5405 C   0  0  0  0  0  0  0  0  0  0  0  0
  154.5102  135.9750  162.1092 C   0  0  0  0  0  0  0  0  0  0  0  0
  154.1500  135.8848  160.7696 N   0  0  0  0  0  0  0  0  0  0  0  0
  153.8799  137.1145  160.4260 C   0  0  0  0  0  0  0  0  0  0  0  0
  154.0327  138.0472  161.4259 N   0  0  0  0  0  0  0  0  0  0  0  0
  153.8189  139.4804  161.3163 C   0  0  0  0  0  0  0  0  0  0  0  0
  154.6713  140.1216  160.1994 C   0  0  2  0  0  0  0  0  0  0  0  0
  155.8931  140.5570  160.7661 O   0  0  0  0  0  0  0  0  0  0  0  0
  153.9926  141.3420  159.5453 C   0  0  2  0  0  0  0  0  0  0  0  0
  153.3564  142.3282  160.5258 C   0  0  0  0  0  0  0  0  0  0  0  0
  152.3299  143.0513  159.6724 C   0  0  0  0  0  0  0  0  0  0  0  0
  152.0561  142.0726  158.5279 C   0  0  0  0  0  0  0  0  0  0  0  0
  152.8515  140.9273  158.8083 O   0  0  0  0  0  0  0  0  0  0  0  0
  153.7792  132.3346  165.6499 H   0  0  0  0  0  0  0  0  0  0  0  0
  154.3004  133.9922  165.3849 H   0  0  0  0  0  0  0  0  0  0  0  0
  155.4858  132.6867  165.4384 H   0  0  0  0  0  0  0  0  0  0  0  0
  153.2659  132.9728  163.3903 H   0  0  0  0  0  0  0  0  0  0  0  0
  154.2864  131.1668  162.1275 H   0  0  0  0  0  0  0  0  0  0  0  0
  155.6334  131.0566  163.2269 H   0  0  0  0  0  0  0  0  0  0  0  0
  155.5162  129.5642  165.0096 H   0  0  0  0  0  0  0  0  0  0  0  0
  154.6478  130.8190  165.8799 H   0  0  0  0  0  0  0  0  0  0  0  0
  153.6807  127.9338  165.4100 H   0  0  0  0  0  0  0  0  0  0  0  0
  154.2186  128.6091  166.9368 H   0  0  0  0  0  0  0  0  0  0  0  0
  151.5848  128.7247  164.4693 H   0  0  0  0  0  0  0  0  0  0  0  0
  150.6867  129.9479  165.3448 H   0  0  0  0  0  0  0  0  0  0  0  0
  152.4281  131.6545  164.8824 H   0  0  0  0  0  0  0  0  0  0  0  0
  151.8753  130.9388  163.3810 H   0  0  0  0  0  0  0  0  0  0  0  0
  156.3086  134.0774  161.1000 H   0  0  0  0  0  0  0  0  0  0  0  0
  154.7033  133.4123  160.7752 H   0  0  0  0  0  0  0  0  0  0  0  0
  155.9875  132.3827  161.4138 H   0  0  0  0  0  0  0  0  0  0  0  0
  155.2862  137.1011  165.6254 H   0  0  0  0  0  0  0  0  0  0  0  0
  153.5684  137.3785  159.4255 H   0  0  0  0  0  0  0  0  0  0  0  0
  152.7568  139.6452  161.1326 H   0  0  0  0  0  0  0  0  0  0  0  0
  154.0433  139.9444  162.2776 H   0  0  0  0  0  0  0  0  0  0  0  0
  154.8873  139.3704  159.4385 H   0  0  0  0  0  0  0  0  0  0  0  0
  156.5472  139.8945  160.6072 H   0  0  0  0  0  0  0  0  0  0  0  0
  154.6854  141.8731  158.8891 H   0  0  0  0  0  0  0  0  0  0  0  0
  152.8501  141.7882  161.3274 H   0  0  0  0  0  0  0  0  0  0  0  0
  154.0807  143.0065  160.9777 H   0  0  0  0  0  0  0  0  0  0  0  0
  151.4299  143.2900  160.2396 H   0  0  0  0  0  0  0  0  0  0  0  0
  152.7394  143.9831  159.2808 H   0  0  0  0  0  0  0  0  0  0  0  0
  151.0031  141.7986  158.4600 H   0  0  0  0  0  0  0  0  0  0  0  0
  152.3590  142.5022  157.5722 H   0  0  0  0  0  0  0  0  0  0  0  0
  153.7543  129.4705  163.4532 H   0  0  0  0  0  0  0  0  0  0  0  0
  1  2  1  0  0  0  0
  1 29  1  0  0  0  0
  1 30  1  0  0  0  0
  1 31  1  0  0  0  0
  2  3  1  0  0  0  0
  2 10  1  0  0  0  0
  2 32  1  0  0  0  0
  3  4  1  0  0  0  0
  3 33  1  0  0  0  0
  3 34  1  0  0  0  0
  4  9  1  0  0  0  0
  4  5  1  0  0  0  0
  4 59  1  0  0  0  0
  5  6  1  0  0  0  0
  5 35  1  0  0  0  0
  5 36  1  0  0  0  0
  6  7  1  0  0  0  0
  6 37  1  0  0  0  0
  6 38  1  0  0  0  0
  7  8  1  0  0  0  0
  8  9  1  0  0  0  0
  8 39  1  0  0  0  0
  8 40  1  0  0  0  0
  9 41  1  0  0  0  0
  9 42  1  0  0  0  0
 10 11  1  0  0  0  0
 10 12  1  0  0  0  0
 11 43  1  0  0  0  0
 11 44  1  0  0  0  0
 11 45  1  0  0  0  0
 12 17  1  0  0  0  0
 12 13  2  0  0  0  0
 13 14  1  0  0  0  0
 14 15  2  0  0  0  0
 14 46  1  0  0  0  0
 15 16  1  0  0  0  0
 16 20  1  0  0  0  0
 16 17  2  0  0  0  0
 17 18  1  0  0  0  0
 18 19  2  0  0  0  0
 19 20  1  0  0  0  0
 19 47  1  0  0  0  0
 20 21  1  0  0  0  0
 21 22  1  0  0  0  0
 21 48  1  0  0  0  0
 21 49  1  0  0  0  0
 22 23  1  0  0  0  0
 22 24  1  0  0  0  0
 22 50  1  0  0  0  0
 23 51  1  0  0  0  0
 24 28  1  0  0  0  0
 24 25  1  0  0  0  0
 24 52  1  0  0  0  0
 25 26  1  0  0  0  0
 25 53  1  0  0  0  0
 25 54  1  0  0  0  0
 26 27  1  0  0  0  0
 26 55  1  0  0  0  0
 26 56  1  0  0  0  0
 27 28  1  0  0  0  0
 27 57  1  0  0  0  0
 27 58  1  0  0  0  0
M  CHG  1   4   1
M  END
> <s_m_source_file>
AV-unprocessed.smi

> <i_m_source_file_index>
213

> <i_lp_mmshare_version>
43012

> <i_f3d_flags>
0

> <s_epik_input>
W0NIMl0xW0NIMl1PW0NIMl1bQ0gyXU4xW0NIMl1bQ0BASF0oW0NIM10pTihbQ0gzXSljKG5bY0hdbjIpYyhjMjMpbltjSF1uM1tDSDJdW0NASF0oW09IXSlbQ0BASF00W0NIMl1bQ0gyXVtDSDJdTzQ=

> <s_epik_cmdline>
J2VwaWtfcHl0aG9uJywgJy1waCcsICc3LjAnLCAnLXRuJywgJzgnLCAnLW1hJywgJzIwMCcsICctbWV0YWxfYmluZGluZycsICctaW1hZScsICc8aW5maWxlLm1hZT4nLCAnLW9tYWUnLCAnPG91dGZpbGUubWFlPic=

> <r_lp_tautomer_probability>
1

> <r_epik_Ionization_Penalty>
0.399679

> <r_epik_Ionization_Penalty_Charging>
0.399433

> <r_epik_Ionization_Penalty_Neutral>
0.000246213

> <r_epik_State_Penalty>
0.286032

> <r_epik_Charging_Adjusted_Penalty>
0.685465

> <i_epik_Tot_Q>
1

> <i_epik_Tot_abs_Q>
1

> <r_epik_Metal_State_Penalty>
0.286072

> <b_epik_Metal_Only>
0

> <s_lp_Force_Field>
OPLS_2005

> <r_lp_Energy>
46.7886

> <b_lp_Chiralities_Consistent>
1

> <s_lp_Variant>
AV-unprocessed.smi:213-1

> <Gold.Version>
5.8.1

> <Gold.Id.Protein>
6NUR|6NUR_protein|mol2

> <Gold.PLP.Fitness>
43.9501

> <Gold.PLP.PLP>
-44.2853

> <Gold.PLP.part.hbond>
-1.8369

> <Gold.PLP.part.metal>
0.0000

> <Gold.PLP.part.buried>
-4.7647

> <Gold.PLP.part.nonpolar>
-38.3316

> <Gold.PLP.part.repulsive>
0.1857

> <Gold.PLP.ligand.clash>
0.0000

> <Gold.PLP.ligand.torsion>
1.9678

> <Gold.PLP.Chemscore.Hbond>
0.8288

> <Gold.PLP.Chemscore.CHOScore>
0.0000

> <Gold.PLP.Chemscore.Metal>
0.0000

> <Gold.Chemscore.Hbonds>
donor molecule, donor type, donor heavy atom, donor atom, acceptor molecule, acceptor atom, score
      P1  H  6896  6908       L1    18  0.52

> <Gold.PLP.Chemscore.Internal.Correction>
1.1141

> <Gold.Rescore>
     Score         DG    S(hbond)    S(metal)    S(lipo)     H(rot)  DE(clash)    DE(int)     intcor
      9.55     -14.18       0.98        0.00     108.24       2.83       0.25       4.37       ----

> <Gold.Chemscore.Fitness>
9.5535

> <Gold.Chemscore.DG>
-14.1802

> <Gold.Chemscore.ZeroCoef>
-5.4800

> <Gold.Chemscore.Hbond>
0.9788

> <Gold.Chemscore.Metal>
0.0000

> <Gold.Chemscore.Lipo>
108.2383

> <Gold.Chemscore.Internal_Hbond>
0.0000

> <Gold.Chemscore.DEClash>
0.2534

> <Gold.Chemscore.DEInternal>
4.3733

> <Gold.Chemscore.Rot>
2.8254

> <Gold.Chemscore.Internal.Correction>
   9.000000E+99

> <Gold.Chemscore.Hbonds>
donor molecule, donor type, donor heavy atom, donor atom, acceptor molecule, acceptor atom, score
      P1  H  6896  6908       L1    18  0.15

> <Gold.Chemscore.Hbond.Weighted>
-3.2693

> <Gold.Chemscore.Metal.Weighted>
-0.0000

> <Gold.Chemscore.Lipo.Weighted>
-12.6639

> <Gold.Chemscore.Internal_Hbond.Weighted>
0.0000

> <Gold.Chemscore.DEClash.Weighted>
0.2534

> <Gold.Chemscore.DEInternal.Weighted>
4.3733

> <Gold.Chemscore.Rot.Weighted>
7.2330

> <Gold.Chemscore.Internal.Correction.Weighted>
   9.000000E+99

> <Gold.Protein.RotatedTorsions>
[ 6907 6896 6895 6894 ] final  -72.01 input  -60.11 | X-H torsion
[ 7974 7965 7964 7962 ] final  163.73 input  175.53 | X-H torsion
[ 8008 7997 7996 7995 ] final  -47.15 input   59.86 | X-H torsion
[ 10167 10162 10161 10158 ] final  -39.07 input  -65.29 | X-H torsion
[ 10718 10713 10712 10709 ] final  131.89 input   66.30 | X-H torsion
[ 10763 10752 10751 10750 ] final  128.06 input  -60.55 | X-H torsion
[ 11005 11000 10999 10996 ] final  118.99 input  -57.11 | X-H torsion

> <Gold.Protein.ActiveResidues>
 VAL166  LYS551  ARG553  GLY616  TRP617  ASP618  TYR619  PRO620  LYS621  CYS622 
 ASP623  PHE694  ASN695  SER759  ASP760  ASP761  ALA762  ILE779  LEU786  VAL792 
 PHE793  MET794  SER795  GLU796  ALA797  LYS798  CYS799  TRP800  GLU811  SER814 

> <Gold.Protein.RotatedAtoms>
  150.7188  134.5225  159.5660 H   0  0  0  0  0  0  0  0  0  0  0  0  # atno 6907 bound_to 6896
  152.2777  134.7860  160.0411 H   0  0  0  0  0  0  0  0  0  0  0  0  # atno 6908 bound_to 6896
  151.8518  133.3406  159.3712 H   0  0  0  0  0  0  0  0  0  0  0  0  # atno 6909 bound_to 6896
  144.7577  139.8224  143.6344 H   0  0  0  0  0  0  0  0  0  0  0  0  # atno 7974 bound_to 7965
  154.4014  140.1353  156.4128 H   0  0  0  0  0  0  0  0  0  0  0  0  # atno 8008 bound_to 7997
  155.7717  140.3483  155.5230 H   0  0  0  0  0  0  0  0  0  0  0  0  # atno 8009 bound_to 7997
  155.8760  140.0979  157.1508 H   0  0  0  0  0  0  0  0  0  0  0  0  # atno 8010 bound_to 7997
  140.7074  143.3237  151.2730 H   0  0  0  0  0  0  0  0  0  0  0  0  # atno 10167 bound_to 10162
  157.4924  131.1091  150.9538 H   0  0  0  0  0  0  0  0  0  0  0  0  # atno 10718 bound_to 10713
  153.7194  135.3255  155.3263 H   0  0  0  0  0  0  0  0  0  0  0  0  # atno 10763 bound_to 10752
  154.8360  135.4496  154.1233 H   0  0  0  0  0  0  0  0  0  0  0  0  # atno 10764 bound_to 10752
  153.2349  135.6964  153.7928 H   0  0  0  0  0  0  0  0  0  0  0  0  # atno 10765 bound_to 10752
  139.9130  134.9625  156.7587 H   0  0  0  0  0  0  0  0  0  0  0  0  # atno 11005 bound_to 11000
  146.1605  139.4718  142.9991 LP  0  0  0  0  0  0  0  0  0  0  0  0  # atno 17320 bound_to 7965
  145.6725  141.0213  143.1650 LP  0  0  0  0  0  0  0  0  0  0  0  0  # atno 17321 bound_to 7965
  139.6699  144.0039  152.2746 LP  0  0  0  0  0  0  0  0  0  0  0  0  # atno 17342 bound_to 10162
  139.9634  144.6543  150.8058 LP  0  0  0  0  0  0  0  0  0  0  0  0  # atno 17343 bound_to 10162
  157.0235  130.5683  149.5334 LP  0  0  0  0  0  0  0  0  0  0  0  0  # atno 17370 bound_to 10713
  156.0181  130.5276  150.8195 LP  0  0  0  0  0  0  0  0  0  0  0  0  # atno 17371 bound_to 10713
  140.6715  133.9555  155.7859 LP  0  0  0  0  0  0  0  0  0  0  0  0  # atno 17394 bound_to 11000
  141.0574  134.0396  157.3704 LP  0  0  0  0  0  0  0  0  0  0  0  0  # atno 17395 bound_to 11000

$$$$
