AV-unprocessed.smi:3327|AV-procd|sdf|12787|dock6
  -GOLD-   2272019133D 1   1.00000     0.00000
 Structure written by MMmdl.
 41 42  0  0  0  0  0  0  0  0  2 V2000
  145.0071  130.7839  151.3897 C   0  0  0  0  0  0  0  0  0  0  0  0
  144.9925  132.2712  151.7685 C   0  0  2  0  0  0  0  0  0  0  0  0
  144.1771  133.1059  150.7567 C   0  0  0  0  0  0  0  0  0  0  0  0
  144.2584  134.6154  151.0540 C   0  0  0  0  0  0  0  0  0  0  0  0
  145.7212  135.0630  151.2183 C   0  0  0  0  0  0  0  0  0  0  0  0
  146.3412  134.2563  152.2778 N   0  0  0  0  0  0  0  0  0  0  0  0
  146.6922  134.7070  153.5068 C   0  0  0  0  0  0  0  0  0  0  0  0
  147.1625  133.9644  154.3708 O   0  0  0  0  0  0  0  0  0  0  0  0
  146.4957  136.1943  153.8393 C   0  0  0  0  0  0  0  0  0  0  0  0
  147.7721  136.8822  154.1224 N   0  3  0  0  0  0  0  0  0  0  0  0
  147.6224  138.2942  154.5271 C   0  0  0  0  0  0  0  0  0  0  0  0
  148.7266  139.1746  153.9168 C   0  0  0  0  0  0  0  0  0  0  0  0
  150.0523  138.8445  154.4126 N   0  0  0  0  0  0  0  0  0  0  0  0
  150.6708  137.6120  154.4462 C   0  0  0  0  0  0  0  0  0  0  0  0
  151.9152  137.7956  154.9776 C   0  0  0  0  0  0  0  0  0  0  0  0
  151.9727  139.1946  155.2299 C   0  0  0  0  0  0  0  0  0  0  0  0
  150.8582  139.8199  154.8860 N   0  0  0  0  0  0  0  0  0  0  0  0
  146.4219  132.8392  151.8994 C   0  0  0  0  0  0  0  0  0  0  0  0
  145.4823  130.6258  150.4212 H   0  0  0  0  0  0  0  0  0  0  0  0
  143.9943  130.3836  151.3334 H   0  0  0  0  0  0  0  0  0  0  0  0
  145.5530  130.1960  152.1282 H   0  0  0  0  0  0  0  0  0  0  0  0
  144.5078  132.3569  152.7425 H   0  0  0  0  0  0  0  0  0  0  0  0
  144.5574  132.9244  149.7504 H   0  0  0  0  0  0  0  0  0  0  0  0
  143.1352  132.7837  150.7531 H   0  0  0  0  0  0  0  0  0  0  0  0
  143.7802  135.1789  150.2524 H   0  0  0  0  0  0  0  0  0  0  0  0
  143.7030  134.8400  151.9654 H   0  0  0  0  0  0  0  0  0  0  0  0
  146.2643  134.9062  150.2850 H   0  0  0  0  0  0  0  0  0  0  0  0
  145.7634  136.1360  151.3986 H   0  0  0  0  0  0  0  0  0  0  0  0
  146.0054  136.6883  152.9994 H   0  0  0  0  0  0  0  0  0  0  0  0
  145.8494  136.2879  154.7131 H   0  0  0  0  0  0  0  0  0  0  0  0
  148.2404  136.3839  154.8661 H   0  0  0  0  0  0  0  0  0  0  0  0
  146.6462  138.6541  154.2002 H   0  0  0  0  0  0  0  0  0  0  0  0
  147.6362  138.3661  155.6156 H   0  0  0  0  0  0  0  0  0  0  0  0
  148.7255  139.0806  152.8299 H   0  0  0  0  0  0  0  0  0  0  0  0
  148.5326  140.2244  154.1404 H   0  0  0  0  0  0  0  0  0  0  0  0
  150.1805  136.7158  154.0948 H   0  0  0  0  0  0  0  0  0  0  0  0
  152.6721  137.0455  155.1539 H   0  0  0  0  0  0  0  0  0  0  0  0
  152.7859  139.7704  155.6468 H   0  0  0  0  0  0  0  0  0  0  0  0
  146.9950  132.2467  152.6140 H   0  0  0  0  0  0  0  0  0  0  0  0
  146.9537  132.7494  150.9508 H   0  0  0  0  0  0  0  0  0  0  0  0
  148.3495  136.8389  153.2947 H   0  0  0  0  0  0  0  0  0  0  0  0
  1  2  1  0  0  0  0
  1 19  1  0  0  0  0
  1 20  1  0  0  0  0
  1 21  1  0  0  0  0
  2 18  1  0  0  0  0
  2  3  1  0  0  0  0
  2 22  1  0  0  0  0
  3  4  1  0  0  0  0
  3 23  1  0  0  0  0
  3 24  1  0  0  0  0
  4  5  1  0  0  0  0
  4 25  1  0  0  0  0
  4 26  1  0  0  0  0
  5  6  1  0  0  0  0
  5 27  1  0  0  0  0
  5 28  1  0  0  0  0
  6  7  1  0  0  0  0
  6 18  1  0  0  0  0
  7  8  2  0  0  0  0
  7  9  1  0  0  0  0
  9 10  1  0  0  0  0
  9 29  1  0  0  0  0
  9 30  1  0  0  0  0
 10 11  1  0  0  0  0
 10 31  1  0  0  0  0
 10 41  1  0  0  0  0
 11 12  1  0  0  0  0
 11 32  1  0  0  0  0
 11 33  1  0  0  0  0
 12 13  1  0  0  0  0
 12 34  1  0  0  0  0
 12 35  1  0  0  0  0
 13 17  1  0  0  0  0
 13 14  1  0  0  0  0
 14 15  2  0  0  0  0
 14 36  1  0  0  0  0
 15 16  1  0  0  0  0
 15 37  1  0  0  0  0
 16 17  2  0  0  0  0
 16 38  1  0  0  0  0
 18 39  1  0  0  0  0
 18 40  1  0  0  0  0
M  CHG  1  10   1
M  END
> <s_m_source_file>
AV-unprocessed.smi

> <i_m_source_file_index>
3327

> <i_lp_mmshare_version>
43012

> <i_f3d_flags>
0

> <s_epik_input>
W0NIM11bQ0BASF0xW0NIMl1bQ0gyXVtDSDJdTihbQ0gyXTEpQyg9TylbQ0gyXVtOSF1bQ0gyXVtDSDJdbjJbY0hdW2NIXVtjSF1uMg==

> <s_epik_cmdline>
J2VwaWtfcHl0aG9uJywgJy1waCcsICc3LjAnLCAnLXRuJywgJzgnLCAnLW1hJywgJzIwMCcsICctbWV0YWxfYmluZGluZycsICctaW1hZScsICc8aW5maWxlLm1hZT4nLCAnLW9tYWUnLCAnPG91dGZpbGUubWFlPic=

> <r_lp_tautomer_probability>
1

> <r_epik_Ionization_Penalty>
0.195801

> <r_epik_Ionization_Penalty_Charging>
0.195799

> <r_epik_Ionization_Penalty_Neutral>
2.33113e-06

> <r_epik_State_Penalty>
0.185548

> <r_epik_Charging_Adjusted_Penalty>
0.381347

> <i_epik_Tot_Q>
1

> <i_epik_Tot_abs_Q>
1

> <r_epik_Metal_State_Penalty>
0.186014

> <b_epik_Metal_Only>
0

> <s_lp_Force_Field>
OPLS_2005

> <r_lp_Energy>
21.5547

> <b_lp_Chiralities_Consistent>
1

> <s_lp_Variant>
AV-unprocessed.smi:3327-1

> <Gold.Version>
5.8.1

> <Gold.Id.Protein>
6NUR|6NUR_protein|mol2

> <Gold.PLP.Fitness>
43.0144

> <Gold.PLP.PLP>
-32.2643

> <Gold.PLP.part.hbond>
-2.0000

> <Gold.PLP.part.metal>
0.0000

> <Gold.PLP.part.buried>
-1.6054

> <Gold.PLP.part.nonpolar>
-28.5604

> <Gold.PLP.part.repulsive>
0.1214

> <Gold.PLP.ligand.clash>
0.0000

> <Gold.PLP.ligand.torsion>
0.3672

> <Gold.PLP.Chemscore.Hbond>
2.8000

> <Gold.PLP.Chemscore.CHOScore>
1.0154

> <Gold.PLP.Chemscore.Metal>
0.0000

> <Gold.Chemscore.Hbonds>
donor molecule, donor type, donor heavy atom, donor atom, acceptor molecule, acceptor atom, score
      L1  H    10    41       P1  7948  2.00
      P1  H  7989  7998       L1    17  0.80
      L1  C    14    36       P1  7948  0.94
      L1  C    14    36       P1  7949  0.02

> <Gold.PLP.Chemscore.Internal.Correction>
0.0384

> <Gold.Rescore>
     Score         DG    S(hbond)    S(metal)    S(lipo)     H(rot)  DE(clash)    DE(int)     intcor
     12.76     -13.11       0.98        0.00      76.51       1.80       0.03       0.31       ----

> <Gold.Chemscore.Fitness>
12.7604

> <Gold.Chemscore.DG>
-13.1078

> <Gold.Chemscore.ZeroCoef>
-5.4800

> <Gold.Chemscore.Hbond>
0.9804

> <Gold.Chemscore.Metal>
0.0000

> <Gold.Chemscore.Lipo>
76.5094

> <Gold.Chemscore.Internal_Hbond>
0.0000

> <Gold.Chemscore.DEClash>
0.0348

> <Gold.Chemscore.DEInternal>
0.3126

> <Gold.Chemscore.Rot>
1.7963

> <Gold.Chemscore.Internal.Correction>
   9.000000E+99

> <Gold.Chemscore.Hbonds>
donor molecule, donor type, donor heavy atom, donor atom, acceptor molecule, acceptor atom, score
      L1  H    10    41       P1  7948  0.99
      P1  H  7989  7998       L1    17  0.10

> <Gold.Chemscore.Hbond.Weighted>
-3.2747

> <Gold.Chemscore.Metal.Weighted>
-0.0000

> <Gold.Chemscore.Lipo.Weighted>
-8.9516

> <Gold.Chemscore.Internal_Hbond.Weighted>
0.0000

> <Gold.Chemscore.DEClash.Weighted>
0.0348

> <Gold.Chemscore.DEInternal.Weighted>
0.3126

> <Gold.Chemscore.Rot.Weighted>
4.5985

> <Gold.Chemscore.Internal.Correction.Weighted>
   9.000000E+99

> <Gold.Protein.RotatedTorsions>
[ 6907 6896 6895 6894 ] final  -18.48 input  -60.11 | X-H torsion
[ 7974 7965 7964 7962 ] final -118.70 input  175.53 | X-H torsion
[ 8008 7997 7996 7995 ] final -111.64 input   59.86 | X-H torsion
[ 10167 10162 10161 10158 ] final    0.52 input  -65.29 | X-H torsion
[ 10718 10713 10712 10709 ] final   18.10 input   66.30 | X-H torsion
[ 10763 10752 10751 10750 ] final  -68.11 input  -60.55 | X-H torsion
[ 11005 11000 10999 10996 ] final  -76.25 input  -57.11 | X-H torsion

> <Gold.Protein.ActiveResidues>
 VAL166  LYS551  ARG553  GLY616  TRP617  ASP618  TYR619  PRO620  LYS621  CYS622 
 ASP623  PHE694  ASN695  SER759  ASP760  ASP761  ALA762  ILE779  LEU786  VAL792 
 PHE793  MET794  SER795  GLU796  ALA797  LYS798  CYS799  TRP800  GLU811  SER814 

> <Gold.Protein.RotatedAtoms>
  151.2776  135.0704  159.9157 H   0  0  0  0  0  0  0  0  0  0  0  0  # atno 6907 bound_to 6896
  152.5340  134.0065  159.7929 H   0  0  0  0  0  0  0  0  0  0  0  0  # atno 6908 bound_to 6896
  151.0313  133.5737  159.2691 H   0  0  0  0  0  0  0  0  0  0  0  0  # atno 6909 bound_to 6896
  145.0708  140.8358  143.4096 H   0  0  0  0  0  0  0  0  0  0  0  0  # atno 7974 bound_to 7965
  154.9930  140.0395  157.2327 H   0  0  0  0  0  0  0  0  0  0  0  0  # atno 8008 bound_to 7997
  154.7611  140.2784  155.6190 H   0  0  0  0  0  0  0  0  0  0  0  0  # atno 8009 bound_to 7997
  156.2904  140.2628  156.2390 H   0  0  0  0  0  0  0  0  0  0  0  0  # atno 8010 bound_to 7997
  140.6725  143.7009  150.7952 H   0  0  0  0  0  0  0  0  0  0  0  0  # atno 10167 bound_to 10162
  157.0915  130.6430  149.5850 H   0  0  0  0  0  0  0  0  0  0  0  0  # atno 10718 bound_to 10713
  154.3842  135.6067  153.5807 H   0  0  0  0  0  0  0  0  0  0  0  0  # atno 10763 bound_to 10752
  152.9788  135.5868  154.4374 H   0  0  0  0  0  0  0  0  0  0  0  0  # atno 10764 bound_to 10752
  154.4148  135.2845  155.1991 H   0  0  0  0  0  0  0  0  0  0  0  0  # atno 10765 bound_to 10752
  141.1652  133.6976  156.7640 H   0  0  0  0  0  0  0  0  0  0  0  0  # atno 11005 bound_to 11000
  145.1294  139.2641  143.5547 LP  0  0  0  0  0  0  0  0  0  0  0  0  # atno 17320 bound_to 7965
  146.3528  140.0941  142.8611 LP  0  0  0  0  0  0  0  0  0  0  0  0  # atno 17321 bound_to 7965
  140.0697  143.5073  152.2586 LP  0  0  0  0  0  0  0  0  0  0  0  0  # atno 17342 bound_to 10162
  139.6000  144.7579  151.3194 LP  0  0  0  0  0  0  0  0  0  0  0  0  # atno 17343 bound_to 10162
  155.9897  130.4945  150.7224 LP  0  0  0  0  0  0  0  0  0  0  0  0  # atno 17370 bound_to 10713
  157.4717  131.0894  151.0635 LP  0  0  0  0  0  0  0  0  0  0  0  0  # atno 17371 bound_to 10713
  140.2513  134.8538  157.3670 LP  0  0  0  0  0  0  0  0  0  0  0  0  # atno 17394 bound_to 11000
  140.1700  134.4620  155.7838 LP  0  0  0  0  0  0  0  0  0  0  0  0  # atno 17395 bound_to 11000

$$$$
