AV-unprocessed.smi:557|AV-procd|sdf|2918|dock2
  -GOLD-   2262023413D 1   1.00000     0.00000
 Structure written by MMmdl.
 47 49  0  0  0  0  0  0  0  0  2 V2000
  148.4909  140.5325  154.0950 C   0  0  0  0  0  0  0  0  0  0  0  0
  149.6559  139.7534  154.4555 N   0  0  0  0  0  0  0  0  0  0  0  0
  149.8547  138.3950  154.3335 C   0  0  0  0  0  0  0  0  0  0  0  0
  151.1067  138.1196  154.8068 C   0  0  0  0  0  0  0  0  0  0  0  0
  151.8062  136.7928  154.9002 C   0  0  0  0  0  0  0  0  0  0  0  0
  150.8893  135.7171  155.4968 C   0  0  0  0  0  0  0  0  0  0  0  0
  149.8842  135.2997  154.5231 N   0  0  0  0  0  0  0  0  0  0  0  0
  149.1733  134.1595  154.5281 C   0  0  0  0  0  0  0  0  0  0  0  0
  149.3096  133.3112  155.4073 O   0  0  0  0  0  0  0  0  0  0  0  0
  148.3128  134.0344  153.5036 N   0  0  0  0  0  0  0  0  0  0  0  0
  147.4174  132.9023  153.2855 C   0  0  2  0  0  0  0  0  0  0  0  0
  148.1181  131.5538  153.4040 C   0  0  0  0  0  0  0  0  0  0  0  0
  147.1549  130.6245  152.6641 C   0  0  0  0  0  0  0  0  0  0  0  0
  146.5737  131.4335  151.5688 N   0  3  1  0  0  0  0  0  0  0  0  0
  145.1704  131.0958  151.2271 C   0  0  0  0  0  0  0  0  0  0  0  0
  144.6636  131.9868  150.0787 C   0  0  0  0  0  0  0  0  0  0  0  0
  144.8881  133.4913  150.3385 C   0  0  0  0  0  0  0  0  0  0  0  0
  145.5860  133.7600  151.6815 C   0  0  0  0  0  0  0  0  0  0  0  0
  146.8383  132.8715  151.8601 C   0  0  1  0  0  0  0  0  0  0  0  0
  151.5999  139.3969  155.1989 C   0  0  0  0  0  0  0  0  0  0  0  0
  150.7299  140.3712  154.9882 N   0  0  0  0  0  0  0  0  0  0  0  0
  147.7067  139.8787  153.7124 H   0  0  0  0  0  0  0  0  0  0  0  0
  148.7558  141.2571  153.3244 H   0  0  0  0  0  0  0  0  0  0  0  0
  148.1143  141.0619  154.9707 H   0  0  0  0  0  0  0  0  0  0  0  0
  149.0967  137.7419  153.9258 H   0  0  0  0  0  0  0  0  0  0  0  0
  152.1471  136.4714  153.9152 H   0  0  0  0  0  0  0  0  0  0  0  0
  152.7056  136.8796  155.5112 H   0  0  0  0  0  0  0  0  0  0  0  0
  151.4826  134.8531  155.8012 H   0  0  0  0  0  0  0  0  0  0  0  0
  150.3932  136.1043  156.3882 H   0  0  0  0  0  0  0  0  0  0  0  0
  149.7147  135.9389  153.7596 H   0  0  0  0  0  0  0  0  0  0  0  0
  148.2761  134.7829  152.8268 H   0  0  0  0  0  0  0  0  0  0  0  0
  146.6046  132.9187  154.0151 H   0  0  0  0  0  0  0  0  0  0  0  0
  149.0820  131.5760  152.8926 H   0  0  0  0  0  0  0  0  0  0  0  0
  148.2883  131.2506  154.4375 H   0  0  0  0  0  0  0  0  0  0  0  0
  147.6467  129.7302  152.2811 H   0  0  0  0  0  0  0  0  0  0  0  0
  146.3674  130.3049  153.3487 H   0  0  0  0  0  0  0  0  0  0  0  0
  145.1100  130.0455  150.9394 H   0  0  0  0  0  0  0  0  0  0  0  0
  144.5350  131.2179  152.1058 H   0  0  0  0  0  0  0  0  0  0  0  0
  145.1734  131.7059  149.1563 H   0  0  0  0  0  0  0  0  0  0  0  0
  143.6044  131.7931  149.9061 H   0  0  0  0  0  0  0  0  0  0  0  0
  145.4932  133.9061  149.5313 H   0  0  0  0  0  0  0  0  0  0  0  0
  143.9366  134.0238  150.3054 H   0  0  0  0  0  0  0  0  0  0  0  0
  145.8584  134.8134  151.7510 H   0  0  0  0  0  0  0  0  0  0  0  0
  144.8812  133.5786  152.4943 H   0  0  0  0  0  0  0  0  0  0  0  0
  147.6037  133.1871  151.1490 H   0  0  0  0  0  0  0  0  0  0  0  0
  152.5592  139.6423  155.6302 H   0  0  0  0  0  0  0  0  0  0  0  0
  147.1193  131.2270  150.7442 H   0  0  0  0  0  0  0  0  0  0  0  0
  1  2  1  0  0  0  0
  1 22  1  0  0  0  0
  1 23  1  0  0  0  0
  1 24  1  0  0  0  0
  2 21  1  0  0  0  0
  2  3  1  0  0  0  0
  3  4  2  0  0  0  0
  3 25  1  0  0  0  0
  4  5  1  0  0  0  0
  4 20  1  0  0  0  0
  5  6  1  0  0  0  0
  5 26  1  0  0  0  0
  5 27  1  0  0  0  0
  6  7  1  0  0  0  0
  6 28  1  0  0  0  0
  6 29  1  0  0  0  0
  7  8  1  0  0  0  0
  7 30  1  0  0  0  0
  8  9  2  0  0  0  0
  8 10  1  0  0  0  0
 10 11  1  0  0  0  0
 10 31  1  0  0  0  0
 11 19  1  0  0  0  0
 11 12  1  0  0  0  0
 11 32  1  0  0  0  0
 12 13  1  0  0  0  0
 12 33  1  0  0  0  0
 12 34  1  0  0  0  0
 13 14  1  0  0  0  0
 13 35  1  0  0  0  0
 13 36  1  0  0  0  0
 14 19  1  0  0  0  0
 14 15  1  0  0  0  0
 14 47  1  0  0  0  0
 15 16  1  0  0  0  0
 15 37  1  0  0  0  0
 15 38  1  0  0  0  0
 16 17  1  0  0  0  0
 16 39  1  0  0  0  0
 16 40  1  0  0  0  0
 17 18  1  0  0  0  0
 17 41  1  0  0  0  0
 17 42  1  0  0  0  0
 18 19  1  0  0  0  0
 18 43  1  0  0  0  0
 18 44  1  0  0  0  0
 19 45  1  0  0  0  0
 20 21  2  0  0  0  0
 20 46  1  0  0  0  0
M  CHG  1  14   1
M  END
> <s_m_source_file>
AV-unprocessed.smi

> <i_m_source_file_index>
557

> <i_lp_mmshare_version>
43012

> <i_f3d_flags>
0

> <s_epik_input>
W0NIM11uMVtjSF1jKFtjSF1uMSlbQ0gyXVtDSDJdW05IXUMoPU8pW05IXVtDQEhdKFtDSDJdW0NIMl0yKVtDQEhdKE4yMylbQ0gyXVtDSDJdW0NIMl1bQ0gyXTM=

> <s_epik_cmdline>
J2VwaWtfcHl0aG9uJywgJy1waCcsICc3LjAnLCAnLXRuJywgJzgnLCAnLW1hJywgJzIwMCcsICctbWV0YWxfYmluZGluZycsICctaW1hZScsICc8aW5maWxlLm1hZT4nLCAnLW9tYWUnLCAnPG91dGZpbGUubWFlPic=

> <r_lp_tautomer_probability>
1

> <r_epik_Ionization_Penalty>
0.000956547

> <r_epik_Ionization_Penalty_Charging>
0.000435796

> <r_epik_Ionization_Penalty_Neutral>
0.000520752

> <r_epik_State_Penalty>
-0

> <r_epik_Charging_Adjusted_Penalty>
0.000435796

> <i_epik_Tot_Q>
1

> <i_epik_Tot_abs_Q>
1

> <r_epik_Metal_State_Penalty>
-0

> <b_epik_Metal_Only>
0

> <s_lp_Force_Field>
OPLS_2005

> <r_lp_Energy>
44.7682

> <b_lp_Chiralities_Consistent>
1

> <s_lp_Variant>
AV-unprocessed.smi:557-5

> <Gold.Version>
5.8.1

> <Gold.Id.Protein>
6NUR|6NUR_protein|mol2

> <Gold.PLP.Fitness>
50.0621

> <Gold.PLP.PLP>
-37.5699

> <Gold.PLP.part.hbond>
-4.0000

> <Gold.PLP.part.metal>
0.0000

> <Gold.PLP.part.buried>
1.8483

> <Gold.PLP.part.nonpolar>
-35.1968

> <Gold.PLP.part.repulsive>
0.1364

> <Gold.PLP.ligand.clash>
0.0000

> <Gold.PLP.ligand.torsion>
0.5059

> <Gold.PLP.Chemscore.Hbond>
3.4951

> <Gold.PLP.Chemscore.CHOScore>
1.0000

> <Gold.PLP.Chemscore.Metal>
0.0000

> <Gold.Chemscore.Hbonds>
donor molecule, donor type, donor heavy atom, donor atom, acceptor molecule, acceptor atom, score
      L1  H     7    30       P1  7948  0.94
      L1  H    10    31       P1  7948  1.00
      L1  H    14    47       P1 10747  0.78
      P1  H  7989  7998       L1    21  0.55
      L1  C     3    25       P1  7948  0.97

> <Gold.PLP.Chemscore.Internal.Correction>
0.0186

> <Gold.Rescore>
     Score         DG    S(hbond)    S(metal)    S(lipo)     H(rot)  DE(clash)    DE(int)     intcor
     18.75     -20.58       2.41        0.00      95.38       1.60       0.08       1.75       ----

> <Gold.Chemscore.Fitness>
18.7487

> <Gold.Chemscore.DG>
-20.5829

> <Gold.Chemscore.ZeroCoef>
-5.4800

> <Gold.Chemscore.Hbond>
2.4082

> <Gold.Chemscore.Metal>
0.0000

> <Gold.Chemscore.Lipo>
95.3850

> <Gold.Chemscore.Internal_Hbond>
0.0000

> <Gold.Chemscore.DEClash>
0.0810

> <Gold.Chemscore.DEInternal>
1.7532

> <Gold.Chemscore.Rot>
1.6018

> <Gold.Chemscore.Internal.Correction>
   9.000000E+99

> <Gold.Chemscore.Hbonds>
donor molecule, donor type, donor heavy atom, donor atom, acceptor molecule, acceptor atom, score
      L1  H     7    30       P1  7948  0.22
      L1  H    10    31       P1  7948  0.59
      L1  H    14    47       P1 10747  0.77
      P1  H  7989  7998       L1    21  0.01

> <Gold.Chemscore.Hbond.Weighted>
-8.0434

> <Gold.Chemscore.Metal.Weighted>
-0.0000

> <Gold.Chemscore.Lipo.Weighted>
-11.1600

> <Gold.Chemscore.Internal_Hbond.Weighted>
0.0000

> <Gold.Chemscore.DEClash.Weighted>
0.0810

> <Gold.Chemscore.DEInternal.Weighted>
1.7532

> <Gold.Chemscore.Rot.Weighted>
4.1006

> <Gold.Chemscore.Internal.Correction.Weighted>
   9.000000E+99

> <Gold.Protein.RotatedTorsions>
[ 6907 6896 6895 6894 ] final  157.56 input  -60.11 | X-H torsion
[ 7974 7965 7964 7962 ] final   40.81 input  175.53 | X-H torsion
[ 8008 7997 7996 7995 ] final  -58.24 input   59.86 | X-H torsion
[ 10167 10162 10161 10158 ] final  -18.78 input  -65.29 | X-H torsion
[ 10718 10713 10712 10709 ] final  -38.80 input   66.30 | X-H torsion
[ 10763 10752 10751 10750 ] final  -10.13 input  -60.55 | X-H torsion
[ 11005 11000 10999 10996 ] final  -99.98 input  -57.11 | X-H torsion

> <Gold.Protein.ActiveResidues>
 VAL166  LYS551  ARG553  GLY616  TRP617  ASP618  TYR619  PRO620  LYS621  CYS622 
 ASP623  PHE694  ASN695  SER759  ASP760  ASP761  ALA762  ILE779  LEU786  VAL792 
 PHE793  MET794  SER795  GLU796  ALA797  LYS798  CYS799  TRP800  GLU811  SER814 

> <Gold.Protein.RotatedAtoms>
  152.0133  133.3870  159.4228 H   0  0  0  0  0  0  0  0  0  0  0  0  # atno 6907 bound_to 6896
  150.6897  134.3706  159.5000 H   0  0  0  0  0  0  0  0  0  0  0  0  # atno 6908 bound_to 6896
  152.1470  134.9018  160.0601 H   0  0  0  0  0  0  0  0  0  0  0  0  # atno 6909 bound_to 6896
  146.0875  139.5489  142.9497 H   0  0  0  0  0  0  0  0  0  0  0  0  # atno 7974 bound_to 7965
  154.4301  140.1088  156.5926 H   0  0  0  0  0  0  0  0  0  0  0  0  # atno 8008 bound_to 7997
  155.5996  140.3493  155.4571 H   0  0  0  0  0  0  0  0  0  0  0  0  # atno 8009 bound_to 7997
  156.0184  140.1234  157.0372 H   0  0  0  0  0  0  0  0  0  0  0  0  # atno 8010 bound_to 7997
  140.7262  143.4883  151.0025 H   0  0  0  0  0  0  0  0  0  0  0  0  # atno 10167 bound_to 10162
  156.2996  130.4238  149.8156 H   0  0  0  0  0  0  0  0  0  0  0  0  # atno 10718 bound_to 10713
  153.4647  135.7016  153.6029 H   0  0  0  0  0  0  0  0  0  0  0  0  # atno 10763 bound_to 10752
  153.4308  135.3803  155.2169 H   0  0  0  0  0  0  0  0  0  0  0  0  # atno 10764 bound_to 10752
  154.8726  135.3950  154.4077 H   0  0  0  0  0  0  0  0  0  0  0  0  # atno 10765 bound_to 10752
  141.1288  133.8363  157.1042 H   0  0  0  0  0  0  0  0  0  0  0  0  # atno 11005 bound_to 11000
  145.6103  141.0341  143.1970 LP  0  0  0  0  0  0  0  0  0  0  0  0  # atno 17320 bound_to 7965
  144.7336  139.7652  143.7338 LP  0  0  0  0  0  0  0  0  0  0  0  0  # atno 17321 bound_to 7965
  139.8586  143.7344  152.3174 LP  0  0  0  0  0  0  0  0  0  0  0  0  # atno 17342 bound_to 10162
  139.7552  144.7523  151.0447 LP  0  0  0  0  0  0  0  0  0  0  0  0  # atno 17343 bound_to 10162
  156.5539  130.8354  151.3308 LP  0  0  0  0  0  0  0  0  0  0  0  0  # atno 17370 bound_to 10713
  157.7364  130.9779  150.2136 LP  0  0  0  0  0  0  0  0  0  0  0  0  # atno 17371 bound_to 10713
  140.0315  134.9899  157.0788 LP  0  0  0  0  0  0  0  0  0  0  0  0  # atno 17394 bound_to 11000
  140.4278  134.1812  155.7167 LP  0  0  0  0  0  0  0  0  0  0  0  0  # atno 17395 bound_to 11000

$$$$
