AV-unprocessed.smi:2290|AV-procd|sdf|9211|dock6
  -GOLD-   2272012433D 1   1.00000     0.00000
 Structure written by MMmdl.
 38 39  0  0  0  0  0  0  0  0  1 V2000
  152.0610  144.6869  160.1597 C   0  0  0  0  0  0  0  0  0  0  0  0
  151.7715  143.4475  159.3317 C   0  0  0  0  0  0  0  0  0  0  0  0
  150.9295  143.6386  158.2324 N   0  0  0  0  0  0  0  0  0  0  0  0
  150.6276  142.6390  157.4698 C   0  0  0  0  0  0  0  0  0  0  0  0
  151.1275  141.3492  157.7118 N   0  0  0  0  0  0  0  0  0  0  0  0
  150.6993  140.2981  156.7742 C   0  0  0  0  0  0  0  0  0  0  0  0
  150.3979  140.8629  155.3679 C   0  0  1  0  0  0  0  0  0  0  0  0
  150.5377  139.8530  154.3894 O   0  0  0  0  0  0  0  0  0  0  0  0
  148.9777  141.4375  155.2408 C   0  0  0  0  0  0  0  0  0  0  0  0
  148.7736  141.9299  153.9263 O   0  0  0  0  0  0  0  0  0  0  0  0
  147.5174  141.5551  153.3864 C   0  0  0  0  0  0  0  0  0  0  0  0
  146.4704  142.4436  153.9823 C   0  0  0  0  0  0  0  0  0  0  0  0
  145.7920  143.4493  153.3422 C   0  0  0  0  0  0  0  0  0  0  0  0
  144.8589  144.1254  154.1820 C   0  0  0  0  0  0  0  0  0  0  0  0
  144.8365  143.6295  155.4580 C   0  0  0  0  0  0  0  0  0  0  0  0
  145.9674  142.3192  155.6540 S   0  0  0  0  0  0  0  0  0  0  0  0
  151.9465  141.0733  158.7676 C   0  0  0  0  0  0  0  0  0  0  0  0
  152.3645  139.9335  158.9813 O   0  0  0  0  0  0  0  0  0  0  0  0
  152.2855  142.2215  159.6238 C   0  0  0  0  0  0  0  0  0  0  0  0
  153.2071  141.9534  160.8072 C   0  0  0  0  0  0  0  0  0  0  0  0
  153.1294  144.9042  160.1610 H   0  0  0  0  0  0  0  0  0  0  0  0
  151.7323  144.5434  161.1891 H   0  0  0  0  0  0  0  0  0  0  0  0
  151.5427  145.5607  159.7627 H   0  0  0  0  0  0  0  0  0  0  0  0
  149.9706  142.7336  156.6035 H   0  0  0  0  0  0  0  0  0  0  0  0
  151.4230  139.4822  156.7129 H   0  0  0  0  0  0  0  0  0  0  0  0
  149.7994  139.8261  157.1733 H   0  0  0  0  0  0  0  0  0  0  0  0
  151.1024  141.6576  155.1198 H   0  0  0  0  0  0  0  0  0  0  0  0
  149.7277  139.7930  153.9058 H   0  0  0  0  0  0  0  0  0  0  0  0
  148.2530  140.6458  155.4369 H   0  0  0  0  0  0  0  0  0  0  0  0
  148.8070  142.2202  155.9821 H   0  0  0  0  0  0  0  0  0  0  0  0
  147.5227  141.6621  152.3007 H   0  0  0  0  0  0  0  0  0  0  0  0
  147.3008  140.5117  153.6202 H   0  0  0  0  0  0  0  0  0  0  0  0
  145.9325  143.7208  152.3063 H   0  0  0  0  0  0  0  0  0  0  0  0
  144.2463  144.9406  153.8260 H   0  0  0  0  0  0  0  0  0  0  0  0
  144.2297  143.9530  156.2907 H   0  0  0  0  0  0  0  0  0  0  0  0
  152.7492  141.2319  161.4844 H   0  0  0  0  0  0  0  0  0  0  0  0
  153.4360  142.8472  161.3850 H   0  0  0  0  0  0  0  0  0  0  0  0
  154.1534  141.5375  160.4598 H   0  0  0  0  0  0  0  0  0  0  0  0
  1  2  1  0  0  0  0
  1 21  1  0  0  0  0
  1 22  1  0  0  0  0
  1 23  1  0  0  0  0
  2 19  2  0  0  0  0
  2  3  1  0  0  0  0
  3  4  2  0  0  0  0
  4  5  1  0  0  0  0
  4 24  1  0  0  0  0
  5  6  1  0  0  0  0
  5 17  1  0  0  0  0
  6  7  1  0  0  0  0
  6 25  1  0  0  0  0
  6 26  1  0  0  0  0
  7  8  1  0  0  0  0
  7  9  1  0  0  0  0
  7 27  1  0  0  0  0
  8 28  1  0  0  0  0
  9 10  1  0  0  0  0
  9 29  1  0  0  0  0
  9 30  1  0  0  0  0
 10 11  1  0  0  0  0
 11 12  1  0  0  0  0
 11 31  1  0  0  0  0
 11 32  1  0  0  0  0
 12 16  1  0  0  0  0
 12 13  2  0  0  0  0
 13 14  1  0  0  0  0
 13 33  1  0  0  0  0
 14 15  2  0  0  0  0
 14 34  1  0  0  0  0
 15 16  1  0  0  0  0
 15 35  1  0  0  0  0
 17 18  2  0  0  0  0
 17 19  1  0  0  0  0
 19 20  1  0  0  0  0
 20 36  1  0  0  0  0
 20 37  1  0  0  0  0
 20 38  1  0  0  0  0
M  END
> <s_m_source_file>
AV-unprocessed.smi

> <i_m_source_file_index>
2290

> <i_lp_mmshare_version>
43012

> <i_f3d_flags>
0

> <s_epik_input>
W0NIM11jMW5bY0hdbihjKD1PKWMxW0NIM10pW0NIMl1bQ0BIXShbT0hdKVtDSDJdT1tDSDJdYzJbY0hdW2NIXVtjSF1zMg==

> <s_epik_cmdline>
J2VwaWtfcHl0aG9uJywgJy1waCcsICc3LjAnLCAnLXRuJywgJzgnLCAnLW1hJywgJzIwMCcsICctbWV0YWxfYmluZGluZycsICctaW1hZScsICc8aW5maWxlLm1hZT4nLCAnLW9tYWUnLCAnPG91dGZpbGUubWFlPic=

> <r_lp_tautomer_probability>
1

> <r_epik_Ionization_Penalty>
4.77825e-05

> <r_epik_Ionization_Penalty_Charging>
1.20754e-07

> <r_epik_Ionization_Penalty_Neutral>
4.76618e-05

> <r_epik_State_Penalty>
-0

> <r_epik_Charging_Adjusted_Penalty>
1.20754e-07

> <i_epik_Tot_Q>
0

> <i_epik_Tot_abs_Q>
0

> <r_epik_Metal_State_Penalty>
-0

> <b_epik_Metal_Only>
0

> <s_lp_Force_Field>
OPLS_2005

> <r_lp_Energy>
16.3979

> <b_lp_Chiralities_Consistent>
1

> <s_lp_Variant>
AV-unprocessed.smi:2290-2

> <Gold.Version>
5.8.1

> <Gold.Id.Protein>
6NUR|6NUR_protein|mol2

> <Gold.PLP.Fitness>
49.4967

> <Gold.PLP.PLP>
-45.9588

> <Gold.PLP.part.hbond>
-2.0333

> <Gold.PLP.part.metal>
0.0000

> <Gold.PLP.part.buried>
-7.2868

> <Gold.PLP.part.nonpolar>
-37.0695

> <Gold.PLP.part.repulsive>
0.3291

> <Gold.PLP.ligand.clash>
0.0000

> <Gold.PLP.ligand.torsion>
1.1475

> <Gold.PLP.Chemscore.Hbond>
0.9140

> <Gold.PLP.Chemscore.CHOScore>
1.0000

> <Gold.PLP.Chemscore.Metal>
0.0000

> <Gold.Chemscore.Hbonds>
donor molecule, donor type, donor heavy atom, donor atom, acceptor molecule, acceptor atom, score
      P1  H  7989  7998       L1     8  0.50
      P1  H  8011  8017       L1    10  0.46
      L1  C     4    24       P1  8028  0.99

> <Gold.PLP.Chemscore.Internal.Correction>
0.0909

> <Gold.Rescore>
     Score         DG    S(hbond)    S(metal)    S(lipo)     H(rot)  DE(clash)    DE(int)     intcor
     10.69     -12.57       0.54        0.00     101.08       2.55       0.22       1.66       ----

> <Gold.Chemscore.Fitness>
10.6864

> <Gold.Chemscore.DG>
-12.5732

> <Gold.Chemscore.ZeroCoef>
-5.4800

> <Gold.Chemscore.Hbond>
0.5380

> <Gold.Chemscore.Metal>
0.0000

> <Gold.Chemscore.Lipo>
101.0786

> <Gold.Chemscore.Internal_Hbond>
0.0000

> <Gold.Chemscore.DEClash>
0.2224

> <Gold.Chemscore.DEInternal>
1.6645

> <Gold.Chemscore.Rot>
2.5507

> <Gold.Chemscore.Internal.Correction>
   9.000000E+99

> <Gold.Chemscore.Hbonds>
donor molecule, donor type, donor heavy atom, donor atom, acceptor molecule, acceptor atom, score
      P1  H  7989  7998       L1     8  0.01
      P1  H  8011  8017       L1    10  0.18

> <Gold.Chemscore.Hbond.Weighted>
-1.7969

> <Gold.Chemscore.Metal.Weighted>
-0.0000

> <Gold.Chemscore.Lipo.Weighted>
-11.8262

> <Gold.Chemscore.Internal_Hbond.Weighted>
0.0000

> <Gold.Chemscore.DEClash.Weighted>
0.2224

> <Gold.Chemscore.DEInternal.Weighted>
1.6645

> <Gold.Chemscore.Rot.Weighted>
6.5298

> <Gold.Chemscore.Internal.Correction.Weighted>
   9.000000E+99

> <Gold.Protein.RotatedTorsions>
[ 6907 6896 6895 6894 ] final -155.78 input  -60.11 | X-H torsion
[ 7974 7965 7964 7962 ] final  152.95 input  175.53 | X-H torsion
[ 8008 7997 7996 7995 ] final   64.34 input   59.86 | X-H torsion
[ 10167 10162 10161 10158 ] final -135.30 input  -65.29 | X-H torsion
[ 10718 10713 10712 10709 ] final   43.13 input   66.30 | X-H torsion
[ 10763 10752 10751 10750 ] final  179.21 input  -60.55 | X-H torsion
[ 11005 11000 10999 10996 ] final  167.47 input  -57.11 | X-H torsion

> <Gold.Protein.ActiveResidues>
 VAL166  LYS551  ARG553  GLY616  TRP617  ASP618  TYR619  PRO620  LYS621  CYS622 
 ASP623  PHE694  ASN695  SER759  ASP760  ASP761  ALA762  ILE779  LEU786  VAL792 
 PHE793  MET794  SER795  GLU796  ALA797  LYS798  CYS799  TRP800  GLU811  SER814 

> <Gold.Protein.RotatedAtoms>
  151.2777  133.4224  159.2624 H   0  0  0  0  0  0  0  0  0  0  0  0  # atno 6907 bound_to 6896
  151.0388  134.9593  159.8161 H   0  0  0  0  0  0  0  0  0  0  0  0  # atno 6908 bound_to 6896
  152.5361  134.2736  159.9033 H   0  0  0  0  0  0  0  0  0  0  0  0  # atno 6909 bound_to 6896
  144.8187  139.6736  143.6110 H   0  0  0  0  0  0  0  0  0  0  0  0  # atno 7974 bound_to 7965
  155.6444  140.3497  155.4726 H   0  0  0  0  0  0  0  0  0  0  0  0  # atno 8008 bound_to 7997
  155.9899  140.1191  157.0671 H   0  0  0  0  0  0  0  0  0  0  0  0  # atno 8009 bound_to 7997
  154.4216  140.1121  156.5537 H   0  0  0  0  0  0  0  0  0  0  0  0  # atno 8010 bound_to 7997
  139.8793  143.6860  152.2629 H   0  0  0  0  0  0  0  0  0  0  0  0  # atno 10167 bound_to 10162
  157.4125  130.7922  149.7443 H   0  0  0  0  0  0  0  0  0  0  0  0  # atno 10718 bound_to 10713
  154.5177  135.2792  155.1289 H   0  0  0  0  0  0  0  0  0  0  0  0  # atno 10763 bound_to 10752
  154.2859  135.6276  153.5369 H   0  0  0  0  0  0  0  0  0  0  0  0  # atno 10764 bound_to 10752
  152.9931  135.5662  154.5658 H   0  0  0  0  0  0  0  0  0  0  0  0  # atno 10765 bound_to 10752
  140.2772  134.7780  157.3726 H   0  0  0  0  0  0  0  0  0  0  0  0  # atno 11005 bound_to 11000
  146.2492  139.6163  142.9439 LP  0  0  0  0  0  0  0  0  0  0  0  0  # atno 17320 bound_to 7965
  145.5154  141.0434  143.2465 LP  0  0  0  0  0  0  0  0  0  0  0  0  # atno 17321 bound_to 7965
  139.7211  144.7602  151.0953 LP  0  0  0  0  0  0  0  0  0  0  0  0  # atno 17342 bound_to 10162
  140.7747  143.5206  150.9541 LP  0  0  0  0  0  0  0  0  0  0  0  0  # atno 17343 bound_to 10162
  155.9855  130.3982  150.3259 LP  0  0  0  0  0  0  0  0  0  0  0  0  # atno 17370 bound_to 10713
  157.1399  131.0293  151.2932 LP  0  0  0  0  0  0  0  0  0  0  0  0  # atno 17371 bound_to 10713
  140.1318  134.5086  155.8100 LP  0  0  0  0  0  0  0  0  0  0  0  0  # atno 17394 bound_to 11000
  141.2168  133.6792  156.7052 LP  0  0  0  0  0  0  0  0  0  0  0  0  # atno 17395 bound_to 11000

$$$$
