AV-unprocessed.smi:259|AV-procd|sdf|1973|dock9
  -GOLD-   2262021143D 1   1.00000     0.00000
 Structure written by MMmdl.
 54 57  0  0  0  0  0  0  0  0  1 V2000
  146.0561  133.7084  151.6586 C   0  0  0  0  0  0  0  0  0  0  0  0
  147.2076  132.9582  152.1357 N   0  0  0  0  0  0  0  0  0  0  0  0
  147.6759  133.0128  153.3909 C   0  0  0  0  0  0  0  0  0  0  0  0
  147.1667  133.7150  154.2643 O   0  0  0  0  0  0  0  0  0  0  0  0
  148.9147  132.1544  153.6949 C   0  0  0  0  0  0  0  0  0  0  0  0
  149.4877  132.2642  155.1350 C   0  0  1  0  0  0  0  0  0  0  0  0
  148.4087  132.1528  156.0470 O   0  0  0  0  0  0  0  0  0  0  0  0
  150.5520  131.1757  155.4348 C   0  0  0  0  0  0  0  0  0  0  0  0
  151.2760  131.4151  156.7700 C   0  0  0  0  0  0  0  0  0  0  0  0
  151.8531  132.8346  156.8336 C   0  0  0  0  0  0  0  0  0  0  0  0
  150.7993  133.8115  156.5956 N   0  0  0  0  0  0  0  0  0  0  0  0
  151.1568  135.0723  156.9147 C   0  0  0  0  0  0  0  0  0  0  0  0
  152.4829  135.3269  157.0313 N   0  0  0  0  0  0  0  0  0  0  0  0
  152.9010  136.5562  157.3477 C   0  0  0  0  0  0  0  0  0  0  0  0
  152.1742  137.6516  157.5794 N   0  0  0  0  0  0  0  0  0  0  0  0
  150.8398  137.3988  157.4511 C   0  0  0  0  0  0  0  0  0  0  0  0
  150.2475  136.1476  157.1219 C   0  0  0  0  0  0  0  0  0  0  0  0
  148.8648  136.2767  157.0733 N   0  0  0  0  0  0  0  0  0  0  0  0
  148.6514  137.5309  157.3642 C   0  0  0  0  0  0  0  0  0  0  0  0
  149.7826  138.2804  157.5975 N   0  0  0  0  0  0  0  0  0  0  0  0
  149.8390  139.6938  157.9380 C   0  0  0  0  0  0  0  0  0  0  0  0
  150.3529  140.5900  156.7958 C   0  0  0  0  0  0  0  0  0  0  0  0
  150.1917  142.0660  157.2140 C   0  0  0  0  0  0  0  0  0  0  0  0
  150.5155  142.9631  156.1705 O   0  0  0  0  0  0  0  0  0  0  0  0
  151.7114  140.2037  156.1928 C   0  0  0  0  0  0  0  0  0  0  0  0
  151.1650  140.1259  154.8577 O   0  0  0  0  0  0  0  0  0  0  0  0
  149.8295  140.2182  155.4011 C   0  0  0  0  0  0  0  0  0  0  0  0
  150.0849  133.6789  155.3272 C   0  0  0  0  0  0  0  0  0  0  0  0
  145.8583  133.4616  150.6156 H   0  0  0  0  0  0  0  0  0  0  0  0
  146.2374  134.7819  151.7269 H   0  0  0  0  0  0  0  0  0  0  0  0
  145.1659  133.4674  152.2409 H   0  0  0  0  0  0  0  0  0  0  0  0
  147.6804  132.3639  151.4702 H   0  0  0  0  0  0  0  0  0  0  0  0
  148.6623  131.1112  153.4970 H   0  0  0  0  0  0  0  0  0  0  0  0
  149.6865  132.4125  152.9684 H   0  0  0  0  0  0  0  0  0  0  0  0
  148.6719  132.5372  156.8694 H   0  0  0  0  0  0  0  0  0  0  0  0
  150.1029  130.1820  155.4425 H   0  0  0  0  0  0  0  0  0  0  0  0
  151.2927  131.1694  154.6339 H   0  0  0  0  0  0  0  0  0  0  0  0
  150.5815  131.2660  157.5977 H   0  0  0  0  0  0  0  0  0  0  0  0
  152.0728  130.6824  156.9000 H   0  0  0  0  0  0  0  0  0  0  0  0
  152.3105  133.0055  157.8094 H   0  0  0  0  0  0  0  0  0  0  0  0
  152.6374  132.9564  156.0851 H   0  0  0  0  0  0  0  0  0  0  0  0
  153.9710  136.6796  157.4266 H   0  0  0  0  0  0  0  0  0  0  0  0
  147.6550  137.9452  157.4150 H   0  0  0  0  0  0  0  0  0  0  0  0
  148.8365  139.9986  158.2409 H   0  0  0  0  0  0  0  0  0  0  0  0
  150.4616  139.8118  158.8256 H   0  0  0  0  0  0  0  0  0  0  0  0
  149.1681  142.2701  157.5297 H   0  0  0  0  0  0  0  0  0  0  0  0
  150.8382  142.3103  158.0569 H   0  0  0  0  0  0  0  0  0  0  0  0
  149.9184  143.6947  156.2066 H   0  0  0  0  0  0  0  0  0  0  0  0
  152.4790  140.9725  156.2886 H   0  0  0  0  0  0  0  0  0  0  0  0
  152.0887  139.2364  156.5259 H   0  0  0  0  0  0  0  0  0  0  0  0
  149.3122  139.2581  155.3636 H   0  0  0  0  0  0  0  0  0  0  0  0
  149.2324  140.9941  154.9208 H   0  0  0  0  0  0  0  0  0  0  0  0
  150.7828  133.8800  154.5142 H   0  0  0  0  0  0  0  0  0  0  0  0
  149.3012  134.4359  155.2618 H   0  0  0  0  0  0  0  0  0  0  0  0
  1  2  1  0  0  0  0
  1 29  1  0  0  0  0
  1 30  1  0  0  0  0
  1 31  1  0  0  0  0
  2  3  1  0  0  0  0
  2 32  1  0  0  0  0
  3  4  2  0  0  0  0
  3  5  1  0  0  0  0
  5  6  1  0  0  0  0
  5 33  1  0  0  0  0
  5 34  1  0  0  0  0
  6 28  1  0  0  0  0
  6  7  1  0  0  0  0
  6  8  1  0  0  0  0
  7 35  1  0  0  0  0
  8  9  1  0  0  0  0
  8 36  1  0  0  0  0
  8 37  1  0  0  0  0
  9 10  1  0  0  0  0
  9 38  1  0  0  0  0
  9 39  1  0  0  0  0
 10 11  1  0  0  0  0
 10 40  1  0  0  0  0
 10 41  1  0  0  0  0
 11 12  1  0  0  0  0
 11 28  1  0  0  0  0
 12 17  1  0  0  0  0
 12 13  2  0  0  0  0
 13 14  1  0  0  0  0
 14 15  2  0  0  0  0
 14 42  1  0  0  0  0
 15 16  1  0  0  0  0
 16 20  1  0  0  0  0
 16 17  2  0  0  0  0
 17 18  1  0  0  0  0
 18 19  2  0  0  0  0
 19 20  1  0  0  0  0
 19 43  1  0  0  0  0
 20 21  1  0  0  0  0
 21 22  1  0  0  0  0
 21 44  1  0  0  0  0
 21 45  1  0  0  0  0
 22 27  1  0  0  0  0
 22 23  1  0  0  0  0
 22 25  1  0  0  0  0
 23 24  1  0  0  0  0
 23 46  1  0  0  0  0
 23 47  1  0  0  0  0
 24 48  1  0  0  0  0
 25 26  1  0  0  0  0
 25 49  1  0  0  0  0
 25 50  1  0  0  0  0
 26 27  1  0  0  0  0
 27 51  1  0  0  0  0
 27 52  1  0  0  0  0
 28 53  1  0  0  0  0
 28 54  1  0  0  0  0
M  END
> <s_m_source_file>
AV-unprocessed.smi

> <i_m_source_file_index>
259

> <i_lp_mmshare_version>
43012

> <i_f3d_flags>
0

> <s_epik_input>
W0NIM11bTkhdQyg9TylbQ0gyXVtDQEBdMShbT0hdKVtDSDJdW0NIMl1bQ0gyXU4oW0NIMl0xKWMobltjSF1uMiljKGMyMyluW2NIXW4zW0NIMl1DNChbQ0gyXVtPSF0pW0NIMl1PW0NIMl00

> <s_epik_cmdline>
J2VwaWtfcHl0aG9uJywgJy1waCcsICc3LjAnLCAnLXRuJywgJzgnLCAnLW1hJywgJzIwMCcsICctbWV0YWxfYmluZGluZycsICctaW1hZScsICc8aW5maWxlLm1hZT4nLCAnLW9tYWUnLCAnPG91dGZpbGUubWFlPic=

> <r_lp_tautomer_probability>
1

> <r_epik_Ionization_Penalty>
0.00366363

> <r_epik_Ionization_Penalty_Charging>
0

> <r_epik_Ionization_Penalty_Neutral>
0.00366363

> <r_epik_State_Penalty>
0.00243014

> <r_epik_Charging_Adjusted_Penalty>
0.00243014

> <i_epik_Tot_Q>
0

> <i_epik_Tot_abs_Q>
0

> <r_epik_Metal_State_Penalty>
-0

> <b_epik_Metal_Only>
0

> <s_lp_Force_Field>
OPLS_2005

> <r_lp_Energy>
40.2539

> <b_lp_Chiralities_Consistent>
1

> <s_lp_Variant>
AV-unprocessed.smi:259-1

> <Gold.Version>
5.8.1

> <Gold.Id.Protein>
6NUR|6NUR_protein|mol2

> <Gold.PLP.Fitness>
45.2543

> <Gold.PLP.PLP>
-35.0874

> <Gold.PLP.part.hbond>
-4.3823

> <Gold.PLP.part.metal>
0.0000

> <Gold.PLP.part.buried>
-5.4972

> <Gold.PLP.part.nonpolar>
-24.8554

> <Gold.PLP.part.repulsive>
0.1715

> <Gold.PLP.ligand.clash>
0.0000

> <Gold.PLP.ligand.torsion>
0.6835

> <Gold.PLP.Chemscore.Hbond>
3.6500

> <Gold.PLP.Chemscore.CHOScore>
0.0000

> <Gold.PLP.Chemscore.Metal>
0.0000

> <Gold.Chemscore.Hbonds>
donor molecule, donor type, donor heavy atom, donor atom, acceptor molecule, acceptor atom, score
      L1  H     2    32       P1 10747  0.29
      L1  H    24    48       P1  8028  1.00
      P1  H  7989  7998       L1    26  1.00
      P1  H 10752 10763       L1    13  0.55

> <Gold.PLP.Chemscore.Internal.Correction>
0.5840

> <Gold.Rescore>
     Score         DG    S(hbond)    S(metal)    S(lipo)     H(rot)  DE(clash)    DE(int)     intcor
     11.88     -12.72       2.97        0.00      66.51       4.09       0.01       0.83       ----

> <Gold.Chemscore.Fitness>
11.8819

> <Gold.Chemscore.DG>
-12.7210

> <Gold.Chemscore.ZeroCoef>
-5.4800

> <Gold.Chemscore.Hbond>
2.9734

> <Gold.Chemscore.Metal>
0.0000

> <Gold.Chemscore.Lipo>
66.5097

> <Gold.Chemscore.Internal_Hbond>
0.0000

> <Gold.Chemscore.DEClash>
0.0089

> <Gold.Chemscore.DEInternal>
0.8302

> <Gold.Chemscore.Rot>
4.0906

> <Gold.Chemscore.Internal.Correction>
   9.000000E+99

> <Gold.Chemscore.Hbonds>
donor molecule, donor type, donor heavy atom, donor atom, acceptor molecule, acceptor atom, score
      L1  H     2    32       P1 10747  0.29
      L1  H    24    48       P1  8028  0.94
      P1  H  7989  7998       L1    26  0.99
      P1  H 10752 10763       L1    13  0.03

> <Gold.Chemscore.Hbond.Weighted>
-9.9313

> <Gold.Chemscore.Metal.Weighted>
-0.0000

> <Gold.Chemscore.Lipo.Weighted>
-7.7816

> <Gold.Chemscore.Internal_Hbond.Weighted>
0.0000

> <Gold.Chemscore.DEClash.Weighted>
0.0089

> <Gold.Chemscore.DEInternal.Weighted>
0.8302

> <Gold.Chemscore.Rot.Weighted>
10.4719

> <Gold.Chemscore.Internal.Correction.Weighted>
   9.000000E+99

> <Gold.Protein.RotatedTorsions>
[ 6907 6896 6895 6894 ] final  -24.76 input  -60.11 | X-H torsion
[ 7974 7965 7964 7962 ] final  146.01 input  175.53 | X-H torsion
[ 8008 7997 7996 7995 ] final  133.87 input   59.86 | X-H torsion
[ 10167 10162 10161 10158 ] final  157.59 input  -65.29 | X-H torsion
[ 10718 10713 10712 10709 ] final -124.58 input   66.30 | X-H torsion
[ 10763 10752 10751 10750 ] final  119.02 input  -60.55 | X-H torsion
[ 11005 11000 10999 10996 ] final  -21.97 input  -57.11 | X-H torsion

> <Gold.Protein.ActiveResidues>
 VAL166  LYS551  ARG553  GLY616  TRP617  ASP618  TYR619  PRO620  LYS621  CYS622 
 ASP623  PHE694  ASN695  SER759  ASP760  ASP761  ALA762  ILE779  LEU786  VAL792 
 PHE793  MET794  SER795  GLU796  ALA797  LYS798  CYS799  TRP800  GLU811  SER814 

> <Gold.Protein.RotatedAtoms>
  151.1849  135.0377  159.8807 H   0  0  0  0  0  0  0  0  0  0  0  0  # atno 6907 bound_to 6896
  152.5443  134.1021  159.8332 H   0  0  0  0  0  0  0  0  0  0  0  0  # atno 6908 bound_to 6896
  151.1143  133.5103  159.2636 H   0  0  0  0  0  0  0  0  0  0  0  0  # atno 6909 bound_to 6896
  144.8706  139.5852  143.5888 H   0  0  0  0  0  0  0  0  0  0  0  0  # atno 7974 bound_to 7965
  156.2995  140.2510  156.3324 H   0  0  0  0  0  0  0  0  0  0  0  0  # atno 8008 bound_to 7997
  154.9132  140.0403  157.1977 H   0  0  0  0  0  0  0  0  0  0  0  0  # atno 8009 bound_to 7997
  154.8384  140.2887  155.5679 H   0  0  0  0  0  0  0  0  0  0  0  0  # atno 8010 bound_to 7997
  139.4823  144.4903  151.8317 H   0  0  0  0  0  0  0  0  0  0  0  0  # atno 10167 bound_to 10162
  156.1600  130.6595  151.0036 H   0  0  0  0  0  0  0  0  0  0  0  0  # atno 10718 bound_to 10713
  153.5766  135.3492  155.2858 H   0  0  0  0  0  0  0  0  0  0  0  0  # atno 10763 bound_to 10752
  154.8674  135.4172  154.2666 H   0  0  0  0  0  0  0  0  0  0  0  0  # atno 10764 bound_to 10752
  153.3443  135.7051  153.6911 H   0  0  0  0  0  0  0  0  0  0  0  0  # atno 10765 bound_to 10752
  140.8612  133.7787  156.0077 H   0  0  0  0  0  0  0  0  0  0  0  0  # atno 11005 bound_to 11000
  146.2927  139.7187  142.9149 LP  0  0  0  0  0  0  0  0  0  0  0  0  # atno 17320 bound_to 7965
  145.4138  141.0399  143.3002 LP  0  0  0  0  0  0  0  0  0  0  0  0  # atno 17321 bound_to 7965
  140.4387  144.2016  150.5890 LP  0  0  0  0  0  0  0  0  0  0  0  0  # atno 17342 bound_to 10162
  140.4705  143.2414  151.9095 LP  0  0  0  0  0  0  0  0  0  0  0  0  # atno 17343 bound_to 10162
  157.6725  131.0858  150.7577 LP  0  0  0  0  0  0  0  0  0  0  0  0  # atno 17370 bound_to 10713
  156.7641  130.4808  149.5431 LP  0  0  0  0  0  0  0  0  0  0  0  0  # atno 17371 bound_to 10713
  140.8680  134.2760  157.5204 LP  0  0  0  0  0  0  0  0  0  0  0  0  # atno 17394 bound_to 11000
  139.8707  134.9553  156.4201 LP  0  0  0  0  0  0  0  0  0  0  0  0  # atno 17395 bound_to 11000

$$$$
