AV-unprocessed.smi:1703|AV-procd|sdf|6858|dock10
  -GOLD-   22720 8 43D 1   1.00000     0.00000
 Structure written by MMmdl.
 48 50  0  0  0  0  0  0  0  0  1 V2000
  145.4003  144.9847  153.2436 C   0  0  0  0  0  0  0  0  0  0  0  0
  145.3213  143.7915  154.2014 C   0  0  1  0  0  0  0  0  0  0  0  0
  146.6301  142.9815  154.2269 C   0  0  0  0  0  0  0  0  0  0  0  0
  146.5829  141.8959  155.1985 N   0  0  0  0  0  0  0  0  0  0  0  0
  147.8232  141.1195  155.1701 C   0  0  0  0  0  0  0  0  0  0  0  0
  148.8766  141.5113  156.2299 C   0  0  1  0  0  0  0  0  0  0  0  0
  148.7593  140.6247  157.3235 O   0  0  0  0  0  0  0  0  0  0  0  0
  150.3294  141.4240  155.7188 C   0  0  0  0  0  0  0  0  0  0  0  0
  151.2767  141.0236  156.7510 N   0  0  0  0  0  0  0  0  0  0  0  0
  151.9898  139.8718  156.8326 C   0  0  0  0  0  0  0  0  0  0  0  0
  151.8958  138.7958  155.7944 C   0  0  0  0  0  0  0  0  0  0  0  0
  152.1919  139.2649  154.4964 O   0  0  0  0  0  0  0  0  0  0  0  0
  152.7918  139.7592  157.8920 N   0  0  0  0  0  0  0  0  0  0  0  0
  152.5879  140.9531  158.5559 C   0  0  0  0  0  0  0  0  0  0  0  0
  153.1522  141.4450  159.7545 C   0  0  0  0  0  0  0  0  0  0  0  0
  152.7864  142.7146  160.2478 C   0  0  0  0  0  0  0  0  0  0  0  0
  151.8530  143.5090  159.5511 C   0  0  0  0  0  0  0  0  0  0  0  0
  151.2795  143.0383  158.3542 C   0  0  0  0  0  0  0  0  0  0  0  0
  151.6474  141.7697  157.8662 C   0  0  0  0  0  0  0  0  0  0  0  0
  146.3005  142.4575  156.5186 C   0  0  0  0  0  0  0  0  0  0  0  0
  145.0131  143.3061  156.5423 C   0  0  2  0  0  0  0  0  0  0  0  0
  143.7278  142.4629  156.4821 C   0  0  0  0  0  0  0  0  0  0  0  0
  145.0487  144.2917  155.5091 O   0  0  0  0  0  0  0  0  0  0  0  0
  145.5989  144.6568  152.2230 H   0  0  0  0  0  0  0  0  0  0  0  0
  146.1942  145.6728  153.5356 H   0  0  0  0  0  0  0  0  0  0  0  0
  144.4627  145.5412  153.2372 H   0  0  0  0  0  0  0  0  0  0  0  0
  144.5008  143.1486  153.8813 H   0  0  0  0  0  0  0  0  0  0  0  0
  146.8176  142.5767  153.2314 H   0  0  0  0  0  0  0  0  0  0  0  0
  147.4664  143.6444  154.4555 H   0  0  0  0  0  0  0  0  0  0  0  0
  147.5901  140.0621  155.3062 H   0  0  0  0  0  0  0  0  0  0  0  0
  148.2569  141.1996  154.1731 H   0  0  0  0  0  0  0  0  0  0  0  0
  148.6975  142.5209  156.5943 H   0  0  0  0  0  0  0  0  0  0  0  0
  147.9381  140.1631  157.2442 H   0  0  0  0  0  0  0  0  0  0  0  0
  150.3977  140.7205  154.8884 H   0  0  0  0  0  0  0  0  0  0  0  0
  150.6451  142.3885  155.3189 H   0  0  0  0  0  0  0  0  0  0  0  0
  152.5931  137.9948  156.0422 H   0  0  0  0  0  0  0  0  0  0  0  0
  150.8999  138.3549  155.8019 H   0  0  0  0  0  0  0  0  0  0  0  0
  153.1307  139.3157  154.4029 H   0  0  0  0  0  0  0  0  0  0  0  0
  153.8685  140.8443  160.2952 H   0  0  0  0  0  0  0  0  0  0  0  0
  153.2241  143.0807  161.1649 H   0  0  0  0  0  0  0  0  0  0  0  0
  151.5775  144.4800  159.9358 H   0  0  0  0  0  0  0  0  0  0  0  0
  150.5631  143.6443  157.8198 H   0  0  0  0  0  0  0  0  0  0  0  0
  146.2112  141.6687  157.2639 H   0  0  0  0  0  0  0  0  0  0  0  0
  147.1388  143.0822  156.8317 H   0  0  0  0  0  0  0  0  0  0  0  0
  144.9903  143.8527  157.4854 H   0  0  0  0  0  0  0  0  0  0  0  0
  143.6581  141.8021  157.3464 H   0  0  0  0  0  0  0  0  0  0  0  0
  143.6889  141.8369  155.5907 H   0  0  0  0  0  0  0  0  0  0  0  0
  142.8436  143.1006  156.4822 H   0  0  0  0  0  0  0  0  0  0  0  0
  1  2  1  0  0  0  0
  1 24  1  0  0  0  0
  1 25  1  0  0  0  0
  1 26  1  0  0  0  0
  2 23  1  0  0  0  0
  2  3  1  0  0  0  0
  2 27  1  0  0  0  0
  3  4  1  0  0  0  0
  3 28  1  0  0  0  0
  3 29  1  0  0  0  0
  4  5  1  0  0  0  0
  4 20  1  0  0  0  0
  5  6  1  0  0  0  0
  5 30  1  0  0  0  0
  5 31  1  0  0  0  0
  6  7  1  0  0  0  0
  6  8  1  0  0  0  0
  6 32  1  0  0  0  0
  7 33  1  0  0  0  0
  8  9  1  0  0  0  0
  8 34  1  0  0  0  0
  8 35  1  0  0  0  0
  9 19  1  0  0  0  0
  9 10  1  0  0  0  0
 10 11  1  0  0  0  0
 10 13  2  0  0  0  0
 11 12  1  0  0  0  0
 11 36  1  0  0  0  0
 11 37  1  0  0  0  0
 12 38  1  0  0  0  0
 13 14  1  0  0  0  0
 14 19  2  0  0  0  0
 14 15  1  0  0  0  0
 15 16  2  0  0  0  0
 15 39  1  0  0  0  0
 16 17  1  0  0  0  0
 16 40  1  0  0  0  0
 17 18  2  0  0  0  0
 17 41  1  0  0  0  0
 18 19  1  0  0  0  0
 18 42  1  0  0  0  0
 20 21  1  0  0  0  0
 20 43  1  0  0  0  0
 20 44  1  0  0  0  0
 21 22  1  0  0  0  0
 21 23  1  0  0  0  0
 21 45  1  0  0  0  0
 22 46  1  0  0  0  0
 22 47  1  0  0  0  0
 22 48  1  0  0  0  0
M  END
> <s_m_source_file>
AV-unprocessed.smi

> <i_m_source_file_index>
1703

> <i_lp_mmshare_version>
43012

> <i_f3d_flags>
0

> <s_epik_input>
W0NIM11bQ0BASF0xW0NIMl1OKFtDSDJdW0NASF0oTzEpW0NIM10pW0NIMl1bQ0BIXShbT0hdKVtDSDJdbihjKG4yKVtDSDJdW09IXSljKGMyMylbY0hdW2NIXVtjSF1bY0hdMw==

> <s_epik_cmdline>
J2VwaWtfcHl0aG9uJywgJy1waCcsICc3LjAnLCAnLXRuJywgJzgnLCAnLW1hJywgJzIwMCcsICctbWV0YWxfYmluZGluZycsICctaW1hZScsICc8aW5maWxlLm1hZT4nLCAnLW9tYWUnLCAnPG91dGZpbGUubWFlPic=

> <r_epik_Ionization_Penalty>
0.307685

> <r_epik_Ionization_Penalty_Charging>
0

> <r_epik_Ionization_Penalty_Neutral>
0.307685

> <r_epik_State_Penalty>
0.277856

> <r_epik_Charging_Adjusted_Penalty>
0.277856

> <i_epik_Tot_Q>
0

> <i_epik_Tot_abs_Q>
0

> <r_epik_Metal_State_Penalty>
0.238959

> <b_epik_Metal_Only>
0

> <s_lp_Force_Field>
OPLS_2005

> <r_lp_Energy>
33.4596

> <b_lp_Chiralities_Consistent>
1

> <s_lp_Variant>
AV-unprocessed.smi:1703-6

> <Gold.Version>
5.8.1

> <Gold.Id.Protein>
6NUR|6NUR_protein|mol2

> <Gold.PLP.Fitness>
45.7177

> <Gold.PLP.PLP>
-43.5981

> <Gold.PLP.part.hbond>
-2.0000

> <Gold.PLP.part.metal>
0.0000

> <Gold.PLP.part.buried>
-4.4438

> <Gold.PLP.part.nonpolar>
-36.7612

> <Gold.PLP.part.repulsive>
0.2820

> <Gold.PLP.ligand.clash>
0.0000

> <Gold.PLP.ligand.torsion>
1.5032

> <Gold.PLP.Chemscore.Hbond>
1.6879

> <Gold.PLP.Chemscore.CHOScore>
0.0000

> <Gold.PLP.Chemscore.Metal>
0.0000

> <Gold.Chemscore.Hbonds>
donor molecule, donor type, donor heavy atom, donor atom, acceptor molecule, acceptor atom, score
      P1  H  7989  7998       L1    12  0.74
      P1  H  7997  8010       L1    13  0.96

> <Gold.PLP.Chemscore.Internal.Correction>
0.0624

> <Gold.Rescore>
     Score         DG    S(hbond)    S(metal)    S(lipo)     H(rot)  DE(clash)    DE(int)     intcor
     12.46     -14.26       0.89        0.00     112.69       2.88       0.19       1.61       ----

> <Gold.Chemscore.Fitness>
12.4588

> <Gold.Chemscore.DG>
-14.2586

> <Gold.Chemscore.ZeroCoef>
-5.4800

> <Gold.Chemscore.Hbond>
0.8866

> <Gold.Chemscore.Metal>
0.0000

> <Gold.Chemscore.Lipo>
112.6885

> <Gold.Chemscore.Internal_Hbond>
0.0000

> <Gold.Chemscore.DEClash>
0.1870

> <Gold.Chemscore.DEInternal>
1.6128

> <Gold.Chemscore.Rot>
2.8778

> <Gold.Chemscore.Internal.Correction>
   9.000000E+99

> <Gold.Chemscore.Hbonds>
donor molecule, donor type, donor heavy atom, donor atom, acceptor molecule, acceptor atom, score
      P1  H  7989  7998       L1    12  0.17
      P1  H  7997  8010       L1    13  0.12

> <Gold.Chemscore.Hbond.Weighted>
-2.9611

> <Gold.Chemscore.Metal.Weighted>
-0.0000

> <Gold.Chemscore.Lipo.Weighted>
-13.1846

> <Gold.Chemscore.Internal_Hbond.Weighted>
0.0000

> <Gold.Chemscore.DEClash.Weighted>
0.1870

> <Gold.Chemscore.DEInternal.Weighted>
1.6128

> <Gold.Chemscore.Rot.Weighted>
7.3671

> <Gold.Chemscore.Internal.Correction.Weighted>
   9.000000E+99

> <Gold.Protein.RotatedTorsions>
[ 6907 6896 6895 6894 ] final -171.97 input  -60.11 | X-H torsion
[ 7974 7965 7964 7962 ] final -120.26 input  175.53 | X-H torsion
[ 8008 7997 7996 7995 ] final   28.60 input   59.86 | X-H torsion
[ 10167 10162 10161 10158 ] final -103.33 input  -65.29 | X-H torsion
[ 10718 10713 10712 10709 ] final -139.95 input   66.30 | X-H torsion
[ 10763 10752 10751 10750 ] final  -36.85 input  -60.55 | X-H torsion
[ 11005 11000 10999 10996 ] final  176.76 input  -57.11 | X-H torsion

> <Gold.Protein.ActiveResidues>
 VAL166  LYS551  ARG553  GLY616  TRP617  ASP618  TYR619  PRO620  LYS621  CYS622 
 ASP623  PHE694  ASN695  SER759  ASP760  ASP761  ALA762  ILE779  LEU786  VAL792 
 PHE793  MET794  SER795  GLU796  ALA797  LYS798  CYS799  TRP800  GLU811  SER814 

> <Gold.Protein.RotatedAtoms>
  151.5324  133.3447  159.2920 H   0  0  0  0  0  0  0  0  0  0  0  0  # atno 6907 bound_to 6896
  150.8585  134.7933  159.7076 H   0  0  0  0  0  0  0  0  0  0  0  0  # atno 6908 bound_to 6896
  152.4612  134.5189  159.9828 H   0  0  0  0  0  0  0  0  0  0  0  0  # atno 6909 bound_to 6896
  145.0533  140.8235  143.4196 H   0  0  0  0  0  0  0  0  0  0  0  0  # atno 7974 bound_to 7965
  155.0612  140.3190  155.4660 H   0  0  0  0  0  0  0  0  0  0  0  0  # atno 8008 bound_to 7997
  156.2812  140.2128  156.5683 H   0  0  0  0  0  0  0  0  0  0  0  0  # atno 8009 bound_to 7997
  154.7131  140.0496  157.0556 H   0  0  0  0  0  0  0  0  0  0  0  0  # atno 8010 bound_to 7997
  140.2211  143.3675  152.0968 H   0  0  0  0  0  0  0  0  0  0  0  0  # atno 10167 bound_to 10162
  156.3166  130.7511  151.1599 H   0  0  0  0  0  0  0  0  0  0  0  0  # atno 10718 bound_to 10713
  153.8865  135.6816  153.4763 H   0  0  0  0  0  0  0  0  0  0  0  0  # atno 10763 bound_to 10752
  153.1204  135.4742  154.9184 H   0  0  0  0  0  0  0  0  0  0  0  0  # atno 10764 bound_to 10752
  154.7643  135.3220  154.8269 H   0  0  0  0  0  0  0  0  0  0  0  0  # atno 10765 bound_to 10752
  140.3767  134.6982  157.4426 H   0  0  0  0  0  0  0  0  0  0  0  0  # atno 11005 bound_to 11000
  145.1499  139.2520  143.5446 LP  0  0  0  0  0  0  0  0  0  0  0  0  # atno 17320 bound_to 7965
  146.3519  140.1199  142.8600 LP  0  0  0  0  0  0  0  0  0  0  0  0  # atno 17321 bound_to 7965
  139.5144  144.6947  151.5664 LP  0  0  0  0  0  0  0  0  0  0  0  0  # atno 17342 bound_to 10162
  140.6254  143.9179  150.6560 LP  0  0  0  0  0  0  0  0  0  0  0  0  # atno 17343 bound_to 10162
  157.7403  131.0519  150.5176 LP  0  0  0  0  0  0  0  0  0  0  0  0  # atno 17370 bound_to 10713
  156.5323  130.4188  149.6195 LP  0  0  0  0  0  0  0  0  0  0  0  0  # atno 17371 bound_to 10713
  140.0510  134.6131  155.8862 LP  0  0  0  0  0  0  0  0  0  0  0  0  # atno 17394 bound_to 11000
  141.1937  133.6580  156.5560 LP  0  0  0  0  0  0  0  0  0  0  0  0  # atno 17395 bound_to 11000

$$$$
