AV-unprocessed.smi:2642|AV-procd|sdf|10275|dock6
  -GOLD-   2272014283D 1   1.00000     0.00000
 Structure written by MMmdl.
 31 32  0  0  0  0  0  0  0  0  2 V2000
  151.2640  141.2606  156.7606 O   0  0  0  0  0  0  0  0  0  0  0  0
  150.4802  142.1861  156.5507 C   0  0  0  0  0  0  0  0  0  0  0  0
  149.6412  142.2233  155.5062 N   0  0  0  0  0  0  0  0  0  0  0  0
  149.5362  141.1958  154.4778 C   0  0  0  0  0  0  0  0  0  0  0  0
  148.3182  141.4358  153.5679 C   0  0  0  0  0  0  0  0  0  0  0  0
  147.0895  141.5911  154.3518 N   0  0  0  0  0  0  0  0  0  0  0  0
  146.2337  142.6087  154.2167 C   0  0  0  0  0  0  0  0  0  0  0  0
  146.3133  143.5681  153.4492 O   0  0  0  0  0  0  0  0  0  0  0  0
  145.1013  142.3828  155.1914 C   0  0  0  0  0  0  0  0  0  0  0  0
  145.4782  141.1371  155.8206 N   0  5  0  0  0  0  0  0  0  0  0  0
  146.6487  140.7224  155.2820 C   0  0  0  0  0  0  0  0  0  0  0  0
  147.2654  139.6955  155.5651 O   0  0  0  0  0  0  0  0  0  0  0  0
  150.3600  143.2907  157.3072 N   0  0  0  0  0  0  0  0  0  0  0  0
  151.0547  143.6291  158.5001 C   0  0  0  0  0  0  0  0  0  0  0  0
  152.0845  142.8449  159.0747 C   0  0  0  0  0  0  0  0  0  0  0  0
  152.6822  143.2809  160.2730 C   0  0  0  0  0  0  0  0  0  0  0  0
  152.2263  144.4793  160.8555 C   0  0  0  0  0  0  0  0  0  0  0  0
  151.2371  145.2295  160.3262 N   0  0  0  0  0  0  0  0  0  0  0  0
  150.6675  144.8043  159.1784 C   0  0  0  0  0  0  0  0  0  0  0  0
  149.0374  143.0261  155.4073 H   0  0  0  0  0  0  0  0  0  0  0  0
  150.4545  141.1510  153.8895 H   0  0  0  0  0  0  0  0  0  0  0  0
  149.4431  140.2326  154.9801 H   0  0  0  0  0  0  0  0  0  0  0  0
  148.4777  142.3254  152.9562 H   0  0  0  0  0  0  0  0  0  0  0  0
  148.2089  140.6106  152.8620 H   0  0  0  0  0  0  0  0  0  0  0  0
  145.0413  143.2176  155.8905 H   0  0  0  0  0  0  0  0  0  0  0  0
  144.1547  142.3240  154.6537 H   0  0  0  0  0  0  0  0  0  0  0  0
  149.7316  143.9993  156.9575 H   0  0  0  0  0  0  0  0  0  0  0  0
  152.4166  141.9180  158.6338 H   0  0  0  0  0  0  0  0  0  0  0  0
  153.4703  142.7067  160.7372 H   0  0  0  0  0  0  0  0  0  0  0  0
  152.6638  144.8416  161.7741 H   0  0  0  0  0  0  0  0  0  0  0  0
  149.8775  145.4278  158.7856 H   0  0  0  0  0  0  0  0  0  0  0  0
  1  2  2  0  0  0  0
  2  3  1  0  0  0  0
  2 13  1  0  0  0  0
  3  4  1  0  0  0  0
  3 20  1  0  0  0  0
  4  5  1  0  0  0  0
  4 21  1  0  0  0  0
  4 22  1  0  0  0  0
  5  6  1  0  0  0  0
  5 23  1  0  0  0  0
  5 24  1  0  0  0  0
  6 11  1  0  0  0  0
  6  7  1  0  0  0  0
  7  8  2  0  0  0  0
  7  9  1  0  0  0  0
  9 10  1  0  0  0  0
  9 25  1  0  0  0  0
  9 26  1  0  0  0  0
 10 11  1  0  0  0  0
 11 12  2  0  0  0  0
 13 14  1  0  0  0  0
 13 27  1  0  0  0  0
 14 19  1  0  0  0  0
 14 15  2  0  0  0  0
 15 16  1  0  0  0  0
 15 28  1  0  0  0  0
 16 17  2  0  0  0  0
 16 29  1  0  0  0  0
 17 18  1  0  0  0  0
 17 30  1  0  0  0  0
 18 19  2  0  0  0  0
 19 31  1  0  0  0  0
M  CHG  1  10  -1
M  END
> <s_m_source_file>
AV-unprocessed.smi

> <i_m_source_file_index>
2642

> <i_lp_mmshare_version>
43012

> <i_f3d_flags>
0

> <s_epik_input>
W2NIXTFuW2NIXVtjSF1bY0hdYzFbTkhdQyg9TylbTkhdW0NIMl1bQ0gyXU4yQyg9TylbQ0gyXVtOSF1DMj1P

> <s_epik_cmdline>
J2VwaWtfcHl0aG9uJywgJy1waCcsICc3LjAnLCAnLXRuJywgJzgnLCAnLW1hJywgJzIwMCcsICctbWV0YWxfYmluZGluZycsICctaW1hZScsICc8aW5maWxlLm1hZT4nLCAnLW9tYWUnLCAnPG91dGZpbGUubWFlPic=

> <r_lp_tautomer_probability>
1

> <r_epik_Ionization_Penalty>
5.82623

> <r_epik_Ionization_Penalty_Charging>
5.82164

> <r_epik_Ionization_Penalty_Neutral>
0.00459419

> <r_epik_State_Penalty>
5.8249

> <r_epik_Charging_Adjusted_Penalty>
11.6465

> <i_epik_Tot_Q>
-1

> <i_epik_Tot_abs_Q>
1

> <r_epik_Metal_State_Penalty>
1.79397

> <b_epik_Metal_Only>
1

> <s_lp_Force_Field>
OPLS_2005

> <r_lp_Energy>
16.7854

> <b_lp_Chiralities_Consistent>
1

> <s_lp_Variant>
AV-unprocessed.smi:2642-2

> <Gold.Version>
5.8.1

> <Gold.Id.Protein>
6NUR|6NUR_protein|mol2

> <Gold.PLP.Fitness>
43.0513

> <Gold.PLP.PLP>
-34.5366

> <Gold.PLP.part.hbond>
-3.0000

> <Gold.PLP.part.metal>
0.0000

> <Gold.PLP.part.buried>
-4.7224

> <Gold.PLP.part.nonpolar>
-28.0275

> <Gold.PLP.part.repulsive>
0.6881

> <Gold.PLP.ligand.clash>
0.0000

> <Gold.PLP.ligand.torsion>
0.1198

> <Gold.PLP.Chemscore.Hbond>
1.9280

> <Gold.PLP.Chemscore.CHOScore>
0.9862

> <Gold.PLP.Chemscore.Metal>
0.0000

> <Gold.Chemscore.Hbonds>
donor molecule, donor type, donor heavy atom, donor atom, acceptor molecule, acceptor atom, score
      L1  H     3    20       P1  8028  0.93
      L1  H    13    27       P1  8028  1.00
      L1  C    19    31       P1  8029  1.00

> <Gold.PLP.Chemscore.Internal.Correction>
0.0117

> <Gold.Rescore>
     Score         DG    S(hbond)    S(metal)    S(lipo)     H(rot)  DE(clash)    DE(int)     intcor
     13.75     -15.41       1.85        0.00      73.66       1.90       0.36       1.29       ----

> <Gold.Chemscore.Fitness>
13.7549

> <Gold.Chemscore.DG>
-15.4116

> <Gold.Chemscore.ZeroCoef>
-5.4800

> <Gold.Chemscore.Hbond>
1.8473

> <Gold.Chemscore.Metal>
0.0000

> <Gold.Chemscore.Lipo>
73.6575

> <Gold.Chemscore.Internal_Hbond>
0.0000

> <Gold.Chemscore.DEClash>
0.3619

> <Gold.Chemscore.DEInternal>
1.2949

> <Gold.Chemscore.Rot>
1.8969

> <Gold.Chemscore.Internal.Correction>
   9.000000E+99

> <Gold.Chemscore.Hbonds>
donor molecule, donor type, donor heavy atom, donor atom, acceptor molecule, acceptor atom, score
      L1  H     3    20       P1  8028  0.90
      L1  H    13    27       P1  8028  0.81

> <Gold.Chemscore.Hbond.Weighted>
-6.1698

> <Gold.Chemscore.Metal.Weighted>
-0.0000

> <Gold.Chemscore.Lipo.Weighted>
-8.6179

> <Gold.Chemscore.Internal_Hbond.Weighted>
0.0000

> <Gold.Chemscore.DEClash.Weighted>
0.3619

> <Gold.Chemscore.DEInternal.Weighted>
1.2949

> <Gold.Chemscore.Rot.Weighted>
4.8561

> <Gold.Chemscore.Internal.Correction.Weighted>
   9.000000E+99

> <Gold.Protein.RotatedTorsions>
[ 6907 6896 6895 6894 ] final  139.74 input  -60.11 | X-H torsion
[ 7974 7965 7964 7962 ] final   97.18 input  175.53 | X-H torsion
[ 8008 7997 7996 7995 ] final   35.28 input   59.86 | X-H torsion
[ 10167 10162 10161 10158 ] final  147.59 input  -65.29 | X-H torsion
[ 10718 10713 10712 10709 ] final    3.06 input   66.30 | X-H torsion
[ 10763 10752 10751 10750 ] final -165.88 input  -60.55 | X-H torsion
[ 11005 11000 10999 10996 ] final  114.69 input  -57.11 | X-H torsion

> <Gold.Protein.ActiveResidues>
 VAL166  LYS551  ARG553  GLY616  TRP617  ASP618  TYR619  PRO620  LYS621  CYS622 
 ASP623  PHE694  ASN695  SER759  ASP760  ASP761  ALA762  ILE779  LEU786  VAL792 
 PHE793  MET794  SER795  GLU796  ALA797  LYS798  CYS799  TRP800  GLU811  SER814 

> <Gold.Protein.RotatedAtoms>
  152.2513  133.5217  159.5326 H   0  0  0  0  0  0  0  0  0  0  0  0  # atno 6907 bound_to 6896
  150.7094  134.0956  159.3956 H   0  0  0  0  0  0  0  0  0  0  0  0  # atno 6908 bound_to 6896
  151.8876  135.0429  160.0545 H   0  0  0  0  0  0  0  0  0  0  0  0  # atno 6909 bound_to 6896
  145.4289  139.2313  143.3155 H   0  0  0  0  0  0  0  0  0  0  0  0  # atno 7974 bound_to 7965
  155.1685  140.3289  155.4397 H   0  0  0  0  0  0  0  0  0  0  0  0  # atno 8008 bound_to 7997
  156.2518  140.1948  156.6739 H   0  0  0  0  0  0  0  0  0  0  0  0  # atno 8009 bound_to 7997
  154.6354  140.0577  156.9769 H   0  0  0  0  0  0  0  0  0  0  0  0  # atno 8010 bound_to 7997
  139.4888  144.5744  151.6994 H   0  0  0  0  0  0  0  0  0  0  0  0  # atno 10167 bound_to 10162
  156.8722  130.5624  149.5657 H   0  0  0  0  0  0  0  0  0  0  0  0  # atno 10718 bound_to 10713
  154.6889  135.2967  154.9508 H   0  0  0  0  0  0  0  0  0  0  0  0  # atno 10763 bound_to 10752
  154.0478  135.6648  153.4801 H   0  0  0  0  0  0  0  0  0  0  0  0  # atno 10764 bound_to 10752
  153.0598  135.5122  154.7970 H   0  0  0  0  0  0  0  0  0  0  0  0  # atno 10765 bound_to 10752
  139.8988  134.9572  156.6930 H   0  0  0  0  0  0  0  0  0  0  0  0  # atno 11005 bound_to 11000
  146.2617  140.5024  142.8851 LP  0  0  0  0  0  0  0  0  0  0  0  0  # atno 17320 bound_to 7965
  144.8195  140.6526  143.6362 LP  0  0  0  0  0  0  0  0  0  0  0  0  # atno 17321 bound_to 7965
  140.5337  144.0689  150.6063 LP  0  0  0  0  0  0  0  0  0  0  0  0  # atno 17342 bound_to 10162
  140.3688  143.2866  152.0301 LP  0  0  0  0  0  0  0  0  0  0  0  0  # atno 17343 bound_to 10162
  156.0721  130.5751  150.9403 LP  0  0  0  0  0  0  0  0  0  0  0  0  # atno 17370 bound_to 10713
  157.6189  131.0931  150.8659 LP  0  0  0  0  0  0  0  0  0  0  0  0  # atno 17371 bound_to 10713
  140.7210  133.9141  155.8146 LP  0  0  0  0  0  0  0  0  0  0  0  0  # atno 17394 bound_to 11000
  141.0228  134.0866  157.4102 LP  0  0  0  0  0  0  0  0  0  0  0  0  # atno 17395 bound_to 11000

$$$$
