AV-unprocessed.smi:863|AV-procd|sdf|3984|dock2
  -GOLD-   22720 1463D 1   1.00000     0.00000
 Structure written by MMmdl.
 42 44  0  0  0  0  0  0  0  0  1 V2000
  156.1674  140.8159  163.3980 O   0  0  0  0  0  0  0  0  0  0  0  0
  155.9163  139.9222  162.5894 C   0  0  0  0  0  0  0  0  0  0  0  0
  156.5496  138.5404  162.7556 C   0  0  0  0  0  0  0  0  0  0  0  0
  155.5141  137.5445  163.2031 C   0  0  0  0  0  0  0  0  0  0  0  0
  154.7683  137.5306  164.4148 C   0  0  0  0  0  0  0  0  0  0  0  0
  153.9885  136.4165  164.2976 C   0  0  0  0  0  0  0  0  0  0  0  0
  154.2307  135.7892  163.1191 O   0  0  0  0  0  0  0  0  0  0  0  0
  155.2080  136.5147  162.4281 N   0  0  0  0  0  0  0  0  0  0  0  0
  155.0993  140.0843  161.5365 N   0  0  0  0  0  0  0  0  0  0  0  0
  154.3906  141.3159  161.2024 C   0  0  2  0  0  0  0  0  0  0  0  0
  153.5731  141.7879  162.4096 C   0  0  0  0  0  0  0  0  0  0  0  0
  152.7300  143.0165  162.0421 C   0  0  0  0  0  0  0  0  0  0  0  0
  151.8983  142.7331  160.9183 O   0  0  0  0  0  0  0  0  0  0  0  0
  152.5634  142.3375  159.7114 C   0  0  0  0  0  0  0  0  0  0  0  0
  151.4434  141.9428  158.7201 C   0  0  0  0  0  0  0  0  0  0  0  0
  150.5633  143.1367  158.3100 C   0  0  0  0  0  0  0  0  0  0  0  0
  151.4069  144.2781  157.7264 C   0  0  0  0  0  0  0  0  0  0  0  0
  152.5100  144.7003  158.7064 C   0  0  0  0  0  0  0  0  0  0  0  0
  153.3895  143.5031  159.1026 C   0  0  0  0  0  0  0  0  0  0  0  0
  153.4426  141.0982  160.0092 C   0  0  0  0  0  0  0  0  0  0  0  0
  157.0115  138.2301  161.8170 H   0  0  0  0  0  0  0  0  0  0  0  0
  157.3548  138.6034  163.4885 H   0  0  0  0  0  0  0  0  0  0  0  0
  154.8001  138.2291  165.2377 H   0  0  0  0  0  0  0  0  0  0  0  0
  153.2485  135.9583  164.9369 H   0  0  0  0  0  0  0  0  0  0  0  0
  154.9497  139.2932  160.9270 H   0  0  0  0  0  0  0  0  0  0  0  0
  155.1230  142.0864  160.9570 H   0  0  0  0  0  0  0  0  0  0  0  0
  152.9117  140.9885  162.7470 H   0  0  0  0  0  0  0  0  0  0  0  0
  154.2319  142.0236  163.2462 H   0  0  0  0  0  0  0  0  0  0  0  0
  152.0901  143.2875  162.8818 H   0  0  0  0  0  0  0  0  0  0  0  0
  153.3631  143.8824  161.8506 H   0  0  0  0  0  0  0  0  0  0  0  0
  151.8873  141.5076  157.8235 H   0  0  0  0  0  0  0  0  0  0  0  0
  150.8148  141.1648  159.1552 H   0  0  0  0  0  0  0  0  0  0  0  0
  149.8204  142.8150  157.5797 H   0  0  0  0  0  0  0  0  0  0  0  0
  150.0065  143.4987  159.1753 H   0  0  0  0  0  0  0  0  0  0  0  0
  151.8558  143.9580  156.7852 H   0  0  0  0  0  0  0  0  0  0  0  0
  150.7695  145.1309  157.4917 H   0  0  0  0  0  0  0  0  0  0  0  0
  153.1258  145.4792  158.2564 H   0  0  0  0  0  0  0  0  0  0  0  0
  152.0617  145.1391  159.5987 H   0  0  0  0  0  0  0  0  0  0  0  0
  154.1730  143.8402  159.7795 H   0  0  0  0  0  0  0  0  0  0  0  0
  153.9111  143.1444  158.2142 H   0  0  0  0  0  0  0  0  0  0  0  0
  154.0097  140.8205  159.1197 H   0  0  0  0  0  0  0  0  0  0  0  0
  152.7952  140.2481  160.2309 H   0  0  0  0  0  0  0  0  0  0  0  0
  1  2  2  0  0  0  0
  2  3  1  0  0  0  0
  2  9  1  0  0  0  0
  3  4  1  0  0  0  0
  3 21  1  0  0  0  0
  3 22  1  0  0  0  0
  4  8  2  0  0  0  0
  4  5  1  0  0  0  0
  5  6  2  0  0  0  0
  5 23  1  0  0  0  0
  6  7  1  0  0  0  0
  6 24  1  0  0  0  0
  7  8  1  0  0  0  0
  9 10  1  0  0  0  0
  9 25  1  0  0  0  0
 10 20  1  0  0  0  0
 10 11  1  0  0  0  0
 10 26  1  0  0  0  0
 11 12  1  0  0  0  0
 11 27  1  0  0  0  0
 11 28  1  0  0  0  0
 12 13  1  0  0  0  0
 12 29  1  0  0  0  0
 12 30  1  0  0  0  0
 13 14  1  0  0  0  0
 14 19  1  0  0  0  0
 14 15  1  0  0  0  0
 14 20  1  0  0  0  0
 15 16  1  0  0  0  0
 15 31  1  0  0  0  0
 15 32  1  0  0  0  0
 16 17  1  0  0  0  0
 16 33  1  0  0  0  0
 16 34  1  0  0  0  0
 17 18  1  0  0  0  0
 17 35  1  0  0  0  0
 17 36  1  0  0  0  0
 18 19  1  0  0  0  0
 18 37  1  0  0  0  0
 18 38  1  0  0  0  0
 19 39  1  0  0  0  0
 19 40  1  0  0  0  0
 20 41  1  0  0  0  0
 20 42  1  0  0  0  0
M  END
> <s_m_source_file>
AV-unprocessed.smi

> <i_m_source_file_index>
863

> <i_lp_mmshare_version>
43012

> <i_f3d_flags>
0

> <s_epik_input>
bjFvW2NIXVtjSF1jMVtDSDJdQyg9TylbTkhdW0NAQEhdKFtDSDJdMilbQ0gyXVtDSDJdT0MyM1tDSDJdW0NIMl1bQ0gyXVtDSDJdW0NIMl0z

> <s_epik_cmdline>
J2VwaWtfcHl0aG9uJywgJy1waCcsICc3LjAnLCAnLXRuJywgJzgnLCAnLW1hJywgJzIwMCcsICctbWV0YWxfYmluZGluZycsICctaW1hZScsICc8aW5maWxlLm1hZT4nLCAnLW9tYWUnLCAnPG91dGZpbGUubWFlPic=

> <r_lp_tautomer_probability>
1

> <r_epik_Ionization_Penalty>
1.10177e-07

> <r_epik_Ionization_Penalty_Charging>
0

> <r_epik_Ionization_Penalty_Neutral>
1.10177e-07

> <r_epik_State_Penalty>
-0

> <r_epik_Charging_Adjusted_Penalty>
0

> <i_epik_Tot_Q>
0

> <i_epik_Tot_abs_Q>
0

> <r_epik_Metal_State_Penalty>
-0

> <b_epik_Metal_Only>
0

> <s_lp_Force_Field>
OPLS_2005

> <r_lp_Energy>
15.5763

> <b_lp_Chiralities_Consistent>
1

> <s_lp_Variant>
AV-unprocessed.smi:863-1

> <Gold.Version>
5.8.1

> <Gold.Id.Protein>
6NUR|6NUR_protein|mol2

> <Gold.PLP.Fitness>
46.4348

> <Gold.PLP.PLP>
-46.7777

> <Gold.PLP.part.hbond>
-1.8021

> <Gold.PLP.part.metal>
0.0000

> <Gold.PLP.part.buried>
-4.2567

> <Gold.PLP.part.nonpolar>
-40.4118

> <Gold.PLP.part.repulsive>
0.0896

> <Gold.PLP.ligand.clash>
0.0000

> <Gold.PLP.ligand.torsion>
0.1722

> <Gold.PLP.Chemscore.Hbond>
0.0000

> <Gold.PLP.Chemscore.CHOScore>
0.0000

> <Gold.PLP.Chemscore.Metal>
0.0000

> <Gold.PLP.Chemscore.Internal.Correction>
0.0015

> <Gold.Rescore>
     Score         DG    S(hbond)    S(metal)    S(lipo)     H(rot)  DE(clash)    DE(int)     intcor
     15.99     -17.99       0.00        0.00     137.89       1.42       1.92       0.07       ----

> <Gold.Chemscore.Fitness>
15.9949

> <Gold.Chemscore.DG>
-17.9874

> <Gold.Chemscore.ZeroCoef>
-5.4800

> <Gold.Chemscore.Hbond>
0.0001

> <Gold.Chemscore.Metal>
0.0000

> <Gold.Chemscore.Lipo>
137.8897

> <Gold.Chemscore.Internal_Hbond>
0.0000

> <Gold.Chemscore.DEClash>
1.9232

> <Gold.Chemscore.DEInternal>
0.0693

> <Gold.Chemscore.Rot>
1.4164

> <Gold.Chemscore.Internal.Correction>
   9.000000E+99

> <Gold.Chemscore.Hbond.Weighted>
-0.0002

> <Gold.Chemscore.Metal.Weighted>
-0.0000

> <Gold.Chemscore.Lipo.Weighted>
-16.1331

> <Gold.Chemscore.Internal_Hbond.Weighted>
0.0000

> <Gold.Chemscore.DEClash.Weighted>
1.9232

> <Gold.Chemscore.DEInternal.Weighted>
0.0693

> <Gold.Chemscore.Rot.Weighted>
3.6259

> <Gold.Chemscore.Internal.Correction.Weighted>
   9.000000E+99

> <Gold.Protein.RotatedTorsions>
[ 6907 6896 6895 6894 ] final  168.15 input  -60.11 | X-H torsion
[ 7974 7965 7964 7962 ] final  105.03 input  175.53 | X-H torsion
[ 8008 7997 7996 7995 ] final -133.19 input   59.86 | X-H torsion
[ 10167 10162 10161 10158 ] final  -79.05 input  -65.29 | X-H torsion
[ 10718 10713 10712 10709 ] final   82.92 input   66.30 | X-H torsion
[ 10763 10752 10751 10750 ] final   27.99 input  -60.55 | X-H torsion
[ 11005 11000 10999 10996 ] final -151.74 input  -57.11 | X-H torsion

> <Gold.Protein.ActiveResidues>
 VAL166  LYS551  ARG553  GLY616  TRP617  ASP618  TYR619  PRO620  LYS621  CYS622 
 ASP623  PHE694  ASN695  SER759  ASP760  ASP761  ALA762  ILE779  LEU786  VAL792 
 PHE793  MET794  SER795  GLU796  ALA797  LYS798  CYS799  TRP800  GLU811  SER814 

> <Gold.Protein.RotatedAtoms>
  151.8522  133.3442  159.3676 H   0  0  0  0  0  0  0  0  0  0  0  0  # atno 6907 bound_to 6896
  150.7203  134.5288  159.5699 H   0  0  0  0  0  0  0  0  0  0  0  0  # atno 6908 bound_to 6896
  152.2784  134.7857  160.0452 H   0  0  0  0  0  0  0  0  0  0  0  0  # atno 6909 bound_to 6896
  145.3250  139.2502  143.3691 H   0  0  0  0  0  0  0  0  0  0  0  0  # atno 7974 bound_to 7965
  155.3413  140.0472  157.3045 H   0  0  0  0  0  0  0  0  0  0  0  0  # atno 8008 bound_to 7997
  154.5276  140.2246  155.8827 H   0  0  0  0  0  0  0  0  0  0  0  0  # atno 8009 bound_to 7997
  156.1755  140.3086  155.9057 H   0  0  0  0  0  0  0  0  0  0  0  0  # atno 8010 bound_to 7997
  140.4628  143.2449  151.8323 H   0  0  0  0  0  0  0  0  0  0  0  0  # atno 10167 bound_to 10162
  157.6868  131.0068  150.2446 H   0  0  0  0  0  0  0  0  0  0  0  0  # atno 10718 bound_to 10713
  153.0520  135.6524  154.0670 H   0  0  0  0  0  0  0  0  0  0  0  0  # atno 10763 bound_to 10752
  154.0356  135.2908  155.3364 H   0  0  0  0  0  0  0  0  0  0  0  0  # atno 10764 bound_to 10752
  154.6814  135.5318  153.8334 H   0  0  0  0  0  0  0  0  0  0  0  0  # atno 10765 bound_to 10752
  140.7264  134.3670  157.5174 H   0  0  0  0  0  0  0  0  0  0  0  0  # atno 11005 bound_to 11000
  146.3067  140.3816  142.8684 LP  0  0  0  0  0  0  0  0  0  0  0  0  # atno 17320 bound_to 7965
  144.8909  140.7522  143.5927 LP  0  0  0  0  0  0  0  0  0  0  0  0  # atno 17321 bound_to 7965
  139.4808  144.4987  151.9089 LP  0  0  0  0  0  0  0  0  0  0  0  0  # atno 17342 bound_to 10162
  140.4073  144.2415  150.5890 LP  0  0  0  0  0  0  0  0  0  0  0  0  # atno 17343 bound_to 10162
  156.3054  130.3764  149.7711 LP  0  0  0  0  0  0  0  0  0  0  0  0  # atno 17370 bound_to 10713
  156.5328  130.8265  151.3243 LP  0  0  0  0  0  0  0  0  0  0  0  0  # atno 17371 bound_to 10713
  139.8836  134.8989  156.2755 LP  0  0  0  0  0  0  0  0  0  0  0  0  # atno 17394 bound_to 11000
  140.9959  133.7180  156.0885 LP  0  0  0  0  0  0  0  0  0  0  0  0  # atno 17395 bound_to 11000

$$$$
