AV-unprocessed.smi:3105|AV-procd|sdf|11819|dock5
  -GOLD-   2272017193D 1   1.00000     0.00000
 Structure written by MMmdl.
 34 34  0  0  0  0  0  0  0  0  2 V2000
  151.5078  141.1908  157.5010 C   0  0  0  0  0  0  0  0  0  0  0  0
  150.5180  142.3717  157.4650 C   0  0  2  0  0  0  0  0  0  0  0  0
  149.9420  142.5048  156.1060 N   0  3  0  0  0  0  0  0  0  0  0  0
  148.9715  141.4567  155.7192 C   0  0  0  0  0  0  0  0  0  0  0  0
  148.6296  141.5165  154.2173 C   0  0  0  0  0  0  0  0  0  0  0  0
  147.1741  141.8943  153.9084 C   0  0  0  0  0  0  0  0  0  0  0  0
  146.4191  140.9480  153.3460 N   0  0  0  0  0  0  0  0  0  0  0  0
  146.7319  143.0121  154.1689 O   0  0  0  0  0  0  0  0  0  0  0  0
  151.1806  143.7118  157.8886 C   0  0  2  0  0  0  0  0  0  0  0  0
  152.2949  144.1715  156.9299 C   0  0  0  0  0  0  0  0  0  0  0  0
  151.7074  143.6511  159.2483 N   0  0  0  0  0  0  0  0  0  0  0  0
  152.6705  142.8006  159.7513 C   0  0  0  0  0  0  0  0  0  0  0  0
  152.8255  143.0950  161.0755 C   0  0  0  0  0  0  0  0  0  0  0  0
  151.8931  144.1453  161.3001 C   0  0  0  0  0  0  0  0  0  0  0  0
  151.2241  144.4738  160.2072 N   0  0  0  0  0  0  0  0  0  0  0  0
  151.8888  141.0156  158.5064 H   0  0  0  0  0  0  0  0  0  0  0  0
  152.3616  141.3692  156.8467 H   0  0  0  0  0  0  0  0  0  0  0  0
  151.0394  140.2594  157.1839 H   0  0  0  0  0  0  0  0  0  0  0  0
  149.7041  142.1583  158.1598 H   0  0  0  0  0  0  0  0  0  0  0  0
  149.4532  143.3882  156.0708 H   0  0  0  0  0  0  0  0  0  0  0  0
  149.3579  140.4692  155.9721 H   0  0  0  0  0  0  0  0  0  0  0  0
  148.0590  141.5938  156.3003 H   0  0  0  0  0  0  0  0  0  0  0  0
  149.2761  142.2518  153.7364 H   0  0  0  0  0  0  0  0  0  0  0  0
  148.8525  140.5569  153.7484 H   0  0  0  0  0  0  0  0  0  0  0  0
  145.4517  141.1351  153.1244 H   0  0  0  0  0  0  0  0  0  0  0  0
  146.8177  140.0410  153.1477 H   0  0  0  0  0  0  0  0  0  0  0  0
  150.4088  144.4833  157.8862 H   0  0  0  0  0  0  0  0  0  0  0  0
  151.9069  144.4047  155.9390 H   0  0  0  0  0  0  0  0  0  0  0  0
  153.0652  143.4079  156.8181 H   0  0  0  0  0  0  0  0  0  0  0  0
  152.7781  145.0764  157.3001 H   0  0  0  0  0  0  0  0  0  0  0  0
  153.1615  142.0639  159.1324 H   0  0  0  0  0  0  0  0  0  0  0  0
  153.4979  142.6267  161.7789 H   0  0  0  0  0  0  0  0  0  0  0  0
  151.6827  144.6736  162.2185 H   0  0  0  0  0  0  0  0  0  0  0  0
  150.6944  142.5273  155.4321 H   0  0  0  0  0  0  0  0  0  0  0  0
  1  2  1  0  0  0  0
  1 16  1  0  0  0  0
  1 17  1  0  0  0  0
  1 18  1  0  0  0  0
  2  3  1  0  0  0  0
  2  9  1  0  0  0  0
  2 19  1  0  0  0  0
  3  4  1  0  0  0  0
  3 20  1  0  0  0  0
  3 34  1  0  0  0  0
  4  5  1  0  0  0  0
  4 21  1  0  0  0  0
  4 22  1  0  0  0  0
  5  6  1  0  0  0  0
  5 23  1  0  0  0  0
  5 24  1  0  0  0  0
  6  7  1  0  0  0  0
  6  8  2  0  0  0  0
  7 25  1  0  0  0  0
  7 26  1  0  0  0  0
  9 10  1  0  0  0  0
  9 11  1  0  0  0  0
  9 27  1  0  0  0  0
 10 28  1  0  0  0  0
 10 29  1  0  0  0  0
 10 30  1  0  0  0  0
 11 15  1  0  0  0  0
 11 12  1  0  0  0  0
 12 13  2  0  0  0  0
 12 31  1  0  0  0  0
 13 14  1  0  0  0  0
 13 32  1  0  0  0  0
 14 15  2  0  0  0  0
 14 33  1  0  0  0  0
M  CHG  1   3   1
M  END
> <s_m_source_file>
AV-unprocessed.smi

> <i_m_source_file_index>
3105

> <i_lp_mmshare_version>
43012

> <i_f3d_flags>
0

> <s_epik_input>
W05IMl1DKD1PKVtDSDJdW0NIMl1bTkhdW0NAQEhdKFtDSDNdKVtDQEhdKFtDSDNdKW4xW2NIXVtjSF1bY0hdbjE=

> <s_epik_cmdline>
J2VwaWtfcHl0aG9uJywgJy1waCcsICc3LjAnLCAnLXRuJywgJzgnLCAnLW1hJywgJzIwMCcsICctbWV0YWxfYmluZGluZycsICctaW1hZScsICc8aW5maWxlLm1hZT4nLCAnLW9tYWUnLCAnPG91dGZpbGUubWFlPic=

> <r_lp_tautomer_probability>
1

> <r_epik_Ionization_Penalty>
0.00475669

> <r_epik_Ionization_Penalty_Charging>
0.00474654

> <r_epik_Ionization_Penalty_Neutral>
1.01546e-05

> <r_epik_State_Penalty>
-0

> <r_epik_Charging_Adjusted_Penalty>
0.00474654

> <i_epik_Tot_Q>
1

> <i_epik_Tot_abs_Q>
1

> <r_epik_Metal_State_Penalty>
-0

> <b_epik_Metal_Only>
0

> <s_lp_Force_Field>
OPLS_2005

> <r_lp_Energy>
5.41696

> <b_lp_Chiralities_Consistent>
1

> <s_lp_Variant>
AV-unprocessed.smi:3105-1

> <Gold.Version>
5.8.1

> <Gold.Id.Protein>
6NUR|6NUR_protein|mol2

> <Gold.PLP.Fitness>
42.5762

> <Gold.PLP.PLP>
-34.5427

> <Gold.PLP.part.hbond>
-1.9869

> <Gold.PLP.part.metal>
0.0000

> <Gold.PLP.part.buried>
-5.5182

> <Gold.PLP.part.nonpolar>
-27.7332

> <Gold.PLP.part.repulsive>
0.4418

> <Gold.PLP.ligand.clash>
0.0000

> <Gold.PLP.ligand.torsion>
0.5733

> <Gold.PLP.Chemscore.Hbond>
3.0000

> <Gold.PLP.Chemscore.CHOScore>
0.0000

> <Gold.PLP.Chemscore.Metal>
0.0000

> <Gold.Chemscore.Hbonds>
donor molecule, donor type, donor heavy atom, donor atom, acceptor molecule, acceptor atom, score
      L1  H     3    20       P1  8028  1.89
      L1  H     7    25       P1 10175  1.00

> <Gold.PLP.Chemscore.Internal.Correction>
0.1800

> <Gold.Rescore>
     Score         DG    S(hbond)    S(metal)    S(lipo)     H(rot)  DE(clash)    DE(int)     intcor
     12.95     -15.17       1.98        0.00      88.64       2.85       1.53       0.69       ----

> <Gold.Chemscore.Fitness>
12.9491

> <Gold.Chemscore.DG>
-15.1662

> <Gold.Chemscore.ZeroCoef>
-5.4800

> <Gold.Chemscore.Hbond>
1.9772

> <Gold.Chemscore.Metal>
0.0000

> <Gold.Chemscore.Lipo>
88.6450

> <Gold.Chemscore.Internal_Hbond>
0.0000

> <Gold.Chemscore.DEClash>
1.5304

> <Gold.Chemscore.DEInternal>
0.6867

> <Gold.Chemscore.Rot>
2.8473

> <Gold.Chemscore.Internal.Correction>
   9.000000E+99

> <Gold.Chemscore.Hbonds>
donor molecule, donor type, donor heavy atom, donor atom, acceptor molecule, acceptor atom, score
      L1  H     3    20       P1  8028  0.90
      L1  H     7    25       P1 10175  0.24

> <Gold.Chemscore.Hbond.Weighted>
-6.6039

> <Gold.Chemscore.Metal.Weighted>
-0.0000

> <Gold.Chemscore.Lipo.Weighted>
-10.3715

> <Gold.Chemscore.Internal_Hbond.Weighted>
0.0000

> <Gold.Chemscore.DEClash.Weighted>
1.5304

> <Gold.Chemscore.DEInternal.Weighted>
0.6867

> <Gold.Chemscore.Rot.Weighted>
7.2892

> <Gold.Chemscore.Internal.Correction.Weighted>
   9.000000E+99

> <Gold.Protein.RotatedTorsions>
[ 6907 6896 6895 6894 ] final   15.43 input  -60.11 | X-H torsion
[ 7974 7965 7964 7962 ] final   74.26 input  175.53 | X-H torsion
[ 8008 7997 7996 7995 ] final   33.88 input   59.86 | X-H torsion
[ 10167 10162 10161 10158 ] final  167.65 input  -65.29 | X-H torsion
[ 10718 10713 10712 10709 ] final  -23.26 input   66.30 | X-H torsion
[ 10763 10752 10751 10750 ] final  -88.99 input  -60.55 | X-H torsion
[ 11005 11000 10999 10996 ] final  131.50 input  -57.11 | X-H torsion

> <Gold.Protein.ActiveResidues>
 VAL166  LYS551  ARG553  GLY616  TRP617  ASP618  TYR619  PRO620  LYS621  CYS622 
 ASP623  PHE694  ASN695  SER759  ASP760  ASP761  ALA762  ILE779  LEU786  VAL792 
 PHE793  MET794  SER795  GLU796  ALA797  LYS798  CYS799  TRP800  GLU811  SER814 

> <Gold.Protein.RotatedAtoms>
  151.8179  135.0661  160.0421 H   0  0  0  0  0  0  0  0  0  0  0  0  # atno 6907 bound_to 6896
  152.2972  133.5615  159.5604 H   0  0  0  0  0  0  0  0  0  0  0  0  # atno 6908 bound_to 6896
  150.7257  134.0259  159.3759 H   0  0  0  0  0  0  0  0  0  0  0  0  # atno 6909 bound_to 6896
  145.7305  139.2682  143.1544 H   0  0  0  0  0  0  0  0  0  0  0  0  # atno 7974 bound_to 7965
  155.1457  140.3270  155.4442 H   0  0  0  0  0  0  0  0  0  0  0  0  # atno 8008 bound_to 7997
  156.2590  140.1986  156.6521 H   0  0  0  0  0  0  0  0  0  0  0  0  # atno 8009 bound_to 7997
  154.6509  140.0558  156.9941 H   0  0  0  0  0  0  0  0  0  0  0  0  # atno 8010 bound_to 7997
  139.4950  144.3899  151.9529 H   0  0  0  0  0  0  0  0  0  0  0  0  # atno 10167 bound_to 10162
  156.4934  130.4571  149.6742 H   0  0  0  0  0  0  0  0  0  0  0  0  # atno 10718 bound_to 10713
  154.6504  135.5357  153.7895 H   0  0  0  0  0  0  0  0  0  0  0  0  # atno 10763 bound_to 10752
  153.0383  135.6481  154.1025 H   0  0  0  0  0  0  0  0  0  0  0  0  # atno 10764 bound_to 10752
  154.0942  135.2938  155.3245 H   0  0  0  0  0  0  0  0  0  0  0  0  # atno 10765 bound_to 10752
  139.9734  134.9571  156.9447 H   0  0  0  0  0  0  0  0  0  0  0  0  # atno 11005 bound_to 11000
  146.0542  140.8038  142.9766 LP  0  0  0  0  0  0  0  0  0  0  0  0  # atno 17320 bound_to 7965
  144.6894  140.3099  143.7250 LP  0  0  0  0  0  0  0  0  0  0  0  0  # atno 17321 bound_to 7965
  140.3336  144.3287  150.5982 LP  0  0  0  0  0  0  0  0  0  0  0  0  # atno 17342 bound_to 10162
  140.5624  143.2190  151.7742 LP  0  0  0  0  0  0  0  0  0  0  0  0  # atno 17343 bound_to 10162
  156.3404  130.7379  151.2323 LP  0  0  0  0  0  0  0  0  0  0  0  0  # atno 17370 bound_to 10713
  157.7471  131.0405  150.4602 LP  0  0  0  0  0  0  0  0  0  0  0  0  # atno 17371 bound_to 10713
  140.5246  134.0873  155.7300 LP  0  0  0  0  0  0  0  0  0  0  0  0  # atno 17394 bound_to 11000
  141.1412  133.9134  157.2321 LP  0  0  0  0  0  0  0  0  0  0  0  0  # atno 17395 bound_to 11000

$$$$
