AV-unprocessed.smi:35|AV-procd|sdf|269|dock8
  -GOLD-   2262016 33D 1   1.00000     0.00000
 Structure written by MMmdl.
 28 29  0  0  0  0  0  0  0  0  2 V2000
  152.7582  141.2256  159.0007 O   0  0  0  0  0  0  0  0  0  0  0  0
  152.1092  141.1515  157.9589 C   0  0  0  0  0  0  0  0  0  0  0  0
  152.3922  140.2547  156.9713 N   0  5  0  0  0  0  0  0  0  0  0  0
  151.6556  140.1623  155.8253 C   0  0  0  0  0  0  0  0  0  0  0  0
  151.9433  139.3926  154.9090 O   0  0  0  0  0  0  0  0  0  0  0  0
  150.5105  140.9949  155.6680 N   0  0  0  0  0  0  0  0  0  0  0  0
  149.6973  140.9104  154.3847 C   0  0  2  0  0  0  0  0  0  0  0  0
  148.8603  142.0314  154.2877 O   0  0  0  0  0  0  0  0  0  0  0  0
  147.4987  141.7005  154.5611 C   0  0  2  0  0  0  0  0  0  0  0  0
  147.1890  141.8279  156.0712 C   0  0  0  0  0  0  0  0  0  0  0  0
  145.8374  141.5019  156.3162 O   0  0  0  0  0  0  0  0  0  0  0  0
  147.4164  140.2772  153.9993 C   0  0  2  0  0  0  0  0  0  0  0  0
  146.3491  139.5225  154.5393 O   0  0  0  0  0  0  0  0  0  0  0  0
  148.7693  139.6731  154.3507 C   0  0  1  0  0  0  0  0  0  0  0  0
  149.1476  138.7576  153.3425 O   0  0  0  0  0  0  0  0  0  0  0  0
  150.2452  141.9624  156.6263 C   0  0  0  0  0  0  0  0  0  0  0  0
  150.9870  142.0601  157.7475 C   0  0  0  0  0  0  0  0  0  0  0  0
  150.4728  143.4773  159.0332 Br  0  0  0  0  0  0  0  0  0  0  0  0
  150.4413  140.9366  153.5866 H   0  0  0  0  0  0  0  0  0  0  0  0
  146.8352  142.3599  154.0000 H   0  0  0  0  0  0  0  0  0  0  0  0
  147.7817  141.1156  156.6446 H   0  0  0  0  0  0  0  0  0  0  0  0
  147.4247  142.8146  156.4662 H   0  0  0  0  0  0  0  0  0  0  0  0
  145.3795  141.4821  155.4897 H   0  0  0  0  0  0  0  0  0  0  0  0
  147.2998  140.3384  152.9157 H   0  0  0  0  0  0  0  0  0  0  0  0
  146.6868  139.0025  155.2527 H   0  0  0  0  0  0  0  0  0  0  0  0
  148.7409  139.1945  155.3312 H   0  0  0  0  0  0  0  0  0  0  0  0
  149.2781  139.2443  152.5416 H   0  0  0  0  0  0  0  0  0  0  0  0
  149.4337  142.6608  156.4924 H   0  0  0  0  0  0  0  0  0  0  0  0
  1  2  2  0  0  0  0
  2 17  1  0  0  0  0
  2  3  1  0  0  0  0
  3  4  1  0  0  0  0
  4  5  2  0  0  0  0
  4  6  1  0  0  0  0
  6  7  1  0  0  0  0
  6 16  1  0  0  0  0
  7 14  1  0  0  0  0
  7  8  1  0  0  0  0
  7 19  1  0  0  0  0
  8  9  1  0  0  0  0
  9 10  1  0  0  0  0
  9 12  1  0  0  0  0
  9 20  1  0  0  0  0
 10 11  1  0  0  0  0
 10 21  1  0  0  0  0
 10 22  1  0  0  0  0
 11 23  1  0  0  0  0
 12 13  1  0  0  0  0
 12 14  1  0  0  0  0
 12 24  1  0  0  0  0
 13 25  1  0  0  0  0
 14 15  1  0  0  0  0
 14 26  1  0  0  0  0
 15 27  1  0  0  0  0
 16 17  2  0  0  0  0
 16 28  1  0  0  0  0
 17 18  1  0  0  0  0
M  CHG  1   3  -1
M  END
> <s_m_source_file>
AV-unprocessed.smi

> <i_m_source_file_index>
35

> <i_lp_mmshare_version>
43012

> <i_f3d_flags>
0

> <s_epik_input>
Tz1jMVtuSF1jKD1PKW4oW2NIXWMxQnIpW0NAQEhdMk9bQ0BASF0oW0NIMl1bT0hdKVtDQEBIXShbT0hdKVtDQEhdMltPSF0=

> <s_epik_cmdline>
J2VwaWtfcHl0aG9uJywgJy1waCcsICc3LjAnLCAnLXRuJywgJzgnLCAnLW1hJywgJzIwMCcsICctbWV0YWxfYmluZGluZycsICctaW1hZScsICc8aW5maWxlLm1hZT4nLCAnLW9tYWUnLCAnPG91dGZpbGUubWFlPic=

> <r_epik_Ionization_Penalty>
1.06112

> <r_epik_Ionization_Penalty_Charging>
2.1796e-09

> <r_epik_Ionization_Penalty_Neutral>
1.06112

> <r_epik_State_Penalty>
1.11484

> <r_epik_Charging_Adjusted_Penalty>
1.11484

> <i_epik_Tot_Q>
-1

> <i_epik_Tot_abs_Q>
1

> <r_epik_Metal_State_Penalty>
0.0032876

> <b_epik_Metal_Only>
0

> <s_epik_Chemistry_Notes>
This compound contains an acetal/aminal-like group ( X-CH(R)-Y where X, Y are N, S, or O) that may be acid/base labile, releasing an aldehyde.

> <s_lp_Force_Field>
OPLS_2005

> <r_lp_Energy>
39.1741

> <b_lp_Chiralities_Consistent>
1

> <s_lp_Variant>
AV-unprocessed.smi:35-23

> <Gold.Version>
5.8.1

> <Gold.Id.Protein>
6NUR|6NUR_protein|mol2

> <Gold.PLP.Fitness>
41.3698

> <Gold.PLP.PLP>
-27.9216

> <Gold.PLP.part.hbond>
-5.0000

> <Gold.PLP.part.metal>
0.0000

> <Gold.PLP.part.buried>
-1.9387

> <Gold.PLP.part.nonpolar>
-21.7786

> <Gold.PLP.part.repulsive>
1.0616

> <Gold.PLP.ligand.clash>
0.0000

> <Gold.PLP.ligand.torsion>
0.3214

> <Gold.PLP.Chemscore.Hbond>
3.6766

> <Gold.PLP.Chemscore.CHOScore>
1.0000

> <Gold.PLP.Chemscore.Metal>
0.0000

> <Gold.Chemscore.Hbonds>
donor molecule, donor type, donor heavy atom, donor atom, acceptor molecule, acceptor atom, score
      L1  H    15    27       P1  7957  1.00
      P1  H  7989  7998       L1     5  0.54
      P1  H  7997  8010       L1     3  2.00
      P1  H  8011  8017       L1     8  0.09
      L1  C    16    28       P1  8028  1.00

> <Gold.PLP.Chemscore.Internal.Correction>
0.0612

> <Gold.Rescore>
     Score         DG    S(hbond)    S(metal)    S(lipo)     H(rot)  DE(clash)    DE(int)     intcor
      5.21      -6.73       1.67        0.00      42.36       3.63       1.24       0.28       ----

> <Gold.Chemscore.Fitness>
5.2143

> <Gold.Chemscore.DG>
-6.7332

> <Gold.Chemscore.ZeroCoef>
-5.4800

> <Gold.Chemscore.Hbond>
1.6707

> <Gold.Chemscore.Metal>
0.0000

> <Gold.Chemscore.Lipo>
42.3573

> <Gold.Chemscore.Internal_Hbond>
0.0000

> <Gold.Chemscore.DEClash>
1.2363

> <Gold.Chemscore.DEInternal>
0.2825

> <Gold.Chemscore.Rot>
3.6261

> <Gold.Chemscore.Internal.Correction>
   9.000000E+99

> <Gold.Chemscore.Hbonds>
donor molecule, donor type, donor heavy atom, donor atom, acceptor molecule, acceptor atom, score
      L1  H    15    27       P1  7957  0.99
      P1  H  7989  7998       L1     5  0.04
      P1  H  7997  8010       L1     3  0.61

> <Gold.Chemscore.Hbond.Weighted>
-5.5802

> <Gold.Chemscore.Metal.Weighted>
-0.0000

> <Gold.Chemscore.Lipo.Weighted>
-4.9558

> <Gold.Chemscore.Internal_Hbond.Weighted>
0.0000

> <Gold.Chemscore.DEClash.Weighted>
1.2363

> <Gold.Chemscore.DEInternal.Weighted>
0.2825

> <Gold.Chemscore.Rot.Weighted>
9.2828

> <Gold.Chemscore.Internal.Correction.Weighted>
   9.000000E+99

> <Gold.Protein.RotatedTorsions>
[ 6907 6896 6895 6894 ] final   54.14 input  -60.11 | X-H torsion
[ 7974 7965 7964 7962 ] final -118.56 input  175.53 | X-H torsion
[ 8008 7997 7996 7995 ] final   61.50 input   59.86 | X-H torsion
[ 10167 10162 10161 10158 ] final  176.29 input  -65.29 | X-H torsion
[ 10718 10713 10712 10709 ] final   34.51 input   66.30 | X-H torsion
[ 10763 10752 10751 10750 ] final  155.97 input  -60.55 | X-H torsion
[ 11005 11000 10999 10996 ] final -128.28 input  -57.11 | X-H torsion

> <Gold.Protein.ActiveResidues>
 VAL166  LYS551  ARG553  GLY616  TRP617  ASP618  TYR619  PRO620  LYS621  CYS622 
 ASP623  PHE694  ASN695  SER759  ASP760  ASP761  ALA762  ILE779  LEU786  VAL792 
 PHE793  MET794  SER795  GLU796  ALA797  LYS798  CYS799  TRP800  GLU811  SER814 

> <Gold.Protein.RotatedAtoms>
  152.3409  134.7136  160.0263 H   0  0  0  0  0  0  0  0  0  0  0  0  # atno 6907 bound_to 6896
  151.7522  133.3322  159.3402 H   0  0  0  0  0  0  0  0  0  0  0  0  # atno 6908 bound_to 6896
  150.7479  134.6115  159.6133 H   0  0  0  0  0  0  0  0  0  0  0  0  # atno 6909 bound_to 6896
  145.0725  140.8369  143.4087 H   0  0  0  0  0  0  0  0  0  0  0  0  # atno 7974 bound_to 7965
  155.5994  140.3494  155.4589 H   0  0  0  0  0  0  0  0  0  0  0  0  # atno 8008 bound_to 7997
  156.0240  140.1260  157.0353 H   0  0  0  0  0  0  0  0  0  0  0  0  # atno 8009 bound_to 7997
  154.4326  140.1057  156.5990 H   0  0  0  0  0  0  0  0  0  0  0  0  # atno 8010 bound_to 7997
  139.5209  144.2932  152.0445 H   0  0  0  0  0  0  0  0  0  0  0  0  # atno 10167 bound_to 10162
  157.3113  130.7400  149.6726 H   0  0  0  0  0  0  0  0  0  0  0  0  # atno 10718 bound_to 10713
  154.1768  135.2801  155.3064 H   0  0  0  0  0  0  0  0  0  0  0  0  # atno 10763 bound_to 10752
  154.6033  135.5522  153.7400 H   0  0  0  0  0  0  0  0  0  0  0  0  # atno 10764 bound_to 10752
  153.0149  135.6397  154.1908 H   0  0  0  0  0  0  0  0  0  0  0  0  # atno 10765 bound_to 10752
  140.9529  134.1040  157.4044 H   0  0  0  0  0  0  0  0  0  0  0  0  # atno 11005 bound_to 11000
  145.1276  139.2653  143.5556 LP  0  0  0  0  0  0  0  0  0  0  0  0  # atno 17320 bound_to 7965
  146.3529  140.0917  142.8612 LP  0  0  0  0  0  0  0  0  0  0  0  0  # atno 17321 bound_to 7965
  140.2383  144.4296  150.6271 LP  0  0  0  0  0  0  0  0  0  0  0  0  # atno 17342 bound_to 10162
  140.6308  143.2187  151.6499 LP  0  0  0  0  0  0  0  0  0  0  0  0  # atno 17343 bound_to 10162
  155.9678  130.4250  150.4636 LP  0  0  0  0  0  0  0  0  0  0  0  0  # atno 17370 bound_to 10713
  157.2635  131.0572  151.2305 LP  0  0  0  0  0  0  0  0  0  0  0  0  # atno 17371 bound_to 10713
  139.8853  135.0071  156.6426 LP  0  0  0  0  0  0  0  0  0  0  0  0  # atno 17394 bound_to 11000
  140.7576  133.8844  155.8394 LP  0  0  0  0  0  0  0  0  0  0  0  0  # atno 17395 bound_to 11000

$$$$
