AV-unprocessed.smi:1965|AV-procd|sdf|7944|dock3
  -GOLD-   2272010113D 1   1.00000     0.00000
 Structure written by MMmdl.
 36 38  0  0  0  0  0  0  0  0  3 V2000
  153.4825  138.6173  157.5904 O   0  0  0  0  0  0  0  0  0  0  0  0
  152.4198  139.2116  157.7645 C   0  0  0  0  0  0  0  0  0  0  0  0
  151.2530  138.8570  157.1657 N   0  5  0  0  0  0  0  0  0  0  0  0
  150.5570  139.7020  156.3822 C   0  0  0  0  0  0  0  0  0  0  0  0
  149.8091  139.2947  155.3500 N   0  0  0  0  0  0  0  0  0  0  0  0
  149.1673  140.3396  154.6827 C   0  0  0  0  0  0  0  0  0  0  0  0
  149.4327  141.5714  155.2195 C   0  0  0  0  0  0  0  0  0  0  0  0
  150.5078  141.4557  156.5833 S   0  0  0  0  0  0  0  0  0  0  0  0
  152.3954  140.2718  158.5926 N   0  0  0  0  0  0  0  0  0  0  0  0
  153.5265  140.8298  159.3256 C   0  0  2  0  0  0  0  0  0  0  0  0
  153.9385  139.9932  160.5563 C   0  0  0  0  0  0  0  0  0  0  0  0
  154.1064  141.0105  161.6896 C   0  0  0  0  0  0  0  0  0  0  0  0
  153.1421  142.0610  161.3414 N   0  3  1  0  0  0  0  0  0  0  0  0
  153.2081  143.3420  162.0745 C   0  0  0  0  0  0  0  0  0  0  0  0
  152.0137  144.2207  161.6442 C   0  0  0  0  0  0  0  0  0  0  0  0
  151.9240  144.3739  160.1091 C   0  0  0  0  0  0  0  0  0  0  0  0
  151.9751  143.0053  159.3984 C   0  0  0  0  0  0  0  0  0  0  0  0
  153.2189  142.2358  159.8814 C   0  0  2  0  0  0  0  0  0  0  0  0
  148.5395  140.1146  153.8333 H   0  0  0  0  0  0  0  0  0  0  0  0
  149.0680  142.5346  154.8956 H   0  0  0  0  0  0  0  0  0  0  0  0
  151.5059  140.7336  158.7139 H   0  0  0  0  0  0  0  0  0  0  0  0
  154.3706  140.9111  158.6380 H   0  0  0  0  0  0  0  0  0  0  0  0
  153.1468  139.2895  160.8192 H   0  0  0  0  0  0  0  0  0  0  0  0
  154.8456  139.4138  160.3822 H   0  0  0  0  0  0  0  0  0  0  0  0
  153.9076  140.5824  162.6727 H   0  0  0  0  0  0  0  0  0  0  0  0
  155.1169  141.4223  161.6877 H   0  0  0  0  0  0  0  0  0  0  0  0
  153.1694  143.1539  163.1480 H   0  0  0  0  0  0  0  0  0  0  0  0
  154.1542  143.8444  161.8671 H   0  0  0  0  0  0  0  0  0  0  0  0
  151.0898  143.7707  162.0103 H   0  0  0  0  0  0  0  0  0  0  0  0
  152.0829  145.2020  162.1144 H   0  0  0  0  0  0  0  0  0  0  0  0
  151.0103  144.9032  159.8374 H   0  0  0  0  0  0  0  0  0  0  0  0
  152.7525  144.9923  159.7608 H   0  0  0  0  0  0  0  0  0  0  0  0
  151.0666  142.4417  159.6174 H   0  0  0  0  0  0  0  0  0  0  0  0
  152.0085  143.1450  158.3173 H   0  0  0  0  0  0  0  0  0  0  0  0
  154.0979  142.8499  159.6721 H   0  0  0  0  0  0  0  0  0  0  0  0
  152.2316  141.6648  161.5264 H   0  0  0  0  0  0  0  0  0  0  0  0
  1  2  2  0  0  0  0
  2  3  1  0  0  0  0
  2  9  1  0  0  0  0
  3  4  1  0  0  0  0
  4  8  1  0  0  0  0
  4  5  2  0  0  0  0
  5  6  1  0  0  0  0
  6  7  2  0  0  0  0
  6 19  1  0  0  0  0
  7  8  1  0  0  0  0
  7 20  1  0  0  0  0
  9 10  1  0  0  0  0
  9 21  1  0  0  0  0
 10 18  1  0  0  0  0
 10 11  1  0  0  0  0
 10 22  1  0  0  0  0
 11 12  1  0  0  0  0
 11 23  1  0  0  0  0
 11 24  1  0  0  0  0
 12 13  1  0  0  0  0
 12 25  1  0  0  0  0
 12 26  1  0  0  0  0
 13 18  1  0  0  0  0
 13 14  1  0  0  0  0
 13 36  1  0  0  0  0
 14 15  1  0  0  0  0
 14 27  1  0  0  0  0
 14 28  1  0  0  0  0
 15 16  1  0  0  0  0
 15 29  1  0  0  0  0
 15 30  1  0  0  0  0
 16 17  1  0  0  0  0
 16 31  1  0  0  0  0
 16 32  1  0  0  0  0
 17 18  1  0  0  0  0
 17 33  1  0  0  0  0
 17 34  1  0  0  0  0
 18 35  1  0  0  0  0
M  CHG  1   3  -1
M  CHG  1  13   1
M  END
> <s_m_source_file>
AV-unprocessed.smi

> <i_m_source_file_index>
1965

> <i_lp_mmshare_version>
43012

> <i_f3d_flags>
0

> <s_epik_input>
czFbY0hdW2NIXW5jMVtOSF1DKD1PKVtOSF1bQ0BIXShbQ0gyXVtDSDJdMilbQ0BASF0oTjIzKVtDSDJdW0NIMl1bQ0gyXVtDSDJdMw==

> <s_epik_cmdline>
J2VwaWtfcHl0aG9uJywgJy1waCcsICc3LjAnLCAnLXRuJywgJzgnLCAnLW1hJywgJzIwMCcsICctbWV0YWxfYmluZGluZycsICctaW1hZScsICc8aW5maWxlLm1hZT4nLCAnLW9tYWUnLCAnPG91dGZpbGUubWFlPic=

> <r_lp_tautomer_probability>
1

> <r_epik_Ionization_Penalty>
7.4116

> <r_epik_Ionization_Penalty_Charging>
6.13869

> <r_epik_Ionization_Penalty_Neutral>
1.27291

> <r_epik_State_Penalty>
6.13761

> <r_epik_Charging_Adjusted_Penalty>
12.2763

> <i_epik_Tot_Q>
0

> <i_epik_Tot_abs_Q>
2

> <r_epik_Metal_State_Penalty>
2.08142

> <b_epik_Metal_Only>
1

> <s_lp_Force_Field>
OPLS_2005

> <r_lp_Energy>
32.5811

> <b_lp_Chiralities_Consistent>
1

> <s_lp_Variant>
AV-unprocessed.smi:1965-13

> <Gold.Version>
5.8.1

> <Gold.Id.Protein>
6NUR|6NUR_protein|mol2

> <Gold.PLP.Fitness>
42.9783

> <Gold.PLP.PLP>
-35.9027

> <Gold.PLP.part.hbond>
-1.0000

> <Gold.PLP.part.metal>
0.0000

> <Gold.PLP.part.buried>
-2.0080

> <Gold.PLP.part.nonpolar>
-32.0126

> <Gold.PLP.part.repulsive>
0.2436

> <Gold.PLP.ligand.clash>
0.0000

> <Gold.PLP.ligand.torsion>
0.9326

> <Gold.PLP.Chemscore.Hbond>
0.9760

> <Gold.PLP.Chemscore.CHOScore>
2.0000

> <Gold.PLP.Chemscore.Metal>
0.0000

> <Gold.Chemscore.Hbonds>
donor molecule, donor type, donor heavy atom, donor atom, acceptor molecule, acceptor atom, score
      P1  H  7997  8009       L1     1  0.99
      L1  C     6    19       P1  7957  0.11
      L1  C     7    20       P1  8028  1.00

> <Gold.PLP.Chemscore.Internal.Correction>
0.0128

> <Gold.Rescore>
     Score         DG    S(hbond)    S(metal)    S(lipo)     H(rot)  DE(clash)    DE(int)     intcor
     16.38     -17.65       0.83        0.00     102.08       1.00       0.06       1.21       ----

> <Gold.Chemscore.Fitness>
16.3752

> <Gold.Chemscore.DG>
-17.6515

> <Gold.Chemscore.ZeroCoef>
-5.4800

> <Gold.Chemscore.Hbond>
0.8346

> <Gold.Chemscore.Metal>
0.0000

> <Gold.Chemscore.Lipo>
102.0850

> <Gold.Chemscore.Internal_Hbond>
0.0000

> <Gold.Chemscore.DEClash>
0.0631

> <Gold.Chemscore.DEInternal>
1.2132

> <Gold.Chemscore.Rot>
1.0000

> <Gold.Chemscore.Internal.Correction>
   9.000000E+99

> <Gold.Chemscore.Hbonds>
donor molecule, donor type, donor heavy atom, donor atom, acceptor molecule, acceptor atom, score
      P1  H  7997  8009       L1     1  0.47

> <Gold.Chemscore.Hbond.Weighted>
-2.7875

> <Gold.Chemscore.Metal.Weighted>
-0.0000

> <Gold.Chemscore.Lipo.Weighted>
-11.9439

> <Gold.Chemscore.Internal_Hbond.Weighted>
0.0000

> <Gold.Chemscore.DEClash.Weighted>
0.0631

> <Gold.Chemscore.DEInternal.Weighted>
1.2132

> <Gold.Chemscore.Rot.Weighted>
2.5600

> <Gold.Chemscore.Internal.Correction.Weighted>
   9.000000E+99

> <Gold.Protein.RotatedTorsions>
[ 6907 6896 6895 6894 ] final  116.22 input  -60.11 | X-H torsion
[ 7974 7965 7964 7962 ] final  -77.22 input  175.53 | X-H torsion
[ 8008 7997 7996 7995 ] final  143.04 input   59.86 | X-H torsion
[ 10167 10162 10161 10158 ] final  -14.55 input  -65.29 | X-H torsion
[ 10718 10713 10712 10709 ] final -146.63 input   66.30 | X-H torsion
[ 10763 10752 10751 10750 ] final  159.20 input  -60.55 | X-H torsion
[ 11005 11000 10999 10996 ] final  102.12 input  -57.11 | X-H torsion

> <Gold.Protein.ActiveResidues>
 VAL166  LYS551  ARG553  GLY616  TRP617  ASP618  TYR619  PRO620  LYS621  CYS622 
 ASP623  PHE694  ASN695  SER759  ASP760  ASP761  ALA762  ILE779  LEU786  VAL792 
 PHE793  MET794  SER795  GLU796  ALA797  LYS798  CYS799  TRP800  GLU811  SER814 

> <Gold.Protein.RotatedAtoms>
  152.4692  133.7991  159.6942 H   0  0  0  0  0  0  0  0  0  0  0  0  # atno 6907 bound_to 6896
  150.8672  133.7548  159.2979 H   0  0  0  0  0  0  0  0  0  0  0  0  # atno 6908 bound_to 6896
  151.5095  135.1068  159.9902 H   0  0  0  0  0  0  0  0  0  0  0  0  # atno 6909 bound_to 6896
  145.6026  140.9405  143.1233 H   0  0  0  0  0  0  0  0  0  0  0  0  # atno 7974 bound_to 7965
  156.2938  140.2273  156.4825 H   0  0  0  0  0  0  0  0  0  0  0  0  # atno 8008 bound_to 7997
  154.7840  140.0458  157.1170 H   0  0  0  0  0  0  0  0  0  0  0  0  # atno 8009 bound_to 7997
  154.9724  140.3068  155.4985 H   0  0  0  0  0  0  0  0  0  0  0  0  # atno 8010 bound_to 7997
  140.7203  143.5310  150.9520 H   0  0  0  0  0  0  0  0  0  0  0  0  # atno 10167 bound_to 10162
  156.3973  130.7916  151.2124 H   0  0  0  0  0  0  0  0  0  0  0  0  # atno 10718 bound_to 10713
  154.2281  135.2779  155.2900 H   0  0  0  0  0  0  0  0  0  0  0  0  # atno 10763 bound_to 10752
  154.5647  135.5636  153.7042 H   0  0  0  0  0  0  0  0  0  0  0  0  # atno 10764 bound_to 10752
  153.0026  135.6306  154.2422 H   0  0  0  0  0  0  0  0  0  0  0  0  # atno 10765 bound_to 10752
  139.8776  134.9211  156.5010 H   0  0  0  0  0  0  0  0  0  0  0  0  # atno 11005 bound_to 11000
  144.7303  139.7745  143.7349 LP  0  0  0  0  0  0  0  0  0  0  0  0  # atno 17320 bound_to 7965
  146.1565  139.4664  143.0015 LP  0  0  0  0  0  0  0  0  0  0  0  0  # atno 17321 bound_to 7965
  139.9030  143.6813  152.3128 LP  0  0  0  0  0  0  0  0  0  0  0  0  # atno 17342 bound_to 10162
  139.7169  144.7610  151.1019 LP  0  0  0  0  0  0  0  0  0  0  0  0  # atno 17343 bound_to 10162
  157.7502  131.0297  150.4106 LP  0  0  0  0  0  0  0  0  0  0  0  0  # atno 17370 bound_to 10713
  156.4378  130.3985  149.6717 LP  0  0  0  0  0  0  0  0  0  0  0  0  # atno 17371 bound_to 10713
  140.8590  133.8074  155.9245 LP  0  0  0  0  0  0  0  0  0  0  0  0  # atno 17394 bound_to 11000
  140.9069  134.2309  157.5009 LP  0  0  0  0  0  0  0  0  0  0  0  0  # atno 17395 bound_to 11000

$$$$
