AV-unprocessed.smi:1660|AV-procd|sdf|6652|dock7
  -GOLD-   22720 7363D 1   1.00000     0.00000
 Structure written by MMmdl.
 42 43  0  0  0  0  0  0  0  0  1 V2000
  143.5348  132.7214  150.7192 C   0  0  0  0  0  0  0  0  0  0  0  0
  143.1008  133.7725  151.5755 O   0  0  0  0  0  0  0  0  0  0  0  0
  143.9224  134.8696  151.7347 C   0  0  0  0  0  0  0  0  0  0  0  0
  143.5312  135.8792  152.6361 C   0  0  0  0  0  0  0  0  0  0  0  0
  144.3628  137.0027  152.8044 C   0  0  0  0  0  0  0  0  0  0  0  0
  145.5698  137.0771  152.0687 C   0  0  0  0  0  0  0  0  0  0  0  0
  146.4854  138.1626  152.1359 N   0  0  0  0  0  0  0  0  0  0  0  0
  146.5908  139.1135  153.0803 C   0  0  0  0  0  0  0  0  0  0  0  0
  145.9016  139.1886  154.0973 O   0  0  0  0  0  0  0  0  0  0  0  0
  147.5693  139.9811  152.7898 N   0  0  0  0  0  0  0  0  0  0  0  0
  147.9306  141.1165  153.6284 C   0  0  0  0  0  0  0  0  0  0  0  0
  148.7287  140.6526  154.8607 C   0  0  0  0  0  0  0  0  0  0  0  0
  149.8570  139.6590  154.5301 C   0  0  0  0  0  0  0  0  0  0  0  0
  149.6173  138.7109  153.7806 O   0  0  0  0  0  0  0  0  0  0  0  0
  151.0839  139.8569  155.0692 N   0  0  0  0  0  0  0  0  0  0  0  0
  151.3759  140.9263  156.0277 C   0  0  0  0  0  0  0  0  0  0  0  0
  151.7152  140.2787  157.3825 C   0  0  0  0  0  0  0  0  0  0  0  0
  152.8184  139.3886  157.2263 O   0  0  0  0  0  0  0  0  0  0  0  0
  152.5783  138.3573  156.2712 C   0  0  0  0  0  0  0  0  0  0  0  0
  152.2513  138.9853  154.9045 C   0  0  0  0  0  0  0  0  0  0  0  0
  145.8632  136.0196  151.1828 C   0  0  0  0  0  0  0  0  0  0  0  0
  145.0705  134.9400  151.0166 N   0  0  0  0  0  0  0  0  0  0  0  0
  142.7786  131.9370  150.7004 H   0  0  0  0  0  0  0  0  0  0  0  0
  144.4652  132.2759  151.0746 H   0  0  0  0  0  0  0  0  0  0  0  0
  143.6729  133.0718  149.6954 H   0  0  0  0  0  0  0  0  0  0  0  0
  142.6055  135.7959  153.1865 H   0  0  0  0  0  0  0  0  0  0  0  0
  144.0506  137.7835  153.4798 H   0  0  0  0  0  0  0  0  0  0  0  0
  147.1762  138.1904  151.4000 H   0  0  0  0  0  0  0  0  0  0  0  0
  148.0950  139.8496  151.9382 H   0  0  0  0  0  0  0  0  0  0  0  0
  148.5187  141.8204  153.0365 H   0  0  0  0  0  0  0  0  0  0  0  0
  147.0213  141.6340  153.9404 H   0  0  0  0  0  0  0  0  0  0  0  0
  149.1643  141.5255  155.3488 H   0  0  0  0  0  0  0  0  0  0  0  0
  148.0493  140.1847  155.5743 H   0  0  0  0  0  0  0  0  0  0  0  0
  152.2211  141.5156  155.6693 H   0  0  0  0  0  0  0  0  0  0  0  0
  150.5493  141.6275  156.1503 H   0  0  0  0  0  0  0  0  0  0  0  0
  151.9790  141.0446  158.1119 H   0  0  0  0  0  0  0  0  0  0  0  0
  150.8544  139.7392  157.7813 H   0  0  0  0  0  0  0  0  0  0  0  0
  153.4674  137.7313  156.1967 H   0  0  0  0  0  0  0  0  0  0  0  0
  151.7624  137.7167  156.6102 H   0  0  0  0  0  0  0  0  0  0  0  0
  152.1168  138.2013  154.1612 H   0  0  0  0  0  0  0  0  0  0  0  0
  153.0968  139.5801  154.5561 H   0  0  0  0  0  0  0  0  0  0  0  0
  146.7658  136.0362  150.5897 H   0  0  0  0  0  0  0  0  0  0  0  0
  1  2  1  0  0  0  0
  1 23  1  0  0  0  0
  1 24  1  0  0  0  0
  1 25  1  0  0  0  0
  2  3  1  0  0  0  0
  3 22  1  0  0  0  0
  3  4  2  0  0  0  0
  4  5  1  0  0  0  0
  4 26  1  0  0  0  0
  5  6  2  0  0  0  0
  5 27  1  0  0  0  0
  6  7  1  0  0  0  0
  6 21  1  0  0  0  0
  7  8  1  0  0  0  0
  7 28  1  0  0  0  0
  8  9  2  0  0  0  0
  8 10  1  0  0  0  0
 10 11  1  0  0  0  0
 10 29  1  0  0  0  0
 11 12  1  0  0  0  0
 11 30  1  0  0  0  0
 11 31  1  0  0  0  0
 12 13  1  0  0  0  0
 12 32  1  0  0  0  0
 12 33  1  0  0  0  0
 13 14  2  0  0  0  0
 13 15  1  0  0  0  0
 15 20  1  0  0  0  0
 15 16  1  0  0  0  0
 16 17  1  0  0  0  0
 16 34  1  0  0  0  0
 16 35  1  0  0  0  0
 17 18  1  0  0  0  0
 17 36  1  0  0  0  0
 17 37  1  0  0  0  0
 18 19  1  0  0  0  0
 19 20  1  0  0  0  0
 19 38  1  0  0  0  0
 19 39  1  0  0  0  0
 20 40  1  0  0  0  0
 20 41  1  0  0  0  0
 21 22  2  0  0  0  0
 21 42  1  0  0  0  0
M  END
> <s_m_source_file>
AV-unprocessed.smi

> <i_m_source_file_index>
1660

> <i_lp_mmshare_version>
43012

> <i_f3d_flags>
0

> <s_epik_input>
W0NIM11PYzFbY0hdW2NIXWMoW2NIXW4xKVtOSF1DKD1PKVtOSF1bQ0gyXVtDSDJdQyg9TylOMltDSDJdW0NIMl1PW0NIMl1bQ0gyXTI=

> <s_epik_cmdline>
J2VwaWtfcHl0aG9uJywgJy1waCcsICc3LjAnLCAnLXRuJywgJzgnLCAnLW1hJywgJzIwMCcsICctbWV0YWxfYmluZGluZycsICctaW1hZScsICc8aW5maWxlLm1hZT4nLCAnLW9tYWUnLCAnPG91dGZpbGUubWFlPic=

> <r_lp_tautomer_probability>
1

> <r_epik_Ionization_Penalty>
8.54597e-05

> <r_epik_Ionization_Penalty_Charging>
0

> <r_epik_Ionization_Penalty_Neutral>
8.54597e-05

> <r_epik_State_Penalty>
-0

> <r_epik_Charging_Adjusted_Penalty>
0

> <i_epik_Tot_Q>
0

> <i_epik_Tot_abs_Q>
0

> <r_epik_Metal_State_Penalty>
-0

> <b_epik_Metal_Only>
0

> <s_lp_Force_Field>
OPLS_2005

> <r_lp_Energy>
25.5639

> <b_lp_Chiralities_Consistent>
1

> <s_lp_Variant>
AV-unprocessed.smi:1660-1

> <Gold.Version>
5.8.1

> <Gold.Id.Protein>
6NUR|6NUR_protein|mol2

> <Gold.PLP.Fitness>
44.5827

> <Gold.PLP.PLP>
-37.0050

> <Gold.PLP.part.hbond>
-2.8326

> <Gold.PLP.part.metal>
0.0000

> <Gold.PLP.part.buried>
-4.6343

> <Gold.PLP.part.nonpolar>
-31.9855

> <Gold.PLP.part.repulsive>
2.2821

> <Gold.PLP.ligand.clash>
0.0000

> <Gold.PLP.ligand.torsion>
0.3862

> <Gold.PLP.Chemscore.Hbond>
1.9760

> <Gold.PLP.Chemscore.CHOScore>
0.7979

> <Gold.PLP.Chemscore.Metal>
0.0000

> <Gold.Chemscore.Hbonds>
donor molecule, donor type, donor heavy atom, donor atom, acceptor molecule, acceptor atom, score
      L1  H    10    29       P1  7957  0.96
      P1  H  7997  8009       L1    18  1.00
      L1  C    21    42       P1  7948  0.76

> <Gold.PLP.Chemscore.Internal.Correction>
0.0286

> <Gold.Rescore>
     Score         DG    S(hbond)    S(metal)    S(lipo)     H(rot)  DE(clash)    DE(int)     intcor
     10.05     -13.39       1.47        0.00      66.86       1.88       0.12       3.23       ----

> <Gold.Chemscore.Fitness>
10.0488

> <Gold.Chemscore.DG>
-13.3941

> <Gold.Chemscore.ZeroCoef>
-5.4800

> <Gold.Chemscore.Hbond>
1.4707

> <Gold.Chemscore.Metal>
0.0000

> <Gold.Chemscore.Lipo>
66.8553

> <Gold.Chemscore.Internal_Hbond>
0.0000

> <Gold.Chemscore.DEClash>
0.1158

> <Gold.Chemscore.DEInternal>
3.2295

> <Gold.Chemscore.Rot>
1.8828

> <Gold.Chemscore.Internal.Correction>
   9.000000E+99

> <Gold.Chemscore.Hbonds>
donor molecule, donor type, donor heavy atom, donor atom, acceptor molecule, acceptor atom, score
      L1  H    10    29       P1  7957  0.92
      P1  H  7997  8009       L1    18  0.64

> <Gold.Chemscore.Hbond.Weighted>
-4.9120

> <Gold.Chemscore.Metal.Weighted>
-0.0000

> <Gold.Chemscore.Lipo.Weighted>
-7.8221

> <Gold.Chemscore.Internal_Hbond.Weighted>
0.0000

> <Gold.Chemscore.DEClash.Weighted>
0.1158

> <Gold.Chemscore.DEInternal.Weighted>
3.2295

> <Gold.Chemscore.Rot.Weighted>
4.8200

> <Gold.Chemscore.Internal.Correction.Weighted>
   9.000000E+99

> <Gold.Protein.RotatedTorsions>
[ 6907 6896 6895 6894 ] final   66.35 input  -60.11 | X-H torsion
[ 7974 7965 7964 7962 ] final   34.48 input  175.53 | X-H torsion
[ 8008 7997 7996 7995 ] final  160.00 input   59.86 | X-H torsion
[ 10167 10162 10161 10158 ] final   79.77 input  -65.29 | X-H torsion
[ 10718 10713 10712 10709 ] final   71.84 input   66.30 | X-H torsion
[ 10763 10752 10751 10750 ] final  -34.17 input  -60.55 | X-H torsion
[ 11005 11000 10999 10996 ] final  169.58 input  -57.11 | X-H torsion

> <Gold.Protein.ActiveResidues>
 VAL166  LYS551  ARG553  GLY616  TRP617  ASP618  TYR619  PRO620  LYS621  CYS622 
 ASP623  PHE694  ASN695  SER759  ASP760  ASP761  ALA762  ILE779  LEU786  VAL792 
 PHE793  MET794  SER795  GLU796  ALA797  LYS798  CYS799  TRP800  GLU811  SER814 

> <Gold.Protein.RotatedAtoms>
  152.4474  134.5465  159.9854 H   0  0  0  0  0  0  0  0  0  0  0  0  # atno 6907 bound_to 6896
  151.5547  133.3406  159.2967 H   0  0  0  0  0  0  0  0  0  0  0  0  # atno 6908 bound_to 6896
  150.8394  134.7712  159.6983 H   0  0  0  0  0  0  0  0  0  0  0  0  # atno 6909 bound_to 6896
  146.1350  139.6263  142.9201 H   0  0  0  0  0  0  0  0  0  0  0  0  # atno 7974 bound_to 7965
  156.2201  140.1816  156.7496 H   0  0  0  0  0  0  0  0  0  0  0  0  # atno 8008 bound_to 7997
  154.5853  140.0659  156.9190 H   0  0  0  0  0  0  0  0  0  0  0  0  # atno 8009 bound_to 7997
  155.2431  140.3323  155.4292 H   0  0  0  0  0  0  0  0  0  0  0  0  # atno 8010 bound_to 7997
  139.9568  144.5989  150.8109 H   0  0  0  0  0  0  0  0  0  0  0  0  # atno 10167 bound_to 10162
  157.6471  130.9548  150.0845 H   0  0  0  0  0  0  0  0  0  0  0  0  # atno 10718 bound_to 10713
  153.8424  135.6856  153.4801 H   0  0  0  0  0  0  0  0  0  0  0  0  # atno 10763 bound_to 10752
  153.1446  135.4643  154.9545 H   0  0  0  0  0  0  0  0  0  0  0  0  # atno 10764 bound_to 10752
  154.7839  135.3278  154.7876 H   0  0  0  0  0  0  0  0  0  0  0  0  # atno 10765 bound_to 10752
  140.2993  134.7608  157.3903 H   0  0  0  0  0  0  0  0  0  0  0  0  # atno 11005 bound_to 11000
  145.5177  141.0433  143.2453 LP  0  0  0  0  0  0  0  0  0  0  0  0  # atno 17320 bound_to 7965
  144.7730  139.6693  143.7187 LP  0  0  0  0  0  0  0  0  0  0  0  0  # atno 17321 bound_to 7965
  140.7566  143.3069  151.2941 LP  0  0  0  0  0  0  0  0  0  0  0  0  # atno 17342 bound_to 10162
  139.6585  144.0232  152.2676 LP  0  0  0  0  0  0  0  0  0  0  0  0  # atno 17343 bound_to 10162
  156.1812  130.3650  149.9033 LP  0  0  0  0  0  0  0  0  0  0  0  0  # atno 17370 bound_to 10713
  156.6985  130.8924  151.3596 LP  0  0  0  0  0  0  0  0  0  0  0  0  # atno 17371 bound_to 10713
  140.1124  134.5328  155.8255 LP  0  0  0  0  0  0  0  0  0  0  0  0  # atno 17394 bound_to 11000
  141.2131  133.6729  156.6713 LP  0  0  0  0  0  0  0  0  0  0  0  0  # atno 17395 bound_to 11000

$$$$
