AV-unprocessed.smi:2145|AV-procd|sdf|8734|dock4
  -GOLD-   2272011503D 1   1.00000     0.00000
 Structure written by MMmdl.
 44 46  0  0  0  0  0  0  0  0  1 V2000
  151.8563  131.5567  164.5260 C   0  0  0  0  0  0  0  0  0  0  0  0
  152.6775  131.8555  163.2729 C   0  0  0  0  0  0  0  0  0  0  0  0
  152.7906  130.9782  162.4175 O   0  0  0  0  0  0  0  0  0  0  0  0
  153.2995  133.2050  163.1539 C   0  0  0  0  0  0  0  0  0  0  0  0
  153.0494  134.1754  164.1498 C   0  0  0  0  0  0  0  0  0  0  0  0
  153.6207  135.4588  164.0588 C   0  0  0  0  0  0  0  0  0  0  0  0
  154.4489  135.8061  162.9736 C   0  0  0  0  0  0  0  0  0  0  0  0
  154.9610  137.0857  162.9611 O   0  0  0  0  0  0  0  0  0  0  0  0
  155.8225  137.4561  161.8926 C   0  0  0  0  0  0  0  0  0  0  0  0
  155.7506  138.9796  161.7084 C   0  0  2  0  0  0  0  0  0  0  0  0
  156.6152  139.5826  162.6512 O   0  0  0  0  0  0  0  0  0  0  0  0
  154.3208  139.5178  161.9198 C   0  0  0  0  0  0  0  0  0  0  0  0
  153.7888  140.1843  160.7385 N   0  0  0  0  0  0  0  0  0  0  0  0
  153.7522  139.7184  159.4660 C   0  0  0  0  0  0  0  0  0  0  0  0
  154.2848  138.3683  159.1043 C   0  0  0  0  0  0  0  0  0  0  0  0
  153.2093  140.5341  158.5623 N   0  0  0  0  0  0  0  0  0  0  0  0
  152.8574  141.6342  159.3209 C   0  0  0  0  0  0  0  0  0  0  0  0
  152.2363  142.8470  158.9459 C   0  0  0  0  0  0  0  0  0  0  0  0
  151.9703  143.8410  159.9105 C   0  0  0  0  0  0  0  0  0  0  0  0
  152.3214  143.6372  161.2607 C   0  0  0  0  0  0  0  0  0  0  0  0
  152.9415  142.4361  161.6556 C   0  0  0  0  0  0  0  0  0  0  0  0
  153.2045  141.4467  160.6891 C   0  0  0  0  0  0  0  0  0  0  0  0
  154.7032  134.8344  161.9749 C   0  0  0  0  0  0  0  0  0  0  0  0
  154.1347  133.5488  162.0656 C   0  0  0  0  0  0  0  0  0  0  0  0
  151.0177  132.2485  164.6062 H   0  0  0  0  0  0  0  0  0  0  0  0
  152.4739  131.6473  165.4195 H   0  0  0  0  0  0  0  0  0  0  0  0
  151.4588  130.5422  164.4878 H   0  0  0  0  0  0  0  0  0  0  0  0
  152.4160  133.9469  164.9950 H   0  0  0  0  0  0  0  0  0  0  0  0
  153.4171  136.1867  164.8305 H   0  0  0  0  0  0  0  0  0  0  0  0
  156.8420  137.1727  162.1592 H   0  0  0  0  0  0  0  0  0  0  0  0
  155.5635  136.9410  160.9656 H   0  0  0  0  0  0  0  0  0  0  0  0
  156.0881  139.2404  160.7049 H   0  0  0  0  0  0  0  0  0  0  0  0
  156.8219  140.4550  162.3520 H   0  0  0  0  0  0  0  0  0  0  0  0
  153.6470  138.7059  162.1938 H   0  0  0  0  0  0  0  0  0  0  0  0
  154.2999  140.2195  162.7548 H   0  0  0  0  0  0  0  0  0  0  0  0
  154.2329  138.2133  158.0261 H   0  0  0  0  0  0  0  0  0  0  0  0
  153.6976  137.5897  159.5916 H   0  0  0  0  0  0  0  0  0  0  0  0
  155.3255  138.2728  159.4134 H   0  0  0  0  0  0  0  0  0  0  0  0
  151.9640  143.0128  157.9141 H   0  0  0  0  0  0  0  0  0  0  0  0
  151.4953  144.7642  159.6127 H   0  0  0  0  0  0  0  0  0  0  0  0
  152.1158  144.4040  161.9931 H   0  0  0  0  0  0  0  0  0  0  0  0
  153.2156  142.2785  162.6880 H   0  0  0  0  0  0  0  0  0  0  0  0
  155.3336  135.0497  161.1256 H   0  0  0  0  0  0  0  0  0  0  0  0
  154.3542  132.8393  161.2821 H   0  0  0  0  0  0  0  0  0  0  0  0
  1  2  1  0  0  0  0
  1 25  1  0  0  0  0
  1 26  1  0  0  0  0
  1 27  1  0  0  0  0
  2  3  2  0  0  0  0
  2  4  1  0  0  0  0
  4 24  1  0  0  0  0
  4  5  2  0  0  0  0
  5  6  1  0  0  0  0
  5 28  1  0  0  0  0
  6  7  2  0  0  0  0
  6 29  1  0  0  0  0
  7  8  1  0  0  0  0
  7 23  1  0  0  0  0
  8  9  1  0  0  0  0
  9 10  1  0  0  0  0
  9 30  1  0  0  0  0
  9 31  1  0  0  0  0
 10 11  1  0  0  0  0
 10 12  1  0  0  0  0
 10 32  1  0  0  0  0
 11 33  1  0  0  0  0
 12 13  1  0  0  0  0
 12 34  1  0  0  0  0
 12 35  1  0  0  0  0
 13 22  1  0  0  0  0
 13 14  1  0  0  0  0
 14 15  1  0  0  0  0
 14 16  2  0  0  0  0
 15 36  1  0  0  0  0
 15 37  1  0  0  0  0
 15 38  1  0  0  0  0
 16 17  1  0  0  0  0
 17 22  2  0  0  0  0
 17 18  1  0  0  0  0
 18 19  2  0  0  0  0
 18 39  1  0  0  0  0
 19 20  1  0  0  0  0
 19 40  1  0  0  0  0
 20 21  2  0  0  0  0
 20 41  1  0  0  0  0
 21 22  1  0  0  0  0
 21 42  1  0  0  0  0
 23 24  2  0  0  0  0
 23 43  1  0  0  0  0
 24 44  1  0  0  0  0
M  END
> <s_m_source_file>
AV-unprocessed.smi

> <i_m_source_file_index>
2145

> <i_lp_mmshare_version>
43012

> <i_f3d_flags>
0

> <s_epik_input>
W0NIM11DKD1PKWMxW2NIXVtjSF1jKFtjSF1bY0hdMSlPW0NIMl1bQ0BIXShbT0hdKVtDSDJdbihjKG4yKVtDSDNdKWMoYzIzKVtjSF1bY0hdW2NIXVtjSF0z

> <s_epik_cmdline>
J2VwaWtfcHl0aG9uJywgJy1waCcsICc3LjAnLCAnLXRuJywgJzgnLCAnLW1hJywgJzIwMCcsICctbWV0YWxfYmluZGluZycsICctaW1hZScsICc8aW5maWxlLm1hZT4nLCAnLW9tYWUnLCAnPG91dGZpbGUubWFlPic=

> <r_lp_tautomer_probability>
0.99995

> <r_epik_Ionization_Penalty>
0.109398

> <r_epik_Ionization_Penalty_Charging>
0

> <r_epik_Ionization_Penalty_Neutral>
0.109398

> <r_epik_State_Penalty>
0.0991698

> <r_epik_Charging_Adjusted_Penalty>
0.0991698

> <i_epik_Tot_Q>
0

> <i_epik_Tot_abs_Q>
0

> <r_epik_Metal_State_Penalty>
0.000107943

> <b_epik_Metal_Only>
0

> <s_lp_Force_Field>
OPLS_2005

> <r_lp_Energy>
22.0083

> <b_lp_Chiralities_Consistent>
1

> <s_lp_Variant>
AV-unprocessed.smi:2145-1

> <Gold.Version>
5.8.1

> <Gold.Id.Protein>
6NUR|6NUR_protein|mol2

> <Gold.PLP.Fitness>
46.9865

> <Gold.PLP.PLP>
-47.7497

> <Gold.PLP.part.hbond>
-2.0000

> <Gold.PLP.part.metal>
0.0000

> <Gold.PLP.part.buried>
-2.2438

> <Gold.PLP.part.nonpolar>
-43.3805

> <Gold.PLP.part.repulsive>
0.0014

> <Gold.PLP.ligand.clash>
0.0000

> <Gold.PLP.ligand.torsion>
1.2122

> <Gold.PLP.Chemscore.Hbond>
0.5266

> <Gold.PLP.Chemscore.CHOScore>
0.0000

> <Gold.PLP.Chemscore.Metal>
0.0000

> <Gold.Chemscore.Hbonds>
donor molecule, donor type, donor heavy atom, donor atom, acceptor molecule, acceptor atom, score
      P1  H  7997  8009       L1    16  0.37

> <Gold.PLP.Chemscore.Internal.Correction>
0.0813

> <Gold.Rescore>
     Score         DG    S(hbond)    S(metal)    S(lipo)     H(rot)  DE(clash)    DE(int)     intcor
     15.90     -18.25       0.72        0.00     136.98       2.22       1.25       1.10       ----

> <Gold.Chemscore.Fitness>
15.8983

> <Gold.Chemscore.DG>
-18.2474

> <Gold.Chemscore.ZeroCoef>
-5.4800

> <Gold.Chemscore.Hbond>
0.7240

> <Gold.Chemscore.Metal>
0.0000

> <Gold.Chemscore.Lipo>
136.9752

> <Gold.Chemscore.Internal_Hbond>
0.0000

> <Gold.Chemscore.DEClash>
1.2485

> <Gold.Chemscore.DEInternal>
1.1006

> <Gold.Chemscore.Rot>
2.2176

> <Gold.Chemscore.Internal.Correction>
   9.000000E+99

> <Gold.Chemscore.Hbonds>
donor molecule, donor type, donor heavy atom, donor atom, acceptor molecule, acceptor atom, score
      P1  H  7997  8009       L1    16  0.03

> <Gold.Chemscore.Hbond.Weighted>
-2.4182

> <Gold.Chemscore.Metal.Weighted>
-0.0000

> <Gold.Chemscore.Lipo.Weighted>
-16.0261

> <Gold.Chemscore.Internal_Hbond.Weighted>
0.0000

> <Gold.Chemscore.DEClash.Weighted>
1.2485

> <Gold.Chemscore.DEInternal.Weighted>
1.1006

> <Gold.Chemscore.Rot.Weighted>
5.6769

> <Gold.Chemscore.Internal.Correction.Weighted>
   9.000000E+99

> <Gold.Protein.RotatedTorsions>
[ 6907 6896 6895 6894 ] final   72.95 input  -60.11 | X-H torsion
[ 7974 7965 7964 7962 ] final -150.05 input  175.53 | X-H torsion
[ 8008 7997 7996 7995 ] final  146.57 input   59.86 | X-H torsion
[ 10167 10162 10161 10158 ] final  -92.96 input  -65.29 | X-H torsion
[ 10718 10713 10712 10709 ] final -136.46 input   66.30 | X-H torsion
[ 10763 10752 10751 10750 ] final -177.94 input  -60.55 | X-H torsion
[ 11005 11000 10999 10996 ] final   65.15 input  -57.11 | X-H torsion

> <Gold.Protein.ActiveResidues>
 VAL166  LYS551  ARG553  GLY616  TRP617  ASP618  TYR619  PRO620  LYS621  CYS622 
 ASP623  PHE694  ASN695  SER759  ASP760  ASP761  ALA762  ILE779  LEU786  VAL792 
 PHE793  MET794  SER795  GLU796  ALA797  LYS798  CYS799  TRP800  GLU811  SER814 

> <Gold.Protein.RotatedAtoms>
  152.4896  134.4495  159.9569 H   0  0  0  0  0  0  0  0  0  0  0  0  # atno 6907 bound_to 6896
  151.4485  133.3618  159.2799 H   0  0  0  0  0  0  0  0  0  0  0  0  # atno 6908 bound_to 6896
  150.9038  134.8476  159.7438 H   0  0  0  0  0  0  0  0  0  0  0  0  # atno 6909 bound_to 6896
  144.7930  140.4983  143.5759 H   0  0  0  0  0  0  0  0  0  0  0  0  # atno 7974 bound_to 7965
  156.2851  140.2179  156.5398 H   0  0  0  0  0  0  0  0  0  0  0  0  # atno 8008 bound_to 7997
  154.7379  140.0490  157.0807 H   0  0  0  0  0  0  0  0  0  0  0  0  # atno 8009 bound_to 7997
  155.0268  140.3130  155.4776 H   0  0  0  0  0  0  0  0  0  0  0  0  # atno 8010 bound_to 7997
  140.3295  143.3003  151.9957 H   0  0  0  0  0  0  0  0  0  0  0  0  # atno 10167 bound_to 10162
  156.2773  130.7300  151.1287 H   0  0  0  0  0  0  0  0  0  0  0  0  # atno 10718 bound_to 10713
  154.5538  135.2815  155.0983 H   0  0  0  0  0  0  0  0  0  0  0  0  # atno 10763 bound_to 10752
  154.2419  135.6355  153.5214 H   0  0  0  0  0  0  0  0  0  0  0  0  # atno 10764 bound_to 10752
  153.0010  135.5562  154.6112 H   0  0  0  0  0  0  0  0  0  0  0  0  # atno 10765 bound_to 10752
  139.9913  134.6587  156.0087 H   0  0  0  0  0  0  0  0  0  0  0  0  # atno 11005 bound_to 11000
  145.5745  139.1485  143.3270 LP  0  0  0  0  0  0  0  0  0  0  0  0  # atno 17320 bound_to 7965
  146.2189  140.5877  142.9026 LP  0  0  0  0  0  0  0  0  0  0  0  0  # atno 17321 bound_to 7965
  139.4859  144.6246  151.7189 LP  0  0  0  0  0  0  0  0  0  0  0  0  # atno 17342 bound_to 10162
  140.5410  144.0579  150.6088 LP  0  0  0  0  0  0  0  0  0  0  0  0  # atno 17343 bound_to 10162
  157.7303  131.0617  150.5731 LP  0  0  0  0  0  0  0  0  0  0  0  0  # atno 17370 bound_to 10713
  156.5833  130.4310  149.5968 LP  0  0  0  0  0  0  0  0  0  0  0  0  # atno 17371 bound_to 10713
  141.1568  133.6542  156.4187 LP  0  0  0  0  0  0  0  0  0  0  0  0  # atno 17394 bound_to 11000
  140.4904  134.6581  157.5208 LP  0  0  0  0  0  0  0  0  0  0  0  0  # atno 17395 bound_to 11000

$$$$
