AV-unprocessed.smi:1803|AV-procd|sdf|7293|dock3
  -GOLD-   22720 8553D 1   1.00000     0.00000
 Structure written by MMmdl.
 35 37  0  0  0  0  0  0  0  0  3 V2000
  151.2840  140.4184  155.3213 O   0  0  0  0  0  0  0  0  0  0  0  0
  151.5983  139.6556  156.2340 C   0  0  0  0  0  0  0  0  0  0  0  0
  152.5245  139.9632  157.1785 N   0  5  0  0  0  0  0  0  0  0  0  0
  152.2871  140.8443  158.1680 C   0  0  0  0  0  0  0  0  0  0  0  0
  151.1070  141.4699  158.3077 N   0  0  0  0  0  0  0  0  0  0  0  0
  151.0762  142.3417  159.3873 N   0  0  0  0  0  0  0  0  0  0  0  0
  152.2349  142.3409  160.0459 C   0  0  0  0  0  0  0  0  0  0  0  0
  153.4715  141.2820  159.4012 S   0  0  0  0  0  0  0  0  0  0  0  0
  151.0084  138.4467  156.3019 N   0  0  0  0  0  0  0  0  0  0  0  0
  150.0419  137.9160  155.3461 C   0  0  2  0  0  0  0  0  0  0  0  0
  148.6042  137.9764  155.8447 C   0  0  0  0  0  0  0  0  0  0  0  0
  147.8861  136.9633  154.9470 C   0  0  0  0  0  0  0  0  0  0  0  0
  148.9045  135.9752  154.5129 N   0  3  2  0  0  0  0  0  0  0  0  0
  148.5493  134.5637  154.8202 C   0  0  0  0  0  0  0  0  0  0  0  0
  149.7837  133.6540  154.7314 C   0  0  0  0  0  0  0  0  0  0  0  0
  150.8538  134.0567  155.7636 C   0  0  0  0  0  0  0  0  0  0  0  0
  150.7462  135.5370  156.1768 C   0  0  0  0  0  0  0  0  0  0  0  0
  150.2339  136.4245  155.0146 C   0  0  2  0  0  0  0  0  0  0  0  0
  152.3625  142.9680  160.9157 H   0  0  0  0  0  0  0  0  0  0  0  0
  151.2813  137.8391  157.0607 H   0  0  0  0  0  0  0  0  0  0  0  0
  150.0971  138.4954  154.4220 H   0  0  0  0  0  0  0  0  0  0  0  0
  148.5501  137.6524  156.8852 H   0  0  0  0  0  0  0  0  0  0  0  0
  148.1738  138.9764  155.7814 H   0  0  0  0  0  0  0  0  0  0  0  0
  147.0351  136.5095  155.4567 H   0  0  0  0  0  0  0  0  0  0  0  0
  147.5023  137.4603  154.0555 H   0  0  0  0  0  0  0  0  0  0  0  0
  148.1249  134.4915  155.8231 H   0  0  0  0  0  0  0  0  0  0  0  0
  147.7765  134.2332  154.1255 H   0  0  0  0  0  0  0  0  0  0  0  0
  149.5019  132.6104  154.8740 H   0  0  0  0  0  0  0  0  0  0  0  0
  150.2028  133.7219  153.7264 H   0  0  0  0  0  0  0  0  0  0  0  0
  150.7681  133.4346  156.6553 H   0  0  0  0  0  0  0  0  0  0  0  0
  151.8418  133.8554  155.3479 H   0  0  0  0  0  0  0  0  0  0  0  0
  150.0662  135.6271  157.0250 H   0  0  0  0  0  0  0  0  0  0  0  0
  151.7192  135.8753  156.5341 H   0  0  0  0  0  0  0  0  0  0  0  0
  150.9500  136.3370  154.1960 H   0  0  0  0  0  0  0  0  0  0  0  0
  148.9567  136.0482  153.5069 H   0  0  0  0  0  0  0  0  0  0  0  0
  1  2  2  0  0  0  0
  2  3  1  0  0  0  0
  2  9  1  0  0  0  0
  3  4  1  0  0  0  0
  4  8  1  0  0  0  0
  4  5  2  0  0  0  0
  5  6  1  0  0  0  0
  6  7  2  0  0  0  0
  7  8  1  0  0  0  0
  7 19  1  0  0  0  0
  9 10  1  0  0  0  0
  9 20  1  0  0  0  0
 10 18  1  0  0  0  0
 10 11  1  0  0  0  0
 10 21  1  0  0  0  0
 11 12  1  0  0  0  0
 11 22  1  0  0  0  0
 11 23  1  0  0  0  0
 12 13  1  0  0  0  0
 12 24  1  0  0  0  0
 12 25  1  0  0  0  0
 13 18  1  0  0  0  0
 13 14  1  0  0  0  0
 13 35  1  0  0  0  0
 14 15  1  0  0  0  0
 14 26  1  0  0  0  0
 14 27  1  0  0  0  0
 15 16  1  0  0  0  0
 15 28  1  0  0  0  0
 15 29  1  0  0  0  0
 16 17  1  0  0  0  0
 16 30  1  0  0  0  0
 16 31  1  0  0  0  0
 17 18  1  0  0  0  0
 17 32  1  0  0  0  0
 17 33  1  0  0  0  0
 18 34  1  0  0  0  0
M  CHG  1   3  -1
M  CHG  1  13   1
M  END
> <s_m_source_file>
AV-unprocessed.smi

> <i_m_source_file_index>
1803

> <i_lp_mmshare_version>
43012

> <i_f3d_flags>
0

> <s_epik_input>
czFbY0hdbm5jMVtOSF1DKD1PKVtOSF1bQ0BIXShbQ0gyXVtDSDJdMilbQ0BASF0oTjIzKVtDSDJdW0NIMl1bQ0gyXVtDSDJdMw==

> <s_epik_cmdline>
J2VwaWtfcHl0aG9uJywgJy1waCcsICc3LjAnLCAnLXRuJywgJzgnLCAnLW1hJywgJzIwMCcsICctbWV0YWxfYmluZGluZycsICctaW1hZScsICc8aW5maWxlLm1hZT4nLCAnLW9tYWUnLCAnPG91dGZpbGUubWFlPic=

> <r_lp_tautomer_probability>
1

> <r_epik_Ionization_Penalty>
3.78828

> <r_epik_Ionization_Penalty_Charging>
3.7591

> <r_epik_Ionization_Penalty_Neutral>
0.0291838

> <r_epik_State_Penalty>
3.757

> <r_epik_Charging_Adjusted_Penalty>
7.51609

> <i_epik_Tot_Q>
0

> <i_epik_Tot_abs_Q>
2

> <r_epik_Metal_State_Penalty>
0.558016

> <b_epik_Metal_Only>
1

> <s_lp_Force_Field>
OPLS_2005

> <r_lp_Energy>
34.1757

> <b_lp_Chiralities_Consistent>
1

> <s_lp_Variant>
AV-unprocessed.smi:1803-15

> <Gold.Version>
5.8.1

> <Gold.Id.Protein>
6NUR|6NUR_protein|mol2

> <Gold.PLP.Fitness>
37.5531

> <Gold.PLP.PLP>
-24.5448

> <Gold.PLP.part.hbond>
-3.7179

> <Gold.PLP.part.metal>
0.0000

> <Gold.PLP.part.buried>
-4.9193

> <Gold.PLP.part.nonpolar>
-16.9176

> <Gold.PLP.part.repulsive>
0.0637

> <Gold.PLP.ligand.clash>
0.0000

> <Gold.PLP.ligand.torsion>
0.9403

> <Gold.PLP.Chemscore.Hbond>
4.9600

> <Gold.PLP.Chemscore.CHOScore>
0.0000

> <Gold.PLP.Chemscore.Metal>
0.0000

> <Gold.Chemscore.Hbonds>
donor molecule, donor type, donor heavy atom, donor atom, acceptor molecule, acceptor atom, score
      L1  H    13    35       P1  7948  2.00
      P1  H  7989  7998       L1     1  0.94
      P1  H  7997  8009       L1     3  2.00

> <Gold.PLP.Chemscore.Internal.Correction>
0.0089

> <Gold.Rescore>
     Score         DG    S(hbond)    S(metal)    S(lipo)     H(rot)  DE(clash)    DE(int)     intcor
     16.76     -17.73       2.67        0.00      50.26       1.00       0.01       0.96       ----

> <Gold.Chemscore.Fitness>
16.7650

> <Gold.Chemscore.DG>
-17.7346

> <Gold.Chemscore.ZeroCoef>
-5.4800

> <Gold.Chemscore.Hbond>
2.6748

> <Gold.Chemscore.Metal>
0.0000

> <Gold.Chemscore.Lipo>
50.2621

> <Gold.Chemscore.Internal_Hbond>
0.0000

> <Gold.Chemscore.DEClash>
0.0106

> <Gold.Chemscore.DEInternal>
0.9590

> <Gold.Chemscore.Rot>
1.0000

> <Gold.Chemscore.Internal.Correction>
   9.000000E+99

> <Gold.Chemscore.Hbonds>
donor molecule, donor type, donor heavy atom, donor atom, acceptor molecule, acceptor atom, score
      L1  H    13    35       P1  7948  0.97
      P1  H  7989  7998       L1     1  0.91
      P1  H  7997  8009       L1     3  0.69

> <Gold.Chemscore.Hbond.Weighted>
-8.9340

> <Gold.Chemscore.Metal.Weighted>
-0.0000

> <Gold.Chemscore.Lipo.Weighted>
-5.8807

> <Gold.Chemscore.Internal_Hbond.Weighted>
0.0000

> <Gold.Chemscore.DEClash.Weighted>
0.0106

> <Gold.Chemscore.DEInternal.Weighted>
0.9590

> <Gold.Chemscore.Rot.Weighted>
2.5600

> <Gold.Chemscore.Internal.Correction.Weighted>
   9.000000E+99

> <Gold.Protein.RotatedTorsions>
[ 6907 6896 6895 6894 ] final  149.13 input  -60.11 | X-H torsion
[ 7974 7965 7964 7962 ] final -161.27 input  175.53 | X-H torsion
[ 8008 7997 7996 7995 ] final -177.51 input   59.86 | X-H torsion
[ 10167 10162 10161 10158 ] final  -78.29 input  -65.29 | X-H torsion
[ 10718 10713 10712 10709 ] final  -31.18 input   66.30 | X-H torsion
[ 10763 10752 10751 10750 ] final   95.17 input  -60.55 | X-H torsion
[ 11005 11000 10999 10996 ] final    4.91 input  -57.11 | X-H torsion

> <Gold.Protein.ActiveResidues>
 VAL166  LYS551  ARG553  GLY616  TRP617  ASP618  TYR619  PRO620  LYS621  CYS622 
 ASP623  PHE694  ASN695  SER759  ASP760  ASP761  ALA762  ILE779  LEU786  VAL792 
 PHE793  MET794  SER795  GLU796  ALA797  LYS798  CYS799  TRP800  GLU811  SER814 

> <Gold.Protein.RotatedAtoms>
  152.1321  133.4414  159.4725 H   0  0  0  0  0  0  0  0  0  0  0  0  # atno 6907 bound_to 6896
  150.6879  134.2408  159.4480 H   0  0  0  0  0  0  0  0  0  0  0  0  # atno 6908 bound_to 6896
  152.0292  134.9777  160.0623 H   0  0  0  0  0  0  0  0  0  0  0  0  # atno 6909 bound_to 6896
  144.7397  140.3422  143.6132 H   0  0  0  0  0  0  0  0  0  0  0  0  # atno 7974 bound_to 7965
  156.0078  140.1234  157.0484 H   0  0  0  0  0  0  0  0  0  0  0  0  # atno 8008 bound_to 7997
  154.4265  140.1094  156.5856 H   0  0  0  0  0  0  0  0  0  0  0  0  # atno 8009 bound_to 7997
  155.6122  140.3471  155.4628 H   0  0  0  0  0  0  0  0  0  0  0  0  # atno 8010 bound_to 7997
  140.4696  143.2430  151.8226 H   0  0  0  0  0  0  0  0  0  0  0  0  # atno 10167 bound_to 10162
  156.3905  130.4372  149.7398 H   0  0  0  0  0  0  0  0  0  0  0  0  # atno 10718 bound_to 10713
  153.2501  135.4263  155.0788 H   0  0  0  0  0  0  0  0  0  0  0  0  # atno 10763 bound_to 10752
  154.8378  135.3423  154.6525 H   0  0  0  0  0  0  0  0  0  0  0  0  # atno 10764 bound_to 10752
  153.6947  135.7032  153.5137 H   0  0  0  0  0  0  0  0  0  0  0  0  # atno 10765 bound_to 10752
  140.5766  134.0052  155.8030 H   0  0  0  0  0  0  0  0  0  0  0  0  # atno 11005 bound_to 11000
  145.7363  139.1751  143.2401 LP  0  0  0  0  0  0  0  0  0  0  0  0  # atno 17320 bound_to 7965
  146.1168  140.7359  142.9476 LP  0  0  0  0  0  0  0  0  0  0  0  0  # atno 17321 bound_to 7965
  139.4816  144.4909  151.9187 LP  0  0  0  0  0  0  0  0  0  0  0  0  # atno 17342 bound_to 10162
  140.3994  144.2513  150.5894 LP  0  0  0  0  0  0  0  0  0  0  0  0  # atno 17343 bound_to 10162
  156.4454  130.7881  151.2902 LP  0  0  0  0  0  0  0  0  0  0  0  0  # atno 17370 bound_to 10713
  157.7498  131.0112  150.3336 LP  0  0  0  0  0  0  0  0  0  0  0  0  # atno 17371 bound_to 10713
  141.1023  133.9749  157.3058 LP  0  0  0  0  0  0  0  0  0  0  0  0  # atno 17394 bound_to 11000
  139.9337  135.0198  156.8484 LP  0  0  0  0  0  0  0  0  0  0  0  0  # atno 17395 bound_to 11000

$$$$
