AV-unprocessed.smi:649|AV-procd|sdf|3180|dock10
  -GOLD-   22720 0103D 1   1.00000     0.00000
 Structure written by MMmdl.
 34 35  0  0  0  0  0  0  0  0  2 V2000
  151.7578  143.5261  158.2054 C   0  0  0  0  0  0  0  0  0  0  0  0
  152.2873  143.2841  159.6035 C   0  0  0  0  0  0  0  0  0  0  0  0
  152.0399  144.2135  160.6297 C   0  0  0  0  0  0  0  0  0  0  0  0
  152.5516  143.9867  161.9197 C   0  0  0  0  0  0  0  0  0  0  0  0
  153.3178  142.8351  162.2029 C   0  0  0  0  0  0  0  0  0  0  0  0
  153.8537  142.6690  163.6156 C   0  0  0  0  0  0  0  0  0  0  0  0
  153.5670  141.8877  161.1699 C   0  0  0  0  0  0  0  0  0  0  0  0
  154.4064  140.6204  161.3648 C   0  0  2  0  0  0  0  0  0  0  0  0
  155.6524  140.8532  161.9886 O   0  0  0  0  0  0  0  0  0  0  0  0
  154.6165  139.7871  160.0776 C   0  0  0  0  0  0  0  0  0  0  0  0
  153.4489  138.9543  159.7467 N   0  0  0  0  0  0  0  0  0  0  0  0
  152.6660  139.3630  158.6542 C   0  0  0  0  0  0  0  0  0  0  0  0
  151.5943  138.6616  158.2381 C   0  0  0  0  0  0  0  0  0  0  0  0
  150.6571  139.1858  156.8848 Cl  0  0  0  0  0  0  0  0  0  0  0  0
  151.2506  137.4407  158.9637 C   0  0  0  0  0  0  0  0  0  0  0  0
  150.2793  136.7744  158.6087 O   0  0  0  0  0  0  0  0  0  0  0  0
  152.0381  137.0895  160.0221 N   0  5  0  0  0  0  0  0  0  0  0  0
  153.1262  137.8137  160.4283 C   0  0  0  0  0  0  0  0  0  0  0  0
  153.8242  137.4676  161.3814 O   0  0  0  0  0  0  0  0  0  0  0  0
  153.0438  142.1296  159.8790 C   0  0  0  0  0  0  0  0  0  0  0  0
  150.9420  144.2496  158.2125 H   0  0  0  0  0  0  0  0  0  0  0  0
  151.3843  142.5988  157.7703 H   0  0  0  0  0  0  0  0  0  0  0  0
  152.5528  143.9107  157.5660 H   0  0  0  0  0  0  0  0  0  0  0  0
  151.4638  145.1054  160.4314 H   0  0  0  0  0  0  0  0  0  0  0  0
  152.3577  144.7130  162.6951 H   0  0  0  0  0  0  0  0  0  0  0  0
  153.3261  141.8691  164.1346 H   0  0  0  0  0  0  0  0  0  0  0  0
  153.7207  143.5816  164.1966 H   0  0  0  0  0  0  0  0  0  0  0  0
  154.9183  142.4445  163.6127 H   0  0  0  0  0  0  0  0  0  0  0  0
  153.8653  139.9871  162.0692 H   0  0  0  0  0  0  0  0  0  0  0  0
  156.2628  140.1986  161.6858 H   0  0  0  0  0  0  0  0  0  0  0  0
  154.8807  140.4345  159.2423 H   0  0  0  0  0  0  0  0  0  0  0  0
  155.4871  139.1416  160.2027 H   0  0  0  0  0  0  0  0  0  0  0  0
  152.9960  140.2733  158.1749 H   0  0  0  0  0  0  0  0  0  0  0  0
  153.2384  141.4282  159.0807 H   0  0  0  0  0  0  0  0  0  0  0  0
  1  2  1  0  0  0  0
  1 21  1  0  0  0  0
  1 22  1  0  0  0  0
  1 23  1  0  0  0  0
  2 20  1  0  0  0  0
  2  3  2  0  0  0  0
  3  4  1  0  0  0  0
  3 24  1  0  0  0  0
  4  5  2  0  0  0  0
  4 25  1  0  0  0  0
  5  6  1  0  0  0  0
  5  7  1  0  0  0  0
  6 26  1  0  0  0  0
  6 27  1  0  0  0  0
  6 28  1  0  0  0  0
  7  8  1  0  0  0  0
  7 20  2  0  0  0  0
  8  9  1  0  0  0  0
  8 10  1  0  0  0  0
  8 29  1  0  0  0  0
  9 30  1  0  0  0  0
 10 11  1  0  0  0  0
 10 31  1  0  0  0  0
 10 32  1  0  0  0  0
 11 18  1  0  0  0  0
 11 12  1  0  0  0  0
 12 13  2  0  0  0  0
 12 33  1  0  0  0  0
 13 14  1  0  0  0  0
 13 15  1  0  0  0  0
 15 16  2  0  0  0  0
 15 17  1  0  0  0  0
 17 18  1  0  0  0  0
 18 19  2  0  0  0  0
 20 34  1  0  0  0  0
M  CHG  1  17  -1
M  END
> <s_m_source_file>
AV-unprocessed.smi

> <i_m_source_file_index>
649

> <i_lp_mmshare_version>
43012

> <i_f3d_flags>
0

> <s_epik_input>
W0NIM11jMVtjSF1bY0hdYyhbQ0gzXSljKFtjSF0xKVtDQEhdKFtPSF0pW0NIMl1uMltjSF1jKENsKWMoPU8pW25IXWMyPU8=

> <s_epik_cmdline>
J2VwaWtfcHl0aG9uJywgJy1waCcsICc3LjAnLCAnLXRuJywgJzgnLCAnLW1hJywgJzIwMCcsICctbWV0YWxfYmluZGluZycsICctaW1hZScsICc8aW5maWxlLm1hZT4nLCAnLW9tYWUnLCAnPG91dGZpbGUubWFlPic=

> <r_epik_Ionization_Penalty>
1.7979

> <r_epik_Ionization_Penalty_Charging>
3.23819e-08

> <r_epik_Ionization_Penalty_Neutral>
1.7979

> <r_epik_State_Penalty>
1.91135

> <r_epik_Charging_Adjusted_Penalty>
1.91135

> <i_epik_Tot_Q>
-1

> <i_epik_Tot_abs_Q>
1

> <r_epik_Metal_State_Penalty>
0.014155

> <b_epik_Metal_Only>
0

> <s_lp_Force_Field>
OPLS_2005

> <r_lp_Energy>
21.5696

> <b_lp_Chiralities_Consistent>
1

> <s_lp_Variant>
AV-unprocessed.smi:649-3

> <Gold.Version>
5.8.1

> <Gold.Id.Protein>
6NUR|6NUR_protein|mol2

> <Gold.PLP.Fitness>
51.1267

> <Gold.PLP.PLP>
-46.1191

> <Gold.PLP.part.hbond>
-1.9193

> <Gold.PLP.part.metal>
0.0000

> <Gold.PLP.part.buried>
-6.2119

> <Gold.PLP.part.nonpolar>
-37.4741

> <Gold.PLP.part.repulsive>
0.0000

> <Gold.PLP.ligand.clash>
0.0000

> <Gold.PLP.ligand.torsion>
0.5351

> <Gold.PLP.Chemscore.Hbond>
2.0000

> <Gold.PLP.Chemscore.CHOScore>
0.0000

> <Gold.PLP.Chemscore.Metal>
0.0000

> <Gold.Chemscore.Hbonds>
donor molecule, donor type, donor heavy atom, donor atom, acceptor molecule, acceptor atom, score
      P1  H  6896  6908       L1    17  2.00

> <Gold.PLP.Chemscore.Internal.Correction>
0.0777

> <Gold.Rescore>
     Score         DG    S(hbond)    S(metal)    S(lipo)     H(rot)  DE(clash)    DE(int)     intcor
     15.37     -16.80       0.88        0.00     117.29       2.09       1.03       0.39       ----

> <Gold.Chemscore.Fitness>
15.3730

> <Gold.Chemscore.DG>
-16.7992

> <Gold.Chemscore.ZeroCoef>
-5.4800

> <Gold.Chemscore.Hbond>
0.8797

> <Gold.Chemscore.Metal>
0.0000

> <Gold.Chemscore.Lipo>
117.2916

> <Gold.Chemscore.Internal_Hbond>
0.0000

> <Gold.Chemscore.DEClash>
1.0325

> <Gold.Chemscore.DEInternal>
0.3936

> <Gold.Chemscore.Rot>
2.0868

> <Gold.Chemscore.Internal.Correction>
   9.000000E+99

> <Gold.Chemscore.Hbonds>
donor molecule, donor type, donor heavy atom, donor atom, acceptor molecule, acceptor atom, score
      P1  H  6896  6908       L1    17  0.39

> <Gold.Chemscore.Hbond.Weighted>
-2.9383

> <Gold.Chemscore.Metal.Weighted>
-0.0000

> <Gold.Chemscore.Lipo.Weighted>
-13.7231

> <Gold.Chemscore.Internal_Hbond.Weighted>
0.0000

> <Gold.Chemscore.DEClash.Weighted>
1.0325

> <Gold.Chemscore.DEInternal.Weighted>
0.3936

> <Gold.Chemscore.Rot.Weighted>
5.3423

> <Gold.Chemscore.Internal.Correction.Weighted>
   9.000000E+99

> <Gold.Protein.RotatedTorsions>
[ 6907 6896 6895 6894 ] final -101.46 input  -60.11 | X-H torsion
[ 7974 7965 7964 7962 ] final  -52.24 input  175.53 | X-H torsion
[ 8008 7997 7996 7995 ] final -143.24 input   59.86 | X-H torsion
[ 10167 10162 10161 10158 ] final  -95.97 input  -65.29 | X-H torsion
[ 10718 10713 10712 10709 ] final  113.05 input   66.30 | X-H torsion
[ 10763 10752 10751 10750 ] final   -8.56 input  -60.55 | X-H torsion
[ 11005 11000 10999 10996 ] final   31.15 input  -57.11 | X-H torsion

> <Gold.Protein.ActiveResidues>
 VAL166  LYS551  ARG553  GLY616  TRP617  ASP618  TYR619  PRO620  LYS621  CYS622 
 ASP623  PHE694  ASN695  SER759  ASP760  ASP761  ALA762  ILE779  LEU786  VAL792 
 PHE793  MET794  SER795  GLU796  ALA797  LYS798  CYS799  TRP800  GLU811  SER814 

> <Gold.Protein.RotatedAtoms>
  150.7155  134.0731  159.3871 H   0  0  0  0  0  0  0  0  0  0  0  0  # atno 6907 bound_to 6896
  151.8713  135.0486  160.0489 H   0  0  0  0  0  0  0  0  0  0  0  0  # atno 6908 bound_to 6896
  152.2640  133.5287  159.5435 H   0  0  0  0  0  0  0  0  0  0  0  0  # atno 6909 bound_to 6896
  145.9101  140.7922  142.9699 H   0  0  0  0  0  0  0  0  0  0  0  0  # atno 7974 bound_to 7965
  155.5073  140.0580  157.2929 H   0  0  0  0  0  0  0  0  0  0  0  0  # atno 8008 bound_to 7997
  154.4565  140.1975  156.0315 H   0  0  0  0  0  0  0  0  0  0  0  0  # atno 8009 bound_to 7997
  156.0808  140.3247  155.7696 H   0  0  0  0  0  0  0  0  0  0  0  0  # atno 8010 bound_to 7997
  140.2987  143.3176  152.0271 H   0  0  0  0  0  0  0  0  0  0  0  0  # atno 10167 bound_to 10162
  157.6359  131.0977  150.6985 H   0  0  0  0  0  0  0  0  0  0  0  0  # atno 10718 bound_to 10713
  153.4423  135.7014  153.6161 H   0  0  0  0  0  0  0  0  0  0  0  0  # atno 10763 bound_to 10752
  153.4531  135.3753  155.2295 H   0  0  0  0  0  0  0  0  0  0  0  0  # atno 10764 bound_to 10752
  154.8727  135.4001  154.3823 H   0  0  0  0  0  0  0  0  0  0  0  0  # atno 10765 bound_to 10752
  140.2869  134.2909  155.7786 H   0  0  0  0  0  0  0  0  0  0  0  0  # atno 11005 bound_to 11000
  144.6742  140.1812  143.7405 LP  0  0  0  0  0  0  0  0  0  0  0  0  # atno 17320 bound_to 7965
  145.8682  139.2258  143.1676 LP  0  0  0  0  0  0  0  0  0  0  0  0  # atno 17321 bound_to 7965
  139.4920  144.6472  151.6753 LP  0  0  0  0  0  0  0  0  0  0  0  0  # atno 17342 bound_to 10162
  140.5670  144.0173  150.6197 LP  0  0  0  0  0  0  0  0  0  0  0  0  # atno 17343 bound_to 10162
  156.7316  130.4711  149.5498 LP  0  0  0  0  0  0  0  0  0  0  0  0  # atno 17370 bound_to 10713
  156.1598  130.6366  151.0704 LP  0  0  0  0  0  0  0  0  0  0  0  0  # atno 17371 bound_to 10713
  141.2153  133.7560  156.9565 LP  0  0  0  0  0  0  0  0  0  0  0  0  # atno 17394 bound_to 11000
  140.1231  134.9404  157.2232 LP  0  0  0  0  0  0  0  0  0  0  0  0  # atno 17395 bound_to 11000

$$$$
