AV-unprocessed.smi:458|AV-procd|sdf|2623|dock2
  -GOLD-   2262023 23D 1   1.00000     0.00000
 Structure written by MMmdl.
 37 39  0  0  0  0  0  0  0  0  2 V2000
  151.5657  136.6540  155.3157 O   0  0  0  0  0  0  0  0  0  0  0  0
  151.8502  137.8580  154.6389 C   0  0  0  0  0  0  0  0  0  0  0  0
  150.6386  138.7139  154.4701 C   0  0  0  0  0  0  0  0  0  0  0  0
  149.4806  138.3461  153.8528 N   0  3  0  0  0  0  0  0  0  0  0  0
  148.5674  139.4004  153.8939 C   0  0  0  0  0  0  0  0  0  0  0  0
  147.2692  139.5002  153.4026 C   0  0  0  0  0  0  0  0  0  0  0  0
  146.6055  140.7267  153.6129 C   0  0  0  0  0  0  0  0  0  0  0  0
  147.2332  141.7949  154.2861 C   0  0  0  0  0  0  0  0  0  0  0  0
  148.5496  141.6818  154.7794 C   0  0  0  0  0  0  0  0  0  0  0  0
  149.1984  140.4647  154.5705 C   0  0  0  0  0  0  0  0  0  0  0  0
  150.4736  139.9950  154.9092 N   0  0  0  0  0  0  0  0  0  0  0  0
  151.4020  140.8690  155.6448 C   0  0  0  0  0  0  0  0  0  0  0  0
  151.4561  140.5592  157.1545 C   0  0  1  0  0  0  0  0  0  0  0  0
  152.5200  139.6702  157.4342 O   0  0  0  0  0  0  0  0  0  0  0  0
  151.5440  141.8372  157.9737 C   0  0  0  0  0  0  0  0  0  0  0  0
  151.2078  143.0837  157.4006 C   0  0  0  0  0  0  0  0  0  0  0  0
  151.2826  144.2619  158.1688 C   0  0  0  0  0  0  0  0  0  0  0  0
  151.6906  144.2005  159.5150 C   0  0  0  0  0  0  0  0  0  0  0  0
  151.7610  145.3328  160.2539 F   0  0  0  0  0  0  0  0  0  0  0  0
  152.0233  142.9603  160.0926 C   0  0  0  0  0  0  0  0  0  0  0  0
  151.9494  141.7816  159.3248 C   0  0  0  0  0  0  0  0  0  0  0  0
  151.3340  136.8576  156.2093 H   0  0  0  0  0  0  0  0  0  0  0  0
  152.6117  138.4081  155.1915 H   0  0  0  0  0  0  0  0  0  0  0  0
  152.2702  137.6245  153.6601 H   0  0  0  0  0  0  0  0  0  0  0  0
  146.7869  138.6839  152.8848 H   0  0  0  0  0  0  0  0  0  0  0  0
  145.5958  140.8513  153.2493 H   0  0  0  0  0  0  0  0  0  0  0  0
  146.6946  142.7208  154.4269 H   0  0  0  0  0  0  0  0  0  0  0  0
  149.0220  142.5091  155.2881 H   0  0  0  0  0  0  0  0  0  0  0  0
  152.3913  140.8069  155.1911 H   0  0  0  0  0  0  0  0  0  0  0  0
  151.0662  141.8953  155.4909 H   0  0  0  0  0  0  0  0  0  0  0  0
  150.5402  140.0389  157.4370 H   0  0  0  0  0  0  0  0  0  0  0  0
  152.6534  139.6492  158.3698 H   0  0  0  0  0  0  0  0  0  0  0  0
  150.8884  143.1410  156.3702 H   0  0  0  0  0  0  0  0  0  0  0  0
  151.0252  145.2126  157.7255 H   0  0  0  0  0  0  0  0  0  0  0  0
  152.3340  142.9127  161.1260 H   0  0  0  0  0  0  0  0  0  0  0  0
  152.2033  140.8349  159.7787 H   0  0  0  0  0  0  0  0  0  0  0  0
  149.3275  137.4360  153.4381 H   0  0  0  0  0  0  0  0  0  0  0  0
  1  2  1  0  0  0  0
  1 22  1  0  0  0  0
  2  3  1  0  0  0  0
  2 23  1  0  0  0  0
  2 24  1  0  0  0  0
  3 11  1  0  0  0  0
  3  4  2  0  0  0  0
  4  5  1  0  0  0  0
  4 37  1  0  0  0  0
  5 10  2  0  0  0  0
  5  6  1  0  0  0  0
  6  7  2  0  0  0  0
  6 25  1  0  0  0  0
  7  8  1  0  0  0  0
  7 26  1  0  0  0  0
  8  9  2  0  0  0  0
  8 27  1  0  0  0  0
  9 10  1  0  0  0  0
  9 28  1  0  0  0  0
 10 11  1  0  0  0  0
 11 12  1  0  0  0  0
 12 13  1  0  0  0  0
 12 29  1  0  0  0  0
 12 30  1  0  0  0  0
 13 14  1  0  0  0  0
 13 15  1  0  0  0  0
 13 31  1  0  0  0  0
 14 32  1  0  0  0  0
 15 21  1  0  0  0  0
 15 16  2  0  0  0  0
 16 17  1  0  0  0  0
 16 33  1  0  0  0  0
 17 18  2  0  0  0  0
 17 34  1  0  0  0  0
 18 19  1  0  0  0  0
 18 20  1  0  0  0  0
 20 21  2  0  0  0  0
 20 35  1  0  0  0  0
 21 36  1  0  0  0  0
M  CHG  1   4   1
M  END
> <s_m_source_file>
AV-unprocessed.smi

> <i_m_source_file_index>
458

> <i_lp_mmshare_version>
43012

> <i_f3d_flags>
0

> <s_epik_input>
W2NIXTFbY0hdW2NIXVtjSF1jKGMxMiluKGMobjIpW0NIMl1bT0hdKVtDSDJdW0NASF0oW09IXSljM1tjSF1bY0hdYyhGKVtjSF1bY0hdMw==

> <s_epik_cmdline>
J2VwaWtfcHl0aG9uJywgJy1waCcsICc3LjAnLCAnLXRuJywgJzgnLCAnLW1hJywgJzIwMCcsICctbWV0YWxfYmluZGluZycsICctaW1hZScsICc8aW5maWxlLm1hZT4nLCAnLW9tYWUnLCAnPG91dGZpbGUubWFlPic=

> <r_epik_Ionization_Penalty>
1.35643

> <r_epik_Ionization_Penalty_Charging>
1.35557

> <r_epik_Ionization_Penalty_Neutral>
0.00085758

> <r_epik_State_Penalty>
1.43401

> <r_epik_Charging_Adjusted_Penalty>
2.78958

> <i_epik_Tot_Q>
1

> <i_epik_Tot_abs_Q>
1

> <r_epik_Metal_State_Penalty>
5.47166

> <b_epik_Metal_Only>
0

> <s_lp_Force_Field>
OPLS_2005

> <r_lp_Energy>
14.4758

> <b_lp_Chiralities_Consistent>
1

> <s_lp_Variant>
AV-unprocessed.smi:458-4

> <Gold.Version>
5.8.1

> <Gold.Id.Protein>
6NUR|6NUR_protein|mol2

> <Gold.PLP.Fitness>
58.2399

> <Gold.PLP.PLP>
-48.7785

> <Gold.PLP.part.hbond>
-3.4687

> <Gold.PLP.part.metal>
0.0000

> <Gold.PLP.part.buried>
0.4974

> <Gold.PLP.part.nonpolar>
-46.0242

> <Gold.PLP.part.repulsive>
0.0468

> <Gold.PLP.ligand.clash>
0.0000

> <Gold.PLP.ligand.torsion>
1.3044

> <Gold.PLP.Chemscore.Hbond>
4.0000

> <Gold.PLP.Chemscore.CHOScore>
0.0000

> <Gold.PLP.Chemscore.Metal>
0.0000

> <Gold.Chemscore.Hbonds>
donor molecule, donor type, donor heavy atom, donor atom, acceptor molecule, acceptor atom, score
      L1  H     4    37       P1  7948  2.00
      P1  H  7997  8008       L1    14  0.86
      P1  H 10752 10764       L1     1  1.00

> <Gold.PLP.Chemscore.Internal.Correction>
0.0702

> <Gold.Rescore>
     Score         DG    S(hbond)    S(metal)    S(lipo)     H(rot)  DE(clash)    DE(int)     intcor
     17.78     -20.26       2.31        0.00     121.96       2.82       1.45       1.03       ----

> <Gold.Chemscore.Fitness>
17.7811

> <Gold.Chemscore.DG>
-20.2558

> <Gold.Chemscore.ZeroCoef>
-5.4800

> <Gold.Chemscore.Hbond>
2.3146

> <Gold.Chemscore.Metal>
0.0000

> <Gold.Chemscore.Lipo>
121.9569

> <Gold.Chemscore.Internal_Hbond>
0.0000

> <Gold.Chemscore.DEClash>
1.4490

> <Gold.Chemscore.DEInternal>
1.0257

> <Gold.Chemscore.Rot>
2.8219

> <Gold.Chemscore.Internal.Correction>
   9.000000E+99

> <Gold.Chemscore.Hbonds>
donor molecule, donor type, donor heavy atom, donor atom, acceptor molecule, acceptor atom, score
      L1  H     4    37       P1  7948  0.91
      P1  H  7997  8008       L1    14  0.50
      P1  H 10752 10764       L1     1  0.43

> <Gold.Chemscore.Hbond.Weighted>
-7.7309

> <Gold.Chemscore.Metal.Weighted>
-0.0000

> <Gold.Chemscore.Lipo.Weighted>
-14.2690

> <Gold.Chemscore.Internal_Hbond.Weighted>
0.0000

> <Gold.Chemscore.DEClash.Weighted>
1.4490

> <Gold.Chemscore.DEInternal.Weighted>
1.0257

> <Gold.Chemscore.Rot.Weighted>
7.2240

> <Gold.Chemscore.Internal.Correction.Weighted>
   9.000000E+99

> <Gold.Protein.RotatedTorsions>
[ 6907 6896 6895 6894 ] final  113.92 input  -60.11 | X-H torsion
[ 7974 7965 7964 7962 ] final -143.18 input  175.53 | X-H torsion
[ 8008 7997 7996 7995 ] final  -53.38 input   59.86 | X-H torsion
[ 10167 10162 10161 10158 ] final  146.47 input  -65.29 | X-H torsion
[ 10718 10713 10712 10709 ] final -126.92 input   66.30 | X-H torsion
[ 10763 10752 10751 10750 ] final  -38.42 input  -60.55 | X-H torsion
[ 11005 11000 10999 10996 ] final   72.63 input  -57.11 | X-H torsion

> <Gold.Protein.ActiveResidues>
 VAL166  LYS551  ARG553  GLY616  TRP617  ASP618  TYR619  PRO620  LYS621  CYS622 
 ASP623  PHE694  ASN695  SER759  ASP760  ASP761  ALA762  ILE779  LEU786  VAL792 
 PHE793  MET794  SER795  GLU796  ALA797  LYS798  CYS799  TRP800  GLU811  SER814 

> <Gold.Protein.RotatedAtoms>
  152.4833  133.8308  159.7101 H   0  0  0  0  0  0  0  0  0  0  0  0  # atno 6907 bound_to 6896
  150.8899  133.7248  159.2914 H   0  0  0  0  0  0  0  0  0  0  0  0  # atno 6908 bound_to 6896
  151.4725  135.1050  159.9807 H   0  0  0  0  0  0  0  0  0  0  0  0  # atno 6909 bound_to 6896
  144.8388  140.5866  143.5466 H   0  0  0  0  0  0  0  0  0  0  0  0  # atno 7974 bound_to 7965
  154.4131  140.1201  156.5144 H   0  0  0  0  0  0  0  0  0  0  0  0  # atno 8008 bound_to 7997
  155.6766  140.3496  155.4819 H   0  0  0  0  0  0  0  0  0  0  0  0  # atno 8009 bound_to 7997
  155.9587  140.1119  157.0904 H   0  0  0  0  0  0  0  0  0  0  0  0  # atno 8010 bound_to 7997
  139.4907  144.5827  151.6839 H   0  0  0  0  0  0  0  0  0  0  0  0  # atno 10167 bound_to 10162
  156.1809  130.6731  151.0304 H   0  0  0  0  0  0  0  0  0  0  0  0  # atno 10718 bound_to 10713
  153.9126  135.6791  153.4750 H   0  0  0  0  0  0  0  0  0  0  0  0  # atno 10763 bound_to 10752
  153.1071  135.4800  154.8967 H   0  0  0  0  0  0  0  0  0  0  0  0  # atno 10764 bound_to 10752
  154.7519  135.3187  154.8496 H   0  0  0  0  0  0  0  0  0  0  0  0  # atno 10765 bound_to 10752
  139.9481  134.7277  156.0930 H   0  0  0  0  0  0  0  0  0  0  0  0  # atno 11005 bound_to 11000
  145.4738  139.1501  143.3800 LP  0  0  0  0  0  0  0  0  0  0  0  0  # atno 17320 bound_to 7965
  146.2683  140.4872  142.8825 LP  0  0  0  0  0  0  0  0  0  0  0  0  # atno 17321 bound_to 7965
  140.5437  144.0538  150.6098 LP  0  0  0  0  0  0  0  0  0  0  0  0  # atno 17342 bound_to 10162
  140.3569  143.2930  152.0426 LP  0  0  0  0  0  0  0  0  0  0  0  0  # atno 17343 bound_to 10162
  157.6868  131.0822  150.7221 LP  0  0  0  0  0  0  0  0  0  0  0  0  # atno 17370 bound_to 10713
  156.7278  130.4700  149.5507 LP  0  0  0  0  0  0  0  0  0  0  0  0  # atno 17371 bound_to 10713
  141.1136  133.6635  156.3040 LP  0  0  0  0  0  0  0  0  0  0  0  0  # atno 17394 bound_to 11000
  140.5786  134.5768  157.5474 LP  0  0  0  0  0  0  0  0  0  0  0  0  # atno 17395 bound_to 11000

$$$$
