AV-unprocessed.smi:2710|AV-procd|sdf|10471|dock1
  -GOLD-   2272014513D 1   1.00000     0.00000
 Structure written by MMmdl.
 53 54  0  0  0  0  0  0  0  0  2 V2000
  143.6530  135.9346  152.0549 C   0  0  0  0  0  0  0  0  0  0  0  0
  145.0550  135.7082  151.4653 C   0  0  0  0  0  0  0  0  0  0  0  0
  146.0814  136.6563  151.9887 N   0  3  1  0  0  0  0  0  0  0  0  0
  145.9538  138.0077  151.3704 C   0  0  0  0  0  0  0  0  0  0  0  0
  147.0802  138.9546  151.8081 C   0  0  0  0  0  0  0  0  0  0  0  0
  147.1156  139.0921  153.3325 C   0  0  2  0  0  0  0  0  0  0  0  0
  148.2259  139.9543  153.7278 N   0  0  0  0  0  0  0  0  0  0  0  0
  148.5709  140.2388  154.9918 C   0  0  0  0  0  0  0  0  0  0  0  0
  147.9909  139.7735  155.9718 O   0  0  0  0  0  0  0  0  0  0  0  0
  149.6242  141.0723  155.0305 N   0  0  0  0  0  0  0  0  0  0  0  0
  150.2819  141.6234  156.1635 C   0  0  0  0  0  0  0  0  0  0  0  0
  150.5237  140.9480  157.3839 C   0  0  0  0  0  0  0  0  0  0  0  0
  151.1427  141.5553  158.4186 N   0  0  0  0  0  0  0  0  0  0  0  0
  151.5537  142.8186  158.2488 C   0  0  0  0  0  0  0  0  0  0  0  0
  152.1217  143.5442  159.4812 C   0  0  0  0  0  0  0  0  0  0  0  0
  151.0771  143.6091  160.6204 C   0  0  0  0  0  0  0  0  0  0  0  0
  152.4807  145.0113  159.1464 C   0  0  0  0  0  0  0  0  0  0  0  0
  153.3787  142.8059  159.9766 C   0  0  0  0  0  0  0  0  0  0  0  0
  151.3301  143.5584  157.1547 N   0  0  0  0  0  0  0  0  0  0  0  0
  150.7121  142.9643  156.1126 C   0  0  0  0  0  0  0  0  0  0  0  0
  147.2499  137.6917  153.9498 C   0  0  0  0  0  0  0  0  0  0  0  0
  146.1241  136.7414  153.4857 C   0  0  2  0  0  0  0  0  0  0  0  0
  146.3213  135.3734  154.1715 C   0  0  0  0  0  0  0  0  0  0  0  0
  142.9157  135.3340  151.5215 H   0  0  0  0  0  0  0  0  0  0  0  0
  143.3505  136.9784  151.9672 H   0  0  0  0  0  0  0  0  0  0  0  0
  143.5907  135.6471  153.1039 H   0  0  0  0  0  0  0  0  0  0  0  0
  145.3775  134.6795  151.6328 H   0  0  0  0  0  0  0  0  0  0  0  0
  144.9430  135.8266  150.3902 H   0  0  0  0  0  0  0  0  0  0  0  0
  145.9869  137.9401  150.2845 H   0  0  0  0  0  0  0  0  0  0  0  0
  144.9841  138.4356  151.6298 H   0  0  0  0  0  0  0  0  0  0  0  0
  148.0366  138.5772  151.4424 H   0  0  0  0  0  0  0  0  0  0  0  0
  146.9365  139.9331  151.3476 H   0  0  0  0  0  0  0  0  0  0  0  0
  146.1790  139.5452  153.6641 H   0  0  0  0  0  0  0  0  0  0  0  0
  148.7620  140.3776  152.9844 H   0  0  0  0  0  0  0  0  0  0  0  0
  150.0240  141.3228  154.1379 H   0  0  0  0  0  0  0  0  0  0  0  0
  150.2123  139.9318  157.5659 H   0  0  0  0  0  0  0  0  0  0  0  0
  151.4588  144.1647  161.4777 H   0  0  0  0  0  0  0  0  0  0  0  0
  150.8069  142.6173  160.9846 H   0  0  0  0  0  0  0  0  0  0  0  0
  150.1613  144.1020  160.2920 H   0  0  0  0  0  0  0  0  0  0  0  0
  151.6146  145.5563  158.7691 H   0  0  0  0  0  0  0  0  0  0  0  0
  153.2674  145.0784  158.3939 H   0  0  0  0  0  0  0  0  0  0  0  0
  152.8434  145.5423  160.0271 H   0  0  0  0  0  0  0  0  0  0  0  0
  153.8089  143.2943  160.8516 H   0  0  0  0  0  0  0  0  0  0  0  0
  154.1490  142.7746  159.2051 H   0  0  0  0  0  0  0  0  0  0  0  0
  153.1495  141.7763  160.2537 H   0  0  0  0  0  0  0  0  0  0  0  0
  150.5555  143.5701  155.2321 H   0  0  0  0  0  0  0  0  0  0  0  0
  148.2196  137.2656  153.6868 H   0  0  0  0  0  0  0  0  0  0  0  0
  147.2358  137.7701  155.0378 H   0  0  0  0  0  0  0  0  0  0  0  0
  145.1717  137.1524  153.8249 H   0  0  0  0  0  0  0  0  0  0  0  0
  146.5071  135.4971  155.2390 H   0  0  0  0  0  0  0  0  0  0  0  0
  147.1712  134.8344  153.7515 H   0  0  0  0  0  0  0  0  0  0  0  0
  145.4393  134.7387  154.0945 H   0  0  0  0  0  0  0  0  0  0  0  0
  146.9777  136.2891  151.7021 H   0  0  0  0  0  0  0  0  0  0  0  0
  1  2  1  0  0  0  0
  1 24  1  0  0  0  0
  1 25  1  0  0  0  0
  1 26  1  0  0  0  0
  2  3  1  0  0  0  0
  2 27  1  0  0  0  0
  2 28  1  0  0  0  0
  3 22  1  0  0  0  0
  3  4  1  0  0  0  0
  3 53  1  0  0  0  0
  4  5  1  0  0  0  0
  4 29  1  0  0  0  0
  4 30  1  0  0  0  0
  5  6  1  0  0  0  0
  5 31  1  0  0  0  0
  5 32  1  0  0  0  0
  6  7  1  0  0  0  0
  6 21  1  0  0  0  0
  6 33  1  0  0  0  0
  7  8  1  0  0  0  0
  7 34  1  0  0  0  0
  8  9  2  0  0  0  0
  8 10  1  0  0  0  0
 10 11  1  0  0  0  0
 10 35  1  0  0  0  0
 11 20  1  0  0  0  0
 11 12  2  0  0  0  0
 12 13  1  0  0  0  0
 12 36  1  0  0  0  0
 13 14  2  0  0  0  0
 14 15  1  0  0  0  0
 14 19  1  0  0  0  0
 15 16  1  0  0  0  0
 15 17  1  0  0  0  0
 15 18  1  0  0  0  0
 16 37  1  0  0  0  0
 16 38  1  0  0  0  0
 16 39  1  0  0  0  0
 17 40  1  0  0  0  0
 17 41  1  0  0  0  0
 17 42  1  0  0  0  0
 18 43  1  0  0  0  0
 18 44  1  0  0  0  0
 18 45  1  0  0  0  0
 19 20  2  0  0  0  0
 20 46  1  0  0  0  0
 21 22  1  0  0  0  0
 21 47  1  0  0  0  0
 21 48  1  0  0  0  0
 22 23  1  0  0  0  0
 22 49  1  0  0  0  0
 23 50  1  0  0  0  0
 23 51  1  0  0  0  0
 23 52  1  0  0  0  0
M  CHG  1   3   1
M  END
> <s_m_source_file>
AV-unprocessed.smi

> <i_m_source_file_index>
2710

> <i_lp_mmshare_version>
43012

> <i_f3d_flags>
0

> <s_epik_input>
W0NIM11bQ0gyXU4xW0NIMl1bQ0gyXVtDQEhdKFtDSDJdW0NASF0xW0NIM10pW05IXUMoPU8pW05IXWMyW2NIXW5jKEMoW0NIM10pKFtDSDNdKVtDSDNdKW5bY0hdMg==

> <s_epik_cmdline>
J2VwaWtfcHl0aG9uJywgJy1waCcsICc3LjAnLCAnLXRuJywgJzgnLCAnLW1hJywgJzIwMCcsICctbWV0YWxfYmluZGluZycsICctaW1hZScsICc8aW5maWxlLm1hZT4nLCAnLW9tYWUnLCAnPG91dGZpbGUubWFlPic=

> <r_lp_tautomer_probability>
1

> <r_epik_Ionization_Penalty>
0.00396003

> <r_epik_Ionization_Penalty_Charging>
0.0039379

> <r_epik_Ionization_Penalty_Neutral>
2.21316e-05

> <r_epik_State_Penalty>
0.00281651

> <r_epik_Charging_Adjusted_Penalty>
0.00675441

> <i_epik_Tot_Q>
1

> <i_epik_Tot_abs_Q>
1

> <r_epik_Metal_State_Penalty>
-0

> <b_epik_Metal_Only>
0

> <s_lp_Force_Field>
OPLS_2005

> <r_lp_Energy>
20.1014

> <b_lp_Chiralities_Consistent>
1

> <s_lp_Variant>
AV-unprocessed.smi:2710-8

> <Gold.Version>
5.8.1

> <Gold.Id.Protein>
6NUR|6NUR_protein|mol2

> <Gold.PLP.Fitness>
39.8518

> <Gold.PLP.PLP>
-30.4955

> <Gold.PLP.part.hbond>
-2.0000

> <Gold.PLP.part.metal>
0.0000

> <Gold.PLP.part.buried>
7.2299

> <Gold.PLP.part.nonpolar>
-36.9993

> <Gold.PLP.part.repulsive>
0.9490

> <Gold.PLP.ligand.clash>
0.0000

> <Gold.PLP.ligand.torsion>
0.4779

> <Gold.PLP.Chemscore.Hbond>
2.8640

> <Gold.PLP.Chemscore.CHOScore>
0.5060

> <Gold.PLP.Chemscore.Metal>
0.0000

> <Gold.Chemscore.Hbonds>
donor molecule, donor type, donor heavy atom, donor atom, acceptor molecule, acceptor atom, score
      L1  H     3    53       P1  7948  2.00
      L1  H     7    34       P1  7957  0.87
      L1  C    20    46       P1  8028  0.52

> <Gold.PLP.Chemscore.Internal.Correction>
0.2021

> <Gold.Rescore>
     Score         DG    S(hbond)    S(metal)    S(lipo)     H(rot)  DE(clash)    DE(int)     intcor
     14.91     -21.53       1.82        0.00     113.73       1.31       5.09       1.52       ----

> <Gold.Chemscore.Fitness>
14.9125

> <Gold.Chemscore.DG>
-21.5271

> <Gold.Chemscore.ZeroCoef>
-5.4800

> <Gold.Chemscore.Hbond>
1.8230

> <Gold.Chemscore.Metal>
0.0000

> <Gold.Chemscore.Lipo>
113.7343

> <Gold.Chemscore.Internal_Hbond>
0.0000

> <Gold.Chemscore.DEClash>
5.0941

> <Gold.Chemscore.DEInternal>
1.5205

> <Gold.Chemscore.Rot>
1.3081

> <Gold.Chemscore.Internal.Correction>
   9.000000E+99

> <Gold.Chemscore.Hbonds>
donor molecule, donor type, donor heavy atom, donor atom, acceptor molecule, acceptor atom, score
      L1  H     3    53       P1  7948  0.95
      L1  H     7    34       P1  7957  0.80

> <Gold.Chemscore.Hbond.Weighted>
-6.0890

> <Gold.Chemscore.Metal.Weighted>
-0.0000

> <Gold.Chemscore.Lipo.Weighted>
-13.3069

> <Gold.Chemscore.Internal_Hbond.Weighted>
0.0000

> <Gold.Chemscore.DEClash.Weighted>
5.0941

> <Gold.Chemscore.DEInternal.Weighted>
1.5205

> <Gold.Chemscore.Rot.Weighted>
3.3488

> <Gold.Chemscore.Internal.Correction.Weighted>
   9.000000E+99

> <Gold.Protein.RotatedTorsions>
[ 6907 6896 6895 6894 ] final -173.25 input  -60.11 | X-H torsion
[ 7974 7965 7964 7962 ] final  144.72 input  175.53 | X-H torsion
[ 8008 7997 7996 7995 ] final  117.33 input   59.86 | X-H torsion
[ 10167 10162 10161 10158 ] final   83.45 input  -65.29 | X-H torsion
[ 10718 10713 10712 10709 ] final  -98.97 input   66.30 | X-H torsion
[ 10763 10752 10751 10750 ] final  -60.57 input  -60.55 | X-H torsion
[ 11005 11000 10999 10996 ] final -107.65 input  -57.11 | X-H torsion

> <Gold.Protein.ActiveResidues>
 VAL166  LYS551  ARG553  GLY616  TRP617  ASP618  TYR619  PRO620  LYS621  CYS622 
 ASP623  PHE694  ASN695  SER759  ASP760  ASP761  ALA762  ILE779  LEU786  VAL792 
 PHE793  MET794  SER795  GLU796  ALA797  LYS798  CYS799  TRP800  GLU811  SER814 

> <Gold.Protein.RotatedAtoms>
  151.5531  133.3414  159.2956 H   0  0  0  0  0  0  0  0  0  0  0  0  # atno 6907 bound_to 6896
  150.8467  134.7780  159.6987 H   0  0  0  0  0  0  0  0  0  0  0  0  # atno 6908 bound_to 6896
  152.4523  134.5376  159.9881 H   0  0  0  0  0  0  0  0  0  0  0  0  # atno 6909 bound_to 6896
  144.8812  139.5696  143.5842 H   0  0  0  0  0  0  0  0  0  0  0  0  # atno 7974 bound_to 7965
  156.2488  140.2898  156.0662 H   0  0  0  0  0  0  0  0  0  0  0  0  # atno 8008 bound_to 7997
  155.1721  140.0402  157.2882 H   0  0  0  0  0  0  0  0  0  0  0  0  # atno 8009 bound_to 7997
  154.6319  140.2501  155.7431 H   0  0  0  0  0  0  0  0  0  0  0  0  # atno 8010 bound_to 7997
  139.9183  144.6229  150.8466 H   0  0  0  0  0  0  0  0  0  0  0  0  # atno 10167 bound_to 10162
  156.0121  130.5261  150.6601 H   0  0  0  0  0  0  0  0  0  0  0  0  # atno 10718 bound_to 10713
  154.2713  135.6289  153.5311 H   0  0  0  0  0  0  0  0  0  0  0  0  # atno 10763 bound_to 10752
  152.9880  135.5611  154.5597 H   0  0  0  0  0  0  0  0  0  0  0  0  # atno 10764 bound_to 10752
  154.5167  135.2880  155.1272 H   0  0  0  0  0  0  0  0  0  0  0  0  # atno 10765 bound_to 10752
  141.0943  133.8999  157.2001 H   0  0  0  0  0  0  0  0  0  0  0  0  # atno 11005 bound_to 11000
  146.2996  139.7384  142.9101 LP  0  0  0  0  0  0  0  0  0  0  0  0  # atno 17320 bound_to 7965
  145.3950  141.0377  143.3102 LP  0  0  0  0  0  0  0  0  0  0  0  0  # atno 17321 bound_to 7965
  140.7668  143.3315  151.2399 LP  0  0  0  0  0  0  0  0  0  0  0  0  # atno 17342 bound_to 10162
  139.6883  143.9735  152.2846 LP  0  0  0  0  0  0  0  0  0  0  0  0  # atno 17343 bound_to 10162
  157.4345  131.0853  151.1006 LP  0  0  0  0  0  0  0  0  0  0  0  0  # atno 17370 bound_to 10713
  157.1569  130.6208  149.5599 LP  0  0  0  0  0  0  0  0  0  0  0  0  # atno 17371 bound_to 10713
  139.9776  135.0109  156.9669 LP  0  0  0  0  0  0  0  0  0  0  0  0  # atno 17394 bound_to 11000
  140.5178  134.0938  155.7285 LP  0  0  0  0  0  0  0  0  0  0  0  0  # atno 17395 bound_to 11000

$$$$
