AV-unprocessed.smi:167|AV-procd|sdf|1393|dock2
  -GOLD-   2262019133D 1   1.00000     0.00000
 Structure written by MMmdl.
 51 55  0  0  0  0  0  0  0  0  1 V2000
  150.8034  143.1140  157.1196 O   0  0  0  0  0  0  0  0  0  0  0  0
  150.7351  141.7188  157.3228 C   0  0  0  0  0  0  0  0  0  0  0  0
  149.5514  141.1222  156.5384 C   0  0  1  0  0  0  0  0  0  0  0  0
  149.5511  141.4409  155.0325 C   0  0  0  0  0  0  0  0  0  0  0  0
  149.3399  140.0425  154.4262 C   0  0  1  0  0  0  0  0  0  0  0  0
  150.6687  139.2620  154.5119 C   0  0  0  0  0  0  0  0  0  0  0  0
  150.7057  138.8996  156.0040 C   0  0  0  0  0  0  0  0  0  0  0  0
  149.4171  139.5812  156.5145 C   0  0  2  0  0  0  0  0  0  0  0  0
  148.4838  139.3953  155.4127 N   0  0  0  0  0  0  0  0  0  0  0  0
  147.9369  138.1730  155.1630 C   0  0  0  0  0  0  0  0  0  0  0  0
  148.2976  137.1215  155.9468 N   0  0  0  0  0  0  0  0  0  0  0  0
  147.7818  135.9077  155.7367 C   0  0  0  0  0  0  0  0  0  0  0  0
  146.9107  135.5230  154.8035 N   0  0  0  0  0  0  0  0  0  0  0  0
  146.5595  136.5646  153.9968 C   0  0  0  0  0  0  0  0  0  0  0  0
  147.0178  137.9098  154.1047 C   0  0  0  0  0  0  0  0  0  0  0  0
  146.4347  138.6796  153.1043 N   0  0  0  0  0  0  0  0  0  0  0  0
  145.6660  137.8465  152.4586 C   0  0  0  0  0  0  0  0  0  0  0  0
  145.7007  136.5479  152.9120 N   0  0  0  0  0  0  0  0  0  0  0  0
  144.9397  135.4381  152.4170 C   0  0  0  0  0  0  0  0  0  0  0  0
  145.3210  134.0004  152.7817 C   0  0  0  0  0  0  0  0  0  0  0  0
  144.8031  133.5267  151.4037 C   0  0  0  0  0  0  0  0  0  0  0  0
  145.6228  132.4456  150.6713 C   0  0  0  0  0  0  0  0  0  0  0  0
  147.0145  132.6867  150.7299 O   0  0  0  0  0  0  0  0  0  0  0  0
  143.3290  133.0805  151.3709 C   0  0  0  0  0  0  0  0  0  0  0  0
  142.9065  132.7800  150.0560 O   0  0  0  0  0  0  0  0  0  0  0  0
  145.0310  134.9887  150.9546 C   0  0  0  0  0  0  0  0  0  0  0  0
  150.1100  143.3663  156.5291 H   0  0  0  0  0  0  0  0  0  0  0  0
  151.6686  141.2759  156.9749 H   0  0  0  0  0  0  0  0  0  0  0  0
  150.6705  141.5052  158.3889 H   0  0  0  0  0  0  0  0  0  0  0  0
  148.6324  141.5277  156.9660 H   0  0  0  0  0  0  0  0  0  0  0  0
  148.7232  142.1058  154.7832 H   0  0  0  0  0  0  0  0  0  0  0  0
  150.4735  141.9095  154.6873 H   0  0  0  0  0  0  0  0  0  0  0  0
  148.9286  140.0868  153.4172 H   0  0  0  0  0  0  0  0  0  0  0  0
  150.6425  138.3612  153.8979 H   0  0  0  0  0  0  0  0  0  0  0  0
  151.5271  139.8575  154.1994 H   0  0  0  0  0  0  0  0  0  0  0  0
  150.6406  137.8180  156.1315 H   0  0  0  0  0  0  0  0  0  0  0  0
  151.6124  139.2300  156.5080 H   0  0  0  0  0  0  0  0  0  0  0  0
  149.0856  139.1953  157.4765 H   0  0  0  0  0  0  0  0  0  0  0  0
  148.1167  135.1342  156.4116 H   0  0  0  0  0  0  0  0  0  0  0  0
  145.0556  138.1605  151.6244 H   0  0  0  0  0  0  0  0  0  0  0  0
  143.9035  135.6413  152.6923 H   0  0  0  0  0  0  0  0  0  0  0  0
  146.3980  133.8803  152.9100 H   0  0  0  0  0  0  0  0  0  0  0  0
  144.7835  133.6003  153.6418 H   0  0  0  0  0  0  0  0  0  0  0  0
  145.4446  131.4588  151.0996 H   0  0  0  0  0  0  0  0  0  0  0  0
  145.3371  132.3885  149.6204 H   0  0  0  0  0  0  0  0  0  0  0  0
  147.4673  131.8905  150.4973 H   0  0  0  0  0  0  0  0  0  0  0  0
  143.1689  132.1922  151.9822 H   0  0  0  0  0  0  0  0  0  0  0  0
  142.6764  133.8521  151.7805 H   0  0  0  0  0  0  0  0  0  0  0  0
  142.0502  133.1572  149.9222 H   0  0  0  0  0  0  0  0  0  0  0  0
  144.2512  135.3957  150.3100 H   0  0  0  0  0  0  0  0  0  0  0  0
  146.0185  135.1673  150.5262 H   0  0  0  0  0  0  0  0  0  0  0  0
  1  2  1  0  0  0  0
  1 27  1  0  0  0  0
  2  3  1  0  0  0  0
  2 28  1  0  0  0  0
  2 29  1  0  0  0  0
  3  8  1  0  0  0  0
  3  4  1  0  0  0  0
  3 30  1  0  0  0  0
  4  5  1  0  0  0  0
  4 31  1  0  0  0  0
  4 32  1  0  0  0  0
  5  9  1  0  0  0  0
  5  6  1  0  0  0  0
  5 33  1  0  0  0  0
  6  7  1  0  0  0  0
  6 34  1  0  0  0  0
  6 35  1  0  0  0  0
  7  8  1  0  0  0  0
  7 36  1  0  0  0  0
  7 37  1  0  0  0  0
  8  9  1  0  0  0  0
  8 38  1  0  0  0  0
  9 10  1  0  0  0  0
 10 15  1  0  0  0  0
 10 11  2  0  0  0  0
 11 12  1  0  0  0  0
 12 13  2  0  0  0  0
 12 39  1  0  0  0  0
 13 14  1  0  0  0  0
 14 18  1  0  0  0  0
 14 15  2  0  0  0  0
 15 16  1  0  0  0  0
 16 17  2  0  0  0  0
 17 18  1  0  0  0  0
 17 40  1  0  0  0  0
 18 19  1  0  0  0  0
 19 26  1  0  0  0  0
 19 20  1  0  0  0  0
 19 41  1  0  0  0  0
 20 21  1  0  0  0  0
 20 42  1  0  0  0  0
 20 43  1  0  0  0  0
 21 22  1  0  0  0  0
 21 24  1  0  0  0  0
 21 26  1  0  0  0  0
 22 23  1  0  0  0  0
 22 44  1  0  0  0  0
 22 45  1  0  0  0  0
 23 46  1  0  0  0  0
 24 25  1  0  0  0  0
 24 47  1  0  0  0  0
 24 48  1  0  0  0  0
 25 49  1  0  0  0  0
 26 50  1  0  0  0  0
 26 51  1  0  0  0  0
M  END
> <s_m_source_file>
AV-unprocessed.smi

> <i_m_source_file_index>
167

> <i_lp_mmshare_version>
43012

> <i_f3d_flags>
0

> <s_epik_input>
W09IXVtDSDJdW0NASF0oW0NIMl1bQ0BASF0xMilbQ0BIXShbQ0gyXVtDSDJdMSlOMmMobltjSF1uMyljKGMzNCluW2NIXW40W0NIXShbQ0gyXTUpW0NIMl1DNShbQ0gyXVtPSF0pW0NIMl1bT0hd

> <s_epik_cmdline>
J2VwaWtfcHl0aG9uJywgJy1waCcsICc3LjAnLCAnLXRuJywgJzgnLCAnLW1hJywgJzIwMCcsICctbWV0YWxfYmluZGluZycsICctaW1hZScsICc8aW5maWxlLm1hZT4nLCAnLW9tYWUnLCAnPG91dGZpbGUubWFlPic=

> <r_lp_tautomer_probability>
1

> <r_epik_Ionization_Penalty>
0.0047903

> <r_epik_Ionization_Penalty_Charging>
0

> <r_epik_Ionization_Penalty_Neutral>
0.0047903

> <r_epik_State_Penalty>
0.00341021

> <r_epik_Charging_Adjusted_Penalty>
0.00341021

> <i_epik_Tot_Q>
0

> <i_epik_Tot_abs_Q>
0

> <r_epik_Metal_State_Penalty>
-0

> <b_epik_Metal_Only>
0

> <s_lp_Force_Field>
OPLS_2005

> <r_lp_Energy>
89.0066

> <b_lp_Chiralities_Consistent>
1

> <s_lp_Variant>
AV-unprocessed.smi:167-2

> <Gold.Version>
5.8.1

> <Gold.Id.Protein>
6NUR|6NUR_protein|mol2

> <Gold.PLP.Fitness>
47.0467

> <Gold.PLP.PLP>
-34.8145

> <Gold.PLP.part.hbond>
-3.4622

> <Gold.PLP.part.metal>
0.0000

> <Gold.PLP.part.buried>
-5.2779

> <Gold.PLP.part.nonpolar>
-26.7418

> <Gold.PLP.part.repulsive>
0.4114

> <Gold.PLP.ligand.clash>
0.0000

> <Gold.PLP.ligand.torsion>
0.4533

> <Gold.PLP.Chemscore.Hbond>
3.0000

> <Gold.PLP.Chemscore.CHOScore>
1.2150

> <Gold.PLP.Chemscore.Metal>
0.0000

> <Gold.Chemscore.Hbonds>
donor molecule, donor type, donor heavy atom, donor atom, acceptor molecule, acceptor atom, score
      L1  H     1    27       P1  8028  1.00
      L1  H    23    46       P1 10747  1.00
      L1  H    25    49       P1 10186  1.00
      L1  C    17    40       P1 10171  1.00
      L1  C    17    40       P1 10175  0.19

> <Gold.PLP.Chemscore.Internal.Correction>
0.4939

> <Gold.Rescore>
     Score         DG    S(hbond)    S(metal)    S(lipo)     H(rot)  DE(clash)    DE(int)     intcor
     11.10     -13.85       2.95        0.00      79.42       4.20       0.14       2.61       ----

> <Gold.Chemscore.Fitness>
11.1005

> <Gold.Chemscore.DG>
-13.8496

> <Gold.Chemscore.ZeroCoef>
-5.4800

> <Gold.Chemscore.Hbond>
2.9459

> <Gold.Chemscore.Metal>
0.0000

> <Gold.Chemscore.Lipo>
79.4171

> <Gold.Chemscore.Internal_Hbond>
0.0000

> <Gold.Chemscore.DEClash>
0.1403

> <Gold.Chemscore.DEInternal>
2.6088

> <Gold.Chemscore.Rot>
4.2038

> <Gold.Chemscore.Internal.Correction>
   9.000000E+99

> <Gold.Chemscore.Hbonds>
donor molecule, donor type, donor heavy atom, donor atom, acceptor molecule, acceptor atom, score
      L1  H     1    27       P1  8028  0.91
      L1  H    23    46       P1 10747  0.97
      L1  H    25    49       P1 10186  0.97

> <Gold.Chemscore.Hbond.Weighted>
-9.8395

> <Gold.Chemscore.Metal.Weighted>
-0.0000

> <Gold.Chemscore.Lipo.Weighted>
-9.2918

> <Gold.Chemscore.Internal_Hbond.Weighted>
0.0000

> <Gold.Chemscore.DEClash.Weighted>
0.1403

> <Gold.Chemscore.DEInternal.Weighted>
2.6088

> <Gold.Chemscore.Rot.Weighted>
10.7617

> <Gold.Chemscore.Internal.Correction.Weighted>
   9.000000E+99

> <Gold.Protein.RotatedTorsions>
[ 6907 6896 6895 6894 ] final  -53.31 input  -60.11 | X-H torsion
[ 7974 7965 7964 7962 ] final -143.27 input  175.53 | X-H torsion
[ 8008 7997 7996 7995 ] final   58.59 input   59.86 | X-H torsion
[ 10167 10162 10161 10158 ] final  -64.22 input  -65.29 | X-H torsion
[ 10718 10713 10712 10709 ] final   27.25 input   66.30 | X-H torsion
[ 10763 10752 10751 10750 ] final  121.67 input  -60.55 | X-H torsion
[ 11005 11000 10999 10996 ] final   41.47 input  -57.11 | X-H torsion

> <Gold.Protein.ActiveResidues>
 VAL166  LYS551  ARG553  GLY616  TRP617  ASP618  TYR619  PRO620  LYS621  CYS622 
 ASP623  PHE694  ASN695  SER759  ASP760  ASP761  ALA762  ILE779  LEU786  VAL792 
 PHE793  MET794  SER795  GLU796  ALA797  LYS798  CYS799  TRP800  GLU811  SER814 

> <Gold.Protein.RotatedAtoms>
  150.8438  134.7740  159.6953 H   0  0  0  0  0  0  0  0  0  0  0  0  # atno 6907 bound_to 6896
  152.4519  134.5371  159.9838 H   0  0  0  0  0  0  0  0  0  0  0  0  # atno 6908 bound_to 6896
  151.5505  133.3380  159.2988 H   0  0  0  0  0  0  0  0  0  0  0  0  # atno 6909 bound_to 6896
  144.8382  140.5856  143.5470 H   0  0  0  0  0  0  0  0  0  0  0  0  # atno 7974 bound_to 7965
  155.5525  140.3486  155.4472 H   0  0  0  0  0  0  0  0  0  0  0  0  # atno 8008 bound_to 7997
  156.0573  140.1332  157.0008 H   0  0  0  0  0  0  0  0  0  0  0  0  # atno 8009 bound_to 7997
  154.4462  140.0992  156.6449 H   0  0  0  0  0  0  0  0  0  0  0  0  # atno 8010 bound_to 7997
  140.5816  143.2328  151.6330 H   0  0  0  0  0  0  0  0  0  0  0  0  # atno 10167 bound_to 10162
  157.2177  130.6964  149.6256 H   0  0  0  0  0  0  0  0  0  0  0  0  # atno 10718 bound_to 10713
  153.6177  135.3419  155.3000 H   0  0  0  0  0  0  0  0  0  0  0  0  # atno 10763 bound_to 10752
  154.8606  135.4265  154.2241 H   0  0  0  0  0  0  0  0  0  0  0  0  # atno 10764 bound_to 10752
  153.3106  135.7031  153.7191 H   0  0  0  0  0  0  0  0  0  0  0  0  # atno 10765 bound_to 10752
  140.1831  134.4079  155.8188 H   0  0  0  0  0  0  0  0  0  0  0  0  # atno 11005 bound_to 11000
  145.4750  139.1500  143.3793 LP  0  0  0  0  0  0  0  0  0  0  0  0  # atno 17320 bound_to 7965
  146.2678  140.4884  142.8827 LP  0  0  0  0  0  0  0  0  0  0  0  0  # atno 17321 bound_to 7965
  139.5173  144.3320  152.0818 LP  0  0  0  0  0  0  0  0  0  0  0  0  # atno 17342 bound_to 10162
  140.2471  144.4209  150.6237 LP  0  0  0  0  0  0  0  0  0  0  0  0  # atno 17343 bound_to 10162
  155.9685  130.4530  150.5796 LP  0  0  0  0  0  0  0  0  0  0  0  0  # atno 17370 bound_to 10713
  157.3608  131.0749  151.1638 LP  0  0  0  0  0  0  0  0  0  0  0  0  # atno 17371 bound_to 10713
  141.2224  133.7010  156.7966 LP  0  0  0  0  0  0  0  0  0  0  0  0  # atno 17394 bound_to 11000
  140.2244  134.8733  157.3411 LP  0  0  0  0  0  0  0  0  0  0  0  0  # atno 17395 bound_to 11000

$$$$
