AV-unprocessed.smi:1464|AV-procd|sdf|5936|dock8
  -GOLD-   22720 6 13D 1   1.00000     0.00000
 Structure written by MMmdl.
 40 41  0  0  0  0  0  0  0  0  2 V2000
  151.6592  144.9884  158.5670 C   0  0  0  0  0  0  0  0  0  0  0  0
  152.4412  144.2316  159.6536 C   0  0  1  0  0  0  0  0  0  0  0  0
  151.8653  144.4943  161.0600 C   0  0  0  0  0  0  0  0  0  0  0  0
  152.7107  143.8178  162.1506 C   0  0  0  0  0  0  0  0  0  0  0  0
  152.8781  142.3147  161.8829 C   0  0  0  0  0  0  0  0  0  0  0  0
  153.4598  142.0591  160.4791 C   0  0  1  0  0  0  0  0  0  0  0  0
  153.6397  140.6241  160.2710 N   0  0  0  0  0  0  0  0  0  0  0  0
  154.7086  140.0503  159.6975 C   0  0  0  0  0  0  0  0  0  0  0  0
  155.6886  140.6875  159.3090 O   0  0  0  0  0  0  0  0  0  0  0  0
  154.6576  138.5211  159.5575 C   0  0  0  0  0  0  0  0  0  0  0  0
  153.6289  138.0518  158.6178 N   0  0  0  0  0  0  0  0  0  0  0  0
  153.9038  138.3854  157.2228 N   0  5  0  0  0  0  0  0  0  0  0  0
  153.0051  138.0295  156.2669 C   0  0  0  0  0  0  0  0  0  0  0  0
  153.1574  138.2954  155.0768 O   0  0  0  0  0  0  0  0  0  0  0  0
  151.8194  137.2977  156.6808 C   0  0  0  0  0  0  0  0  0  0  0  0
  151.6082  136.9729  157.9715 C   0  0  0  0  0  0  0  0  0  0  0  0
  152.5410  137.3394  159.0302 C   0  0  0  0  0  0  0  0  0  0  0  0
  152.3607  137.0343  160.2097 O   0  0  0  0  0  0  0  0  0  0  0  0
  152.5890  142.7127  159.3695 C   0  0  1  0  0  0  0  0  0  0  0  0
  151.2398  141.9892  159.1482 C   0  0  0  0  0  0  0  0  0  0  0  0
  150.6036  144.7169  158.5633 H   0  0  0  0  0  0  0  0  0  0  0  0
  152.0637  144.7830  157.5756 H   0  0  0  0  0  0  0  0  0  0  0  0
  151.7155  146.0652  158.7275 H   0  0  0  0  0  0  0  0  0  0  0  0
  153.4493  144.6494  159.6424 H   0  0  0  0  0  0  0  0  0  0  0  0
  151.8261  145.5674  161.2500 H   0  0  0  0  0  0  0  0  0  0  0  0
  150.8365  144.1382  161.1178 H   0  0  0  0  0  0  0  0  0  0  0  0
  153.6933  144.2894  162.1933 H   0  0  0  0  0  0  0  0  0  0  0  0
  152.2518  143.9734  163.1273 H   0  0  0  0  0  0  0  0  0  0  0  0
  153.5327  141.8834  162.6413 H   0  0  0  0  0  0  0  0  0  0  0  0
  151.9156  141.8136  161.9911 H   0  0  0  0  0  0  0  0  0  0  0  0
  154.4481  142.5228  160.4534 H   0  0  0  0  0  0  0  0  0  0  0  0
  152.8836  140.0231  160.5647 H   0  0  0  0  0  0  0  0  0  0  0  0
  155.6473  138.1803  159.2485 H   0  0  0  0  0  0  0  0  0  0  0  0
  154.4824  138.0670  160.5346 H   0  0  0  0  0  0  0  0  0  0  0  0
  151.0937  137.0045  155.9367 H   0  0  0  0  0  0  0  0  0  0  0  0
  150.7150  136.4255  158.2335 H   0  0  0  0  0  0  0  0  0  0  0  0
  153.1392  142.6196  158.4318 H   0  0  0  0  0  0  0  0  0  0  0  0
  150.5969  142.0422  160.0259 H   0  0  0  0  0  0  0  0  0  0  0  0
  151.3848  140.9355  158.9108 H   0  0  0  0  0  0  0  0  0  0  0  0
  150.6900  142.4160  158.3102 H   0  0  0  0  0  0  0  0  0  0  0  0
  1  2  1  0  0  0  0
  1 21  1  0  0  0  0
  1 22  1  0  0  0  0
  1 23  1  0  0  0  0
  2 19  1  0  0  0  0
  2  3  1  0  0  0  0
  2 24  1  0  0  0  0
  3  4  1  0  0  0  0
  3 25  1  0  0  0  0
  3 26  1  0  0  0  0
  4  5  1  0  0  0  0
  4 27  1  0  0  0  0
  4 28  1  0  0  0  0
  5  6  1  0  0  0  0
  5 29  1  0  0  0  0
  5 30  1  0  0  0  0
  6  7  1  0  0  0  0
  6 19  1  0  0  0  0
  6 31  1  0  0  0  0
  7  8  1  0  0  0  0
  7 32  1  0  0  0  0
  8  9  2  0  0  0  0
  8 10  1  0  0  0  0
 10 33  1  0  0  0  0
 10 34  1  0  0  0  0
 10 11  1  0  0  0  0
 11 12  1  0  0  0  0
 11 17  1  0  0  0  0
 12 13  1  0  0  0  0
 13 14  2  0  0  0  0
 13 15  1  0  0  0  0
 15 35  1  0  0  0  0
 15 16  2  0  0  0  0
 16 36  1  0  0  0  0
 16 17  1  0  0  0  0
 17 18  2  0  0  0  0
 19 20  1  0  0  0  0
 19 37  1  0  0  0  0
 20 38  1  0  0  0  0
 20 39  1  0  0  0  0
 20 40  1  0  0  0  0
M  CHG  1  12  -1
M  END
> <s_m_source_file>
AV-unprocessed.smi

> <i_m_source_file_index>
1464

> <i_lp_mmshare_version>
43012

> <i_f3d_flags>
0

> <s_epik_input>
W0NIM11bQ0BASF0xW0NIMl1bQ0gyXVtDSDJdW0NASF0oW0NASF0xW0NIM10pW05IXUMoPU8pW0NIMl1uMltuSF1jKD1PKVtjSF1bY0hdYzI9Tw==

> <s_epik_cmdline>
J2VwaWtfcHl0aG9uJywgJy1waCcsICc3LjAnLCAnLXRuJywgJzgnLCAnLW1hJywgJzIwMCcsICctbWV0YWxfYmluZGluZycsICctaW1hZScsICc8aW5maWxlLm1hZT4nLCAnLW9tYWUnLCAnPG91dGZpbGUubWFlPic=

> <r_lp_tautomer_probability>
1

> <r_epik_Ionization_Penalty>
0.101366

> <r_epik_Ionization_Penalty_Charging>
0.101366

> <r_epik_Ionization_Penalty_Neutral>
1.90469e-08

> <r_epik_State_Penalty>
0.035861

> <r_epik_Charging_Adjusted_Penalty>
0.137227

> <i_epik_Tot_Q>
-1

> <i_epik_Tot_abs_Q>
1

> <r_epik_Metal_State_Penalty>
0.035861

> <b_epik_Metal_Only>
0

> <s_lp_Force_Field>
OPLS_2005

> <r_lp_Energy>
30.1614

> <b_lp_Chiralities_Consistent>
1

> <s_lp_Variant>
AV-unprocessed.smi:1464-2

> <Gold.Version>
5.8.1

> <Gold.Id.Protein>
6NUR|6NUR_protein|mol2

> <Gold.PLP.Fitness>
47.1808

> <Gold.PLP.PLP>
-40.5222

> <Gold.PLP.part.hbond>
-3.7276

> <Gold.PLP.part.metal>
0.0000

> <Gold.PLP.part.buried>
-4.2518

> <Gold.PLP.part.nonpolar>
-32.0856

> <Gold.PLP.part.repulsive>
0.0647

> <Gold.PLP.ligand.clash>
0.0000

> <Gold.PLP.ligand.torsion>
0.3735

> <Gold.PLP.Chemscore.Hbond>
2.4635

> <Gold.PLP.Chemscore.CHOScore>
0.0000

> <Gold.PLP.Chemscore.Metal>
0.0000

> <Gold.Chemscore.Hbonds>
donor molecule, donor type, donor heavy atom, donor atom, acceptor molecule, acceptor atom, score
      P1  H  6896  6909       L1    18  1.00
      P1  H  7997  8010       L1    12  1.25

> <Gold.PLP.Chemscore.Internal.Correction>
0.0151

> <Gold.Rescore>
     Score         DG    S(hbond)    S(metal)    S(lipo)     H(rot)  DE(clash)    DE(int)     intcor
     18.24     -18.60       1.59        0.00     102.82       1.64       0.12       0.24       ----

> <Gold.Chemscore.Fitness>
18.2430

> <Gold.Chemscore.DG>
-18.6049

> <Gold.Chemscore.ZeroCoef>
-5.4800

> <Gold.Chemscore.Hbond>
1.5877

> <Gold.Chemscore.Metal>
0.0000

> <Gold.Chemscore.Lipo>
102.8206

> <Gold.Chemscore.Internal_Hbond>
0.0000

> <Gold.Chemscore.DEClash>
0.1208

> <Gold.Chemscore.DEInternal>
0.2411

> <Gold.Chemscore.Rot>
1.6438

> <Gold.Chemscore.Internal.Correction>
   9.000000E+99

> <Gold.Chemscore.Hbonds>
donor molecule, donor type, donor heavy atom, donor atom, acceptor molecule, acceptor atom, score
      P1  H  6896  6909       L1    18  0.34
      P1  H  7997  8010       L1    12  0.41

> <Gold.Chemscore.Hbond.Weighted>
-5.3029

> <Gold.Chemscore.Metal.Weighted>
-0.0000

> <Gold.Chemscore.Lipo.Weighted>
-12.0300

> <Gold.Chemscore.Internal_Hbond.Weighted>
0.0000

> <Gold.Chemscore.DEClash.Weighted>
0.1208

> <Gold.Chemscore.DEInternal.Weighted>
0.2411

> <Gold.Chemscore.Rot.Weighted>
4.2080

> <Gold.Chemscore.Internal.Correction.Weighted>
   9.000000E+99

> <Gold.Protein.RotatedTorsions>
[ 6907 6896 6895 6894 ] final  133.57 input  -60.11 | X-H torsion
[ 7974 7965 7964 7962 ] final -135.65 input  175.53 | X-H torsion
[ 8008 7997 7996 7995 ] final   16.47 input   59.86 | X-H torsion
[ 10167 10162 10161 10158 ] final   94.19 input  -65.29 | X-H torsion
[ 10718 10713 10712 10709 ] final  139.50 input   66.30 | X-H torsion
[ 10763 10752 10751 10750 ] final -119.82 input  -60.55 | X-H torsion
[ 11005 11000 10999 10996 ] final -168.76 input  -57.11 | X-H torsion

> <Gold.Protein.ActiveResidues>
 VAL166  LYS551  ARG553  GLY616  TRP617  ASP618  TYR619  PRO620  LYS621  CYS622 
 ASP623  PHE694  ASN695  SER759  ASP760  ASP761  ALA762  ILE779  LEU786  VAL792 
 PHE793  MET794  SER795  GLU796  ALA797  LYS798  CYS799  TRP800  GLU811  SER814 

> <Gold.Protein.RotatedAtoms>
  152.3206  133.5849  159.5741 H   0  0  0  0  0  0  0  0  0  0  0  0  # atno 6907 bound_to 6896
  150.7369  134.0017  159.3649 H   0  0  0  0  0  0  0  0  0  0  0  0  # atno 6908 bound_to 6896
  151.7902  135.0738  160.0437 H   0  0  0  0  0  0  0  0  0  0  0  0  # atno 6909 bound_to 6896
  144.8996  140.6753  143.5094 H   0  0  0  0  0  0  0  0  0  0  0  0  # atno 7974 bound_to 7965
  154.8774  140.2968  155.5445 H   0  0  0  0  0  0  0  0  0  0  0  0  # atno 8008 bound_to 7997
  156.3022  140.2449  156.3705 H   0  0  0  0  0  0  0  0  0  0  0  0  # atno 8009 bound_to 7997
  154.8753  140.0400  157.1738 H   0  0  0  0  0  0  0  0  0  0  0  0  # atno 8010 bound_to 7997
  139.8107  144.6774  150.9644 H   0  0  0  0  0  0  0  0  0  0  0  0  # atno 10167 bound_to 10162
  157.4137  131.1031  151.0427 H   0  0  0  0  0  0  0  0  0  0  0  0  # atno 10718 bound_to 10713
  154.8628  135.4225  154.2360 H   0  0  0  0  0  0  0  0  0  0  0  0  # atno 10763 bound_to 10752
  153.3335  135.6989  153.6933 H   0  0  0  0  0  0  0  0  0  0  0  0  # atno 10764 bound_to 10752
  153.5940  135.3549  155.2894 H   0  0  0  0  0  0  0  0  0  0  0  0  # atno 10765 bound_to 10752
  140.5384  134.5547  157.5093 H   0  0  0  0  0  0  0  0  0  0  0  0  # atno 11005 bound_to 11000
  145.3640  139.1674  143.4368 LP  0  0  0  0  0  0  0  0  0  0  0  0  # atno 17320 bound_to 7965
  146.3100  140.3705  142.8673 LP  0  0  0  0  0  0  0  0  0  0  0  0  # atno 17321 bound_to 7965
  140.7818  143.4188  151.0875 LP  0  0  0  0  0  0  0  0  0  0  0  0  # atno 17342 bound_to 10162
  139.7854  143.8295  152.3144 LP  0  0  0  0  0  0  0  0  0  0  0  0  # atno 17343 bound_to 10162
  157.1382  130.6132  149.5548 LP  0  0  0  0  0  0  0  0  0  0  0  0  # atno 17370 bound_to 10713
  155.9858  130.4890  150.7051 LP  0  0  0  0  0  0  0  0  0  0  0  0  # atno 17371 bound_to 10713
  139.9517  134.7605  156.0434 LP  0  0  0  0  0  0  0  0  0  0  0  0  # atno 17394 bound_to 11000
  141.1241  133.6604  156.3291 LP  0  0  0  0  0  0  0  0  0  0  0  0  # atno 17395 bound_to 11000

$$$$
