AV-unprocessed.smi:1209|AV-procd|sdf|5071|dock10
  -GOLD-   22720 4113D 1   1.00000     0.00000
 Structure written by MMmdl.
 49 51  0  0  0  0  0  0  0  0  2 V2000
  147.6984  131.2584  156.6889 C   0  0  0  0  0  0  0  0  0  0  0  0
  148.6680  132.3898  156.6655 C   0  0  0  0  0  0  0  0  0  0  0  0
  149.2880  133.0639  155.6525 C   0  0  0  0  0  0  0  0  0  0  0  0
  150.0844  134.0294  156.3285 C   0  0  0  0  0  0  0  0  0  0  0  0
  150.9986  135.0704  155.7375 C   0  0  0  0  0  0  0  0  0  0  0  0
  150.5934  136.4454  156.0385 N   0  0  0  0  0  0  0  0  0  0  0  0
  151.1596  136.8904  157.3122 C   0  0  0  0  0  0  0  0  0  0  0  0
  150.9681  137.3373  154.9374 C   0  0  0  0  0  0  0  0  0  0  0  0
  150.5822  138.8203  155.1121 C   0  0  2  0  0  0  0  0  0  0  0  0
  150.4790  139.4068  153.8296 O   0  0  0  0  0  0  0  0  0  0  0  0
  151.6361  139.5777  155.9440 C   0  0  0  0  0  0  0  0  0  0  0  0
  151.1555  140.8733  156.4463 N   0  0  0  0  0  0  0  0  0  0  0  0
  150.2276  141.7182  155.9207 C   0  0  0  0  0  0  0  0  0  0  0  0
  150.1210  142.7854  156.7597 N   0  3  0  0  0  0  0  0  0  0  0  0
  150.9957  142.6215  157.8358 C   0  0  0  0  0  0  0  0  0  0  0  0
  151.2451  143.4320  158.9370 C   0  0  0  0  0  0  0  0  0  0  0  0
  152.2102  142.9800  159.8650 C   0  0  0  0  0  0  0  0  0  0  0  0
  152.5080  143.8423  161.0799 C   0  0  0  0  0  0  0  0  0  0  0  0
  152.8905  141.7500  159.6698 C   0  0  0  0  0  0  0  0  0  0  0  0
  153.9315  141.2763  160.6698 C   0  0  0  0  0  0  0  0  0  0  0  0
  152.6202  140.9391  158.5445 C   0  0  0  0  0  0  0  0  0  0  0  0
  151.6649  141.3978  157.6405 C   0  0  0  0  0  0  0  0  0  0  0  0
  149.9548  133.9381  157.6421 N   0  0  0  0  0  0  0  0  0  0  0  0
  149.0517  132.8932  157.8670 O   0  0  0  0  0  0  0  0  0  0  0  0
  147.1802  131.1713  155.7339 H   0  0  0  0  0  0  0  0  0  0  0  0
  146.9488  131.4038  157.4671 H   0  0  0  0  0  0  0  0  0  0  0  0
  148.2107  130.3159  156.8830 H   0  0  0  0  0  0  0  0  0  0  0  0
  149.1868  132.8964  154.5905 H   0  0  0  0  0  0  0  0  0  0  0  0
  152.0253  134.9089  156.0708 H   0  0  0  0  0  0  0  0  0  0  0  0
  151.0136  134.9275  154.6564 H   0  0  0  0  0  0  0  0  0  0  0  0
  150.7936  137.8776  157.5898 H   0  0  0  0  0  0  0  0  0  0  0  0
  152.2488  136.9294  157.2667 H   0  0  0  0  0  0  0  0  0  0  0  0
  150.8820  136.2186  158.1247 H   0  0  0  0  0  0  0  0  0  0  0  0
  152.0443  137.2642  154.7727 H   0  0  0  0  0  0  0  0  0  0  0  0
  150.5060  136.9844  154.0140 H   0  0  0  0  0  0  0  0  0  0  0  0
  149.6196  138.9161  155.6128 H   0  0  0  0  0  0  0  0  0  0  0  0
  150.3598  138.7144  153.1967 H   0  0  0  0  0  0  0  0  0  0  0  0
  151.9126  138.9829  156.8156 H   0  0  0  0  0  0  0  0  0  0  0  0
  152.5554  139.7305  155.3779 H   0  0  0  0  0  0  0  0  0  0  0  0
  149.6729  141.5678  155.0058 H   0  0  0  0  0  0  0  0  0  0  0  0
  150.7247  144.3682  159.0773 H   0  0  0  0  0  0  0  0  0  0  0  0
  152.3103  143.2907  161.9996 H   0  0  0  0  0  0  0  0  0  0  0  0
  151.8912  144.7413  161.0930 H   0  0  0  0  0  0  0  0  0  0  0  0
  153.5527  144.1542  161.0804 H   0  0  0  0  0  0  0  0  0  0  0  0
  154.3490  140.3104  160.3832 H   0  0  0  0  0  0  0  0  0  0  0  0
  153.4904  141.1672  161.6606 H   0  0  0  0  0  0  0  0  0  0  0  0
  154.7541  141.9892  160.7319 H   0  0  0  0  0  0  0  0  0  0  0  0
  153.1432  140.0064  158.3932 H   0  0  0  0  0  0  0  0  0  0  0  0
  149.4963  143.5666  156.6070 H   0  0  0  0  0  0  0  0  0  0  0  0
  1  2  1  0  0  0  0
  1 25  1  0  0  0  0
  1 26  1  0  0  0  0
  1 27  1  0  0  0  0
  2 24  1  0  0  0  0
  2  3  2  0  0  0  0
  3  4  1  0  0  0  0
  3 28  1  0  0  0  0
  4  5  1  0  0  0  0
  4 23  2  0  0  0  0
  5  6  1  0  0  0  0
  5 29  1  0  0  0  0
  5 30  1  0  0  0  0
  6  7  1  0  0  0  0
  6  8  1  0  0  0  0
  7 31  1  0  0  0  0
  7 32  1  0  0  0  0
  7 33  1  0  0  0  0
  8  9  1  0  0  0  0
  8 34  1  0  0  0  0
  8 35  1  0  0  0  0
  9 10  1  0  0  0  0
  9 11  1  0  0  0  0
  9 36  1  0  0  0  0
 10 37  1  0  0  0  0
 11 12  1  0  0  0  0
 11 38  1  0  0  0  0
 11 39  1  0  0  0  0
 12 22  1  0  0  0  0
 12 13  1  0  0  0  0
 13 14  2  0  0  0  0
 13 40  1  0  0  0  0
 14 15  1  0  0  0  0
 14 49  1  0  0  0  0
 15 22  2  0  0  0  0
 15 16  1  0  0  0  0
 16 17  2  0  0  0  0
 16 41  1  0  0  0  0
 17 18  1  0  0  0  0
 17 19  1  0  0  0  0
 18 42  1  0  0  0  0
 18 43  1  0  0  0  0
 18 44  1  0  0  0  0
 19 20  1  0  0  0  0
 19 21  2  0  0  0  0
 20 45  1  0  0  0  0
 20 46  1  0  0  0  0
 20 47  1  0  0  0  0
 21 22  1  0  0  0  0
 21 48  1  0  0  0  0
 23 24  1  0  0  0  0
M  CHG  1  14   1
M  END
> <s_m_source_file>
AV-unprocessed.smi

> <i_m_source_file_index>
1209

> <i_lp_mmshare_version>
43012

> <i_f3d_flags>
0

> <s_epik_input>
W0NIM11jMVtjSF1jKG5vMSlbQ0gyXU4oW0NIM10pW0NIMl1bQ0BIXShbT0hdKVtDSDJdbihbY0hdbjIpYyhjMjMpW2NIXWMoW0NIM10pYyhbY0hdMylbQ0gzXQ==

> <s_epik_cmdline>
J2VwaWtfcHl0aG9uJywgJy1waCcsICc3LjAnLCAnLXRuJywgJzgnLCAnLW1hJywgJzIwMCcsICctbWV0YWxfYmluZGluZycsICctaW1hZScsICc8aW5maWxlLm1hZT4nLCAnLW9tYWUnLCAnPG91dGZpbGUubWFlPic=

> <r_epik_Ionization_Penalty>
1.23608

> <r_epik_Ionization_Penalty_Charging>
1.21624

> <r_epik_Ionization_Penalty_Neutral>
0.0198409

> <r_epik_State_Penalty>
1.27749

> <r_epik_Charging_Adjusted_Penalty>
2.49372

> <i_epik_Tot_Q>
1

> <i_epik_Tot_abs_Q>
1

> <r_epik_Metal_State_Penalty>
1.34809

> <b_epik_Metal_Only>
0

> <s_lp_Force_Field>
OPLS_2005

> <r_lp_Energy>
23.9348

> <b_lp_Chiralities_Consistent>
1

> <s_lp_Variant>
AV-unprocessed.smi:1209-3

> <Gold.Version>
5.8.1

> <Gold.Id.Protein>
6NUR|6NUR_protein|mol2

> <Gold.PLP.Fitness>
52.1486

> <Gold.PLP.PLP>
-42.3469

> <Gold.PLP.part.hbond>
-3.9447

> <Gold.PLP.part.metal>
0.0000

> <Gold.PLP.part.buried>
-3.6852

> <Gold.PLP.part.nonpolar>
-34.8853

> <Gold.PLP.part.repulsive>
0.0903

> <Gold.PLP.ligand.clash>
0.0000

> <Gold.PLP.ligand.torsion>
1.1326

> <Gold.PLP.Chemscore.Hbond>
4.0000

> <Gold.PLP.Chemscore.CHOScore>
0.0000

> <Gold.PLP.Chemscore.Metal>
0.0000

> <Gold.Chemscore.Hbonds>
donor molecule, donor type, donor heavy atom, donor atom, acceptor molecule, acceptor atom, score
      L1  H    14    49       P1  8028  2.00
      P1  H  6896  6907       L1    23  0.85
      P1  H  7989  7998       L1    10  1.00

> <Gold.PLP.Chemscore.Internal.Correction>
0.0669

> <Gold.Rescore>
     Score         DG    S(hbond)    S(metal)    S(lipo)     H(rot)  DE(clash)    DE(int)     intcor
     20.11     -21.61       2.83        0.00     112.51       2.53       0.23       1.28       ----

> <Gold.Chemscore.Fitness>
20.1111

> <Gold.Chemscore.DG>
-21.6144

> <Gold.Chemscore.ZeroCoef>
-5.4800

> <Gold.Chemscore.Hbond>
2.8258

> <Gold.Chemscore.Metal>
0.0000

> <Gold.Chemscore.Lipo>
112.5130

> <Gold.Chemscore.Internal_Hbond>
0.0000

> <Gold.Chemscore.DEClash>
0.2251

> <Gold.Chemscore.DEInternal>
1.2782

> <Gold.Chemscore.Rot>
2.5265

> <Gold.Chemscore.Internal.Correction>
   9.000000E+99

> <Gold.Chemscore.Hbonds>
donor molecule, donor type, donor heavy atom, donor atom, acceptor molecule, acceptor atom, score
      L1  H    14    49       P1  8028  0.95
      P1  H  6896  6907       L1    23  0.14
      P1  H  7989  7998       L1    10  0.89

> <Gold.Chemscore.Hbond.Weighted>
-9.4381

> <Gold.Chemscore.Metal.Weighted>
-0.0000

> <Gold.Chemscore.Lipo.Weighted>
-13.1640

> <Gold.Chemscore.Internal_Hbond.Weighted>
0.0000

> <Gold.Chemscore.DEClash.Weighted>
0.2251

> <Gold.Chemscore.DEInternal.Weighted>
1.2782

> <Gold.Chemscore.Rot.Weighted>
6.4677

> <Gold.Chemscore.Internal.Correction.Weighted>
   9.000000E+99

> <Gold.Protein.RotatedTorsions>
[ 6907 6896 6895 6894 ] final -112.50 input  -60.11 | X-H torsion
[ 7974 7965 7964 7962 ] final   73.03 input  175.53 | X-H torsion
[ 8008 7997 7996 7995 ] final   39.60 input   59.86 | X-H torsion
[ 10167 10162 10161 10158 ] final   90.90 input  -65.29 | X-H torsion
[ 10718 10713 10712 10709 ] final  -96.84 input   66.30 | X-H torsion
[ 10763 10752 10751 10750 ] final -158.61 input  -60.55 | X-H torsion
[ 11005 11000 10999 10996 ] final -147.97 input  -57.11 | X-H torsion

> <Gold.Protein.ActiveResidues>
 VAL166  LYS551  ARG553  GLY616  TRP617  ASP618  TYR619  PRO620  LYS621  CYS622 
 ASP623  PHE694  ASN695  SER759  ASP760  ASP761  ALA762  ILE779  LEU786  VAL792 
 PHE793  MET794  SER795  GLU796  ALA797  LYS798  CYS799  TRP800  GLU811  SER814 

> <Gold.Protein.RotatedAtoms>
  150.7763  133.9080  159.3360 H   0  0  0  0  0  0  0  0  0  0  0  0  # atno 6907 bound_to 6896
  151.6954  135.0937  160.0250 H   0  0  0  0  0  0  0  0  0  0  0  0  # atno 6908 bound_to 6896
  152.3800  133.6495  159.6189 H   0  0  0  0  0  0  0  0  0  0  0  0  # atno 6909 bound_to 6896
  145.7460  139.2740  143.1459 H   0  0  0  0  0  0  0  0  0  0  0  0  # atno 7974 bound_to 7965
  155.2394  140.3344  155.4294 H   0  0  0  0  0  0  0  0  0  0  0  0  # atno 8008 bound_to 7997
  156.2262  140.1830  156.7402 H   0  0  0  0  0  0  0  0  0  0  0  0  # atno 8009 bound_to 7997
  154.5903  140.0639  156.9214 H   0  0  0  0  0  0  0  0  0  0  0  0  # atno 8010 bound_to 7997
  139.8427  144.6633  150.9263 H   0  0  0  0  0  0  0  0  0  0  0  0  # atno 10167 bound_to 10162
  156.0070  130.5168  150.6285 H   0  0  0  0  0  0  0  0  0  0  0  0  # atno 10718 bound_to 10713
  154.7543  135.3100  154.8499 H   0  0  0  0  0  0  0  0  0  0  0  0  # atno 10763 bound_to 10752
  153.9278  135.6788  153.4750 H   0  0  0  0  0  0  0  0  0  0  0  0  # atno 10764 bound_to 10752
  153.1140  135.4853  154.9012 H   0  0  0  0  0  0  0  0  0  0  0  0  # atno 10765 bound_to 10752
  140.7661  134.3242  157.5088 H   0  0  0  0  0  0  0  0  0  0  0  0  # atno 11005 bound_to 11000
  146.0403  140.8172  142.9832 LP  0  0  0  0  0  0  0  0  0  0  0  0  # atno 17320 bound_to 7965
  144.6860  140.2900  143.7279 LP  0  0  0  0  0  0  0  0  0  0  0  0  # atno 17321 bound_to 7965
  140.7796  143.3898  151.1330 LP  0  0  0  0  0  0  0  0  0  0  0  0  # atno 17342 bound_to 10162
  139.7543  143.8732  152.3084 LP  0  0  0  0  0  0  0  0  0  0  0  0  # atno 17343 bound_to 10162
  157.4088  131.0820  151.1241 LP  0  0  0  0  0  0  0  0  0  0  0  0  # atno 17370 bound_to 10713
  157.1879  130.6338  149.5694 LP  0  0  0  0  0  0  0  0  0  0  0  0  # atno 17371 bound_to 10713
  139.8763  134.9232  156.3320 LP  0  0  0  0  0  0  0  0  0  0  0  0  # atno 17394 bound_to 11000
  140.9617  133.7384  156.0411 LP  0  0  0  0  0  0  0  0  0  0  0  0  # atno 17395 bound_to 11000

$$$$
