AV-unprocessed.smi:1522|AV-procd|sdf|6134|dock9
  -GOLD-   22720 6273D 1   1.00000     0.00000
 Structure written by MMmdl.
 35 36  0  0  0  0  0  0  0  0  2 V2000
  146.7566  140.4617  154.8196 C   0  0  0  0  0  0  0  0  0  0  0  0
  147.4029  139.8703  153.5468 C   0  0  2  0  0  0  0  0  0  0  0  0
  146.7168  138.5360  153.1520 C   0  0  0  0  0  0  0  0  0  0  0  0
  145.2615  138.6389  153.0950 N   0  0  0  0  0  0  0  0  0  0  0  0
  144.4119  137.6676  153.4585 C   0  0  0  0  0  0  0  0  0  0  0  0
  144.7812  136.5757  153.8902 O   0  0  0  0  0  0  0  0  0  0  0  0
  143.1354  138.0456  153.2848 N   0  0  0  0  0  0  0  0  0  0  0  0
  141.9622  137.2857  153.5197 C   0  0  0  0  0  0  0  0  0  0  0  0
  142.1032  136.0476  154.0071 N   0  0  0  0  0  0  0  0  0  0  0  0
  140.8782  135.4193  154.1945 N   0  0  0  0  0  0  0  0  0  0  0  0
  139.8599  136.2098  153.8417 C   0  0  0  0  0  0  0  0  0  0  0  0
  140.2953  137.8012  153.2446 S   0  0  0  0  0  0  0  0  0  0  0  0
  148.8711  139.6753  153.7227 N   0  3  0  0  0  0  0  0  0  0  0  0
  149.5773  140.7878  154.4087 C   0  0  0  0  0  0  0  0  0  0  0  0
  150.6598  140.1625  155.2996 C   0  0  0  0  0  0  0  0  0  0  0  0
  150.6991  138.6935  154.8956 C   0  0  0  0  0  0  0  0  0  0  0  0
  149.2772  138.4318  154.4136 C   0  0  0  0  0  0  0  0  0  0  0  0
  145.6817  140.5971  154.6995 H   0  0  0  0  0  0  0  0  0  0  0  0
  147.1588  141.4444  155.0648 H   0  0  0  0  0  0  0  0  0  0  0  0
  146.9119  139.8109  155.6809 H   0  0  0  0  0  0  0  0  0  0  0  0
  147.2656  140.5904  152.7384 H   0  0  0  0  0  0  0  0  0  0  0  0
  147.0709  138.1725  152.1866 H   0  0  0  0  0  0  0  0  0  0  0  0
  146.9695  137.7618  153.8772 H   0  0  0  0  0  0  0  0  0  0  0  0
  144.8769  139.5078  152.7531 H   0  0  0  0  0  0  0  0  0  0  0  0
  142.9827  138.9786  152.9313 H   0  0  0  0  0  0  0  0  0  0  0  0
  138.8447  135.8530  153.9347 H   0  0  0  0  0  0  0  0  0  0  0  0
  150.0128  141.4522  153.6618 H   0  0  0  0  0  0  0  0  0  0  0  0
  148.8960  141.3793  155.0229 H   0  0  0  0  0  0  0  0  0  0  0  0
  151.6288  140.6495  155.1869 H   0  0  0  0  0  0  0  0  0  0  0  0
  150.3667  140.2475  156.3469 H   0  0  0  0  0  0  0  0  0  0  0  0
  151.4013  138.5526  154.0728 H   0  0  0  0  0  0  0  0  0  0  0  0
  150.9995  138.0359  155.7120 H   0  0  0  0  0  0  0  0  0  0  0  0
  148.6252  138.2559  155.2710 H   0  0  0  0  0  0  0  0  0  0  0  0
  149.2237  137.5621  153.7578 H   0  0  0  0  0  0  0  0  0  0  0  0
  149.2749  139.6178  152.7986 H   0  0  0  0  0  0  0  0  0  0  0  0
  1  2  1  0  0  0  0
  1 18  1  0  0  0  0
  1 19  1  0  0  0  0
  1 20  1  0  0  0  0
  2  3  1  0  0  0  0
  2 13  1  0  0  0  0
  2 21  1  0  0  0  0
  3  4  1  0  0  0  0
  3 22  1  0  0  0  0
  3 23  1  0  0  0  0
  4  5  1  0  0  0  0
  4 24  1  0  0  0  0
  5  6  2  0  0  0  0
  5  7  1  0  0  0  0
  7  8  1  0  0  0  0
  7 25  1  0  0  0  0
  8 12  1  0  0  0  0
  8  9  2  0  0  0  0
  9 10  1  0  0  0  0
 10 11  2  0  0  0  0
 11 12  1  0  0  0  0
 11 26  1  0  0  0  0
 13 17  1  0  0  0  0
 13 14  1  0  0  0  0
 13 35  1  0  0  0  0
 14 15  1  0  0  0  0
 14 27  1  0  0  0  0
 14 28  1  0  0  0  0
 15 16  1  0  0  0  0
 15 29  1  0  0  0  0
 15 30  1  0  0  0  0
 16 17  1  0  0  0  0
 16 31  1  0  0  0  0
 16 32  1  0  0  0  0
 17 33  1  0  0  0  0
 17 34  1  0  0  0  0
M  CHG  1  13   1
M  END
> <s_m_source_file>
AV-unprocessed.smi

> <i_m_source_file_index>
1522

> <i_lp_mmshare_version>
43012

> <i_f3d_flags>
0

> <s_epik_input>
W0NIMl0xW0NIMl1bQ0gyXVtDSDJdTjFbQ0BIXShbQ0gzXSlbQ0gyXVtOSF1DKD1PKVtOSF1jMm5uW2NIXXMy

> <s_epik_cmdline>
J2VwaWtfcHl0aG9uJywgJy1waCcsICc3LjAnLCAnLXRuJywgJzgnLCAnLW1hJywgJzIwMCcsICctbWV0YWxfYmluZGluZycsICctaW1hZScsICc8aW5maWxlLm1hZT4nLCAnLW9tYWUnLCAnPG91dGZpbGUubWFlPic=

> <r_lp_tautomer_probability>
1

> <r_epik_Ionization_Penalty>
0.00457064

> <r_epik_Ionization_Penalty_Charging>
0.000848324

> <r_epik_Ionization_Penalty_Neutral>
0.00372231

> <r_epik_State_Penalty>
-0

> <r_epik_Charging_Adjusted_Penalty>
0.000848324

> <i_epik_Tot_Q>
1

> <i_epik_Tot_abs_Q>
1

> <r_epik_Metal_State_Penalty>
0.370178

> <b_epik_Metal_Only>
0

> <s_lp_Force_Field>
OPLS_2005

> <r_lp_Energy>
27.0536

> <b_lp_Chiralities_Consistent>
1

> <s_lp_Variant>
AV-unprocessed.smi:1522-1

> <Gold.Version>
5.8.1

> <Gold.Id.Protein>
6NUR|6NUR_protein|mol2

> <Gold.PLP.Fitness>
38.3636

> <Gold.PLP.PLP>
-27.4141

> <Gold.PLP.part.hbond>
-3.8675

> <Gold.PLP.part.metal>
0.0000

> <Gold.PLP.part.buried>
-1.2737

> <Gold.PLP.part.nonpolar>
-21.7388

> <Gold.PLP.part.repulsive>
0.3939

> <Gold.PLP.ligand.clash>
0.0000

> <Gold.PLP.ligand.torsion>
0.5270

> <Gold.PLP.Chemscore.Hbond>
3.9920

> <Gold.PLP.Chemscore.CHOScore>
0.0000

> <Gold.PLP.Chemscore.Metal>
0.0000

> <Gold.Chemscore.Hbonds>
donor molecule, donor type, donor heavy atom, donor atom, acceptor molecule, acceptor atom, score
      L1  H     4    24       P1 10175  1.00
      L1  H     7    25       P1 10175  0.99
      L1  H    13    35       P1  7957  1.00
      P1  H 11000 11005       L1    10  1.00

> <Gold.PLP.Chemscore.Internal.Correction>
0.0274

> <Gold.Rescore>
     Score         DG    S(hbond)    S(metal)    S(lipo)     H(rot)  DE(clash)    DE(int)     intcor
     18.22     -20.30       3.72        0.00      57.68       1.70       0.15       1.94       ----

> <Gold.Chemscore.Fitness>
18.2167

> <Gold.Chemscore.DG>
-20.3041

> <Gold.Chemscore.ZeroCoef>
-5.4800

> <Gold.Chemscore.Hbond>
3.7231

> <Gold.Chemscore.Metal>
0.0000

> <Gold.Chemscore.Lipo>
57.6756

> <Gold.Chemscore.Internal_Hbond>
0.0000

> <Gold.Chemscore.DEClash>
0.1467

> <Gold.Chemscore.DEInternal>
1.9407

> <Gold.Chemscore.Rot>
1.7028

> <Gold.Chemscore.Internal.Correction>
   9.000000E+99

> <Gold.Chemscore.Hbonds>
donor molecule, donor type, donor heavy atom, donor atom, acceptor molecule, acceptor atom, score
      L1  H     4    24       P1 10175  0.92
      L1  H     7    25       P1 10175  0.93
      L1  H    13    35       P1  7957  0.99
      P1  H 11000 11005       L1    10  0.51

> <Gold.Chemscore.Hbond.Weighted>
-12.4352

> <Gold.Chemscore.Metal.Weighted>
-0.0000

> <Gold.Chemscore.Lipo.Weighted>
-6.7480

> <Gold.Chemscore.Internal_Hbond.Weighted>
0.0000

> <Gold.Chemscore.DEClash.Weighted>
0.1467

> <Gold.Chemscore.DEInternal.Weighted>
1.9407

> <Gold.Chemscore.Rot.Weighted>
4.3592

> <Gold.Chemscore.Internal.Correction.Weighted>
   9.000000E+99

> <Gold.Protein.RotatedTorsions>
[ 6907 6896 6895 6894 ] final   56.25 input  -60.11 | X-H torsion
[ 7974 7965 7964 7962 ] final   37.10 input  175.53 | X-H torsion
[ 8008 7997 7996 7995 ] final   23.82 input   59.86 | X-H torsion
[ 10167 10162 10161 10158 ] final  153.20 input  -65.29 | X-H torsion
[ 10718 10713 10712 10709 ] final -126.21 input   66.30 | X-H torsion
[ 10763 10752 10751 10750 ] final   -9.31 input  -60.55 | X-H torsion
[ 11005 11000 10999 10996 ] final   36.88 input  -57.11 | X-H torsion

> <Gold.Protein.ActiveResidues>
 VAL166  LYS551  ARG553  GLY616  TRP617  ASP618  TYR619  PRO620  LYS621  CYS622 
 ASP623  PHE694  ASN695  SER759  ASP760  ASP761  ALA762  ILE779  LEU786  VAL792 
 PHE793  MET794  SER795  GLU796  ALA797  LYS798  CYS799  TRP800  GLU811  SER814 

> <Gold.Protein.RotatedAtoms>
  152.3618  134.6861  160.0204 H   0  0  0  0  0  0  0  0  0  0  0  0  # atno 6907 bound_to 6896
  151.7182  133.3308  159.3316 H   0  0  0  0  0  0  0  0  0  0  0  0  # atno 6908 bound_to 6896
  150.7610  134.6406  159.6279 H   0  0  0  0  0  0  0  0  0  0  0  0  # atno 6909 bound_to 6896
  146.1162  139.5935  142.9319 H   0  0  0  0  0  0  0  0  0  0  0  0  # atno 7974 bound_to 7965
  154.9868  140.3109  155.4923 H   0  0  0  0  0  0  0  0  0  0  0  0  # atno 8008 bound_to 7997
  156.2945  140.2256  156.4910 H   0  0  0  0  0  0  0  0  0  0  0  0  # atno 8009 bound_to 7997
  154.7739  140.0450  157.1062 H   0  0  0  0  0  0  0  0  0  0  0  0  # atno 8010 bound_to 7997
  139.4828  144.5293  151.7749 H   0  0  0  0  0  0  0  0  0  0  0  0  # atno 10167 bound_to 10162
  156.1745  130.6690  151.0224 H   0  0  0  0  0  0  0  0  0  0  0  0  # atno 10718 bound_to 10713
  153.4530  135.7015  153.6097 H   0  0  0  0  0  0  0  0  0  0  0  0  # atno 10763 bound_to 10752
  153.4424  135.3777  155.2236 H   0  0  0  0  0  0  0  0  0  0  0  0  # atno 10764 bound_to 10752
  154.8728  135.3977  154.3945 H   0  0  0  0  0  0  0  0  0  0  0  0  # atno 10765 bound_to 10752
  140.2281  134.3560  155.7975 H   0  0  0  0  0  0  0  0  0  0  0  0  # atno 11005 bound_to 11000
  145.5561  141.0409  143.2252 LP  0  0  0  0  0  0  0  0  0  0  0  0  # atno 17320 bound_to 7965
  144.7555  139.7084  143.7255 LP  0  0  0  0  0  0  0  0  0  0  0  0  # atno 17321 bound_to 7965
  140.4817  144.1439  150.5934 LP  0  0  0  0  0  0  0  0  0  0  0  0  # atno 17342 bound_to 10162
  140.4270  143.2585  151.9644 LP  0  0  0  0  0  0  0  0  0  0  0  0  # atno 17343 bound_to 10162
  157.6826  131.0834  150.7329 LP  0  0  0  0  0  0  0  0  0  0  0  0  # atno 17370 bound_to 10713
  156.7387  130.4732  149.5482 LP  0  0  0  0  0  0  0  0  0  0  0  0  # atno 17371 bound_to 10713
  141.2219  133.7230  156.8686 LP  0  0  0  0  0  0  0  0  0  0  0  0  # atno 17394 bound_to 11000
  140.1779  134.9054  157.2913 LP  0  0  0  0  0  0  0  0  0  0  0  0  # atno 17395 bound_to 11000

$$$$
