AV-unprocessed.smi:258|AV-procd|sdf|1968|dock8
  -GOLD-   2262021123D 1   1.00000     0.00000
 Structure written by MMmdl.
 57 60  0  0  0  0  0  0  0  0  1 V2000
  149.6118  142.0574  156.1645 O   0  0  0  0  0  0  0  0  0  0  0  0
  150.9107  142.1133  156.7153 C   0  0  0  0  0  0  0  0  0  0  0  0
  151.4698  143.5375  156.6116 C   0  0  0  0  0  0  0  0  0  0  0  0
  150.9287  144.3258  157.6625 O   0  0  0  0  0  0  0  0  0  0  0  0
  151.7862  144.4766  158.7863 C   0  0  1  0  0  0  0  0  0  0  0  0
  151.1096  145.3107  159.8930 C   0  0  0  0  0  0  0  0  0  0  0  0
  151.9878  145.3346  161.1531 C   0  0  0  0  0  0  0  0  0  0  0  0
  152.3251  143.9091  161.6188 C   0  0  0  0  0  0  0  0  0  0  0  0
  152.9179  143.1315  160.5291 N   0  0  0  0  0  0  0  0  0  0  0  0
  153.5540  141.9761  160.8501 C   0  0  0  0  0  0  0  0  0  0  0  0
  153.5857  140.9481  159.9598 N   0  0  0  0  0  0  0  0  0  0  0  0
  154.2206  139.8118  160.2617 C   0  0  0  0  0  0  0  0  0  0  0  0
  154.8780  139.4947  161.3784 N   0  0  0  0  0  0  0  0  0  0  0  0
  154.8441  140.5177  162.2794 C   0  0  0  0  0  0  0  0  0  0  0  0
  154.2087  141.7790  162.0992 C   0  0  0  0  0  0  0  0  0  0  0  0
  154.3723  142.5572  163.2396 N   0  0  0  0  0  0  0  0  0  0  0  0
  155.0748  141.8049  164.0419 C   0  0  0  0  0  0  0  0  0  0  0  0
  155.4107  140.5678  163.5414 N   0  0  0  0  0  0  0  0  0  0  0  0
  156.1863  139.5431  164.2194 C   0  0  0  0  0  0  0  0  0  0  0  0
  156.5051  138.3242  163.3192 C   0  0  1  0  0  0  0  0  0  0  0  0
  157.8383  137.6647  163.7455 C   0  0  0  0  0  0  0  0  0  0  0  0
  157.7498  137.1750  165.0673 O   0  0  0  0  0  0  0  0  0  0  0  0
  155.3186  137.3234  163.2247 C   0  0  2  0  0  0  0  0  0  0  0  0
  154.6821  136.9250  164.5555 C   0  0  0  0  0  0  0  0  0  0  0  0
  154.2862  135.4728  164.3253 C   0  0  0  0  0  0  0  0  0  0  0  0
  155.3570  134.9842  163.5367 O   0  0  0  0  0  0  0  0  0  0  0  0
  155.6541  135.9752  162.5617 C   0  0  0  0  0  0  0  0  0  0  0  0
  152.1137  143.0671  159.3086 C   0  0  0  0  0  0  0  0  0  0  0  0
  149.2437  142.9276  156.1746 H   0  0  0  0  0  0  0  0  0  0  0  0
  150.9045  141.7625  157.7478 H   0  0  0  0  0  0  0  0  0  0  0  0
  151.5385  141.4282  156.1453 H   0  0  0  0  0  0  0  0  0  0  0  0
  152.5536  143.5009  156.7304 H   0  0  0  0  0  0  0  0  0  0  0  0
  151.2674  143.9636  155.6286 H   0  0  0  0  0  0  0  0  0  0  0  0
  152.7206  144.9521  158.4824 H   0  0  0  0  0  0  0  0  0  0  0  0
  150.9280  146.3315  159.5579 H   0  0  0  0  0  0  0  0  0  0  0  0
  150.1356  144.8825  160.1335 H   0  0  0  0  0  0  0  0  0  0  0  0
  152.9105  145.8766  160.9427 H   0  0  0  0  0  0  0  0  0  0  0  0
  151.4834  145.8786  161.9521 H   0  0  0  0  0  0  0  0  0  0  0  0
  153.0141  143.9585  162.4631 H   0  0  0  0  0  0  0  0  0  0  0  0
  151.4208  143.4083  161.9679 H   0  0  0  0  0  0  0  0  0  0  0  0
  154.2003  139.0482  159.4981 H   0  0  0  0  0  0  0  0  0  0  0  0
  155.3739  142.1352  165.0261 H   0  0  0  0  0  0  0  0  0  0  0  0
  157.1073  140.0078  164.5722 H   0  0  0  0  0  0  0  0  0  0  0  0
  155.6449  139.2230  165.1103 H   0  0  0  0  0  0  0  0  0  0  0  0
  156.6517  138.7047  162.3070 H   0  0  0  0  0  0  0  0  0  0  0  0
  158.1007  136.8380  163.0855 H   0  0  0  0  0  0  0  0  0  0  0  0
  158.6657  138.3722  163.7116 H   0  0  0  0  0  0  0  0  0  0  0  0
  158.0629  137.8439  165.6573 H   0  0  0  0  0  0  0  0  0  0  0  0
  154.5376  137.7676  162.6066 H   0  0  0  0  0  0  0  0  0  0  0  0
  155.3979  136.9721  165.3747 H   0  0  0  0  0  0  0  0  0  0  0  0
  153.8313  137.5512  164.8236 H   0  0  0  0  0  0  0  0  0  0  0  0
  154.1773  134.9116  165.2537 H   0  0  0  0  0  0  0  0  0  0  0  0
  153.3523  135.4038  163.7651 H   0  0  0  0  0  0  0  0  0  0  0  0
  155.0174  135.8139  161.6903 H   0  0  0  0  0  0  0  0  0  0  0  0
  156.6879  135.8937  162.2265 H   0  0  0  0  0  0  0  0  0  0  0  0
  151.1906  142.5296  159.5303 H   0  0  0  0  0  0  0  0  0  0  0  0
  152.6192  142.5030  158.5257 H   0  0  0  0  0  0  0  0  0  0  0  0
  1  2  1  0  0  0  0
  1 29  1  0  0  0  0
  2  3  1  0  0  0  0
  2 30  1  0  0  0  0
  2 31  1  0  0  0  0
  3  4  1  0  0  0  0
  3 32  1  0  0  0  0
  3 33  1  0  0  0  0
  4  5  1  0  0  0  0
  5 28  1  0  0  0  0
  5  6  1  0  0  0  0
  5 34  1  0  0  0  0
  6  7  1  0  0  0  0
  6 35  1  0  0  0  0
  6 36  1  0  0  0  0
  7  8  1  0  0  0  0
  7 37  1  0  0  0  0
  7 38  1  0  0  0  0
  8  9  1  0  0  0  0
  8 39  1  0  0  0  0
  8 40  1  0  0  0  0
  9 10  1  0  0  0  0
  9 28  1  0  0  0  0
 10 15  1  0  0  0  0
 10 11  2  0  0  0  0
 11 12  1  0  0  0  0
 12 13  2  0  0  0  0
 12 41  1  0  0  0  0
 13 14  1  0  0  0  0
 14 18  1  0  0  0  0
 14 15  2  0  0  0  0
 15 16  1  0  0  0  0
 16 17  2  0  0  0  0
 17 18  1  0  0  0  0
 17 42  1  0  0  0  0
 18 19  1  0  0  0  0
 19 20  1  0  0  0  0
 19 43  1  0  0  0  0
 19 44  1  0  0  0  0
 20 21  1  0  0  0  0
 20 23  1  0  0  0  0
 20 45  1  0  0  0  0
 21 22  1  0  0  0  0
 21 46  1  0  0  0  0
 21 47  1  0  0  0  0
 22 48  1  0  0  0  0
 23 27  1  0  0  0  0
 23 24  1  0  0  0  0
 23 49  1  0  0  0  0
 24 25  1  0  0  0  0
 24 50  1  0  0  0  0
 24 51  1  0  0  0  0
 25 26  1  0  0  0  0
 25 52  1  0  0  0  0
 25 53  1  0  0  0  0
 26 27  1  0  0  0  0
 27 54  1  0  0  0  0
 27 55  1  0  0  0  0
 28 56  1  0  0  0  0
 28 57  1  0  0  0  0
M  END
> <s_m_source_file>
AV-unprocessed.smi

> <i_m_source_file_index>
258

> <i_lp_mmshare_version>
43012

> <i_f3d_flags>
0

> <s_epik_input>
W09IXVtDSDJdW0NIMl1PW0NAQEhdMVtDSDJdW0NIMl1bQ0gyXU4oW0NIMl0xKWMobltjSF1uMiljKGMyMyluW2NIXW4zW0NIMl1bQ0BIXShbQ0gyXVtPSF0pW0NAQEhdNFtDSDJdW0NIMl1PW0NIMl00

> <s_epik_cmdline>
J2VwaWtfcHl0aG9uJywgJy1waCcsICc3LjAnLCAnLXRuJywgJzgnLCAnLW1hJywgJzIwMCcsICctbWV0YWxfYmluZGluZycsICctaW1hZScsICc8aW5maWxlLm1hZT4nLCAnLW9tYWUnLCAnPG91dGZpbGUubWFlPic=

> <r_lp_tautomer_probability>
1

> <r_epik_Ionization_Penalty>
0.00349036

> <r_epik_Ionization_Penalty_Charging>
0

> <r_epik_Ionization_Penalty_Neutral>
0.00349036

> <r_epik_State_Penalty>
0.00229798

> <r_epik_Charging_Adjusted_Penalty>
0.00229798

> <i_epik_Tot_Q>
0

> <i_epik_Tot_abs_Q>
0

> <r_epik_Metal_State_Penalty>
-0

> <b_epik_Metal_Only>
0

> <s_lp_Force_Field>
OPLS_2005

> <r_lp_Energy>
48.0574

> <b_lp_Chiralities_Consistent>
1

> <s_lp_Variant>
AV-unprocessed.smi:258-4

> <Gold.Version>
5.8.1

> <Gold.Id.Protein>
6NUR|6NUR_protein|mol2

> <Gold.PLP.Fitness>
47.5838

> <Gold.PLP.PLP>
-46.7158

> <Gold.PLP.part.hbond>
-2.0000

> <Gold.PLP.part.metal>
0.0000

> <Gold.PLP.part.buried>
-0.7442

> <Gold.PLP.part.nonpolar>
-45.6082

> <Gold.PLP.part.repulsive>
1.8736

> <Gold.PLP.ligand.clash>
0.0000

> <Gold.PLP.ligand.torsion>
1.3828

> <Gold.PLP.Chemscore.Hbond>
1.0000

> <Gold.PLP.Chemscore.CHOScore>
0.0000

> <Gold.PLP.Chemscore.Metal>
0.0000

> <Gold.Chemscore.Hbonds>
donor molecule, donor type, donor heavy atom, donor atom, acceptor molecule, acceptor atom, score
      L1  H     1    29       P1  8028  1.00

> <Gold.PLP.Chemscore.Internal.Correction>
0.6336

> <Gold.Rescore>
     Score         DG    S(hbond)    S(metal)    S(lipo)     H(rot)  DE(clash)    DE(int)     intcor
      4.21     -13.53       0.99        0.00     132.96       4.22       4.40       4.92       ----

> <Gold.Chemscore.Fitness>
4.2062

> <Gold.Chemscore.DG>
-13.5255

> <Gold.Chemscore.ZeroCoef>
-5.4800

> <Gold.Chemscore.Hbond>
0.9893

> <Gold.Chemscore.Metal>
0.0000

> <Gold.Chemscore.Lipo>
132.9587

> <Gold.Chemscore.Internal_Hbond>
0.0000

> <Gold.Chemscore.DEClash>
4.4017

> <Gold.Chemscore.DEInternal>
4.9176

> <Gold.Chemscore.Rot>
4.2246

> <Gold.Chemscore.Internal.Correction>
   9.000000E+99

> <Gold.Chemscore.Hbonds>
donor molecule, donor type, donor heavy atom, donor atom, acceptor molecule, acceptor atom, score
      L1  H     1    29       P1  8028  0.99

> <Gold.Chemscore.Hbond.Weighted>
-3.3041

> <Gold.Chemscore.Metal.Weighted>
-0.0000

> <Gold.Chemscore.Lipo.Weighted>
-15.5562

> <Gold.Chemscore.Internal_Hbond.Weighted>
0.0000

> <Gold.Chemscore.DEClash.Weighted>
4.4017

> <Gold.Chemscore.DEInternal.Weighted>
4.9176

> <Gold.Chemscore.Rot.Weighted>
10.8149

> <Gold.Chemscore.Internal.Correction.Weighted>
   9.000000E+99

> <Gold.Protein.RotatedTorsions>
[ 6907 6896 6895 6894 ] final  135.57 input  -60.11 | X-H torsion
[ 7974 7965 7964 7962 ] final  -52.62 input  175.53 | X-H torsion
[ 8008 7997 7996 7995 ] final -176.20 input   59.86 | X-H torsion
[ 10167 10162 10161 10158 ] final   17.22 input  -65.29 | X-H torsion
[ 10718 10713 10712 10709 ] final  -46.34 input   66.30 | X-H torsion
[ 10763 10752 10751 10750 ] final  -84.20 input  -60.55 | X-H torsion
[ 11005 11000 10999 10996 ] final   22.29 input  -57.11 | X-H torsion

> <Gold.Protein.ActiveResidues>
 VAL166  LYS551  ARG553  GLY616  TRP617  ASP618  TYR619  PRO620  LYS621  CYS622 
 ASP623  PHE694  ASN695  SER759  ASP760  ASP761  ALA762  ILE779  LEU786  VAL792 
 PHE793  MET794  SER795  GLU796  ALA797  LYS798  CYS799  TRP800  GLU811  SER814 

> <Gold.Protein.RotatedAtoms>
  152.2990  133.5636  159.5605 H   0  0  0  0  0  0  0  0  0  0  0  0  # atno 6907 bound_to 6896
  150.7269  134.0319  159.3745 H   0  0  0  0  0  0  0  0  0  0  0  0  # atno 6908 bound_to 6896
  151.8220  135.0649  160.0477 H   0  0  0  0  0  0  0  0  0  0  0  0  # atno 6909 bound_to 6896
  145.9060  140.7955  142.9719 H   0  0  0  0  0  0  0  0  0  0  0  0  # atno 7974 bound_to 7965
  155.9919  140.1203  157.0630 H   0  0  0  0  0  0  0  0  0  0  0  0  # atno 8008 bound_to 7997
  154.4214  140.1124  156.5646 H   0  0  0  0  0  0  0  0  0  0  0  0  # atno 8009 bound_to 7997
  155.6330  140.3473  155.4691 H   0  0  0  0  0  0  0  0  0  0  0  0  # atno 8010 bound_to 7997
  140.5742  143.9104  150.6736 H   0  0  0  0  0  0  0  0  0  0  0  0  # atno 10167 bound_to 10162
  156.2193  130.4165  149.9014 H   0  0  0  0  0  0  0  0  0  0  0  0  # atno 10718 bound_to 10713
  154.5967  135.5529  153.7333 H   0  0  0  0  0  0  0  0  0  0  0  0  # atno 10763 bound_to 10752
  153.0138  135.6356  154.1772 H   0  0  0  0  0  0  0  0  0  0  0  0  # atno 10764 bound_to 10752
  154.1712  135.2892  155.3060 H   0  0  0  0  0  0  0  0  0  0  0  0  # atno 10765 bound_to 10752
  140.3821  134.1909  155.7663 H   0  0  0  0  0  0  0  0  0  0  0  0  # atno 11005 bound_to 11000
  144.6739  140.1750  143.7411 LP  0  0  0  0  0  0  0  0  0  0  0  0  # atno 17320 bound_to 7965
  145.8732  139.2283  143.1649 LP  0  0  0  0  0  0  0  0  0  0  0  0  # atno 17321 bound_to 7965
  140.2587  143.3539  152.1342 LP  0  0  0  0  0  0  0  0  0  0  0  0  # atno 17342 bound_to 10162
  139.5133  144.6931  151.5705 LP  0  0  0  0  0  0  0  0  0  0  0  0  # atno 17343 bound_to 10162
  156.6666  130.8803  151.3555 LP  0  0  0  0  0  0  0  0  0  0  0  0  # atno 17370 bound_to 10713
  157.7079  130.9406  150.0991 LP  0  0  0  0  0  0  0  0  0  0  0  0  # atno 17371 bound_to 10713
  141.1920  133.8183  157.0858 LP  0  0  0  0  0  0  0  0  0  0  0  0  # atno 17394 bound_to 11000
  140.0470  134.9825  157.1067 LP  0  0  0  0  0  0  0  0  0  0  0  0  # atno 17395 bound_to 11000

$$$$
