AV-unprocessed.smi:1029|AV-procd|sdf|4476|dock7
  -GOLD-   22720 2453D 1   1.00000     0.00000
 Structure written by MMmdl.
 46 47  0  0  0  0  0  0  0  0  2 V2000
  153.4396  137.8543  156.6679 C   0  0  0  0  0  0  0  0  0  0  0  0
  152.4362  138.5522  155.7979 C   0  0  0  0  0  0  0  0  0  0  0  0
  151.3526  137.9843  155.0720 C   0  0  0  0  0  0  0  0  0  0  0  0
  150.7862  139.0756  154.4684 C   0  0  0  0  0  0  0  0  0  0  0  0
  149.7027  139.1208  153.6491 N   0  0  0  0  0  0  0  0  0  0  0  0
  148.5404  138.4520  153.7512 C   0  0  0  0  0  0  0  0  0  0  0  0
  148.2607  137.6307  154.6246 O   0  0  0  0  0  0  0  0  0  0  0  0
  147.6941  138.7914  152.7696 N   0  0  0  0  0  0  0  0  0  0  0  0
  146.3415  138.2637  152.6404 C   0  0  0  0  0  0  0  0  0  0  0  0
  146.3136  137.0142  151.7433 C   0  0  2  0  0  0  0  0  0  0  0  0
  146.2629  137.4395  150.3949 O   0  0  0  0  0  0  0  0  0  0  0  0
  145.0620  136.1541  152.0132 C   0  0  0  0  0  0  0  0  0  0  0  0
  145.0309  134.9205  151.1856 N   0  3  2  0  0  0  0  0  0  0  0  0
  143.8843  134.0392  151.5246 C   0  0  0  0  0  0  0  0  0  0  0  0
  143.7892  132.8509  150.5504 C   0  0  0  0  0  0  0  0  0  0  0  0
  145.0958  132.0391  150.4905 C   0  0  2  0  0  0  0  0  0  0  0  0
  145.3117  131.1672  151.7399 C   0  0  0  0  0  0  0  0  0  0  0  0
  146.2765  132.9882  150.2136 C   0  0  0  0  0  0  0  0  0  0  0  0
  146.3163  134.1733  151.1955 C   0  0  0  0  0  0  0  0  0  0  0  0
  151.4525  140.2123  154.7849 O   0  0  0  0  0  0  0  0  0  0  0  0
  152.5081  139.8653  155.6366 N   0  0  0  0  0  0  0  0  0  0  0  0
  153.0970  136.8555  156.9399 H   0  0  0  0  0  0  0  0  0  0  0  0
  153.6147  138.4054  157.5923 H   0  0  0  0  0  0  0  0  0  0  0  0
  154.3958  137.7497  156.1546 H   0  0  0  0  0  0  0  0  0  0  0  0
  151.0581  136.9471  155.0188 H   0  0  0  0  0  0  0  0  0  0  0  0
  149.7814  139.7595  152.8717 H   0  0  0  0  0  0  0  0  0  0  0  0
  147.9912  139.4746  152.0883 H   0  0  0  0  0  0  0  0  0  0  0  0
  145.9893  138.0051  153.6401 H   0  0  0  0  0  0  0  0  0  0  0  0
  145.6670  139.0315  152.2561 H   0  0  0  0  0  0  0  0  0  0  0  0
  147.2207  136.4308  151.9025 H   0  0  0  0  0  0  0  0  0  0  0  0
  145.3888  137.7466  150.2061 H   0  0  0  0  0  0  0  0  0  0  0  0
  145.0023  135.8795  153.0677 H   0  0  0  0  0  0  0  0  0  0  0  0
  144.1774  136.7606  151.8111 H   0  0  0  0  0  0  0  0  0  0  0  0
  143.9811  133.6885  152.5529 H   0  0  0  0  0  0  0  0  0  0  0  0
  142.9562  134.6098  151.4737 H   0  0  0  0  0  0  0  0  0  0  0  0
  142.9546  132.2052  150.8263 H   0  0  0  0  0  0  0  0  0  0  0  0
  143.5596  133.2300  149.5536 H   0  0  0  0  0  0  0  0  0  0  0  0
  145.0193  131.3530  149.6460 H   0  0  0  0  0  0  0  0  0  0  0  0
  145.3980  131.7624  152.6486 H   0  0  0  0  0  0  0  0  0  0  0  0
  146.2206  130.5720  151.6480 H   0  0  0  0  0  0  0  0  0  0  0  0
  144.4819  130.4736  151.8792 H   0  0  0  0  0  0  0  0  0  0  0  0
  147.2178  132.4389  150.2501 H   0  0  0  0  0  0  0  0  0  0  0  0
  146.1924  133.3754  149.1971 H   0  0  0  0  0  0  0  0  0  0  0  0
  147.1378  134.8325  150.9172 H   0  0  0  0  0  0  0  0  0  0  0  0
  146.5288  133.8231  152.2066 H   0  0  0  0  0  0  0  0  0  0  0  0
  144.8751  135.2261  150.2353 H   0  0  0  0  0  0  0  0  0  0  0  0
  1  2  1  0  0  0  0
  1 22  1  0  0  0  0
  1 23  1  0  0  0  0
  1 24  1  0  0  0  0
  2 21  2  0  0  0  0
  2  3  1  0  0  0  0
  3  4  2  0  0  0  0
  3 25  1  0  0  0  0
  4  5  1  0  0  0  0
  4 20  1  0  0  0  0
  5  6  1  0  0  0  0
  5 26  1  0  0  0  0
  6  7  2  0  0  0  0
  6  8  1  0  0  0  0
  8  9  1  0  0  0  0
  8 27  1  0  0  0  0
  9 10  1  0  0  0  0
  9 28  1  0  0  0  0
  9 29  1  0  0  0  0
 10 11  1  0  0  0  0
 10 12  1  0  0  0  0
 10 30  1  0  0  0  0
 11 31  1  0  0  0  0
 12 13  1  0  0  0  0
 12 32  1  0  0  0  0
 12 33  1  0  0  0  0
 13 19  1  0  0  0  0
 13 14  1  0  0  0  0
 13 46  1  0  0  0  0
 14 15  1  0  0  0  0
 14 34  1  0  0  0  0
 14 35  1  0  0  0  0
 15 16  1  0  0  0  0
 15 36  1  0  0  0  0
 15 37  1  0  0  0  0
 16 17  1  0  0  0  0
 16 18  1  0  0  0  0
 16 38  1  0  0  0  0
 17 39  1  0  0  0  0
 17 40  1  0  0  0  0
 17 41  1  0  0  0  0
 18 19  1  0  0  0  0
 18 42  1  0  0  0  0
 18 43  1  0  0  0  0
 19 44  1  0  0  0  0
 19 45  1  0  0  0  0
 20 21  1  0  0  0  0
M  CHG  1  13   1
M  END
> <s_m_source_file>
AV-unprocessed.smi

> <i_m_source_file_index>
1029

> <i_lp_mmshare_version>
43012

> <i_f3d_flags>
0

> <s_epik_input>
W0NIM11jMVtjSF1jKG9uMSlbTkhdQyg9TylbTkhdW0NIMl1bQ0BIXShbT0hdKVtDSDJdTjJbQ0gyXVtDSDJdW0NIXShbQ0gzXSlbQ0gyXVtDSDJdMg==

> <s_epik_cmdline>
J2VwaWtfcHl0aG9uJywgJy1waCcsICc3LjAnLCAnLXRuJywgJzgnLCAnLW1hJywgJzIwMCcsICctbWV0YWxfYmluZGluZycsICctaW1hZScsICc8aW5maWxlLm1hZT4nLCAnLW9tYWUnLCAnPG91dGZpbGUubWFlPic=

> <r_lp_tautomer_probability>
1

> <r_epik_Ionization_Penalty>
0.00211787

> <r_epik_Ionization_Penalty_Charging>
0.00153238

> <r_epik_Ionization_Penalty_Neutral>
0.000585488

> <r_epik_State_Penalty>
-0

> <r_epik_Charging_Adjusted_Penalty>
0.00153238

> <i_epik_Tot_Q>
1

> <i_epik_Tot_abs_Q>
1

> <r_epik_Metal_State_Penalty>
-0

> <b_epik_Metal_Only>
0

> <s_lp_Force_Field>
OPLS_2005

> <r_lp_Energy>
23.9078

> <b_lp_Chiralities_Consistent>
1

> <s_lp_Variant>
AV-unprocessed.smi:1029-3

> <Gold.Version>
5.8.1

> <Gold.Id.Protein>
6NUR|6NUR_protein|mol2

> <Gold.PLP.Fitness>
53.2495

> <Gold.PLP.PLP>
-37.6832

> <Gold.PLP.part.hbond>
-7.2735

> <Gold.PLP.part.metal>
0.0000

> <Gold.PLP.part.buried>
-1.4844

> <Gold.PLP.part.nonpolar>
-28.9327

> <Gold.PLP.part.repulsive>
0.3757

> <Gold.PLP.ligand.clash>
0.0000

> <Gold.PLP.ligand.torsion>
0.7819

> <Gold.PLP.Chemscore.Hbond>
5.6880

> <Gold.PLP.Chemscore.CHOScore>
0.0000

> <Gold.PLP.Chemscore.Metal>
0.0000

> <Gold.Chemscore.Hbonds>
donor molecule, donor type, donor heavy atom, donor atom, acceptor molecule, acceptor atom, score
      L1  H     5    26       P1  7957  0.96
      L1  H     8    27       P1  7957  0.80
      L1  H    11    31       P1 10171  1.00
      P1  H  7954  7966       L1    11  0.83
      P1  H  7989  7998       L1    20  0.80
      P1  H  7997  8010       L1    21  0.95

> <Gold.PLP.Chemscore.Internal.Correction>
0.0661

> <Gold.Rescore>
     Score         DG    S(hbond)    S(metal)    S(lipo)     H(rot)  DE(clash)    DE(int)     intcor
     21.94     -24.22       4.79        0.00      77.14       2.46       1.53       0.75       ----

> <Gold.Chemscore.Fitness>
21.9376

> <Gold.Chemscore.DG>
-24.2169

> <Gold.Chemscore.ZeroCoef>
-5.4800

> <Gold.Chemscore.Hbond>
4.7950

> <Gold.Chemscore.Metal>
0.0000

> <Gold.Chemscore.Lipo>
77.1391

> <Gold.Chemscore.Internal_Hbond>
0.0000

> <Gold.Chemscore.DEClash>
1.5251

> <Gold.Chemscore.DEInternal>
0.7542

> <Gold.Chemscore.Rot>
2.4624

> <Gold.Chemscore.Internal.Correction>
   9.000000E+99

> <Gold.Chemscore.Hbonds>
donor molecule, donor type, donor heavy atom, donor atom, acceptor molecule, acceptor atom, score
      L1  H     5    26       P1  7957  0.92
      L1  H     8    27       P1  7957  0.79
      L1  H    11    31       P1 10171  1.00
      P1  H  7954  7966       L1    11  0.44
      P1  H  7989  7998       L1    20  0.34
      P1  H  7997  8010       L1    21  0.21

> <Gold.Chemscore.Hbond.Weighted>
-16.0153

> <Gold.Chemscore.Metal.Weighted>
-0.0000

> <Gold.Chemscore.Lipo.Weighted>
-9.0253

> <Gold.Chemscore.Internal_Hbond.Weighted>
0.0000

> <Gold.Chemscore.DEClash.Weighted>
1.5251

> <Gold.Chemscore.DEInternal.Weighted>
0.7542

> <Gold.Chemscore.Rot.Weighted>
6.3037

> <Gold.Chemscore.Internal.Correction.Weighted>
   9.000000E+99

> <Gold.Protein.RotatedTorsions>
[ 6907 6896 6895 6894 ] final   18.96 input  -60.11 | X-H torsion
[ 7974 7965 7964 7962 ] final   59.88 input  175.53 | X-H torsion
[ 8008 7997 7996 7995 ] final   84.79 input   59.86 | X-H torsion
[ 10167 10162 10161 10158 ] final   48.19 input  -65.29 | X-H torsion
[ 10718 10713 10712 10709 ] final   -0.38 input   66.30 | X-H torsion
[ 10763 10752 10751 10750 ] final  124.15 input  -60.55 | X-H torsion
[ 11005 11000 10999 10996 ] final   44.23 input  -57.11 | X-H torsion

> <Gold.Protein.ActiveResidues>
 VAL166  LYS551  ARG553  GLY616  TRP617  ASP618  TYR619  PRO620  LYS621  CYS622 
 ASP623  PHE694  ASN695  SER759  ASP760  ASP761  ALA762  ILE779  LEU786  VAL792 
 PHE793  MET794  SER795  GLU796  ALA797  LYS798  CYS799  TRP800  GLU811  SER814 

> <Gold.Protein.RotatedAtoms>
  151.8734  135.0481  160.0481 H   0  0  0  0  0  0  0  0  0  0  0  0  # atno 6907 bound_to 6896
  152.2570  133.5260  159.5367 H   0  0  0  0  0  0  0  0  0  0  0  0  # atno 6908 bound_to 6896
  150.7103  134.0798  159.3936 H   0  0  0  0  0  0  0  0  0  0  0  0  # atno 6909 bound_to 6896
  145.9022  139.3590  143.0585 H   0  0  0  0  0  0  0  0  0  0  0  0  # atno 7974 bound_to 7965
  155.9416  140.3407  155.6332 H   0  0  0  0  0  0  0  0  0  0  0  0  # atno 8008 bound_to 7997
  155.7032  140.0763  157.2420 H   0  0  0  0  0  0  0  0  0  0  0  0  # atno 8009 bound_to 7997
  154.4104  140.1636  156.2202 H   0  0  0  0  0  0  0  0  0  0  0  0  # atno 8010 bound_to 7997
  140.2958  144.2992  150.6230 H   0  0  0  0  0  0  0  0  0  0  0  0  # atno 10167 bound_to 10162
  156.8212  130.5457  149.5697 H   0  0  0  0  0  0  0  0  0  0  0  0  # atno 10718 bound_to 10713
  153.6569  135.3353  155.3116 H   0  0  0  0  0  0  0  0  0  0  0  0  # atno 10763 bound_to 10752
  154.8524  135.4354  154.1845 H   0  0  0  0  0  0  0  0  0  0  0  0  # atno 10764 bound_to 10752
  153.2802  135.7008  153.7468 H   0  0  0  0  0  0  0  0  0  0  0  0  # atno 10765 bound_to 10752
  140.1571  134.4388  155.8342 H   0  0  0  0  0  0  0  0  0  0  0  0  # atno 11005 bound_to 11000
  145.8776  140.9382  143.0618 LP  0  0  0  0  0  0  0  0  0  0  0  0  # atno 17320 bound_to 7965
  144.6736  140.0738  143.7472 LP  0  0  0  0  0  0  0  0  0  0  0  0  # atno 17321 bound_to 7965
  140.5693  143.2182  151.7628 LP  0  0  0  0  0  0  0  0  0  0  0  0  # atno 17342 bound_to 10162
  139.4927  144.4239  151.9947 LP  0  0  0  0  0  0  0  0  0  0  0  0  # atno 17343 bound_to 10162
  156.0987  130.5952  150.9858 LP  0  0  0  0  0  0  0  0  0  0  0  0  # atno 17370 bound_to 10713
  157.6456  131.0904  150.8161 LP  0  0  0  0  0  0  0  0  0  0  0  0  # atno 17371 bound_to 10713
  141.2205  133.6897  156.7526 LP  0  0  0  0  0  0  0  0  0  0  0  0  # atno 17394 bound_to 11000
  140.2535  134.8522  157.3690 LP  0  0  0  0  0  0  0  0  0  0  0  0  # atno 17395 bound_to 11000

$$$$
