AV-unprocessed.smi:965|AV-procd|sdf|4281|dock2
  -GOLD-   22720 2183D 1   1.00000     0.00000
 Structure written by MMmdl.
 29 30  0  0  0  0  0  0  0  0  2 V2000
  152.4986  143.6070  158.4871 C   0  0  0  0  0  0  0  0  0  0  0  0
  152.2790  142.1381  158.8641 C   0  0  0  0  0  0  0  0  0  0  0  0
  151.7972  141.3202  157.7132 C   0  0  0  0  0  0  0  0  0  0  0  0
  150.7650  141.5850  156.9162 N   0  0  0  0  0  0  0  0  0  0  0  0
  150.8462  140.5535  156.0300 C   0  0  0  0  0  0  0  0  0  0  0  0
  149.8924  140.3820  154.8883 C   0  0  2  0  0  0  0  0  0  0  0  0
  148.4882  140.9215  155.2204 C   0  0  0  0  0  0  0  0  0  0  0  0
  147.5414  140.7206  154.0271 C   0  0  0  0  0  0  0  0  0  0  0  0
  147.5290  139.2504  153.5756 C   0  0  0  0  0  0  0  0  0  0  0  0
  148.8976  138.7891  153.2546 N   0  3  0  0  0  0  0  0  0  0  0  0
  149.8362  138.9233  154.3910 C   0  0  0  0  0  0  0  0  0  0  0  0
  151.8452  139.7012  156.2252 N   0  0  0  0  0  0  0  0  0  0  0  0
  152.4990  140.2194  157.3523 O   0  0  0  0  0  0  0  0  0  0  0  0
  152.8520  144.1798  159.3447 H   0  0  0  0  0  0  0  0  0  0  0  0
  151.5727  144.0654  158.1384 H   0  0  0  0  0  0  0  0  0  0  0  0
  153.2399  143.7032  157.6933 H   0  0  0  0  0  0  0  0  0  0  0  0
  153.2083  141.7060  159.2365 H   0  0  0  0  0  0  0  0  0  0  0  0
  151.5531  142.0660  159.6747 H   0  0  0  0  0  0  0  0  0  0  0  0
  150.2727  140.9828  154.0595 H   0  0  0  0  0  0  0  0  0  0  0  0
  148.0863  140.4029  156.0922 H   0  0  0  0  0  0  0  0  0  0  0  0
  148.5399  141.9790  155.4830 H   0  0  0  0  0  0  0  0  0  0  0  0
  146.5330  141.0381  154.2945 H   0  0  0  0  0  0  0  0  0  0  0  0
  147.8563  141.3562  153.1985 H   0  0  0  0  0  0  0  0  0  0  0  0
  147.1097  138.6161  154.3579 H   0  0  0  0  0  0  0  0  0  0  0  0
  146.8976  139.1305  152.6949 H   0  0  0  0  0  0  0  0  0  0  0  0
  148.8601  137.8194  152.9737 H   0  0  0  0  0  0  0  0  0  0  0  0
  150.8248  138.5901  154.0739 H   0  0  0  0  0  0  0  0  0  0  0  0
  149.5168  138.2561  155.1929 H   0  0  0  0  0  0  0  0  0  0  0  0
  149.2477  139.3383  152.4825 H   0  0  0  0  0  0  0  0  0  0  0  0
  1  2  1  0  0  0  0
  1 14  1  0  0  0  0
  1 15  1  0  0  0  0
  1 16  1  0  0  0  0
  2  3  1  0  0  0  0
  2 17  1  0  0  0  0
  2 18  1  0  0  0  0
  3 13  1  0  0  0  0
  3  4  2  0  0  0  0
  4  5  1  0  0  0  0
  5  6  1  0  0  0  0
  5 12  2  0  0  0  0
  6 11  1  0  0  0  0
  6  7  1  0  0  0  0
  6 19  1  0  0  0  0
  7  8  1  0  0  0  0
  7 20  1  0  0  0  0
  7 21  1  0  0  0  0
  8  9  1  0  0  0  0
  8 22  1  0  0  0  0
  8 23  1  0  0  0  0
  9 10  1  0  0  0  0
  9 24  1  0  0  0  0
  9 25  1  0  0  0  0
 10 11  1  0  0  0  0
 10 26  1  0  0  0  0
 10 29  1  0  0  0  0
 11 27  1  0  0  0  0
 11 28  1  0  0  0  0
 12 13  1  0  0  0  0
M  CHG  1  10   1
M  END
> <s_m_source_file>
AV-unprocessed.smi

> <i_m_source_file_index>
965

> <i_lp_mmshare_version>
43012

> <i_f3d_flags>
0

> <s_epik_input>
W0NIM11bQ0gyXWMxbmMobm8xKVtDQEBIXTJbQ0gyXVtDSDJdW0NIMl1bTkhdW0NIMl0y

> <s_epik_cmdline>
J2VwaWtfcHl0aG9uJywgJy1waCcsICc3LjAnLCAnLXRuJywgJzgnLCAnLW1hJywgJzIwMCcsICctbWV0YWxfYmluZGluZycsICctaW1hZScsICc8aW5maWxlLm1hZT4nLCAnLW9tYWUnLCAnPG91dGZpbGUubWFlPic=

> <r_lp_tautomer_probability>
1

> <r_epik_Ionization_Penalty>
0.000532935

> <r_epik_Ionization_Penalty_Charging>
0.000532935

> <r_epik_Ionization_Penalty_Neutral>
3.47051e-13

> <r_epik_State_Penalty>
0.000332992

> <r_epik_Charging_Adjusted_Penalty>
0.000865928

> <i_epik_Tot_Q>
1

> <i_epik_Tot_abs_Q>
1

> <r_epik_Metal_State_Penalty>
-0

> <b_epik_Metal_Only>
0

> <s_lp_Force_Field>
OPLS_2005

> <r_lp_Energy>
5.54084

> <b_lp_Chiralities_Consistent>
1

> <s_lp_Variant>
AV-unprocessed.smi:965-1

> <Gold.Version>
5.8.1

> <Gold.Id.Protein>
6NUR|6NUR_protein|mol2

> <Gold.PLP.Fitness>
35.4862

> <Gold.PLP.PLP>
-24.9442

> <Gold.PLP.part.hbond>
-3.0000

> <Gold.PLP.part.metal>
0.0000

> <Gold.PLP.part.buried>
-3.4590

> <Gold.PLP.part.nonpolar>
-19.3246

> <Gold.PLP.part.repulsive>
0.1445

> <Gold.PLP.ligand.clash>
0.0000

> <Gold.PLP.ligand.torsion>
0.7429

> <Gold.PLP.Chemscore.Hbond>
3.9920

> <Gold.PLP.Chemscore.CHOScore>
0.0000

> <Gold.PLP.Chemscore.Metal>
0.0000

> <Gold.Chemscore.Hbonds>
donor molecule, donor type, donor heavy atom, donor atom, acceptor molecule, acceptor atom, score
      L1  H    10    26       P1  7948  2.00
      L1  H    10    29       P1  7957  1.00
      P1  H  7997  8008       L1    13  0.99

> <Gold.PLP.Chemscore.Internal.Correction>
0.0519

> <Gold.Rescore>
     Score         DG    S(hbond)    S(metal)    S(lipo)     H(rot)  DE(clash)    DE(int)     intcor
     17.00     -17.81       2.79        0.00      52.87       1.24       0.11       0.70       ----

> <Gold.Chemscore.Fitness>
17.0027

> <Gold.Chemscore.DG>
-17.8106

> <Gold.Chemscore.ZeroCoef>
-5.4800

> <Gold.Chemscore.Hbond>
2.7896

> <Gold.Chemscore.Metal>
0.0000

> <Gold.Chemscore.Lipo>
52.8688

> <Gold.Chemscore.Internal_Hbond>
0.0000

> <Gold.Chemscore.DEClash>
0.1103

> <Gold.Chemscore.DEInternal>
0.6977

> <Gold.Chemscore.Rot>
1.2392

> <Gold.Chemscore.Internal.Correction>
   9.000000E+99

> <Gold.Chemscore.Hbonds>
donor molecule, donor type, donor heavy atom, donor atom, acceptor molecule, acceptor atom, score
      L1  H    10    26       P1  7948  0.99
      L1  H    10    29       P1  7957  0.93
      P1  H  7997  8008       L1    13  0.31

> <Gold.Chemscore.Hbond.Weighted>
-9.3173

> <Gold.Chemscore.Metal.Weighted>
-0.0000

> <Gold.Chemscore.Lipo.Weighted>
-6.1857

> <Gold.Chemscore.Internal_Hbond.Weighted>
0.0000

> <Gold.Chemscore.DEClash.Weighted>
0.1103

> <Gold.Chemscore.DEInternal.Weighted>
0.6977

> <Gold.Chemscore.Rot.Weighted>
3.1723

> <Gold.Chemscore.Internal.Correction.Weighted>
   9.000000E+99

> <Gold.Protein.RotatedTorsions>
[ 6907 6896 6895 6894 ] final  -67.55 input  -60.11 | X-H torsion
[ 7974 7965 7964 7962 ] final  103.53 input  175.53 | X-H torsion
[ 8008 7997 7996 7995 ] final  -70.03 input   59.86 | X-H torsion
[ 10167 10162 10161 10158 ] final -133.27 input  -65.29 | X-H torsion
[ 10718 10713 10712 10709 ] final   41.34 input   66.30 | X-H torsion
[ 10763 10752 10751 10750 ] final  -18.52 input  -60.55 | X-H torsion
[ 11005 11000 10999 10996 ] final   55.99 input  -57.11 | X-H torsion

> <Gold.Protein.ActiveResidues>
 VAL166  LYS551  ARG553  GLY616  TRP617  ASP618  TYR619  PRO620  LYS621  CYS622 
 ASP623  PHE694  ASN695  SER759  ASP760  ASP761  ALA762  ILE779  LEU786  VAL792 
 PHE793  MET794  SER795  GLU796  ALA797  LYS798  CYS799  TRP800  GLU811  SER814 

> <Gold.Protein.RotatedAtoms>
  150.7403  134.5865  159.5964 H   0  0  0  0  0  0  0  0  0  0  0  0  # atno 6907 bound_to 6896
  152.3264  134.7312  160.0310 H   0  0  0  0  0  0  0  0  0  0  0  0  # atno 6908 bound_to 6896
  151.7810  133.3314  159.3508 H   0  0  0  0  0  0  0  0  0  0  0  0  # atno 6909 bound_to 6896
  145.3446  139.2454  143.3591 H   0  0  0  0  0  0  0  0  0  0  0  0  # atno 7974 bound_to 7965
  154.4982  140.0842  156.7741 H   0  0  0  0  0  0  0  0  0  0  0  0  # atno 8008 bound_to 7997
  155.4067  140.3439  155.4242 H   0  0  0  0  0  0  0  0  0  0  0  0  # atno 8009 bound_to 7997
  156.1421  140.1532  156.8892 H   0  0  0  0  0  0  0  0  0  0  0  0  # atno 8010 bound_to 7997
  139.9000  143.6619  152.2596 H   0  0  0  0  0  0  0  0  0  0  0  0  # atno 10167 bound_to 10162
  157.3925  130.7814  149.7281 H   0  0  0  0  0  0  0  0  0  0  0  0  # atno 10718 bound_to 10713
  153.5906  135.7002  153.5425 H   0  0  0  0  0  0  0  0  0  0  0  0  # atno 10763 bound_to 10752
  153.3182  135.4082  155.1393 H   0  0  0  0  0  0  0  0  0  0  0  0  # atno 10764 bound_to 10752
  154.8601  135.3689  154.5438 H   0  0  0  0  0  0  0  0  0  0  0  0  # atno 10765 bound_to 10752
  140.0563  134.5665  155.9203 H   0  0  0  0  0  0  0  0  0  0  0  0  # atno 11005 bound_to 11000
  146.2993  140.4051  142.8710 LP  0  0  0  0  0  0  0  0  0  0  0  0  # atno 17320 bound_to 7965
  144.8764  140.7341  143.6014 LP  0  0  0  0  0  0  0  0  0  0  0  0  # atno 17321 bound_to 7965
  139.7034  144.7631  151.1235 LP  0  0  0  0  0  0  0  0  0  0  0  0  # atno 17342 bound_to 10162
  140.7709  143.5427  150.9294 LP  0  0  0  0  0  0  0  0  0  0  0  0  # atno 17343 bound_to 10162
  155.9802  130.4032  150.3543 LP  0  0  0  0  0  0  0  0  0  0  0  0  # atno 17370 bound_to 10713
  157.1661  131.0357  151.2818 LP  0  0  0  0  0  0  0  0  0  0  0  0  # atno 17371 bound_to 10713
  141.1953  133.6587  156.5639 LP  0  0  0  0  0  0  0  0  0  0  0  0  # atno 17394 bound_to 11000
  140.3838  134.7500  157.4678 LP  0  0  0  0  0  0  0  0  0  0  0  0  # atno 17395 bound_to 11000

$$$$
