AV-unprocessed.smi:1821|AV-procd|sdf|7389|dock1
  -GOLD-   22720 9 53D 1   1.00000     0.00000
 Structure written by MMmdl.
 36 38  0  0  0  0  0  0  0  0  2 V2000
  151.6042  137.9803  154.5064 C   0  0  0  0  0  0  0  0  0  0  0  0
  150.4347  138.9010  154.4086 C   0  0  0  0  0  0  0  0  0  0  0  0
  149.2839  138.6671  153.7170 N   0  3  0  0  0  0  0  0  0  0  0  0
  148.4194  139.7537  153.8575 C   0  0  0  0  0  0  0  0  0  0  0  0
  147.1455  139.9765  153.3437 C   0  0  0  0  0  0  0  0  0  0  0  0
  146.5342  141.2030  153.6770 C   0  0  0  0  0  0  0  0  0  0  0  0
  147.1874  142.1518  154.4901 C   0  0  0  0  0  0  0  0  0  0  0  0
  148.4782  141.9141  155.0068 C   0  0  0  0  0  0  0  0  0  0  0  0
  149.0753  140.6978  154.6742 C   0  0  0  0  0  0  0  0  0  0  0  0
  150.3141  140.1274  154.9917 N   0  0  0  0  0  0  0  0  0  0  0  0
  151.2582  140.8623  155.8481 C   0  0  0  0  0  0  0  0  0  0  0  0
  150.6192  141.3644  157.1591 C   0  0  1  0  0  0  0  0  0  0  0  0
  149.7303  140.3946  157.6806 O   0  0  0  0  0  0  0  0  0  0  0  0
  151.6833  141.7814  158.1682 C   0  0  0  0  0  0  0  0  0  0  0  0
  151.9667  143.1495  158.3961 C   0  0  0  0  0  0  0  0  0  0  0  0
  151.2964  144.1141  157.7206 F   0  0  0  0  0  0  0  0  0  0  0  0
  152.9463  143.5250  159.3357 C   0  0  0  0  0  0  0  0  0  0  0  0
  153.6480  142.5416  160.0575 C   0  0  0  0  0  0  0  0  0  0  0  0
  153.3656  141.1800  159.8429 C   0  0  0  0  0  0  0  0  0  0  0  0
  152.3862  140.7994  158.9049 C   0  0  0  0  0  0  0  0  0  0  0  0
  152.1246  139.4826  158.7219 F   0  0  0  0  0  0  0  0  0  0  0  0
  151.4169  137.0613  153.9505 H   0  0  0  0  0  0  0  0  0  0  0  0
  151.7939  137.7223  155.5485 H   0  0  0  0  0  0  0  0  0  0  0  0
  152.4948  138.4581  154.0977 H   0  0  0  0  0  0  0  0  0  0  0  0
  146.6441  139.2520  152.7190 H   0  0  0  0  0  0  0  0  0  0  0  0
  145.5456  141.4213  153.2999 H   0  0  0  0  0  0  0  0  0  0  0  0
  146.6894  143.0821  154.7216 H   0  0  0  0  0  0  0  0  0  0  0  0
  148.9711  142.6512  155.6234 H   0  0  0  0  0  0  0  0  0  0  0  0
  152.1289  140.2358  156.0414 H   0  0  0  0  0  0  0  0  0  0  0  0
  151.6230  141.7113  155.2689 H   0  0  0  0  0  0  0  0  0  0  0  0
  150.0001  142.2306  156.9258 H   0  0  0  0  0  0  0  0  0  0  0  0
  148.9319  140.8290  157.9400 H   0  0  0  0  0  0  0  0  0  0  0  0
  153.1578  144.5705  159.5046 H   0  0  0  0  0  0  0  0  0  0  0  0
  154.3990  142.8313  160.7777 H   0  0  0  0  0  0  0  0  0  0  0  0
  153.8997  140.4245  160.4004 H   0  0  0  0  0  0  0  0  0  0  0  0
  149.1045  137.8238  153.1872 H   0  0  0  0  0  0  0  0  0  0  0  0
  1  2  1  0  0  0  0
  1 22  1  0  0  0  0
  1 23  1  0  0  0  0
  1 24  1  0  0  0  0
  2 10  1  0  0  0  0
  2  3  2  0  0  0  0
  3  4  1  0  0  0  0
  3 36  1  0  0  0  0
  4  9  2  0  0  0  0
  4  5  1  0  0  0  0
  5  6  2  0  0  0  0
  5 25  1  0  0  0  0
  6  7  1  0  0  0  0
  6 26  1  0  0  0  0
  7  8  2  0  0  0  0
  7 27  1  0  0  0  0
  8  9  1  0  0  0  0
  8 28  1  0  0  0  0
  9 10  1  0  0  0  0
 10 11  1  0  0  0  0
 11 12  1  0  0  0  0
 11 29  1  0  0  0  0
 11 30  1  0  0  0  0
 12 13  1  0  0  0  0
 12 14  1  0  0  0  0
 12 31  1  0  0  0  0
 13 32  1  0  0  0  0
 14 20  1  0  0  0  0
 14 15  2  0  0  0  0
 15 16  1  0  0  0  0
 15 17  1  0  0  0  0
 17 18  2  0  0  0  0
 17 33  1  0  0  0  0
 18 19  1  0  0  0  0
 18 34  1  0  0  0  0
 19 20  2  0  0  0  0
 19 35  1  0  0  0  0
 20 21  1  0  0  0  0
M  CHG  1   3   1
M  END
> <s_m_source_file>
AV-unprocessed.smi

> <i_m_source_file_index>
1821

> <i_lp_mmshare_version>
43012

> <i_f3d_flags>
0

> <s_epik_input>
W2NIXTFbY0hdW2NIXVtjSF1jKGMxMiluKGMobjIpW0NIM10pW0NIMl1bQ0BIXShbT0hdKWMzYyhGKVtjSF1bY0hdW2NIXWMzRg==

> <s_epik_cmdline>
J2VwaWtfcHl0aG9uJywgJy1waCcsICc3LjAnLCAnLXRuJywgJzgnLCAnLW1hJywgJzIwMCcsICctbWV0YWxfYmluZGluZycsICctaW1hZScsICc8aW5maWxlLm1hZT4nLCAnLW9tYWUnLCAnPG91dGZpbGUubWFlPic=

> <r_epik_Ionization_Penalty>
0.963869

> <r_epik_Ionization_Penalty_Charging>
0.963868

> <r_epik_Ionization_Penalty_Neutral>
1.34362e-06

> <r_epik_State_Penalty>
1.00924

> <r_epik_Charging_Adjusted_Penalty>
1.9731

> <i_epik_Tot_Q>
1

> <i_epik_Tot_abs_Q>
1

> <r_epik_Metal_State_Penalty>
4.98304

> <b_epik_Metal_Only>
0

> <s_lp_Force_Field>
OPLS_2005

> <r_lp_Energy>
15.8655

> <b_lp_Chiralities_Consistent>
1

> <s_lp_Variant>
AV-unprocessed.smi:1821-4

> <Gold.Version>
5.8.1

> <Gold.Id.Protein>
6NUR|6NUR_protein|mol2

> <Gold.PLP.Fitness>
54.5445

> <Gold.PLP.PLP>
-49.7205

> <Gold.PLP.part.hbond>
-2.0000

> <Gold.PLP.part.metal>
0.0000

> <Gold.PLP.part.buried>
2.6683

> <Gold.PLP.part.nonpolar>
-50.0125

> <Gold.PLP.part.repulsive>
0.0670

> <Gold.PLP.ligand.clash>
0.0000

> <Gold.PLP.ligand.torsion>
0.6040

> <Gold.PLP.Chemscore.Hbond>
2.0000

> <Gold.PLP.Chemscore.CHOScore>
0.0000

> <Gold.PLP.Chemscore.Metal>
0.0000

> <Gold.Chemscore.Hbonds>
donor molecule, donor type, donor heavy atom, donor atom, acceptor molecule, acceptor atom, score
      L1  H     3    36       P1  7948  1.89

> <Gold.PLP.Chemscore.Internal.Correction>
0.0321

> <Gold.Rescore>
     Score         DG    S(hbond)    S(metal)    S(lipo)     H(rot)  DE(clash)    DE(int)     intcor
     16.27     -18.33       0.98        0.00     124.24       1.94       0.29       1.77       ----

> <Gold.Chemscore.Fitness>
16.2680

> <Gold.Chemscore.DG>
-18.3279

> <Gold.Chemscore.ZeroCoef>
-5.4800

> <Gold.Chemscore.Hbond>
0.9797

> <Gold.Chemscore.Metal>
0.0000

> <Gold.Chemscore.Lipo>
124.2356

> <Gold.Chemscore.Internal_Hbond>
0.0000

> <Gold.Chemscore.DEClash>
0.2855

> <Gold.Chemscore.DEInternal>
1.7744

> <Gold.Chemscore.Rot>
1.9375

> <Gold.Chemscore.Internal.Correction>
   9.000000E+99

> <Gold.Chemscore.Hbonds>
donor molecule, donor type, donor heavy atom, donor atom, acceptor molecule, acceptor atom, score
      L1  H     3    36       P1  7948  0.90

> <Gold.Chemscore.Hbond.Weighted>
-3.2722

> <Gold.Chemscore.Metal.Weighted>
-0.0000

> <Gold.Chemscore.Lipo.Weighted>
-14.5356

> <Gold.Chemscore.Internal_Hbond.Weighted>
0.0000

> <Gold.Chemscore.DEClash.Weighted>
0.2855

> <Gold.Chemscore.DEInternal.Weighted>
1.7744

> <Gold.Chemscore.Rot.Weighted>
4.9599

> <Gold.Chemscore.Internal.Correction.Weighted>
   9.000000E+99

> <Gold.Protein.RotatedTorsions>
[ 6907 6896 6895 6894 ] final   34.34 input  -60.11 | X-H torsion
[ 7974 7965 7964 7962 ] final -172.19 input  175.53 | X-H torsion
[ 8008 7997 7996 7995 ] final  -19.14 input   59.86 | X-H torsion
[ 10167 10162 10161 10158 ] final   63.69 input  -65.29 | X-H torsion
[ 10718 10713 10712 10709 ] final  102.93 input   66.30 | X-H torsion
[ 10763 10752 10751 10750 ] final   -2.71 input  -60.55 | X-H torsion
[ 11005 11000 10999 10996 ] final   91.35 input  -57.11 | X-H torsion

> <Gold.Protein.ActiveResidues>
 VAL166  LYS551  ARG553  GLY616  TRP617  ASP618  TYR619  PRO620  LYS621  CYS622 
 ASP623  PHE694  ASN695  SER759  ASP760  ASP761  ALA762  ILE779  LEU786  VAL792 
 PHE793  MET794  SER795  GLU796  ALA797  LYS798  CYS799  TRP800  GLU811  SER814 

> <Gold.Protein.RotatedAtoms>
  152.1011  134.9341  160.0569 H   0  0  0  0  0  0  0  0  0  0  0  0  # atno 6907 bound_to 6896
  152.0555  133.4033  159.4403 H   0  0  0  0  0  0  0  0  0  0  0  0  # atno 6908 bound_to 6896
  150.6839  134.3180  159.4818 H   0  0  0  0  0  0  0  0  0  0  0  0  # atno 6909 bound_to 6896
  144.7149  140.1810  143.6358 H   0  0  0  0  0  0  0  0  0  0  0  0  # atno 7974 bound_to 7965
  154.4857  140.2097  155.9661 H   0  0  0  0  0  0  0  0  0  0  0  0  # atno 8008 bound_to 7997
  156.1232  140.3210  155.8207 H   0  0  0  0  0  0  0  0  0  0  0  0  # atno 8009 bound_to 7997
  155.4431  140.0511  157.2999 H   0  0  0  0  0  0  0  0  0  0  0  0  # atno 8010 bound_to 7997
  140.1303  144.4649  150.6868 H   0  0  0  0  0  0  0  0  0  0  0  0  # atno 10167 bound_to 10162
  157.6788  131.0766  150.5478 H   0  0  0  0  0  0  0  0  0  0  0  0  # atno 10718 bound_to 10713
  153.3616  135.6990  153.6708 H   0  0  0  0  0  0  0  0  0  0  0  0  # atno 10763 bound_to 10752
  153.5394  135.3576  155.2712 H   0  0  0  0  0  0  0  0  0  0  0  0  # atno 10764 bound_to 10752
  154.8669  135.4200  154.2874 H   0  0  0  0  0  0  0  0  0  0  0  0  # atno 10765 bound_to 10752
  139.8840  134.8669  156.3415 H   0  0  0  0  0  0  0  0  0  0  0  0  # atno 11005 bound_to 11000
  145.8856  139.2347  143.1579 LP  0  0  0  0  0  0  0  0  0  0  0  0  # atno 17320 bound_to 7965
  145.9952  140.8568  143.0046 LP  0  0  0  0  0  0  0  0  0  0  0  0  # atno 17321 bound_to 7965
  140.6820  143.2331  151.5358 LP  0  0  0  0  0  0  0  0  0  0  0  0  # atno 17342 bound_to 10162
  139.5523  144.2365  152.1551 LP  0  0  0  0  0  0  0  0  0  0  0  0  # atno 17343 bound_to 10162
  156.5783  130.4298  149.5988 LP  0  0  0  0  0  0  0  0  0  0  0  0  # atno 17370 bound_to 10713
  156.2683  130.7002  151.1791 LP  0  0  0  0  0  0  0  0  0  0  0  0  # atno 17371 bound_to 10713
  140.9655  133.7361  156.0461 LP  0  0  0  0  0  0  0  0  0  0  0  0  # atno 17394 bound_to 11000
  140.7936  134.3589  157.5458 LP  0  0  0  0  0  0  0  0  0  0  0  0  # atno 17395 bound_to 11000

$$$$
