AV-unprocessed.smi:1760|AV-procd|sdf|7092|dock4
  -GOLD-   22720 8313D 1   1.00000     0.00000
 Structure written by MMmdl.
 43 45  0  0  0  0  0  0  0  0  3 V2000
  150.8183  138.1082  158.3892 O   0  0  0  0  0  0  0  0  0  0  0  0
  150.7547  138.7262  157.3268 C   0  0  0  0  0  0  0  0  0  0  0  0
  151.1634  139.9915  157.1227 N   0  0  0  0  0  0  0  0  0  0  0  0
  151.7770  140.8871  158.0151 C   0  0  0  0  0  0  0  0  0  0  0  0
  151.3075  142.1295  158.3169 C   0  0  0  0  0  0  0  0  0  0  0  0
  151.9849  143.0089  159.2618 C   0  0  0  0  0  0  0  0  0  0  0  0
  151.5172  144.4084  159.6161 C   0  0  0  0  0  0  0  0  0  0  0  0
  150.1982  144.4178  159.8064 F   0  0  0  0  0  0  0  0  0  0  0  0
  152.0987  144.8181  160.7430 F   0  0  0  0  0  0  0  0  0  0  0  0
  151.8092  145.2798  158.6505 F   0  0  0  0  0  0  0  0  0  0  0  0
  153.1193  142.4322  159.7967 C   0  0  0  0  0  0  0  0  0  0  0  0
  153.6432  141.2091  159.5633 N   0  5  0  0  0  0  0  0  0  0  0  0
  153.0039  140.3952  158.6764 C   0  0  0  0  0  0  0  0  0  0  0  0
  153.4252  139.2671  158.4175 O   0  0  0  0  0  0  0  0  0  0  0  0
  150.2357  138.2101  156.2032 N   0  0  0  0  0  0  0  0  0  0  0  0
  149.6748  136.8696  156.0556 C   0  0  2  0  0  0  0  0  0  0  0  0
  150.6322  135.9862  155.2385 C   0  0  0  0  0  0  0  0  0  0  0  0
  150.0147  134.6044  154.9660 C   0  0  0  0  0  0  0  0  0  0  0  0
  148.7039  134.7327  154.2821 N   0  3  1  0  0  0  0  0  0  0  0  0
  148.1414  133.4185  153.9028 C   0  0  0  0  0  0  0  0  0  0  0  0
  149.1392  132.4990  153.2378 C   0  0  0  0  0  0  0  0  0  0  0  0
  148.0804  133.1928  152.4100 C   0  0  0  0  0  0  0  0  0  0  0  0
  147.7465  135.5422  155.0763 C   0  0  0  0  0  0  0  0  0  0  0  0
  148.3084  136.9466  155.3539 C   0  0  0  0  0  0  0  0  0  0  0  0
  150.9776  140.3824  156.2106 H   0  0  0  0  0  0  0  0  0  0  0  0
  150.3980  142.4985  157.8727 H   0  0  0  0  0  0  0  0  0  0  0  0
  153.6906  143.0498  160.5224 H   0  0  0  0  0  0  0  0  0  0  0  0
  150.2242  138.7987  155.3830 H   0  0  0  0  0  0  0  0  0  0  0  0
  149.5315  136.4036  157.0323 H   0  0  0  0  0  0  0  0  0  0  0  0
  150.8680  136.4706  154.2895 H   0  0  0  0  0  0  0  0  0  0  0  0
  151.5779  135.8696  155.7691 H   0  0  0  0  0  0  0  0  0  0  0  0
  150.6953  134.0178  154.3479 H   0  0  0  0  0  0  0  0  0  0  0  0
  149.8867  134.0578  155.9019 H   0  0  0  0  0  0  0  0  0  0  0  0
  147.3684  133.0159  154.5552 H   0  0  0  0  0  0  0  0  0  0  0  0
  150.1661  132.8431  153.1288 H   0  0  0  0  0  0  0  0  0  0  0  0
  149.0224  131.4294  153.4006 H   0  0  0  0  0  0  0  0  0  0  0  0
  147.2664  132.5805  152.0273 H   0  0  0  0  0  0  0  0  0  0  0  0
  148.4057  133.9969  151.7523 H   0  0  0  0  0  0  0  0  0  0  0  0
  146.8031  135.6281  154.5359 H   0  0  0  0  0  0  0  0  0  0  0  0
  147.5281  135.0318  156.0157 H   0  0  0  0  0  0  0  0  0  0  0  0
  147.6047  137.5109  155.9672 H   0  0  0  0  0  0  0  0  0  0  0  0
  148.4034  137.4903  154.4128 H   0  0  0  0  0  0  0  0  0  0  0  0
  148.8703  135.2357  153.4221 H   0  0  0  0  0  0  0  0  0  0  0  0
  1  2  2  0  0  0  0
  2  3  1  0  0  0  0
  2 15  1  0  0  0  0
  3  4  1  0  0  0  0
  3 25  1  0  0  0  0
  4 13  1  0  0  0  0
  4  5  2  0  0  0  0
  5  6  1  0  0  0  0
  5 26  1  0  0  0  0
  6  7  1  0  0  0  0
  6 11  2  0  0  0  0
  7  8  1  0  0  0  0
  7  9  1  0  0  0  0
  7 10  1  0  0  0  0
 11 12  1  0  0  0  0
 11 27  1  0  0  0  0
 12 13  1  0  0  0  0
 13 14  2  0  0  0  0
 15 16  1  0  0  0  0
 15 28  1  0  0  0  0
 16 24  1  0  0  0  0
 16 17  1  0  0  0  0
 16 29  1  0  0  0  0
 17 18  1  0  0  0  0
 17 30  1  0  0  0  0
 17 31  1  0  0  0  0
 18 19  1  0  0  0  0
 18 32  1  0  0  0  0
 18 33  1  0  0  0  0
 19 20  1  0  0  0  0
 19 23  1  0  0  0  0
 19 43  1  0  0  0  0
 20 22  1  0  0  0  0
 20 21  1  0  0  0  0
 20 34  1  0  0  0  0
 21 22  1  0  0  0  0
 21 35  1  0  0  0  0
 21 36  1  0  0  0  0
 22 37  1  0  0  0  0
 22 38  1  0  0  0  0
 23 24  1  0  0  0  0
 23 39  1  0  0  0  0
 23 40  1  0  0  0  0
 24 41  1  0  0  0  0
 24 42  1  0  0  0  0
M  CHG  1  12  -1
M  CHG  1  19   1
M  END
> <s_m_source_file>
AV-unprocessed.smi

> <i_m_source_file_index>
1760

> <i_lp_mmshare_version>
43012

> <i_f3d_flags>
0

> <s_epik_input>
W0NIMl0xW0NIMl1bQ0hdMU4oW0NIMl1bQ0gyXTIpW0NIMl1bQ0gyXVtDSF0yW05IXUMoPU8pW05IXWMzW2NIXWMoQyhGKShGKUYpW2NIXVtuSF1jMz1P

> <s_epik_cmdline>
J2VwaWtfcHl0aG9uJywgJy1waCcsICc3LjAnLCAnLXRuJywgJzgnLCAnLW1hJywgJzIwMCcsICctbWV0YWxfYmluZGluZycsICctaW1hZScsICc8aW5maWxlLm1hZT4nLCAnLW9tYWUnLCAnPG91dGZpbGUubWFlPic=

> <r_lp_tautomer_probability>
0.999

> <r_epik_Ionization_Penalty>
3.16043

> <r_epik_Ionization_Penalty_Charging>
0.268029

> <r_epik_Ionization_Penalty_Neutral>
2.8924

> <r_epik_State_Penalty>
3.0039

> <r_epik_Charging_Adjusted_Penalty>
3.27193

> <i_epik_Tot_Q>
0

> <i_epik_Tot_abs_Q>
2

> <r_epik_Metal_State_Penalty>
0.560618

> <b_epik_Metal_Only>
1

> <s_lp_Force_Field>
OPLS_2005

> <r_lp_Energy>
39.9714

> <b_lp_Chiralities_Consistent>
1

> <s_lp_Variant>
AV-unprocessed.smi:1760-4

> <Gold.Version>
5.8.1

> <Gold.Id.Protein>
6NUR|6NUR_protein|mol2

> <Gold.PLP.Fitness>
46.0870

> <Gold.PLP.PLP>
-41.2167

> <Gold.PLP.part.hbond>
-2.0000

> <Gold.PLP.part.metal>
0.0000

> <Gold.PLP.part.buried>
-5.2830

> <Gold.PLP.part.nonpolar>
-32.3022

> <Gold.PLP.part.repulsive>
0.0543

> <Gold.PLP.ligand.clash>
0.0000

> <Gold.PLP.ligand.torsion>
2.1030

> <Gold.PLP.Chemscore.Hbond>
2.6000

> <Gold.PLP.Chemscore.CHOScore>
0.0000

> <Gold.PLP.Chemscore.Metal>
0.0000

> <Gold.Chemscore.Hbonds>
donor molecule, donor type, donor heavy atom, donor atom, acceptor molecule, acceptor atom, score
      L1  H    19    43       P1  7948  2.00
      P1  H  7997  8010       L1    14  0.60

> <Gold.PLP.Chemscore.Internal.Correction>
1.2764

> <Gold.Rescore>
     Score         DG    S(hbond)    S(metal)    S(lipo)     H(rot)  DE(clash)    DE(int)     intcor
     11.78     -14.76       1.04        0.00      77.62       1.28       0.81       2.16       ----

> <Gold.Chemscore.Fitness>
11.7834

> <Gold.Chemscore.DG>
-14.7587

> <Gold.Chemscore.ZeroCoef>
-5.4800

> <Gold.Chemscore.Hbond>
1.0393

> <Gold.Chemscore.Metal>
0.0000

> <Gold.Chemscore.Lipo>
77.6167

> <Gold.Chemscore.Internal_Hbond>
0.0000

> <Gold.Chemscore.DEClash>
0.8104

> <Gold.Chemscore.DEInternal>
2.1649

> <Gold.Chemscore.Rot>
1.2787

> <Gold.Chemscore.Internal.Correction>
   9.000000E+99

> <Gold.Chemscore.Hbonds>
donor molecule, donor type, donor heavy atom, donor atom, acceptor molecule, acceptor atom, score
      L1  H    19    43       P1  7948  0.65
      P1  H  7997  8010       L1    14  0.04

> <Gold.Chemscore.Hbond.Weighted>
-3.4711

> <Gold.Chemscore.Metal.Weighted>
-0.0000

> <Gold.Chemscore.Lipo.Weighted>
-9.0812

> <Gold.Chemscore.Internal_Hbond.Weighted>
0.0000

> <Gold.Chemscore.DEClash.Weighted>
0.8104

> <Gold.Chemscore.DEInternal.Weighted>
2.1649

> <Gold.Chemscore.Rot.Weighted>
3.2735

> <Gold.Chemscore.Internal.Correction.Weighted>
   9.000000E+99

> <Gold.Protein.RotatedTorsions>
[ 6907 6896 6895 6894 ] final  129.93 input  -60.11 | X-H torsion
[ 7974 7965 7964 7962 ] final -134.75 input  175.53 | X-H torsion
[ 8008 7997 7996 7995 ] final   15.16 input   59.86 | X-H torsion
[ 10167 10162 10161 10158 ] final  -36.62 input  -65.29 | X-H torsion
[ 10718 10713 10712 10709 ] final  -22.86 input   66.30 | X-H torsion
[ 10763 10752 10751 10750 ] final   -7.47 input  -60.55 | X-H torsion
[ 11005 11000 10999 10996 ] final  177.35 input  -57.11 | X-H torsion

> <Gold.Protein.ActiveResidues>
 VAL166  LYS551  ARG553  GLY616  TRP617  ASP618  TYR619  PRO620  LYS621  CYS622 
 ASP623  PHE694  ASN695  SER759  ASP760  ASP761  ALA762  ILE779  LEU786  VAL792 
 PHE793  MET794  SER795  GLU796  ALA797  LYS798  CYS799  TRP800  GLU811  SER814 

> <Gold.Protein.RotatedAtoms>
  152.3576  133.6256  159.5990 H   0  0  0  0  0  0  0  0  0  0  0  0  # atno 6907 bound_to 6896
  150.7579  133.9475  159.3484 H   0  0  0  0  0  0  0  0  0  0  0  0  # atno 6908 bound_to 6896
  151.7318  135.0874  160.0352 H   0  0  0  0  0  0  0  0  0  0  0  0  # atno 6909 bound_to 6896
  144.9075  140.6852  143.5046 H   0  0  0  0  0  0  0  0  0  0  0  0  # atno 7974 bound_to 7965
  154.8587  140.2941  155.5552 H   0  0  0  0  0  0  0  0  0  0  0  0  # atno 8008 bound_to 7997
  156.3019  140.2482  156.3490 H   0  0  0  0  0  0  0  0  0  0  0  0  # atno 8009 bound_to 7997
  154.8942  140.0393  157.1845 H   0  0  0  0  0  0  0  0  0  0  0  0  # atno 8010 bound_to 7997
  140.7138  143.3396  151.2386 H   0  0  0  0  0  0  0  0  0  0  0  0  # atno 10167 bound_to 10162
  156.4988  130.4583  149.6713 H   0  0  0  0  0  0  0  0  0  0  0  0  # atno 10718 bound_to 10713
  153.4268  135.7011  153.6257 H   0  0  0  0  0  0  0  0  0  0  0  0  # atno 10763 bound_to 10752
  153.4688  135.3719  155.2380 H   0  0  0  0  0  0  0  0  0  0  0  0  # atno 10764 bound_to 10752
  154.8724  135.4038  154.3646 H   0  0  0  0  0  0  0  0  0  0  0  0  # atno 10765 bound_to 10752
  140.3831  134.6929  157.4463 H   0  0  0  0  0  0  0  0  0  0  0  0  # atno 11005 bound_to 11000
  145.3511  139.1706  143.4434 LP  0  0  0  0  0  0  0  0  0  0  0  0  # atno 17320 bound_to 7965
  146.3141  140.3563  142.8660 LP  0  0  0  0  0  0  0  0  0  0  0  0  # atno 17321 bound_to 7965
  139.6900  143.9708  152.2854 LP  0  0  0  0  0  0  0  0  0  0  0  0  # atno 17342 bound_to 10162
  139.9366  144.6708  150.8308 LP  0  0  0  0  0  0  0  0  0  0  0  0  # atno 17343 bound_to 10162
  156.3353  130.7353  151.2290 LP  0  0  0  0  0  0  0  0  0  0  0  0  # atno 17370 bound_to 10713
  157.7465  131.0418  150.4666 LP  0  0  0  0  0  0  0  0  0  0  0  0  # atno 17371 bound_to 10713
  140.0463  134.6194  155.8917 LP  0  0  0  0  0  0  0  0  0  0  0  0  # atno 17394 bound_to 11000
  141.1916  133.6572  156.5466 LP  0  0  0  0  0  0  0  0  0  0  0  0  # atno 17395 bound_to 11000

$$$$
