AV-unprocessed.smi:1784|AV-procd|sdf|7197|dock4
  -GOLD-   22720 8443D 1   1.00000     0.00000
 Structure written by MMmdl.
 43 45  0  0  0  0  0  0  0  0  1 V2000
  145.3215  138.1102  153.4327 O   0  0  0  0  0  0  0  0  0  0  0  0
  146.3348  137.5045  153.0833 C   0  0  0  0  0  0  0  0  0  0  0  0
  146.3242  136.2447  152.6271 N   0  0  0  0  0  0  0  0  0  0  0  0
  145.1368  135.4056  152.5166 C   0  0  0  0  0  0  0  0  0  0  0  0
  145.1212  134.6377  151.1853 C   0  0  1  0  0  0  0  0  0  0  0  0
  146.2523  133.6227  151.0394 C   0  0  0  0  0  0  0  0  0  0  0  0
  145.6928  132.6085  150.0532 C   0  0  0  0  0  0  0  0  0  0  0  0
  144.1880  132.8952  150.0328 C   0  0  0  0  0  0  0  0  0  0  0  0
  143.9687  133.8156  151.0925 O   0  0  0  0  0  0  0  0  0  0  0  0
  147.5854  137.9923  153.1297 N   0  0  0  0  0  0  0  0  0  0  0  0
  148.0172  139.2729  153.5792 C   0  0  0  0  0  0  0  0  0  0  0  0
  147.2002  140.4259  153.4857 C   0  0  0  0  0  0  0  0  0  0  0  0
  147.7003  141.6604  153.9367 C   0  0  0  0  0  0  0  0  0  0  0  0
  149.0047  141.7013  154.4587 C   0  0  0  0  0  0  0  0  0  0  0  0
  149.8012  140.6164  154.5387 N   0  0  0  0  0  0  0  0  0  0  0  0
  149.3271  139.4209  154.1099 C   0  0  0  0  0  0  0  0  0  0  0  0
  150.1962  138.3114  154.1721 N   0  0  0  0  0  0  0  0  0  0  0  0
  151.5752  138.6755  154.4891 C   0  0  0  0  0  0  0  0  0  0  0  0
  152.0939  137.6207  155.4703 C   0  0  0  0  0  0  0  0  0  0  0  0
  150.8224  137.1040  156.1321 C   0  0  0  0  0  0  0  0  0  0  0  0
  149.8144  137.1597  154.9870 C   0  0  0  0  0  0  0  0  0  0  0  0
  147.2043  135.8225  152.3699 H   0  0  0  0  0  0  0  0  0  0  0  0
  145.0926  134.7093  153.3557 H   0  0  0  0  0  0  0  0  0  0  0  0
  144.2549  136.0417  152.5955 H   0  0  0  0  0  0  0  0  0  0  0  0
  145.1376  135.3283  150.3396 H   0  0  0  0  0  0  0  0  0  0  0  0
  147.1831  134.0779  150.7000 H   0  0  0  0  0  0  0  0  0  0  0  0
  146.4456  133.1331  151.9947 H   0  0  0  0  0  0  0  0  0  0  0  0
  146.1207  132.7404  149.0588 H   0  0  0  0  0  0  0  0  0  0  0  0
  145.9066  131.5900  150.3786 H   0  0  0  0  0  0  0  0  0  0  0  0
  143.8987  133.3604  149.0892 H   0  0  0  0  0  0  0  0  0  0  0  0
  143.5879  131.9949  150.1665 H   0  0  0  0  0  0  0  0  0  0  0  0
  148.3245  137.3408  152.9097 H   0  0  0  0  0  0  0  0  0  0  0  0
  146.2077  140.3882  153.0638 H   0  0  0  0  0  0  0  0  0  0  0  0
  147.0992  142.5554  153.8789 H   0  0  0  0  0  0  0  0  0  0  0  0
  149.4240  142.6313  154.8131 H   0  0  0  0  0  0  0  0  0  0  0  0
  152.1860  138.7105  153.5868 H   0  0  0  0  0  0  0  0  0  0  0  0
  151.6109  139.6630  154.9522 H   0  0  0  0  0  0  0  0  0  0  0  0
  152.5779  136.8113  154.9223 H   0  0  0  0  0  0  0  0  0  0  0  0
  152.8134  138.0231  156.1839 H   0  0  0  0  0  0  0  0  0  0  0  0
  150.9331  136.1045  156.5533 H   0  0  0  0  0  0  0  0  0  0  0  0
  150.5164  137.7802  156.9315 H   0  0  0  0  0  0  0  0  0  0  0  0
  148.7863  137.1865  155.3487 H   0  0  0  0  0  0  0  0  0  0  0  0
  149.9073  136.2682  154.3659 H   0  0  0  0  0  0  0  0  0  0  0  0
  1  2  2  0  0  0  0
  2  3  1  0  0  0  0
  2 10  1  0  0  0  0
  3  4  1  0  0  0  0
  3 22  1  0  0  0  0
  4  5  1  0  0  0  0
  4 23  1  0  0  0  0
  4 24  1  0  0  0  0
  5  9  1  0  0  0  0
  5  6  1  0  0  0  0
  5 25  1  0  0  0  0
  6  7  1  0  0  0  0
  6 26  1  0  0  0  0
  6 27  1  0  0  0  0
  7  8  1  0  0  0  0
  7 28  1  0  0  0  0
  7 29  1  0  0  0  0
  8  9  1  0  0  0  0
  8 30  1  0  0  0  0
  8 31  1  0  0  0  0
 10 11  1  0  0  0  0
 10 32  1  0  0  0  0
 11 16  1  0  0  0  0
 11 12  2  0  0  0  0
 12 13  1  0  0  0  0
 12 33  1  0  0  0  0
 13 14  2  0  0  0  0
 13 34  1  0  0  0  0
 14 15  1  0  0  0  0
 14 35  1  0  0  0  0
 15 16  2  0  0  0  0
 16 17  1  0  0  0  0
 17 21  1  0  0  0  0
 17 18  1  0  0  0  0
 18 19  1  0  0  0  0
 18 36  1  0  0  0  0
 18 37  1  0  0  0  0
 19 20  1  0  0  0  0
 19 38  1  0  0  0  0
 19 39  1  0  0  0  0
 20 21  1  0  0  0  0
 20 40  1  0  0  0  0
 20 41  1  0  0  0  0
 21 42  1  0  0  0  0
 21 43  1  0  0  0  0
M  END
> <s_m_source_file>
AV-unprocessed.smi

> <i_m_source_file_index>
1784

> <i_lp_mmshare_version>
43012

> <i_f3d_flags>
0

> <s_epik_input>
TzFbQ0gyXVtDSDJdW0NIMl1bQ0BIXTFbQ0gyXVtOSF1DKD1PKVtOSF1jMltjSF1bY0hdW2NIXW5jMk4zW0NIMl1bQ0gyXVtDSDJdW0NIMl0z

> <s_epik_cmdline>
J2VwaWtfcHl0aG9uJywgJy1waCcsICc3LjAnLCAnLXRuJywgJzgnLCAnLW1hJywgJzIwMCcsICctbWV0YWxfYmluZGluZycsICctaW1hZScsICc8aW5maWxlLm1hZT4nLCAnLW9tYWUnLCAnPG91dGZpbGUubWFlPic=

> <r_lp_tautomer_probability>
1

> <r_epik_Ionization_Penalty>
0.0982482

> <r_epik_Ionization_Penalty_Charging>
0

> <r_epik_Ionization_Penalty_Neutral>
0.0982482

> <r_epik_State_Penalty>
0.0877864

> <r_epik_Charging_Adjusted_Penalty>
0.0877864

> <i_epik_Tot_Q>
0

> <i_epik_Tot_abs_Q>
0

> <r_epik_Metal_State_Penalty>
0.0752567

> <b_epik_Metal_Only>
0

> <s_lp_Force_Field>
OPLS_2005

> <r_lp_Energy>
44.9043

> <b_lp_Chiralities_Consistent>
1

> <s_lp_Variant>
AV-unprocessed.smi:1784-2

> <Gold.Version>
5.8.1

> <Gold.Id.Protein>
6NUR|6NUR_protein|mol2

> <Gold.PLP.Fitness>
43.0041

> <Gold.PLP.PLP>
-33.2543

> <Gold.PLP.part.hbond>
-3.0000

> <Gold.PLP.part.metal>
0.0000

> <Gold.PLP.part.buried>
-1.1370

> <Gold.PLP.part.nonpolar>
-29.5474

> <Gold.PLP.part.repulsive>
1.3832

> <Gold.PLP.ligand.clash>
0.0000

> <Gold.PLP.ligand.torsion>
0.3987

> <Gold.PLP.Chemscore.Hbond>
2.4770

> <Gold.PLP.Chemscore.CHOScore>
1.0000

> <Gold.PLP.Chemscore.Metal>
0.0000

> <Gold.Chemscore.Hbonds>
donor molecule, donor type, donor heavy atom, donor atom, acceptor molecule, acceptor atom, score
      L1  H     3    22       P1  7948  0.86
      L1  H    10    32       P1  7948  0.98
      P1  H  7989  7998       L1    15  0.64
      L1  C    14    35       P1  8028  1.00

> <Gold.PLP.Chemscore.Internal.Correction>
0.1163

> <Gold.Rescore>
     Score         DG    S(hbond)    S(metal)    S(lipo)     H(rot)  DE(clash)    DE(int)     intcor
     16.96     -18.87       2.04        0.00      86.31       1.38       0.32       1.59       ----

> <Gold.Chemscore.Fitness>
16.9577

> <Gold.Chemscore.DG>
-18.8733

> <Gold.Chemscore.ZeroCoef>
-5.4800

> <Gold.Chemscore.Hbond>
2.0438

> <Gold.Chemscore.Metal>
0.0000

> <Gold.Chemscore.Lipo>
86.3123

> <Gold.Chemscore.Internal_Hbond>
0.0000

> <Gold.Chemscore.DEClash>
0.3216

> <Gold.Chemscore.DEInternal>
1.5939

> <Gold.Chemscore.Rot>
1.3796

> <Gold.Chemscore.Internal.Correction>
   9.000000E+99

> <Gold.Chemscore.Hbonds>
donor molecule, donor type, donor heavy atom, donor atom, acceptor molecule, acceptor atom, score
      L1  H     3    22       P1  7948  0.85
      L1  H    10    32       P1  7948  0.92
      P1  H  7989  7998       L1    15  0.25

> <Gold.Chemscore.Hbond.Weighted>
-6.8264

> <Gold.Chemscore.Metal.Weighted>
-0.0000

> <Gold.Chemscore.Lipo.Weighted>
-10.0985

> <Gold.Chemscore.Internal_Hbond.Weighted>
0.0000

> <Gold.Chemscore.DEClash.Weighted>
0.3216

> <Gold.Chemscore.DEInternal.Weighted>
1.5939

> <Gold.Chemscore.Rot.Weighted>
3.5317

> <Gold.Chemscore.Internal.Correction.Weighted>
   9.000000E+99

> <Gold.Protein.RotatedTorsions>
[ 6907 6896 6895 6894 ] final  179.96 input  -60.11 | X-H torsion
[ 7974 7965 7964 7962 ] final   68.87 input  175.53 | X-H torsion
[ 8008 7997 7996 7995 ] final -161.24 input   59.86 | X-H torsion
[ 10167 10162 10161 10158 ] final  153.08 input  -65.29 | X-H torsion
[ 10718 10713 10712 10709 ] final   68.84 input   66.30 | X-H torsion
[ 10763 10752 10751 10750 ] final -133.92 input  -60.55 | X-H torsion
[ 11005 11000 10999 10996 ] final  122.41 input  -57.11 | X-H torsion

> <Gold.Protein.ActiveResidues>
 VAL166  LYS551  ARG553  GLY616  TRP617  ASP618  TYR619  PRO620  LYS621  CYS622 
 ASP623  PHE694  ASN695  SER759  ASP760  ASP761  ALA762  ILE779  LEU786  VAL792 
 PHE793  MET794  SER795  GLU796  ALA797  LYS798  CYS799  TRP800  GLU811  SER814 

> <Gold.Protein.RotatedAtoms>
  151.6632  133.3316  159.3178 H   0  0  0  0  0  0  0  0  0  0  0  0  # atno 6907 bound_to 6896
  150.7903  134.6925  159.6514 H   0  0  0  0  0  0  0  0  0  0  0  0  # atno 6908 bound_to 6896
  152.3981  134.6335  160.0133 H   0  0  0  0  0  0  0  0  0  0  0  0  # atno 6909 bound_to 6896
  145.7973  139.2964  143.1175 H   0  0  0  0  0  0  0  0  0  0  0  0  # atno 7974 bound_to 7965
  155.7893  140.0876  157.2017 H   0  0  0  0  0  0  0  0  0  0  0  0  # atno 8008 bound_to 7997
  154.3986  140.1493  156.3202 H   0  0  0  0  0  0  0  0  0  0  0  0  # atno 8009 bound_to 7997
  155.8575  140.3432  155.5737 H   0  0  0  0  0  0  0  0  0  0  0  0  # atno 8010 bound_to 7997
  139.4829  144.5304  151.7732 H   0  0  0  0  0  0  0  0  0  0  0  0  # atno 10167 bound_to 10162
  157.6312  130.9394  150.0432 H   0  0  0  0  0  0  0  0  0  0  0  0  # atno 10718 bound_to 10713
  154.8726  135.3751  154.4651 H   0  0  0  0  0  0  0  0  0  0  0  0  # atno 10763 bound_to 10752
  153.5316  135.7027  153.5686 H   0  0  0  0  0  0  0  0  0  0  0  0  # atno 10764 bound_to 10752
  153.3888  135.3977  155.1873 H   0  0  0  0  0  0  0  0  0  0  0  0  # atno 10765 bound_to 10752
  139.9267  134.9641  156.8105 H   0  0  0  0  0  0  0  0  0  0  0  0  # atno 11005 bound_to 11000
  145.9915  140.8599  143.0064 LP  0  0  0  0  0  0  0  0  0  0  0  0  # atno 17320 bound_to 7965
  144.6773  140.2222  143.7365 LP  0  0  0  0  0  0  0  0  0  0  0  0  # atno 17321 bound_to 7965
  140.4829  144.1423  150.5936 LP  0  0  0  0  0  0  0  0  0  0  0  0  # atno 17342 bound_to 10162
  140.4257  143.2591  151.9659 LP  0  0  0  0  0  0  0  0  0  0  0  0  # atno 17343 bound_to 10162
  156.1517  130.3642  149.9428 LP  0  0  0  0  0  0  0  0  0  0  0  0  # atno 17370 bound_to 10713
  156.7447  130.9092  151.3634 LP  0  0  0  0  0  0  0  0  0  0  0  0  # atno 17371 bound_to 10713
  140.6316  133.9900  155.7665 LP  0  0  0  0  0  0  0  0  0  0  0  0  # atno 17394 bound_to 11000
  141.0829  134.0034  157.3358 LP  0  0  0  0  0  0  0  0  0  0  0  0  # atno 17395 bound_to 11000

$$$$
