AV-unprocessed.smi:2751|AV-procd|sdf|10595|dock2
  -GOLD-   2272015 43D 1   1.00000     0.00000
 Structure written by MMmdl.
 34 35  0  0  0  0  0  0  0  0  1 V2000
  145.6385  138.5502  153.9092 O   0  0  0  0  0  0  0  0  0  0  0  0
  146.5786  137.8854  153.4723 C   0  0  0  0  0  0  0  0  0  0  0  0
  146.4274  136.6984  152.8669 N   0  0  0  0  0  0  0  0  0  0  0  0
  145.1492  136.0383  152.6275 C   0  0  0  0  0  0  0  0  0  0  0  0
  144.9652  135.6771  151.1435 C   0  0  0  0  0  0  0  0  0  0  0  0
  145.2498  134.1952  150.8527 C   0  0  2  0  0  0  0  0  0  0  0  0
  143.9965  133.3186  151.0416 C   0  0  0  0  0  0  0  0  0  0  0  0
  144.3336  131.8410  150.8121 C   0  0  0  0  0  0  0  0  0  0  0  0
  145.5195  131.4383  151.6950 C   0  0  0  0  0  0  0  0  0  0  0  0
  146.6933  132.4082  151.4865 C   0  0  0  0  0  0  0  0  0  0  0  0
  146.2701  133.7441  151.7419 O   0  0  0  0  0  0  0  0  0  0  0  0
  147.8727  138.2411  153.5336 N   0  0  0  0  0  0  0  0  0  0  0  0
  148.4162  139.4279  154.0870 C   0  0  0  0  0  0  0  0  0  0  0  0
  149.6118  139.5616  154.6634 N   0  0  0  0  0  0  0  0  0  0  0  0
  149.6713  140.8956  155.0395 C   0  0  0  0  0  0  0  0  0  0  0  0
  148.4979  141.4985  154.6654 C   0  0  0  0  0  0  0  0  0  0  0  0
  147.6895  140.5764  154.0565 O   0  0  0  0  0  0  0  0  0  0  0  0
  147.2542  136.2192  152.5409 H   0  0  0  0  0  0  0  0  0  0  0  0
  145.0646  135.1474  153.2522 H   0  0  0  0  0  0  0  0  0  0  0  0
  144.3575  136.7159  152.9480 H   0  0  0  0  0  0  0  0  0  0  0  0
  143.9521  135.9260  150.8246 H   0  0  0  0  0  0  0  0  0  0  0  0
  145.6358  136.2906  150.5403 H   0  0  0  0  0  0  0  0  0  0  0  0
  145.6032  134.1022  149.8240 H   0  0  0  0  0  0  0  0  0  0  0  0
  143.6029  133.4504  152.0504 H   0  0  0  0  0  0  0  0  0  0  0  0
  143.2088  133.6307  150.3551 H   0  0  0  0  0  0  0  0  0  0  0  0
  143.4677  131.2142  151.0267 H   0  0  0  0  0  0  0  0  0  0  0  0
  144.5858  131.6812  149.7630 H   0  0  0  0  0  0  0  0  0  0  0  0
  145.2176  131.4523  152.7431 H   0  0  0  0  0  0  0  0  0  0  0  0
  145.8279  130.4168  151.4711 H   0  0  0  0  0  0  0  0  0  0  0  0
  147.5090  132.1610  152.1659 H   0  0  0  0  0  0  0  0  0  0  0  0
  147.0890  132.3288  150.4728 H   0  0  0  0  0  0  0  0  0  0  0  0
  148.5409  137.5994  153.1335 H   0  0  0  0  0  0  0  0  0  0  0  0
  150.5354  141.3072  155.5399 H   0  0  0  0  0  0  0  0  0  0  0  0
  148.1095  142.5023  154.7529 H   0  0  0  0  0  0  0  0  0  0  0  0
  1  2  2  0  0  0  0
  2  3  1  0  0  0  0
  2 12  1  0  0  0  0
  3  4  1  0  0  0  0
  3 18  1  0  0  0  0
  4  5  1  0  0  0  0
  4 19  1  0  0  0  0
  4 20  1  0  0  0  0
  5  6  1  0  0  0  0
  5 21  1  0  0  0  0
  5 22  1  0  0  0  0
  6 11  1  0  0  0  0
  6  7  1  0  0  0  0
  6 23  1  0  0  0  0
  7  8  1  0  0  0  0
  7 24  1  0  0  0  0
  7 25  1  0  0  0  0
  8  9  1  0  0  0  0
  8 26  1  0  0  0  0
  8 27  1  0  0  0  0
  9 10  1  0  0  0  0
  9 28  1  0  0  0  0
  9 29  1  0  0  0  0
 10 11  1  0  0  0  0
 10 30  1  0  0  0  0
 10 31  1  0  0  0  0
 12 13  1  0  0  0  0
 12 32  1  0  0  0  0
 13 17  1  0  0  0  0
 13 14  2  0  0  0  0
 14 15  1  0  0  0  0
 15 16  2  0  0  0  0
 15 33  1  0  0  0  0
 16 17  1  0  0  0  0
 16 34  1  0  0  0  0
M  END
> <s_m_source_file>
AV-unprocessed.smi

> <i_m_source_file_index>
2751

> <i_lp_mmshare_version>
43012

> <i_f3d_flags>
0

> <s_epik_input>
bzFbY0hdW2NIXW5jMVtOSF1DKD1PKVtOSF1bQ0gyXVtDSDJdW0NAQEhdMltDSDJdW0NIMl1bQ0gyXVtDSDJdTzI=

> <s_epik_cmdline>
J2VwaWtfcHl0aG9uJywgJy1waCcsICc3LjAnLCAnLXRuJywgJzgnLCAnLW1hJywgJzIwMCcsICctbWV0YWxfYmluZGluZycsICctaW1hZScsICc8aW5maWxlLm1hZT4nLCAnLW9tYWUnLCAnPG91dGZpbGUubWFlPic=

> <r_lp_tautomer_probability>
0.785861

> <r_epik_Ionization_Penalty>
4.88827e-05

> <r_epik_Ionization_Penalty_Charging>
0

> <r_epik_Ionization_Penalty_Neutral>
4.88827e-05

> <r_epik_State_Penalty>
0.0434822

> <r_epik_Charging_Adjusted_Penalty>
0.0434822

> <i_epik_Tot_Q>
0

> <i_epik_Tot_abs_Q>
0

> <r_epik_Metal_State_Penalty>
0.0598982

> <b_epik_Metal_Only>
0

> <s_lp_Force_Field>
OPLS_2005

> <r_lp_Energy>
7.87484

> <b_lp_Chiralities_Consistent>
1

> <s_lp_Variant>
AV-unprocessed.smi:2751-1

> <Gold.Version>
5.8.1

> <Gold.Id.Protein>
6NUR|6NUR_protein|mol2

> <Gold.PLP.Fitness>
34.6429

> <Gold.PLP.PLP>
-27.4200

> <Gold.PLP.part.hbond>
-2.0000

> <Gold.PLP.part.metal>
0.0000

> <Gold.PLP.part.buried>
-3.9419

> <Gold.PLP.part.nonpolar>
-22.6174

> <Gold.PLP.part.repulsive>
0.8937

> <Gold.PLP.ligand.clash>
0.0000

> <Gold.PLP.ligand.torsion>
0.8303

> <Gold.PLP.Chemscore.Hbond>
1.9600

> <Gold.PLP.Chemscore.CHOScore>
1.0000

> <Gold.PLP.Chemscore.Metal>
0.0000

> <Gold.Chemscore.Hbonds>
donor molecule, donor type, donor heavy atom, donor atom, acceptor molecule, acceptor atom, score
      L1  H     3    18       P1  7948  1.00
      L1  H    12    32       P1  7948  1.00
      L1  C    16    34       P1  8028  1.00

> <Gold.PLP.Chemscore.Internal.Correction>
0.0036

> <Gold.Rescore>
     Score         DG    S(hbond)    S(metal)    S(lipo)     H(rot)  DE(clash)    DE(int)     intcor
     12.85     -14.95       1.95        0.00      60.91       1.63       0.00       2.10       ----

> <Gold.Chemscore.Fitness>
12.8544

> <Gold.Chemscore.DG>
-14.9529

> <Gold.Chemscore.ZeroCoef>
-5.4800

> <Gold.Chemscore.Hbond>
1.9540

> <Gold.Chemscore.Metal>
0.0000

> <Gold.Chemscore.Lipo>
60.9086

> <Gold.Chemscore.Internal_Hbond>
0.0000

> <Gold.Chemscore.DEClash>
0.0000

> <Gold.Chemscore.DEInternal>
2.0985

> <Gold.Chemscore.Rot>
1.6328

> <Gold.Chemscore.Internal.Correction>
   9.000000E+99

> <Gold.Chemscore.Hbonds>
donor molecule, donor type, donor heavy atom, donor atom, acceptor molecule, acceptor atom, score
      L1  H     3    18       P1  7948  0.96
      L1  H    12    32       P1  7948  0.94

> <Gold.Chemscore.Hbond.Weighted>
-6.5265

> <Gold.Chemscore.Metal.Weighted>
-0.0000

> <Gold.Chemscore.Lipo.Weighted>
-7.1263

> <Gold.Chemscore.Internal_Hbond.Weighted>
0.0000

> <Gold.Chemscore.DEClash.Weighted>
0.0000

> <Gold.Chemscore.DEInternal.Weighted>
2.0985

> <Gold.Chemscore.Rot.Weighted>
4.1799

> <Gold.Chemscore.Internal.Correction.Weighted>
   9.000000E+99

> <Gold.Protein.RotatedTorsions>
[ 6907 6896 6895 6894 ] final -146.54 input  -60.11 | X-H torsion
[ 7974 7965 7964 7962 ] final   63.12 input  175.53 | X-H torsion
[ 8008 7997 7996 7995 ] final  -41.43 input   59.86 | X-H torsion
[ 10167 10162 10161 10158 ] final -168.04 input  -65.29 | X-H torsion
[ 10718 10713 10712 10709 ] final   85.22 input   66.30 | X-H torsion
[ 10763 10752 10751 10750 ] final -106.37 input  -60.55 | X-H torsion
[ 11005 11000 10999 10996 ] final  159.91 input  -57.11 | X-H torsion

> <Gold.Protein.ActiveResidues>
 VAL166  LYS551  ARG553  GLY616  TRP617  ASP618  TYR619  PRO620  LYS621  CYS622 
 ASP623  PHE694  ASN695  SER759  ASP760  ASP761  ALA762  ILE779  LEU786  VAL792 
 PHE793  MET794  SER795  GLU796  ALA797  LYS798  CYS799  TRP800  GLU811  SER814 

> <Gold.Protein.RotatedAtoms>
  151.1431  133.4958  159.2596 H   0  0  0  0  0  0  0  0  0  0  0  0  # atno 6907 bound_to 6896
  151.1634  135.0284  159.8730 H   0  0  0  0  0  0  0  0  0  0  0  0  # atno 6908 bound_to 6896
  152.5462  134.1302  159.8489 H   0  0  0  0  0  0  0  0  0  0  0  0  # atno 6909 bound_to 6896
  145.8655  139.3343  143.0794 H   0  0  0  0  0  0  0  0  0  0  0  0  # atno 7974 bound_to 7965
  154.4004  140.1499  156.3190 H   0  0  0  0  0  0  0  0  0  0  0  0  # atno 8008 bound_to 7997
  155.8547  140.3456  155.5695 H   0  0  0  0  0  0  0  0  0  0  0  0  # atno 8009 bound_to 7997
  155.7946  140.0861  157.1981 H   0  0  0  0  0  0  0  0  0  0  0  0  # atno 8010 bound_to 7997
  139.6010  144.1010  152.1743 H   0  0  0  0  0  0  0  0  0  0  0  0  # atno 10167 bound_to 10162
  157.6911  131.0166  150.2790 H   0  0  0  0  0  0  0  0  0  0  0  0  # atno 10718 bound_to 10713
  154.8008  135.4714  154.0271 H   0  0  0  0  0  0  0  0  0  0  0  0  # atno 10763 bound_to 10752
  153.1778  135.6835  153.8526 H   0  0  0  0  0  0  0  0  0  0  0  0  # atno 10764 bound_to 10752
  153.8087  135.3220  155.3376 H   0  0  0  0  0  0  0  0  0  0  0  0  # atno 10765 bound_to 10752
  140.2008  134.8339  157.3015 H   0  0  0  0  0  0  0  0  0  0  0  0  # atno 11005 bound_to 11000
  145.9198  140.9123  143.0411 LP  0  0  0  0  0  0  0  0  0  0  0  0  # atno 17320 bound_to 7965
  144.6726  140.1274  143.7446 LP  0  0  0  0  0  0  0  0  0  0  0  0  # atno 17321 bound_to 7965
  140.0607  144.5859  150.7265 LP  0  0  0  0  0  0  0  0  0  0  0  0  # atno 17342 bound_to 10162
  140.7250  143.2626  151.4152 LP  0  0  0  0  0  0  0  0  0  0  0  0  # atno 17343 bound_to 10162
  156.3340  130.3805  149.7466 LP  0  0  0  0  0  0  0  0  0  0  0  0  # atno 17370 bound_to 10713
  156.4996  130.8123  151.3127 LP  0  0  0  0  0  0  0  0  0  0  0  0  # atno 17371 bound_to 10713
  140.2056  134.4201  155.7639 LP  0  0  0  0  0  0  0  0  0  0  0  0  # atno 17394 bound_to 11000
  141.2227  133.7093  156.8255 LP  0  0  0  0  0  0  0  0  0  0  0  0  # atno 17395 bound_to 11000

$$$$
