AV-unprocessed.smi:715|AV-procd|sdf|3485|dock9
  -GOLD-   22720 0483D 1   1.00000     0.00000
 Structure written by MMmdl.
 39 40  0  0  0  0  0  0  0  0  1 V2000
  153.8564  141.6856  161.8477 C   0  0  0  0  0  0  0  0  0  0  0  0
  152.8942  142.4895  161.1253 N   0  0  0  0  0  0  0  0  0  0  0  0
  152.3874  142.2945  159.8585 C   0  0  0  0  0  0  0  0  0  0  0  0
  151.5087  143.3113  159.6056 C   0  0  0  0  0  0  0  0  0  0  0  0
  150.6771  143.5678  158.3766 C   0  0  1  0  0  0  0  0  0  0  0  0
  150.7513  144.9255  157.9898 O   0  0  0  0  0  0  0  0  0  0  0  0
  151.1667  142.7033  157.2016 C   0  0  0  0  0  0  0  0  0  0  0  0
  150.0967  142.4723  156.2395 N   0  0  0  0  0  0  0  0  0  0  0  0
  150.0602  141.4462  155.3779 C   0  0  0  0  0  0  0  0  0  0  0  0
  150.9348  140.5815  155.3237 O   0  0  0  0  0  0  0  0  0  0  0  0
  148.8480  141.3870  154.4417 C   0  0  0  0  0  0  0  0  0  0  0  0
  147.6796  142.2924  154.8844 C   0  0  0  0  0  0  0  0  0  0  0  0
  146.9188  141.8029  156.1228 C   0  0  0  0  0  0  0  0  0  0  0  0
  145.5536  142.4980  156.0596 C   0  0  0  0  0  0  0  0  0  0  0  0
  145.3560  142.9337  154.5996 C   0  0  0  0  0  0  0  0  0  0  0  0
  146.5768  142.4186  153.8311 C   0  0  0  0  0  0  0  0  0  0  0  0
  151.5488  144.0836  160.8017 C   0  0  0  0  0  0  0  0  0  0  0  0
  152.3793  143.5918  161.7067 N   0  0  0  0  0  0  0  0  0  0  0  0
  154.1292  140.8092  161.2591 H   0  0  0  0  0  0  0  0  0  0  0  0
  153.4266  141.3568  162.7945 H   0  0  0  0  0  0  0  0  0  0  0  0
  154.7533  142.2736  162.0456 H   0  0  0  0  0  0  0  0  0  0  0  0
  152.6883  141.4567  159.2467 H   0  0  0  0  0  0  0  0  0  0  0  0
  149.6305  143.3381  158.5822 H   0  0  0  0  0  0  0  0  0  0  0  0
  151.4127  145.3506  158.5142 H   0  0  0  0  0  0  0  0  0  0  0  0
  152.0325  143.1548  156.7140 H   0  0  0  0  0  0  0  0  0  0  0  0
  151.4869  141.7306  157.5790 H   0  0  0  0  0  0  0  0  0  0  0  0
  149.3435  143.1443  156.2201 H   0  0  0  0  0  0  0  0  0  0  0  0
  149.1804  141.6819  153.4459 H   0  0  0  0  0  0  0  0  0  0  0  0
  148.5025  140.3553  154.3574 H   0  0  0  0  0  0  0  0  0  0  0  0
  148.0575  143.2959  155.0889 H   0  0  0  0  0  0  0  0  0  0  0  0
  146.7768  140.7226  156.0668 H   0  0  0  0  0  0  0  0  0  0  0  0
  147.4480  142.0167  157.0521 H   0  0  0  0  0  0  0  0  0  0  0  0
  144.7582  141.8319  156.3957 H   0  0  0  0  0  0  0  0  0  0  0  0
  145.5427  143.3726  156.7115 H   0  0  0  0  0  0  0  0  0  0  0  0
  144.4259  142.5506  154.1788 H   0  0  0  0  0  0  0  0  0  0  0  0
  145.3147  144.0224  154.5448 H   0  0  0  0  0  0  0  0  0  0  0  0
  146.8578  143.0760  153.0077 H   0  0  0  0  0  0  0  0  0  0  0  0
  146.3512  141.4384  153.4085 H   0  0  0  0  0  0  0  0  0  0  0  0
  150.9998  144.9834  161.0370 H   0  0  0  0  0  0  0  0  0  0  0  0
  1  2  1  0  0  0  0
  1 19  1  0  0  0  0
  1 20  1  0  0  0  0
  1 21  1  0  0  0  0
  2 18  1  0  0  0  0
  2  3  1  0  0  0  0
  3  4  2  0  0  0  0
  3 22  1  0  0  0  0
  4  5  1  0  0  0  0
  4 17  1  0  0  0  0
  5  6  1  0  0  0  0
  5  7  1  0  0  0  0
  5 23  1  0  0  0  0
  6 24  1  0  0  0  0
  7  8  1  0  0  0  0
  7 25  1  0  0  0  0
  7 26  1  0  0  0  0
  8  9  1  0  0  0  0
  8 27  1  0  0  0  0
  9 10  2  0  0  0  0
  9 11  1  0  0  0  0
 11 12  1  0  0  0  0
 11 28  1  0  0  0  0
 11 29  1  0  0  0  0
 12 16  1  0  0  0  0
 12 13  1  0  0  0  0
 12 30  1  0  0  0  0
 13 14  1  0  0  0  0
 13 31  1  0  0  0  0
 13 32  1  0  0  0  0
 14 15  1  0  0  0  0
 14 33  1  0  0  0  0
 14 34  1  0  0  0  0
 15 16  1  0  0  0  0
 15 35  1  0  0  0  0
 15 36  1  0  0  0  0
 16 37  1  0  0  0  0
 16 38  1  0  0  0  0
 17 18  2  0  0  0  0
 17 39  1  0  0  0  0
M  END
> <s_m_source_file>
AV-unprocessed.smi

> <i_m_source_file_index>
715

> <i_lp_mmshare_version>
43012

> <i_f3d_flags>
0

> <s_epik_input>
W0NIM11uMVtjSF1jKFtjSF1uMSlbQ0BIXShbT0hdKVtDSDJdW05IXUMoPU8pW0NIMl1bQ0hdMltDSDJdW0NIMl1bQ0gyXVtDSDJdMg==

> <s_epik_cmdline>
J2VwaWtfcHl0aG9uJywgJy1waCcsICc3LjAnLCAnLXRuJywgJzgnLCAnLW1hJywgJzIwMCcsICctbWV0YWxfYmluZGluZycsICctaW1hZScsICc8aW5maWxlLm1hZT4nLCAnLW9tYWUnLCAnPG91dGZpbGUubWFlPic=

> <r_lp_tautomer_probability>
1

> <r_epik_Ionization_Penalty>
4.45533e-05

> <r_epik_Ionization_Penalty_Charging>
0

> <r_epik_Ionization_Penalty_Neutral>
4.45533e-05

> <r_epik_State_Penalty>
-0

> <r_epik_Charging_Adjusted_Penalty>
0

> <i_epik_Tot_Q>
0

> <i_epik_Tot_abs_Q>
0

> <r_epik_Metal_State_Penalty>
-0

> <b_epik_Metal_Only>
0

> <s_lp_Force_Field>
OPLS_2005

> <r_lp_Energy>
19.2831

> <b_lp_Chiralities_Consistent>
1

> <s_lp_Variant>
AV-unprocessed.smi:715-2

> <Gold.Version>
5.8.1

> <Gold.Id.Protein>
6NUR|6NUR_protein|mol2

> <Gold.PLP.Fitness>
44.9718

> <Gold.PLP.PLP>
-41.4911

> <Gold.PLP.part.hbond>
-3.8306

> <Gold.PLP.part.metal>
0.0000

> <Gold.PLP.part.buried>
-2.6358

> <Gold.PLP.part.nonpolar>
-34.5326

> <Gold.PLP.part.repulsive>
0.2932

> <Gold.PLP.ligand.clash>
0.0000

> <Gold.PLP.ligand.torsion>
1.0156

> <Gold.PLP.Chemscore.Hbond>
1.8240

> <Gold.PLP.Chemscore.CHOScore>
0.0000

> <Gold.PLP.Chemscore.Metal>
0.0000

> <Gold.Chemscore.Hbonds>
donor molecule, donor type, donor heavy atom, donor atom, acceptor molecule, acceptor atom, score
      L1  H     8    27       P1  8028  0.88
      P1  H  7989  7998       L1    10  0.93

> <Gold.PLP.Chemscore.Internal.Correction>
0.0398

> <Gold.Rescore>
     Score         DG    S(hbond)    S(metal)    S(lipo)     H(rot)  DE(clash)    DE(int)     intcor
     12.57     -15.12       1.41        0.00      92.29       2.29       1.58       0.97       ----

> <Gold.Chemscore.Fitness>
12.5680

> <Gold.Chemscore.DG>
-15.1186

> <Gold.Chemscore.ZeroCoef>
-5.4800

> <Gold.Chemscore.Hbond>
1.4057

> <Gold.Chemscore.Metal>
0.0000

> <Gold.Chemscore.Lipo>
92.2860

> <Gold.Chemscore.Internal_Hbond>
0.0000

> <Gold.Chemscore.DEClash>
1.5762

> <Gold.Chemscore.DEInternal>
0.9744

> <Gold.Chemscore.Rot>
2.2866

> <Gold.Chemscore.Internal.Correction>
   9.000000E+99

> <Gold.Chemscore.Hbonds>
donor molecule, donor type, donor heavy atom, donor atom, acceptor molecule, acceptor atom, score
      L1  H     8    27       P1  8028  0.87
      P1  H  7989  7998       L1    10  0.26

> <Gold.Chemscore.Hbond.Weighted>
-4.6949

> <Gold.Chemscore.Metal.Weighted>
-0.0000

> <Gold.Chemscore.Lipo.Weighted>
-10.7975

> <Gold.Chemscore.Internal_Hbond.Weighted>
0.0000

> <Gold.Chemscore.DEClash.Weighted>
1.5762

> <Gold.Chemscore.DEInternal.Weighted>
0.9744

> <Gold.Chemscore.Rot.Weighted>
5.8538

> <Gold.Chemscore.Internal.Correction.Weighted>
   9.000000E+99

> <Gold.Protein.RotatedTorsions>
[ 6907 6896 6895 6894 ] final  178.58 input  -60.11 | X-H torsion
[ 7974 7965 7964 7962 ] final  -97.03 input  175.53 | X-H torsion
[ 8008 7997 7996 7995 ] final  -84.00 input   59.86 | X-H torsion
[ 10167 10162 10161 10158 ] final -171.56 input  -65.29 | X-H torsion
[ 10718 10713 10712 10709 ] final  177.54 input   66.30 | X-H torsion
[ 10763 10752 10751 10750 ] final  141.58 input  -60.55 | X-H torsion
[ 11005 11000 10999 10996 ] final  -51.52 input  -57.11 | X-H torsion

> <Gold.Protein.ActiveResidues>
 VAL166  LYS551  ARG553  GLY616  TRP617  ASP618  TYR619  PRO620  LYS621  CYS622 
 ASP623  PHE694  ASN695  SER759  ASP760  ASP761  ALA762  ILE779  LEU786  VAL792 
 PHE793  MET794  SER795  GLU796  ALA797  LYS798  CYS799  TRP800  GLU811  SER814 

> <Gold.Protein.RotatedAtoms>
  151.6856  133.3311  159.3229 H   0  0  0  0  0  0  0  0  0  0  0  0  # atno 6907 bound_to 6896
  150.7802  134.6743  159.6418 H   0  0  0  0  0  0  0  0  0  0  0  0  # atno 6908 bound_to 6896
  152.3857  134.6523  160.0178 H   0  0  0  0  0  0  0  0  0  0  0  0  # atno 6909 bound_to 6896
  145.3391  140.9456  143.2618 H   0  0  0  0  0  0  0  0  0  0  0  0  # atno 7974 bound_to 7965
  154.6251  140.0611  156.9664 H   0  0  0  0  0  0  0  0  0  0  0  0  # atno 8008 bound_to 7997
  155.1754  140.3294  155.4366 H   0  0  0  0  0  0  0  0  0  0  0  0  # atno 8009 bound_to 7997
  156.2453  140.1907  156.6854 H   0  0  0  0  0  0  0  0  0  0  0  0  # atno 8010 bound_to 7997
  139.5795  144.1456  152.1496 H   0  0  0  0  0  0  0  0  0  0  0  0  # atno 10167 bound_to 10162
  156.9038  130.9887  151.3031 H   0  0  0  0  0  0  0  0  0  0  0  0  # atno 10718 bound_to 10713
  153.9416  135.2979  155.3442 H   0  0  0  0  0  0  0  0  0  0  0  0  # atno 10763 bound_to 10752
  154.7474  135.4996  153.9231 H   0  0  0  0  0  0  0  0  0  0  0  0  # atno 10764 bound_to 10752
  153.1039  135.6742  153.9728 H   0  0  0  0  0  0  0  0  0  0  0  0  # atno 10765 bound_to 10752
  141.0876  133.6639  156.3890 H   0  0  0  0  0  0  0  0  0  0  0  0  # atno 11005 bound_to 11000
  144.8804  139.4912  143.6725 LP  0  0  0  0  0  0  0  0  0  0  0  0  # atno 17320 bound_to 7965
  146.3015  139.7440  142.9088 LP  0  0  0  0  0  0  0  0  0  0  0  0  # atno 17321 bound_to 7965
  140.1006  144.5543  150.6992 LP  0  0  0  0  0  0  0  0  0  0  0  0  # atno 17342 bound_to 10162
  140.7075  143.2479  151.4683 LP  0  0  0  0  0  0  0  0  0  0  0  0  # atno 17343 bound_to 10162
  157.6009  130.8512  149.8801 LP  0  0  0  0  0  0  0  0  0  0  0  0  # atno 17370 bound_to 10713
  156.0569  130.3707  150.1071 LP  0  0  0  0  0  0  0  0  0  0  0  0  # atno 17371 bound_to 10713
  140.5328  134.6196  157.5355 LP  0  0  0  0  0  0  0  0  0  0  0  0  # atno 17394 bound_to 11000
  139.9696  134.7315  156.0068 LP  0  0  0  0  0  0  0  0  0  0  0  0  # atno 17395 bound_to 11000

$$$$
