AV-unprocessed.smi:1607|AV-procd|sdf|6463|dock2
  -GOLD-   22720 7113D 1   1.00000     0.00000
 Structure written by MMmdl.
 39 40  0  0  0  0  0  0  0  0  2 V2000
  153.8712  141.6952  160.2371 C   0  0  0  0  0  0  0  0  0  0  0  0
  152.9993  142.5425  159.2994 C   0  0  2  0  0  0  0  0  0  0  0  0
  152.7827  143.9578  159.8608 C   0  0  0  0  0  0  0  0  0  0  0  0
  151.8859  144.7709  158.9195 C   0  0  0  0  0  0  0  0  0  0  0  0
  150.5603  144.0396  158.6577 C   0  0  0  0  0  0  0  0  0  0  0  0
  150.7985  142.6797  158.1090 N   0  3  2  0  0  0  0  0  0  0  0  0
  149.5346  142.0043  157.7215 C   0  0  0  0  0  0  0  0  0  0  0  0
  149.6855  141.1637  156.4386 C   0  0  0  0  0  0  0  0  0  0  0  0
  150.8253  140.2582  156.5231 N   0  0  0  0  0  0  0  0  0  0  0  0
  151.3553  139.5912  155.4858 C   0  0  0  0  0  0  0  0  0  0  0  0
  150.9277  139.6790  154.3350 O   0  0  0  0  0  0  0  0  0  0  0  0
  152.5511  138.6893  155.7905 C   0  0  0  0  0  0  0  0  0  0  0  0
  152.1768  137.6183  156.6938 N   0  0  0  0  0  0  0  0  0  0  0  0
  151.7000  137.6481  157.9401 C   0  0  0  0  0  0  0  0  0  0  0  0
  151.4947  136.4287  158.4137 N   0  0  0  0  0  0  0  0  0  0  0  0
  151.8820  135.6134  157.3632 N   0  0  0  0  0  0  0  0  0  0  0  0
  152.2888  136.3137  156.3401 N   0  0  0  0  0  0  0  0  0  0  0  0
  151.6424  141.8628  159.0229 C   0  0  0  0  0  0  0  0  0  0  0  0
  153.3940  141.5593  161.2080 H   0  0  0  0  0  0  0  0  0  0  0  0
  154.8399  142.1665  160.4057 H   0  0  0  0  0  0  0  0  0  0  0  0
  154.0564  140.7065  159.8162 H   0  0  0  0  0  0  0  0  0  0  0  0
  153.5304  142.6334  158.3504 H   0  0  0  0  0  0  0  0  0  0  0  0
  152.3219  143.9020  160.8481 H   0  0  0  0  0  0  0  0  0  0  0  0
  153.7395  144.4649  159.9914 H   0  0  0  0  0  0  0  0  0  0  0  0
  151.6908  145.7544  159.3479 H   0  0  0  0  0  0  0  0  0  0  0  0
  152.4035  144.9419  157.9746 H   0  0  0  0  0  0  0  0  0  0  0  0
  149.9809  143.9662  159.5797 H   0  0  0  0  0  0  0  0  0  0  0  0
  149.9659  144.6240  157.9541 H   0  0  0  0  0  0  0  0  0  0  0  0
  149.1774  141.3961  158.5543 H   0  0  0  0  0  0  0  0  0  0  0  0
  148.7647  142.7556  157.5403 H   0  0  0  0  0  0  0  0  0  0  0  0
  148.7886  140.5638  156.2812 H   0  0  0  0  0  0  0  0  0  0  0  0
  149.7962  141.7931  155.5553 H   0  0  0  0  0  0  0  0  0  0  0  0
  151.2347  140.1197  157.4364 H   0  0  0  0  0  0  0  0  0  0  0  0
  152.9301  138.2523  154.8658 H   0  0  0  0  0  0  0  0  0  0  0  0
  153.3654  139.2679  156.2298 H   0  0  0  0  0  0  0  0  0  0  0  0
  151.5073  138.5544  158.4952 H   0  0  0  0  0  0  0  0  0  0  0  0
  151.8221  140.8807  158.5870 H   0  0  0  0  0  0  0  0  0  0  0  0
  151.1065  141.6963  159.9588 H   0  0  0  0  0  0  0  0  0  0  0  0
  151.3259  142.8101  157.2576 H   0  0  0  0  0  0  0  0  0  0  0  0
  1  2  1  0  0  0  0
  1 19  1  0  0  0  0
  1 20  1  0  0  0  0
  1 21  1  0  0  0  0
  2 18  1  0  0  0  0
  2  3  1  0  0  0  0
  2 22  1  0  0  0  0
  3  4  1  0  0  0  0
  3 23  1  0  0  0  0
  3 24  1  0  0  0  0
  4  5  1  0  0  0  0
  4 25  1  0  0  0  0
  4 26  1  0  0  0  0
  5  6  1  0  0  0  0
  5 27  1  0  0  0  0
  5 28  1  0  0  0  0
  6  7  1  0  0  0  0
  6 18  1  0  0  0  0
  6 39  1  0  0  0  0
  7  8  1  0  0  0  0
  7 29  1  0  0  0  0
  7 30  1  0  0  0  0
  8  9  1  0  0  0  0
  8 31  1  0  0  0  0
  8 32  1  0  0  0  0
  9 10  1  0  0  0  0
  9 33  1  0  0  0  0
 10 11  2  0  0  0  0
 10 12  1  0  0  0  0
 12 13  1  0  0  0  0
 12 34  1  0  0  0  0
 12 35  1  0  0  0  0
 13 17  1  0  0  0  0
 13 14  1  0  0  0  0
 14 15  2  0  0  0  0
 14 36  1  0  0  0  0
 15 16  1  0  0  0  0
 16 17  2  0  0  0  0
 18 37  1  0  0  0  0
 18 38  1  0  0  0  0
M  CHG  1   6   1
M  END
> <s_m_source_file>
AV-unprocessed.smi

> <i_m_source_file_index>
1607

> <i_lp_mmshare_version>
43012

> <i_f3d_flags>
0

> <s_epik_input>
W0NIM11bQ0BASF0xW0NIMl1bQ0gyXVtDSDJdTihbQ0gyXTEpW0NIMl1bQ0gyXVtOSF1DKD1PKVtDSDJdbjJbY0hdbm5uMg==

> <s_epik_cmdline>
J2VwaWtfcHl0aG9uJywgJy1waCcsICc3LjAnLCAnLXRuJywgJzgnLCAnLW1hJywgJzIwMCcsICctbWV0YWxfYmluZGluZycsICctaW1hZScsICc8aW5maWxlLm1hZT4nLCAnLW9tYWUnLCAnPG91dGZpbGUubWFlPic=

> <r_lp_tautomer_probability>
1

> <r_epik_Ionization_Penalty>
0.00268321

> <r_epik_Ionization_Penalty_Charging>
0.00267875

> <r_epik_Ionization_Penalty_Neutral>
4.46125e-06

> <r_epik_State_Penalty>
0.00186642

> <r_epik_Charging_Adjusted_Penalty>
0.00454517

> <i_epik_Tot_Q>
1

> <i_epik_Tot_abs_Q>
1

> <r_epik_Metal_State_Penalty>
-0

> <b_epik_Metal_Only>
0

> <s_lp_Force_Field>
OPLS_2005

> <r_lp_Energy>
18.3574

> <b_lp_Chiralities_Consistent>
1

> <s_lp_Variant>
AV-unprocessed.smi:1607-1

> <Gold.Version>
5.8.1

> <Gold.Id.Protein>
6NUR|6NUR_protein|mol2

> <Gold.PLP.Fitness>
41.5200

> <Gold.PLP.PLP>
-34.6637

> <Gold.PLP.part.hbond>
-4.0000

> <Gold.PLP.part.metal>
0.0000

> <Gold.PLP.part.buried>
-5.5368

> <Gold.PLP.part.nonpolar>
-25.5201

> <Gold.PLP.part.repulsive>
0.2487

> <Gold.PLP.ligand.clash>
0.0000

> <Gold.PLP.ligand.torsion>
0.5556

> <Gold.PLP.Chemscore.Hbond>
2.6400

> <Gold.PLP.Chemscore.CHOScore>
0.0000

> <Gold.PLP.Chemscore.Metal>
0.0000

> <Gold.Chemscore.Hbonds>
donor molecule, donor type, donor heavy atom, donor atom, acceptor molecule, acceptor atom, score
      P1  H  6896  6907       L1    15  0.61
      P1  H  7989  7998       L1    11  1.00
      P1  H 10752 10764       L1    17  1.00

> <Gold.PLP.Chemscore.Internal.Correction>
0.0475

> <Gold.Rescore>
     Score         DG    S(hbond)    S(metal)    S(lipo)     H(rot)  DE(clash)    DE(int)     intcor
     15.46     -16.19       2.41        0.00      81.76       2.69       0.00       0.72       ----

> <Gold.Chemscore.Fitness>
15.4646

> <Gold.Chemscore.DG>
-16.1925

> <Gold.Chemscore.ZeroCoef>
-5.4800

> <Gold.Chemscore.Hbond>
2.4077

> <Gold.Chemscore.Metal>
0.0000

> <Gold.Chemscore.Lipo>
81.7556

> <Gold.Chemscore.Internal_Hbond>
0.0000

> <Gold.Chemscore.DEClash>
0.0033

> <Gold.Chemscore.DEInternal>
0.7246

> <Gold.Chemscore.Rot>
2.6932

> <Gold.Chemscore.Internal.Correction>
   9.000000E+99

> <Gold.Chemscore.Hbonds>
donor molecule, donor type, donor heavy atom, donor atom, acceptor molecule, acceptor atom, score
      P1  H  6896  6907       L1    15  0.21
      P1  H  7989  7998       L1    11  0.84
      P1  H 10752 10764       L1    17  0.88

> <Gold.Chemscore.Hbond.Weighted>
-8.0416

> <Gold.Chemscore.Metal.Weighted>
-0.0000

> <Gold.Chemscore.Lipo.Weighted>
-9.5654

> <Gold.Chemscore.Internal_Hbond.Weighted>
0.0000

> <Gold.Chemscore.DEClash.Weighted>
0.0033

> <Gold.Chemscore.DEInternal.Weighted>
0.7246

> <Gold.Chemscore.Rot.Weighted>
6.8945

> <Gold.Chemscore.Internal.Correction.Weighted>
   9.000000E+99

> <Gold.Protein.RotatedTorsions>
[ 6907 6896 6895 6894 ] final  -15.39 input  -60.11 | X-H torsion
[ 7974 7965 7964 7962 ] final  125.63 input  175.53 | X-H torsion
[ 8008 7997 7996 7995 ] final   66.02 input   59.86 | X-H torsion
[ 10167 10162 10161 10158 ] final -133.52 input  -65.29 | X-H torsion
[ 10718 10713 10712 10709 ] final   15.74 input   66.30 | X-H torsion
[ 10763 10752 10751 10750 ] final  -14.16 input  -60.55 | X-H torsion
[ 11005 11000 10999 10996 ] final  -25.64 input  -57.11 | X-H torsion

> <Gold.Protein.ActiveResidues>
 VAL166  LYS551  ARG553  GLY616  TRP617  ASP618  TYR619  PRO620  LYS621  CYS622 
 ASP623  PHE694  ASN695  SER759  ASP760  ASP761  ALA762  ILE779  LEU786  VAL792 
 PHE793  MET794  SER795  GLU796  ALA797  LYS798  CYS799  TRP800  GLU811  SER814 

> <Gold.Protein.RotatedAtoms>
  151.3247  135.0827  159.9317 H   0  0  0  0  0  0  0  0  0  0  0  0  # atno 6907 bound_to 6896
  152.5249  133.9604  159.7724 H   0  0  0  0  0  0  0  0  0  0  0  0  # atno 6908 bound_to 6896
  150.9931  133.6077  159.2735 H   0  0  0  0  0  0  0  0  0  0  0  0  # atno 6909 bound_to 6896
  145.0708  139.3732  143.4958 H   0  0  0  0  0  0  0  0  0  0  0  0  # atno 7974 bound_to 7965
  155.6708  140.3497  155.4818 H   0  0  0  0  0  0  0  0  0  0  0  0  # atno 8008 bound_to 7997
  155.9689  140.1152  157.0852 H   0  0  0  0  0  0  0  0  0  0  0  0  # atno 8009 bound_to 7997
  154.4161  140.1161  156.5266 H   0  0  0  0  0  0  0  0  0  0  0  0  # atno 8010 bound_to 7997
  139.8974  143.6649  152.2601 H   0  0  0  0  0  0  0  0  0  0  0  0  # atno 10167 bound_to 10162
  157.0579  130.6296  149.5780 H   0  0  0  0  0  0  0  0  0  0  0  0  # atno 10718 bound_to 10713
  153.5241  135.7015  153.5716 H   0  0  0  0  0  0  0  0  0  0  0  0  # atno 10763 bound_to 10752
  153.3752  135.3934  155.1817 H   0  0  0  0  0  0  0  0  0  0  0  0  # atno 10764 bound_to 10752
  154.8691  135.3822  154.4732 H   0  0  0  0  0  0  0  0  0  0  0  0  # atno 10765 bound_to 10752
  140.8956  133.7558  156.0477 H   0  0  0  0  0  0  0  0  0  0  0  0  # atno 11005 bound_to 11000
  146.3528  140.0451  142.8640 LP  0  0  0  0  0  0  0  0  0  0  0  0  # atno 17320 bound_to 7965
  145.1295  140.9509  143.4553 LP  0  0  0  0  0  0  0  0  0  0  0  0  # atno 17321 bound_to 7965
  139.7056  144.7628  151.1199 LP  0  0  0  0  0  0  0  0  0  0  0  0  # atno 17342 bound_to 10162
  140.7714  143.5399  150.9324 LP  0  0  0  0  0  0  0  0  0  0  0  0  # atno 17343 bound_to 10162
  155.9987  130.5062  150.7582 LP  0  0  0  0  0  0  0  0  0  0  0  0  # atno 17370 bound_to 10713
  157.4978  131.0916  151.0350 LP  0  0  0  0  0  0  0  0  0  0  0  0  # atno 17371 bound_to 10713
  140.8293  134.3197  157.5354 LP  0  0  0  0  0  0  0  0  0  0  0  0  # atno 17394 bound_to 11000
  139.8735  134.9354  156.3633 LP  0  0  0  0  0  0  0  0  0  0  0  0  # atno 17395 bound_to 11000

$$$$
