AV-unprocessed.smi:287|AV-procd|sdf|2191|dock8
  -GOLD-   2262021583D 1   1.00000     0.00000
 Structure written by MMmdl.
 55 58  0  0  0  0  0  0  0  0  1 V2000
  150.9916  143.2981  158.5047 C   0  0  0  0  0  0  0  0  0  0  0  0
  150.7210  142.3939  157.3513 C   0  0  0  0  0  0  0  0  0  0  0  0
  149.6257  142.1581  156.5725 C   0  0  0  0  0  0  0  0  0  0  0  0
  149.9871  141.1595  155.6190 C   0  0  0  0  0  0  0  0  0  0  0  0
  149.0898  140.5826  154.5324 C   0  0  1  0  0  0  0  0  0  0  0  0
  147.6974  141.2290  154.6147 C   0  0  0  0  0  0  0  0  0  0  0  0
  149.5608  140.8648  153.2285 O   0  0  0  0  0  0  0  0  0  0  0  0
  148.9659  139.0438  154.6123 C   0  0  0  0  0  0  0  0  0  0  0  0
  147.8179  138.5269  153.8742 N   0  0  0  0  0  0  0  0  0  0  0  0
  147.5280  137.2096  153.9067 C   0  0  0  0  0  0  0  0  0  0  0  0
  148.1150  136.3855  154.8135 N   0  0  0  0  0  0  0  0  0  0  0  0
  147.8096  135.0847  154.8277 C   0  0  0  0  0  0  0  0  0  0  0  0
  146.9627  134.4185  154.0405 N   0  0  0  0  0  0  0  0  0  0  0  0
  146.3707  135.2423  153.1270 C   0  0  0  0  0  0  0  0  0  0  0  0
  146.5994  136.6403  152.9979 C   0  0  0  0  0  0  0  0  0  0  0  0
  145.8232  137.1522  151.9663 N   0  0  0  0  0  0  0  0  0  0  0  0
  145.1715  136.1135  151.5168 C   0  0  0  0  0  0  0  0  0  0  0  0
  145.4379  134.9249  152.1591 N   0  0  0  0  0  0  0  0  0  0  0  0
  144.8412  133.5831  151.8724 C   0  0  1  0  0  0  0  0  0  0  0  0
  143.9422  133.6919  150.8185 O   0  0  0  0  0  0  0  0  0  0  0  0
  143.8585  132.4415  150.1427 C   0  0  1  0  0  0  0  0  0  0  0  0
  143.7622  132.6919  148.6261 C   0  0  0  0  0  0  0  0  0  0  0  0
  142.4503  132.4986  148.1385 O   0  0  0  0  0  0  0  0  0  0  0  0
  145.0527  131.5823  150.6116 C   0  0  2  0  0  0  0  0  0  0  0  0
  144.5765  130.5122  151.4063 O   0  0  0  0  0  0  0  0  0  0  0  0
  145.8835  132.5315  151.4674 C   0  0  1  0  0  0  0  0  0  0  0  0
  146.9682  133.0657  150.7308 O   0  0  0  0  0  0  0  0  0  0  0  0
  151.3037  140.8765  155.8918 C   0  0  0  0  0  0  0  0  0  0  0  0
  152.3118  139.9577  155.2848 C   0  0  0  0  0  0  0  0  0  0  0  0
  151.7542  141.6154  156.9438 O   0  0  0  0  0  0  0  0  0  0  0  0
  144.3006  133.3097  152.7800 H   0  0  0  0  0  0  0  0  0  0  0  0
  142.9209  131.9842  150.4634 H   0  0  0  0  0  0  0  0  0  0  0  0
  145.6262  131.1564  149.7871 H   0  0  0  0  0  0  0  0  0  0  0  0
  146.2893  132.0561  152.3615 H   0  0  0  0  0  0  0  0  0  0  0  0
  150.0964  143.8556  158.7810 H   0  0  0  0  0  0  0  0  0  0  0  0
  151.7741  144.0158  158.2581 H   0  0  0  0  0  0  0  0  0  0  0  0
  151.3161  142.7276  159.3753 H   0  0  0  0  0  0  0  0  0  0  0  0
  148.6672  142.6447  156.6776 H   0  0  0  0  0  0  0  0  0  0  0  0
  147.2301  141.0362  155.5811 H   0  0  0  0  0  0  0  0  0  0  0  0
  147.0294  140.8408  153.8448 H   0  0  0  0  0  0  0  0  0  0  0  0
  147.7544  142.3111  154.4888 H   0  0  0  0  0  0  0  0  0  0  0  0
  149.3197  140.1482  152.6618 H   0  0  0  0  0  0  0  0  0  0  0  0
  149.8595  138.5973  154.1734 H   0  0  0  0  0  0  0  0  0  0  0  0
  148.9294  138.7114  155.6510 H   0  0  0  0  0  0  0  0  0  0  0  0
  147.2752  139.2076  153.3619 H   0  0  0  0  0  0  0  0  0  0  0  0
  148.3142  134.4933  155.5771 H   0  0  0  0  0  0  0  0  0  0  0  0
  144.4686  136.1877  150.6997 H   0  0  0  0  0  0  0  0  0  0  0  0
  144.0504  133.7197  148.4048 H   0  0  0  0  0  0  0  0  0  0  0  0
  144.4517  132.0433  148.0852 H   0  0  0  0  0  0  0  0  0  0  0  0
  142.4525  132.6362  147.2038 H   0  0  0  0  0  0  0  0  0  0  0  0
  143.7243  130.7429  151.7430 H   0  0  0  0  0  0  0  0  0  0  0  0
  147.5589  132.3607  150.5140 H   0  0  0  0  0  0  0  0  0  0  0  0
  152.3695  140.1067  154.2066 H   0  0  0  0  0  0  0  0  0  0  0  0
  152.0448  138.9171  155.4698 H   0  0  0  0  0  0  0  0  0  0  0  0
  153.3049  140.1297  155.7007 H   0  0  0  0  0  0  0  0  0  0  0  0
  1  2  1  0  0  0  0
  1 35  1  0  0  0  0
  1 36  1  0  0  0  0
  1 37  1  0  0  0  0
  2 30  1  0  0  0  0
  2  3  2  0  0  0  0
  3  4  1  0  0  0  0
  3 38  1  0  0  0  0
  4  5  1  0  0  0  0
  4 28  2  0  0  0  0
  5  6  1  0  0  0  0
  5  7  1  0  0  0  0
  5  8  1  0  0  0  0
  6 39  1  0  0  0  0
  6 40  1  0  0  0  0
  6 41  1  0  0  0  0
  7 42  1  0  0  0  0
  8  9  1  0  0  0  0
  8 43  1  0  0  0  0
  8 44  1  0  0  0  0
  9 10  1  0  0  0  0
  9 45  1  0  0  0  0
 10 15  1  0  0  0  0
 10 11  2  0  0  0  0
 11 12  1  0  0  0  0
 12 13  2  0  0  0  0
 12 46  1  0  0  0  0
 13 14  1  0  0  0  0
 14 18  1  0  0  0  0
 14 15  2  0  0  0  0
 15 16  1  0  0  0  0
 16 17  2  0  0  0  0
 17 18  1  0  0  0  0
 17 47  1  0  0  0  0
 18 19  1  0  0  0  0
 19 31  1  0  0  0  0
 19 26  1  0  0  0  0
 19 20  1  0  0  0  0
 20 21  1  0  0  0  0
 21 32  1  0  0  0  0
 21 22  1  0  0  0  0
 21 24  1  0  0  0  0
 22 23  1  0  0  0  0
 22 48  1  0  0  0  0
 22 49  1  0  0  0  0
 23 50  1  0  0  0  0
 24 33  1  0  0  0  0
 24 25  1  0  0  0  0
 24 26  1  0  0  0  0
 25 51  1  0  0  0  0
 26 34  1  0  0  0  0
 26 27  1  0  0  0  0
 27 52  1  0  0  0  0
 28 29  1  0  0  0  0
 28 30  1  0  0  0  0
 29 53  1  0  0  0  0
 29 54  1  0  0  0  0
 29 55  1  0  0  0  0
M  END
> <s_m_source_file>
AV-unprocessed.smi

> <i_m_source_file_index>
287

> <i_lp_mmshare_version>
43012

> <i_f3d_flags>
0

> <s_epik_input>
W0NIM11jMVtjSF1jKGMobzEpW0NIM10pW0NAQF0oW0NIM10pKFtPSF0pW0NIMl1bTkhdYyhuW2NIXW4yKWMoYzIzKW5bY0hdbjNbQ0BASF00T1tDQEhdKFtDSDJdW09IXSlbQ0BASF0oW09IXSlbQ0BIXTRbT0hd

> <s_epik_cmdline>
J2VwaWtfcHl0aG9uJywgJy1waCcsICc3LjAnLCAnLXRuJywgJzgnLCAnLW1hJywgJzIwMCcsICctbWV0YWxfYmluZGluZycsICctaW1hZScsICc8aW5maWxlLm1hZT4nLCAnLW9tYWUnLCAnPG91dGZpbGUubWFlPic=

> <r_lp_tautomer_probability>
1

> <r_epik_Ionization_Penalty>
0.000992612

> <r_epik_Ionization_Penalty_Charging>
0

> <r_epik_Ionization_Penalty_Neutral>
0.000992612

> <r_epik_State_Penalty>
-0

> <r_epik_Charging_Adjusted_Penalty>
0

> <i_epik_Tot_Q>
0

> <i_epik_Tot_abs_Q>
0

> <r_epik_Metal_State_Penalty>
-0

> <b_epik_Metal_Only>
0

> <s_epik_Chemistry_Notes>
This compound contains an acetal/aminal-like group ( X-CH(R)-Y where X, Y are N, S, or O) that may be acid/base labile, releasing an aldehyde.

> <s_lp_Force_Field>
OPLS_2005

> <r_lp_Energy>
44.0492

> <b_lp_Chiralities_Consistent>
1

> <s_lp_Variant>
AV-unprocessed.smi:287-15

> <Gold.Version>
5.8.1

> <Gold.Id.Protein>
6NUR|6NUR_protein|mol2

> <Gold.PLP.Fitness>
51.7239

> <Gold.PLP.PLP>
-40.3518

> <Gold.PLP.part.hbond>
-6.2393

> <Gold.PLP.part.metal>
0.0000

> <Gold.PLP.part.buried>
2.5999

> <Gold.PLP.part.nonpolar>
-36.4333

> <Gold.PLP.part.repulsive>
0.6274

> <Gold.PLP.ligand.clash>
0.0000

> <Gold.PLP.ligand.torsion>
0.9283

> <Gold.PLP.Chemscore.Hbond>
3.8140

> <Gold.PLP.Chemscore.CHOScore>
0.5688

> <Gold.PLP.Chemscore.Metal>
0.0000

> <Gold.Chemscore.Hbonds>
donor molecule, donor type, donor heavy atom, donor atom, acceptor molecule, acceptor atom, score
      L1  H     7    42       P1  7957  0.53
      L1  H    23    50       P1 10195  1.00
      L1  H    27    52       P1 10747  0.89
      P1  H  7989  7998       L1     7  0.20
      P1  H  8011  8017       L1     7  1.00
      L1  C    17    47       P1 10171  0.61

> <Gold.PLP.Chemscore.Internal.Correction>
0.0802

> <Gold.Rescore>
     Score         DG    S(hbond)    S(metal)    S(lipo)     H(rot)  DE(clash)    DE(int)     intcor
      9.66     -15.08       3.23        0.00     105.05       5.27       4.71       0.71       ----

> <Gold.Chemscore.Fitness>
9.6605

> <Gold.Chemscore.DG>
-15.0811

> <Gold.Chemscore.ZeroCoef>
-5.4800

> <Gold.Chemscore.Hbond>
3.2316

> <Gold.Chemscore.Metal>
0.0000

> <Gold.Chemscore.Lipo>
105.0542

> <Gold.Chemscore.Internal_Hbond>
0.0000

> <Gold.Chemscore.DEClash>
4.7115

> <Gold.Chemscore.DEInternal>
0.7090

> <Gold.Chemscore.Rot>
5.2672

> <Gold.Chemscore.Internal.Correction>
   9.000000E+99

> <Gold.Chemscore.Hbonds>
donor molecule, donor type, donor heavy atom, donor atom, acceptor molecule, acceptor atom, score
      L1  H     7    42       P1  7957  0.49
      L1  H    23    50       P1 10195  0.99
      L1  H    27    52       P1 10747  0.87
      P1  H  7989  7998       L1     7  0.06
      P1  H  8011  8017       L1     7  0.82

> <Gold.Chemscore.Hbond.Weighted>
-10.7937

> <Gold.Chemscore.Metal.Weighted>
-0.0000

> <Gold.Chemscore.Lipo.Weighted>
-12.2913

> <Gold.Chemscore.Internal_Hbond.Weighted>
0.0000

> <Gold.Chemscore.DEClash.Weighted>
4.7115

> <Gold.Chemscore.DEInternal.Weighted>
0.7090

> <Gold.Chemscore.Rot.Weighted>
13.4839

> <Gold.Chemscore.Internal.Correction.Weighted>
   9.000000E+99

> <Gold.Protein.RotatedTorsions>
[ 6907 6896 6895 6894 ] final  125.19 input  -60.11 | X-H torsion
[ 7974 7965 7964 7962 ] final   52.62 input  175.53 | X-H torsion
[ 8008 7997 7996 7995 ] final -120.94 input   59.86 | X-H torsion
[ 10167 10162 10161 10158 ] final  -12.12 input  -65.29 | X-H torsion
[ 10718 10713 10712 10709 ] final  147.23 input   66.30 | X-H torsion
[ 10763 10752 10751 10750 ] final -135.57 input  -60.55 | X-H torsion
[ 11005 11000 10999 10996 ] final -111.79 input  -57.11 | X-H torsion

> <Gold.Protein.ActiveResidues>
 VAL166  LYS551  ARG553  GLY616  TRP617  ASP618  TYR619  PRO620  LYS621  CYS622 
 ASP623  PHE694  ASN695  SER759  ASP760  ASP761  ALA762  ILE779  LEU786  VAL792 
 PHE793  MET794  SER795  GLU796  ALA797  LYS798  CYS799  TRP800  GLU811  SER814 

> <Gold.Protein.RotatedAtoms>
  152.4013  133.6823  159.6318 H   0  0  0  0  0  0  0  0  0  0  0  0  # atno 6907 bound_to 6896
  150.7904  133.8785  159.3288 H   0  0  0  0  0  0  0  0  0  0  0  0  # atno 6908 bound_to 6896
  151.6550  135.0998  160.0219 H   0  0  0  0  0  0  0  0  0  0  0  0  # atno 6909 bound_to 6896
  145.9795  139.4228  143.0141 H   0  0  0  0  0  0  0  0  0  0  0  0  # atno 7974 bound_to 7965
  155.1399  140.0401  157.2796 H   0  0  0  0  0  0  0  0  0  0  0  0  # atno 8008 bound_to 7997
  154.6480  140.2562  155.7219 H   0  0  0  0  0  0  0  0  0  0  0  0  # atno 8009 bound_to 7997
  156.2564  140.2842  156.0902 H   0  0  0  0  0  0  0  0  0  0  0  0  # atno 8010 bound_to 7997
  140.7154  143.5566  150.9241 H   0  0  0  0  0  0  0  0  0  0  0  0  # atno 10167 bound_to 10162
  157.3235  131.0908  151.1221 H   0  0  0  0  0  0  0  0  0  0  0  0  # atno 10718 bound_to 10713
  154.8700  135.3699  154.4919 H   0  0  0  0  0  0  0  0  0  0  0  0  # atno 10763 bound_to 10752
  153.5566  135.7024  153.5571 H   0  0  0  0  0  0  0  0  0  0  0  0  # atno 10764 bound_to 10752
  153.3666  135.4032  155.1722 H   0  0  0  0  0  0  0  0  0  0  0  0  # atno 10765 bound_to 10752
  141.0713  133.9374  157.2478 H   0  0  0  0  0  0  0  0  0  0  0  0  # atno 11005 bound_to 11000
  145.7790  140.9864  143.1109 LP  0  0  0  0  0  0  0  0  0  0  0  0  # atno 17320 bound_to 7965
  144.6857  139.9541  143.7478 LP  0  0  0  0  0  0  0  0  0  0  0  0  # atno 17321 bound_to 7965
  139.9291  143.6514  152.3080 LP  0  0  0  0  0  0  0  0  0  0  0  0  # atno 17342 bound_to 10162
  139.6958  144.7641  151.1358 LP  0  0  0  0  0  0  0  0  0  0  0  0  # atno 17343 bound_to 10162
  157.2496  130.6608  149.5926 LP  0  0  0  0  0  0  0  0  0  0  0  0  # atno 17370 bound_to 10713
  155.9688  130.4542  150.5842 LP  0  0  0  0  0  0  0  0  0  0  0  0  # atno 17371 bound_to 10713
  139.9526  135.0172  156.9039 LP  0  0  0  0  0  0  0  0  0  0  0  0  # atno 17394 bound_to 11000
  140.5667  134.0483  155.7416 LP  0  0  0  0  0  0  0  0  0  0  0  0  # atno 17395 bound_to 11000

$$$$
