AV-unprocessed.smi:1758|AV-procd|sdf|7081|dock10
  -GOLD-   22720 8303D 1   1.00000     0.00000
 Structure written by MMmdl.
 44 46  0  0  0  0  0  0  0  0  2 V2000
  150.3871  124.3786  148.6617 C   0  0  0  0  0  0  0  0  0  0  0  0
  149.9795  124.0670  150.1064 C   0  0  0  0  0  0  0  0  0  0  0  0
  149.2812  125.1797  150.7195 N   0  0  0  0  0  0  0  0  0  0  0  0
  148.9747  126.4057  150.1630 C   0  0  0  0  0  0  0  0  0  0  0  0
  148.3164  127.0997  151.1388 C   0  0  0  0  0  0  0  0  0  0  0  0
  147.7849  128.4138  151.1063 N   0  0  0  0  0  0  0  0  0  0  0  0
  146.6962  128.8690  151.7476 C   0  0  0  0  0  0  0  0  0  0  0  0
  145.9939  128.2037  152.5086 O   0  0  0  0  0  0  0  0  0  0  0  0
  146.4656  130.1573  151.4576 N   0  0  0  0  0  0  0  0  0  0  0  0
  145.3667  130.9619  151.9847 C   0  0  2  0  0  0  0  0  0  0  0  0
  144.6336  131.7749  150.9029 C   0  0  0  0  0  0  0  0  0  0  0  0
  144.3036  133.1284  151.5646 C   0  0  0  0  0  0  0  0  0  0  0  0
  144.7518  132.9985  152.9646 N   0  3  2  0  0  0  0  0  0  0  0  0
  145.0793  134.2459  153.6889 C   0  0  0  0  0  0  0  0  0  0  0  0
  145.4486  133.9057  155.1474 C   0  0  0  0  0  0  0  0  0  0  0  0
  146.5547  132.8328  155.2262 C   0  0  0  0  0  0  0  0  0  0  0  0
  146.1945  131.5978  154.3776 C   0  0  0  0  0  0  0  0  0  0  0  0
  145.8677  132.0413  152.9427 C   0  0  1  0  0  0  0  0  0  0  0  0
  148.2589  126.2313  152.2597 C   0  0  0  0  0  0  0  0  0  0  0  0
  148.8438  125.0722  151.9986 N   0  0  0  0  0  0  0  0  0  0  0  0
  150.9253  123.5390  148.2217 H   0  0  0  0  0  0  0  0  0  0  0  0
  151.0378  125.2523  148.6167 H   0  0  0  0  0  0  0  0  0  0  0  0
  149.5140  124.5768  148.0390 H   0  0  0  0  0  0  0  0  0  0  0  0
  149.3362  123.1865  150.1389 H   0  0  0  0  0  0  0  0  0  0  0  0
  150.8618  123.8366  150.7049 H   0  0  0  0  0  0  0  0  0  0  0  0
  149.2493  126.6604  149.1500 H   0  0  0  0  0  0  0  0  0  0  0  0
  148.2812  129.0724  150.5243 H   0  0  0  0  0  0  0  0  0  0  0  0
  147.0999  130.6167  150.8204 H   0  0  0  0  0  0  0  0  0  0  0  0
  144.6328  130.3446  152.5070 H   0  0  0  0  0  0  0  0  0  0  0  0
  145.2648  131.9362  150.0278 H   0  0  0  0  0  0  0  0  0  0  0  0
  143.7348  131.2569  150.5665 H   0  0  0  0  0  0  0  0  0  0  0  0
  144.8515  133.9304  151.0674 H   0  0  0  0  0  0  0  0  0  0  0  0
  143.2405  133.3659  151.5200 H   0  0  0  0  0  0  0  0  0  0  0  0
  145.9063  134.7577  153.1944 H   0  0  0  0  0  0  0  0  0  0  0  0
  144.2216  134.9190  153.6651 H   0  0  0  0  0  0  0  0  0  0  0  0
  145.7650  134.8075  155.6727 H   0  0  0  0  0  0  0  0  0  0  0  0
  144.5609  133.5434  155.6678 H   0  0  0  0  0  0  0  0  0  0  0  0
  147.4951  133.2556  154.8706 H   0  0  0  0  0  0  0  0  0  0  0  0
  146.7204  132.5403  156.2634 H   0  0  0  0  0  0  0  0  0  0  0  0
  147.0220  130.8878  154.3759 H   0  0  0  0  0  0  0  0  0  0  0  0
  145.3390  131.0823  154.8164 H   0  0  0  0  0  0  0  0  0  0  0  0
  146.7398  132.5339  152.5056 H   0  0  0  0  0  0  0  0  0  0  0  0
  147.8228  126.3985  153.2336 H   0  0  0  0  0  0  0  0  0  0  0  0
  143.9999  132.5474  153.4661 H   0  0  0  0  0  0  0  0  0  0  0  0
  1  2  1  0  0  0  0
  1 21  1  0  0  0  0
  1 22  1  0  0  0  0
  1 23  1  0  0  0  0
  2  3  1  0  0  0  0
  2 24  1  0  0  0  0
  2 25  1  0  0  0  0
  3 20  1  0  0  0  0
  3  4  1  0  0  0  0
  4  5  2  0  0  0  0
  4 26  1  0  0  0  0
  5  6  1  0  0  0  0
  5 19  1  0  0  0  0
  6  7  1  0  0  0  0
  6 27  1  0  0  0  0
  7  8  2  0  0  0  0
  7  9  1  0  0  0  0
  9 10  1  0  0  0  0
  9 28  1  0  0  0  0
 10 18  1  0  0  0  0
 10 11  1  0  0  0  0
 10 29  1  0  0  0  0
 11 12  1  0  0  0  0
 11 30  1  0  0  0  0
 11 31  1  0  0  0  0
 12 13  1  0  0  0  0
 12 32  1  0  0  0  0
 12 33  1  0  0  0  0
 13 18  1  0  0  0  0
 13 14  1  0  0  0  0
 13 44  1  0  0  0  0
 14 15  1  0  0  0  0
 14 34  1  0  0  0  0
 14 35  1  0  0  0  0
 15 16  1  0  0  0  0
 15 36  1  0  0  0  0
 15 37  1  0  0  0  0
 16 17  1  0  0  0  0
 16 38  1  0  0  0  0
 16 39  1  0  0  0  0
 17 18  1  0  0  0  0
 17 40  1  0  0  0  0
 17 41  1  0  0  0  0
 18 42  1  0  0  0  0
 19 20  2  0  0  0  0
 19 43  1  0  0  0  0
M  CHG  1  13   1
M  END
> <s_m_source_file>
AV-unprocessed.smi

> <i_m_source_file_index>
1758

> <i_lp_mmshare_version>
43012

> <i_f3d_flags>
0

> <s_epik_input>
W0NIM11bQ0gyXW4xW2NIXWMoW2NIXW4xKVtOSF1DKD1PKVtOSF1bQ0BIXShbQ0gyXVtDSDJdMilbQ0BASF0oTjIzKVtDSDJdW0NIMl1bQ0gyXVtDSDJdMw==

> <s_epik_cmdline>
J2VwaWtfcHl0aG9uJywgJy1waCcsICc3LjAnLCAnLXRuJywgJzgnLCAnLW1hJywgJzIwMCcsICctbWV0YWxfYmluZGluZycsICctaW1hZScsICc8aW5maWxlLm1hZT4nLCAnLW9tYWUnLCAnPG91dGZpbGUubWFlPic=

> <r_lp_tautomer_probability>
1

> <r_epik_Ionization_Penalty>
0.00111541

> <r_epik_Ionization_Penalty_Charging>
0.000974069

> <r_epik_Ionization_Penalty_Neutral>
0.000141346

> <r_epik_State_Penalty>
0.000633842

> <r_epik_Charging_Adjusted_Penalty>
0.00160791

> <i_epik_Tot_Q>
1

> <i_epik_Tot_abs_Q>
1

> <r_epik_Metal_State_Penalty>
-0

> <b_epik_Metal_Only>
0

> <s_lp_Force_Field>
OPLS_2005

> <r_lp_Energy>
39.1276

> <b_lp_Chiralities_Consistent>
1

> <s_lp_Variant>
AV-unprocessed.smi:1758-3

> <Gold.Version>
5.8.1

> <Gold.Id.Protein>
6NUR|6NUR_protein|mol2

> <Gold.PLP.Fitness>
44.1472

> <Gold.PLP.PLP>
-32.9989

> <Gold.PLP.part.hbond>
-3.0000

> <Gold.PLP.part.metal>
0.0000

> <Gold.PLP.part.buried>
-6.4144

> <Gold.PLP.part.nonpolar>
-24.4230

> <Gold.PLP.part.repulsive>
0.3221

> <Gold.PLP.ligand.clash>
0.0000

> <Gold.PLP.ligand.torsion>
0.3309

> <Gold.PLP.Chemscore.Hbond>
3.5568

> <Gold.PLP.Chemscore.CHOScore>
0.3762

> <Gold.PLP.Chemscore.Metal>
0.0000

> <Gold.Chemscore.Hbonds>
donor molecule, donor type, donor heavy atom, donor atom, acceptor molecule, acceptor atom, score
      L1  H     6    27       P1 10747  0.65
      L1  H     9    28       P1 10747  0.91
      L1  H    13    44       P1 10957  2.00
      L1  C     4    26       P1 10769  0.36

> <Gold.PLP.Chemscore.Internal.Correction>
0.0110

> <Gold.Rescore>
     Score         DG    S(hbond)    S(metal)    S(lipo)     H(rot)  DE(clash)    DE(int)     intcor
     14.99     -16.13       1.81        0.00      65.31       1.19       0.07       1.07       ----

> <Gold.Chemscore.Fitness>
14.9942

> <Gold.Chemscore.DG>
-16.1305

> <Gold.Chemscore.ZeroCoef>
-5.4800

> <Gold.Chemscore.Hbond>
1.8119

> <Gold.Chemscore.Metal>
0.0000

> <Gold.Chemscore.Lipo>
65.3081

> <Gold.Chemscore.Internal_Hbond>
0.0000

> <Gold.Chemscore.DEClash>
0.0662

> <Gold.Chemscore.DEInternal>
1.0701

> <Gold.Chemscore.Rot>
1.1884

> <Gold.Chemscore.Internal.Correction>
   9.000000E+99

> <Gold.Chemscore.Hbonds>
donor molecule, donor type, donor heavy atom, donor atom, acceptor molecule, acceptor atom, score
      L1  H     6    27       P1 10747  0.05
      L1  H     9    28       P1 10747  0.88
      L1  H    13    44       P1 10957  0.28

> <Gold.Chemscore.Hbond.Weighted>
-6.0518

> <Gold.Chemscore.Metal.Weighted>
-0.0000

> <Gold.Chemscore.Lipo.Weighted>
-7.6410

> <Gold.Chemscore.Internal_Hbond.Weighted>
0.0000

> <Gold.Chemscore.DEClash.Weighted>
0.0662

> <Gold.Chemscore.DEInternal.Weighted>
1.0701

> <Gold.Chemscore.Rot.Weighted>
3.0423

> <Gold.Chemscore.Internal.Correction.Weighted>
   9.000000E+99

> <Gold.Protein.RotatedTorsions>
[ 6907 6896 6895 6894 ] final  -52.83 input  -60.11 | X-H torsion
[ 7974 7965 7964 7962 ] final -117.52 input  175.53 | X-H torsion
[ 8008 7997 7996 7995 ] final  -86.26 input   59.86 | X-H torsion
[ 10167 10162 10161 10158 ] final  -18.10 input  -65.29 | X-H torsion
[ 10718 10713 10712 10709 ] final   70.89 input   66.30 | X-H torsion
[ 10763 10752 10751 10750 ] final   68.58 input  -60.55 | X-H torsion
[ 11005 11000 10999 10996 ] final  -69.26 input  -57.11 | X-H torsion

> <Gold.Protein.ActiveResidues>
 VAL166  LYS551  ARG553  GLY616  TRP617  ASP618  TYR619  PRO620  LYS621  CYS622 
 ASP623  PHE694  ASN695  SER759  ASP760  ASP761  ALA762  ILE779  LEU786  VAL792 
 PHE793  MET794  SER795  GLU796  ALA797  LYS798  CYS799  TRP800  GLU811  SER814 

> <Gold.Protein.RotatedAtoms>
  150.8482  134.7798  159.6987 H   0  0  0  0  0  0  0  0  0  0  0  0  # atno 6907 bound_to 6896
  152.4553  134.5301  159.9818 H   0  0  0  0  0  0  0  0  0  0  0  0  # atno 6908 bound_to 6896
  151.5427  133.3392  159.2974 H   0  0  0  0  0  0  0  0  0  0  0  0  # atno 6909 bound_to 6896
  145.0843  140.8447  143.4020 H   0  0  0  0  0  0  0  0  0  0  0  0  # atno 7974 bound_to 7965
  154.6499  140.0581  156.9943 H   0  0  0  0  0  0  0  0  0  0  0  0  # atno 8008 bound_to 7997
  155.1388  140.3263  155.4438 H   0  0  0  0  0  0  0  0  0  0  0  0  # atno 8009 bound_to 7997
  156.2571  140.1968  156.6504 H   0  0  0  0  0  0  0  0  0  0  0  0  # atno 8010 bound_to 7997
  140.7255  143.4949  150.9943 H   0  0  0  0  0  0  0  0  0  0  0  0  # atno 10167 bound_to 10162
  157.6423  130.9500  150.0713 H   0  0  0  0  0  0  0  0  0  0  0  0  # atno 10718 bound_to 10713
  153.0242  135.5242  154.7156 H   0  0  0  0  0  0  0  0  0  0  0  0  # atno 10763 bound_to 10752
  154.6226  135.2891  155.0311 H   0  0  0  0  0  0  0  0  0  0  0  0  # atno 10764 bound_to 10752
  154.1292  135.6595  153.4971 H   0  0  0  0  0  0  0  0  0  0  0  0  # atno 10765 bound_to 10752
  141.1550  133.6760  156.6573 H   0  0  0  0  0  0  0  0  0  0  0  0  # atno 11005 bound_to 11000
  145.1141  139.2737  143.5622 LP  0  0  0  0  0  0  0  0  0  0  0  0  # atno 17320 bound_to 7965
  146.3531  140.0745  142.8621 LP  0  0  0  0  0  0  0  0  0  0  0  0  # atno 17321 bound_to 7965
  139.8656  143.7258  152.3170 LP  0  0  0  0  0  0  0  0  0  0  0  0  # atno 17342 bound_to 10162
  139.7489  144.7539  151.0537 LP  0  0  0  0  0  0  0  0  0  0  0  0  # atno 17343 bound_to 10162
  156.1716  130.3646  149.9157 LP  0  0  0  0  0  0  0  0  0  0  0  0  # atno 17370 bound_to 10713
  156.7131  130.8978  151.3611 LP  0  0  0  0  0  0  0  0  0  0  0  0  # atno 17371 bound_to 10713
  140.3274  134.7957  157.4300 LP  0  0  0  0  0  0  0  0  0  0  0  0  # atno 17394 bound_to 11000
  140.1045  134.5428  155.8322 LP  0  0  0  0  0  0  0  0  0  0  0  0  # atno 17395 bound_to 11000

$$$$
