AV-unprocessed.smi:2678|AV-procd|sdf|10367|dock8
  -GOLD-   2272014393D 1   1.00000     0.00000
 Structure written by MMmdl.
 46 47  0  0  0  0  0  0  0  0  1 V2000
  151.4839  140.4423  158.7018 C   0  0  0  0  0  0  0  0  0  0  0  0
  151.3550  141.2818  157.4206 C   0  0  0  0  0  0  0  0  0  0  0  0
  151.3576  142.7852  157.7269 C   0  0  0  0  0  0  0  0  0  0  0  0
  150.1313  140.9362  156.7033 N   0  0  0  0  0  0  0  0  0  0  0  0
  150.0699  140.4520  155.4526 C   0  0  0  0  0  0  0  0  0  0  0  0
  151.0658  140.2397  154.7598 O   0  0  0  0  0  0  0  0  0  0  0  0
  148.6676  140.1602  154.9022 C   0  0  1  0  0  0  0  0  0  0  0  0
  148.2665  141.1905  153.8256 C   0  0  0  0  0  0  0  0  0  0  0  0
  146.8687  140.8914  153.2607 C   0  0  0  0  0  0  0  0  0  0  0  0
  146.7834  139.4590  152.7103 C   0  0  0  0  0  0  0  0  0  0  0  0
  147.1782  138.4231  153.7788 C   0  0  1  0  0  0  0  0  0  0  0  0
  147.1227  137.0789  153.1999 N   0  0  0  0  0  0  0  0  0  0  0  0
  146.0394  136.3645  152.8428 C   0  0  0  0  0  0  0  0  0  0  0  0
  144.9051  136.8098  153.0023 O   0  0  0  0  0  0  0  0  0  0  0  0
  146.3218  135.1485  152.3348 N   0  0  0  0  0  0  0  0  0  0  0  0
  145.4318  134.1692  151.8179 C   0  0  0  0  0  0  0  0  0  0  0  0
  145.8230  133.0990  150.9774 C   0  0  0  0  0  0  0  0  0  0  0  0
  144.8461  132.1802  150.5482 C   0  0  0  0  0  0  0  0  0  0  0  0
  143.5174  132.3597  150.9794 C   0  0  0  0  0  0  0  0  0  0  0  0
  143.1328  133.3670  151.7912 N   0  0  0  0  0  0  0  0  0  0  0  0
  144.0753  134.2435  152.1996 C   0  0  0  0  0  0  0  0  0  0  0  0
  148.5872  138.7293  154.3301 C   0  0  0  0  0  0  0  0  0  0  0  0
  152.3969  140.6928  159.2427 H   0  0  0  0  0  0  0  0  0  0  0  0
  151.5205  139.3761  158.4760 H   0  0  0  0  0  0  0  0  0  0  0  0
  150.6420  140.6117  159.3742 H   0  0  0  0  0  0  0  0  0  0  0  0
  152.2133  141.0728  156.7795 H   0  0  0  0  0  0  0  0  0  0  0  0
  152.2773  143.0798  158.2332 H   0  0  0  0  0  0  0  0  0  0  0  0
  150.5210  143.0625  158.3692 H   0  0  0  0  0  0  0  0  0  0  0  0
  151.2840  143.3729  156.8112 H   0  0  0  0  0  0  0  0  0  0  0  0
  149.2618  141.0774  157.1968 H   0  0  0  0  0  0  0  0  0  0  0  0
  147.9548  140.2356  155.7256 H   0  0  0  0  0  0  0  0  0  0  0  0
  148.2819  142.1975  154.2450 H   0  0  0  0  0  0  0  0  0  0  0  0
  148.9909  141.1856  153.0093 H   0  0  0  0  0  0  0  0  0  0  0  0
  146.1212  141.0275  154.0432 H   0  0  0  0  0  0  0  0  0  0  0  0
  146.6258  141.6060  152.4738 H   0  0  0  0  0  0  0  0  0  0  0  0
  145.7713  139.2636  152.3542 H   0  0  0  0  0  0  0  0  0  0  0  0
  147.4394  139.3662  151.8433 H   0  0  0  0  0  0  0  0  0  0  0  0
  146.4520  138.4952  154.5905 H   0  0  0  0  0  0  0  0  0  0  0  0
  148.0164  136.6299  153.0596 H   0  0  0  0  0  0  0  0  0  0  0  0
  147.2951  134.8814  152.3505 H   0  0  0  0  0  0  0  0  0  0  0  0
  146.8462  132.9550  150.6672 H   0  0  0  0  0  0  0  0  0  0  0  0
  145.1113  131.3533  149.9059 H   0  0  0  0  0  0  0  0  0  0  0  0
  142.7441  131.6725  150.6696 H   0  0  0  0  0  0  0  0  0  0  0  0
  143.7323  135.0339  152.8515 H   0  0  0  0  0  0  0  0  0  0  0  0
  149.3230  138.6035  153.5336 H   0  0  0  0  0  0  0  0  0  0  0  0
  148.8515  138.0101  155.1063 H   0  0  0  0  0  0  0  0  0  0  0  0
  1  2  1  0  0  0  0
  1 23  1  0  0  0  0
  1 24  1  0  0  0  0
  1 25  1  0  0  0  0
  2  3  1  0  0  0  0
  2  4  1  0  0  0  0
  2 26  1  0  0  0  0
  3 27  1  0  0  0  0
  3 28  1  0  0  0  0
  3 29  1  0  0  0  0
  4  5  1  0  0  0  0
  4 30  1  0  0  0  0
  5  6  2  0  0  0  0
  5  7  1  0  0  0  0
  7 22  1  0  0  0  0
  7  8  1  0  0  0  0
  7 31  1  0  0  0  0
  8  9  1  0  0  0  0
  8 32  1  0  0  0  0
  8 33  1  0  0  0  0
  9 10  1  0  0  0  0
  9 34  1  0  0  0  0
  9 35  1  0  0  0  0
 10 11  1  0  0  0  0
 10 36  1  0  0  0  0
 10 37  1  0  0  0  0
 11 12  1  0  0  0  0
 11 22  1  0  0  0  0
 11 38  1  0  0  0  0
 12 13  1  0  0  0  0
 12 39  1  0  0  0  0
 13 14  2  0  0  0  0
 13 15  1  0  0  0  0
 15 16  1  0  0  0  0
 15 40  1  0  0  0  0
 16 21  1  0  0  0  0
 16 17  2  0  0  0  0
 17 18  1  0  0  0  0
 17 41  1  0  0  0  0
 18 19  2  0  0  0  0
 18 42  1  0  0  0  0
 19 20  1  0  0  0  0
 19 43  1  0  0  0  0
 20 21  2  0  0  0  0
 21 44  1  0  0  0  0
 22 45  1  0  0  0  0
 22 46  1  0  0  0  0
M  END
> <s_m_source_file>
AV-unprocessed.smi

> <i_m_source_file_index>
2678

> <i_lp_mmshare_version>
43012

> <i_f3d_flags>
0

> <s_epik_input>
W0NIM11bQ0hdKFtDSDNdKVtOSF1DKD1PKVtDQEBIXTFbQ0gyXVtDSDJdW0NIMl1bQ0BIXShbQ0gyXTEpW05IXUMoPU8pW05IXWMyW2NIXVtjSF1bY0hdbltjSF0y

> <s_epik_cmdline>
J2VwaWtfcHl0aG9uJywgJy1waCcsICc3LjAnLCAnLXRuJywgJzgnLCAnLW1hJywgJzIwMCcsICctbWV0YWxfYmluZGluZycsICctaW1hZScsICc8aW5maWxlLm1hZT4nLCAnLW9tYWUnLCAnPG91dGZpbGUubWFlPic=

> <r_epik_Ionization_Penalty>
0.00482944

> <r_epik_Ionization_Penalty_Charging>
0

> <r_epik_Ionization_Penalty_Neutral>
0.00482944

> <r_epik_State_Penalty>
0.00347168

> <r_epik_Charging_Adjusted_Penalty>
0.00347168

> <i_epik_Tot_Q>
0

> <i_epik_Tot_abs_Q>
0

> <r_epik_Metal_State_Penalty>
-0

> <b_epik_Metal_Only>
0

> <s_lp_Force_Field>
OPLS_2005

> <r_lp_Energy>
23.8457

> <b_lp_Chiralities_Consistent>
1

> <s_lp_Variant>
AV-unprocessed.smi:2678-2

> <Gold.Version>
5.8.1

> <Gold.Id.Protein>
6NUR|6NUR_protein|mol2

> <Gold.PLP.Fitness>
44.8591

> <Gold.PLP.PLP>
-35.9660

> <Gold.PLP.part.hbond>
-2.4571

> <Gold.PLP.part.metal>
0.0000

> <Gold.PLP.part.buried>
-5.1938

> <Gold.PLP.part.nonpolar>
-29.9242

> <Gold.PLP.part.repulsive>
0.7594

> <Gold.PLP.ligand.clash>
0.0000

> <Gold.PLP.ligand.torsion>
0.4197

> <Gold.PLP.Chemscore.Hbond>
2.2374

> <Gold.PLP.Chemscore.CHOScore>
1.0000

> <Gold.PLP.Chemscore.Metal>
0.0000

> <Gold.Chemscore.Hbonds>
donor molecule, donor type, donor heavy atom, donor atom, acceptor molecule, acceptor atom, score
      L1  H    12    39       P1  7948  0.77
      L1  H    15    40       P1  7948  0.34
      P1  H  7989  7998       L1     6  0.98
      L1  C    19    43       P1 10952  0.88

> <Gold.PLP.Chemscore.Internal.Correction>
0.0202

> <Gold.Rescore>
     Score         DG    S(hbond)    S(metal)    S(lipo)     H(rot)  DE(clash)    DE(int)     intcor
     18.47     -20.31       2.65        0.00      83.14       1.46       0.13       1.71       ----

> <Gold.Chemscore.Fitness>
18.4711

> <Gold.Chemscore.DG>
-20.3113

> <Gold.Chemscore.ZeroCoef>
-5.4800

> <Gold.Chemscore.Hbond>
2.6474

> <Gold.Chemscore.Metal>
0.0000

> <Gold.Chemscore.Lipo>
83.1397

> <Gold.Chemscore.Internal_Hbond>
0.0000

> <Gold.Chemscore.DEClash>
0.1322

> <Gold.Chemscore.DEInternal>
1.7080

> <Gold.Chemscore.Rot>
1.4603

> <Gold.Chemscore.Internal.Correction>
   9.000000E+99

> <Gold.Chemscore.Hbonds>
donor molecule, donor type, donor heavy atom, donor atom, acceptor molecule, acceptor atom, score
      L1  H    12    39       P1  7948  0.73
      L1  H    15    40       P1  7948  0.33
      P1  H  7989  7998       L1     6  0.91

> <Gold.Chemscore.Hbond.Weighted>
-8.8423

> <Gold.Chemscore.Metal.Weighted>
-0.0000

> <Gold.Chemscore.Lipo.Weighted>
-9.7273

> <Gold.Chemscore.Internal_Hbond.Weighted>
0.0000

> <Gold.Chemscore.DEClash.Weighted>
0.1322

> <Gold.Chemscore.DEInternal.Weighted>
1.7080

> <Gold.Chemscore.Rot.Weighted>
3.7383

> <Gold.Chemscore.Internal.Correction.Weighted>
   9.000000E+99

> <Gold.Protein.RotatedTorsions>
[ 6907 6896 6895 6894 ] final  -52.95 input  -60.11 | X-H torsion
[ 7974 7965 7964 7962 ] final -143.34 input  175.53 | X-H torsion
[ 8008 7997 7996 7995 ] final  -19.25 input   59.86 | X-H torsion
[ 10167 10162 10161 10158 ] final    7.97 input  -65.29 | X-H torsion
[ 10718 10713 10712 10709 ] final   75.83 input   66.30 | X-H torsion
[ 10763 10752 10751 10750 ] final -162.06 input  -60.55 | X-H torsion
[ 11005 11000 10999 10996 ] final -176.40 input  -57.11 | X-H torsion

> <Gold.Protein.ActiveResidues>
 VAL166  LYS551  ARG553  GLY616  TRP617  ASP618  TYR619  PRO620  LYS621  CYS622 
 ASP623  PHE694  ASN695  SER759  ASP760  ASP761  ALA762  ILE779  LEU786  VAL792 
 PHE793  MET794  SER795  GLU796  ALA797  LYS798  CYS799  TRP800  GLU811  SER814 

> <Gold.Protein.RotatedAtoms>
  150.8471  134.7783  159.6978 H   0  0  0  0  0  0  0  0  0  0  0  0  # atno 6907 bound_to 6896
  152.4545  134.5318  159.9823 H   0  0  0  0  0  0  0  0  0  0  0  0  # atno 6908 bound_to 6896
  151.5447  133.3389  159.2977 H   0  0  0  0  0  0  0  0  0  0  0  0  # atno 6909 bound_to 6896
  144.8376  140.5846  143.5473 H   0  0  0  0  0  0  0  0  0  0  0  0  # atno 7974 bound_to 7965
  154.4850  140.2094  155.9677 H   0  0  0  0  0  0  0  0  0  0  0  0  # atno 8008 bound_to 7997
  156.1222  140.3211  155.8194 H   0  0  0  0  0  0  0  0  0  0  0  0  # atno 8009 bound_to 7997
  155.4448  140.0512  157.2998 H   0  0  0  0  0  0  0  0  0  0  0  0  # atno 8010 bound_to 7997
  140.6341  143.7926  150.7335 H   0  0  0  0  0  0  0  0  0  0  0  0  # atno 10167 bound_to 10162
  157.6650  130.9745  150.1410 H   0  0  0  0  0  0  0  0  0  0  0  0  # atno 10718 bound_to 10713
  154.7248  135.3033  154.8989 H   0  0  0  0  0  0  0  0  0  0  0  0  # atno 10763 bound_to 10752
  153.9850  135.6725  153.4755 H   0  0  0  0  0  0  0  0  0  0  0  0  # atno 10764 bound_to 10752
  153.0865  135.4981  154.8526 H   0  0  0  0  0  0  0  0  0  0  0  0  # atno 10765 bound_to 10752
  140.4525  134.6330  157.4807 H   0  0  0  0  0  0  0  0  0  0  0  0  # atno 11005 bound_to 11000
  145.4761  139.1499  143.3787 LP  0  0  0  0  0  0  0  0  0  0  0  0  # atno 17320 bound_to 7965
  146.2673  140.4896  142.8829 LP  0  0  0  0  0  0  0  0  0  0  0  0  # atno 17321 bound_to 7965
  140.1544  143.4330  152.2109 LP  0  0  0  0  0  0  0  0  0  0  0  0  # atno 17342 bound_to 10162
  139.5553  144.7368  151.4314 LP  0  0  0  0  0  0  0  0  0  0  0  0  # atno 17343 bound_to 10162
  156.2233  130.3676  149.8531 LP  0  0  0  0  0  0  0  0  0  0  0  0  # atno 17370 bound_to 10713
  156.6378  130.8692  151.3508 LP  0  0  0  0  0  0  0  0  0  0  0  0  # atno 17371 bound_to 10713
  139.9997  134.6855  155.9550 LP  0  0  0  0  0  0  0  0  0  0  0  0  # atno 17394 bound_to 11000
  141.1657  133.6537  156.4473 LP  0  0  0  0  0  0  0  0  0  0  0  0  # atno 17395 bound_to 11000

$$$$
