AV-unprocessed.smi:1966|AV-procd|sdf|7952|dock5
  -GOLD-   2272010123D 1   1.00000     0.00000
 Structure written by MMmdl.
 53 54  0  0  0  0  0  0  0  0  1 V2000
  145.1842  136.8707  151.7855 C   0  0  0  0  0  0  0  0  0  0  0  0
  145.4003  136.1034  153.0852 C   0  0  0  0  0  0  0  0  0  0  0  0
  144.4729  135.4717  153.5904 O   0  0  0  0  0  0  0  0  0  0  0  0
  146.6325  136.1633  153.6148 N   0  0  0  0  0  0  0  0  0  0  0  0
  147.0556  135.5100  154.8558 C   0  0  2  0  0  0  0  0  0  0  0  0
  147.6471  136.5740  155.8014 C   0  0  0  0  0  0  0  0  0  0  0  0
  147.2521  136.6490  156.9658 O   0  0  0  0  0  0  0  0  0  0  0  0
  148.5907  137.3702  155.2658 N   0  0  0  0  0  0  0  0  0  0  0  0
  149.2803  138.4513  155.8771 C   0  0  0  0  0  0  0  0  0  0  0  0
  150.4431  139.0519  155.3397 C   0  0  0  0  0  0  0  0  0  0  0  0
  151.0567  140.1021  156.0487 C   0  0  0  0  0  0  0  0  0  0  0  0
  150.4959  140.5144  157.2746 C   0  0  0  0  0  0  0  0  0  0  0  0
  151.1058  141.5600  157.9820 N   0  0  0  0  0  0  0  0  0  0  0  0
  151.3313  142.7537  157.1775 C   0  0  0  0  0  0  0  0  0  0  0  0
  151.8704  143.9055  158.0488 C   0  0  1  0  0  0  0  0  0  0  0  0
  150.8002  144.5492  158.9483 C   0  0  0  0  0  0  0  0  0  0  0  0
  153.0089  143.4669  158.7958 O   0  0  0  0  0  0  0  0  0  0  0  0
  152.7895  142.3083  159.6015 C   0  0  2  0  0  0  0  0  0  0  0  0
  154.1039  141.9672  160.3106 C   0  0  0  0  0  0  0  0  0  0  0  0
  152.2971  141.1518  158.7128 C   0  0  0  0  0  0  0  0  0  0  0  0
  149.3915  139.9351  157.8023 N   0  0  0  0  0  0  0  0  0  0  0  0
  148.8090  138.9275  157.1182 C   0  0  0  0  0  0  0  0  0  0  0  0
  148.1339  134.4373  154.5200 C   0  0  0  0  0  0  0  0  0  0  0  0
  147.5881  133.3491  153.5742 C   0  0  0  0  0  0  0  0  0  0  0  0
  148.7245  133.7620  155.7755 C   0  0  0  0  0  0  0  0  0  0  0  0
  145.6733  137.8446  151.8247 H   0  0  0  0  0  0  0  0  0  0  0  0
  144.1208  137.0314  151.6052 H   0  0  0  0  0  0  0  0  0  0  0  0
  145.5938  136.3109  150.9445 H   0  0  0  0  0  0  0  0  0  0  0  0
  147.3285  136.7143  153.1337 H   0  0  0  0  0  0  0  0  0  0  0  0
  146.1970  135.0251  155.3257 H   0  0  0  0  0  0  0  0  0  0  0  0
  148.8917  137.1340  154.3311 H   0  0  0  0  0  0  0  0  0  0  0  0
  150.8824  138.7192  154.4120 H   0  0  0  0  0  0  0  0  0  0  0  0
  151.9448  140.5772  155.6585 H   0  0  0  0  0  0  0  0  0  0  0  0
  152.0541  142.5250  156.3929 H   0  0  0  0  0  0  0  0  0  0  0  0
  150.4070  143.0524  156.6814 H   0  0  0  0  0  0  0  0  0  0  0  0
  152.2291  144.6870  157.3787 H   0  0  0  0  0  0  0  0  0  0  0  0
  149.9994  144.9796  158.3466 H   0  0  0  0  0  0  0  0  0  0  0  0
  151.2284  145.3520  159.5487 H   0  0  0  0  0  0  0  0  0  0  0  0
  150.3426  143.8302  159.6272 H   0  0  0  0  0  0  0  0  0  0  0  0
  152.0416  142.5276  160.3637 H   0  0  0  0  0  0  0  0  0  0  0  0
  153.9905  141.0891  160.9467 H   0  0  0  0  0  0  0  0  0  0  0  0
  154.4319  142.7938  160.9414 H   0  0  0  0  0  0  0  0  0  0  0  0
  154.8978  141.7607  159.5922 H   0  0  0  0  0  0  0  0  0  0  0  0
  152.0724  140.2767  159.3241 H   0  0  0  0  0  0  0  0  0  0  0  0
  153.0782  140.8625  158.0082 H   0  0  0  0  0  0  0  0  0  0  0  0
  147.9339  138.4905  157.5769 H   0  0  0  0  0  0  0  0  0  0  0  0
  148.9590  134.9265  153.9991 H   0  0  0  0  0  0  0  0  0  0  0  0
  146.7304  132.8390  154.0135 H   0  0  0  0  0  0  0  0  0  0  0  0
  148.3475  132.5961  153.3619 H   0  0  0  0  0  0  0  0  0  0  0  0
  147.2753  133.7611  152.6147 H   0  0  0  0  0  0  0  0  0  0  0  0
  147.9437  133.2927  156.3748 H   0  0  0  0  0  0  0  0  0  0  0  0
  149.2553  134.4692  156.4131 H   0  0  0  0  0  0  0  0  0  0  0  0
  149.4417  132.9871  155.5029 H   0  0  0  0  0  0  0  0  0  0  0  0
  1  2  1  0  0  0  0
  1 26  1  0  0  0  0
  1 27  1  0  0  0  0
  1 28  1  0  0  0  0
  2  3  2  0  0  0  0
  2  4  1  0  0  0  0
  4  5  1  0  0  0  0
  4 29  1  0  0  0  0
  5  6  1  0  0  0  0
  5 23  1  0  0  0  0
  5 30  1  0  0  0  0
  6  7  2  0  0  0  0
  6  8  1  0  0  0  0
  8  9  1  0  0  0  0
  8 31  1  0  0  0  0
  9 22  1  0  0  0  0
  9 10  2  0  0  0  0
 10 11  1  0  0  0  0
 10 32  1  0  0  0  0
 11 12  2  0  0  0  0
 11 33  1  0  0  0  0
 12 13  1  0  0  0  0
 12 21  1  0  0  0  0
 13 20  1  0  0  0  0
 13 14  1  0  0  0  0
 14 15  1  0  0  0  0
 14 34  1  0  0  0  0
 14 35  1  0  0  0  0
 15 16  1  0  0  0  0
 15 17  1  0  0  0  0
 15 36  1  0  0  0  0
 16 37  1  0  0  0  0
 16 38  1  0  0  0  0
 16 39  1  0  0  0  0
 17 18  1  0  0  0  0
 18 19  1  0  0  0  0
 18 20  1  0  0  0  0
 18 40  1  0  0  0  0
 19 41  1  0  0  0  0
 19 42  1  0  0  0  0
 19 43  1  0  0  0  0
 20 44  1  0  0  0  0
 20 45  1  0  0  0  0
 21 22  2  0  0  0  0
 22 46  1  0  0  0  0
 23 24  1  0  0  0  0
 23 25  1  0  0  0  0
 23 47  1  0  0  0  0
 24 48  1  0  0  0  0
 24 49  1  0  0  0  0
 24 50  1  0  0  0  0
 25 51  1  0  0  0  0
 25 52  1  0  0  0  0
 25 53  1  0  0  0  0
M  END
> <s_m_source_file>
AV-unprocessed.smi

> <i_m_source_file_index>
1966

> <i_lp_mmshare_version>
43012

> <i_f3d_flags>
0

> <s_epik_input>
W0NIM11DKD1PKVtOSF1bQ0BASF0oW0NIXShbQ0gzXSlbQ0gzXSlDKD1PKVtOSF1jMVtjSF1bY0hdYyhuW2NIXTEpTjJbQ0gyXVtDQEBIXShbQ0gzXSlPW0NAQEhdKFtDSDNdKVtDSDJdMg==

> <s_epik_cmdline>
J2VwaWtfcHl0aG9uJywgJy1waCcsICc3LjAnLCAnLXRuJywgJzgnLCAnLW1hJywgJzIwMCcsICctbWV0YWxfYmluZGluZycsICctaW1hZScsICc8aW5maWxlLm1hZT4nLCAnLW9tYWUnLCAnPG91dGZpbGUubWFlPic=

> <r_lp_tautomer_probability>
1

> <r_epik_Ionization_Penalty>
0.000679699

> <r_epik_Ionization_Penalty_Charging>
0

> <r_epik_Ionization_Penalty_Neutral>
0.000679699

> <r_epik_State_Penalty>
0.000430485

> <r_epik_Charging_Adjusted_Penalty>
0.000430485

> <i_epik_Tot_Q>
0

> <i_epik_Tot_abs_Q>
0

> <r_epik_Metal_State_Penalty>
-0

> <b_epik_Metal_Only>
0

> <s_lp_Force_Field>
OPLS_2005

> <r_lp_Energy>
29.6381

> <b_lp_Chiralities_Consistent>
1

> <s_lp_Variant>
AV-unprocessed.smi:1966-5

> <Gold.Version>
5.8.1

> <Gold.Id.Protein>
6NUR|6NUR_protein|mol2

> <Gold.PLP.Fitness>
41.9918

> <Gold.PLP.PLP>
-37.5589

> <Gold.PLP.part.hbond>
-1.6221

> <Gold.PLP.part.metal>
0.0000

> <Gold.PLP.part.buried>
-3.7873

> <Gold.PLP.part.nonpolar>
-33.0639

> <Gold.PLP.part.repulsive>
0.1089

> <Gold.PLP.ligand.clash>
0.0000

> <Gold.PLP.ligand.torsion>
0.5329

> <Gold.PLP.Chemscore.Hbond>
1.7819

> <Gold.PLP.Chemscore.CHOScore>
0.0000

> <Gold.PLP.Chemscore.Metal>
0.0000

> <Gold.Chemscore.Hbonds>
donor molecule, donor type, donor heavy atom, donor atom, acceptor molecule, acceptor atom, score
      L1  H     4    29       P1  7948  0.52

> <Gold.PLP.Chemscore.Internal.Correction>
0.1530

> <Gold.Rescore>
     Score         DG    S(hbond)    S(metal)    S(lipo)     H(rot)  DE(clash)    DE(int)     intcor
     17.03     -19.47       1.92        0.00     101.41       1.68       0.17       2.26       ----

> <Gold.Chemscore.Fitness>
17.0323

> <Gold.Chemscore.DG>
-19.4703

> <Gold.Chemscore.ZeroCoef>
-5.4800

> <Gold.Chemscore.Hbond>
1.9208

> <Gold.Chemscore.Metal>
0.0000

> <Gold.Chemscore.Lipo>
101.4094

> <Gold.Chemscore.Internal_Hbond>
0.0000

> <Gold.Chemscore.DEClash>
0.1746

> <Gold.Chemscore.DEInternal>
2.2633

> <Gold.Chemscore.Rot>
1.6759

> <Gold.Chemscore.Internal.Correction>
   9.000000E+99

> <Gold.Chemscore.Hbonds>
donor molecule, donor type, donor heavy atom, donor atom, acceptor molecule, acceptor atom, score
      L1  H     4    29       P1  7948  0.52

> <Gold.Chemscore.Hbond.Weighted>
-6.4156

> <Gold.Chemscore.Metal.Weighted>
-0.0000

> <Gold.Chemscore.Lipo.Weighted>
-11.8649

> <Gold.Chemscore.Internal_Hbond.Weighted>
0.0000

> <Gold.Chemscore.DEClash.Weighted>
0.1746

> <Gold.Chemscore.DEInternal.Weighted>
2.2633

> <Gold.Chemscore.Rot.Weighted>
4.2902

> <Gold.Chemscore.Internal.Correction.Weighted>
   9.000000E+99

> <Gold.Protein.RotatedTorsions>
[ 6907 6896 6895 6894 ] final   60.32 input  -60.11 | X-H torsion
[ 7974 7965 7964 7962 ] final   54.13 input  175.53 | X-H torsion
[ 8008 7997 7996 7995 ] final   73.36 input   59.86 | X-H torsion
[ 10167 10162 10161 10158 ] final   67.80 input  -65.29 | X-H torsion
[ 10718 10713 10712 10709 ] final  151.72 input   66.30 | X-H torsion
[ 10763 10752 10751 10750 ] final  -81.78 input  -60.55 | X-H torsion
[ 11005 11000 10999 10996 ] final -160.78 input  -57.11 | X-H torsion

> <Gold.Protein.ActiveResidues>
 VAL166  LYS551  ARG553  GLY616  TRP617  ASP618  TYR619  PRO620  LYS621  CYS622 
 ASP623  PHE694  ASN695  SER759  ASP760  ASP761  ALA762  ILE779  LEU786  VAL792 
 PHE793  MET794  SER795  GLU796  ALA797  LYS798  CYS799  TRP800  GLU811  SER814 

> <Gold.Protein.RotatedAtoms>
  152.3992  134.6314  160.0076 H   0  0  0  0  0  0  0  0  0  0  0  0  # atno 6907 bound_to 6896
  151.6524  133.3315  159.3163 H   0  0  0  0  0  0  0  0  0  0  0  0  # atno 6908 bound_to 6896
  150.7895  134.6950  159.6563 H   0  0  0  0  0  0  0  0  0  0  0  0  # atno 6909 bound_to 6896
  145.9641  139.4086  143.0230 H   0  0  0  0  0  0  0  0  0  0  0  0  # atno 7974 bound_to 7965
  155.7824  140.3481  155.5305 H   0  0  0  0  0  0  0  0  0  0  0  0  # atno 8008 bound_to 7997
  155.8715  140.0987  157.1568 H   0  0  0  0  0  0  0  0  0  0  0  0  # atno 8009 bound_to 7997
  154.4018  140.1339  156.4071 H   0  0  0  0  0  0  0  0  0  0  0  0  # atno 8010 bound_to 7997
  140.0856  144.5032  150.7132 H   0  0  0  0  0  0  0  0  0  0  0  0  # atno 10167 bound_to 10162
  157.2671  131.0809  151.1625 H   0  0  0  0  0  0  0  0  0  0  0  0  # atno 10718 bound_to 10713
  154.5678  135.5614  153.7066 H   0  0  0  0  0  0  0  0  0  0  0  0  # atno 10763 bound_to 10752
  153.0038  135.6289  154.2156 H   0  0  0  0  0  0  0  0  0  0  0  0  # atno 10764 bound_to 10752
  154.2096  135.2874  155.2943 H   0  0  0  0  0  0  0  0  0  0  0  0  # atno 10765 bound_to 10752
  140.6277  134.4684  157.5228 H   0  0  0  0  0  0  0  0  0  0  0  0  # atno 11005 bound_to 11000
  145.7999  140.9776  143.1004 LP  0  0  0  0  0  0  0  0  0  0  0  0  # atno 17320 bound_to 7965
  144.6821  139.9788  143.7483 LP  0  0  0  0  0  0  0  0  0  0  0  0  # atno 17321 bound_to 7965
  140.7055  143.2465  151.4739 LP  0  0  0  0  0  0  0  0  0  0  0  0  # atno 17342 bound_to 10162
  139.5754  144.1831  152.1895 LP  0  0  0  0  0  0  0  0  0  0  0  0  # atno 17343 bound_to 10162
  157.3112  130.6891  149.6217 LP  0  0  0  0  0  0  0  0  0  0  0  0  # atno 17370 bound_to 10713
  155.9663  130.4363  150.5127 LP  0  0  0  0  0  0  0  0  0  0  0  0  # atno 17371 bound_to 10713
  139.9128  134.8309  156.1469 LP  0  0  0  0  0  0  0  0  0  0  0  0  # atno 17394 bound_to 11000
  141.0697  133.6802  156.2116 LP  0  0  0  0  0  0  0  0  0  0  0  0  # atno 17395 bound_to 11000

$$$$
