AV-unprocessed.smi:2124|AV-procd|sdf|8666|dock2
  -GOLD-   2272011413D 1   1.00000     0.00000
 Structure written by MMmdl.
 46 48  0  0  0  0  0  0  0  0  2 V2000
  140.8181  146.4313  160.5634 C   0  0  0  0  0  0  0  0  0  0  0  0
  142.0705  145.7571  160.0455 C   0  0  0  0  0  0  0  0  0  0  0  0
  143.1330  146.4499  159.8861 N   0  0  0  0  0  0  0  0  0  0  0  0
  144.3006  145.8268  159.4140 C   0  0  0  0  0  0  0  0  0  0  0  0
  145.5149  146.7265  159.2651 C   0  0  0  0  0  0  0  0  0  0  0  0
  144.3207  144.4952  159.1184 C   0  0  0  0  0  0  0  0  0  0  0  0
  145.5663  143.7691  158.6118 C   0  0  0  0  0  0  0  0  0  0  0  0
  146.6948  143.6108  159.6325 C   0  0  0  0  0  0  0  0  0  0  0  0
  146.5943  142.7861  160.5406 O   0  0  0  0  0  0  0  0  0  0  0  0
  147.7627  144.4081  159.4723 N   0  0  0  0  0  0  0  0  0  0  0  0
  148.9511  144.4226  160.3224 C   0  0  2  0  0  0  0  0  0  0  0  0
  148.8158  145.5326  161.3793 C   0  0  0  0  0  0  0  0  0  0  0  0
  150.2074  144.6015  159.4383 C   0  0  2  0  0  0  0  0  0  0  0  0
  150.6036  143.3548  158.6137 C   0  0  0  0  0  0  0  0  0  0  0  0
  152.1097  143.2124  158.9016 C   0  0  2  0  0  0  0  0  0  0  0  0
  152.2964  142.6677  160.3293 C   0  0  0  0  0  0  0  0  0  0  0  0
  151.9207  143.8779  161.2034 C   0  0  0  0  0  0  0  0  0  0  0  0
  151.5334  144.9476  160.1608 C   0  0  1  0  0  0  0  0  0  0  0  0
  152.5486  144.6637  159.0582 C   0  0  0  0  0  0  0  0  0  0  0  0
  143.0726  143.7340  159.3094 C   0  0  0  0  0  0  0  0  0  0  0  0
  143.0309  142.5323  159.0484 O   0  0  0  0  0  0  0  0  0  0  0  0
  141.9843  144.4096  159.7773 N   0  5  0  0  0  0  0  0  0  0  0  0
  140.9480  147.5131  160.6188 H   0  0  0  0  0  0  0  0  0  0  0  0
  140.5788  146.0637  161.5613 H   0  0  0  0  0  0  0  0  0  0  0  0
  139.9739  146.2228  159.9053 H   0  0  0  0  0  0  0  0  0  0  0  0
  146.3301  146.3806  159.9007 H   0  0  0  0  0  0  0  0  0  0  0  0
  145.2824  147.7532  159.5498 H   0  0  0  0  0  0  0  0  0  0  0  0
  145.8584  146.7374  158.2315 H   0  0  0  0  0  0  0  0  0  0  0  0
  145.2684  142.7846  158.2495 H   0  0  0  0  0  0  0  0  0  0  0  0
  145.9726  144.2676  157.7312 H   0  0  0  0  0  0  0  0  0  0  0  0
  147.7548  145.0512  158.6942 H   0  0  0  0  0  0  0  0  0  0  0  0
  149.0139  143.4614  160.8339 H   0  0  0  0  0  0  0  0  0  0  0  0
  149.6649  145.5362  162.0623 H   0  0  0  0  0  0  0  0  0  0  0  0
  147.9184  145.3953  161.9831 H   0  0  0  0  0  0  0  0  0  0  0  0
  148.7569  146.5177  160.9152 H   0  0  0  0  0  0  0  0  0  0  0  0
  150.0016  145.4134  158.7378 H   0  0  0  0  0  0  0  0  0  0  0  0
  150.0547  142.4583  158.9050 H   0  0  0  0  0  0  0  0  0  0  0  0
  150.4189  143.5241  157.5521 H   0  0  0  0  0  0  0  0  0  0  0  0
  152.6490  142.6441  158.1433 H   0  0  0  0  0  0  0  0  0  0  0  0
  151.6666  141.7997  160.5272 H   0  0  0  0  0  0  0  0  0  0  0  0
  153.3327  142.3755  160.5040 H   0  0  0  0  0  0  0  0  0  0  0  0
  151.1274  143.6561  161.9161 H   0  0  0  0  0  0  0  0  0  0  0  0
  152.7865  144.2074  161.7794 H   0  0  0  0  0  0  0  0  0  0  0  0
  151.5666  145.9660  160.5486 H   0  0  0  0  0  0  0  0  0  0  0  0
  153.5847  144.7705  159.3840 H   0  0  0  0  0  0  0  0  0  0  0  0
  152.3936  145.2619  158.1585 H   0  0  0  0  0  0  0  0  0  0  0  0
  1  2  1  0  0  0  0
  1 23  1  0  0  0  0
  1 24  1  0  0  0  0
  1 25  1  0  0  0  0
  2 22  1  0  0  0  0
  2  3  2  0  0  0  0
  3  4  1  0  0  0  0
  4  5  1  0  0  0  0
  4  6  2  0  0  0  0
  5 26  1  0  0  0  0
  5 27  1  0  0  0  0
  5 28  1  0  0  0  0
  6  7  1  0  0  0  0
  6 20  1  0  0  0  0
  7  8  1  0  0  0  0
  7 29  1  0  0  0  0
  7 30  1  0  0  0  0
  8  9  2  0  0  0  0
  8 10  1  0  0  0  0
 10 11  1  0  0  0  0
 10 31  1  0  0  0  0
 11 12  1  0  0  0  0
 11 13  1  0  0  0  0
 11 32  1  0  0  0  0
 12 33  1  0  0  0  0
 12 34  1  0  0  0  0
 12 35  1  0  0  0  0
 13 18  1  0  0  0  0
 13 14  1  0  0  0  0
 13 36  1  0  0  0  0
 14 15  1  0  0  0  0
 14 37  1  0  0  0  0
 14 38  1  0  0  0  0
 15 19  1  0  0  0  0
 15 16  1  0  0  0  0
 15 39  1  0  0  0  0
 16 17  1  0  0  0  0
 16 40  1  0  0  0  0
 16 41  1  0  0  0  0
 17 18  1  0  0  0  0
 17 42  1  0  0  0  0
 17 43  1  0  0  0  0
 18 19  1  0  0  0  0
 18 44  1  0  0  0  0
 19 45  1  0  0  0  0
 19 46  1  0  0  0  0
 20 21  2  0  0  0  0
 20 22  1  0  0  0  0
M  CHG  1  22  -1
M  END
> <s_m_source_file>
AV-unprocessed.smi

> <i_m_source_file_index>
2124

> <i_lp_mmshare_version>
43012

> <i_f3d_flags>
0

> <s_epik_input>
W0NIM11jMW5jKFtDSDNdKWMoYyg9TylbbkhdMSlbQ0gyXUMoPU8pW05IXVtDQEhdKFtDSDNdKVtDQEhdKFtDSDJdW0NASF0yMylbQ0BIXShbQ0gyXTMpW0NIMl1bQ0gyXTI=

> <s_epik_cmdline>
J2VwaWtfcHl0aG9uJywgJy1waCcsICc3LjAnLCAnLXRuJywgJzgnLCAnLW1hJywgJzIwMCcsICctbWV0YWxfYmluZGluZycsICctaW1hZScsICc8aW5maWxlLm1hZT4nLCAnLW9tYWUnLCAnPG91dGZpbGUubWFlPic=

> <r_lp_tautomer_probability>
0.839158

> <r_epik_Ionization_Penalty>
6.63797

> <r_epik_Ionization_Penalty_Charging>
7.48558e-08

> <r_epik_Ionization_Penalty_Neutral>
6.63797

> <r_epik_State_Penalty>
4.49496

> <r_epik_Charging_Adjusted_Penalty>
4.49496

> <i_epik_Tot_Q>
-1

> <i_epik_Tot_abs_Q>
1

> <r_epik_Metal_State_Penalty>
0.841241

> <b_epik_Metal_Only>
1

> <s_lp_Force_Field>
OPLS_2005

> <r_lp_Energy>
56.0848

> <b_lp_Chiralities_Consistent>
1

> <s_lp_Variant>
AV-unprocessed.smi:2124-17

> <Gold.Version>
5.8.1

> <Gold.Id.Protein>
6NUR|6NUR_protein|mol2

> <Gold.PLP.Fitness>
45.3692

> <Gold.PLP.PLP>
-38.4457

> <Gold.PLP.part.hbond>
-3.0000

> <Gold.PLP.part.metal>
0.0000

> <Gold.PLP.part.buried>
-2.9817

> <Gold.PLP.part.nonpolar>
-33.4866

> <Gold.PLP.part.repulsive>
0.5237

> <Gold.PLP.ligand.clash>
0.0000

> <Gold.PLP.ligand.torsion>
0.7700

> <Gold.PLP.Chemscore.Hbond>
2.8080

> <Gold.PLP.Chemscore.CHOScore>
0.0000

> <Gold.PLP.Chemscore.Metal>
0.0000

> <Gold.Chemscore.Hbonds>
donor molecule, donor type, donor heavy atom, donor atom, acceptor molecule, acceptor atom, score
      L1  H    10    31       P1  8029  1.00
      P1  H  6933  6944       L1     9  0.62
      P1  H  6934  6946       L1     9  1.00

> <Gold.PLP.Chemscore.Internal.Correction>
0.0396

> <Gold.Rescore>
     Score         DG    S(hbond)    S(metal)    S(lipo)     H(rot)  DE(clash)    DE(int)     intcor
     20.52     -23.04       2.68        0.00     108.58       1.61       2.02       0.50       ----

> <Gold.Chemscore.Fitness>
20.5171

> <Gold.Chemscore.DG>
-23.0385

> <Gold.Chemscore.ZeroCoef>
-5.4800

> <Gold.Chemscore.Hbond>
2.6837

> <Gold.Chemscore.Metal>
0.0000

> <Gold.Chemscore.Lipo>
108.5795

> <Gold.Chemscore.Internal_Hbond>
0.0000

> <Gold.Chemscore.DEClash>
2.0222

> <Gold.Chemscore.DEInternal>
0.4991

> <Gold.Chemscore.Rot>
1.6051

> <Gold.Chemscore.Internal.Correction>
   9.000000E+99

> <Gold.Chemscore.Hbonds>
donor molecule, donor type, donor heavy atom, donor atom, acceptor molecule, acceptor atom, score
      L1  H    10    31       P1  8029  1.00
      P1  H  6933  6944       L1     9  0.52
      P1  H  6934  6946       L1     9  0.94

> <Gold.Chemscore.Hbond.Weighted>
-8.9637

> <Gold.Chemscore.Metal.Weighted>
-0.0000

> <Gold.Chemscore.Lipo.Weighted>
-12.7038

> <Gold.Chemscore.Internal_Hbond.Weighted>
0.0000

> <Gold.Chemscore.DEClash.Weighted>
2.0222

> <Gold.Chemscore.DEInternal.Weighted>
0.4991

> <Gold.Chemscore.Rot.Weighted>
4.1090

> <Gold.Chemscore.Internal.Correction.Weighted>
   9.000000E+99

> <Gold.Protein.RotatedTorsions>
[ 6907 6896 6895 6894 ] final   21.54 input  -60.11 | X-H torsion
[ 7974 7965 7964 7962 ] final   15.44 input  175.53 | X-H torsion
[ 8008 7997 7996 7995 ] final -174.20 input   59.86 | X-H torsion
[ 10167 10162 10161 10158 ] final   62.06 input  -65.29 | X-H torsion
[ 10718 10713 10712 10709 ] final   81.18 input   66.30 | X-H torsion
[ 10763 10752 10751 10750 ] final  176.44 input  -60.55 | X-H torsion
[ 11005 11000 10999 10996 ] final -145.58 input  -57.11 | X-H torsion

> <Gold.Protein.ActiveResidues>
 VAL166  LYS551  ARG553  GLY616  TRP617  ASP618  TYR619  PRO620  LYS621  CYS622 
 ASP623  PHE694  ASN695  SER759  ASP760  ASP761  ALA762  ILE779  LEU786  VAL792 
 PHE793  MET794  SER795  GLU796  ALA797  LYS798  CYS799  TRP800  GLU811  SER814 

> <Gold.Protein.RotatedAtoms>
  151.9134  135.0329  160.0516 H   0  0  0  0  0  0  0  0  0  0  0  0  # atno 6907 bound_to 6896
  152.2260  133.5016  159.5197 H   0  0  0  0  0  0  0  0  0  0  0  0  # atno 6908 bound_to 6896
  150.7012  134.1196  159.4072 H   0  0  0  0  0  0  0  0  0  0  0  0  # atno 6909 bound_to 6896
  146.2278  139.8894  142.8557 H   0  0  0  0  0  0  0  0  0  0  0  0  # atno 7974 bound_to 7965
  155.9672  140.1156  157.0844 H   0  0  0  0  0  0  0  0  0  0  0  0  # atno 8008 bound_to 7997
  154.4147  140.1170  156.5324 H   0  0  0  0  0  0  0  0  0  0  0  0  # atno 8009 bound_to 7997
  155.6644  140.3473  155.4797 H   0  0  0  0  0  0  0  0  0  0  0  0  # atno 8010 bound_to 7997
  140.1480  144.4490  150.6775 H   0  0  0  0  0  0  0  0  0  0  0  0  # atno 10167 bound_to 10162
  157.6826  130.9992  150.2188 H   0  0  0  0  0  0  0  0  0  0  0  0  # atno 10718 bound_to 10713
  154.4811  135.2775  155.1570 H   0  0  0  0  0  0  0  0  0  0  0  0  # atno 10763 bound_to 10752
  154.3279  135.6196  153.5541 H   0  0  0  0  0  0  0  0  0  0  0  0  # atno 10764 bound_to 10752
  152.9875  135.5758  154.5212 H   0  0  0  0  0  0  0  0  0  0  0  0  # atno 10765 bound_to 10752
  140.7908  134.2970  157.5014 H   0  0  0  0  0  0  0  0  0  0  0  0  # atno 11005 bound_to 11000
  145.2433  141.0017  143.3923 LP  0  0  0  0  0  0  0  0  0  0  0  0  # atno 17320 bound_to 7965
  144.9434  139.4163  143.6438 LP  0  0  0  0  0  0  0  0  0  0  0  0  # atno 17321 bound_to 7965
  140.6720  143.2289  151.5601 LP  0  0  0  0  0  0  0  0  0  0  0  0  # atno 17342 bound_to 10162
  139.5440  144.2572  152.1406 LP  0  0  0  0  0  0  0  0  0  0  0  0  # atno 17343 bound_to 10162
  156.2844  130.3737  149.7903 LP  0  0  0  0  0  0  0  0  0  0  0  0  # atno 17370 bound_to 10713
  156.5582  130.8371  151.3320 LP  0  0  0  0  0  0  0  0  0  0  0  0  # atno 17371 bound_to 10713
  139.8731  134.9373  156.3684 LP  0  0  0  0  0  0  0  0  0  0  0  0  # atno 17394 bound_to 11000
  140.9391  133.7526  156.0123 LP  0  0  0  0  0  0  0  0  0  0  0  0  # atno 17395 bound_to 11000

$$$$
