AV-unprocessed.smi:2434|AV-procd|sdf|9591|dock2
  -GOLD-   2272013223D 1   1.00000     0.00000
 Structure written by MMmdl.
 36 37  0  0  0  0  0  0  0  0  1 V2000
  152.9302  141.6744  160.5238 C   0  0  0  0  0  0  0  0  0  0  0  0
  152.8229  142.3946  159.1706 C   0  0  0  0  0  0  0  0  0  0  0  0
  151.8570  143.5966  159.1560 C   0  0  0  0  0  0  0  0  0  0  0  0
  150.3981  143.0969  159.0798 C   0  0  0  0  0  0  0  0  0  0  0  0
  149.9174  142.9877  157.7043 N   0  0  0  0  0  0  0  0  0  0  0  0
  149.5268  141.8556  157.1013 C   0  0  0  0  0  0  0  0  0  0  0  0
  149.5460  140.7482  157.6394 O   0  0  0  0  0  0  0  0  0  0  0  0
  149.0869  142.0923  155.8549 N   0  0  0  0  0  0  0  0  0  0  0  0
  148.5654  141.1361  154.9468 C   0  0  0  0  0  0  0  0  0  0  0  0
  149.0746  139.8220  154.9908 C   0  0  0  0  0  0  0  0  0  0  0  0
  148.5471  138.8626  154.1033 C   0  0  0  0  0  0  0  0  0  0  0  0
  147.5628  139.1310  153.2192 N   0  0  0  0  0  0  0  0  0  0  0  0
  147.0597  140.3840  153.1978 C   0  0  0  0  0  0  0  0  0  0  0  0
  147.5144  141.4185  154.0406 C   0  0  0  0  0  0  0  0  0  0  0  0
  146.9257  142.6376  153.9885 F   0  0  0  0  0  0  0  0  0  0  0  0
  152.1193  144.6644  160.2426 C   0  0  0  0  0  0  0  0  0  0  0  0
  151.8762  145.7582  159.2044 C   0  0  0  0  0  0  0  0  0  0  0  0
  152.2065  144.7100  158.1438 C   0  0  0  0  0  0  0  0  0  0  0  0
  153.5570  140.7870  160.4353 H   0  0  0  0  0  0  0  0  0  0  0  0
  151.9525  141.3524  160.8823 H   0  0  0  0  0  0  0  0  0  0  0  0
  153.3775  142.3091  161.2880 H   0  0  0  0  0  0  0  0  0  0  0  0
  153.8191  142.6879  158.8392 H   0  0  0  0  0  0  0  0  0  0  0  0
  152.4937  141.6594  158.4352 H   0  0  0  0  0  0  0  0  0  0  0  0
  150.3137  142.1026  159.5190 H   0  0  0  0  0  0  0  0  0  0  0  0
  149.7432  143.7237  159.6858 H   0  0  0  0  0  0  0  0  0  0  0  0
  149.8606  143.8477  157.1786 H   0  0  0  0  0  0  0  0  0  0  0  0
  149.0010  143.0595  155.5801 H   0  0  0  0  0  0  0  0  0  0  0  0
  149.8616  139.5532  155.6804 H   0  0  0  0  0  0  0  0  0  0  0  0
  148.9253  137.8512  154.1055 H   0  0  0  0  0  0  0  0  0  0  0  0
  146.2594  140.5651  152.4955 H   0  0  0  0  0  0  0  0  0  0  0  0
  151.4100  144.6650  161.0708 H   0  0  0  0  0  0  0  0  0  0  0  0
  153.1477  144.6643  160.6078 H   0  0  0  0  0  0  0  0  0  0  0  0
  150.8381  146.0917  159.1675 H   0  0  0  0  0  0  0  0  0  0  0  0
  152.5721  146.5963  159.2506 H   0  0  0  0  0  0  0  0  0  0  0  0
  153.2621  144.7218  157.8657 H   0  0  0  0  0  0  0  0  0  0  0  0
  151.5673  144.7437  157.2606 H   0  0  0  0  0  0  0  0  0  0  0  0
  1  2  1  0  0  0  0
  1 19  1  0  0  0  0
  1 20  1  0  0  0  0
  1 21  1  0  0  0  0
  2  3  1  0  0  0  0
  2 22  1  0  0  0  0
  2 23  1  0  0  0  0
  3 18  1  0  0  0  0
  3  4  1  0  0  0  0
  3 16  1  0  0  0  0
  4  5  1  0  0  0  0
  4 24  1  0  0  0  0
  4 25  1  0  0  0  0
  5  6  1  0  0  0  0
  5 26  1  0  0  0  0
  6  7  2  0  0  0  0
  6  8  1  0  0  0  0
  8  9  1  0  0  0  0
  8 27  1  0  0  0  0
  9 14  1  0  0  0  0
  9 10  2  0  0  0  0
 10 11  1  0  0  0  0
 10 28  1  0  0  0  0
 11 12  2  0  0  0  0
 11 29  1  0  0  0  0
 12 13  1  0  0  0  0
 13 14  2  0  0  0  0
 13 30  1  0  0  0  0
 14 15  1  0  0  0  0
 16 17  1  0  0  0  0
 16 31  1  0  0  0  0
 16 32  1  0  0  0  0
 17 18  1  0  0  0  0
 17 33  1  0  0  0  0
 17 34  1  0  0  0  0
 18 35  1  0  0  0  0
 18 36  1  0  0  0  0
M  END
> <s_m_source_file>
AV-unprocessed.smi

> <i_m_source_file_index>
2434

> <i_lp_mmshare_version>
43012

> <i_f3d_flags>
0

> <s_epik_input>
W0NIMl0xW0NIMl1bQ0gyXUMxKFtDSDJdW0NIM10pW0NIMl1bTkhdQyg9TylbTkhdYzJbY0hdW2NIXW5bY0hdYzJG

> <s_epik_cmdline>
J2VwaWtfcHl0aG9uJywgJy1waCcsICc3LjAnLCAnLXRuJywgJzgnLCAnLW1hJywgJzIwMCcsICctbWV0YWxfYmluZGluZycsICctaW1hZScsICc8aW5maWxlLm1hZT4nLCAnLW9tYWUnLCAnPG91dGZpbGUubWFlPic=

> <r_epik_Ionization_Penalty>
0.00332283

> <r_epik_Ionization_Penalty_Charging>
0

> <r_epik_Ionization_Penalty_Neutral>
0.00332283

> <r_epik_State_Penalty>
0.00231995

> <r_epik_Charging_Adjusted_Penalty>
0.00231995

> <i_epik_Tot_Q>
0

> <i_epik_Tot_abs_Q>
0

> <r_epik_Metal_State_Penalty>
-0

> <b_epik_Metal_Only>
0

> <s_lp_Force_Field>
OPLS_2005

> <r_lp_Energy>
27.2745

> <b_lp_Chiralities_Consistent>
1

> <s_lp_Variant>
AV-unprocessed.smi:2434-1

> <Gold.Version>
5.8.1

> <Gold.Id.Protein>
6NUR|6NUR_protein|mol2

> <Gold.PLP.Fitness>
51.0250

> <Gold.PLP.PLP>
-41.0647

> <Gold.PLP.part.hbond>
-2.0000

> <Gold.PLP.part.metal>
0.0000

> <Gold.PLP.part.buried>
-4.0424

> <Gold.PLP.part.nonpolar>
-37.3710

> <Gold.PLP.part.repulsive>
1.9212

> <Gold.PLP.ligand.clash>
0.0000

> <Gold.PLP.ligand.torsion>
1.1039

> <Gold.PLP.Chemscore.Hbond>
1.9120

> <Gold.PLP.Chemscore.CHOScore>
1.9998

> <Gold.PLP.Chemscore.Metal>
0.0000

> <Gold.Chemscore.Hbonds>
donor molecule, donor type, donor heavy atom, donor atom, acceptor molecule, acceptor atom, score
      L1  H     5    26       P1  8028  0.86
      L1  H     8    27       P1  8028  1.00
      L1  C    11    29       P1  7948  0.39
      L1  C    13    30       P1 10175  0.91

> <Gold.PLP.Chemscore.Internal.Correction>
0.4326

> <Gold.Rescore>
     Score         DG    S(hbond)    S(metal)    S(lipo)     H(rot)  DE(clash)    DE(int)     intcor
     17.49     -20.85       1.83        0.00     109.60       1.40       0.53       2.83       ----

> <Gold.Chemscore.Fitness>
17.4884

> <Gold.Chemscore.DG>
-20.8495

> <Gold.Chemscore.ZeroCoef>
-5.4800

> <Gold.Chemscore.Hbond>
1.8346

> <Gold.Chemscore.Metal>
0.0000

> <Gold.Chemscore.Lipo>
109.6013

> <Gold.Chemscore.Internal_Hbond>
0.0000

> <Gold.Chemscore.DEClash>
0.5310

> <Gold.Chemscore.DEInternal>
2.8301

> <Gold.Chemscore.Rot>
1.3990

> <Gold.Chemscore.Internal.Correction>
   9.000000E+99

> <Gold.Chemscore.Hbonds>
donor molecule, donor type, donor heavy atom, donor atom, acceptor molecule, acceptor atom, score
      L1  H     5    26       P1  8028  0.74
      L1  H     8    27       P1  8028  1.00

> <Gold.Chemscore.Hbond.Weighted>
-6.1275

> <Gold.Chemscore.Metal.Weighted>
-0.0000

> <Gold.Chemscore.Lipo.Weighted>
-12.8233

> <Gold.Chemscore.Internal_Hbond.Weighted>
0.0000

> <Gold.Chemscore.DEClash.Weighted>
0.5310

> <Gold.Chemscore.DEInternal.Weighted>
2.8301

> <Gold.Chemscore.Rot.Weighted>
3.5814

> <Gold.Chemscore.Internal.Correction.Weighted>
   9.000000E+99

> <Gold.Protein.RotatedTorsions>
[ 6907 6896 6895 6894 ] final  102.21 input  -60.11 | X-H torsion
[ 7974 7965 7964 7962 ] final  161.13 input  175.53 | X-H torsion
[ 8008 7997 7996 7995 ] final -158.63 input   59.86 | X-H torsion
[ 10167 10162 10161 10158 ] final   75.29 input  -65.29 | X-H torsion
[ 10718 10713 10712 10709 ] final  105.82 input   66.30 | X-H torsion
[ 10763 10752 10751 10750 ] final -116.81 input  -60.55 | X-H torsion
[ 11005 11000 10999 10996 ] final  116.81 input  -57.11 | X-H torsion

> <Gold.Protein.ActiveResidues>
 VAL166  LYS551  ARG553  GLY616  TRP617  ASP618  TYR619  PRO620  LYS621  CYS622 
 ASP623  PHE694  ASN695  SER759  ASP760  ASP761  ALA762  ILE779  LEU786  VAL792 
 PHE793  MET794  SER795  GLU796  ALA797  LYS798  CYS799  TRP800  GLU811  SER814 

> <Gold.Protein.RotatedAtoms>
  152.5330  134.0010  159.7894 H   0  0  0  0  0  0  0  0  0  0  0  0  # atno 6907 bound_to 6896
  151.0229  133.5852  159.2676 H   0  0  0  0  0  0  0  0  0  0  0  0  # atno 6908 bound_to 6896
  151.2885  135.0742  159.9249 H   0  0  0  0  0  0  0  0  0  0  0  0  # atno 6909 bound_to 6896
  144.7701  139.7855  143.6300 H   0  0  0  0  0  0  0  0  0  0  0  0  # atno 7974 bound_to 7965
  155.7504  140.0826  157.2204 H   0  0  0  0  0  0  0  0  0  0  0  0  # atno 8008 bound_to 7997
  154.4013  140.1561  156.2773 H   0  0  0  0  0  0  0  0  0  0  0  0  # atno 8009 bound_to 7997
  155.8936  140.3414  155.5977 H   0  0  0  0  0  0  0  0  0  0  0  0  # atno 8010 bound_to 7997
  140.0045  144.5661  150.7709 H   0  0  0  0  0  0  0  0  0  0  0  0  # atno 10167 bound_to 10162
  157.6691  131.0836  150.5914 H   0  0  0  0  0  0  0  0  0  0  0  0  # atno 10718 bound_to 10713
  154.8533  135.4332  154.1880 H   0  0  0  0  0  0  0  0  0  0  0  0  # atno 10763 bound_to 10752
  153.2955  135.6965  153.7258 H   0  0  0  0  0  0  0  0  0  0  0  0  # atno 10764 bound_to 10752
  153.6408  135.3468  155.3045 H   0  0  0  0  0  0  0  0  0  0  0  0  # atno 10765 bound_to 10752
  139.9053  134.9603  156.7255 H   0  0  0  0  0  0  0  0  0  0  0  0  # atno 11005 bound_to 11000
  146.1841  139.5047  142.9847 LP  0  0  0  0  0  0  0  0  0  0  0  0  # atno 17320 bound_to 7965
  145.6349  141.0296  143.1843 LP  0  0  0  0  0  0  0  0  0  0  0  0  # atno 17321 bound_to 7965
  140.7406  143.2806  151.3610 LP  0  0  0  0  0  0  0  0  0  0  0  0  # atno 17342 bound_to 10162
  139.6248  144.0836  152.2424 LP  0  0  0  0  0  0  0  0  0  0  0  0  # atno 17343 bound_to 10162
  156.6215  130.4407  149.5820 LP  0  0  0  0  0  0  0  0  0  0  0  0  # atno 17370 bound_to 10713
  156.2352  130.6818  151.1502 LP  0  0  0  0  0  0  0  0  0  0  0  0  # atno 17371 bound_to 10713
  140.6966  133.9343  155.7999 LP  0  0  0  0  0  0  0  0  0  0  0  0  # atno 17394 bound_to 11000
  141.0402  134.0632  157.3911 LP  0  0  0  0  0  0  0  0  0  0  0  0  # atno 17395 bound_to 11000

$$$$
