AV-unprocessed.smi:2318|AV-procd|sdf|9276|dock1
  -GOLD-   2272012503D 1   1.00000     0.00000
 Structure written by MMmdl.
 37 38  0  0  0  0  0  0  0  0  1 V2000
  149.5008  136.2741  155.4772 C   0  0  0  0  0  0  0  0  0  0  0  0
  150.4231  137.3841  155.3700 N   0  0  0  0  0  0  0  0  0  0  0  0
  151.4264  137.5842  154.4430 C   0  0  0  0  0  0  0  0  0  0  0  0
  152.0320  138.7709  154.7452 C   0  0  0  0  0  0  0  0  0  0  0  0
  151.3148  139.2229  155.8871 C   0  0  0  0  0  0  0  0  0  0  0  0
  151.6506  140.4508  156.5119 N   0  0  0  0  0  0  0  0  0  0  0  0
  151.5059  140.7785  157.8073 C   0  0  0  0  0  0  0  0  0  0  0  0
  151.0367  140.0433  158.6765 O   0  0  0  0  0  0  0  0  0  0  0  0
  151.9452  142.0234  158.0428 N   0  0  0  0  0  0  0  0  0  0  0  0
  151.9241  142.7145  159.3339 C   0  0  1  0  0  0  0  0  0  0  0  0
  153.2111  142.3735  160.1298 C   0  0  0  0  0  0  0  0  0  0  0  0
  153.6645  140.9130  160.0068 C   0  0  0  0  0  0  0  0  0  0  0  0
  154.6406  140.7102  161.1654 C   0  0  0  0  0  0  0  0  0  0  0  0
  154.1730  141.6604  162.2748 C   0  0  0  0  0  0  0  0  0  0  0  0
  153.1036  142.5666  161.6492 C   0  0  0  0  0  0  0  0  0  0  0  0
  151.7276  144.2266  159.0796 C   0  0  0  0  0  0  0  0  0  0  0  0
  151.8613  144.8978  160.2243 F   0  0  0  0  0  0  0  0  0  0  0  0
  152.6399  144.6926  158.2277 F   0  0  0  0  0  0  0  0  0  0  0  0
  150.5122  144.4649  158.5851 F   0  0  0  0  0  0  0  0  0  0  0  0
  150.3521  138.3925  156.2641 N   0  0  0  0  0  0  0  0  0  0  0  0
  149.5940  135.6245  154.6064 H   0  0  0  0  0  0  0  0  0  0  0  0
  148.4773  136.6462  155.5334 H   0  0  0  0  0  0  0  0  0  0  0  0
  149.7227  135.6980  156.3759 H   0  0  0  0  0  0  0  0  0  0  0  0
  151.6236  136.8732  153.6542 H   0  0  0  0  0  0  0  0  0  0  0  0
  152.8567  139.2404  154.2295 H   0  0  0  0  0  0  0  0  0  0  0  0
  152.0458  141.1553  155.9069 H   0  0  0  0  0  0  0  0  0  0  0  0
  152.3134  142.5476  157.2625 H   0  0  0  0  0  0  0  0  0  0  0  0
  151.0664  142.3717  159.9155 H   0  0  0  0  0  0  0  0  0  0  0  0
  154.0266  143.0023  159.7686 H   0  0  0  0  0  0  0  0  0  0  0  0
  152.8096  140.2460  160.1283 H   0  0  0  0  0  0  0  0  0  0  0  0
  154.1225  140.6917  159.0422 H   0  0  0  0  0  0  0  0  0  0  0  0
  154.6759  139.6713  161.4947 H   0  0  0  0  0  0  0  0  0  0  0  0
  155.6463  140.9880  160.8477 H   0  0  0  0  0  0  0  0  0  0  0  0
  153.7599  141.1092  163.1202 H   0  0  0  0  0  0  0  0  0  0  0  0
  155.0132  142.2471  162.6483 H   0  0  0  0  0  0  0  0  0  0  0  0
  153.2357  143.6082  161.9432 H   0  0  0  0  0  0  0  0  0  0  0  0
  152.1187  142.2502  161.9957 H   0  0  0  0  0  0  0  0  0  0  0  0
  1  2  1  0  0  0  0
  1 21  1  0  0  0  0
  1 22  1  0  0  0  0
  1 23  1  0  0  0  0
  2 20  1  0  0  0  0
  2  3  1  0  0  0  0
  3  4  2  0  0  0  0
  3 24  1  0  0  0  0
  4  5  1  0  0  0  0
  4 25  1  0  0  0  0
  5  6  1  0  0  0  0
  5 20  2  0  0  0  0
  6  7  1  0  0  0  0
  6 26  1  0  0  0  0
  7  8  2  0  0  0  0
  7  9  1  0  0  0  0
  9 10  1  0  0  0  0
  9 27  1  0  0  0  0
 10 11  1  0  0  0  0
 10 16  1  0  0  0  0
 10 28  1  0  0  0  0
 11 15  1  0  0  0  0
 11 12  1  0  0  0  0
 11 29  1  0  0  0  0
 12 13  1  0  0  0  0
 12 30  1  0  0  0  0
 12 31  1  0  0  0  0
 13 14  1  0  0  0  0
 13 32  1  0  0  0  0
 13 33  1  0  0  0  0
 14 15  1  0  0  0  0
 14 34  1  0  0  0  0
 14 35  1  0  0  0  0
 15 36  1  0  0  0  0
 15 37  1  0  0  0  0
 16 17  1  0  0  0  0
 16 18  1  0  0  0  0
 16 19  1  0  0  0  0
M  END
> <s_m_source_file>
AV-unprocessed.smi

> <i_m_source_file_index>
2318

> <i_lp_mmshare_version>
43012

> <i_f3d_flags>
0

> <s_epik_input>
W0NIM11uMVtjSF1bY0hdYyhuMSlbTkhdQyg9TylbTkhdW0NAQEhdKEMoRikoRilGKVtDSF0yW0NIMl1bQ0gyXVtDSDJdW0NIMl0y

> <s_epik_cmdline>
J2VwaWtfcHl0aG9uJywgJy1waCcsICc3LjAnLCAnLXRuJywgJzgnLCAnLW1hJywgJzIwMCcsICctbWV0YWxfYmluZGluZycsICctaW1hZScsICc8aW5maWxlLm1hZT4nLCAnLW9tYWUnLCAnPG91dGZpbGUubWFlPic=

> <r_lp_tautomer_probability>
1

> <r_epik_Ionization_Penalty>
2.39546e-05

> <r_epik_Ionization_Penalty_Charging>
0

> <r_epik_Ionization_Penalty_Neutral>
2.39546e-05

> <r_epik_State_Penalty>
-0

> <r_epik_Charging_Adjusted_Penalty>
0

> <i_epik_Tot_Q>
0

> <i_epik_Tot_abs_Q>
0

> <r_epik_Metal_State_Penalty>
-0

> <b_epik_Metal_Only>
0

> <s_lp_Force_Field>
OPLS_2005

> <r_lp_Energy>
23.5829

> <b_lp_Chiralities_Consistent>
1

> <s_lp_Variant>
AV-unprocessed.smi:2318-2

> <Gold.Version>
5.8.1

> <Gold.Id.Protein>
6NUR|6NUR_protein|mol2

> <Gold.PLP.Fitness>
49.6387

> <Gold.PLP.PLP>
-48.2931

> <Gold.PLP.part.hbond>
0.0000

> <Gold.PLP.part.metal>
0.0000

> <Gold.PLP.part.buried>
-4.2113

> <Gold.PLP.part.nonpolar>
-44.4666

> <Gold.PLP.part.repulsive>
0.2021

> <Gold.PLP.ligand.clash>
0.0000

> <Gold.PLP.ligand.torsion>
1.0441

> <Gold.PLP.Chemscore.Hbond>
0.0000

> <Gold.PLP.Chemscore.CHOScore>
1.0000

> <Gold.PLP.Chemscore.Metal>
0.0000

> <Gold.Chemscore.Hbonds>
donor molecule, donor type, donor heavy atom, donor atom, acceptor molecule, acceptor atom, score
      L1  C     3    24       P1  7949  1.00

> <Gold.PLP.Chemscore.Internal.Correction>
0.4338

> <Gold.Rescore>
     Score         DG    S(hbond)    S(metal)    S(lipo)     H(rot)  DE(clash)    DE(int)     intcor
     11.67     -13.08       0.00        0.00      93.39       1.30       0.02       1.39       ----

> <Gold.Chemscore.Fitness>
11.6668

> <Gold.Chemscore.DG>
-13.0775

> <Gold.Chemscore.ZeroCoef>
-5.4800

> <Gold.Chemscore.Hbond>
0.0000

> <Gold.Chemscore.Metal>
0.0000

> <Gold.Chemscore.Lipo>
93.3870

> <Gold.Chemscore.Internal_Hbond>
0.0000

> <Gold.Chemscore.DEClash>
0.0213

> <Gold.Chemscore.DEInternal>
1.3895

> <Gold.Chemscore.Rot>
1.3003

> <Gold.Chemscore.Internal.Correction>
   9.000000E+99

> <Gold.Chemscore.Hbond.Weighted>
-0.0000

> <Gold.Chemscore.Metal.Weighted>
-0.0000

> <Gold.Chemscore.Lipo.Weighted>
-10.9263

> <Gold.Chemscore.Internal_Hbond.Weighted>
0.0000

> <Gold.Chemscore.DEClash.Weighted>
0.0213

> <Gold.Chemscore.DEInternal.Weighted>
1.3895

> <Gold.Chemscore.Rot.Weighted>
3.3287

> <Gold.Chemscore.Internal.Correction.Weighted>
   9.000000E+99

> <Gold.Protein.RotatedTorsions>
[ 6907 6896 6895 6894 ] final   17.73 input  -60.11 | X-H torsion
[ 7974 7965 7964 7962 ] final  -22.28 input  175.53 | X-H torsion
[ 8008 7997 7996 7995 ] final  -14.06 input   59.86 | X-H torsion
[ 10167 10162 10161 10158 ] final  152.54 input  -65.29 | X-H torsion
[ 10718 10713 10712 10709 ] final   -7.22 input   66.30 | X-H torsion
[ 10763 10752 10751 10750 ] final -148.68 input  -60.55 | X-H torsion
[ 11005 11000 10999 10996 ] final  -84.34 input  -57.11 | X-H torsion

> <Gold.Protein.ActiveResidues>
 VAL166  LYS551  ARG553  GLY616  TRP617  ASP618  TYR619  PRO620  LYS621  CYS622 
 ASP623  PHE694  ASN695  SER759  ASP760  ASP761  ALA762  ILE779  LEU786  VAL792 
 PHE793  MET794  SER795  GLU796  ALA797  LYS798  CYS799  TRP800  GLU811  SER814 

> <Gold.Protein.RotatedAtoms>
  151.8543  135.0547  160.0462 H   0  0  0  0  0  0  0  0  0  0  0  0  # atno 6907 bound_to 6896
  152.2712  133.5380  159.5449 H   0  0  0  0  0  0  0  0  0  0  0  0  # atno 6908 bound_to 6896
  150.7152  134.0611  159.3874 H   0  0  0  0  0  0  0  0  0  0  0  0  # atno 6909 bound_to 6896
  146.1685  140.4457  142.8542 H   0  0  0  0  0  0  0  0  0  0  0  0  # atno 7974 bound_to 7965
  154.5241  140.2233  155.8922 H   0  0  0  0  0  0  0  0  0  0  0  0  # atno 8008 bound_to 7997
  156.1694  140.3125  155.8911 H   0  0  0  0  0  0  0  0  0  0  0  0  # atno 8009 bound_to 7997
  155.3589  140.0460  157.3037 H   0  0  0  0  0  0  0  0  0  0  0  0  # atno 8010 bound_to 7997
  139.4832  144.5349  151.7661 H   0  0  0  0  0  0  0  0  0  0  0  0  # atno 10167 bound_to 10162
  156.7204  130.5149  149.5869 H   0  0  0  0  0  0  0  0  0  0  0  0  # atno 10718 bound_to 10713
  154.8219  135.3328  154.7012 H   0  0  0  0  0  0  0  0  0  0  0  0  # atno 10763 bound_to 10752
  153.7643  135.6930  153.4923 H   0  0  0  0  0  0  0  0  0  0  0  0  # atno 10764 bound_to 10752
  153.2088  135.4489  155.0304 H   0  0  0  0  0  0  0  0  0  0  0  0  # atno 10765 bound_to 10752
  141.1651  133.7341  156.8854 H   0  0  0  0  0  0  0  0  0  0  0  0  # atno 11005 bound_to 11000
  144.8127  140.6414  143.6404 LP  0  0  0  0  0  0  0  0  0  0  0  0  # atno 17320 bound_to 7965
  145.4404  139.1536  143.3973 LP  0  0  0  0  0  0  0  0  0  0  0  0  # atno 17321 bound_to 7965
  140.4880  144.1352  150.5945 LP  0  0  0  0  0  0  0  0  0  0  0  0  # atno 17342 bound_to 10162
  140.4203  143.2615  151.9724 LP  0  0  0  0  0  0  0  0  0  0  0  0  # atno 17343 bound_to 10162
  156.1598  130.6366  151.0704 LP  0  0  0  0  0  0  0  0  0  0  0  0  # atno 17370 bound_to 10713
  157.6900  131.0813  150.7134 LP  0  0  0  0  0  0  0  0  0  0  0  0  # atno 17371 bound_to 10713
  140.1686  134.9116  157.2804 LP  0  0  0  0  0  0  0  0  0  0  0  0  # atno 17394 bound_to 11000
  140.2529  134.3662  155.7435 LP  0  0  0  0  0  0  0  0  0  0  0  0  # atno 17395 bound_to 11000

$$$$
