AV-unprocessed.smi:2695|AV-procd|sdf|10408|dock4
  -GOLD-   2272014443D 1   1.00000     0.00000
 Structure written by MMmdl.
 41 42  0  0  0  0  0  0  0  0  2 V2000
  148.5826  139.4852  157.0623 C   0  0  0  0  0  0  0  0  0  0  0  0
  149.8015  138.9067  156.3534 C   0  0  0  0  0  0  0  0  0  0  0  0
  150.7685  139.7226  155.8789 C   0  0  0  0  0  0  0  0  0  0  0  0
  151.9038  139.2242  155.2534 C   0  0  0  0  0  0  0  0  0  0  0  0
  152.7999  139.9752  154.8092 O   0  5  0  0  0  0  0  0  0  0  0  0
  151.9850  137.8414  155.1562 C   0  0  0  0  0  0  0  0  0  0  0  0
  150.9797  136.9107  155.6544 C   0  0  0  0  0  0  0  0  0  0  0  0
  151.1098  135.6894  155.5515 O   0  0  0  0  0  0  0  0  0  0  0  0
  149.8914  137.4943  156.2311 N   0  0  0  0  0  0  0  0  0  0  0  0
  148.7968  136.6214  156.7134 C   0  0  0  0  0  0  0  0  0  0  0  0
  149.1517  135.8568  157.9971 C   0  0  0  0  0  0  0  0  0  0  0  0
  150.2471  136.0069  158.5394 O   0  0  0  0  0  0  0  0  0  0  0  0
  148.1948  135.0507  158.4809 N   0  0  0  0  0  0  0  0  0  0  0  0
  148.2892  134.2374  159.6939 C   0  0  1  0  0  0  0  0  0  0  0  0
  147.3869  134.8672  160.7857 C   0  0  0  0  0  0  0  0  0  0  0  0
  147.6301  136.3664  161.0084 C   0  0  0  0  0  0  0  0  0  0  0  0
  147.0230  136.6777  162.3793 C   0  0  0  0  0  0  0  0  0  0  0  0
  146.9937  135.3485  163.1459 C   0  0  0  0  0  0  0  0  0  0  0  0
  147.5626  134.2893  162.1953 C   0  0  0  0  0  0  0  0  0  0  0  0
  147.9379  132.7666  159.3614 C   0  0  0  0  0  0  0  0  0  0  0  0
  148.6522  132.3422  158.3186 F   0  0  0  0  0  0  0  0  0  0  0  0
  148.2183  131.9672  160.3897 F   0  0  0  0  0  0  0  0  0  0  0  0
  146.6427  132.6505  159.0662 F   0  0  0  0  0  0  0  0  0  0  0  0
  148.7397  140.5370  157.3031 H   0  0  0  0  0  0  0  0  0  0  0  0
  148.3789  138.9752  158.0035 H   0  0  0  0  0  0  0  0  0  0  0  0
  147.7017  139.4229  156.4231 H   0  0  0  0  0  0  0  0  0  0  0  0
  150.6555  140.7914  155.9932 H   0  0  0  0  0  0  0  0  0  0  0  0
  152.8534  137.4104  154.6784 H   0  0  0  0  0  0  0  0  0  0  0  0
  147.8689  137.1662  156.8768 H   0  0  0  0  0  0  0  0  0  0  0  0
  148.5279  135.9016  155.9375 H   0  0  0  0  0  0  0  0  0  0  0  0
  147.3296  134.9889  157.9642 H   0  0  0  0  0  0  0  0  0  0  0  0
  149.3176  134.2650  160.0593 H   0  0  0  0  0  0  0  0  0  0  0  0
  146.3418  134.7396  160.4980 H   0  0  0  0  0  0  0  0  0  0  0  0
  148.7024  136.5670  161.0337 H   0  0  0  0  0  0  0  0  0  0  0  0
  147.1995  136.9849  160.2200 H   0  0  0  0  0  0  0  0  0  0  0  0
  147.5974  137.4411  162.9051 H   0  0  0  0  0  0  0  0  0  0  0  0
  146.0073  137.0574  162.2618 H   0  0  0  0  0  0  0  0  0  0  0  0
  147.5676  135.3990  164.0717 H   0  0  0  0  0  0  0  0  0  0  0  0
  145.9656  135.1006  163.4134 H   0  0  0  0  0  0  0  0  0  0  0  0
  147.0643  133.3277  162.3203 H   0  0  0  0  0  0  0  0  0  0  0  0
  148.6227  134.1432  162.4078 H   0  0  0  0  0  0  0  0  0  0  0  0
  1  2  1  0  0  0  0
  1 24  1  0  0  0  0
  1 25  1  0  0  0  0
  1 26  1  0  0  0  0
  2  9  1  0  0  0  0
  2  3  2  0  0  0  0
  3  4  1  0  0  0  0
  3 27  1  0  0  0  0
  4  5  1  0  0  0  0
  4  6  2  0  0  0  0
  6  7  1  0  0  0  0
  6 28  1  0  0  0  0
  7  8  2  0  0  0  0
  7  9  1  0  0  0  0
  9 10  1  0  0  0  0
 10 11  1  0  0  0  0
 10 29  1  0  0  0  0
 10 30  1  0  0  0  0
 11 12  2  0  0  0  0
 11 13  1  0  0  0  0
 13 14  1  0  0  0  0
 13 31  1  0  0  0  0
 14 15  1  0  0  0  0
 14 20  1  0  0  0  0
 14 32  1  0  0  0  0
 15 19  1  0  0  0  0
 15 16  1  0  0  0  0
 15 33  1  0  0  0  0
 16 17  1  0  0  0  0
 16 34  1  0  0  0  0
 16 35  1  0  0  0  0
 17 18  1  0  0  0  0
 17 36  1  0  0  0  0
 17 37  1  0  0  0  0
 18 19  1  0  0  0  0
 18 38  1  0  0  0  0
 18 39  1  0  0  0  0
 19 40  1  0  0  0  0
 19 41  1  0  0  0  0
 20 21  1  0  0  0  0
 20 22  1  0  0  0  0
 20 23  1  0  0  0  0
M  CHG  1   5  -1
M  END
> <s_m_source_file>
AV-unprocessed.smi

> <i_m_source_file_index>
2695

> <i_lp_mmshare_version>
43012

> <i_f3d_flags>
0

> <s_epik_input>
W0NIM11jMVtjSF1jKFtPSF0pW2NIXWMoPU8pbjFbQ0gyXUMoPU8pW05IXVtDQEBIXShDKEYpKEYpRilbQ0hdMltDSDJdW0NIMl1bQ0gyXVtDSDJdMg==

> <s_epik_cmdline>
J2VwaWtfcHl0aG9uJywgJy1waCcsICc3LjAnLCAnLXRuJywgJzgnLCAnLW1hJywgJzIwMCcsICctbWV0YWxfYmluZGluZycsICctaW1hZScsICc8aW5maWxlLm1hZT4nLCAnLW9tYWUnLCAnPG91dGZpbGUubWFlPic=

> <r_lp_tautomer_probability>
1

> <r_epik_Ionization_Penalty>
0.176977

> <r_epik_Ionization_Penalty_Charging>
0.176977

> <r_epik_Ionization_Penalty_Neutral>
1.44272e-07

> <r_epik_State_Penalty>
0.160849

> <r_epik_Charging_Adjusted_Penalty>
0.337826

> <i_epik_Tot_Q>
-1

> <i_epik_Tot_abs_Q>
1

> <r_epik_Metal_State_Penalty>
0.16085

> <b_epik_Metal_Only>
0

> <s_lp_Force_Field>
OPLS_2005

> <r_lp_Energy>
41.7446

> <b_lp_Chiralities_Consistent>
1

> <s_lp_Variant>
AV-unprocessed.smi:2695-2

> <Gold.Version>
5.8.1

> <Gold.Id.Protein>
6NUR|6NUR_protein|mol2

> <Gold.PLP.Fitness>
44.6230

> <Gold.PLP.PLP>
-32.4186

> <Gold.PLP.part.hbond>
-3.9969

> <Gold.PLP.part.metal>
0.0000

> <Gold.PLP.part.buried>
-1.2283

> <Gold.PLP.part.nonpolar>
-26.6972

> <Gold.PLP.part.repulsive>
0.2045

> <Gold.PLP.ligand.clash>
0.0000

> <Gold.PLP.ligand.torsion>
0.4187

> <Gold.PLP.Chemscore.Hbond>
4.2480

> <Gold.PLP.Chemscore.CHOScore>
0.0000

> <Gold.PLP.Chemscore.Metal>
0.0000

> <Gold.Chemscore.Hbonds>
donor molecule, donor type, donor heavy atom, donor atom, acceptor molecule, acceptor atom, score
      P1  H  6896  6909       L1    12  0.96
      P1  H  7989  7998       L1     5  0.34
      P1  H  7997  8010       L1     5  2.00
      P1  H 10752 10764       L1     8  1.00

> <Gold.PLP.Chemscore.Internal.Correction>
0.2979

> <Gold.Rescore>
     Score         DG    S(hbond)    S(metal)    S(lipo)     H(rot)  DE(clash)    DE(int)     intcor
     16.45     -17.25       2.61        0.00      64.41       1.75       0.13       0.66       ----

> <Gold.Chemscore.Fitness>
16.4548

> <Gold.Chemscore.DG>
-17.2513

> <Gold.Chemscore.ZeroCoef>
-5.4800

> <Gold.Chemscore.Hbond>
2.6124

> <Gold.Chemscore.Metal>
0.0000

> <Gold.Chemscore.Lipo>
64.4094

> <Gold.Chemscore.Internal_Hbond>
0.0000

> <Gold.Chemscore.DEClash>
0.1334

> <Gold.Chemscore.DEInternal>
0.6631

> <Gold.Chemscore.Rot>
1.7539

> <Gold.Chemscore.Internal.Correction>
   9.000000E+99

> <Gold.Chemscore.Hbonds>
donor molecule, donor type, donor heavy atom, donor atom, acceptor molecule, acceptor atom, score
      P1  H  6896  6909       L1    12  0.87
      P1  H  7989  7998       L1     5  0.06
      P1  H  7997  8010       L1     5  0.96
      P1  H 10752 10764       L1     8  0.32

> <Gold.Chemscore.Hbond.Weighted>
-8.7253

> <Gold.Chemscore.Metal.Weighted>
-0.0000

> <Gold.Chemscore.Lipo.Weighted>
-7.5359

> <Gold.Chemscore.Internal_Hbond.Weighted>
0.0000

> <Gold.Chemscore.DEClash.Weighted>
0.1334

> <Gold.Chemscore.DEInternal.Weighted>
0.6631

> <Gold.Chemscore.Rot.Weighted>
4.4899

> <Gold.Chemscore.Internal.Correction.Weighted>
   9.000000E+99

> <Gold.Protein.RotatedTorsions>
[ 6907 6896 6895 6894 ] final   61.06 input  -60.11 | X-H torsion
[ 7974 7965 7964 7962 ] final  101.09 input  175.53 | X-H torsion
[ 8008 7997 7996 7995 ] final  110.11 input   59.86 | X-H torsion
[ 10167 10162 10161 10158 ] final  -20.17 input  -65.29 | X-H torsion
[ 10718 10713 10712 10709 ] final   13.85 input   66.30 | X-H torsion
[ 10763 10752 10751 10750 ] final  -49.37 input  -60.55 | X-H torsion
[ 11005 11000 10999 10996 ] final  -81.74 input  -57.11 | X-H torsion

> <Gold.Protein.ActiveResidues>
 VAL166  LYS551  ARG553  GLY616  TRP617  ASP618  TYR619  PRO620  LYS621  CYS622 
 ASP623  PHE694  ASN695  SER759  ASP760  ASP761  ALA762  ILE779  LEU786  VAL792 
 PHE793  MET794  SER795  GLU796  ALA797  LYS798  CYS799  TRP800  GLU811  SER814 

> <Gold.Protein.RotatedAtoms>
  152.4056  134.6212  160.0051 H   0  0  0  0  0  0  0  0  0  0  0  0  # atno 6907 bound_to 6896
  151.6404  133.3321  159.3137 H   0  0  0  0  0  0  0  0  0  0  0  0  # atno 6908 bound_to 6896
  150.7952  134.7047  159.6614 H   0  0  0  0  0  0  0  0  0  0  0  0  # atno 6909 bound_to 6896
  145.3770  139.2387  143.3424 H   0  0  0  0  0  0  0  0  0  0  0  0  # atno 7974 bound_to 7965
  156.2029  140.3045  155.9564 H   0  0  0  0  0  0  0  0  0  0  0  0  # atno 8008 bound_to 7997
  155.2912  140.0442  157.3040 H   0  0  0  0  0  0  0  0  0  0  0  0  # atno 8009 bound_to 7997
  154.5594  140.2315  155.8368 H   0  0  0  0  0  0  0  0  0  0  0  0  # atno 8010 bound_to 7997
  140.7274  143.4748  151.0197 H   0  0  0  0  0  0  0  0  0  0  0  0  # atno 10167 bound_to 10162
  157.0306  130.6191  149.5735 H   0  0  0  0  0  0  0  0  0  0  0  0  # atno 10718 bound_to 10713
  154.0929  135.6574  153.4855 H   0  0  0  0  0  0  0  0  0  0  0  0  # atno 10763 bound_to 10752
  153.0315  135.5207  154.7362 H   0  0  0  0  0  0  0  0  0  0  0  0  # atno 10764 bound_to 10752
  154.6491  135.2999  154.9977 H   0  0  0  0  0  0  0  0  0  0  0  0  # atno 10765 bound_to 10752
  141.1665  133.7211  156.8467 H   0  0  0  0  0  0  0  0  0  0  0  0  # atno 11005 bound_to 11000
  146.2860  140.4430  142.8758 LP  0  0  0  0  0  0  0  0  0  0  0  0  # atno 17320 bound_to 7965
  144.8535  140.7036  143.6153 LP  0  0  0  0  0  0  0  0  0  0  0  0  # atno 17321 bound_to 7965
  139.8442  143.7523  152.3179 LP  0  0  0  0  0  0  0  0  0  0  0  0  # atno 17342 bound_to 10162
  139.7682  144.7485  151.0263 LP  0  0  0  0  0  0  0  0  0  0  0  0  # atno 17343 bound_to 10162
  156.0071  130.5159  150.7865 LP  0  0  0  0  0  0  0  0  0  0  0  0  # atno 17370 bound_to 10713
  157.5180  131.0930  151.0114 LP  0  0  0  0  0  0  0  0  0  0  0  0  # atno 17371 bound_to 10713
  140.1945  134.8942  157.3098 LP  0  0  0  0  0  0  0  0  0  0  0  0  # atno 17394 bound_to 11000
  140.2254  134.3972  155.7546 LP  0  0  0  0  0  0  0  0  0  0  0  0  # atno 17395 bound_to 11000

$$$$
