AV-unprocessed.smi:1240|AV-procd|sdf|5200|dock10
  -GOLD-   22720 4283D 1   1.00000     0.00000
 Structure written by MMmdl.
 48 50  0  0  0  0  0  0  0  0  2 V2000
  144.8669  135.7840  153.2719 O   0  0  0  0  0  0  0  0  0  0  0  0
  145.9467  135.8095  152.6815 C   0  0  0  0  0  0  0  0  0  0  0  0
  146.9125  136.6981  152.9549 N   0  0  0  0  0  0  0  0  0  0  0  0
  146.8261  137.7390  153.9729 C   0  0  0  0  0  0  0  0  0  0  0  0
  148.0010  138.7594  153.9367 C   0  0  1  0  0  0  0  0  0  0  0  0
  147.6226  140.1801  154.4450 C   0  0  2  0  0  0  0  0  0  0  0  0
  146.5740  140.9237  153.6290 C   0  0  0  0  0  0  0  0  0  0  0  0
  146.8268  142.3928  153.9675 C   0  0  0  0  0  0  0  0  0  0  0  0
  148.1515  142.4621  154.4826 O   0  0  0  0  0  0  0  0  0  0  0  0
  148.7708  141.1905  154.3698 C   0  0  0  0  0  0  0  0  0  0  0  0
  149.1950  138.2539  154.6794 N   0  3  0  0  0  0  0  0  0  0  0  0
  149.2085  136.8005  154.9848 C   0  0  0  0  0  0  0  0  0  0  0  0
  150.3976  136.4701  155.9021 C   0  0  0  0  0  0  0  0  0  0  0  0
  151.6086  136.8792  155.2770 O   0  0  0  0  0  0  0  0  0  0  0  0
  151.6445  138.2822  155.0427 C   0  0  0  0  0  0  0  0  0  0  0  0
  150.4936  138.6810  154.1032 C   0  0  0  0  0  0  0  0  0  0  0  0
  146.3156  134.9813  151.6892 N   0  0  0  0  0  0  0  0  0  0  0  0
  145.6021  133.8842  151.1348 C   0  0  0  0  0  0  0  0  0  0  0  0
  144.1986  133.8784  151.2722 C   0  0  0  0  0  0  0  0  0  0  0  0
  143.4658  132.8110  150.7159 C   0  0  0  0  0  0  0  0  0  0  0  0
  144.0375  131.7900  150.0438 N   0  0  0  0  0  0  0  0  0  0  0  0
  145.3797  131.8044  149.9003 C   0  0  0  0  0  0  0  0  0  0  0  0
  146.2055  132.8224  150.4186 C   0  0  0  0  0  0  0  0  0  0  0  0
  147.7665  136.6543  152.4178 H   0  0  0  0  0  0  0  0  0  0  0  0
  145.8767  138.2524  153.8203 H   0  0  0  0  0  0  0  0  0  0  0  0
  146.7577  137.2548  154.9475 H   0  0  0  0  0  0  0  0  0  0  0  0
  148.3187  138.8768  152.8995 H   0  0  0  0  0  0  0  0  0  0  0  0
  147.2748  140.1269  155.4774 H   0  0  0  0  0  0  0  0  0  0  0  0
  146.7367  140.7605  152.5626 H   0  0  0  0  0  0  0  0  0  0  0  0
  145.5526  140.6254  153.8653 H   0  0  0  0  0  0  0  0  0  0  0  0
  146.7141  143.0330  153.0921 H   0  0  0  0  0  0  0  0  0  0  0  0
  146.1349  142.7427  154.7343 H   0  0  0  0  0  0  0  0  0  0  0  0
  149.5126  141.0487  155.1562 H   0  0  0  0  0  0  0  0  0  0  0  0
  149.2801  141.1304  153.4065 H   0  0  0  0  0  0  0  0  0  0  0  0
  148.2805  136.5022  155.4718 H   0  0  0  0  0  0  0  0  0  0  0  0
  149.2933  136.2200  154.0653 H   0  0  0  0  0  0  0  0  0  0  0  0
  150.2902  136.9588  156.8718 H   0  0  0  0  0  0  0  0  0  0  0  0
  150.4418  135.3970  156.0893 H   0  0  0  0  0  0  0  0  0  0  0  0
  151.5801  138.8220  155.9890 H   0  0  0  0  0  0  0  0  0  0  0  0
  152.6035  138.5411  154.5935 H   0  0  0  0  0  0  0  0  0  0  0  0
  150.6423  138.2228  153.1251 H   0  0  0  0  0  0  0  0  0  0  0  0
  150.5022  139.7616  153.9562 H   0  0  0  0  0  0  0  0  0  0  0  0
  147.1989  135.1861  151.2458 H   0  0  0  0  0  0  0  0  0  0  0  0
  143.6878  134.6721  151.7975 H   0  0  0  0  0  0  0  0  0  0  0  0
  142.3905  132.7788  150.8123 H   0  0  0  0  0  0  0  0  0  0  0  0
  145.8100  130.9817  149.3483 H   0  0  0  0  0  0  0  0  0  0  0  0
  147.2693  132.7732  150.2462 H   0  0  0  0  0  0  0  0  0  0  0  0
  149.1504  138.7164  155.5764 H   0  0  0  0  0  0  0  0  0  0  0  0
  1  2  2  0  0  0  0
  2  3  1  0  0  0  0
  2 17  1  0  0  0  0
  3  4  1  0  0  0  0
  3 24  1  0  0  0  0
  4  5  1  0  0  0  0
  4 25  1  0  0  0  0
  4 26  1  0  0  0  0
  5  6  1  0  0  0  0
  5 11  1  0  0  0  0
  5 27  1  0  0  0  0
  6 10  1  0  0  0  0
  6  7  1  0  0  0  0
  6 28  1  0  0  0  0
  7  8  1  0  0  0  0
  7 29  1  0  0  0  0
  7 30  1  0  0  0  0
  8  9  1  0  0  0  0
  8 31  1  0  0  0  0
  8 32  1  0  0  0  0
  9 10  1  0  0  0  0
 10 33  1  0  0  0  0
 10 34  1  0  0  0  0
 11 16  1  0  0  0  0
 11 12  1  0  0  0  0
 11 48  1  0  0  0  0
 12 13  1  0  0  0  0
 12 35  1  0  0  0  0
 12 36  1  0  0  0  0
 13 14  1  0  0  0  0
 13 37  1  0  0  0  0
 13 38  1  0  0  0  0
 14 15  1  0  0  0  0
 15 16  1  0  0  0  0
 15 39  1  0  0  0  0
 15 40  1  0  0  0  0
 16 41  1  0  0  0  0
 16 42  1  0  0  0  0
 17 18  1  0  0  0  0
 17 43  1  0  0  0  0
 18 23  1  0  0  0  0
 18 19  2  0  0  0  0
 19 20  1  0  0  0  0
 19 44  1  0  0  0  0
 20 21  2  0  0  0  0
 20 45  1  0  0  0  0
 21 22  1  0  0  0  0
 22 23  2  0  0  0  0
 22 46  1  0  0  0  0
 23 47  1  0  0  0  0
M  CHG  1  11   1
M  END
> <s_m_source_file>
AV-unprocessed.smi

> <i_m_source_file_index>
1240

> <i_lp_mmshare_version>
43012

> <i_f3d_flags>
0

> <s_epik_input>
W2NIXTFbY0hdbltjSF1bY0hdYzFbTkhdQyg9TylbTkhdW0NIMl1bQ0BIXShbQ0BASF0yW0NIMl1bQ0gyXU9bQ0gyXTIpTjNbQ0gyXVtDSDJdT1tDSDJdW0NIMl0z

> <s_epik_cmdline>
J2VwaWtfcHl0aG9uJywgJy1waCcsICc3LjAnLCAnLXRuJywgJzgnLCAnLW1hJywgJzIwMCcsICctbWV0YWxfYmluZGluZycsICctaW1hZScsICc8aW5maWxlLm1hZT4nLCAnLW9tYWUnLCAnPG91dGZpbGUubWFlPic=

> <r_epik_Ionization_Penalty>
1.08433

> <r_epik_Ionization_Penalty_Charging>
0.98326

> <r_epik_Ionization_Penalty_Neutral>
0.10107

> <r_epik_State_Penalty>
1.11265

> <r_epik_Charging_Adjusted_Penalty>
2.09591

> <i_epik_Tot_Q>
1

> <i_epik_Tot_abs_Q>
1

> <r_epik_Metal_State_Penalty>
1.10731

> <b_epik_Metal_Only>
0

> <s_lp_Force_Field>
OPLS_2005

> <r_lp_Energy>
42.8142

> <b_lp_Chiralities_Consistent>
1

> <s_lp_Variant>
AV-unprocessed.smi:1240-6

> <Gold.Version>
5.8.1

> <Gold.Id.Protein>
6NUR|6NUR_protein|mol2

> <Gold.PLP.Fitness>
41.6169

> <Gold.PLP.PLP>
-34.0149

> <Gold.PLP.part.hbond>
-3.8272

> <Gold.PLP.part.metal>
0.0000

> <Gold.PLP.part.buried>
-5.7370

> <Gold.PLP.part.nonpolar>
-29.3067

> <Gold.PLP.part.repulsive>
3.7542

> <Gold.PLP.ligand.clash>
0.0000

> <Gold.PLP.ligand.torsion>
1.4160

> <Gold.PLP.Chemscore.Hbond>
2.5909

> <Gold.PLP.Chemscore.CHOScore>
0.8001

> <Gold.PLP.Chemscore.Metal>
0.0000

> <Gold.Chemscore.Hbonds>
donor molecule, donor type, donor heavy atom, donor atom, acceptor molecule, acceptor atom, score
      L1  H     3    24       P1  7948  0.60
      L1  H    17    43       P1  7948  0.63
      P1  H 10752 10765       L1    14  1.00
      P1  H 10785 10796       L1    21  0.33
      L1  C    20    45       P1 10186  0.80

> <Gold.PLP.Chemscore.Internal.Correction>
0.2608

> <Gold.Rescore>
     Score         DG    S(hbond)    S(metal)    S(lipo)     H(rot)  DE(clash)    DE(int)     intcor
     15.68     -20.27       2.25        0.00      99.45       1.70       1.68       2.91       ----

> <Gold.Chemscore.Fitness>
15.6751

> <Gold.Chemscore.DG>
-20.2652

> <Gold.Chemscore.ZeroCoef>
-5.4800

> <Gold.Chemscore.Hbond>
2.2478

> <Gold.Chemscore.Metal>
0.0000

> <Gold.Chemscore.Lipo>
99.4454

> <Gold.Chemscore.Internal_Hbond>
0.0000

> <Gold.Chemscore.DEClash>
1.6837

> <Gold.Chemscore.DEInternal>
2.9064

> <Gold.Chemscore.Rot>
1.7021

> <Gold.Chemscore.Internal.Correction>
   9.000000E+99

> <Gold.Chemscore.Hbonds>
donor molecule, donor type, donor heavy atom, donor atom, acceptor molecule, acceptor atom, score
      L1  H     3    24       P1  7948  0.60
      L1  H    17    43       P1  7948  0.46
      P1  H 10752 10765       L1    14  0.95
      P1  H 10785 10796       L1    21  0.21

> <Gold.Chemscore.Hbond.Weighted>
-7.5076

> <Gold.Chemscore.Metal.Weighted>
-0.0000

> <Gold.Chemscore.Lipo.Weighted>
-11.6351

> <Gold.Chemscore.Internal_Hbond.Weighted>
0.0000

> <Gold.Chemscore.DEClash.Weighted>
1.6837

> <Gold.Chemscore.DEInternal.Weighted>
2.9064

> <Gold.Chemscore.Rot.Weighted>
4.3575

> <Gold.Chemscore.Internal.Correction.Weighted>
   9.000000E+99

> <Gold.Protein.RotatedTorsions>
[ 6907 6896 6895 6894 ] final -133.29 input  -60.11 | X-H torsion
[ 7974 7965 7964 7962 ] final   14.55 input  175.53 | X-H torsion
[ 8008 7997 7996 7995 ] final   46.31 input   59.86 | X-H torsion
[ 10167 10162 10161 10158 ] final  -62.67 input  -65.29 | X-H torsion
[ 10718 10713 10712 10709 ] final  -65.75 input   66.30 | X-H torsion
[ 10763 10752 10751 10750 ] final  174.02 input  -60.55 | X-H torsion
[ 11005 11000 10999 10996 ] final -149.07 input  -57.11 | X-H torsion

> <Gold.Protein.ActiveResidues>
 VAL166  LYS551  ARG553  GLY616  TRP617  ASP618  TYR619  PRO620  LYS621  CYS622 
 ASP623  PHE694  ASN695  SER759  ASP760  ASP761  ALA762  ILE779  LEU786  VAL792 
 PHE793  MET794  SER795  GLU796  ALA797  LYS798  CYS799  TRP800  GLU811  SER814 

> <Gold.Protein.RotatedAtoms>
  150.9723  133.6331  159.2735 H   0  0  0  0  0  0  0  0  0  0  0  0  # atno 6907 bound_to 6896
  151.3615  135.0904  159.9446 H   0  0  0  0  0  0  0  0  0  0  0  0  # atno 6908 bound_to 6896
  152.5187  133.9296  159.7628 H   0  0  0  0  0  0  0  0  0  0  0  0  # atno 6909 bound_to 6896
  146.2302  139.9024  142.8537 H   0  0  0  0  0  0  0  0  0  0  0  0  # atno 7974 bound_to 7965
  155.3504  140.3413  155.4239 H   0  0  0  0  0  0  0  0  0  0  0  0  # atno 8008 bound_to 7997
  156.1767  140.1650  156.8385 H   0  0  0  0  0  0  0  0  0  0  0  0  # atno 8009 bound_to 7997
  154.5289  140.0749  156.8292 H   0  0  0  0  0  0  0  0  0  0  0  0  # atno 8010 bound_to 7997
  140.5923  143.2344  151.6112 H   0  0  0  0  0  0  0  0  0  0  0  0  # atno 10167 bound_to 10162
  156.0652  130.4252  150.1608 H   0  0  0  0  0  0  0  0  0  0  0  0  # atno 10718 bound_to 10713
  154.4482  135.2764  155.1800 H   0  0  0  0  0  0  0  0  0  0  0  0  # atno 10763 bound_to 10752
  154.3638  135.6123  153.5708 H   0  0  0  0  0  0  0  0  0  0  0  0  # atno 10764 bound_to 10752
  152.9845  135.5841  154.4822 H   0  0  0  0  0  0  0  0  0  0  0  0  # atno 10765 bound_to 10752
  140.7546  134.3368  157.5117 H   0  0  0  0  0  0  0  0  0  0  0  0  # atno 11005 bound_to 11000
  145.2310  140.9973  143.3991 LP  0  0  0  0  0  0  0  0  0  0  0  0  # atno 17320 bound_to 7965
  144.9531  139.4061  143.6393 LP  0  0  0  0  0  0  0  0  0  0  0  0  # atno 17321 bound_to 7965
  139.5236  144.3129  152.0977 LP  0  0  0  0  0  0  0  0  0  0  0  0  # atno 17342 bound_to 10162
  140.2296  144.4382  150.6306 LP  0  0  0  0  0  0  0  0  0  0  0  0  # atno 17343 bound_to 10162
  156.9670  130.9822  151.3467 LP  0  0  0  0  0  0  0  0  0  0  0  0  # atno 17370 bound_to 10713
  157.5688  130.8296  149.8364 LP  0  0  0  0  0  0  0  0  0  0  0  0  # atno 17371 bound_to 10713
  139.8781  134.9163  156.3152 LP  0  0  0  0  0  0  0  0  0  0  0  0  # atno 17394 bound_to 11000
  140.9719  133.7322  156.0547 LP  0  0  0  0  0  0  0  0  0  0  0  0  # atno 17395 bound_to 11000

$$$$
