AV-unprocessed.smi:707|AV-procd|sdf|3455|dock7
  -GOLD-   22720 0443D 1   1.00000     0.00000
 Structure written by MMmdl.
 44 45  0  0  0  0  0  0  0  0  1 V2000
  146.6984  142.2880  157.7643 C   0  0  0  0  0  0  0  0  0  0  0  0
  145.4644  142.7621  157.0675 C   0  0  0  0  0  0  0  0  0  0  0  0
  144.5427  143.5466  157.6383 N   0  0  0  0  0  0  0  0  0  0  0  0
  143.5794  143.7521  156.6702 N   0  0  0  0  0  0  0  0  0  0  0  0
  144.0165  143.0703  155.6121 C   0  0  0  0  0  0  0  0  0  0  0  0
  145.1820  142.4301  155.7914 N   0  0  0  0  0  0  0  0  0  0  0  0
  145.9186  141.6115  154.8465 C   0  0  0  0  0  0  0  0  0  0  0  0
  147.1724  142.3318  154.3327 C   0  0  0  0  0  0  0  0  0  0  0  0
  148.3152  142.0393  155.1857 N   0  0  0  0  0  0  0  0  0  0  0  0
  149.4009  141.3576  154.7925 C   0  0  0  0  0  0  0  0  0  0  0  0
  149.5432  140.9103  153.6549 O   0  0  0  0  0  0  0  0  0  0  0  0
  150.5019  141.1643  155.8337 C   0  0  0  0  0  0  0  0  0  0  0  0
  150.2113  141.9691  156.9691 O   0  0  0  0  0  0  0  0  0  0  0  0
  151.3502  142.5750  157.5669 C   0  0  2  0  0  0  0  0  0  0  0  0
  152.1300  141.5588  158.4262 C   0  0  0  0  0  0  0  0  0  0  0  0
  153.2848  142.2375  159.1789 C   0  0  0  0  0  0  0  0  0  0  0  0
  152.7827  143.4117  160.0339 C   0  0  0  0  0  0  0  0  0  0  0  0
  152.0037  144.4349  159.1855 C   0  0  2  0  0  0  0  0  0  0  0  0
  151.4972  145.6045  160.0415 C   0  0  0  0  0  0  0  0  0  0  0  0
  150.8487  143.7418  158.4362 C   0  0  0  0  0  0  0  0  0  0  0  0
  146.7612  142.7190  158.7639 H   0  0  0  0  0  0  0  0  0  0  0  0
  147.5861  142.5838  157.2054 H   0  0  0  0  0  0  0  0  0  0  0  0
  146.6841  141.2019  157.8561 H   0  0  0  0  0  0  0  0  0  0  0  0
  143.4719  143.0378  154.6798 H   0  0  0  0  0  0  0  0  0  0  0  0
  146.1849  140.6702  155.3289 H   0  0  0  0  0  0  0  0  0  0  0  0
  145.2561  141.3632  154.0159 H   0  0  0  0  0  0  0  0  0  0  0  0
  147.3971  142.0165  153.3126 H   0  0  0  0  0  0  0  0  0  0  0  0
  147.0018  143.4093  154.3070 H   0  0  0  0  0  0  0  0  0  0  0  0
  148.2792  142.3696  156.1394 H   0  0  0  0  0  0  0  0  0  0  0  0
  150.5627  140.1097  156.1032 H   0  0  0  0  0  0  0  0  0  0  0  0
  151.4583  141.4527  155.3952 H   0  0  0  0  0  0  0  0  0  0  0  0
  152.0028  142.9824  156.7923 H   0  0  0  0  0  0  0  0  0  0  0  0
  151.4541  141.0894  159.1422 H   0  0  0  0  0  0  0  0  0  0  0  0
  152.5307  140.7560  157.8080 H   0  0  0  0  0  0  0  0  0  0  0  0
  153.7943  141.5097  159.8110 H   0  0  0  0  0  0  0  0  0  0  0  0
  154.0249  142.5971  158.4630 H   0  0  0  0  0  0  0  0  0  0  0  0
  152.1445  143.0318  160.8328 H   0  0  0  0  0  0  0  0  0  0  0  0
  153.6297  143.8971  160.5201 H   0  0  0  0  0  0  0  0  0  0  0  0
  152.6880  144.8458  158.4416 H   0  0  0  0  0  0  0  0  0  0  0  0
  150.8010  145.2629  160.8082 H   0  0  0  0  0  0  0  0  0  0  0  0
  150.9814  146.3445  159.4289 H   0  0  0  0  0  0  0  0  0  0  0  0
  152.3226  146.1106  160.5431 H   0  0  0  0  0  0  0  0  0  0  0  0
  150.3272  144.4651  157.8084 H   0  0  0  0  0  0  0  0  0  0  0  0
  150.1151  143.3725  159.1547 H   0  0  0  0  0  0  0  0  0  0  0  0
  1  2  1  0  0  0  0
  1 21  1  0  0  0  0
  1 22  1  0  0  0  0
  1 23  1  0  0  0  0
  2  6  1  0  0  0  0
  2  3  2  0  0  0  0
  3  4  1  0  0  0  0
  4  5  2  0  0  0  0
  5  6  1  0  0  0  0
  5 24  1  0  0  0  0
  6  7  1  0  0  0  0
  7  8  1  0  0  0  0
  7 25  1  0  0  0  0
  7 26  1  0  0  0  0
  8  9  1  0  0  0  0
  8 27  1  0  0  0  0
  8 28  1  0  0  0  0
  9 10  1  0  0  0  0
  9 29  1  0  0  0  0
 10 11  2  0  0  0  0
 10 12  1  0  0  0  0
 12 13  1  0  0  0  0
 12 30  1  0  0  0  0
 12 31  1  0  0  0  0
 13 14  1  0  0  0  0
 14 20  1  0  0  0  0
 14 15  1  0  0  0  0
 14 32  1  0  0  0  0
 15 16  1  0  0  0  0
 15 33  1  0  0  0  0
 15 34  1  0  0  0  0
 16 17  1  0  0  0  0
 16 35  1  0  0  0  0
 16 36  1  0  0  0  0
 17 18  1  0  0  0  0
 17 37  1  0  0  0  0
 17 38  1  0  0  0  0
 18 19  1  0  0  0  0
 18 20  1  0  0  0  0
 18 39  1  0  0  0  0
 19 40  1  0  0  0  0
 19 41  1  0  0  0  0
 19 42  1  0  0  0  0
 20 43  1  0  0  0  0
 20 44  1  0  0  0  0
M  END
> <s_m_source_file>
AV-unprocessed.smi

> <i_m_source_file_index>
707

> <i_lp_mmshare_version>
43012

> <i_f3d_flags>
0

> <s_epik_input>
W0NIM11jMW5uW2NIXW4xW0NIMl1bQ0gyXVtOSF1DKD1PKVtDSDJdT1tDQEBIXTJbQ0gyXVtDSDJdW0NIMl1bQ0BASF0oW0NIM10pW0NIMl0y

> <s_epik_cmdline>
J2VwaWtfcHl0aG9uJywgJy1waCcsICc3LjAnLCAnLXRuJywgJzgnLCAnLW1hJywgJzIwMCcsICctbWV0YWxfYmluZGluZycsICctaW1hZScsICc8aW5maWxlLm1hZT4nLCAnLW9tYWUnLCAnPG91dGZpbGUubWFlPic=

> <r_lp_tautomer_probability>
1

> <r_epik_Ionization_Penalty>
0.000271783

> <r_epik_Ionization_Penalty_Charging>
0

> <r_epik_Ionization_Penalty_Neutral>
0.000271783

> <r_epik_State_Penalty>
-0

> <r_epik_Charging_Adjusted_Penalty>
0

> <i_epik_Tot_Q>
0

> <i_epik_Tot_abs_Q>
0

> <r_epik_Metal_State_Penalty>
-0

> <b_epik_Metal_Only>
0

> <s_lp_Force_Field>
OPLS_2005

> <r_lp_Energy>
13.3138

> <b_lp_Chiralities_Consistent>
1

> <s_lp_Variant>
AV-unprocessed.smi:707-3

> <Gold.Version>
5.8.1

> <Gold.Id.Protein>
6NUR|6NUR_protein|mol2

> <Gold.PLP.Fitness>
46.4025

> <Gold.PLP.PLP>
-40.9489

> <Gold.PLP.part.hbond>
-3.0000

> <Gold.PLP.part.metal>
0.0000

> <Gold.PLP.part.buried>
-4.7374

> <Gold.PLP.part.nonpolar>
-36.3395

> <Gold.PLP.part.repulsive>
3.8271

> <Gold.PLP.ligand.clash>
0.0000

> <Gold.PLP.ligand.torsion>
0.8711

> <Gold.PLP.Chemscore.Hbond>
1.3877

> <Gold.PLP.Chemscore.CHOScore>
1.0000

> <Gold.PLP.Chemscore.Metal>
0.0000

> <Gold.Chemscore.Hbonds>
donor molecule, donor type, donor heavy atom, donor atom, acceptor molecule, acceptor atom, score
      P1  H  7989  7998       L1    11  0.33
      P1  H  8011  8017       L1    11  1.00
      L1  C     5    24       P1 10174  0.52

> <Gold.PLP.Chemscore.Internal.Correction>
0.0326

> <Gold.Rescore>
     Score         DG    S(hbond)    S(metal)    S(lipo)     H(rot)  DE(clash)    DE(int)     intcor
     10.80     -13.46       0.80        0.00      98.38       2.42       1.68       0.98       ----

> <Gold.Chemscore.Fitness>
10.7977

> <Gold.Chemscore.DG>
-13.4589

> <Gold.Chemscore.ZeroCoef>
-5.4800

> <Gold.Chemscore.Hbond>
0.7968

> <Gold.Chemscore.Metal>
0.0000

> <Gold.Chemscore.Lipo>
98.3808

> <Gold.Chemscore.Internal_Hbond>
0.0000

> <Gold.Chemscore.DEClash>
1.6806

> <Gold.Chemscore.DEInternal>
0.9806

> <Gold.Chemscore.Rot>
2.4191

> <Gold.Chemscore.Internal.Correction>
   9.000000E+99

> <Gold.Chemscore.Hbonds>
donor molecule, donor type, donor heavy atom, donor atom, acceptor molecule, acceptor atom, score
      P1  H  7989  7998       L1    11  0.11
      P1  H  8011  8017       L1    11  0.71

> <Gold.Chemscore.Hbond.Weighted>
-2.6612

> <Gold.Chemscore.Metal.Weighted>
-0.0000

> <Gold.Chemscore.Lipo.Weighted>
-11.5106

> <Gold.Chemscore.Internal_Hbond.Weighted>
0.0000

> <Gold.Chemscore.DEClash.Weighted>
1.6806

> <Gold.Chemscore.DEInternal.Weighted>
0.9806

> <Gold.Chemscore.Rot.Weighted>
6.1929

> <Gold.Chemscore.Internal.Correction.Weighted>
   9.000000E+99

> <Gold.Protein.RotatedTorsions>
[ 6907 6896 6895 6894 ] final  -29.77 input  -60.11 | X-H torsion
[ 7974 7965 7964 7962 ] final  -63.74 input  175.53 | X-H torsion
[ 8008 7997 7996 7995 ] final  -46.29 input   59.86 | X-H torsion
[ 10167 10162 10161 10158 ] final -108.41 input  -65.29 | X-H torsion
[ 10718 10713 10712 10709 ] final   22.62 input   66.30 | X-H torsion
[ 10763 10752 10751 10750 ] final -134.73 input  -60.55 | X-H torsion
[ 11005 11000 10999 10996 ] final -138.51 input  -57.11 | X-H torsion

> <Gold.Protein.ActiveResidues>
 VAL166  LYS551  ARG553  GLY616  TRP617  ASP618  TYR619  PRO620  LYS621  CYS622 
 ASP623  PHE694  ASN695  SER759  ASP760  ASP761  ALA762  ILE779  LEU786  VAL792 
 PHE793  MET794  SER795  GLU796  ALA797  LYS798  CYS799  TRP800  GLU811  SER814 

> <Gold.Protein.RotatedAtoms>
  151.1147  135.0046  159.8510 H   0  0  0  0  0  0  0  0  0  0  0  0  # atno 6907 bound_to 6896
  152.5445  134.1794  159.8639 H   0  0  0  0  0  0  0  0  0  0  0  0  # atno 6908 bound_to 6896
  151.1847  133.4659  159.2627 H   0  0  0  0  0  0  0  0  0  0  0  0  # atno 6909 bound_to 6896
  145.7753  140.8791  143.0358 H   0  0  0  0  0  0  0  0  0  0  0  0  # atno 7974 bound_to 7965
  154.4006  140.1375  156.3987 H   0  0  0  0  0  0  0  0  0  0  0  0  # atno 8008 bound_to 7997
  155.7845  140.3480  155.5295 H   0  0  0  0  0  0  0  0  0  0  0  0  # atno 8009 bound_to 7997
  155.8640  140.0961  157.1584 H   0  0  0  0  0  0  0  0  0  0  0  0  # atno 8010 bound_to 7997
  140.1664  143.4078  152.1387 H   0  0  0  0  0  0  0  0  0  0  0  0  # atno 10167 bound_to 10162
  157.1548  130.6690  149.6024 H   0  0  0  0  0  0  0  0  0  0  0  0  # atno 10718 bound_to 10713
  154.8714  135.3725  154.4783 H   0  0  0  0  0  0  0  0  0  0  0  0  # atno 10763 bound_to 10752
  153.5438  135.7026  153.5629 H   0  0  0  0  0  0  0  0  0  0  0  0  # atno 10764 bound_to 10752
  153.3778  135.4004  155.1800 H   0  0  0  0  0  0  0  0  0  0  0  0  # atno 10765 bound_to 10752
  140.8608  134.2171  157.4708 H   0  0  0  0  0  0  0  0  0  0  0  0  # atno 11005 bound_to 11000
  144.6805  139.9913  143.7484 LP  0  0  0  0  0  0  0  0  0  0  0  0  # atno 17320 bound_to 7965
  146.0129  139.3185  143.0860 LP  0  0  0  0  0  0  0  0  0  0  0  0  # atno 17321 bound_to 7965
  139.5357  144.7207  151.4900 LP  0  0  0  0  0  0  0  0  0  0  0  0  # atno 17342 bound_to 10162
  140.6610  143.8498  150.6888 LP  0  0  0  0  0  0  0  0  0  0  0  0  # atno 17343 bound_to 10162
  155.9764  130.4732  150.6525 LP  0  0  0  0  0  0  0  0  0  0  0  0  # atno 17370 bound_to 10713
  157.4187  131.0834  151.1152 LP  0  0  0  0  0  0  0  0  0  0  0  0  # atno 17371 bound_to 10713
  139.8707  134.9729  156.4788 LP  0  0  0  0  0  0  0  0  0  0  0  0  # atno 17394 bound_to 11000
  140.8684  133.8006  155.9339 LP  0  0  0  0  0  0  0  0  0  0  0  0  # atno 17395 bound_to 11000

$$$$
