AV-unprocessed.smi:1610|AV-procd|sdf|6472|dock5
  -GOLD-   22720 7133D 1   1.00000     0.00000
 Structure written by MMmdl.
 43 44  0  0  0  0  0  0  0  0  2 V2000
  142.5972  145.7046  154.1515 C   0  0  0  0  0  0  0  0  0  0  0  0
  144.3579  146.2252  154.1972 S   0  0  0  0  0  0  0  0  0  0  0  0
  144.8658  146.0405  152.8283 O   0  0  0  0  0  0  0  0  0  0  0  0
  144.3554  147.5947  154.7357 O   0  0  0  0  0  0  0  0  0  0  0  0
  144.9579  145.1391  155.2403 N   0  5  0  0  0  0  0  0  0  0  0  0
  145.1236  143.7498  154.8372 C   0  0  0  0  0  0  0  0  0  0  0  0
  145.6348  142.9128  156.0422 C   0  0  0  0  0  0  0  0  0  0  0  0
  146.1135  141.4863  155.6536 C   0  0  0  0  0  0  0  0  0  0  0  0
  147.1638  141.5675  154.6175 N   0  0  0  0  0  0  0  0  0  0  0  0
  148.5022  141.4697  154.8112 C   0  0  0  0  0  0  0  0  0  0  0  0
  149.3192  141.5235  153.8907 O   0  0  0  0  0  0  0  0  0  0  0  0
  148.8742  141.3683  156.0995 N   0  0  0  0  0  0  0  0  0  0  0  0
  150.2358  141.5337  156.6047 C   0  0  0  0  0  0  0  0  0  0  0  0
  150.3042  142.6023  157.7157 C   0  0  0  0  0  0  0  0  0  0  0  0
  151.4205  142.3899  158.7299 C   0  0  0  0  0  0  0  0  0  0  0  0
  151.7942  143.4073  159.6338 C   0  0  0  0  0  0  0  0  0  0  0  0
  152.8019  143.1404  160.5803 C   0  0  0  0  0  0  0  0  0  0  0  0
  153.4081  141.8687  160.5749 C   0  0  0  0  0  0  0  0  0  0  0  0
  153.0779  140.8955  159.6995 N   0  0  0  0  0  0  0  0  0  0  0  0
  152.1026  141.1561  158.8028 C   0  0  0  0  0  0  0  0  0  0  0  0
  146.5926  142.1579  153.3946 C   0  0  0  0  0  0  0  0  0  0  0  0
  146.1444  143.6221  153.6697 C   0  0  0  0  0  0  0  0  0  0  0  0
  142.0479  146.3498  153.4669 H   0  0  0  0  0  0  0  0  0  0  0  0
  142.1690  145.7856  155.1502 H   0  0  0  0  0  0  0  0  0  0  0  0
  142.5324  144.6721  153.8096 H   0  0  0  0  0  0  0  0  0  0  0  0
  144.1805  143.3094  154.5114 H   0  0  0  0  0  0  0  0  0  0  0  0
  146.4686  143.4305  156.5156 H   0  0  0  0  0  0  0  0  0  0  0  0
  144.8535  142.8439  156.7998 H   0  0  0  0  0  0  0  0  0  0  0  0
  146.4383  140.9532  156.5470 H   0  0  0  0  0  0  0  0  0  0  0  0
  145.2802  140.8936  155.2703 H   0  0  0  0  0  0  0  0  0  0  0  0
  148.1406  141.3147  156.7911 H   0  0  0  0  0  0  0  0  0  0  0  0
  150.5948  140.5770  156.9847 H   0  0  0  0  0  0  0  0  0  0  0  0
  150.9180  141.8116  155.8002 H   0  0  0  0  0  0  0  0  0  0  0  0
  150.4377  143.5808  157.2527 H   0  0  0  0  0  0  0  0  0  0  0  0
  149.3522  142.6464  158.2453 H   0  0  0  0  0  0  0  0  0  0  0  0
  151.3032  144.3689  159.6186 H   0  0  0  0  0  0  0  0  0  0  0  0
  153.0982  143.8894  161.2992 H   0  0  0  0  0  0  0  0  0  0  0  0
  154.1804  141.6279  161.2905 H   0  0  0  0  0  0  0  0  0  0  0  0
  151.8535  140.3485  158.1307 H   0  0  0  0  0  0  0  0  0  0  0  0
  147.3003  142.1451  152.5646 H   0  0  0  0  0  0  0  0  0  0  0  0
  145.7506  141.5503  153.0560 H   0  0  0  0  0  0  0  0  0  0  0  0
  145.7202  144.0433  152.7583 H   0  0  0  0  0  0  0  0  0  0  0  0
  147.0313  144.2175  153.8940 H   0  0  0  0  0  0  0  0  0  0  0  0
  1  2  1  0  0  0  0
  1 23  1  0  0  0  0
  1 24  1  0  0  0  0
  1 25  1  0  0  0  0
  2  3  2  0  0  0  0
  2  4  2  0  0  0  0
  2  5  1  0  0  0  0
  5  6  1  0  0  0  0
  6 22  1  0  0  0  0
  6  7  1  0  0  0  0
  6 26  1  0  0  0  0
  7  8  1  0  0  0  0
  7 27  1  0  0  0  0
  7 28  1  0  0  0  0
  8  9  1  0  0  0  0
  8 29  1  0  0  0  0
  8 30  1  0  0  0  0
  9 10  1  0  0  0  0
  9 21  1  0  0  0  0
 10 11  2  0  0  0  0
 10 12  1  0  0  0  0
 12 13  1  0  0  0  0
 12 31  1  0  0  0  0
 13 14  1  0  0  0  0
 13 32  1  0  0  0  0
 13 33  1  0  0  0  0
 14 15  1  0  0  0  0
 14 34  1  0  0  0  0
 14 35  1  0  0  0  0
 15 20  1  0  0  0  0
 15 16  2  0  0  0  0
 16 17  1  0  0  0  0
 16 36  1  0  0  0  0
 17 18  2  0  0  0  0
 17 37  1  0  0  0  0
 18 19  1  0  0  0  0
 18 38  1  0  0  0  0
 19 20  2  0  0  0  0
 20 39  1  0  0  0  0
 21 22  1  0  0  0  0
 21 40  1  0  0  0  0
 21 41  1  0  0  0  0
 22 42  1  0  0  0  0
 22 43  1  0  0  0  0
M  CHG  1   5  -1
M  END
> <s_m_source_file>
AV-unprocessed.smi

> <i_m_source_file_index>
1610

> <i_lp_mmshare_version>
43012

> <i_f3d_flags>
0

> <s_epik_input>
W0NIM11TKD1PKSg9TylbTkhdW0NIXTFbQ0gyXVtDSDJdTihbQ0gyXVtDSDJdMSlDKD1PKVtOSF1bQ0gyXVtDSDJdYzJbY0hdW2NIXVtjSF1uW2NIXTI=

> <s_epik_cmdline>
J2VwaWtfcHl0aG9uJywgJy1waCcsICc3LjAnLCAnLXRuJywgJzgnLCAnLW1hJywgJzIwMCcsICctbWV0YWxfYmluZGluZycsICctaW1hZScsICc8aW5maWxlLm1hZT4nLCAnLW9tYWUnLCAnPG91dGZpbGUubWFlPic=

> <r_epik_Ionization_Penalty>
6.72257

> <r_epik_Ionization_Penalty_Charging>
6.70803

> <r_epik_Ionization_Penalty_Neutral>
0.0145361

> <r_epik_State_Penalty>
6.71933

> <r_epik_Charging_Adjusted_Penalty>
13.4274

> <i_epik_Tot_Q>
-1

> <i_epik_Tot_abs_Q>
1

> <r_epik_Metal_State_Penalty>
2.65475

> <b_epik_Metal_Only>
1

> <s_lp_Force_Field>
OPLS_2005

> <r_lp_Energy>
25.1746

> <b_lp_Chiralities_Consistent>
1

> <s_lp_Variant>
AV-unprocessed.smi:1610-3

> <Gold.Version>
5.8.1

> <Gold.Id.Protein>
6NUR|6NUR_protein|mol2

> <Gold.PLP.Fitness>
43.6384

> <Gold.PLP.PLP>
-42.5684

> <Gold.PLP.part.hbond>
-4.7930

> <Gold.PLP.part.metal>
0.0000

> <Gold.PLP.part.buried>
-6.3833

> <Gold.PLP.part.nonpolar>
-31.8787

> <Gold.PLP.part.repulsive>
0.4966

> <Gold.PLP.ligand.clash>
0.0000

> <Gold.PLP.ligand.torsion>
0.9558

> <Gold.PLP.Chemscore.Hbond>
0.6400

> <Gold.PLP.Chemscore.CHOScore>
0.0000

> <Gold.PLP.Chemscore.Metal>
0.0000

> <Gold.Chemscore.Hbonds>
donor molecule, donor type, donor heavy atom, donor atom, acceptor molecule, acceptor atom, score
      P1  H  7989  7998       L1    11  0.02
      P1  H  8011  8017       L1    11  0.70

> <Gold.PLP.Chemscore.Internal.Correction>
1.0616

> <Gold.Rescore>
     Score         DG    S(hbond)    S(metal)    S(lipo)     H(rot)  DE(clash)    DE(int)     intcor
     12.84     -14.55       0.74        0.00      93.26       1.68       0.27       1.44       ----

> <Gold.Chemscore.Fitness>
12.8435

> <Gold.Chemscore.DG>
-14.5500

> <Gold.Chemscore.ZeroCoef>
-5.4800

> <Gold.Chemscore.Hbond>
0.7375

> <Gold.Chemscore.Metal>
0.0000

> <Gold.Chemscore.Lipo>
93.2557

> <Gold.Chemscore.Internal_Hbond>
0.0000

> <Gold.Chemscore.DEClash>
0.2701

> <Gold.Chemscore.DEInternal>
1.4364

> <Gold.Chemscore.Rot>
1.6813

> <Gold.Chemscore.Internal.Correction>
   9.000000E+99

> <Gold.Chemscore.Hbonds>
donor molecule, donor type, donor heavy atom, donor atom, acceptor molecule, acceptor atom, score
      P1  H  7989  7998       L1    11  0.03
      P1  H  8011  8017       L1    11  0.70

> <Gold.Chemscore.Hbond.Weighted>
-2.4633

> <Gold.Chemscore.Metal.Weighted>
-0.0000

> <Gold.Chemscore.Lipo.Weighted>
-10.9109

> <Gold.Chemscore.Internal_Hbond.Weighted>
0.0000

> <Gold.Chemscore.DEClash.Weighted>
0.2701

> <Gold.Chemscore.DEInternal.Weighted>
1.4364

> <Gold.Chemscore.Rot.Weighted>
4.3042

> <Gold.Chemscore.Internal.Correction.Weighted>
   9.000000E+99

> <Gold.Protein.RotatedTorsions>
[ 6907 6896 6895 6894 ] final -118.22 input  -60.11 | X-H torsion
[ 7974 7965 7964 7962 ] final   44.41 input  175.53 | X-H torsion
[ 8008 7997 7996 7995 ] final  -99.06 input   59.86 | X-H torsion
[ 10167 10162 10161 10158 ] final -107.30 input  -65.29 | X-H torsion
[ 10718 10713 10712 10709 ] final  -52.32 input   66.30 | X-H torsion
[ 10763 10752 10751 10750 ] final  -78.87 input  -60.55 | X-H torsion
[ 11005 11000 10999 10996 ] final   47.58 input  -57.11 | X-H torsion

> <Gold.Protein.ActiveResidues>
 VAL166  LYS551  ARG553  GLY616  TRP617  ASP618  TYR619  PRO620  LYS621  CYS622 
 ASP623  PHE694  ASN695  SER759  ASP760  ASP761  ALA762  ILE779  LEU786  VAL792 
 PHE793  MET794  SER795  GLU796  ALA797  LYS798  CYS799  TRP800  GLU811  SER814 

> <Gold.Protein.RotatedAtoms>
  150.8201  133.8267  159.3142 H   0  0  0  0  0  0  0  0  0  0  0  0  # atno 6907 bound_to 6896
  151.6028  135.1044  160.0073 H   0  0  0  0  0  0  0  0  0  0  0  0  # atno 6908 bound_to 6896
  152.4291  133.7205  159.6587 H   0  0  0  0  0  0  0  0  0  0  0  0  # atno 6909 bound_to 6896
  146.0571  139.5078  142.9682 H   0  0  0  0  0  0  0  0  0  0  0  0  # atno 7974 bound_to 7965
  154.8097  140.0450  157.1334 H   0  0  0  0  0  0  0  0  0  0  0  0  # atno 8008 bound_to 7997
  154.9382  140.3049  155.5113 H   0  0  0  0  0  0  0  0  0  0  0  0  # atno 8009 bound_to 7997
  156.2970  140.2310  156.4449 H   0  0  0  0  0  0  0  0  0  0  0  0  # atno 8010 bound_to 7997
  140.1785  143.3986  152.1300 H   0  0  0  0  0  0  0  0  0  0  0  0  # atno 10167 bound_to 10162
  156.1632  130.4149  149.9761 H   0  0  0  0  0  0  0  0  0  0  0  0  # atno 10718 bound_to 10713
  154.5314  135.5715  153.6762 H   0  0  0  0  0  0  0  0  0  0  0  0  # atno 10763 bound_to 10752
  152.9940  135.6206  154.2623 H   0  0  0  0  0  0  0  0  0  0  0  0  # atno 10764 bound_to 10752
  154.2550  135.2858  155.2781 H   0  0  0  0  0  0  0  0  0  0  0  0  # atno 10765 bound_to 10752
  140.1267  134.4759  155.8554 H   0  0  0  0  0  0  0  0  0  0  0  0  # atno 11005 bound_to 11000
  145.6625  141.0237  143.1701 LP  0  0  0  0  0  0  0  0  0  0  0  0  # atno 17320 bound_to 7965
  144.7154  139.8216  143.7400 LP  0  0  0  0  0  0  0  0  0  0  0  0  # atno 17321 bound_to 7965
  139.5307  144.7155  151.5068 LP  0  0  0  0  0  0  0  0  0  0  0  0  # atno 17342 bound_to 10162
  140.6535  143.8647  150.6811 LP  0  0  0  0  0  0  0  0  0  0  0  0  # atno 17343 bound_to 10162
  156.7583  130.9141  151.3640 LP  0  0  0  0  0  0  0  0  0  0  0  0  # atno 17370 bound_to 10713
  157.6748  130.9084  150.0125 LP  0  0  0  0  0  0  0  0  0  0  0  0  # atno 17371 bound_to 10713
  141.2162  133.6780  156.6991 LP  0  0  0  0  0  0  0  0  0  0  0  0  # atno 17394 bound_to 11000
  140.2895  134.8252  157.4004 LP  0  0  0  0  0  0  0  0  0  0  0  0  # atno 17395 bound_to 11000

$$$$
