AV-unprocessed.smi:2312|AV-procd|sdf|9263|dock10
  -GOLD-   2272012483D 1   1.00000     0.00000
 Structure written by MMmdl.
 34 35  0  0  0  0  0  0  0  0  1 V2000
  153.7273  141.8510  160.7368 C   0  0  0  0  0  0  0  0  0  0  0  0
  153.6624  142.9028  159.7824 O   0  0  0  0  0  0  0  0  0  0  0  0
  152.3880  143.5280  159.6266 C   0  0  0  0  0  0  0  0  0  0  0  0
  151.2944  142.5145  159.2618 C   0  0  0  0  0  0  0  0  0  0  0  0
  151.4979  142.0018  157.9136 N   0  0  0  0  0  0  0  0  0  0  0  0
  151.3641  140.7169  157.5628 C   0  0  0  0  0  0  0  0  0  0  0  0
  151.0669  139.8241  158.3569 O   0  0  0  0  0  0  0  0  0  0  0  0
  151.5878  140.5456  156.2489 N   0  0  0  0  0  0  0  0  0  0  0  0
  151.5483  139.3331  155.5099 C   0  0  0  0  0  0  0  0  0  0  0  0
  150.9909  139.1618  154.3152 N   0  0  0  0  0  0  0  0  0  0  0  0
  151.2542  137.8344  154.1292 C   0  0  0  0  0  0  0  0  0  0  0  0
  151.9150  137.2258  155.1143 N   0  0  0  0  0  0  0  0  0  0  0  0
  152.1003  138.2236  156.0099 N   0  0  0  0  0  0  0  0  0  0  0  0
  152.7957  137.9833  157.2597 C   0  0  0  0  0  0  0  0  0  0  0  0
  152.1470  144.4288  160.8527 C   0  0  0  0  0  0  0  0  0  0  0  0
  151.6933  145.5374  159.9012 C   0  0  0  0  0  0  0  0  0  0  0  0
  152.4970  144.8306  158.8088 C   0  0  0  0  0  0  0  0  0  0  0  0
  154.7144  141.3914  160.6944 H   0  0  0  0  0  0  0  0  0  0  0  0
  152.9913  141.0720  160.5373 H   0  0  0  0  0  0  0  0  0  0  0  0
  153.5845  142.2169  161.7532 H   0  0  0  0  0  0  0  0  0  0  0  0
  151.3064  141.6791  159.9635 H   0  0  0  0  0  0  0  0  0  0  0  0
  150.3009  142.9572  159.3390 H   0  0  0  0  0  0  0  0  0  0  0  0
  151.7420  142.6755  157.2025 H   0  0  0  0  0  0  0  0  0  0  0  0
  151.8061  141.3743  155.7160 H   0  0  0  0  0  0  0  0  0  0  0  0
  150.9483  137.3000  153.2418 H   0  0  0  0  0  0  0  0  0  0  0  0
  152.0795  137.9790  158.0817 H   0  0  0  0  0  0  0  0  0  0  0  0
  153.5308  138.7701  157.4302 H   0  0  0  0  0  0  0  0  0  0  0  0
  153.3109  137.0224  157.2314 H   0  0  0  0  0  0  0  0  0  0  0  0
  151.3737  144.0785  161.5370 H   0  0  0  0  0  0  0  0  0  0  0  0
  153.0641  144.6860  161.3862 H   0  0  0  0  0  0  0  0  0  0  0  0
  150.6184  145.5239  159.7140 H   0  0  0  0  0  0  0  0  0  0  0  0
  152.0496  146.5355  160.1580 H   0  0  0  0  0  0  0  0  0  0  0  0
  153.5171  145.2114  158.7339 H   0  0  0  0  0  0  0  0  0  0  0  0
  152.0076  144.8021  157.8348 H   0  0  0  0  0  0  0  0  0  0  0  0
  1  2  1  0  0  0  0
  1 18  1  0  0  0  0
  1 19  1  0  0  0  0
  1 20  1  0  0  0  0
  2  3  1  0  0  0  0
  3 17  1  0  0  0  0
  3  4  1  0  0  0  0
  3 15  1  0  0  0  0
  4  5  1  0  0  0  0
  4 21  1  0  0  0  0
  4 22  1  0  0  0  0
  5  6  1  0  0  0  0
  5 23  1  0  0  0  0
  6  7  2  0  0  0  0
  6  8  1  0  0  0  0
  8  9  1  0  0  0  0
  8 24  1  0  0  0  0
  9 13  1  0  0  0  0
  9 10  2  0  0  0  0
 10 11  1  0  0  0  0
 11 12  2  0  0  0  0
 11 25  1  0  0  0  0
 12 13  1  0  0  0  0
 13 14  1  0  0  0  0
 14 26  1  0  0  0  0
 14 27  1  0  0  0  0
 14 28  1  0  0  0  0
 15 16  1  0  0  0  0
 15 29  1  0  0  0  0
 15 30  1  0  0  0  0
 16 17  1  0  0  0  0
 16 31  1  0  0  0  0
 16 32  1  0  0  0  0
 17 33  1  0  0  0  0
 17 34  1  0  0  0  0
M  END
> <s_m_source_file>
AV-unprocessed.smi

> <i_m_source_file_index>
2312

> <i_lp_mmshare_version>
43012

> <i_f3d_flags>
0

> <s_epik_input>
W0NIMl0xW0NIMl1bQ0gyXUMxKE9bQ0gzXSlbQ0gyXVtOSF1DKD1PKVtOSF1jMm5bY0hdbm4yW0NIM10=

> <s_epik_cmdline>
J2VwaWtfcHl0aG9uJywgJy1waCcsICc3LjAnLCAnLXRuJywgJzgnLCAnLW1hJywgJzIwMCcsICctbWV0YWxfYmluZGluZycsICctaW1hZScsICc8aW5maWxlLm1hZT4nLCAnLW9tYWUnLCAnPG91dGZpbGUubWFlPic=

> <r_lp_tautomer_probability>
1

> <r_epik_Ionization_Penalty>
2.1066e-05

> <r_epik_Ionization_Penalty_Charging>
0

> <r_epik_Ionization_Penalty_Neutral>
2.1066e-05

> <r_epik_State_Penalty>
-0

> <r_epik_Charging_Adjusted_Penalty>
0

> <i_epik_Tot_Q>
0

> <i_epik_Tot_abs_Q>
0

> <r_epik_Metal_State_Penalty>
-0

> <b_epik_Metal_Only>
0

> <s_lp_Force_Field>
OPLS_2005

> <r_lp_Energy>
16.1455

> <b_lp_Chiralities_Consistent>
1

> <s_lp_Variant>
AV-unprocessed.smi:2312-1

> <Gold.Version>
5.8.1

> <Gold.Id.Protein>
6NUR|6NUR_protein|mol2

> <Gold.PLP.Fitness>
43.4084

> <Gold.PLP.PLP>
-35.9614

> <Gold.PLP.part.hbond>
-2.0000

> <Gold.PLP.part.metal>
0.0000

> <Gold.PLP.part.buried>
-4.7611

> <Gold.PLP.part.nonpolar>
-29.3971

> <Gold.PLP.part.repulsive>
0.4517

> <Gold.PLP.ligand.clash>
0.0000

> <Gold.PLP.ligand.torsion>
0.6367

> <Gold.PLP.Chemscore.Hbond>
1.7480

> <Gold.PLP.Chemscore.CHOScore>
1.0706

> <Gold.PLP.Chemscore.Metal>
0.0000

> <Gold.Chemscore.Hbonds>
donor molecule, donor type, donor heavy atom, donor atom, acceptor molecule, acceptor atom, score
      P1  H  7989  7998       L1    10  0.90
      P1  H 10752 10764       L1    12  0.83
      L1  C    11    25       P1  7948  0.08
      L1  C    11    25       P1  7949  0.99

> <Gold.PLP.Chemscore.Internal.Correction>
0.2647

> <Gold.Rescore>
     Score         DG    S(hbond)    S(metal)    S(lipo)     H(rot)  DE(clash)    DE(int)     intcor
     12.07     -13.01       0.93        0.00      75.13       1.71       0.02       0.92       ----

> <Gold.Chemscore.Fitness>
12.0711

> <Gold.Chemscore.DG>
-13.0099

> <Gold.Chemscore.ZeroCoef>
-5.4800

> <Gold.Chemscore.Hbond>
0.9301

> <Gold.Chemscore.Metal>
0.0000

> <Gold.Chemscore.Lipo>
75.1312

> <Gold.Chemscore.Internal_Hbond>
0.0000

> <Gold.Chemscore.DEClash>
0.0174

> <Gold.Chemscore.DEInternal>
0.9214

> <Gold.Chemscore.Rot>
1.7059

> <Gold.Chemscore.Internal.Correction>
   9.000000E+99

> <Gold.Chemscore.Hbonds>
donor molecule, donor type, donor heavy atom, donor atom, acceptor molecule, acceptor atom, score
      P1  H  7989  7998       L1    10  0.17
      P1  H 10752 10764       L1    12  0.54

> <Gold.Chemscore.Hbond.Weighted>
-3.1065

> <Gold.Chemscore.Metal.Weighted>
-0.0000

> <Gold.Chemscore.Lipo.Weighted>
-8.7904

> <Gold.Chemscore.Internal_Hbond.Weighted>
0.0000

> <Gold.Chemscore.DEClash.Weighted>
0.0174

> <Gold.Chemscore.DEInternal.Weighted>
0.9214

> <Gold.Chemscore.Rot.Weighted>
4.3670

> <Gold.Chemscore.Internal.Correction.Weighted>
   9.000000E+99

> <Gold.Protein.RotatedTorsions>
[ 6907 6896 6895 6894 ] final -137.66 input  -60.11 | X-H torsion
[ 7974 7965 7964 7962 ] final -163.04 input  175.53 | X-H torsion
[ 8008 7997 7996 7995 ] final  111.31 input   59.86 | X-H torsion
[ 10167 10162 10161 10158 ] final -116.78 input  -65.29 | X-H torsion
[ 10718 10713 10712 10709 ] final   20.83 input   66.30 | X-H torsion
[ 10763 10752 10751 10750 ] final  -75.58 input  -60.55 | X-H torsion
[ 11005 11000 10999 10996 ] final  -94.79 input  -57.11 | X-H torsion

> <Gold.Protein.ActiveResidues>
 VAL166  LYS551  ARG553  GLY616  TRP617  ASP618  TYR619  PRO620  LYS621  CYS622 
 ASP623  PHE694  ASN695  SER759  ASP760  ASP761  ALA762  ILE779  LEU786  VAL792 
 PHE793  MET794  SER795  GLU796  ALA797  LYS798  CYS799  TRP800  GLU811  SER814 

> <Gold.Protein.RotatedAtoms>
  151.0252  133.5840  159.2666 H   0  0  0  0  0  0  0  0  0  0  0  0  # atno 6907 bound_to 6896
  151.2942  135.0749  159.9225 H   0  0  0  0  0  0  0  0  0  0  0  0  # atno 6908 bound_to 6896
  152.5332  133.9946  159.7920 H   0  0  0  0  0  0  0  0  0  0  0  0  # atno 6909 bound_to 6896
  144.7338  140.3165  143.6178 H   0  0  0  0  0  0  0  0  0  0  0  0  # atno 7974 bound_to 7965
  156.2115  140.3022  155.9743 H   0  0  0  0  0  0  0  0  0  0  0  0  # atno 8008 bound_to 7997
  155.2712  140.0434  157.3024 H   0  0  0  0  0  0  0  0  0  0  0  0  # atno 8009 bound_to 7997
  154.5706  140.2347  155.8206 H   0  0  0  0  0  0  0  0  0  0  0  0  # atno 8010 bound_to 7997
  140.0755  143.4837  152.1956 H   0  0  0  0  0  0  0  0  0  0  0  0  # atno 10167 bound_to 10162
  157.1299  130.6586  149.5949 H   0  0  0  0  0  0  0  0  0  0  0  0  # atno 10718 bound_to 10713
  154.4884  135.5826  153.6441 H   0  0  0  0  0  0  0  0  0  0  0  0  # atno 10763 bound_to 10752
  152.9858  135.6107  154.3156 H   0  0  0  0  0  0  0  0  0  0  0  0  # atno 10764 bound_to 10752
  154.3053  135.2846  155.2571 H   0  0  0  0  0  0  0  0  0  0  0  0  # atno 10765 bound_to 10752
  141.1460  133.7980  157.0346 H   0  0  0  0  0  0  0  0  0  0  0  0  # atno 11005 bound_to 11000
  145.7612  139.1825  143.2266 LP  0  0  0  0  0  0  0  0  0  0  0  0  # atno 17320 bound_to 7965
  146.0985  140.7572  142.9560 LP  0  0  0  0  0  0  0  0  0  0  0  0  # atno 17321 bound_to 7965
  139.5811  144.7510  151.3639 LP  0  0  0  0  0  0  0  0  0  0  0  0  # atno 17342 bound_to 10162
  140.7104  143.7405  150.7557 LP  0  0  0  0  0  0  0  0  0  0  0  0  # atno 17343 bound_to 10162
  155.9810  130.4814  150.6804 LP  0  0  0  0  0  0  0  0  0  0  0  0  # atno 17370 bound_to 10713
  157.4401  131.0860  151.0952 LP  0  0  0  0  0  0  0  0  0  0  0  0  # atno 17371 bound_to 10713
  140.0732  134.9690  157.1502 LP  0  0  0  0  0  0  0  0  0  0  0  0  # atno 17394 bound_to 11000
  140.3681  134.2420  155.7180 LP  0  0  0  0  0  0  0  0  0  0  0  0  # atno 17395 bound_to 11000

$$$$
