AV-unprocessed.smi:3058|AV-procd|sdf|11675|dock10
  -GOLD-   2272017 83D 1   1.00000     0.00000
 Structure written by MMmdl.
 39 41  0  0  0  0  0  0  0  0  2 V2000
  155.3486  139.9564  163.6080 O   0  0  0  0  0  0  0  0  0  0  0  0
  154.9008  139.2747  162.6851 C   0  0  0  0  0  0  0  0  0  0  0  0
  154.0301  139.7529  161.7828 N   0  0  0  0  0  0  0  0  0  0  0  0
  153.5142  141.1163  161.7600 C   0  0  0  0  0  0  0  0  0  0  0  0
  153.6122  141.7349  160.3556 C   0  0  0  0  0  0  0  0  0  0  0  0
  152.8534  143.0433  160.2534 C   0  0  0  0  0  0  0  0  0  0  0  0
  153.0701  143.9152  159.1635 C   0  0  0  0  0  0  0  0  0  0  0  0
  152.3481  145.1248  159.0920 C   0  0  0  0  0  0  0  0  0  0  0  0
  151.4246  145.4346  160.1115 C   0  0  0  0  0  0  0  0  0  0  0  0
  151.2433  144.5750  161.1384 N   0  3  0  0  0  0  0  0  0  0  0  0
  151.9153  143.4075  161.2436 C   0  0  0  0  0  0  0  0  0  0  0  0
  155.2955  137.7956  162.5262 C   0  0  2  0  0  0  0  0  0  0  0  0
  154.4772  137.0173  161.4659 C   0  0  0  0  0  0  0  0  0  0  0  0
  153.9772  135.7880  162.2482 C   0  0  2  0  0  0  0  0  0  0  0  0
  152.8669  136.2167  163.2257 C   0  0  0  0  0  0  0  0  0  0  0  0
  153.6508  136.9534  164.3272 C   0  0  0  0  0  0  0  0  0  0  0  0
  155.1001  136.9210  163.7933 C   0  0  1  0  0  0  0  0  0  0  0  0
  155.1448  135.5196  163.1908 C   0  0  0  0  0  0  0  0  0  0  0  0
  153.7050  139.1274  161.0596 H   0  0  0  0  0  0  0  0  0  0  0  0
  152.4816  141.1285  162.1139 H   0  0  0  0  0  0  0  0  0  0  0  0
  154.0926  141.7087  162.4692 H   0  0  0  0  0  0  0  0  0  0  0  0
  154.6571  141.9088  160.0950 H   0  0  0  0  0  0  0  0  0  0  0  0
  153.2213  141.0434  159.6076 H   0  0  0  0  0  0  0  0  0  0  0  0
  153.7801  143.6607  158.3896 H   0  0  0  0  0  0  0  0  0  0  0  0
  152.5006  145.8046  158.2662 H   0  0  0  0  0  0  0  0  0  0  0  0
  150.8297  146.3360  160.1363 H   0  0  0  0  0  0  0  0  0  0  0  0
  151.6823  142.8046  162.1094 H   0  0  0  0  0  0  0  0  0  0  0  0
  156.3480  137.7549  162.2383 H   0  0  0  0  0  0  0  0  0  0  0  0
  153.6526  137.5818  161.0283 H   0  0  0  0  0  0  0  0  0  0  0  0
  155.1256  136.7078  160.6452 H   0  0  0  0  0  0  0  0  0  0  0  0
  153.6967  134.9496  161.6101 H   0  0  0  0  0  0  0  0  0  0  0  0
  152.1229  136.8553  162.7480 H   0  0  0  0  0  0  0  0  0  0  0  0
  152.3501  135.3492  163.6377 H   0  0  0  0  0  0  0  0  0  0  0  0
  153.2712  137.9554  164.5227 H   0  0  0  0  0  0  0  0  0  0  0  0
  153.5843  136.4015  165.2657 H   0  0  0  0  0  0  0  0  0  0  0  0
  155.8516  137.0992  164.5629 H   0  0  0  0  0  0  0  0  0  0  0  0
  154.9439  134.7274  163.9146 H   0  0  0  0  0  0  0  0  0  0  0  0
  156.0788  135.2985  162.6710 H   0  0  0  0  0  0  0  0  0  0  0  0
  150.5694  144.8179  161.8652 H   0  0  0  0  0  0  0  0  0  0  0  0
  1  2  2  0  0  0  0
  2  3  1  0  0  0  0
  2 12  1  0  0  0  0
  3  4  1  0  0  0  0
  3 19  1  0  0  0  0
  4  5  1  0  0  0  0
  4 20  1  0  0  0  0
  4 21  1  0  0  0  0
  5  6  1  0  0  0  0
  5 22  1  0  0  0  0
  5 23  1  0  0  0  0
  6 11  1  0  0  0  0
  6  7  2  0  0  0  0
  7  8  1  0  0  0  0
  7 24  1  0  0  0  0
  8  9  2  0  0  0  0
  8 25  1  0  0  0  0
  9 10  1  0  0  0  0
  9 26  1  0  0  0  0
 10 11  2  0  0  0  0
 10 39  1  0  0  0  0
 11 27  1  0  0  0  0
 12 17  1  0  0  0  0
 12 13  1  0  0  0  0
 12 28  1  0  0  0  0
 13 14  1  0  0  0  0
 13 29  1  0  0  0  0
 13 30  1  0  0  0  0
 14 18  1  0  0  0  0
 14 15  1  0  0  0  0
 14 31  1  0  0  0  0
 15 16  1  0  0  0  0
 15 32  1  0  0  0  0
 15 33  1  0  0  0  0
 16 17  1  0  0  0  0
 16 34  1  0  0  0  0
 16 35  1  0  0  0  0
 17 18  1  0  0  0  0
 17 36  1  0  0  0  0
 18 37  1  0  0  0  0
 18 38  1  0  0  0  0
M  CHG  1  10   1
M  END
> <s_m_source_file>
AV-unprocessed.smi

> <i_m_source_file_index>
3058

> <i_lp_mmshare_version>
43012

> <i_f3d_flags>
0

> <s_epik_input>
W0NIMl0xW0NIMl1bQ0BIXShbQ0gyXTIpW0NAQEhdKFtDSDJdW0NAQEhdMTIpQyg9TylbTkhdW0NIMl1bQ0gyXWMzW2NIXVtjSF1bY0hdbltjSF0z

> <s_epik_cmdline>
J2VwaWtfcHl0aG9uJywgJy1waCcsICc3LjAnLCAnLXRuJywgJzgnLCAnLW1hJywgJzIwMCcsICctbWV0YWxfYmluZGluZycsICctaW1hZScsICc8aW5maWxlLm1hZT4nLCAnLW9tYWUnLCAnPG91dGZpbGUubWFlPic=

> <r_epik_Ionization_Penalty>
2.24375

> <r_epik_Ionization_Penalty_Charging>
2.24375

> <r_epik_Ionization_Penalty_Neutral>
1.89995e-08

> <r_epik_State_Penalty>
2.39035

> <r_epik_Charging_Adjusted_Penalty>
4.63411

> <i_epik_Tot_Q>
1

> <i_epik_Tot_abs_Q>
1

> <r_epik_Metal_State_Penalty>
2.40369

> <b_epik_Metal_Only>
0

> <s_lp_Force_Field>
OPLS_2005

> <r_lp_Energy>
54.0755

> <b_lp_Chiralities_Consistent>
1

> <s_lp_Variant>
AV-unprocessed.smi:3058-7

> <Gold.Version>
5.8.1

> <Gold.Id.Protein>
6NUR|6NUR_protein|mol2

> <Gold.PLP.Fitness>
47.7016

> <Gold.PLP.PLP>
-48.4917

> <Gold.PLP.part.hbond>
-2.0000

> <Gold.PLP.part.metal>
0.0000

> <Gold.PLP.part.buried>
-5.4894

> <Gold.PLP.part.nonpolar>
-40.0640

> <Gold.PLP.part.repulsive>
0.0866

> <Gold.PLP.ligand.clash>
0.0000

> <Gold.PLP.ligand.torsion>
0.4007

> <Gold.PLP.Chemscore.Hbond>
0.0000

> <Gold.PLP.Chemscore.CHOScore>
0.0000

> <Gold.PLP.Chemscore.Metal>
0.0000

> <Gold.PLP.Chemscore.Internal.Correction>
0.0113

> <Gold.Rescore>
     Score         DG    S(hbond)    S(metal)    S(lipo)     H(rot)  DE(clash)    DE(int)     intcor
     16.28     -17.03       0.00        0.00     130.53       1.45       0.16       0.59       ----

> <Gold.Chemscore.Fitness>
16.2783

> <Gold.Chemscore.DG>
-17.0278

> <Gold.Chemscore.ZeroCoef>
-5.4800

> <Gold.Chemscore.Hbond>
0.0000

> <Gold.Chemscore.Metal>
0.0000

> <Gold.Chemscore.Lipo>
130.5299

> <Gold.Chemscore.Internal_Hbond>
0.0000

> <Gold.Chemscore.DEClash>
0.1628

> <Gold.Chemscore.DEInternal>
0.5867

> <Gold.Chemscore.Rot>
1.4548

> <Gold.Chemscore.Internal.Correction>
   9.000000E+99

> <Gold.Chemscore.Hbond.Weighted>
-0.0000

> <Gold.Chemscore.Metal.Weighted>
-0.0000

> <Gold.Chemscore.Lipo.Weighted>
-15.2720

> <Gold.Chemscore.Internal_Hbond.Weighted>
0.0000

> <Gold.Chemscore.DEClash.Weighted>
0.1628

> <Gold.Chemscore.DEInternal.Weighted>
0.5867

> <Gold.Chemscore.Rot.Weighted>
3.7242

> <Gold.Chemscore.Internal.Correction.Weighted>
   9.000000E+99

> <Gold.Protein.RotatedTorsions>
[ 6907 6896 6895 6894 ] final  -10.77 input  -60.11 | X-H torsion
[ 7974 7965 7964 7962 ] final -160.55 input  175.53 | X-H torsion
[ 8008 7997 7996 7995 ] final   98.38 input   59.86 | X-H torsion
[ 10167 10162 10161 10158 ] final -107.33 input  -65.29 | X-H torsion
[ 10718 10713 10712 10709 ] final  124.95 input   66.30 | X-H torsion
[ 10763 10752 10751 10750 ] final   39.22 input  -60.55 | X-H torsion
[ 11005 11000 10999 10996 ] final  115.27 input  -57.11 | X-H torsion

> <Gold.Protein.ActiveResidues>
 VAL166  LYS551  ARG553  GLY616  TRP617  ASP618  TYR619  PRO620  LYS621  CYS622 
 ASP623  PHE694  ASN695  SER759  ASP760  ASP761  ALA762  ILE779  LEU786  VAL792 
 PHE793  MET794  SER795  GLU796  ALA797  LYS798  CYS799  TRP800  GLU811  SER814 

> <Gold.Protein.RotatedAtoms>
  151.3967  135.0964  159.9542 H   0  0  0  0  0  0  0  0  0  0  0  0  # atno 6907 bound_to 6896
  152.5063  133.8927  159.7412 H   0  0  0  0  0  0  0  0  0  0  0  0  # atno 6908 bound_to 6896
  150.9393  133.6619  159.2822 H   0  0  0  0  0  0  0  0  0  0  0  0  # atno 6909 bound_to 6896
  144.7423  140.3525  143.6113 H   0  0  0  0  0  0  0  0  0  0  0  0  # atno 7974 bound_to 7965
  156.0998  140.3244  155.7927 H   0  0  0  0  0  0  0  0  0  0  0  0  # atno 8008 bound_to 7997
  155.4856  140.0557  157.2978 H   0  0  0  0  0  0  0  0  0  0  0  0  # atno 8009 bound_to 7997
  154.4689  140.2002  156.0060 H   0  0  0  0  0  0  0  0  0  0  0  0  # atno 8010 bound_to 7997
  140.1781  143.3988  152.1302 H   0  0  0  0  0  0  0  0  0  0  0  0  # atno 10167 bound_to 10162
  157.5543  131.1092  150.8649 H   0  0  0  0  0  0  0  0  0  0  0  0  # atno 10718 bound_to 10713
  152.9974  135.6227  154.2429 H   0  0  0  0  0  0  0  0  0  0  0  0  # atno 10763 bound_to 10752
  154.2170  135.2797  155.2940 H   0  0  0  0  0  0  0  0  0  0  0  0  # atno 10764 bound_to 10752
  154.5560  135.5719  153.7023 H   0  0  0  0  0  0  0  0  0  0  0  0  # atno 10765 bound_to 10752
  139.9005  134.9581  156.7020 H   0  0  0  0  0  0  0  0  0  0  0  0  # atno 11005 bound_to 11000
  145.7261  139.1723  143.2457 LP  0  0  0  0  0  0  0  0  0  0  0  0  # atno 17320 bound_to 7965
  146.1241  140.7271  142.9443 LP  0  0  0  0  0  0  0  0  0  0  0  0  # atno 17321 bound_to 7965
  139.5308  144.7156  151.5064 LP  0  0  0  0  0  0  0  0  0  0  0  0  # atno 17342 bound_to 10162
  140.6537  143.8643  150.6813 LP  0  0  0  0  0  0  0  0  0  0  0  0  # atno 17343 bound_to 10162
  156.9165  130.5299  149.5279 LP  0  0  0  0  0  0  0  0  0  0  0  0  # atno 17370 bound_to 10713
  156.0604  130.5658  150.9181 LP  0  0  0  0  0  0  0  0  0  0  0  0  # atno 17371 bound_to 10713
  140.7143  133.9196  155.8105 LP  0  0  0  0  0  0  0  0  0  0  0  0  # atno 17394 bound_to 11000
  141.0276  134.0801  157.4051 LP  0  0  0  0  0  0  0  0  0  0  0  0  # atno 17395 bound_to 11000

$$$$
