AV-unprocessed.smi:278|AV-procd|sdf|2089|dock7
  -GOLD-   2262021363D 1   1.00000     0.00000
 Structure written by MMmdl.
 50 54  0  0  0  0  0  0  0  0  1 V2000
  145.1763  135.9270  159.9763 O   0  0  0  0  0  0  0  0  0  0  0  0
  146.0342  136.2741  161.1200 S   0  0  0  0  0  0  0  0  0  0  0  0
  146.1468  137.6627  161.5909 O   0  0  0  0  0  0  0  0  0  0  0  0
  145.6323  135.1755  162.5195 C   0  0  0  0  0  0  0  0  0  0  0  0
  146.3056  133.8436  162.1666 C   0  0  0  0  0  0  0  0  0  0  0  0
  147.6396  134.1156  161.4247 C   0  0  1  0  0  0  0  0  0  0  0  0
  147.8644  133.2397  160.1866 C   0  0  0  0  0  0  0  0  0  0  0  0
  148.6190  134.0691  159.2605 N   0  0  0  0  0  0  0  0  0  0  0  0
  148.6696  133.6105  157.9916 C   0  0  0  0  0  0  0  0  0  0  0  0
  149.9005  133.3785  157.4740 N   0  0  0  0  0  0  0  0  0  0  0  0
  150.0247  132.9210  156.2241 C   0  0  0  0  0  0  0  0  0  0  0  0
  149.0666  132.6339  155.3400 N   0  0  0  0  0  0  0  0  0  0  0  0
  147.8271  132.8676  155.8593 C   0  0  0  0  0  0  0  0  0  0  0  0
  147.5379  133.3517  157.1660 C   0  0  0  0  0  0  0  0  0  0  0  0
  146.1624  133.4615  157.3359 N   0  0  0  0  0  0  0  0  0  0  0  0
  145.6674  133.0673  156.1942 C   0  0  0  0  0  0  0  0  0  0  0  0
  146.5974  132.6935  155.2507 N   0  0  0  0  0  0  0  0  0  0  0  0
  146.3334  132.2150  153.9052 C   0  0  0  0  0  0  0  0  0  0  0  0
  147.1116  133.0057  152.8350 C   0  0  2  0  0  0  0  0  0  0  0  0
  147.2228  134.3559  153.2442 O   0  0  0  0  0  0  0  0  0  0  0  0
  146.4234  132.9567  151.4583 C   0  0  1  0  0  0  0  0  0  0  0  0
  145.9185  131.5739  151.0509 C   0  0  0  0  0  0  0  0  0  0  0  0
  144.8939  131.9087  149.9865 C   0  0  0  0  0  0  0  0  0  0  0  0
  144.3717  133.2815  150.4178 C   0  0  0  0  0  0  0  0  0  0  0  0
  145.2256  133.7210  151.4704 O   0  0  0  0  0  0  0  0  0  0  0  0
  148.1300  135.4320  159.4110 C   0  0  0  0  0  0  0  0  0  0  0  0
  147.7017  135.5519  160.8792 C   0  0  1  0  0  0  0  0  0  0  0  0
  148.4753  133.9821  162.1130 H   0  0  0  0  0  0  0  0  0  0  0  0
  148.4164  136.1400  161.4558 H   0  0  0  0  0  0  0  0  0  0  0  0
  146.0671  135.6035  163.4231 H   0  0  0  0  0  0  0  0  0  0  0  0
  144.5525  135.0972  162.6453 H   0  0  0  0  0  0  0  0  0  0  0  0
  146.4580  133.2262  163.0521 H   0  0  0  0  0  0  0  0  0  0  0  0
  145.6277  133.2885  161.5172 H   0  0  0  0  0  0  0  0  0  0  0  0
  148.4134  132.3311  160.4356 H   0  0  0  0  0  0  0  0  0  0  0  0
  146.9149  132.9440  159.7401 H   0  0  0  0  0  0  0  0  0  0  0  0
  151.0373  132.7620  155.8836 H   0  0  0  0  0  0  0  0  0  0  0  0
  144.6037  133.0407  156.0078 H   0  0  0  0  0  0  0  0  0  0  0  0
  146.6025  131.1588  153.8660 H   0  0  0  0  0  0  0  0  0  0  0  0
  145.2602  132.2699  153.7175 H   0  0  0  0  0  0  0  0  0  0  0  0
  148.1193  132.5975  152.7468 H   0  0  0  0  0  0  0  0  0  0  0  0
  147.9437  134.7517  152.7788 H   0  0  0  0  0  0  0  0  0  0  0  0
  147.0823  133.3539  150.6836 H   0  0  0  0  0  0  0  0  0  0  0  0
  146.7108  130.9197  150.6857 H   0  0  0  0  0  0  0  0  0  0  0  0
  145.4315  131.0825  151.8945 H   0  0  0  0  0  0  0  0  0  0  0  0
  145.3787  131.9848  149.0124 H   0  0  0  0  0  0  0  0  0  0  0  0
  144.1050  131.1598  149.9134 H   0  0  0  0  0  0  0  0  0  0  0  0
  144.3988  133.9895  149.5890 H   0  0  0  0  0  0  0  0  0  0  0  0
  143.3460  133.2265  150.7832 H   0  0  0  0  0  0  0  0  0  0  0  0
  148.9226  136.1434  159.1779 H   0  0  0  0  0  0  0  0  0  0  0  0
  147.3028  135.6332  158.7314 H   0  0  0  0  0  0  0  0  0  0  0  0
  1  2  2  0  0  0  0
  2 27  1  0  0  0  0
  2  3  2  0  0  0  0
  2  4  1  0  0  0  0
  4  5  1  0  0  0  0
  4 30  1  0  0  0  0
  4 31  1  0  0  0  0
  5  6  1  0  0  0  0
  5 32  1  0  0  0  0
  5 33  1  0  0  0  0
  6 28  1  0  0  0  0
  6 27  1  0  0  0  0
  6  7  1  0  0  0  0
  7  8  1  0  0  0  0
  7 34  1  0  0  0  0
  7 35  1  0  0  0  0
  8  9  1  0  0  0  0
  8 26  1  0  0  0  0
  9 14  1  0  0  0  0
  9 10  2  0  0  0  0
 10 11  1  0  0  0  0
 11 12  2  0  0  0  0
 11 36  1  0  0  0  0
 12 13  1  0  0  0  0
 13 17  1  0  0  0  0
 13 14  2  0  0  0  0
 14 15  1  0  0  0  0
 15 16  2  0  0  0  0
 16 17  1  0  0  0  0
 16 37  1  0  0  0  0
 17 18  1  0  0  0  0
 18 19  1  0  0  0  0
 18 38  1  0  0  0  0
 18 39  1  0  0  0  0
 19 20  1  0  0  0  0
 19 21  1  0  0  0  0
 19 40  1  0  0  0  0
 20 41  1  0  0  0  0
 21 25  1  0  0  0  0
 21 22  1  0  0  0  0
 21 42  1  0  0  0  0
 22 23  1  0  0  0  0
 22 43  1  0  0  0  0
 22 44  1  0  0  0  0
 23 24  1  0  0  0  0
 23 45  1  0  0  0  0
 23 46  1  0  0  0  0
 24 25  1  0  0  0  0
 24 47  1  0  0  0  0
 24 48  1  0  0  0  0
 26 27  1  0  0  0  0
 26 49  1  0  0  0  0
 26 50  1  0  0  0  0
 27 29  1  0  0  0  0
M  END
> <s_m_source_file>
AV-unprocessed.smi

> <i_m_source_file_index>
278

> <i_lp_mmshare_version>
43012

> <i_f3d_flags>
0

> <s_epik_input>
W0NIMl0xW0NIMl1TKD1PKSg9TylbQ0BASF0oW0NAQEhdMTIpW0NIMl1OKFtDSDJdMiljKG5bY0hdbjMpYyhjMzQpbltjSF1uNFtDSDJdW0NASF0oW09IXSlbQ0BASF01W0NIMl1bQ0gyXVtDSDJdTzU=

> <s_epik_cmdline>
J2VwaWtfcHl0aG9uJywgJy1waCcsICc3LjAnLCAnLXRuJywgJzgnLCAnLW1hJywgJzIwMCcsICctbWV0YWxfYmluZGluZycsICctaW1hZScsICc8aW5maWxlLm1hZT4nLCAnLW9tYWUnLCAnPG91dGZpbGUubWFlPic=

> <r_lp_tautomer_probability>
1

> <r_epik_Ionization_Penalty>
0.000636766

> <r_epik_Ionization_Penalty_Charging>
0

> <r_epik_Ionization_Penalty_Neutral>
0.000636766

> <r_epik_State_Penalty>
0.000329976

> <r_epik_Charging_Adjusted_Penalty>
0.000329976

> <i_epik_Tot_Q>
0

> <i_epik_Tot_abs_Q>
0

> <r_epik_Metal_State_Penalty>
-0

> <b_epik_Metal_Only>
0

> <s_lp_Force_Field>
OPLS_2005

> <r_lp_Energy>
53.1939

> <b_lp_Chiralities_Consistent>
1

> <s_lp_Variant>
AV-unprocessed.smi:278-3

> <Gold.Version>
5.8.1

> <Gold.Id.Protein>
6NUR|6NUR_protein|mol2

> <Gold.PLP.Fitness>
45.1746

> <Gold.PLP.PLP>
-35.1120

> <Gold.PLP.part.hbond>
-4.0000

> <Gold.PLP.part.metal>
0.0000

> <Gold.PLP.part.buried>
-6.1912

> <Gold.PLP.part.nonpolar>
-25.7445

> <Gold.PLP.part.repulsive>
0.1276

> <Gold.PLP.ligand.clash>
0.0000

> <Gold.PLP.ligand.torsion>
0.5513

> <Gold.PLP.Chemscore.Hbond>
2.8873

> <Gold.PLP.Chemscore.CHOScore>
0.8139

> <Gold.PLP.Chemscore.Metal>
0.0000

> <Gold.Chemscore.Hbonds>
donor molecule, donor type, donor heavy atom, donor atom, acceptor molecule, acceptor atom, score
      L1  H    20    41       P1  7948  1.00
      P1  H  6896  6908       L1    10  0.81
      P1  H  6934  6947       L1     3  0.94
      L1  C    16    37       P1 10957  0.83

> <Gold.PLP.Chemscore.Internal.Correction>
0.0617

> <Gold.Rescore>
     Score         DG    S(hbond)    S(metal)    S(lipo)     H(rot)  DE(clash)    DE(int)     intcor
     16.47     -17.22       2.63        0.00      79.19       2.46       0.21       0.55       ----

> <Gold.Chemscore.Fitness>
16.4722

> <Gold.Chemscore.DG>
-17.2232

> <Gold.Chemscore.ZeroCoef>
-5.4800

> <Gold.Chemscore.Hbond>
2.6302

> <Gold.Chemscore.Metal>
0.0000

> <Gold.Chemscore.Lipo>
79.1900

> <Gold.Chemscore.Internal_Hbond>
0.0000

> <Gold.Chemscore.DEClash>
0.2052

> <Gold.Chemscore.DEInternal>
0.5458

> <Gold.Chemscore.Rot>
2.4636

> <Gold.Chemscore.Internal.Correction>
   9.000000E+99

> <Gold.Chemscore.Hbonds>
donor molecule, donor type, donor heavy atom, donor atom, acceptor molecule, acceptor atom, score
      L1  H    20    41       P1  7948  0.83
      P1  H  6896  6908       L1    10  0.13
      P1  H  6934  6947       L1     3  0.91

> <Gold.Chemscore.Hbond.Weighted>
-8.7848

> <Gold.Chemscore.Metal.Weighted>
-0.0000

> <Gold.Chemscore.Lipo.Weighted>
-9.2652

> <Gold.Chemscore.Internal_Hbond.Weighted>
0.0000

> <Gold.Chemscore.DEClash.Weighted>
0.2052

> <Gold.Chemscore.DEInternal.Weighted>
0.5458

> <Gold.Chemscore.Rot.Weighted>
6.3068

> <Gold.Chemscore.Internal.Correction.Weighted>
   9.000000E+99

> <Gold.Protein.RotatedTorsions>
[ 6907 6896 6895 6894 ] final  103.95 input  -60.11 | X-H torsion
[ 7974 7965 7964 7962 ] final  -36.94 input  175.53 | X-H torsion
[ 8008 7997 7996 7995 ] final -148.76 input   59.86 | X-H torsion
[ 10167 10162 10161 10158 ] final  135.36 input  -65.29 | X-H torsion
[ 10718 10713 10712 10709 ] final  -95.08 input   66.30 | X-H torsion
[ 10763 10752 10751 10750 ] final   79.05 input  -60.55 | X-H torsion
[ 11005 11000 10999 10996 ] final  -94.66 input  -57.11 | X-H torsion

> <Gold.Protein.ActiveResidues>
 VAL166  LYS551  ARG553  GLY616  TRP617  ASP618  TYR619  PRO620  LYS621  CYS622 
 ASP623  PHE694  ASN695  SER759  ASP760  ASP761  ALA762  ILE779  LEU786  VAL792 
 PHE793  MET794  SER795  GLU796  ALA797  LYS798  CYS799  TRP800  GLU811  SER814 

> <Gold.Protein.RotatedAtoms>
  152.5279  133.9749  159.7778 H   0  0  0  0  0  0  0  0  0  0  0  0  # atno 6907 bound_to 6896
  151.0013  133.6045  159.2701 H   0  0  0  0  0  0  0  0  0  0  0  0  # atno 6908 bound_to 6896
  151.3153  135.0811  159.9340 H   0  0  0  0  0  0  0  0  0  0  0  0  # atno 6909 bound_to 6896
  146.0618  140.6337  142.8993 H   0  0  0  0  0  0  0  0  0  0  0  0  # atno 7974 bound_to 7965
  155.5967  140.0658  157.2744 H   0  0  0  0  0  0  0  0  0  0  0  0  # atno 8008 bound_to 7997
  154.4290  140.1825  156.1178 H   0  0  0  0  0  0  0  0  0  0  0  0  # atno 8009 bound_to 7997
  156.0191  140.3318  155.7023 H   0  0  0  0  0  0  0  0  0  0  0  0  # atno 8010 bound_to 7997
  139.5220  144.6521  151.5272 H   0  0  0  0  0  0  0  0  0  0  0  0  # atno 10167 bound_to 10162
  156.0037  130.5094  150.6022 H   0  0  0  0  0  0  0  0  0  0  0  0  # atno 10718 bound_to 10713
  153.0922  135.4854  154.8711 H   0  0  0  0  0  0  0  0  0  0  0  0  # atno 10763 bound_to 10752
  154.7282  135.3054  154.8938 H   0  0  0  0  0  0  0  0  0  0  0  0  # atno 10764 bound_to 10752
  153.9581  135.6815  153.4798 H   0  0  0  0  0  0  0  0  0  0  0  0  # atno 10765 bound_to 10752
  141.1464  133.7972  157.0329 H   0  0  0  0  0  0  0  0  0  0  0  0  # atno 11005 bound_to 11000
  144.7179  140.4274  143.7030 LP  0  0  0  0  0  0  0  0  0  0  0  0  # atno 17320 bound_to 7965
  145.6546  139.1571  143.2842 LP  0  0  0  0  0  0  0  0  0  0  0  0  # atno 17321 bound_to 7965
  140.6330  143.9039  150.6622 LP  0  0  0  0  0  0  0  0  0  0  0  0  # atno 17342 bound_to 10162
  140.2349  143.3707  152.1535 LP  0  0  0  0  0  0  0  0  0  0  0  0  # atno 17343 bound_to 10162
  157.3869  131.0789  151.1428 LP  0  0  0  0  0  0  0  0  0  0  0  0  # atno 17370 bound_to 10713
  157.2132  130.6447  149.5782 LP  0  0  0  0  0  0  0  0  0  0  0  0  # atno 17371 bound_to 10713
  140.0742  134.9685  157.1518 LP  0  0  0  0  0  0  0  0  0  0  0  0  # atno 17394 bound_to 11000
  140.3667  134.2435  155.7181 LP  0  0  0  0  0  0  0  0  0  0  0  0  # atno 17395 bound_to 11000

$$$$
