AV-unprocessed.smi:2293|AV-procd|sdf|9214|dock5
  -GOLD-   2272012433D 1   1.00000     0.00000
 Structure written by MMmdl.
 34 35  0  0  0  0  0  0  0  0  1 V2000
  146.8091  138.7508  152.6761 C   0  0  0  0  0  0  0  0  0  0  0  0
  147.7584  139.4523  153.6317 C   0  0  0  0  0  0  0  0  0  0  0  0
  147.8040  140.8453  153.5236 N   0  0  0  0  0  0  0  0  0  0  0  0
  148.5819  141.5273  154.2992 C   0  0  0  0  0  0  0  0  0  0  0  0
  149.3966  140.9051  155.2593 N   0  0  0  0  0  0  0  0  0  0  0  0
  150.2279  141.7958  156.0865 C   0  0  0  0  0  0  0  0  0  0  0  0
  149.7260  141.8757  157.5457 C   0  0  2  0  0  0  0  0  0  0  0  0
  148.5513  142.6622  157.5782 O   0  0  0  0  0  0  0  0  0  0  0  0
  150.7989  142.4451  158.4615 C   0  0  0  0  0  0  0  0  0  0  0  0
  151.8505  141.6178  158.9110 C   0  0  0  0  0  0  0  0  0  0  0  0
  152.8519  142.1369  159.7548 C   0  0  0  0  0  0  0  0  0  0  0  0
  152.8094  143.4873  160.1513 C   0  0  0  0  0  0  0  0  0  0  0  0
  151.7660  144.3194  159.7015 C   0  0  0  0  0  0  0  0  0  0  0  0
  151.7259  145.6190  160.0795 F   0  0  0  0  0  0  0  0  0  0  0  0
  150.7647  143.8007  158.8578 C   0  0  0  0  0  0  0  0  0  0  0  0
  149.4114  139.5516  155.4326 C   0  0  0  0  0  0  0  0  0  0  0  0
  150.1240  139.0165  156.2846 O   0  0  0  0  0  0  0  0  0  0  0  0
  148.5210  138.7886  154.5429 C   0  0  0  0  0  0  0  0  0  0  0  0
  148.5116  137.2739  154.7077 C   0  0  0  0  0  0  0  0  0  0  0  0
  147.3519  138.0450  152.0468 H   0  0  0  0  0  0  0  0  0  0  0  0
  146.3061  139.4634  152.0212 H   0  0  0  0  0  0  0  0  0  0  0  0
  146.0429  138.2076  153.2300 H   0  0  0  0  0  0  0  0  0  0  0  0
  148.6495  142.6160  154.2596 H   0  0  0  0  0  0  0  0  0  0  0  0
  151.2471  141.4041  156.0791 H   0  0  0  0  0  0  0  0  0  0  0  0
  150.3228  142.7960  155.6582 H   0  0  0  0  0  0  0  0  0  0  0  0
  149.4640  140.8812  157.9091 H   0  0  0  0  0  0  0  0  0  0  0  0
  148.4688  143.1114  156.7508 H   0  0  0  0  0  0  0  0  0  0  0  0
  151.8944  140.5814  158.6092 H   0  0  0  0  0  0  0  0  0  0  0  0
  153.6534  141.4987  160.0967 H   0  0  0  0  0  0  0  0  0  0  0  0
  153.5777  143.8851  160.7979 H   0  0  0  0  0  0  0  0  0  0  0  0
  149.9708  144.4478  158.5142 H   0  0  0  0  0  0  0  0  0  0  0  0
  148.2191  137.0086  155.7242 H   0  0  0  0  0  0  0  0  0  0  0  0
  149.5079  136.8697  154.5251 H   0  0  0  0  0  0  0  0  0  0  0  0
  147.8245  136.7720  154.0284 H   0  0  0  0  0  0  0  0  0  0  0  0
  1  2  1  0  0  0  0
  1 20  1  0  0  0  0
  1 21  1  0  0  0  0
  1 22  1  0  0  0  0
  2 18  2  0  0  0  0
  2  3  1  0  0  0  0
  3  4  2  0  0  0  0
  4  5  1  0  0  0  0
  4 23  1  0  0  0  0
  5  6  1  0  0  0  0
  5 16  1  0  0  0  0
  6  7  1  0  0  0  0
  6 24  1  0  0  0  0
  6 25  1  0  0  0  0
  7  8  1  0  0  0  0
  7  9  1  0  0  0  0
  7 26  1  0  0  0  0
  8 27  1  0  0  0  0
  9 15  1  0  0  0  0
  9 10  2  0  0  0  0
 10 11  1  0  0  0  0
 10 28  1  0  0  0  0
 11 12  2  0  0  0  0
 11 29  1  0  0  0  0
 12 13  1  0  0  0  0
 12 30  1  0  0  0  0
 13 14  1  0  0  0  0
 13 15  2  0  0  0  0
 15 31  1  0  0  0  0
 16 17  2  0  0  0  0
 16 18  1  0  0  0  0
 18 19  1  0  0  0  0
 19 32  1  0  0  0  0
 19 33  1  0  0  0  0
 19 34  1  0  0  0  0
M  END
> <s_m_source_file>
AV-unprocessed.smi

> <i_m_source_file_index>
2293

> <i_lp_mmshare_version>
43012

> <i_f3d_flags>
0

> <s_epik_input>
W0NIM11jMW5bY0hdbihjKD1PKWMxW0NIM10pW0NIMl1bQ0BIXShbT0hdKWMyW2NIXVtjSF1bY0hdYyhGKVtjSF0y

> <s_epik_cmdline>
J2VwaWtfcHl0aG9uJywgJy1waCcsICc3LjAnLCAnLXRuJywgJzgnLCAnLW1hJywgJzIwMCcsICctbWV0YWxfYmluZGluZycsICctaW1hZScsICc8aW5maWxlLm1hZT4nLCAnLW9tYWUnLCAnPG91dGZpbGUubWFlPic=

> <r_lp_tautomer_probability>
1

> <r_epik_Ionization_Penalty>
5.08222e-05

> <r_epik_Ionization_Penalty_Charging>
7.56727e-08

> <r_epik_Ionization_Penalty_Neutral>
5.07465e-05

> <r_epik_State_Penalty>
-0

> <r_epik_Charging_Adjusted_Penalty>
7.56727e-08

> <i_epik_Tot_Q>
0

> <i_epik_Tot_abs_Q>
0

> <r_epik_Metal_State_Penalty>
-0

> <b_epik_Metal_Only>
0

> <s_lp_Force_Field>
OPLS_2005

> <r_lp_Energy>
18.7837

> <b_lp_Chiralities_Consistent>
1

> <s_lp_Variant>
AV-unprocessed.smi:2293-1

> <Gold.Version>
5.8.1

> <Gold.Id.Protein>
6NUR|6NUR_protein|mol2

> <Gold.PLP.Fitness>
42.9543

> <Gold.PLP.PLP>
-38.5474

> <Gold.PLP.part.hbond>
-1.4141

> <Gold.PLP.part.metal>
0.0000

> <Gold.PLP.part.buried>
-1.2792

> <Gold.PLP.part.nonpolar>
-35.8293

> <Gold.PLP.part.repulsive>
0.4992

> <Gold.PLP.ligand.clash>
0.0000

> <Gold.PLP.ligand.torsion>
0.7996

> <Gold.PLP.Chemscore.Hbond>
1.0000

> <Gold.PLP.Chemscore.CHOScore>
1.0000

> <Gold.PLP.Chemscore.Metal>
0.0000

> <Gold.Chemscore.Hbonds>
donor molecule, donor type, donor heavy atom, donor atom, acceptor molecule, acceptor atom, score
      L1  H     8    27       P1  8028  0.96
      L1  C     4    23       P1  8028  1.00

> <Gold.PLP.Chemscore.Internal.Correction>
0.0062

> <Gold.Rescore>
     Score         DG    S(hbond)    S(metal)    S(lipo)     H(rot)  DE(clash)    DE(int)     intcor
     13.16     -13.51       0.69        0.00      93.12       2.02       0.03       0.32       ----

> <Gold.Chemscore.Fitness>
13.1625

> <Gold.Chemscore.DG>
-13.5092

> <Gold.Chemscore.ZeroCoef>
-5.4800

> <Gold.Chemscore.Hbond>
0.6887

> <Gold.Chemscore.Metal>
0.0000

> <Gold.Chemscore.Lipo>
93.1204

> <Gold.Chemscore.Internal_Hbond>
0.0000

> <Gold.Chemscore.DEClash>
0.0263

> <Gold.Chemscore.DEInternal>
0.3204

> <Gold.Chemscore.Rot>
2.0181

> <Gold.Chemscore.Internal.Correction>
   9.000000E+99

> <Gold.Chemscore.Hbonds>
donor molecule, donor type, donor heavy atom, donor atom, acceptor molecule, acceptor atom, score
      L1  H     8    27       P1  8028  0.50

> <Gold.Chemscore.Hbond.Weighted>
-2.3004

> <Gold.Chemscore.Metal.Weighted>
-0.0000

> <Gold.Chemscore.Lipo.Weighted>
-10.8951

> <Gold.Chemscore.Internal_Hbond.Weighted>
0.0000

> <Gold.Chemscore.DEClash.Weighted>
0.0263

> <Gold.Chemscore.DEInternal.Weighted>
0.3204

> <Gold.Chemscore.Rot.Weighted>
5.1663

> <Gold.Chemscore.Internal.Correction.Weighted>
   9.000000E+99

> <Gold.Protein.RotatedTorsions>
[ 6907 6896 6895 6894 ] final   21.98 input  -60.11 | X-H torsion
[ 7974 7965 7964 7962 ] final  102.11 input  175.53 | X-H torsion
[ 8008 7997 7996 7995 ] final   74.89 input   59.86 | X-H torsion
[ 10167 10162 10161 10158 ] final -105.16 input  -65.29 | X-H torsion
[ 10718 10713 10712 10709 ] final -165.87 input   66.30 | X-H torsion
[ 10763 10752 10751 10750 ] final -153.75 input  -60.55 | X-H torsion
[ 11005 11000 10999 10996 ] final  -50.41 input  -57.11 | X-H torsion

> <Gold.Protein.ActiveResidues>
 VAL166  LYS551  ARG553  GLY616  TRP617  ASP618  TYR619  PRO620  LYS621  CYS622 
 ASP623  PHE694  ASN695  SER759  ASP760  ASP761  ALA762  ILE779  LEU786  VAL792 
 PHE793  MET794  SER795  GLU796  ALA797  LYS798  CYS799  TRP800  GLU811  SER814 

> <Gold.Protein.RotatedAtoms>
  151.9202  135.0302  160.0521 H   0  0  0  0  0  0  0  0  0  0  0  0  # atno 6907 bound_to 6896
  152.2206  133.4976  159.5169 H   0  0  0  0  0  0  0  0  0  0  0  0  # atno 6908 bound_to 6896
  150.6999  134.1264  159.4096 H   0  0  0  0  0  0  0  0  0  0  0  0  # atno 6909 bound_to 6896
  145.3635  139.2413  143.3494 H   0  0  0  0  0  0  0  0  0  0  0  0  # atno 7974 bound_to 7965
  155.8050  140.3475  155.5424 H   0  0  0  0  0  0  0  0  0  0  0  0  # atno 8008 bound_to 7997
  155.8499  140.0954  157.1701 H   0  0  0  0  0  0  0  0  0  0  0  0  # atno 8009 bound_to 7997
  154.4007  140.1378  156.3819 H   0  0  0  0  0  0  0  0  0  0  0  0  # atno 8010 bound_to 7997
  140.2015  143.3815  152.1125 H   0  0  0  0  0  0  0  0  0  0  0  0  # atno 10167 bound_to 10162
  156.6597  130.9041  151.3027 H   0  0  0  0  0  0  0  0  0  0  0  0  # atno 10718 bound_to 10713
  154.7907  135.3206  154.7785 H   0  0  0  0  0  0  0  0  0  0  0  0  # atno 10763 bound_to 10752
  153.8474  135.6865  153.4800 H   0  0  0  0  0  0  0  0  0  0  0  0  # atno 10764 bound_to 10752
  153.1575  135.4674  154.9666 H   0  0  0  0  0  0  0  0  0  0  0  0  # atno 10765 bound_to 10752
  141.0814  133.6652  156.3727 H   0  0  0  0  0  0  0  0  0  0  0  0  # atno 11005 bound_to 11000
  146.2917  140.4273  142.8737 LP  0  0  0  0  0  0  0  0  0  0  0  0  # atno 17320 bound_to 7965
  144.8629  140.7165  143.6096 LP  0  0  0  0  0  0  0  0  0  0  0  0  # atno 17321 bound_to 7965
  139.5215  144.7047  151.5390 LP  0  0  0  0  0  0  0  0  0  0  0  0  # atno 17342 bound_to 10162
  140.6387  143.8933  150.6671 LP  0  0  0  0  0  0  0  0  0  0  0  0  # atno 17343 bound_to 10162
  157.7114  130.9444  150.1102 LP  0  0  0  0  0  0  0  0  0  0  0  0  # atno 17370 bound_to 10713
  156.2021  130.3661  149.8775 LP  0  0  0  0  0  0  0  0  0  0  0  0  # atno 17371 bound_to 10713
  140.5460  134.6074  157.5394 LP  0  0  0  0  0  0  0  0  0  0  0  0  # atno 17394 bound_to 11000
  139.9628  134.7423  156.0200 LP  0  0  0  0  0  0  0  0  0  0  0  0  # atno 17395 bound_to 11000

$$$$
