AV-unprocessed.smi:1961|AV-procd|sdf|7919|dock8
  -GOLD-   2272010 83D 1   1.00000     0.00000
 Structure written by MMmdl.
 36 37  0  0  0  0  0  0  0  0  1 V2000
  152.6239  144.6720  157.8748 C   0  0  0  0  0  0  0  0  0  0  0  0
  151.9522  144.4212  159.2326 C   0  0  0  0  0  0  0  0  0  0  0  0
  151.7559  145.7043  160.0532 C   0  0  0  0  0  0  0  0  0  0  0  0
  152.6440  143.3497  160.0171 C   0  0  0  0  0  0  0  0  0  0  0  0
  153.0153  143.5046  161.2953 N   0  0  0  0  0  0  0  0  0  0  0  0
  153.6338  142.3727  161.8072 N   0  0  0  0  0  0  0  0  0  0  0  0
  153.7100  141.3909  160.8987 C   0  0  0  0  0  0  0  0  0  0  0  0
  154.2865  140.1189  161.1564 N   0  0  0  0  0  0  0  0  0  0  0  0
  154.5994  139.1512  160.2768 C   0  0  0  0  0  0  0  0  0  0  0  0
  154.4061  139.2037  159.0620 O   0  0  0  0  0  0  0  0  0  0  0  0
  155.1542  138.0979  160.8939 N   0  0  0  0  0  0  0  0  0  0  0  0
  155.6101  136.8755  160.2395 C   0  0  0  0  0  0  0  0  0  0  0  0
  154.7945  135.6502  160.6858 C   0  0  1  0  0  0  0  0  0  0  0  0
  155.3333  134.3020  160.2066 C   0  0  0  0  0  0  0  0  0  0  0  0
  154.7554  133.3614  161.2386 C   0  0  0  0  0  0  0  0  0  0  0  0
  154.8699  134.1910  162.5142 C   0  0  0  0  0  0  0  0  0  0  0  0
  154.7854  135.5552  162.1078 O   0  0  0  0  0  0  0  0  0  0  0  0
  153.0293  141.7763  159.3274 S   0  0  0  0  0  0  0  0  0  0  0  0
  152.6683  143.7565  157.2839 H   0  0  0  0  0  0  0  0  0  0  0  0
  153.6432  145.0396  157.9975 H   0  0  0  0  0  0  0  0  0  0  0  0
  152.0717  145.4125  157.2956 H   0  0  0  0  0  0  0  0  0  0  0  0
  150.9528  144.0433  159.0128 H   0  0  0  0  0  0  0  0  0  0  0  0
  151.1997  145.5029  160.9692 H   0  0  0  0  0  0  0  0  0  0  0  0
  151.1994  146.4515  159.4869 H   0  0  0  0  0  0  0  0  0  0  0  0
  152.7128  146.1459  160.3338 H   0  0  0  0  0  0  0  0  0  0  0  0
  154.4939  139.9271  162.1252 H   0  0  0  0  0  0  0  0  0  0  0  0
  155.2722  138.1432  161.8953 H   0  0  0  0  0  0  0  0  0  0  0  0
  155.5877  136.9762  159.1530 H   0  0  0  0  0  0  0  0  0  0  0  0
  156.6564  136.7300  160.5086 H   0  0  0  0  0  0  0  0  0  0  0  0
  153.7574  135.7564  160.3628 H   0  0  0  0  0  0  0  0  0  0  0  0
  155.0310  134.0586  159.1876 H   0  0  0  0  0  0  0  0  0  0  0  0
  156.4231  134.2834  160.2547 H   0  0  0  0  0  0  0  0  0  0  0  0
  153.7075  133.1583  161.0140 H   0  0  0  0  0  0  0  0  0  0  0  0
  155.2842  132.4098  161.2984 H   0  0  0  0  0  0  0  0  0  0  0  0
  154.0955  133.9429  163.2405 H   0  0  0  0  0  0  0  0  0  0  0  0
  155.8399  134.0318  162.9863 H   0  0  0  0  0  0  0  0  0  0  0  0
  1  2  1  0  0  0  0
  1 19  1  0  0  0  0
  1 20  1  0  0  0  0
  1 21  1  0  0  0  0
  2  3  1  0  0  0  0
  2  4  1  0  0  0  0
  2 22  1  0  0  0  0
  3 23  1  0  0  0  0
  3 24  1  0  0  0  0
  3 25  1  0  0  0  0
  4 18  1  0  0  0  0
  4  5  2  0  0  0  0
  5  6  1  0  0  0  0
  6  7  2  0  0  0  0
  7  8  1  0  0  0  0
  7 18  1  0  0  0  0
  8  9  1  0  0  0  0
  8 26  1  0  0  0  0
  9 10  2  0  0  0  0
  9 11  1  0  0  0  0
 11 12  1  0  0  0  0
 11 27  1  0  0  0  0
 12 13  1  0  0  0  0
 12 28  1  0  0  0  0
 12 29  1  0  0  0  0
 13 17  1  0  0  0  0
 13 14  1  0  0  0  0
 13 30  1  0  0  0  0
 14 15  1  0  0  0  0
 14 31  1  0  0  0  0
 14 32  1  0  0  0  0
 15 16  1  0  0  0  0
 15 33  1  0  0  0  0
 15 34  1  0  0  0  0
 16 17  1  0  0  0  0
 16 35  1  0  0  0  0
 16 36  1  0  0  0  0
M  END
> <s_m_source_file>
AV-unprocessed.smi

> <i_m_source_file_index>
1961

> <i_lp_mmshare_version>
43012

> <i_f3d_flags>
0

> <s_epik_input>
W0NIM11bQ0hdKFtDSDNdKWMxbm5jKHMxKVtOSF1DKD1PKVtOSF1bQ0gyXVtDQEBIXTJbQ0gyXVtDSDJdW0NIMl1PMg==

> <s_epik_cmdline>
J2VwaWtfcHl0aG9uJywgJy1waCcsICc3LjAnLCAnLXRuJywgJzgnLCAnLW1hJywgJzIwMCcsICctbWV0YWxfYmluZGluZycsICctaW1hZScsICc8aW5maWxlLm1hZT4nLCAnLW9tYWUnLCAnPG91dGZpbGUubWFlPic=

> <r_lp_tautomer_probability>
1

> <r_epik_Ionization_Penalty>
0.000505257

> <r_epik_Ionization_Penalty_Charging>
0

> <r_epik_Ionization_Penalty_Neutral>
0.000505257

> <r_epik_State_Penalty>
-0

> <r_epik_Charging_Adjusted_Penalty>
0

> <i_epik_Tot_Q>
0

> <i_epik_Tot_abs_Q>
0

> <r_epik_Metal_State_Penalty>
0.219912

> <b_epik_Metal_Only>
0

> <s_lp_Force_Field>
OPLS_2005

> <r_lp_Energy>
10.2881

> <b_lp_Chiralities_Consistent>
1

> <s_lp_Variant>
AV-unprocessed.smi:1961-2

> <Gold.Version>
5.8.1

> <Gold.Id.Protein>
6NUR|6NUR_protein|mol2

> <Gold.PLP.Fitness>
36.0609

> <Gold.PLP.PLP>
-33.2938

> <Gold.PLP.part.hbond>
-1.0000

> <Gold.PLP.part.metal>
0.0000

> <Gold.PLP.part.buried>
-4.7461

> <Gold.PLP.part.nonpolar>
-27.2328

> <Gold.PLP.part.repulsive>
0.1325

> <Gold.PLP.ligand.clash>
0.0000

> <Gold.PLP.ligand.torsion>
0.1609

> <Gold.PLP.Chemscore.Hbond>
1.0000

> <Gold.PLP.Chemscore.CHOScore>
0.0000

> <Gold.PLP.Chemscore.Metal>
0.0000

> <Gold.Chemscore.Hbonds>
donor molecule, donor type, donor heavy atom, donor atom, acceptor molecule, acceptor atom, score
      P1  H  7997  8008       L1    10  1.00

> <Gold.PLP.Chemscore.Internal.Correction>
0.0888

> <Gold.Rescore>
     Score         DG    S(hbond)    S(metal)    S(lipo)     H(rot)  DE(clash)    DE(int)     intcor
     12.90     -14.32       1.00        0.00      78.71       1.45       0.01       1.41       ----

> <Gold.Chemscore.Fitness>
12.9007

> <Gold.Chemscore.DG>
-14.3243

> <Gold.Chemscore.ZeroCoef>
-5.4800

> <Gold.Chemscore.Hbond>
0.9992

> <Gold.Chemscore.Metal>
0.0000

> <Gold.Chemscore.Lipo>
78.7077

> <Gold.Chemscore.Internal_Hbond>
0.0000

> <Gold.Chemscore.DEClash>
0.0096

> <Gold.Chemscore.DEInternal>
1.4140

> <Gold.Chemscore.Rot>
1.4461

> <Gold.Chemscore.Internal.Correction>
   9.000000E+99

> <Gold.Chemscore.Hbonds>
donor molecule, donor type, donor heavy atom, donor atom, acceptor molecule, acceptor atom, score
      P1  H  7997  8008       L1    10  0.93

> <Gold.Chemscore.Hbond.Weighted>
-3.3374

> <Gold.Chemscore.Metal.Weighted>
-0.0000

> <Gold.Chemscore.Lipo.Weighted>
-9.2088

> <Gold.Chemscore.Internal_Hbond.Weighted>
0.0000

> <Gold.Chemscore.DEClash.Weighted>
0.0096

> <Gold.Chemscore.DEInternal.Weighted>
1.4140

> <Gold.Chemscore.Rot.Weighted>
3.7019

> <Gold.Chemscore.Internal.Correction.Weighted>
   9.000000E+99

> <Gold.Protein.RotatedTorsions>
[ 6907 6896 6895 6894 ] final -178.72 input  -60.11 | X-H torsion
[ 7974 7965 7964 7962 ] final -157.19 input  175.53 | X-H torsion
[ 8008 7997 7996 7995 ] final -114.39 input   59.86 | X-H torsion
[ 10167 10162 10161 10158 ] final  -86.62 input  -65.29 | X-H torsion
[ 10718 10713 10712 10709 ] final -173.73 input   66.30 | X-H torsion
[ 10763 10752 10751 10750 ] final  113.91 input  -60.55 | X-H torsion
[ 11005 11000 10999 10996 ] final -124.32 input  -57.11 | X-H torsion

> <Gold.Protein.ActiveResidues>
 VAL166  LYS551  ARG553  GLY616  TRP617  ASP618  TYR619  PRO620  LYS621  CYS622 
 ASP623  PHE694  ASN695  SER759  ASP760  ASP761  ALA762  ILE779  LEU786  VAL792 
 PHE793  MET794  SER795  GLU796  ALA797  LYS798  CYS799  TRP800  GLU811  SER814 

> <Gold.Protein.RotatedAtoms>
  151.6418  133.3325  159.3131 H   0  0  0  0  0  0  0  0  0  0  0  0  # atno 6907 bound_to 6896
  150.8004  134.7098  159.6607 H   0  0  0  0  0  0  0  0  0  0  0  0  # atno 6908 bound_to 6896
  152.4096  134.6152  160.0087 H   0  0  0  0  0  0  0  0  0  0  0  0  # atno 6909 bound_to 6896
  144.7559  140.4004  143.6012 H   0  0  0  0  0  0  0  0  0  0  0  0  # atno 7974 bound_to 7965
  155.0355  140.0392  157.2490 H   0  0  0  0  0  0  0  0  0  0  0  0  # atno 8008 bound_to 7997
  154.7260  140.2721  155.6474 H   0  0  0  0  0  0  0  0  0  0  0  0  # atno 8009 bound_to 7997
  156.2829  140.2693  156.1946 H   0  0  0  0  0  0  0  0  0  0  0  0  # atno 8010 bound_to 7997
  140.3923  143.2699  151.9248 H   0  0  0  0  0  0  0  0  0  0  0  0  # atno 10167 bound_to 10162
  156.7746  130.9461  151.3120 H   0  0  0  0  0  0  0  0  0  0  0  0  # atno 10718 bound_to 10713
  153.4994  135.3641  155.2532 H   0  0  0  0  0  0  0  0  0  0  0  0  # atno 10763 bound_to 10752
  154.8748  135.3996  154.3496 H   0  0  0  0  0  0  0  0  0  0  0  0  # atno 10764 bound_to 10752
  153.4129  135.7078  153.6412 H   0  0  0  0  0  0  0  0  0  0  0  0  # atno 10765 bound_to 10752
  140.9850  134.0619  157.3721 H   0  0  0  0  0  0  0  0  0  0  0  0  # atno 11005 bound_to 11000
  145.6780  139.1612  143.2717 LP  0  0  0  0  0  0  0  0  0  0  0  0  # atno 17320 bound_to 7965
  146.1569  140.6845  142.9296 LP  0  0  0  0  0  0  0  0  0  0  0  0  # atno 17321 bound_to 7965
  139.4788  144.5715  151.8081 LP  0  0  0  0  0  0  0  0  0  0  0  0  # atno 17342 bound_to 10162
  140.4826  144.1427  150.5935 LP  0  0  0  0  0  0  0  0  0  0  0  0  # atno 17343 bound_to 10162
  157.6675  130.9021  149.9965 LP  0  0  0  0  0  0  0  0  0  0  0  0  # atno 17370 bound_to 10713
  156.1256  130.3644  149.9815 LP  0  0  0  0  0  0  0  0  0  0  0  0  # atno 17371 bound_to 10713
  139.8967  135.0147  156.7062 LP  0  0  0  0  0  0  0  0  0  0  0  0  # atno 17394 bound_to 11000
  140.7128  133.9208  155.8095 LP  0  0  0  0  0  0  0  0  0  0  0  0  # atno 17395 bound_to 11000

$$$$
