AV-unprocessed.smi:218|AV-procd|sdf|1671|dock7
  -GOLD-   2262020 83D 1   1.00000     0.00000
 Structure written by MMmdl.
 54 57  0  0  0  0  0  0  0  0  1 V2000
  144.5768  143.8799  161.7957 C   0  0  0  0  0  0  0  0  0  0  0  0
  145.7019  143.4983  160.8260 C   0  0  0  0  0  0  0  0  0  0  0  0
  145.5523  144.2331  159.4827 C   0  0  0  0  0  0  0  0  0  0  0  0
  145.6214  142.0850  160.6303 O   0  0  0  0  0  0  0  0  0  0  0  0
  144.5458  141.5372  159.9576 C   0  0  0  0  0  0  0  0  0  0  0  0
  144.8031  140.5986  158.9373 C   0  0  0  0  0  0  0  0  0  0  0  0
  143.7155  140.0375  158.2384 C   0  0  0  0  0  0  0  0  0  0  0  0
  143.9483  139.0188  157.1435 C   0  0  0  0  0  0  0  0  0  0  0  0
  143.1747  139.2997  155.9453 N   0  0  0  0  0  0  0  0  0  0  0  0
  143.2278  138.4768  154.8769 C   0  0  0  0  0  0  0  0  0  0  0  0
  142.0303  138.1508  154.3339 N   0  0  0  0  0  0  0  0  0  0  0  0
  141.9716  137.3431  153.2719 C   0  0  0  0  0  0  0  0  0  0  0  0
  142.9735  136.7629  152.6102 N   0  0  0  0  0  0  0  0  0  0  0  0
  144.1845  137.0853  153.1496 C   0  0  0  0  0  0  0  0  0  0  0  0
  144.4012  137.9292  154.2769 C   0  0  0  0  0  0  0  0  0  0  0  0
  145.7674  138.0136  154.5274 N   0  0  0  0  0  0  0  0  0  0  0  0
  146.3148  137.2671  153.6074 C   0  0  0  0  0  0  0  0  0  0  0  0
  145.4341  136.6779  152.7304 N   0  0  0  0  0  0  0  0  0  0  0  0
  145.7506  135.7747  151.5846 C   0  0  1  0  0  0  0  0  0  0  0  0
  146.0901  134.5317  152.1128 O   0  0  0  0  0  0  0  0  0  0  0  0
  145.5969  133.5005  151.2717 C   0  0  2  0  0  0  0  0  0  0  0  0
  146.7157  132.9932  150.3370 C   0  0  0  0  0  0  0  0  0  0  0  0
  146.3828  131.7888  149.6778 O   0  0  0  0  0  0  0  0  0  0  0  0
  144.3510  134.0806  150.5856 C   0  0  1  0  0  0  0  0  0  0  0  0
  143.2007  133.6819  151.3055 O   0  0  0  0  0  0  0  0  0  0  0  0
  144.5281  135.5984  150.6622 C   0  0  2  0  0  0  0  0  0  0  0  0
  144.7837  136.1121  149.3704 O   0  0  0  0  0  0  0  0  0  0  0  0
  142.4095  140.4328  158.5885 C   0  0  0  0  0  0  0  0  0  0  0  0
  142.2515  141.3772  159.6209 C   0  0  0  0  0  0  0  0  0  0  0  0
  143.2886  141.9211  160.2924 N   0  0  0  0  0  0  0  0  0  0  0  0
  146.6132  136.2250  151.0907 H   0  0  0  0  0  0  0  0  0  0  0  0
  145.3261  132.6637  151.9176 H   0  0  0  0  0  0  0  0  0  0  0  0
  144.2402  133.7145  149.5637 H   0  0  0  0  0  0  0  0  0  0  0  0
  143.6481  136.0966  151.0728 H   0  0  0  0  0  0  0  0  0  0  0  0
  144.5825  144.9505  162.0024 H   0  0  0  0  0  0  0  0  0  0  0  0
  144.6887  143.3586  162.7467 H   0  0  0  0  0  0  0  0  0  0  0  0
  143.5985  143.6230  161.3884 H   0  0  0  0  0  0  0  0  0  0  0  0
  146.6436  143.7777  161.3008 H   0  0  0  0  0  0  0  0  0  0  0  0
  145.5778  145.3137  159.6249 H   0  0  0  0  0  0  0  0  0  0  0  0
  144.6066  143.9829  159.0014 H   0  0  0  0  0  0  0  0  0  0  0  0
  146.3533  143.9773  158.7896 H   0  0  0  0  0  0  0  0  0  0  0  0
  145.8178  140.3156  158.6973 H   0  0  0  0  0  0  0  0  0  0  0  0
  145.0103  138.9963  156.8957 H   0  0  0  0  0  0  0  0  0  0  0  0
  143.6809  138.0337  157.5275 H   0  0  0  0  0  0  0  0  0  0  0  0
  142.6375  140.1545  155.9600 H   0  0  0  0  0  0  0  0  0  0  0  0
  140.9804  137.1326  152.8980 H   0  0  0  0  0  0  0  0  0  0  0  0
  147.3842  137.1278  153.5418 H   0  0  0  0  0  0  0  0  0  0  0  0
  146.9721  133.7538  149.5990 H   0  0  0  0  0  0  0  0  0  0  0  0
  147.6167  132.8051  150.9213 H   0  0  0  0  0  0  0  0  0  0  0  0
  147.1342  131.2159  149.7004 H   0  0  0  0  0  0  0  0  0  0  0  0
  142.4590  133.7076  150.7191 H   0  0  0  0  0  0  0  0  0  0  0  0
  144.2595  136.8886  149.2477 H   0  0  0  0  0  0  0  0  0  0  0  0
  141.5476  140.0236  158.0820 H   0  0  0  0  0  0  0  0  0  0  0  0
  141.2657  141.7045  159.9163 H   0  0  0  0  0  0  0  0  0  0  0  0
  1  2  1  0  0  0  0
  1 35  1  0  0  0  0
  1 36  1  0  0  0  0
  1 37  1  0  0  0  0
  2  3  1  0  0  0  0
  2  4  1  0  0  0  0
  2 38  1  0  0  0  0
  3 39  1  0  0  0  0
  3 40  1  0  0  0  0
  3 41  1  0  0  0  0
  4  5  1  0  0  0  0
  5 30  1  0  0  0  0
  5  6  2  0  0  0  0
  6  7  1  0  0  0  0
  6 42  1  0  0  0  0
  7  8  1  0  0  0  0
  7 28  2  0  0  0  0
  8  9  1  0  0  0  0
  8 43  1  0  0  0  0
  8 44  1  0  0  0  0
  9 10  1  0  0  0  0
  9 45  1  0  0  0  0
 10 15  1  0  0  0  0
 10 11  2  0  0  0  0
 11 12  1  0  0  0  0
 12 13  2  0  0  0  0
 12 46  1  0  0  0  0
 13 14  1  0  0  0  0
 14 18  1  0  0  0  0
 14 15  2  0  0  0  0
 15 16  1  0  0  0  0
 16 17  2  0  0  0  0
 17 18  1  0  0  0  0
 17 47  1  0  0  0  0
 18 19  1  0  0  0  0
 19 31  1  0  0  0  0
 19 26  1  0  0  0  0
 19 20  1  0  0  0  0
 20 21  1  0  0  0  0
 21 32  1  0  0  0  0
 21 22  1  0  0  0  0
 21 24  1  0  0  0  0
 22 23  1  0  0  0  0
 22 48  1  0  0  0  0
 22 49  1  0  0  0  0
 23 50  1  0  0  0  0
 24 33  1  0  0  0  0
 24 25  1  0  0  0  0
 24 26  1  0  0  0  0
 25 51  1  0  0  0  0
 26 34  1  0  0  0  0
 26 27  1  0  0  0  0
 27 52  1  0  0  0  0
 28 29  1  0  0  0  0
 28 53  1  0  0  0  0
 29 30  2  0  0  0  0
 29 54  1  0  0  0  0
M  END
> <s_m_source_file>
AV-unprocessed.smi

> <i_m_source_file_index>
218

> <i_lp_mmshare_version>
43012

> <i_f3d_flags>
0

> <s_epik_input>
W0NIM11bQ0hdKFtDSDNdKU9jMVtjSF1jKFtjSF1bY0hdbjEpW0NIMl1bTkhdYyhuW2NIXW4yKWMoYzIzKW5bY0hdbjNbQ0BASF00T1tDQEhdKFtDSDJdW09IXSlbQ0BASF0oW09IXSlbQ0BIXTRbT0hd

> <s_epik_cmdline>
J2VwaWtfcHl0aG9uJywgJy1waCcsICc3LjAnLCAnLXRuJywgJzgnLCAnLW1hJywgJzIwMCcsICctbWV0YWxfYmluZGluZycsICctaW1hZScsICc8aW5maWxlLm1hZT4nLCAnLW9tYWUnLCAnPG91dGZpbGUubWFlPic=

> <r_lp_tautomer_probability>
1

> <r_epik_Ionization_Penalty>
0.00457014

> <r_epik_Ionization_Penalty_Charging>
0

> <r_epik_Ionization_Penalty_Neutral>
0.00457014

> <r_epik_State_Penalty>
-0

> <r_epik_Charging_Adjusted_Penalty>
0

> <i_epik_Tot_Q>
0

> <i_epik_Tot_abs_Q>
0

> <r_epik_Metal_State_Penalty>
-0

> <b_epik_Metal_Only>
0

> <s_epik_Chemistry_Notes>
This compound contains an acetal/aminal-like group ( X-CH(R)-Y where X, Y are N, S, or O) that may be acid/base labile, releasing an aldehyde.

> <s_lp_Force_Field>
OPLS_2005

> <r_lp_Energy>
37.7133

> <b_lp_Chiralities_Consistent>
1

> <s_lp_Variant>
AV-unprocessed.smi:218-10

> <Gold.Version>
5.8.1

> <Gold.Id.Protein>
6NUR|6NUR_protein|mol2

> <Gold.PLP.Fitness>
46.6576

> <Gold.PLP.PLP>
-34.1608

> <Gold.PLP.part.hbond>
-5.0507

> <Gold.PLP.part.metal>
0.0000

> <Gold.PLP.part.buried>
-7.0113

> <Gold.PLP.part.nonpolar>
-22.4474

> <Gold.PLP.part.repulsive>
0.4854

> <Gold.PLP.ligand.clash>
0.0000

> <Gold.PLP.ligand.torsion>
1.1381

> <Gold.PLP.Chemscore.Hbond>
3.9760

> <Gold.PLP.Chemscore.CHOScore>
0.9292

> <Gold.PLP.Chemscore.Metal>
0.0000

> <Gold.Chemscore.Hbonds>
donor molecule, donor type, donor heavy atom, donor atom, acceptor molecule, acceptor atom, score
      L1  H    23    50       P1 10747  1.00
      L1  H    25    51       P1 10186  1.00
      L1  H    27    52       P1 10171  0.98
      P1  H  6934  6946       L1     4  1.00
      L1  C    17    47       P1  7948  1.00

> <Gold.PLP.Chemscore.Internal.Correction>
0.0573

> <Gold.Rescore>
     Score         DG    S(hbond)    S(metal)    S(lipo)     H(rot)  DE(clash)    DE(int)     intcor
      6.71     -10.65       3.70        0.00      45.96       4.90       0.03       3.90       ----

> <Gold.Chemscore.Fitness>
6.7126

> <Gold.Chemscore.DG>
-10.6478

> <Gold.Chemscore.ZeroCoef>
-5.4800

> <Gold.Chemscore.Hbond>
3.6952

> <Gold.Chemscore.Metal>
0.0000

> <Gold.Chemscore.Lipo>
45.9609

> <Gold.Chemscore.Internal_Hbond>
0.0000

> <Gold.Chemscore.DEClash>
0.0322

> <Gold.Chemscore.DEInternal>
3.9030

> <Gold.Chemscore.Rot>
4.9029

> <Gold.Chemscore.Internal.Correction>
   9.000000E+99

> <Gold.Chemscore.Hbonds>
donor molecule, donor type, donor heavy atom, donor atom, acceptor molecule, acceptor atom, score
      L1  H    23    50       P1 10747  0.95
      L1  H    25    51       P1 10186  0.85
      L1  H    27    52       P1 10171  0.92
      P1  H  6934  6946       L1     4  0.65

> <Gold.Chemscore.Hbond.Weighted>
-12.3419

> <Gold.Chemscore.Metal.Weighted>
-0.0000

> <Gold.Chemscore.Lipo.Weighted>
-5.3774

> <Gold.Chemscore.Internal_Hbond.Weighted>
0.0000

> <Gold.Chemscore.DEClash.Weighted>
0.0322

> <Gold.Chemscore.DEInternal.Weighted>
3.9030

> <Gold.Chemscore.Rot.Weighted>
12.5515

> <Gold.Chemscore.Internal.Correction.Weighted>
   9.000000E+99

> <Gold.Protein.RotatedTorsions>
[ 6907 6896 6895 6894 ] final  -84.37 input  -60.11 | X-H torsion
[ 7974 7965 7964 7962 ] final  -63.89 input  175.53 | X-H torsion
[ 8008 7997 7996 7995 ] final   20.97 input   59.86 | X-H torsion
[ 10167 10162 10161 10158 ] final -130.14 input  -65.29 | X-H torsion
[ 10718 10713 10712 10709 ] final   47.89 input   66.30 | X-H torsion
[ 10763 10752 10751 10750 ] final  114.34 input  -60.55 | X-H torsion
[ 11005 11000 10999 10996 ] final  -45.00 input  -57.11 | X-H torsion

> <Gold.Protein.ActiveResidues>
 VAL166  LYS551  ARG553  GLY616  TRP617  ASP618  TYR619  PRO620  LYS621  CYS622 
 ASP623  PHE694  ASN695  SER759  ASP760  ASP761  ALA762  ILE779  LEU786  VAL792 
 PHE793  MET794  SER795  GLU796  ALA797  LYS798  CYS799  TRP800  GLU811  SER814 

> <Gold.Protein.RotatedAtoms>
  150.6877  134.3369  159.4850 H   0  0  0  0  0  0  0  0  0  0  0  0  # atno 6907 bound_to 6896
  152.1227  134.9191  160.0571 H   0  0  0  0  0  0  0  0  0  0  0  0  # atno 6908 bound_to 6896
  152.0391  133.3935  159.4366 H   0  0  0  0  0  0  0  0  0  0  0  0  # atno 6909 bound_to 6896
  145.7734  140.8800  143.0368 H   0  0  0  0  0  0  0  0  0  0  0  0  # atno 7974 bound_to 7965
  154.9435  140.3056  155.5109 H   0  0  0  0  0  0  0  0  0  0  0  0  # atno 8008 bound_to 7997
  156.2994  140.2332  156.4444 H   0  0  0  0  0  0  0  0  0  0  0  0  # atno 8009 bound_to 7997
  154.8122  140.0428  157.1339 H   0  0  0  0  0  0  0  0  0  0  0  0  # atno 8010 bound_to 7997
  139.9324  143.6257  152.2526 H   0  0  0  0  0  0  0  0  0  0  0  0  # atno 10167 bound_to 10162
  157.4631  130.8208  149.7907 H   0  0  0  0  0  0  0  0  0  0  0  0  # atno 10718 bound_to 10713
  153.5059  135.3628  155.2563 H   0  0  0  0  0  0  0  0  0  0  0  0  # atno 10763 bound_to 10752
  154.8745  135.4011  154.3424 H   0  0  0  0  0  0  0  0  0  0  0  0  # atno 10764 bound_to 10752
  153.4069  135.7076  153.6453 H   0  0  0  0  0  0  0  0  0  0  0  0  # atno 10765 bound_to 10752
  141.0487  133.6751  156.2952 H   0  0  0  0  0  0  0  0  0  0  0  0  # atno 11005 bound_to 11000
  144.6808  139.9888  143.7484 LP  0  0  0  0  0  0  0  0  0  0  0  0  # atno 17320 bound_to 7965
  146.0146  139.3199  143.0849 LP  0  0  0  0  0  0  0  0  0  0  0  0  # atno 17321 bound_to 7965
  139.6771  144.7658  151.1676 LP  0  0  0  0  0  0  0  0  0  0  0  0  # atno 17342 bound_to 10162
  140.7634  143.5779  150.8926 LP  0  0  0  0  0  0  0  0  0  0  0  0  # atno 17343 bound_to 10162
  156.0037  130.3866  150.2508 LP  0  0  0  0  0  0  0  0  0  0  0  0  # atno 17370 bound_to 10713
  157.0686  131.0110  151.3198 LP  0  0  0  0  0  0  0  0  0  0  0  0  # atno 17371 bound_to 10713
  140.6097  134.5471  157.5531 LP  0  0  0  0  0  0  0  0  0  0  0  0  # atno 17394 bound_to 11000
  139.9333  134.7923  156.0872 LP  0  0  0  0  0  0  0  0  0  0  0  0  # atno 17395 bound_to 11000

$$$$
