AV-unprocessed.smi:885|AV-procd|sdf|4044|dock2
  -GOLD-   22720 1533D 1   1.00000     0.00000
 Structure written by MMmdl.
 40 42  0  0  0  0  0  0  0  0  2 V2000
  151.9758  144.0978  160.5507 C   0  0  0  0  0  0  0  0  0  0  0  0
  152.6075  142.9395  161.3428 C   0  0  0  0  0  0  0  0  0  0  0  0
  153.0182  141.6960  160.5342 C   0  0  0  0  0  0  0  0  0  0  0  0
  152.0488  141.2852  159.4129 C   0  0  0  0  0  0  0  0  0  0  0  0
  152.3118  142.0125  158.0759 C   0  0  0  0  0  0  0  0  0  0  0  0
  151.6652  141.2865  156.9341 C   0  0  0  0  0  0  0  0  0  0  0  0
  152.3831  140.5742  156.0731 N   0  0  0  0  0  0  0  0  0  0  0  0
  151.4209  140.0624  155.1912 O   0  0  0  0  0  0  0  0  0  0  0  0
  150.2309  140.5506  155.6175 C   0  0  0  0  0  0  0  0  0  0  0  0
  148.9769  140.1356  154.9177 C   0  0  2  0  0  0  0  0  0  0  0  0
  149.2357  139.0793  153.8270 C   0  0  0  0  0  0  0  0  0  0  0  0
  147.9800  138.7734  153.1140 N   0  3  0  0  0  0  0  0  0  0  0  0
  147.3523  139.9963  152.5749 C   0  0  0  0  0  0  0  0  0  0  0  0
  147.1618  141.0340  153.6957 C   0  0  0  0  0  0  0  0  0  0  0  0
  148.4123  141.3016  154.3230 O   0  0  0  0  0  0  0  0  0  0  0  0
  150.3209  141.3038  156.7103 N   0  0  0  0  0  0  0  0  0  0  0  0
  151.9373  143.5080  158.0578 C   0  0  0  0  0  0  0  0  0  0  0  0
  152.5865  144.3581  159.1641 C   0  0  0  0  0  0  0  0  0  0  0  0
  152.0650  145.0023  161.1534 H   0  0  0  0  0  0  0  0  0  0  0  0
  150.9032  143.9281  160.4478 H   0  0  0  0  0  0  0  0  0  0  0  0
  153.4906  143.3066  161.8670 H   0  0  0  0  0  0  0  0  0  0  0  0
  151.9076  142.6426  162.1246 H   0  0  0  0  0  0  0  0  0  0  0  0
  154.0158  141.8422  160.1188 H   0  0  0  0  0  0  0  0  0  0  0  0
  153.1214  140.8649  161.2329 H   0  0  0  0  0  0  0  0  0  0  0  0
  152.1962  140.2173  159.2444 H   0  0  0  0  0  0  0  0  0  0  0  0
  151.0101  141.3948  159.7273 H   0  0  0  0  0  0  0  0  0  0  0  0
  153.3877  141.9638  157.8997 H   0  0  0  0  0  0  0  0  0  0  0  0
  148.2862  139.7417  155.6656 H   0  0  0  0  0  0  0  0  0  0  0  0
  149.9722  139.4450  153.1098 H   0  0  0  0  0  0  0  0  0  0  0  0
  149.6366  138.1639  154.2629 H   0  0  0  0  0  0  0  0  0  0  0  0
  148.1701  138.1315  152.3575 H   0  0  0  0  0  0  0  0  0  0  0  0
  147.9843  140.4059  151.7860 H   0  0  0  0  0  0  0  0  0  0  0  0
  146.3949  139.7407  152.1200 H   0  0  0  0  0  0  0  0  0  0  0  0
  146.7662  141.9631  153.2850 H   0  0  0  0  0  0  0  0  0  0  0  0
  146.4409  140.6809  154.4348 H   0  0  0  0  0  0  0  0  0  0  0  0
  152.2338  143.9225  157.0933 H   0  0  0  0  0  0  0  0  0  0  0  0
  150.8535  143.6218  158.1053 H   0  0  0  0  0  0  0  0  0  0  0  0
  152.4165  145.4061  158.9152 H   0  0  0  0  0  0  0  0  0  0  0  0
  153.6694  144.2285  159.1796 H   0  0  0  0  0  0  0  0  0  0  0  0
  147.3381  138.3378  153.7610 H   0  0  0  0  0  0  0  0  0  0  0  0
  1 18  1  0  0  0  0
  1  2  1  0  0  0  0
  1 19  1  0  0  0  0
  1 20  1  0  0  0  0
  2  3  1  0  0  0  0
  2 21  1  0  0  0  0
  2 22  1  0  0  0  0
  3  4  1  0  0  0  0
  3 23  1  0  0  0  0
  3 24  1  0  0  0  0
  4  5  1  0  0  0  0
  4 25  1  0  0  0  0
  4 26  1  0  0  0  0
  5  6  1  0  0  0  0
  5 17  1  0  0  0  0
  5 27  1  0  0  0  0
  6 16  1  0  0  0  0
  6  7  2  0  0  0  0
  7  8  1  0  0  0  0
  8  9  1  0  0  0  0
  9 10  1  0  0  0  0
  9 16  2  0  0  0  0
 10 15  1  0  0  0  0
 10 11  1  0  0  0  0
 10 28  1  0  0  0  0
 11 12  1  0  0  0  0
 11 29  1  0  0  0  0
 11 30  1  0  0  0  0
 12 13  1  0  0  0  0
 12 31  1  0  0  0  0
 12 40  1  0  0  0  0
 13 14  1  0  0  0  0
 13 32  1  0  0  0  0
 13 33  1  0  0  0  0
 14 15  1  0  0  0  0
 14 34  1  0  0  0  0
 14 35  1  0  0  0  0
 17 18  1  0  0  0  0
 17 36  1  0  0  0  0
 17 37  1  0  0  0  0
 18 38  1  0  0  0  0
 18 39  1  0  0  0  0
M  CHG  1  12   1
M  END
> <s_m_source_file>
AV-unprocessed.smi

> <i_m_source_file_index>
885

> <i_lp_mmshare_version>
43012

> <i_f3d_flags>
0

> <s_epik_input>
W0NIMl0xW0NIMl1bQ0gyXVtDSDJdW0NIMl1bQ0gyXVtDSF0xYzJub2MobjIpW0NAQEhdM1tDSDJdW05IXVtDSDJdW0NIMl1PMw==

> <s_epik_cmdline>
J2VwaWtfcHl0aG9uJywgJy1waCcsICc3LjAnLCAnLXRuJywgJzgnLCAnLW1hJywgJzIwMCcsICctbWV0YWxfYmluZGluZycsICctaW1hZScsICc8aW5maWxlLm1hZT4nLCAnLW9tYWUnLCAnPG91dGZpbGUubWFlPic=

> <r_lp_tautomer_probability>
1

> <r_epik_Ionization_Penalty>
0.157575

> <r_epik_Ionization_Penalty_Charging>
0.157575

> <r_epik_Ionization_Penalty_Neutral>
1.7642e-13

> <r_epik_State_Penalty>
0.146877

> <r_epik_Charging_Adjusted_Penalty>
0.304452

> <i_epik_Tot_Q>
1

> <i_epik_Tot_abs_Q>
1

> <r_epik_Metal_State_Penalty>
0.146877

> <b_epik_Metal_Only>
0

> <s_lp_Force_Field>
OPLS_2005

> <r_lp_Energy>
20.1988

> <b_lp_Chiralities_Consistent>
1

> <s_lp_Variant>
AV-unprocessed.smi:885-1

> <Gold.Version>
5.8.1

> <Gold.Id.Protein>
6NUR|6NUR_protein|mol2

> <Gold.PLP.Fitness>
45.5105

> <Gold.PLP.PLP>
-34.1808

> <Gold.PLP.part.hbond>
-4.0000

> <Gold.PLP.part.metal>
0.0000

> <Gold.PLP.part.buried>
1.7788

> <Gold.PLP.part.nonpolar>
-31.1876

> <Gold.PLP.part.repulsive>
0.2680

> <Gold.PLP.ligand.clash>
0.0000

> <Gold.PLP.ligand.torsion>
0.2957

> <Gold.PLP.Chemscore.Hbond>
3.9360

> <Gold.PLP.Chemscore.CHOScore>
0.0000

> <Gold.PLP.Chemscore.Metal>
0.0000

> <Gold.Chemscore.Hbonds>
donor molecule, donor type, donor heavy atom, donor atom, acceptor molecule, acceptor atom, score
      L1  H    12    31       P1  7948  1.57
      P1  H  7989  7998       L1     8  1.00
      P1  H  7997  8010       L1     7  0.91

> <Gold.PLP.Chemscore.Internal.Correction>
0.1132

> <Gold.Rescore>
     Score         DG    S(hbond)    S(metal)    S(lipo)     H(rot)  DE(clash)    DE(int)     intcor
     19.53     -20.21       1.81        0.00     101.06       1.23       0.54       0.14       ----

> <Gold.Chemscore.Fitness>
19.5319

> <Gold.Chemscore.DG>
-20.2126

> <Gold.Chemscore.ZeroCoef>
-5.4800

> <Gold.Chemscore.Hbond>
1.8131

> <Gold.Chemscore.Metal>
0.0000

> <Gold.Chemscore.Lipo>
101.0561

> <Gold.Chemscore.Internal_Hbond>
0.0000

> <Gold.Chemscore.DEClash>
0.5408

> <Gold.Chemscore.DEInternal>
0.1399

> <Gold.Chemscore.Rot>
1.2292

> <Gold.Chemscore.Internal.Correction>
   9.000000E+99

> <Gold.Chemscore.Hbonds>
donor molecule, donor type, donor heavy atom, donor atom, acceptor molecule, acceptor atom, score
      L1  H    12    31       P1  7948  0.75
      P1  H  7989  7998       L1     8  0.31
      P1  H  7997  8010       L1     7  0.83

> <Gold.Chemscore.Hbond.Weighted>
-6.0557

> <Gold.Chemscore.Metal.Weighted>
-0.0000

> <Gold.Chemscore.Lipo.Weighted>
-11.8236

> <Gold.Chemscore.Internal_Hbond.Weighted>
0.0000

> <Gold.Chemscore.DEClash.Weighted>
0.5408

> <Gold.Chemscore.DEInternal.Weighted>
0.1399

> <Gold.Chemscore.Rot.Weighted>
3.1467

> <Gold.Chemscore.Internal.Correction.Weighted>
   9.000000E+99

> <Gold.Protein.RotatedTorsions>
[ 6907 6896 6895 6894 ] final   74.59 input  -60.11 | X-H torsion
[ 7974 7965 7964 7962 ] final   30.82 input  175.53 | X-H torsion
[ 8008 7997 7996 7995 ] final   76.36 input   59.86 | X-H torsion
[ 10167 10162 10161 10158 ] final  -72.33 input  -65.29 | X-H torsion
[ 10718 10713 10712 10709 ] final -126.65 input   66.30 | X-H torsion
[ 10763 10752 10751 10750 ] final   97.68 input  -60.55 | X-H torsion
[ 11005 11000 10999 10996 ] final  157.30 input  -57.11 | X-H torsion

> <Gold.Protein.ActiveResidues>
 VAL166  LYS551  ARG553  GLY616  TRP617  ASP618  TYR619  PRO620  LYS621  CYS622 
 ASP623  PHE694  ASN695  SER759  ASP760  ASP761  ALA762  ILE779  LEU786  VAL792 
 PHE793  MET794  SER795  GLU796  ALA797  LYS798  CYS799  TRP800  GLU811  SER814 

> <Gold.Protein.RotatedAtoms>
  152.4984  134.4248  159.9492 H   0  0  0  0  0  0  0  0  0  0  0  0  # atno 6907 bound_to 6896
  151.4223  133.3688  159.2765 H   0  0  0  0  0  0  0  0  0  0  0  0  # atno 6908 bound_to 6896
  150.9214  134.8654  159.7551 H   0  0  0  0  0  0  0  0  0  0  0  0  # atno 6909 bound_to 6896
  146.1588  139.6738  142.9048 H   0  0  0  0  0  0  0  0  0  0  0  0  # atno 7974 bound_to 7965
  155.8262  140.3468  155.5544 H   0  0  0  0  0  0  0  0  0  0  0  0  # atno 8008 bound_to 7997
  155.8290  140.0924  157.1823 H   0  0  0  0  0  0  0  0  0  0  0  0  # atno 8009 bound_to 7997
  154.4004  140.1416  156.3579 H   0  0  0  0  0  0  0  0  0  0  0  0  # atno 8010 bound_to 7997
  140.5201  143.2333  151.7445 H   0  0  0  0  0  0  0  0  0  0  0  0  # atno 10167 bound_to 10162
  156.1784  130.6715  151.0273 H   0  0  0  0  0  0  0  0  0  0  0  0  # atno 10718 bound_to 10713
  153.2799  135.4174  155.1068 H   0  0  0  0  0  0  0  0  0  0  0  0  # atno 10763 bound_to 10752
  154.8486  135.3492  154.6127 H   0  0  0  0  0  0  0  0  0  0  0  0  # atno 10764 bound_to 10752
  153.6547  135.7051  153.5255 H   0  0  0  0  0  0  0  0  0  0  0  0  # atno 10765 bound_to 10752
  140.1757  134.8512  157.2743 H   0  0  0  0  0  0  0  0  0  0  0  0  # atno 11005 bound_to 11000
  145.4640  141.0434  143.2736 LP  0  0  0  0  0  0  0  0  0  0  0  0  # atno 17320 bound_to 7965
  144.7999  139.6160  143.7076 LP  0  0  0  0  0  0  0  0  0  0  0  0  # atno 17321 bound_to 7965
  139.4921  144.4267  151.9918 LP  0  0  0  0  0  0  0  0  0  0  0  0  # atno 17342 bound_to 10162
  140.3363  144.3256  150.5976 LP  0  0  0  0  0  0  0  0  0  0  0  0  # atno 17343 bound_to 10162
  157.6851  131.0827  150.7263 LP  0  0  0  0  0  0  0  0  0  0  0  0  # atno 17370 bound_to 10713
  156.7321  130.4713  149.5497 LP  0  0  0  0  0  0  0  0  0  0  0  0  # atno 17371 bound_to 10713
  140.2326  134.3891  155.7515 LP  0  0  0  0  0  0  0  0  0  0  0  0  # atno 17394 bound_to 11000
  141.2220  133.7223  156.8664 LP  0  0  0  0  0  0  0  0  0  0  0  0  # atno 17395 bound_to 11000

$$$$
