AV-unprocessed.smi:103|AV-procd|sdf|981|dock6
  -GOLD-   2262017543D 1   1.00000     0.00000
 Structure written by MMmdl.
 53 55  0  0  0  0  0  0  0  0  1 V2000
  148.9792  141.6382  154.8293 C   0  0  0  0  0  0  0  0  0  0  0  0
  149.6633  140.5004  155.5753 C   0  0  0  0  0  0  0  0  0  0  0  0
  150.3990  139.7048  154.9911 O   0  0  0  0  0  0  0  0  0  0  0  0
  149.3710  140.4983  156.8876 O   0  0  0  0  0  0  0  0  0  0  0  0
  149.7530  139.4071  157.7131 C   0  0  0  0  0  0  0  0  0  0  0  0
  148.9879  138.1397  157.3003 C   0  0  2  0  0  0  0  0  0  0  0  0
  147.5933  138.4081  157.2002 O   0  0  0  0  0  0  0  0  0  0  0  0
  146.9789  138.0705  158.3945 C   0  0  1  0  0  0  0  0  0  0  0  0
  145.4894  137.9613  158.1578 N   0  0  0  0  0  0  0  0  0  0  0  0
  144.4564  138.4960  158.9155 C   0  0  0  0  0  0  0  0  0  0  0  0
  144.5816  139.4853  160.4093 S   0  0  0  0  0  0  0  0  0  0  0  0
  145.2355  141.0868  159.7837 C   0  0  0  0  0  0  0  0  0  0  0  0
  143.2222  139.6750  160.9340 O   0  0  0  0  0  0  0  0  0  0  0  0
  145.6138  138.8569  161.2494 O   0  0  0  0  0  0  0  0  0  0  0  0
  143.2403  138.2118  158.5399 N   0  0  0  0  0  0  0  0  0  0  0  0
  143.4271  137.4118  157.4283 C   0  0  0  0  0  0  0  0  0  0  0  0
  142.5383  136.7560  156.5392 C   0  0  0  0  0  0  0  0  0  0  0  0
  141.2050  136.8316  156.6511 N   0  0  0  0  0  0  0  0  0  0  0  0
  143.0561  136.0152  155.5338 N   0  0  0  0  0  0  0  0  0  0  0  0
  144.3814  135.9194  155.4079 C   0  0  0  0  0  0  0  0  0  0  0  0
  145.3309  136.4759  156.1627 N   0  0  0  0  0  0  0  0  0  0  0  0
  144.8195  137.2348  157.1779 C   0  0  0  0  0  0  0  0  0  0  0  0
  147.6797  136.7821  158.8267 C   0  0  2  0  0  0  0  0  0  0  0  0
  147.6159  136.6384  160.2404 O   0  0  0  0  0  0  0  0  0  0  0  0
  146.5084  136.1441  160.8204 C   0  0  0  0  0  0  0  0  0  0  0  0
  146.6156  136.1091  162.3388 C   0  0  0  0  0  0  0  0  0  0  0  0
  145.4964  135.7549  160.2376 O   0  0  0  0  0  0  0  0  0  0  0  0
  149.1095  137.0338  158.3628 C   0  0  1  0  0  0  0  0  0  0  0  0
  149.6409  135.8353  157.8127 O   0  0  0  0  0  0  0  0  0  0  0  0
  150.9402  135.7604  157.4807 C   0  0  0  0  0  0  0  0  0  0  0  0
  151.2794  134.4640  156.7579 C   0  0  0  0  0  0  0  0  0  0  0  0
  151.7969  136.6146  157.7086 O   0  0  0  0  0  0  0  0  0  0  0  0
  149.6218  142.5188  154.8195 H   0  0  0  0  0  0  0  0  0  0  0  0
  148.0358  141.9021  155.3080 H   0  0  0  0  0  0  0  0  0  0  0  0
  148.7735  141.3483  153.7989 H   0  0  0  0  0  0  0  0  0  0  0  0
  150.8213  139.2484  157.5637 H   0  0  0  0  0  0  0  0  0  0  0  0
  149.6177  139.6078  158.7767 H   0  0  0  0  0  0  0  0  0  0  0  0
  149.3478  137.7942  156.3300 H   0  0  0  0  0  0  0  0  0  0  0  0
  147.0922  138.8725  159.1232 H   0  0  0  0  0  0  0  0  0  0  0  0
  145.4155  141.7534  160.6266 H   0  0  0  0  0  0  0  0  0  0  0  0
  144.5159  141.5514  159.1136 H   0  0  0  0  0  0  0  0  0  0  0  0
  146.1712  140.9142  159.2529 H   0  0  0  0  0  0  0  0  0  0  0  0
  140.7928  137.3755  157.3958 H   0  0  0  0  0  0  0  0  0  0  0  0
  140.6154  136.3486  155.9889 H   0  0  0  0  0  0  0  0  0  0  0  0
  144.7322  135.3119  154.5868 H   0  0  0  0  0  0  0  0  0  0  0  0
  147.2562  135.9411  158.2772 H   0  0  0  0  0  0  0  0  0  0  0  0
  146.6226  137.1229  162.7392 H   0  0  0  0  0  0  0  0  0  0  0  0
  147.5346  135.6081  162.6435 H   0  0  0  0  0  0  0  0  0  0  0  0
  145.7705  135.5724  162.7700 H   0  0  0  0  0  0  0  0  0  0  0  0
  149.7108  137.3811  159.2053 H   0  0  0  0  0  0  0  0  0  0  0  0
  151.1764  133.6163  157.4357 H   0  0  0  0  0  0  0  0  0  0  0  0
  152.3041  134.4886  156.3868 H   0  0  0  0  0  0  0  0  0  0  0  0
  150.6092  134.3147  155.9111 H   0  0  0  0  0  0  0  0  0  0  0  0
  1  2  1  0  0  0  0
  1 33  1  0  0  0  0
  1 34  1  0  0  0  0
  1 35  1  0  0  0  0
  2  3  2  0  0  0  0
  2  4  1  0  0  0  0
  4  5  1  0  0  0  0
  5  6  1  0  0  0  0
  5 36  1  0  0  0  0
  5 37  1  0  0  0  0
  6 28  1  0  0  0  0
  6  7  1  0  0  0  0
  6 38  1  0  0  0  0
  7  8  1  0  0  0  0
  8  9  1  0  0  0  0
  8 23  1  0  0  0  0
  8 39  1  0  0  0  0
  9 22  1  0  0  0  0
  9 10  1  0  0  0  0
 10 11  1  0  0  0  0
 10 15  2  0  0  0  0
 11 12  1  0  0  0  0
 11 13  2  0  0  0  0
 11 14  2  0  0  0  0
 12 40  1  0  0  0  0
 12 41  1  0  0  0  0
 12 42  1  0  0  0  0
 15 16  1  0  0  0  0
 16 22  2  0  0  0  0
 16 17  1  0  0  0  0
 17 18  1  0  0  0  0
 17 19  2  0  0  0  0
 18 43  1  0  0  0  0
 18 44  1  0  0  0  0
 19 20  1  0  0  0  0
 20 21  2  0  0  0  0
 20 45  1  0  0  0  0
 21 22  1  0  0  0  0
 23 24  1  0  0  0  0
 23 28  1  0  0  0  0
 23 46  1  0  0  0  0
 24 25  1  0  0  0  0
 25 26  1  0  0  0  0
 25 27  2  0  0  0  0
 26 47  1  0  0  0  0
 26 48  1  0  0  0  0
 26 49  1  0  0  0  0
 28 29  1  0  0  0  0
 28 50  1  0  0  0  0
 29 30  1  0  0  0  0
 30 31  1  0  0  0  0
 30 32  2  0  0  0  0
 31 51  1  0  0  0  0
 31 52  1  0  0  0  0
 31 53  1  0  0  0  0
M  END
> <s_m_source_file>
AV-unprocessed.smi

> <i_m_source_file_index>
103

> <i_lp_mmshare_version>
43012

> <i_f3d_flags>
0

> <s_epik_input>
W0NIM11DKD1PKU9bQ0gyXVtDQEBIXTFPW0NASF0oW0NAQEhdKE9DKD1PKVtDSDNdKVtDQEhdMU9DKD1PKVtDSDNdKW4oYyhuMilTKD1PKSg9TylbQ0gzXSljKGMyMyluW2NIXW5jM1tOSDJd

> <s_epik_cmdline>
J2VwaWtfcHl0aG9uJywgJy1waCcsICc3LjAnLCAnLXRuJywgJzgnLCAnLW1hJywgJzIwMCcsICctbWV0YWxfYmluZGluZycsICctaW1hZScsICc8aW5maWxlLm1hZT4nLCAnLW9tYWUnLCAnPG91dGZpbGUubWFlPic=

> <r_lp_tautomer_probability>
1

> <r_epik_Ionization_Penalty>
1.51338e-05

> <r_epik_Ionization_Penalty_Charging>
0

> <r_epik_Ionization_Penalty_Neutral>
1.51338e-05

> <r_epik_State_Penalty>
-0

> <r_epik_Charging_Adjusted_Penalty>
0

> <i_epik_Tot_Q>
0

> <i_epik_Tot_abs_Q>
0

> <r_epik_Metal_State_Penalty>
-0

> <b_epik_Metal_Only>
0

> <s_epik_Chemistry_Notes>
This compound has an ester and may undergo hydrolysis at high or low pH. This compound contains an acetal/aminal-like group ( X-CH(R)-Y where X, Y are N, S, or O) that may be acid/base labile, releasing an aldehyde.

> <s_lp_Force_Field>
OPLS_2005

> <r_lp_Energy>
16.7775

> <b_lp_Chiralities_Consistent>
1

> <s_lp_Variant>
AV-unprocessed.smi:103-5

> <Gold.Version>
5.8.1

> <Gold.Id.Protein>
6NUR|6NUR_protein|mol2

> <Gold.PLP.Fitness>
37.9699

> <Gold.PLP.PLP>
-30.4058

> <Gold.PLP.part.hbond>
-4.7618

> <Gold.PLP.part.metal>
0.0000

> <Gold.PLP.part.buried>
-6.4372

> <Gold.PLP.part.nonpolar>
-19.1182

> <Gold.PLP.part.repulsive>
0.1330

> <Gold.PLP.ligand.clash>
0.0000

> <Gold.PLP.ligand.torsion>
1.6316

> <Gold.PLP.Chemscore.Hbond>
2.8880

> <Gold.PLP.Chemscore.CHOScore>
0.0000

> <Gold.PLP.Chemscore.Metal>
0.0000

> <Gold.Chemscore.Hbonds>
donor molecule, donor type, donor heavy atom, donor atom, acceptor molecule, acceptor atom, score
      P1  H  6934  6947       L1    14  0.30
      P1  H  7989  7998       L1     3  0.42

> <Gold.PLP.Chemscore.Internal.Correction>
2.1634

> <Gold.Rescore>
     Score         DG    S(hbond)    S(metal)    S(lipo)     H(rot)  DE(clash)    DE(int)     intcor
      6.02      -8.40       2.90        0.00      34.99       4.25       0.72       1.66       ----

> <Gold.Chemscore.Fitness>
6.0231

> <Gold.Chemscore.DG>
-8.3979

> <Gold.Chemscore.ZeroCoef>
-5.4800

> <Gold.Chemscore.Hbond>
2.9020

> <Gold.Chemscore.Metal>
0.0000

> <Gold.Chemscore.Lipo>
34.9893

> <Gold.Chemscore.Internal_Hbond>
0.0000

> <Gold.Chemscore.DEClash>
0.7176

> <Gold.Chemscore.DEInternal>
1.6573

> <Gold.Chemscore.Rot>
4.2456

> <Gold.Chemscore.Internal.Correction>
   9.000000E+99

> <Gold.Chemscore.Hbonds>
donor molecule, donor type, donor heavy atom, donor atom, acceptor molecule, acceptor atom, score
      P1  H  6934  6947       L1    14  0.28
      P1  H  7989  7998       L1     3  0.28

> <Gold.Chemscore.Hbond.Weighted>
-9.6928

> <Gold.Chemscore.Metal.Weighted>
-0.0000

> <Gold.Chemscore.Lipo.Weighted>
-4.0938

> <Gold.Chemscore.Internal_Hbond.Weighted>
0.0000

> <Gold.Chemscore.DEClash.Weighted>
0.7176

> <Gold.Chemscore.DEInternal.Weighted>
1.6573

> <Gold.Chemscore.Rot.Weighted>
10.8687

> <Gold.Chemscore.Internal.Correction.Weighted>
   9.000000E+99

> <Gold.Protein.RotatedTorsions>
[ 6907 6896 6895 6894 ] final  158.01 input  -60.11 | X-H torsion
[ 7974 7965 7964 7962 ] final -130.46 input  175.53 | X-H torsion
[ 8008 7997 7996 7995 ] final   -9.66 input   59.86 | X-H torsion
[ 10167 10162 10161 10158 ] final   74.57 input  -65.29 | X-H torsion
[ 10718 10713 10712 10709 ] final -157.81 input   66.30 | X-H torsion
[ 10763 10752 10751 10750 ] final    2.60 input  -60.55 | X-H torsion
[ 11005 11000 10999 10996 ] final  179.12 input  -57.11 | X-H torsion

> <Gold.Protein.ActiveResidues>
 VAL166  LYS551  ARG553  GLY616  TRP617  ASP618  TYR619  PRO620  LYS621  CYS622 
 ASP623  PHE694  ASN695  SER759  ASP760  ASP761  ALA762  ILE779  LEU786  VAL792 
 PHE793  MET794  SER795  GLU796  ALA797  LYS798  CYS799  TRP800  GLU811  SER814 

> <Gold.Protein.RotatedAtoms>
  152.0066  133.3845  159.4202 H   0  0  0  0  0  0  0  0  0  0  0  0  # atno 6907 bound_to 6896
  150.6904  134.3775  159.5029 H   0  0  0  0  0  0  0  0  0  0  0  0  # atno 6908 bound_to 6896
  152.1530  134.8972  160.0597 H   0  0  0  0  0  0  0  0  0  0  0  0  # atno 6909 bound_to 6896
  144.9473  140.7306  143.4809 H   0  0  0  0  0  0  0  0  0  0  0  0  # atno 7974 bound_to 7965
  154.5626  140.2349  155.8313 H   0  0  0  0  0  0  0  0  0  0  0  0  # atno 8008 bound_to 7997
  156.2041  140.3044  155.9549 H   0  0  0  0  0  0  0  0  0  0  0  0  # atno 8009 bound_to 7997
  155.2861  140.0424  157.3010 H   0  0  0  0  0  0  0  0  0  0  0  0  # atno 8010 bound_to 7997
  140.0123  144.5604  150.7648 H   0  0  0  0  0  0  0  0  0  0  0  0  # atno 10167 bound_to 10162
  156.5455  130.8582  151.2763 H   0  0  0  0  0  0  0  0  0  0  0  0  # atno 10718 bound_to 10713
  153.2936  135.6950  153.7270 H   0  0  0  0  0  0  0  0  0  0  0  0  # atno 10763 bound_to 10752
  153.6211  135.3427  155.3012 H   0  0  0  0  0  0  0  0  0  0  0  0  # atno 10764 bound_to 10752
  154.8531  135.4386  154.2026 H   0  0  0  0  0  0  0  0  0  0  0  0  # atno 10765 bound_to 10752
  140.4026  134.6764  157.4570 H   0  0  0  0  0  0  0  0  0  0  0  0  # atno 11005 bound_to 11000
  145.2898  139.1888  143.4746 LP  0  0  0  0  0  0  0  0  0  0  0  0  # atno 17320 bound_to 7965
  146.3308  140.2873  142.8613 LP  0  0  0  0  0  0  0  0  0  0  0  0  # atno 17321 bound_to 7965
  140.7376  143.2768  151.3718 LP  0  0  0  0  0  0  0  0  0  0  0  0  # atno 17342 bound_to 10162
  139.6196  144.0933  152.2379 LP  0  0  0  0  0  0  0  0  0  0  0  0  # atno 17343 bound_to 10162
  157.7397  130.9837  150.2333 LP  0  0  0  0  0  0  0  0  0  0  0  0  # atno 17370 bound_to 10713
  156.2933  130.3748  149.7821 LP  0  0  0  0  0  0  0  0  0  0  0  0  # atno 17371 bound_to 10713
  140.0325  134.6385  155.9087 LP  0  0  0  0  0  0  0  0  0  0  0  0  # atno 17394 bound_to 11000
  141.1851  133.6554  156.5184 LP  0  0  0  0  0  0  0  0  0  0  0  0  # atno 17395 bound_to 11000

$$$$
