AV-unprocessed.smi:1464|AV-procd|sdf|5946|dock7
  -GOLD-   22720 6 33D 1   1.00000     0.00000
 Structure written by MMmdl.
 41 42  0  0  0  0  0  0  0  0  1 V2000
  154.0417  142.1086  159.6972 C   0  0  0  0  0  0  0  0  0  0  0  0
  152.5021  142.1045  159.7925 C   0  0  1  0  0  0  0  0  0  0  0  0
  151.9129  143.5055  159.5302 C   0  0  0  0  0  0  0  0  0  0  0  0
  151.9950  143.9008  158.0475 C   0  0  0  0  0  0  0  0  0  0  0  0
  151.3092  142.8556  157.1575 C   0  0  0  0  0  0  0  0  0  0  0  0
  151.8767  141.4392  157.3888 C   0  0  2  0  0  0  0  0  0  0  0  0
  151.1324  140.4765  156.5791 N   0  0  0  0  0  0  0  0  0  0  0  0
  151.6475  139.7238  155.5951 C   0  0  0  0  0  0  0  0  0  0  0  0
  152.8285  139.7807  155.2489 O   0  0  0  0  0  0  0  0  0  0  0  0
  150.6628  138.7817  154.8872 C   0  0  0  0  0  0  0  0  0  0  0  0
  149.4379  139.4534  154.4300 N   0  0  0  0  0  0  0  0  0  0  0  0
  149.4971  140.8378  154.4837 N   0  0  0  0  0  0  0  0  0  0  0  0
  148.4894  141.5420  154.0925 C   0  0  0  0  0  0  0  0  0  0  0  0
  148.5918  142.9100  154.1583 O   0  0  0  0  0  0  0  0  0  0  0  0
  147.2837  140.9137  153.5984 C   0  0  0  0  0  0  0  0  0  0  0  0
  147.2332  139.5642  153.5555 C   0  0  0  0  0  0  0  0  0  0  0  0
  148.3589  138.7351  153.9906 C   0  0  0  0  0  0  0  0  0  0  0  0
  148.3398  137.5046  153.9634 O   0  0  0  0  0  0  0  0  0  0  0  0
  151.8116  141.0479  158.8883 C   0  0  1  0  0  0  0  0  0  0  0  0
  152.3240  139.6190  159.1588 C   0  0  0  0  0  0  0  0  0  0  0  0
  148.6061  143.1177  155.0798 H   0  0  0  0  0  0  0  0  0  0  0  0
  154.3921  142.2903  158.6817 H   0  0  0  0  0  0  0  0  0  0  0  0
  154.4662  141.1611  160.0286 H   0  0  0  0  0  0  0  0  0  0  0  0
  154.4673  142.8849  160.3337 H   0  0  0  0  0  0  0  0  0  0  0  0
  152.2626  141.8533  160.8269 H   0  0  0  0  0  0  0  0  0  0  0  0
  150.8681  143.5196  159.8432 H   0  0  0  0  0  0  0  0  0  0  0  0
  152.4200  144.2512  160.1436 H   0  0  0  0  0  0  0  0  0  0  0  0
  151.5274  144.8745  157.8986 H   0  0  0  0  0  0  0  0  0  0  0  0
  153.0367  144.0144  157.7467 H   0  0  0  0  0  0  0  0  0  0  0  0
  150.2374  142.8598  157.3618 H   0  0  0  0  0  0  0  0  0  0  0  0
  151.4229  143.1409  156.1109 H   0  0  0  0  0  0  0  0  0  0  0  0
  152.9220  141.4241  157.0759 H   0  0  0  0  0  0  0  0  0  0  0  0
  150.1513  140.3684  156.7918 H   0  0  0  0  0  0  0  0  0  0  0  0
  151.1602  138.3011  154.0423 H   0  0  0  0  0  0  0  0  0  0  0  0
  150.4146  137.9741  155.5782 H   0  0  0  0  0  0  0  0  0  0  0  0
  146.4480  141.5162  153.2740 H   0  0  0  0  0  0  0  0  0  0  0  0
  146.3391  139.0815  153.1891 H   0  0  0  0  0  0  0  0  0  0  0  0
  150.7574  141.0482  159.1706 H   0  0  0  0  0  0  0  0  0  0  0  0
  153.3417  139.4814  158.7932 H   0  0  0  0  0  0  0  0  0  0  0  0
  151.6992  138.8705  158.6710 H   0  0  0  0  0  0  0  0  0  0  0  0
  152.3180  139.3954  160.2258 H   0  0  0  0  0  0  0  0  0  0  0  0
  1  2  1  0  0  0  0
  1 22  1  0  0  0  0
  1 23  1  0  0  0  0
  1 24  1  0  0  0  0
  2 19  1  0  0  0  0
  2  3  1  0  0  0  0
  2 25  1  0  0  0  0
  3  4  1  0  0  0  0
  3 26  1  0  0  0  0
  3 27  1  0  0  0  0
  4  5  1  0  0  0  0
  4 28  1  0  0  0  0
  4 29  1  0  0  0  0
  5  6  1  0  0  0  0
  5 30  1  0  0  0  0
  5 31  1  0  0  0  0
  6  7  1  0  0  0  0
  6 19  1  0  0  0  0
  6 32  1  0  0  0  0
  7  8  1  0  0  0  0
  7 33  1  0  0  0  0
  8  9  2  0  0  0  0
  8 10  1  0  0  0  0
 10 34  1  0  0  0  0
 10 35  1  0  0  0  0
 10 11  1  0  0  0  0
 11 12  1  0  0  0  0
 11 17  1  0  0  0  0
 12 13  2  0  0  0  0
 13 14  1  0  0  0  0
 13 15  1  0  0  0  0
 14 21  1  0  0  0  0
 15 36  1  0  0  0  0
 15 16  2  0  0  0  0
 16 37  1  0  0  0  0
 16 17  1  0  0  0  0
 17 18  2  0  0  0  0
 19 20  1  0  0  0  0
 19 38  1  0  0  0  0
 20 39  1  0  0  0  0
 20 40  1  0  0  0  0
 20 41  1  0  0  0  0
M  END
> <s_m_source_file>
AV-unprocessed.smi

> <i_m_source_file_index>
1464

> <i_lp_mmshare_version>
43012

> <i_f3d_flags>
0

> <s_epik_input>
W0NIM11bQ0BASF0xW0NIMl1bQ0gyXVtDSDJdW0NASF0oW0NASF0xW0NIM10pW05IXUMoPU8pW0NIMl1uMltuSF1jKD1PKVtjSF1bY0hdYzI9Tw==

> <s_epik_cmdline>
J2VwaWtfcHl0aG9uJywgJy1waCcsICc3LjAnLCAnLXRuJywgJzgnLCAnLW1hJywgJzIwMCcsICctbWV0YWxfYmluZGluZycsICctaW1hZScsICc8aW5maWxlLm1hZT4nLCAnLW9tYWUnLCAnPG91dGZpbGUubWFlPic=

> <r_lp_tautomer_probability>
0.9996

> <r_epik_Ionization_Penalty>
2.10335

> <r_epik_Ionization_Penalty_Charging>
3.98079e-08

> <r_epik_Ionization_Penalty_Neutral>
2.10335

> <r_epik_State_Penalty>
1.67957

> <r_epik_Charging_Adjusted_Penalty>
1.67957

> <i_epik_Tot_Q>
0

> <i_epik_Tot_abs_Q>
0

> <r_epik_Metal_State_Penalty>
1.67957

> <b_epik_Metal_Only>
0

> <s_lp_Force_Field>
OPLS_2005

> <r_lp_Energy>
23.4663

> <b_lp_Chiralities_Consistent>
1

> <s_lp_Variant>
AV-unprocessed.smi:1464-12

> <Gold.Version>
5.8.1

> <Gold.Id.Protein>
6NUR|6NUR_protein|mol2

> <Gold.PLP.Fitness>
45.9321

> <Gold.PLP.PLP>
-39.7199

> <Gold.PLP.part.hbond>
-4.8371

> <Gold.PLP.part.metal>
0.0000

> <Gold.PLP.part.buried>
-3.2165

> <Gold.PLP.part.nonpolar>
-33.7100

> <Gold.PLP.part.repulsive>
3.8781

> <Gold.PLP.ligand.clash>
0.0000

> <Gold.PLP.ligand.torsion>
0.1970

> <Gold.PLP.Chemscore.Hbond>
2.1992

> <Gold.PLP.Chemscore.CHOScore>
0.0000

> <Gold.PLP.Chemscore.Metal>
0.0000

> <Gold.Chemscore.Hbonds>
donor molecule, donor type, donor heavy atom, donor atom, acceptor molecule, acceptor atom, score
      L1  H    14    21       P1  8028  0.42
      P1  H  7989  7998       L1    12  0.10
      P1  H  7997  8010       L1     9  1.00
      P1  H  8022  8030       L1    14  0.70

> <Gold.PLP.Chemscore.Internal.Correction>
0.0087

> <Gold.Rescore>
     Score         DG    S(hbond)    S(metal)    S(lipo)     H(rot)  DE(clash)    DE(int)     intcor
     15.42     -17.32       1.84        0.00      97.27       2.22       0.24       1.66       ----

> <Gold.Chemscore.Fitness>
15.4162

> <Gold.Chemscore.DG>
-17.3190

> <Gold.Chemscore.ZeroCoef>
-5.4800

> <Gold.Chemscore.Hbond>
1.8407

> <Gold.Chemscore.Metal>
0.0000

> <Gold.Chemscore.Lipo>
97.2684

> <Gold.Chemscore.Internal_Hbond>
0.0000

> <Gold.Chemscore.DEClash>
0.2430

> <Gold.Chemscore.DEInternal>
1.6597

> <Gold.Chemscore.Rot>
2.2224

> <Gold.Chemscore.Internal.Correction>
   9.000000E+99

> <Gold.Chemscore.Hbonds>
donor molecule, donor type, donor heavy atom, donor atom, acceptor molecule, acceptor atom, score
      L1  H    14    21       P1  8028  0.42
      P1  H  7989  7998       L1    12  0.01
      P1  H  7997  8010       L1     9  1.00
      P1  H  8022  8030       L1    14  0.07

> <Gold.Chemscore.Hbond.Weighted>
-6.1479

> <Gold.Chemscore.Metal.Weighted>
-0.0000

> <Gold.Chemscore.Lipo.Weighted>
-11.3804

> <Gold.Chemscore.Internal_Hbond.Weighted>
0.0000

> <Gold.Chemscore.DEClash.Weighted>
0.2430

> <Gold.Chemscore.DEInternal.Weighted>
1.6597

> <Gold.Chemscore.Rot.Weighted>
5.6893

> <Gold.Chemscore.Internal.Correction.Weighted>
   9.000000E+99

> <Gold.Protein.RotatedTorsions>
[ 6907 6896 6895 6894 ] final    2.79 input  -60.11 | X-H torsion
[ 7974 7965 7964 7962 ] final -112.77 input  175.53 | X-H torsion
[ 8008 7997 7996 7995 ] final  106.83 input   59.86 | X-H torsion
[ 10167 10162 10161 10158 ] final  -94.74 input  -65.29 | X-H torsion
[ 10718 10713 10712 10709 ] final  -28.86 input   66.30 | X-H torsion
[ 10763 10752 10751 10750 ] final  142.96 input  -60.55 | X-H torsion
[ 11005 11000 10999 10996 ] final -102.51 input  -57.11 | X-H torsion

> <Gold.Protein.ActiveResidues>
 VAL166  LYS551  ARG553  GLY616  TRP617  ASP618  TYR619  PRO620  LYS621  CYS622 
 ASP623  PHE694  ASN695  SER759  ASP760  ASP761  ALA762  ILE779  LEU786  VAL792 
 PHE793  MET794  SER795  GLU796  ALA797  LYS798  CYS799  TRP800  GLU811  SER814 

> <Gold.Protein.RotatedAtoms>
  151.6146  135.1037  160.0088 H   0  0  0  0  0  0  0  0  0  0  0  0  # atno 6907 bound_to 6896
  152.4190  133.7081  159.6473 H   0  0  0  0  0  0  0  0  0  0  0  0  # atno 6908 bound_to 6896
  150.8078  133.8405  159.3219 H   0  0  0  0  0  0  0  0  0  0  0  0  # atno 6909 bound_to 6896
  145.1401  140.8773  143.3707 H   0  0  0  0  0  0  0  0  0  0  0  0  # atno 7974 bound_to 7965
  156.1775  140.3106  155.9086 H   0  0  0  0  0  0  0  0  0  0  0  0  # atno 8008 bound_to 7997
  155.3456  140.0468  157.3062 H   0  0  0  0  0  0  0  0  0  0  0  0  # atno 8009 bound_to 7997
  154.5306  140.2229  155.8821 H   0  0  0  0  0  0  0  0  0  0  0  0  # atno 8010 bound_to 7997
  140.3113  143.3103  152.0145 H   0  0  0  0  0  0  0  0  0  0  0  0  # atno 10167 bound_to 10162
  156.4199  130.4424  149.7191 H   0  0  0  0  0  0  0  0  0  0  0  0  # atno 10718 bound_to 10713
  153.9645  135.2957  155.3431 H   0  0  0  0  0  0  0  0  0  0  0  0  # atno 10763 bound_to 10752
  154.7356  135.5048  153.9040 H   0  0  0  0  0  0  0  0  0  0  0  0  # atno 10764 bound_to 10752
  153.0930  135.6713  153.9928 H   0  0  0  0  0  0  0  0  0  0  0  0  # atno 10765 bound_to 10752
  141.1186  133.8565  157.1369 H   0  0  0  0  0  0  0  0  0  0  0  0  # atno 11005 bound_to 11000
  145.0542  139.3157  143.5913 LP  0  0  0  0  0  0  0  0  0  0  0  0  # atno 17320 bound_to 7965
  146.3506  139.9961  142.8681 LP  0  0  0  0  0  0  0  0  0  0  0  0  # atno 17321 bound_to 7965
  139.4893  144.6382  151.6932 LP  0  0  0  0  0  0  0  0  0  0  0  0  # atno 17342 bound_to 10162
  140.5565  144.0339  150.6150 LP  0  0  0  0  0  0  0  0  0  0  0  0  # atno 17343 bound_to 10162
  156.4137  130.7734  151.2748 LP  0  0  0  0  0  0  0  0  0  0  0  0  # atno 17370 bound_to 10713
  157.7508  131.0204  150.3706 LP  0  0  0  0  0  0  0  0  0  0  0  0  # atno 17371 bound_to 10713
  140.0126  134.9981  157.0426 LP  0  0  0  0  0  0  0  0  0  0  0  0  # atno 17394 bound_to 11000
  140.4574  134.1519  155.7187 LP  0  0  0  0  0  0  0  0  0  0  0  0  # atno 17395 bound_to 11000

$$$$
