AV-unprocessed.smi:1158|AV-procd|sdf|4913|dock1
  -GOLD-   22720 3493D 1   1.00000     0.00000
 Structure written by MMmdl.
 43 44  0  0  0  0  0  0  0  0  2 V2000
  151.7884  138.0766  154.4398 C   0  0  0  0  0  0  0  0  0  0  0  0
  150.4241  138.2016  154.0535 O   0  0  0  0  0  0  0  0  0  0  0  0
  149.7748  139.3962  154.3012 C   0  0  0  0  0  0  0  0  0  0  0  0
  150.4309  140.3533  155.0040 N   0  0  0  0  0  0  0  0  0  0  0  0
  149.7962  141.5172  155.2515 C   0  0  0  0  0  0  0  0  0  0  0  0
  148.4833  141.7849  154.8229 C   0  0  0  0  0  0  0  0  0  0  0  0
  147.8010  140.7944  154.0924 C   0  0  0  0  0  0  0  0  0  0  0  0
  148.4593  139.5723  153.8115 C   0  0  0  0  0  0  0  0  0  0  0  0
  147.8640  138.4958  153.0972 N   0  0  0  0  0  0  0  0  0  0  0  0
  146.5618  138.2272  152.9045 C   0  0  0  0  0  0  0  0  0  0  0  0
  145.6213  138.8870  153.3450 O   0  0  0  0  0  0  0  0  0  0  0  0
  146.4053  137.1338  152.1449 N   0  0  0  0  0  0  0  0  0  0  0  0
  145.1245  136.5721  151.7169 C   0  0  2  0  0  0  0  0  0  0  0  0
  144.3910  135.8619  152.8705 C   0  0  0  0  0  0  0  0  0  0  0  0
  145.1066  134.5672  153.2935 C   0  0  0  0  0  0  0  0  0  0  0  0
  145.2790  133.6391  152.1449 N   0  3  2  0  0  0  0  0  0  0  0  0
  145.8555  132.3371  152.5727 C   0  0  0  0  0  0  0  0  0  0  0  0
  145.8932  131.2842  151.4508 C   0  0  0  0  0  0  0  0  0  0  0  0
  146.1468  130.0644  151.9225 F   0  0  0  0  0  0  0  0  0  0  0  0
  144.7143  131.2566  150.8307 F   0  0  0  0  0  0  0  0  0  0  0  0
  146.0253  134.2832  151.0305 C   0  0  0  0  0  0  0  0  0  0  0  0
  145.3366  135.5795  150.5626 C   0  0  0  0  0  0  0  0  0  0  0  0
  152.1465  137.0805  154.1804 H   0  0  0  0  0  0  0  0  0  0  0  0
  151.9119  138.2019  155.5165 H   0  0  0  0  0  0  0  0  0  0  0  0
  152.4180  138.8002  153.9200 H   0  0  0  0  0  0  0  0  0  0  0  0
  150.3496  142.2544  155.8141 H   0  0  0  0  0  0  0  0  0  0  0  0
  148.0083  142.7269  155.0532 H   0  0  0  0  0  0  0  0  0  0  0  0
  146.7875  140.9885  153.7783 H   0  0  0  0  0  0  0  0  0  0  0  0
  148.5154  137.8968  152.6115 H   0  0  0  0  0  0  0  0  0  0  0  0
  147.2383  136.6661  151.8189 H   0  0  0  0  0  0  0  0  0  0  0  0
  144.5028  137.3917  151.3521 H   0  0  0  0  0  0  0  0  0  0  0  0
  144.2838  136.5275  153.7277 H   0  0  0  0  0  0  0  0  0  0  0  0
  143.3764  135.6193  152.5518 H   0  0  0  0  0  0  0  0  0  0  0  0
  146.0813  134.7972  153.7272 H   0  0  0  0  0  0  0  0  0  0  0  0
  144.5218  134.0815  154.0756 H   0  0  0  0  0  0  0  0  0  0  0  0
  146.8456  132.4806  153.0079 H   0  0  0  0  0  0  0  0  0  0  0  0
  145.2280  131.9357  153.3698 H   0  0  0  0  0  0  0  0  0  0  0  0
  146.6438  131.5176  150.6951 H   0  0  0  0  0  0  0  0  0  0  0  0
  147.0490  134.4892  151.3468 H   0  0  0  0  0  0  0  0  0  0  0  0
  146.0889  133.6098  150.1783 H   0  0  0  0  0  0  0  0  0  0  0  0
  144.3696  135.3297  150.1237 H   0  0  0  0  0  0  0  0  0  0  0  0
  145.9177  136.0455  149.7657 H   0  0  0  0  0  0  0  0  0  0  0  0
  144.3497  133.4426  151.8009 H   0  0  0  0  0  0  0  0  0  0  0  0
  1  2  1  0  0  0  0
  1 23  1  0  0  0  0
  1 24  1  0  0  0  0
  1 25  1  0  0  0  0
  2  3  1  0  0  0  0
  3  8  1  0  0  0  0
  3  4  2  0  0  0  0
  4  5  1  0  0  0  0
  5  6  2  0  0  0  0
  5 26  1  0  0  0  0
  6  7  1  0  0  0  0
  6 27  1  0  0  0  0
  7  8  2  0  0  0  0
  7 28  1  0  0  0  0
  8  9  1  0  0  0  0
  9 10  1  0  0  0  0
  9 29  1  0  0  0  0
 10 11  2  0  0  0  0
 10 12  1  0  0  0  0
 12 13  1  0  0  0  0
 12 30  1  0  0  0  0
 13 22  1  0  0  0  0
 13 14  1  0  0  0  0
 13 31  1  0  0  0  0
 14 15  1  0  0  0  0
 14 32  1  0  0  0  0
 14 33  1  0  0  0  0
 15 16  1  0  0  0  0
 15 34  1  0  0  0  0
 15 35  1  0  0  0  0
 16 17  1  0  0  0  0
 16 21  1  0  0  0  0
 16 43  1  0  0  0  0
 17 18  1  0  0  0  0
 17 36  1  0  0  0  0
 17 37  1  0  0  0  0
 18 19  1  0  0  0  0
 18 20  1  0  0  0  0
 18 38  1  0  0  0  0
 21 22  1  0  0  0  0
 21 39  1  0  0  0  0
 21 40  1  0  0  0  0
 22 41  1  0  0  0  0
 22 42  1  0  0  0  0
M  CHG  1  16   1
M  END
> <s_m_source_file>
AV-unprocessed.smi

> <i_m_source_file_index>
1158

> <i_lp_mmshare_version>
43012

> <i_f3d_flags>
0

> <s_epik_input>
W0NIM11PYzFuW2NIXVtjSF1bY0hdYzFbTkhdQyg9TylbTkhdW0NIXTJbQ0gyXVtDSDJdTihbQ0gyXVtDSF0oRilGKVtDSDJdW0NIMl0y

> <s_epik_cmdline>
J2VwaWtfcHl0aG9uJywgJy1waCcsICc3LjAnLCAnLXRuJywgJzgnLCAnLW1hJywgJzIwMCcsICctbWV0YWxfYmluZGluZycsICctaW1hZScsICc8aW5maWxlLm1hZT4nLCAnLW9tYWUnLCAnPG91dGZpbGUubWFlPic=

> <r_lp_tautomer_probability>
1

> <r_epik_Ionization_Penalty>
0.802109

> <r_epik_Ionization_Penalty_Charging>
0.802031

> <r_epik_Ionization_Penalty_Neutral>
7.83352e-05

> <r_epik_State_Penalty>
0.833408

> <r_epik_Charging_Adjusted_Penalty>
1.63544

> <i_epik_Tot_Q>
1

> <i_epik_Tot_abs_Q>
1

> <r_epik_Metal_State_Penalty>
0.833416

> <b_epik_Metal_Only>
0

> <s_lp_Force_Field>
OPLS_2005

> <r_lp_Energy>
20.396

> <b_lp_Chiralities_Consistent>
1

> <s_lp_Variant>
AV-unprocessed.smi:1158-3

> <Gold.Version>
5.8.1

> <Gold.Id.Protein>
6NUR|6NUR_protein|mol2

> <Gold.PLP.Fitness>
43.2587

> <Gold.PLP.PLP>
-35.4478

> <Gold.PLP.part.hbond>
-4.0000

> <Gold.PLP.part.metal>
0.0000

> <Gold.PLP.part.buried>
-1.8227

> <Gold.PLP.part.nonpolar>
-33.3680

> <Gold.PLP.part.repulsive>
3.5222

> <Gold.PLP.ligand.clash>
0.0000

> <Gold.PLP.ligand.torsion>
0.4212

> <Gold.PLP.Chemscore.Hbond>
2.8000

> <Gold.PLP.Chemscore.CHOScore>
0.0757

> <Gold.PLP.Chemscore.Metal>
0.0000

> <Gold.Chemscore.Hbonds>
donor molecule, donor type, donor heavy atom, donor atom, acceptor molecule, acceptor atom, score
      L1  H     9    29       P1  7948  1.00
      L1  H    12    30       P1  7948  1.00
      P1  H  7989  7998       L1     4  0.75
      L1  C     5    26       P1  8028  0.08

> <Gold.PLP.Chemscore.Internal.Correction>
0.0264

> <Gold.Rescore>
     Score         DG    S(hbond)    S(metal)    S(lipo)     H(rot)  DE(clash)    DE(int)     intcor
     14.31     -16.26       1.95        0.00      71.02       1.58       0.53       1.42       ----

> <Gold.Chemscore.Fitness>
14.3098

> <Gold.Chemscore.DG>
-16.2602

> <Gold.Chemscore.ZeroCoef>
-5.4800

> <Gold.Chemscore.Hbond>
1.9486

> <Gold.Chemscore.Metal>
0.0000

> <Gold.Chemscore.Lipo>
71.0182

> <Gold.Chemscore.Internal_Hbond>
0.0000

> <Gold.Chemscore.DEClash>
0.5313

> <Gold.Chemscore.DEInternal>
1.4191

> <Gold.Chemscore.Rot>
1.5770

> <Gold.Chemscore.Internal.Correction>
   9.000000E+99

> <Gold.Chemscore.Hbonds>
donor molecule, donor type, donor heavy atom, donor atom, acceptor molecule, acceptor atom, score
      L1  H     9    29       P1  7948  0.96
      L1  H    12    30       P1  7948  0.99
      P1  H  7989  7998       L1     4  0.03

> <Gold.Chemscore.Hbond.Weighted>
-6.5082

> <Gold.Chemscore.Metal.Weighted>
-0.0000

> <Gold.Chemscore.Lipo.Weighted>
-8.3091

> <Gold.Chemscore.Internal_Hbond.Weighted>
0.0000

> <Gold.Chemscore.DEClash.Weighted>
0.5313

> <Gold.Chemscore.DEInternal.Weighted>
1.4191

> <Gold.Chemscore.Rot.Weighted>
4.0371

> <Gold.Chemscore.Internal.Correction.Weighted>
   9.000000E+99

> <Gold.Protein.RotatedTorsions>
[ 6907 6896 6895 6894 ] final  140.27 input  -60.11 | X-H torsion
[ 7974 7965 7964 7962 ] final  116.25 input  175.53 | X-H torsion
[ 8008 7997 7996 7995 ] final  137.53 input   59.86 | X-H torsion
[ 10167 10162 10161 10158 ] final  177.06 input  -65.29 | X-H torsion
[ 10718 10713 10712 10709 ] final  165.05 input   66.30 | X-H torsion
[ 10763 10752 10751 10750 ] final  179.14 input  -60.55 | X-H torsion
[ 11005 11000 10999 10996 ] final   76.17 input  -57.11 | X-H torsion

> <Gold.Protein.ActiveResidues>
 VAL166  LYS551  ARG553  GLY616  TRP617  ASP618  TYR619  PRO620  LYS621  CYS622 
 ASP623  PHE694  ASN695  SER759  ASP760  ASP761  ALA762  ILE779  LEU786  VAL792 
 PHE793  MET794  SER795  GLU796  ALA797  LYS798  CYS799  TRP800  GLU811  SER814 

> <Gold.Protein.RotatedAtoms>
  152.2450  133.5167  159.5291 H   0  0  0  0  0  0  0  0  0  0  0  0  # atno 6907 bound_to 6896
  150.7076  134.1037  159.3984 H   0  0  0  0  0  0  0  0  0  0  0  0  # atno 6908 bound_to 6896
  151.8958  135.0398  160.0552 H   0  0  0  0  0  0  0  0  0  0  0  0  # atno 6909 bound_to 6896
  145.1820  139.3045  143.4413 H   0  0  0  0  0  0  0  0  0  0  0  0  # atno 7974 bound_to 7965
  156.3001  140.2417  156.3925 H   0  0  0  0  0  0  0  0  0  0  0  0  # atno 8008 bound_to 7997
  154.8600  140.0420  157.1679 H   0  0  0  0  0  0  0  0  0  0  0  0  # atno 8009 bound_to 7997
  154.8906  140.2962  155.5376 H   0  0  0  0  0  0  0  0  0  0  0  0  # atno 8010 bound_to 7997
  139.5238  144.2842  152.0520 H   0  0  0  0  0  0  0  0  0  0  0  0  # atno 10167 bound_to 10162
  157.0856  131.0404  151.2557 H   0  0  0  0  0  0  0  0  0  0  0  0  # atno 10718 bound_to 10713
  154.5168  135.2791  155.1296 H   0  0  0  0  0  0  0  0  0  0  0  0  # atno 10763 bound_to 10752
  154.2870  135.6274  153.5373 H   0  0  0  0  0  0  0  0  0  0  0  0  # atno 10764 bound_to 10752
  152.9929  135.5665  154.5647 H   0  0  0  0  0  0  0  0  0  0  0  0  # atno 10765 bound_to 10752
  139.9310  134.7578  156.1362 H   0  0  0  0  0  0  0  0  0  0  0  0  # atno 11005 bound_to 11000
  146.3451  140.2002  142.8589 LP  0  0  0  0  0  0  0  0  0  0  0  0  # atno 17320 bound_to 7965
  145.0127  140.8727  143.5214 LP  0  0  0  0  0  0  0  0  0  0  0  0  # atno 17321 bound_to 7965
  140.2296  144.4382  150.6306 LP  0  0  0  0  0  0  0  0  0  0  0  0  # atno 17342 bound_to 10162
  140.6364  143.2195  151.6385 LP  0  0  0  0  0  0  0  0  0  0  0  0  # atno 17343 bound_to 10162
  157.4764  130.7739  149.7372 LP  0  0  0  0  0  0  0  0  0  0  0  0  # atno 17370 bound_to 10713
  155.9911  130.3939  150.2997 LP  0  0  0  0  0  0  0  0  0  0  0  0  # atno 17371 bound_to 10713
  141.0899  133.6719  156.2517 LP  0  0  0  0  0  0  0  0  0  0  0  0  # atno 17394 bound_to 11000
  140.6201  134.5370  157.5546 LP  0  0  0  0  0  0  0  0  0  0  0  0  # atno 17395 bound_to 11000

$$$$
