AV-unprocessed.smi:642|AV-procd|sdf|3152|dock7
  -GOLD-   22720 0 73D 1   1.00000     0.00000
 Structure written by MMmdl.
 49 51  0  0  0  0  0  0  0  0  1 V2000
  146.6045  138.1111  151.1496 O   0  0  0  0  0  0  0  0  0  0  0  0
  146.6993  137.4148  152.1606 C   0  0  0  0  0  0  0  0  0  0  0  0
  147.1889  137.8311  153.3394 N   0  0  0  0  0  0  0  0  0  0  0  0
  147.6552  139.1331  153.6727 C   0  0  0  0  0  0  0  0  0  0  0  0
  147.1413  140.2948  153.0484 C   0  0  0  0  0  0  0  0  0  0  0  0
  147.6804  141.5493  153.3849 C   0  0  0  0  0  0  0  0  0  0  0  0
  148.7239  141.5963  154.3260 C   0  0  0  0  0  0  0  0  0  0  0  0
  149.2322  140.4976  154.9202 N   0  0  0  0  0  0  0  0  0  0  0  0
  148.7158  139.2842  154.6059 C   0  0  0  0  0  0  0  0  0  0  0  0
  149.2483  138.1597  155.2680 N   0  0  0  0  0  0  0  0  0  0  0  0
  149.1734  138.2523  156.7220 C   0  0  0  0  0  0  0  0  0  0  0  0
  149.5309  136.8965  157.3549 C   0  0  0  0  0  0  0  0  0  0  0  0
  150.8141  136.4771  156.8987 O   0  0  0  0  0  0  0  0  0  0  0  0
  150.8545  136.3163  155.4835 C   0  0  0  0  0  0  0  0  0  0  0  0
  150.5378  137.6587  154.8021 C   0  0  0  0  0  0  0  0  0  0  0  0
  146.2937  136.1386  152.2290 N   0  0  0  0  0  0  0  0  0  0  0  0
  145.6561  135.3875  151.1494 C   0  0  0  0  0  0  0  0  0  0  0  0
  144.1178  135.4878  151.2613 C   0  0  0  0  0  0  0  0  0  0  0  0
  143.4496  134.4546  152.1846 C   0  0  0  0  0  0  0  0  0  0  0  0
  143.1142  133.1395  151.4583 C   0  0  0  0  0  0  0  0  0  0  0  0
  144.3248  132.2502  151.1326 C   0  0  0  0  0  0  0  0  0  0  0  0
  145.4318  132.9343  150.3107 C   0  0  0  0  0  0  0  0  0  0  0  0
  146.2327  133.9566  151.1336 C   0  0  0  0  0  0  0  0  0  0  0  0
  147.1079  137.1864  154.1122 H   0  0  0  0  0  0  0  0  0  0  0  0
  146.3581  140.2390  152.3073 H   0  0  0  0  0  0  0  0  0  0  0  0
  147.3083  142.4530  152.9256 H   0  0  0  0  0  0  0  0  0  0  0  0
  149.1656  142.5409  154.6067 H   0  0  0  0  0  0  0  0  0  0  0  0
  149.8686  139.0194  157.0656 H   0  0  0  0  0  0  0  0  0  0  0  0
  148.1781  138.5595  157.0435 H   0  0  0  0  0  0  0  0  0  0  0  0
  149.5508  136.9829  158.4414 H   0  0  0  0  0  0  0  0  0  0  0  0
  148.7804  136.1436  157.1082 H   0  0  0  0  0  0  0  0  0  0  0  0
  151.8472  135.9723  155.1928 H   0  0  0  0  0  0  0  0  0  0  0  0
  150.1461  135.5460  155.1743 H   0  0  0  0  0  0  0  0  0  0  0  0
  150.5189  137.5341  153.7185 H   0  0  0  0  0  0  0  0  0  0  0  0
  151.3208  138.3821  155.0341 H   0  0  0  0  0  0  0  0  0  0  0  0
  146.4142  135.6519  153.1051 H   0  0  0  0  0  0  0  0  0  0  0  0
  145.9326  135.8495  150.1998 H   0  0  0  0  0  0  0  0  0  0  0  0
  143.8497  136.4900  151.5990 H   0  0  0  0  0  0  0  0  0  0  0  0
  143.6805  135.4098  150.2653 H   0  0  0  0  0  0  0  0  0  0  0  0
  144.0519  134.2732  153.0755 H   0  0  0  0  0  0  0  0  0  0  0  0
  142.5118  134.8809  152.5426 H   0  0  0  0  0  0  0  0  0  0  0  0
  142.4290  132.5637  152.0813 H   0  0  0  0  0  0  0  0  0  0  0  0
  142.5635  133.3566  150.5423 H   0  0  0  0  0  0  0  0  0  0  0  0
  144.7463  131.8542  152.0574 H   0  0  0  0  0  0  0  0  0  0  0  0
  143.9675  131.3815  150.5788 H   0  0  0  0  0  0  0  0  0  0  0  0
  146.1207  132.1583  149.9752 H   0  0  0  0  0  0  0  0  0  0  0  0
  145.0293  133.3867  149.4037 H   0  0  0  0  0  0  0  0  0  0  0  0
  147.2456  134.0102  150.7323 H   0  0  0  0  0  0  0  0  0  0  0  0
  146.3493  133.5824  152.1518 H   0  0  0  0  0  0  0  0  0  0  0  0
  1  2  2  0  0  0  0
  2  3  1  0  0  0  0
  2 16  1  0  0  0  0
  3  4  1  0  0  0  0
  3 24  1  0  0  0  0
  4  9  1  0  0  0  0
  4  5  2  0  0  0  0
  5  6  1  0  0  0  0
  5 25  1  0  0  0  0
  6  7  2  0  0  0  0
  6 26  1  0  0  0  0
  7  8  1  0  0  0  0
  7 27  1  0  0  0  0
  8  9  2  0  0  0  0
  9 10  1  0  0  0  0
 10 15  1  0  0  0  0
 10 11  1  0  0  0  0
 11 12  1  0  0  0  0
 11 28  1  0  0  0  0
 11 29  1  0  0  0  0
 12 13  1  0  0  0  0
 12 30  1  0  0  0  0
 12 31  1  0  0  0  0
 13 14  1  0  0  0  0
 14 15  1  0  0  0  0
 14 32  1  0  0  0  0
 14 33  1  0  0  0  0
 15 34  1  0  0  0  0
 15 35  1  0  0  0  0
 16 17  1  0  0  0  0
 16 36  1  0  0  0  0
 17 23  1  0  0  0  0
 17 18  1  0  0  0  0
 17 37  1  0  0  0  0
 18 19  1  0  0  0  0
 18 38  1  0  0  0  0
 18 39  1  0  0  0  0
 19 20  1  0  0  0  0
 19 40  1  0  0  0  0
 19 41  1  0  0  0  0
 20 21  1  0  0  0  0
 20 42  1  0  0  0  0
 20 43  1  0  0  0  0
 21 22  1  0  0  0  0
 21 44  1  0  0  0  0
 21 45  1  0  0  0  0
 22 23  1  0  0  0  0
 22 46  1  0  0  0  0
 22 47  1  0  0  0  0
 23 48  1  0  0  0  0
 23 49  1  0  0  0  0
M  END
> <s_m_source_file>
AV-unprocessed.smi

> <i_m_source_file_index>
642

> <i_lp_mmshare_version>
43012

> <i_f3d_flags>
0

> <s_epik_input>
W0NIMl0xW0NIMl1bQ0gyXVtDSDJdW0NIMl1bQ0gyXVtDSF0xW05IXUMoPU8pW05IXWMyW2NIXVtjSF1bY0hdbmMyTjNbQ0gyXVtDSDJdT1tDSDJdW0NIMl0z

> <s_epik_cmdline>
J2VwaWtfcHl0aG9uJywgJy1waCcsICc3LjAnLCAnLXRuJywgJzgnLCAnLW1hJywgJzIwMCcsICctbWV0YWxfYmluZGluZycsICctaW1hZScsICc8aW5maWxlLm1hZT4nLCAnLW9tYWUnLCAnPG91dGZpbGUubWFlPic=

> <r_lp_tautomer_probability>
1

> <r_epik_Ionization_Penalty>
0.00218327

> <r_epik_Ionization_Penalty_Charging>
0

> <r_epik_Ionization_Penalty_Neutral>
0.00218327

> <r_epik_State_Penalty>
0.00146969

> <r_epik_Charging_Adjusted_Penalty>
0.00146969

> <i_epik_Tot_Q>
0

> <i_epik_Tot_abs_Q>
0

> <r_epik_Metal_State_Penalty>
-0

> <b_epik_Metal_Only>
0

> <s_lp_Force_Field>
OPLS_2005

> <r_lp_Energy>
33.5624

> <b_lp_Chiralities_Consistent>
1

> <s_lp_Variant>
AV-unprocessed.smi:642-1

> <Gold.Version>
5.8.1

> <Gold.Id.Protein>
6NUR|6NUR_protein|mol2

> <Gold.PLP.Fitness>
38.9411

> <Gold.PLP.PLP>
-34.2385

> <Gold.PLP.part.hbond>
-3.0000

> <Gold.PLP.part.metal>
0.0000

> <Gold.PLP.part.buried>
-1.2322

> <Gold.PLP.part.nonpolar>
-31.2069

> <Gold.PLP.part.repulsive>
1.4598

> <Gold.PLP.ligand.clash>
0.0000

> <Gold.PLP.ligand.torsion>
0.7512

> <Gold.PLP.Chemscore.Hbond>
0.9913

> <Gold.PLP.Chemscore.CHOScore>
1.0000

> <Gold.PLP.Chemscore.Metal>
0.0000

> <Gold.Chemscore.Hbonds>
donor molecule, donor type, donor heavy atom, donor atom, acceptor molecule, acceptor atom, score
      P1  H  7954  7966       L1     1  1.00
      L1  C     7    27       P1  8028  1.00

> <Gold.PLP.Chemscore.Internal.Correction>
0.2313

> <Gold.Rescore>
     Score         DG    S(hbond)    S(metal)    S(lipo)     H(rot)  DE(clash)    DE(int)     intcor
     11.65     -16.64       0.92        0.00      95.00       1.18       3.15       1.85       ----

> <Gold.Chemscore.Fitness>
11.6494

> <Gold.Chemscore.DG>
-16.6433

> <Gold.Chemscore.ZeroCoef>
-5.4800

> <Gold.Chemscore.Hbond>
0.9181

> <Gold.Chemscore.Metal>
0.0000

> <Gold.Chemscore.Lipo>
95.0031

> <Gold.Chemscore.Internal_Hbond>
0.0000

> <Gold.Chemscore.DEClash>
3.1487

> <Gold.Chemscore.DEInternal>
1.8452

> <Gold.Chemscore.Rot>
1.1791

> <Gold.Chemscore.Internal.Correction>
   9.000000E+99

> <Gold.Chemscore.Hbonds>
donor molecule, donor type, donor heavy atom, donor atom, acceptor molecule, acceptor atom, score
      P1  H  7954  7966       L1     1  0.80

> <Gold.Chemscore.Hbond.Weighted>
-3.0663

> <Gold.Chemscore.Metal.Weighted>
-0.0000

> <Gold.Chemscore.Lipo.Weighted>
-11.1154

> <Gold.Chemscore.Internal_Hbond.Weighted>
0.0000

> <Gold.Chemscore.DEClash.Weighted>
3.1487

> <Gold.Chemscore.DEInternal.Weighted>
1.8452

> <Gold.Chemscore.Rot.Weighted>
3.0184

> <Gold.Chemscore.Internal.Correction.Weighted>
   9.000000E+99

> <Gold.Protein.RotatedTorsions>
[ 6907 6896 6895 6894 ] final  101.46 input  -60.11 | X-H torsion
[ 7974 7965 7964 7962 ] final  -59.30 input  175.53 | X-H torsion
[ 8008 7997 7996 7995 ] final -102.86 input   59.86 | X-H torsion
[ 10167 10162 10161 10158 ] final  -90.97 input  -65.29 | X-H torsion
[ 10718 10713 10712 10709 ] final -139.90 input   66.30 | X-H torsion
[ 10763 10752 10751 10750 ] final -138.65 input  -60.55 | X-H torsion
[ 11005 11000 10999 10996 ] final   41.42 input  -57.11 | X-H torsion

> <Gold.Protein.ActiveResidues>
 VAL166  LYS551  ARG553  GLY616  TRP617  ASP618  TYR619  PRO620  LYS621  CYS622 
 ASP623  PHE694  ASN695  SER759  ASP760  ASP761  ALA762  ILE779  LEU786  VAL792 
 PHE793  MET794  SER795  GLU796  ALA797  LYS798  CYS799  TRP800  GLU811  SER814 

> <Gold.Protein.RotatedAtoms>
  152.5348  134.0122  159.7943 H   0  0  0  0  0  0  0  0  0  0  0  0  # atno 6907 bound_to 6896
  151.0322  133.5772  159.2666 H   0  0  0  0  0  0  0  0  0  0  0  0  # atno 6908 bound_to 6896
  151.2772  135.0710  159.9209 H   0  0  0  0  0  0  0  0  0  0  0  0  # atno 6909 bound_to 6896
  145.8290  140.8492  143.0093 H   0  0  0  0  0  0  0  0  0  0  0  0  # atno 7974 bound_to 7965
  154.8627  140.0426  157.1675 H   0  0  0  0  0  0  0  0  0  0  0  0  # atno 8008 bound_to 7997
  154.8822  140.2974  155.5398 H   0  0  0  0  0  0  0  0  0  0  0  0  # atno 8009 bound_to 7997
  156.2998  140.2409  156.3827 H   0  0  0  0  0  0  0  0  0  0  0  0  # atno 8010 bound_to 7997
  140.3496  143.2898  151.9741 H   0  0  0  0  0  0  0  0  0  0  0  0  # atno 10167 bound_to 10162
  156.3161  130.7509  151.1596 H   0  0  0  0  0  0  0  0  0  0  0  0  # atno 10718 bound_to 10713
  154.8631  135.3606  154.5419 H   0  0  0  0  0  0  0  0  0  0  0  0  # atno 10763 bound_to 10752
  153.6041  135.7011  153.5377 H   0  0  0  0  0  0  0  0  0  0  0  0  # atno 10764 bound_to 10752
  153.3266  135.4136  155.1422 H   0  0  0  0  0  0  0  0  0  0  0  0  # atno 10765 bound_to 10752
  140.1836  134.4073  155.8186 H   0  0  0  0  0  0  0  0  0  0  0  0  # atno 11005 bound_to 11000
  144.6741  140.0645  143.7475 LP  0  0  0  0  0  0  0  0  0  0  0  0  # atno 17320 bound_to 7965
  145.9591  139.2788  143.1166 LP  0  0  0  0  0  0  0  0  0  0  0  0  # atno 17321 bound_to 7965
  139.4828  144.6087  151.7473 LP  0  0  0  0  0  0  0  0  0  0  0  0  # atno 17342 bound_to 10162
  140.5231  144.0847  150.6029 LP  0  0  0  0  0  0  0  0  0  0  0  0  # atno 17343 bound_to 10162
  157.7402  131.0520  150.5183 LP  0  0  0  0  0  0  0  0  0  0  0  0  # atno 17370 bound_to 10713
  156.5329  130.4189  149.6192 LP  0  0  0  0  0  0  0  0  0  0  0  0  # atno 17371 bound_to 10713
  141.2224  133.7012  156.7974 LP  0  0  0  0  0  0  0  0  0  0  0  0  # atno 17394 bound_to 11000
  140.2239  134.8737  157.3406 LP  0  0  0  0  0  0  0  0  0  0  0  0  # atno 17395 bound_to 11000

$$$$
