AV-unprocessed.smi:2032|AV-procd|sdf|8232|dock7
  -GOLD-   2272010503D 1   1.00000     0.00000
 Structure written by MMmdl.
 42 43  0  0  0  0  0  0  0  0  1 V2000
  151.3891  144.7808  159.1749 C   0  0  0  0  0  0  0  0  0  0  0  0
  151.5799  143.2705  159.3520 C   0  0  1  0  0  0  0  0  0  0  0  0
  151.4660  142.5092  158.0181 C   0  0  0  0  0  0  0  0  0  0  0  0
  151.7112  141.0698  158.1581 N   0  0  0  0  0  0  0  0  0  0  0  0
  151.6226  140.3507  156.8657 C   0  0  2  0  0  0  0  0  0  0  0  0
  150.2827  140.5983  156.1271 C   0  0  0  0  0  0  0  0  0  0  0  0
  151.8404  138.8152  156.9997 C   0  0  0  0  0  0  0  0  0  0  0  0
  150.7278  138.1296  157.6522 N   0  0  0  0  0  0  0  0  0  0  0  0
  150.8469  137.3011  158.6996 C   0  0  0  0  0  0  0  0  0  0  0  0
  151.9245  137.0330  159.2323 O   0  0  0  0  0  0  0  0  0  0  0  0
  149.6512  136.8140  159.0748 N   0  0  0  0  0  0  0  0  0  0  0  0
  149.3638  135.9184  160.1385 C   0  0  0  0  0  0  0  0  0  0  0  0
  148.9033  136.2940  161.3376 N   0  0  0  0  0  0  0  0  0  0  0  0
  148.7092  135.2045  162.1902 C   0  0  0  0  0  0  0  0  0  0  0  0
  149.0284  133.9975  161.6195 C   0  0  0  0  0  0  0  0  0  0  0  0
  149.5884  134.1826  159.9786 S   0  0  0  0  0  0  0  0  0  0  0  0
  153.0158  140.8979  158.8081 C   0  0  0  0  0  0  0  0  0  0  0  0
  153.1360  141.6692  160.1365 C   0  0  1  0  0  0  0  0  0  0  0  0
  154.5360  141.5502  160.7484 C   0  0  0  0  0  0  0  0  0  0  0  0
  152.8698  143.0466  159.9057 O   0  0  0  0  0  0  0  0  0  0  0  0
  150.4073  145.0056  158.7583 H   0  0  0  0  0  0  0  0  0  0  0  0
  152.1414  145.1982  158.5049 H   0  0  0  0  0  0  0  0  0  0  0  0
  151.4706  145.2981  160.1311 H   0  0  0  0  0  0  0  0  0  0  0  0
  150.8247  142.9022  160.0486 H   0  0  0  0  0  0  0  0  0  0  0  0
  150.4628  142.6887  157.6348 H   0  0  0  0  0  0  0  0  0  0  0  0
  152.1635  142.9336  157.2940 H   0  0  0  0  0  0  0  0  0  0  0  0
  152.4139  140.7340  156.2194 H   0  0  0  0  0  0  0  0  0  0  0  0
  150.1994  140.0168  155.2097 H   0  0  0  0  0  0  0  0  0  0  0  0
  150.1711  141.6357  155.8151 H   0  0  0  0  0  0  0  0  0  0  0  0
  149.4304  140.3410  156.7568 H   0  0  0  0  0  0  0  0  0  0  0  0
  151.9817  138.3311  156.0348 H   0  0  0  0  0  0  0  0  0  0  0  0
  152.7456  138.6181  157.5749 H   0  0  0  0  0  0  0  0  0  0  0  0
  149.8065  138.2949  157.2742 H   0  0  0  0  0  0  0  0  0  0  0  0
  148.8528  137.1203  158.5387 H   0  0  0  0  0  0  0  0  0  0  0  0
  148.3404  135.3796  163.1900 H   0  0  0  0  0  0  0  0  0  0  0  0
  148.9683  133.0151  162.0636 H   0  0  0  0  0  0  0  0  0  0  0  0
  153.1968  139.8503  159.0380 H   0  0  0  0  0  0  0  0  0  0  0  0
  153.8092  141.2151  158.1293 H   0  0  0  0  0  0  0  0  0  0  0  0
  152.4075  141.2815  160.8507 H   0  0  0  0  0  0  0  0  0  0  0  0
  154.7870  140.5097  160.9560 H   0  0  0  0  0  0  0  0  0  0  0  0
  154.5988  142.1010  161.6872 H   0  0  0  0  0  0  0  0  0  0  0  0
  155.2951  141.9503  160.0758 H   0  0  0  0  0  0  0  0  0  0  0  0
  1  2  1  0  0  0  0
  1 21  1  0  0  0  0
  1 22  1  0  0  0  0
  1 23  1  0  0  0  0
  2 20  1  0  0  0  0
  2  3  1  0  0  0  0
  2 24  1  0  0  0  0
  3  4  1  0  0  0  0
  3 25  1  0  0  0  0
  3 26  1  0  0  0  0
  4  5  1  0  0  0  0
  4 17  1  0  0  0  0
  5  6  1  0  0  0  0
  5  7  1  0  0  0  0
  5 27  1  0  0  0  0
  6 28  1  0  0  0  0
  6 29  1  0  0  0  0
  6 30  1  0  0  0  0
  7  8  1  0  0  0  0
  7 31  1  0  0  0  0
  7 32  1  0  0  0  0
  8  9  1  0  0  0  0
  8 33  1  0  0  0  0
  9 10  2  0  0  0  0
  9 11  1  0  0  0  0
 11 12  1  0  0  0  0
 11 34  1  0  0  0  0
 12 16  1  0  0  0  0
 12 13  2  0  0  0  0
 13 14  1  0  0  0  0
 14 15  2  0  0  0  0
 14 35  1  0  0  0  0
 15 16  1  0  0  0  0
 15 36  1  0  0  0  0
 17 18  1  0  0  0  0
 17 37  1  0  0  0  0
 17 38  1  0  0  0  0
 18 19  1  0  0  0  0
 18 20  1  0  0  0  0
 18 39  1  0  0  0  0
 19 40  1  0  0  0  0
 19 41  1  0  0  0  0
 19 42  1  0  0  0  0
M  END
> <s_m_source_file>
AV-unprocessed.smi

> <i_m_source_file_index>
2032

> <i_lp_mmshare_version>
43012

> <i_f3d_flags>
0

> <s_epik_input>
W0NIM11bQ0BASF0xW0NIMl1OKFtDSDJdW0NASF0oTzEpW0NIM10pW0NASF0oW0NIM10pW0NIMl1bTkhdQyg9TylbTkhdYzJuW2NIXVtjSF1zMg==

> <s_epik_cmdline>
J2VwaWtfcHl0aG9uJywgJy1waCcsICc3LjAnLCAnLXRuJywgJzgnLCAnLW1hJywgJzIwMCcsICctbWV0YWxfYmluZGluZycsICctaW1hZScsICc8aW5maWxlLm1hZT4nLCAnLW9tYWUnLCAnPG91dGZpbGUubWFlPic=

> <r_lp_tautomer_probability>
0.999

> <r_epik_Ionization_Penalty>
0.219202

> <r_epik_Ionization_Penalty_Charging>
0

> <r_epik_Ionization_Penalty_Neutral>
0.219202

> <r_epik_State_Penalty>
0.209349

> <r_epik_Charging_Adjusted_Penalty>
0.209349

> <i_epik_Tot_Q>
0

> <i_epik_Tot_abs_Q>
0

> <r_epik_Metal_State_Penalty>
0.247737

> <b_epik_Metal_Only>
0

> <s_lp_Force_Field>
OPLS_2005

> <r_lp_Energy>
24.8092

> <b_lp_Chiralities_Consistent>
1

> <s_lp_Variant>
AV-unprocessed.smi:2032-2

> <Gold.Version>
5.8.1

> <Gold.Id.Protein>
6NUR|6NUR_protein|mol2

> <Gold.PLP.Fitness>
46.9835

> <Gold.PLP.PLP>
-40.2168

> <Gold.PLP.part.hbond>
-3.0000

> <Gold.PLP.part.metal>
0.0000

> <Gold.PLP.part.buried>
-6.0259

> <Gold.PLP.part.nonpolar>
-31.8660

> <Gold.PLP.part.repulsive>
0.2912

> <Gold.PLP.ligand.clash>
0.0000

> <Gold.PLP.ligand.torsion>
0.8107

> <Gold.PLP.Chemscore.Hbond>
2.7840

> <Gold.PLP.Chemscore.CHOScore>
0.0000

> <Gold.PLP.Chemscore.Metal>
0.0000

> <Gold.Chemscore.Hbonds>
donor molecule, donor type, donor heavy atom, donor atom, acceptor molecule, acceptor atom, score
      P1  H  6896  6909       L1    10  0.34
      P1  H  6931  6943       L1    13  1.00

> <Gold.PLP.Chemscore.Internal.Correction>
0.0361

> <Gold.Rescore>
     Score         DG    S(hbond)    S(metal)    S(lipo)     H(rot)  DE(clash)    DE(int)     intcor
     18.71     -19.42       1.95        0.00      98.04       1.57       0.00       0.71       ----

> <Gold.Chemscore.Fitness>
18.7125

> <Gold.Chemscore.DG>
-19.4194

> <Gold.Chemscore.ZeroCoef>
-5.4800

> <Gold.Chemscore.Hbond>
1.9462

> <Gold.Chemscore.Metal>
0.0000

> <Gold.Chemscore.Lipo>
98.0445

> <Gold.Chemscore.Internal_Hbond>
0.0000

> <Gold.Chemscore.DEClash>
0.0000

> <Gold.Chemscore.DEInternal>
0.7070

> <Gold.Chemscore.Rot>
1.5750

> <Gold.Chemscore.Internal.Correction>
   9.000000E+99

> <Gold.Chemscore.Hbonds>
donor molecule, donor type, donor heavy atom, donor atom, acceptor molecule, acceptor atom, score
      P1  H  6896  6909       L1    10  0.02
      P1  H  6931  6943       L1    13  0.90

> <Gold.Chemscore.Hbond.Weighted>
-6.5002

> <Gold.Chemscore.Metal.Weighted>
-0.0000

> <Gold.Chemscore.Lipo.Weighted>
-11.4712

> <Gold.Chemscore.Internal_Hbond.Weighted>
0.0000

> <Gold.Chemscore.DEClash.Weighted>
0.0000

> <Gold.Chemscore.DEInternal.Weighted>
0.7070

> <Gold.Chemscore.Rot.Weighted>
4.0319

> <Gold.Chemscore.Internal.Correction.Weighted>
   9.000000E+99

> <Gold.Protein.RotatedTorsions>
[ 6907 6896 6895 6894 ] final   96.51 input  -60.11 | X-H torsion
[ 7974 7965 7964 7962 ] final -151.86 input  175.53 | X-H torsion
[ 8008 7997 7996 7995 ] final -116.89 input   59.86 | X-H torsion
[ 10167 10162 10161 10158 ] final -147.15 input  -65.29 | X-H torsion
[ 10718 10713 10712 10709 ] final   72.65 input   66.30 | X-H torsion
[ 10763 10752 10751 10750 ] final  -16.86 input  -60.55 | X-H torsion
[ 11005 11000 10999 10996 ] final  130.14 input  -57.11 | X-H torsion

> <Gold.Protein.ActiveResidues>
 VAL166  LYS551  ARG553  GLY616  TRP617  ASP618  TYR619  PRO620  LYS621  CYS622 
 ASP623  PHE694  ASN695  SER759  ASP760  ASP761  ALA762  ILE779  LEU786  VAL792 
 PHE793  MET794  SER795  GLU796  ALA797  LYS798  CYS799  TRP800  GLU811  SER814 

> <Gold.Protein.RotatedAtoms>
  152.5434  134.0876  159.8262 H   0  0  0  0  0  0  0  0  0  0  0  0  # atno 6907 bound_to 6896
  151.0969  133.5265  159.2619 H   0  0  0  0  0  0  0  0  0  0  0  0  # atno 6908 bound_to 6896
  151.2035  135.0461  159.8936 H   0  0  0  0  0  0  0  0  0  0  0  0  # atno 6909 bound_to 6896
  144.7826  140.4740  143.5828 H   0  0  0  0  0  0  0  0  0  0  0  0  # atno 7974 bound_to 7965
  155.0750  140.0394  157.2621 H   0  0  0  0  0  0  0  0  0  0  0  0  # atno 8008 bound_to 7997
  154.6952  140.2662  155.6748 H   0  0  0  0  0  0  0  0  0  0  0  0  # atno 8009 bound_to 7997
  156.2742  140.2751  156.1544 H   0  0  0  0  0  0  0  0  0  0  0  0  # atno 8010 bound_to 7997
  139.7648  143.8324  152.2614 H   0  0  0  0  0  0  0  0  0  0  0  0  # atno 10167 bound_to 10162
  157.6511  130.9589  150.0959 H   0  0  0  0  0  0  0  0  0  0  0  0  # atno 10718 bound_to 10713
  153.5650  135.7009  153.5530 H   0  0  0  0  0  0  0  0  0  0  0  0  # atno 10763 bound_to 10752
  153.3396  135.4025  155.1560 H   0  0  0  0  0  0  0  0  0  0  0  0  # atno 10764 bound_to 10752
  154.8642  135.3739  154.5169 H   0  0  0  0  0  0  0  0  0  0  0  0  # atno 10765 bound_to 10752
  139.9655  134.9592  156.9250 H   0  0  0  0  0  0  0  0  0  0  0  0  # atno 11005 bound_to 11000
  145.6008  139.1503  143.3130 LP  0  0  0  0  0  0  0  0  0  0  0  0  # atno 17320 bound_to 7965
  146.2042  140.6130  142.9088 LP  0  0  0  0  0  0  0  0  0  0  0  0  # atno 17321 bound_to 7965
  139.8341  144.7240  150.9413 LP  0  0  0  0  0  0  0  0  0  0  0  0  # atno 17342 bound_to 10162
  140.7810  143.4043  151.1097 LP  0  0  0  0  0  0  0  0  0  0  0  0  # atno 17343 bound_to 10162
  156.1895  130.3654  149.8929 LP  0  0  0  0  0  0  0  0  0  0  0  0  # atno 17370 bound_to 10713
  156.6860  130.8877  151.3582 LP  0  0  0  0  0  0  0  0  0  0  0  0  # atno 17371 bound_to 10713
  140.5406  134.0723  155.7340 LP  0  0  0  0  0  0  0  0  0  0  0  0  # atno 17394 bound_to 11000
  141.1334  133.9263  157.2486 LP  0  0  0  0  0  0  0  0  0  0  0  0  # atno 17395 bound_to 11000

$$$$
