AV-unprocessed.smi:198|AV-procd|sdf|1558|dock3
  -GOLD-   2262019433D 1   1.00000     0.00000
 Structure written by MMmdl.
 59 63  0  0  0  0  0  0  0  0  2 V2000
  147.9081  141.0603  154.6005 C   0  0  0  0  0  0  0  0  0  0  0  0
  148.7109  141.7921  155.6078 N   0  3  1  0  0  0  0  0  0  0  0  0
  148.2245  141.6213  157.0000 C   0  0  0  0  0  0  0  0  0  0  0  0
  148.5786  140.2357  157.5659 C   0  0  0  0  0  0  0  0  0  0  0  0
  150.0979  139.9699  157.4724 C   0  0  2  0  0  0  0  0  0  0  0  0
  150.6004  140.1769  156.0240 C   0  0  2  0  0  0  0  0  0  0  0  0
  152.1311  140.0060  155.9733 C   0  0  0  0  0  0  0  0  0  0  0  0
  152.5533  138.6457  156.5497 C   0  0  0  0  0  0  0  0  0  0  0  0
  151.9683  138.4272  157.9601 C   0  0  0  0  0  0  0  0  0  0  0  0
  150.5252  138.6684  158.0053 N   0  0  0  0  0  0  0  0  0  0  0  0
  149.7375  137.5910  157.7693 C   0  0  0  0  0  0  0  0  0  0  0  0
  148.7557  137.2550  158.6453 N   0  0  0  0  0  0  0  0  0  0  0  0
  147.9936  136.1810  158.4173 C   0  0  0  0  0  0  0  0  0  0  0  0
  148.0492  135.3187  157.3996 N   0  0  0  0  0  0  0  0  0  0  0  0
  149.0361  135.6536  156.5196 C   0  0  0  0  0  0  0  0  0  0  0  0
  149.9148  136.7668  156.6261 C   0  0  0  0  0  0  0  0  0  0  0  0
  150.7859  136.7912  155.5453 N   0  0  0  0  0  0  0  0  0  0  0  0
  150.4439  135.7476  154.8395 C   0  0  0  0  0  0  0  0  0  0  0  0
  149.4056  135.0020  155.3563 N   0  0  0  0  0  0  0  0  0  0  0  0
  148.8121  133.8160  154.8082 C   0  0  0  0  0  0  0  0  0  0  0  0
  149.0714  133.3431  153.3748 C   0  0  0  0  0  0  0  0  0  0  0  0
  147.6393  132.7604  153.3242 C   0  0  0  0  0  0  0  0  0  0  0  0
  146.8593  132.9834  152.0167 C   0  0  0  0  0  0  0  0  0  0  0  0
  146.6449  134.3555  151.7551 O   0  0  0  0  0  0  0  0  0  0  0  0
  147.4758  131.2908  153.7667 C   0  0  0  0  0  0  0  0  0  0  0  0
  148.1534  130.3998  152.9050 O   0  0  0  0  0  0  0  0  0  0  0  0
  147.3297  133.7888  154.4369 C   0  0  0  0  0  0  0  0  0  0  0  0
  150.1738  141.5618  155.4898 C   0  0  0  0  0  0  0  0  0  0  0  0
  147.9833  139.9798  154.7226 H   0  0  0  0  0  0  0  0  0  0  0  0
  148.2415  141.3101  153.5929 H   0  0  0  0  0  0  0  0  0  0  0  0
  146.8560  141.3366  154.6770 H   0  0  0  0  0  0  0  0  0  0  0  0
  148.6784  142.3948  157.6209 H   0  0  0  0  0  0  0  0  0  0  0  0
  147.1473  141.7872  157.0423 H   0  0  0  0  0  0  0  0  0  0  0  0
  148.2544  140.1774  158.6051 H   0  0  0  0  0  0  0  0  0  0  0  0
  148.0157  139.4751  157.0241 H   0  0  0  0  0  0  0  0  0  0  0  0
  150.5858  140.7177  158.0997 H   0  0  0  0  0  0  0  0  0  0  0  0
  150.1573  139.4118  155.3855 H   0  0  0  0  0  0  0  0  0  0  0  0
  152.4882  140.0996  154.9473 H   0  0  0  0  0  0  0  0  0  0  0  0
  152.6111  140.8029  156.5431 H   0  0  0  0  0  0  0  0  0  0  0  0
  152.2281  137.8514  155.8783 H   0  0  0  0  0  0  0  0  0  0  0  0
  153.6408  138.5790  156.5879 H   0  0  0  0  0  0  0  0  0  0  0  0
  152.1945  137.4185  158.3094 H   0  0  0  0  0  0  0  0  0  0  0  0
  152.4462  139.1088  158.6643 H   0  0  0  0  0  0  0  0  0  0  0  0
  147.2327  135.9821  159.1577 H   0  0  0  0  0  0  0  0  0  0  0  0
  150.9514  135.4988  153.9193 H   0  0  0  0  0  0  0  0  0  0  0  0
  149.0463  133.0137  155.5106 H   0  0  0  0  0  0  0  0  0  0  0  0
  149.2064  134.1592  152.6636 H   0  0  0  0  0  0  0  0  0  0  0  0
  149.8734  132.6104  153.2812 H   0  0  0  0  0  0  0  0  0  0  0  0
  147.3760  132.5377  151.1662 H   0  0  0  0  0  0  0  0  0  0  0  0
  145.8809  132.5049  152.0647 H   0  0  0  0  0  0  0  0  0  0  0  0
  147.4025  134.8393  152.0475 H   0  0  0  0  0  0  0  0  0  0  0  0
  147.8663  131.1338  154.7721 H   0  0  0  0  0  0  0  0  0  0  0  0
  146.4238  131.0066  153.8053 H   0  0  0  0  0  0  0  0  0  0  0  0
  148.2082  130.7983  152.0493 H   0  0  0  0  0  0  0  0  0  0  0  0
  146.6734  133.4289  155.2301 H   0  0  0  0  0  0  0  0  0  0  0  0
  146.9833  134.7502  154.0530 H   0  0  0  0  0  0  0  0  0  0  0  0
  150.4827  141.6835  154.4508 H   0  0  0  0  0  0  0  0  0  0  0  0
  150.6841  142.3440  156.0535 H   0  0  0  0  0  0  0  0  0  0  0  0
  148.5703  142.7680  155.3888 H   0  0  0  0  0  0  0  0  0  0  0  0
  1  2  1  0  0  0  0
  1 29  1  0  0  0  0
  1 30  1  0  0  0  0
  1 31  1  0  0  0  0
  2 28  1  0  0  0  0
  2  3  1  0  0  0  0
  2 59  1  0  0  0  0
  3  4  1  0  0  0  0
  3 32  1  0  0  0  0
  3 33  1  0  0  0  0
  4  5  1  0  0  0  0
  4 34  1  0  0  0  0
  4 35  1  0  0  0  0
  5 10  1  0  0  0  0
  5  6  1  0  0  0  0
  5 36  1  0  0  0  0
  6  7  1  0  0  0  0
  6 28  1  0  0  0  0
  6 37  1  0  0  0  0
  7  8  1  0  0  0  0
  7 38  1  0  0  0  0
  7 39  1  0  0  0  0
  8  9  1  0  0  0  0
  8 40  1  0  0  0  0
  8 41  1  0  0  0  0
  9 10  1  0  0  0  0
  9 42  1  0  0  0  0
  9 43  1  0  0  0  0
 10 11  1  0  0  0  0
 11 16  1  0  0  0  0
 11 12  2  0  0  0  0
 12 13  1  0  0  0  0
 13 14  2  0  0  0  0
 13 44  1  0  0  0  0
 14 15  1  0  0  0  0
 15 19  1  0  0  0  0
 15 16  2  0  0  0  0
 16 17  1  0  0  0  0
 17 18  2  0  0  0  0
 18 19  1  0  0  0  0
 18 45  1  0  0  0  0
 19 20  1  0  0  0  0
 20 27  1  0  0  0  0
 20 21  1  0  0  0  0
 20 46  1  0  0  0  0
 21 22  1  0  0  0  0
 21 47  1  0  0  0  0
 21 48  1  0  0  0  0
 22 23  1  0  0  0  0
 22 25  1  0  0  0  0
 22 27  1  0  0  0  0
 23 24  1  0  0  0  0
 23 49  1  0  0  0  0
 23 50  1  0  0  0  0
 24 51  1  0  0  0  0
 25 26  1  0  0  0  0
 25 52  1  0  0  0  0
 25 53  1  0  0  0  0
 26 54  1  0  0  0  0
 27 55  1  0  0  0  0
 27 56  1  0  0  0  0
 28 57  1  0  0  0  0
 28 58  1  0  0  0  0
M  CHG  1   2   1
M  END
> <s_m_source_file>
AV-unprocessed.smi

> <i_m_source_file_index>
198

> <i_lp_mmshare_version>
43012

> <i_f3d_flags>
0

> <s_epik_input>
W0NIMl0xW0NIMl1OKFtDSDNdKVtDSDJdW0NAQEhdKFtDQEhdMTIpW0NIMl1bQ0gyXVtDSDJdTjJjKG5bY0hdbjMpYyhjMzQpbltjSF1uNFtDSF0oW0NIMl01KVtDSDJdQzUoW0NIMl1bT0hdKVtDSDJdW09IXQ==

> <s_epik_cmdline>
J2VwaWtfcHl0aG9uJywgJy1waCcsICc3LjAnLCAnLXRuJywgJzgnLCAnLW1hJywgJzIwMCcsICctbWV0YWxfYmluZGluZycsICctaW1hZScsICc8aW5maWxlLm1hZT4nLCAnLW9tYWUnLCAnPG91dGZpbGUubWFlPic=

> <r_lp_tautomer_probability>
1

> <r_epik_Ionization_Penalty>
0.00239938

> <r_epik_Ionization_Penalty_Charging>
0.00138697

> <r_epik_Ionization_Penalty_Neutral>
0.00101241

> <r_epik_State_Penalty>
-0

> <r_epik_Charging_Adjusted_Penalty>
0.00138697

> <i_epik_Tot_Q>
1

> <i_epik_Tot_abs_Q>
1

> <r_epik_Metal_State_Penalty>
-0

> <b_epik_Metal_Only>
0

> <s_lp_Force_Field>
OPLS_2005

> <r_lp_Energy>
58.8774

> <b_lp_Chiralities_Consistent>
1

> <s_lp_Variant>
AV-unprocessed.smi:198-7

> <Gold.Version>
5.8.1

> <Gold.Id.Protein>
6NUR|6NUR_protein|mol2

> <Gold.PLP.Fitness>
47.3637

> <Gold.PLP.PLP>
-33.5762

> <Gold.PLP.part.hbond>
-3.0000

> <Gold.PLP.part.metal>
0.0000

> <Gold.PLP.part.buried>
-4.4930

> <Gold.PLP.part.nonpolar>
-25.9628

> <Gold.PLP.part.repulsive>
0.1878

> <Gold.PLP.ligand.clash>
0.0000

> <Gold.PLP.ligand.torsion>
0.9226

> <Gold.PLP.Chemscore.Hbond>
4.0000

> <Gold.PLP.Chemscore.CHOScore>
0.9061

> <Gold.PLP.Chemscore.Metal>
0.0000

> <Gold.Chemscore.Hbonds>
donor molecule, donor type, donor heavy atom, donor atom, acceptor molecule, acceptor atom, score
      L1  H     2    59       P1  8028  2.00
      L1  H    24    51       P1  7948  0.96
      L1  H    26    54       P1 10747  0.98
      L1  C    18    45       P1  7949  0.79

> <Gold.PLP.Chemscore.Internal.Correction>
0.9144

> <Gold.Rescore>
     Score         DG    S(hbond)    S(metal)    S(lipo)     H(rot)  DE(clash)    DE(int)     intcor
     13.47     -15.95       2.78        0.00      77.38       3.08       0.09       2.40       ----

> <Gold.Chemscore.Fitness>
13.4655

> <Gold.Chemscore.DG>
-15.9478

> <Gold.Chemscore.ZeroCoef>
-5.4800

> <Gold.Chemscore.Hbond>
2.7826

> <Gold.Chemscore.Metal>
0.0000

> <Gold.Chemscore.Lipo>
77.3827

> <Gold.Chemscore.Internal_Hbond>
0.0000

> <Gold.Chemscore.DEClash>
0.0853

> <Gold.Chemscore.DEInternal>
2.3970

> <Gold.Chemscore.Rot>
3.0781

> <Gold.Chemscore.Internal.Correction>
   9.000000E+99

> <Gold.Chemscore.Hbonds>
donor molecule, donor type, donor heavy atom, donor atom, acceptor molecule, acceptor atom, score
      L1  H     2    59       P1  8028  0.95
      L1  H    24    51       P1  7948  0.77
      L1  H    26    54       P1 10747  0.93

> <Gold.Chemscore.Hbond.Weighted>
-9.2940

> <Gold.Chemscore.Metal.Weighted>
-0.0000

> <Gold.Chemscore.Lipo.Weighted>
-9.0538

> <Gold.Chemscore.Internal_Hbond.Weighted>
0.0000

> <Gold.Chemscore.DEClash.Weighted>
0.0853

> <Gold.Chemscore.DEInternal.Weighted>
2.3970

> <Gold.Chemscore.Rot.Weighted>
7.8800

> <Gold.Chemscore.Internal.Correction.Weighted>
   9.000000E+99

> <Gold.Protein.RotatedTorsions>
[ 6907 6896 6895 6894 ] final  -19.37 input  -60.11 | X-H torsion
[ 7974 7965 7964 7962 ] final    0.18 input  175.53 | X-H torsion
[ 8008 7997 7996 7995 ] final -156.64 input   59.86 | X-H torsion
[ 10167 10162 10161 10158 ] final   -7.23 input  -65.29 | X-H torsion
[ 10718 10713 10712 10709 ] final   -4.34 input   66.30 | X-H torsion
[ 10763 10752 10751 10750 ] final  147.40 input  -60.55 | X-H torsion
[ 11005 11000 10999 10996 ] final   35.51 input  -57.11 | X-H torsion

> <Gold.Protein.ActiveResidues>
 VAL166  LYS551  ARG553  GLY616  TRP617  ASP618  TYR619  PRO620  LYS621  CYS622 
 ASP623  PHE694  ASN695  SER759  ASP760  ASP761  ALA762  ILE779  LEU786  VAL792 
 PHE793  MET794  SER795  GLU796  ALA797  LYS798  CYS799  TRP800  GLU811  SER814 

> <Gold.Protein.RotatedAtoms>
  151.2641  135.0663  159.9109 H   0  0  0  0  0  0  0  0  0  0  0  0  # atno 6907 bound_to 6896
  152.5361  134.0200  159.7987 H   0  0  0  0  0  0  0  0  0  0  0  0  # atno 6908 bound_to 6896
  151.0427  133.5642  159.2680 H   0  0  0  0  0  0  0  0  0  0  0  0  # atno 6909 bound_to 6896
  146.2432  140.1176  142.8341 H   0  0  0  0  0  0  0  0  0  0  0  0  # atno 7974 bound_to 7965
  155.7203  140.0789  157.2333 H   0  0  0  0  0  0  0  0  0  0  0  0  # atno 8008 bound_to 7997
  154.4046  140.1614  156.2449 H   0  0  0  0  0  0  0  0  0  0  0  0  # atno 8009 bound_to 7997
  155.9202  140.3398  155.6170 H   0  0  0  0  0  0  0  0  0  0  0  0  # atno 8010 bound_to 7997
  140.7022  143.6105  150.8709 H   0  0  0  0  0  0  0  0  0  0  0  0  # atno 10167 bound_to 10162
  156.7627  130.5274  149.5782 H   0  0  0  0  0  0  0  0  0  0  0  0  # atno 10718 bound_to 10713
  154.0378  135.2892  155.3359 H   0  0  0  0  0  0  0  0  0  0  0  0  # atno 10763 bound_to 10752
  154.6948  135.5212  153.8446 H   0  0  0  0  0  0  0  0  0  0  0  0  # atno 10764 bound_to 10752
  153.0613  135.6614  154.0585 H   0  0  0  0  0  0  0  0  0  0  0  0  # atno 10765 bound_to 10752
  140.2419  134.3405  155.7922 H   0  0  0  0  0  0  0  0  0  0  0  0  # atno 11005 bound_to 11000
  145.0433  140.8962  143.5039 LP  0  0  0  0  0  0  0  0  0  0  0  0  # atno 17320 bound_to 7965
  145.1261  139.2662  143.5563 LP  0  0  0  0  0  0  0  0  0  0  0  0  # atno 17321 bound_to 7965
  139.9827  143.5933  152.2937 LP  0  0  0  0  0  0  0  0  0  0  0  0  # atno 17342 bound_to 10162
  139.6560  144.7662  151.2055 LP  0  0  0  0  0  0  0  0  0  0  0  0  # atno 17343 bound_to 10162
  156.1329  130.6190  151.0359 LP  0  0  0  0  0  0  0  0  0  0  0  0  # atno 17370 bound_to 10713
  157.6727  131.0857  150.7571 LP  0  0  0  0  0  0  0  0  0  0  0  0  # atno 17371 bound_to 10713
  141.2210  133.7303  156.8899 LP  0  0  0  0  0  0  0  0  0  0  0  0  # atno 17394 bound_to 11000
  140.1645  134.9143  157.2756 LP  0  0  0  0  0  0  0  0  0  0  0  0  # atno 17395 bound_to 11000

$$$$
