AV-unprocessed.smi:2526|AV-procd|sdf|9938|dock1
  -GOLD-   2272013583D 1   1.00000     0.00000
 Structure written by MMmdl.
 28 29  0  0  0  0  0  0  0  0  1 V2000
  151.4260  145.1777  159.8421 C   0  0  0  0  0  0  0  0  0  0  0  0
  151.3667  143.9485  159.0804 N   0  0  0  0  0  0  0  0  0  0  0  0
  151.1724  143.7860  157.7260 C   0  0  0  0  0  0  0  0  0  0  0  0
  151.2005  142.4450  157.4610 C   0  0  0  0  0  0  0  0  0  0  0  0
  151.0447  141.7478  156.1297 C   0  0  2  0  0  0  0  0  0  0  0  0
  149.8015  142.1623  155.4719 N   0  0  0  0  0  0  0  0  0  0  0  0
  148.9674  141.3925  154.7499 C   0  0  0  0  0  0  0  0  0  0  0  0
  147.9752  141.8636  154.1993 O   0  0  0  0  0  0  0  0  0  0  0  0
  149.2466  139.8868  154.6405 C   0  0  0  0  0  0  0  0  0  0  0  0
  150.6922  139.5105  154.9967 C   0  0  0  0  0  0  0  0  0  0  0  0
  151.1282  140.2108  156.2887 C   0  0  1  0  0  0  0  0  0  0  0  0
  152.4744  139.7944  156.6390 N   0  0  0  0  0  0  0  0  0  0  0  0
  151.4239  141.8662  158.7451 C   0  0  0  0  0  0  0  0  0  0  0  0
  151.5219  142.7661  159.7093 N   0  0  0  0  0  0  0  0  0  0  0  0
  150.9497  145.9845  159.2845 H   0  0  0  0  0  0  0  0  0  0  0  0
  152.4670  145.4410  160.0299 H   0  0  0  0  0  0  0  0  0  0  0  0
  150.9094  145.0551  160.7948 H   0  0  0  0  0  0  0  0  0  0  0  0
  151.0347  144.6301  157.0661 H   0  0  0  0  0  0  0  0  0  0  0  0
  151.8424  142.0646  155.4556 H   0  0  0  0  0  0  0  0  0  0  0  0
  149.5712  143.1430  155.5416 H   0  0  0  0  0  0  0  0  0  0  0  0
  148.5601  139.3747  155.3156 H   0  0  0  0  0  0  0  0  0  0  0  0
  149.0080  139.5437  153.6330 H   0  0  0  0  0  0  0  0  0  0  0  0
  150.7680  138.4280  155.1072 H   0  0  0  0  0  0  0  0  0  0  0  0
  151.3565  139.7864  154.1760 H   0  0  0  0  0  0  0  0  0  0  0  0
  150.4619  139.8955  157.0934 H   0  0  0  0  0  0  0  0  0  0  0  0
  152.6030  139.8729  157.6376 H   0  0  0  0  0  0  0  0  0  0  0  0
  152.5966  138.8181  156.4110 H   0  0  0  0  0  0  0  0  0  0  0  0
  151.5198  140.8216  159.0026 H   0  0  0  0  0  0  0  0  0  0  0  0
  1  2  1  0  0  0  0
  1 15  1  0  0  0  0
  1 16  1  0  0  0  0
  1 17  1  0  0  0  0
  2 14  1  0  0  0  0
  2  3  1  0  0  0  0
  3  4  2  0  0  0  0
  3 18  1  0  0  0  0
  4  5  1  0  0  0  0
  4 13  1  0  0  0  0
  5 11  1  0  0  0  0
  5  6  1  0  0  0  0
  5 19  1  0  0  0  0
  6  7  1  0  0  0  0
  6 20  1  0  0  0  0
  7  8  2  0  0  0  0
  7  9  1  0  0  0  0
  9 10  1  0  0  0  0
  9 21  1  0  0  0  0
  9 22  1  0  0  0  0
 10 11  1  0  0  0  0
 10 23  1  0  0  0  0
 10 24  1  0  0  0  0
 11 12  1  0  0  0  0
 11 25  1  0  0  0  0
 12 26  1  0  0  0  0
 12 27  1  0  0  0  0
 13 14  2  0  0  0  0
 13 28  1  0  0  0  0
M  END
> <s_m_source_file>
AV-unprocessed.smi

> <i_m_source_file_index>
2526

> <i_lp_mmshare_version>
43012

> <i_f3d_flags>
0

> <s_epik_input>
W0NIM11uMVtjSF1jKFtjSF1uMSlbQ0BASF0yW05IXUMoPU8pW0NIMl1bQ0gyXVtDQEhdMltOSDJd

> <s_epik_cmdline>
J2VwaWtfcHl0aG9uJywgJy1waCcsICc3LjAnLCAnLXRuJywgJzgnLCAnLW1hJywgJzIwMCcsICctbWV0YWxfYmluZGluZycsICctaW1hZScsICc8aW5maWxlLm1hZT4nLCAnLW9tYWUnLCAnPG91dGZpbGUubWFlPic=

> <r_lp_tautomer_probability>
1

> <r_epik_Ionization_Penalty>
2.50279

> <r_epik_Ionization_Penalty_Charging>
0

> <r_epik_Ionization_Penalty_Neutral>
2.50279

> <r_epik_State_Penalty>
2.66754

> <r_epik_Charging_Adjusted_Penalty>
2.66754

> <i_epik_Tot_Q>
0

> <i_epik_Tot_abs_Q>
0

> <r_epik_Metal_State_Penalty>
2.66721

> <b_epik_Metal_Only>
0

> <s_lp_Force_Field>
OPLS_2005

> <r_lp_Energy>
8.43832

> <b_lp_Chiralities_Consistent>
1

> <s_lp_Variant>
AV-unprocessed.smi:2526-5

> <Gold.Version>
5.8.1

> <Gold.Id.Protein>
6NUR|6NUR_protein|mol2

> <Gold.PLP.Fitness>
37.2339

> <Gold.PLP.PLP>
-30.6487

> <Gold.PLP.part.hbond>
-2.1443

> <Gold.PLP.part.metal>
0.0000

> <Gold.PLP.part.buried>
-4.6615

> <Gold.PLP.part.nonpolar>
-24.3948

> <Gold.PLP.part.repulsive>
0.3401

> <Gold.PLP.ligand.clash>
0.0000

> <Gold.PLP.ligand.torsion>
0.0363

> <Gold.PLP.Chemscore.Hbond>
1.4294

> <Gold.PLP.Chemscore.CHOScore>
0.7813

> <Gold.PLP.Chemscore.Metal>
0.0000

> <Gold.Chemscore.Hbonds>
donor molecule, donor type, donor heavy atom, donor atom, acceptor molecule, acceptor atom, score
      L1  H     6    20       P1  8028  1.00
      P1  H  7997  8008       L1    12  0.43
      L1  C     3    18       P1  8028  0.78

> <Gold.PLP.Chemscore.Internal.Correction>
0.0258

> <Gold.Rescore>
     Score         DG    S(hbond)    S(metal)    S(lipo)     H(rot)  DE(clash)    DE(int)     intcor
     14.06     -14.07       1.00        0.00      66.81       1.00       0.00       0.01       ----

> <Gold.Chemscore.Fitness>
14.0599

> <Gold.Chemscore.DG>
-14.0729

> <Gold.Chemscore.ZeroCoef>
-5.4800

> <Gold.Chemscore.Hbond>
0.9987

> <Gold.Chemscore.Metal>
0.0000

> <Gold.Chemscore.Lipo>
66.8140

> <Gold.Chemscore.Internal_Hbond>
0.0000

> <Gold.Chemscore.DEClash>
0.0000

> <Gold.Chemscore.DEInternal>
0.0129

> <Gold.Chemscore.Rot>
1.0000

> <Gold.Chemscore.Internal.Correction>
   9.000000E+99

> <Gold.Chemscore.Hbonds>
donor molecule, donor type, donor heavy atom, donor atom, acceptor molecule, acceptor atom, score
      L1  H     6    20       P1  8028  1.00

> <Gold.Chemscore.Hbond.Weighted>
-3.3356

> <Gold.Chemscore.Metal.Weighted>
-0.0000

> <Gold.Chemscore.Lipo.Weighted>
-7.8172

> <Gold.Chemscore.Internal_Hbond.Weighted>
0.0000

> <Gold.Chemscore.DEClash.Weighted>
0.0000

> <Gold.Chemscore.DEInternal.Weighted>
0.0129

> <Gold.Chemscore.Rot.Weighted>
2.5600

> <Gold.Chemscore.Internal.Correction.Weighted>
   9.000000E+99

> <Gold.Protein.RotatedTorsions>
[ 6907 6896 6895 6894 ] final -100.39 input  -60.11 | X-H torsion
[ 7974 7965 7964 7962 ] final -135.57 input  175.53 | X-H torsion
[ 8008 7997 7996 7995 ] final  -30.86 input   59.86 | X-H torsion
[ 10167 10162 10161 10158 ] final  143.70 input  -65.29 | X-H torsion
[ 10718 10713 10712 10709 ] final  -54.21 input   66.30 | X-H torsion
[ 10763 10752 10751 10750 ] final   57.84 input  -60.55 | X-H torsion
[ 11005 11000 10999 10996 ] final   49.10 input  -57.11 | X-H torsion

> <Gold.Protein.ActiveResidues>
 VAL166  LYS551  ARG553  GLY616  TRP617  ASP618  TYR619  PRO620  LYS621  CYS622 
 ASP623  PHE694  ASN695  SER759  ASP760  ASP761  ALA762  ILE779  LEU786  VAL792 
 PHE793  MET794  SER795  GLU796  ALA797  LYS798  CYS799  TRP800  GLU811  SER814 

> <Gold.Protein.RotatedAtoms>
  150.7114  134.0895  159.3926 H   0  0  0  0  0  0  0  0  0  0  0  0  # atno 6907 bound_to 6896
  151.8880  135.0425  160.0504 H   0  0  0  0  0  0  0  0  0  0  0  0  # atno 6908 bound_to 6896
  152.2514  133.5183  159.5364 H   0  0  0  0  0  0  0  0  0  0  0  0  # atno 6909 bound_to 6896
  144.9003  140.6762  143.5089 H   0  0  0  0  0  0  0  0  0  0  0  0  # atno 7974 bound_to 7965
  154.4234  140.1780  156.1475 H   0  0  0  0  0  0  0  0  0  0  0  0  # atno 8008 bound_to 7997
  155.9942  140.3366  155.6758 H   0  0  0  0  0  0  0  0  0  0  0  0  # atno 8009 bound_to 7997
  155.6331  140.0672  157.2633 H   0  0  0  0  0  0  0  0  0  0  0  0  # atno 8010 bound_to 7997
  139.4964  144.6023  151.6455 H   0  0  0  0  0  0  0  0  0  0  0  0  # atno 10167 bound_to 10162
  156.1470  130.4152  150.0008 H   0  0  0  0  0  0  0  0  0  0  0  0  # atno 10718 bound_to 10713
  152.9858  135.5627  154.5455 H   0  0  0  0  0  0  0  0  0  0  0  0  # atno 10763 bound_to 10752
  154.4902  135.2792  155.1505 H   0  0  0  0  0  0  0  0  0  0  0  0  # atno 10764 bound_to 10752
  154.2977  135.6313  153.5465 H   0  0  0  0  0  0  0  0  0  0  0  0  # atno 10765 bound_to 10752
  140.1133  134.4926  155.8659 H   0  0  0  0  0  0  0  0  0  0  0  0  # atno 11005 bound_to 11000
  145.3628  139.1677  143.4374 LP  0  0  0  0  0  0  0  0  0  0  0  0  # atno 17320 bound_to 7965
  146.3104  140.3692  142.8672 LP  0  0  0  0  0  0  0  0  0  0  0  0  # atno 17321 bound_to 7965
  140.5676  144.0164  150.6200 LP  0  0  0  0  0  0  0  0  0  0  0  0  # atno 17342 bound_to 10162
  140.3271  143.3101  152.0725 LP  0  0  0  0  0  0  0  0  0  0  0  0  # atno 17343 bound_to 10162
  156.7877  130.9244  151.3646 LP  0  0  0  0  0  0  0  0  0  0  0  0  # atno 17370 bound_to 10713
  157.6625  130.8978  149.9860 LP  0  0  0  0  0  0  0  0  0  0  0  0  # atno 17371 bound_to 10713
  141.2135  133.6734  156.6746 LP  0  0  0  0  0  0  0  0  0  0  0  0  # atno 17394 bound_to 11000
  140.3062  134.8123  157.4139 LP  0  0  0  0  0  0  0  0  0  0  0  0  # atno 17395 bound_to 11000

$$$$
