AV-unprocessed.smi:3113|AV-procd|sdf|11852|dock7
  -GOLD-   2272017233D 1   1.00000     0.00000
 Structure written by MMmdl.
 35 36  0  0  0  0  0  0  0  0  2 V2000
  151.3974  137.8985  154.4516 C   0  0  0  0  0  0  0  0  0  0  0  0
  152.0540  139.1059  154.8207 C   0  0  0  0  0  0  0  0  0  0  0  0
  151.2489  140.1557  154.7851 N   0  0  0  0  0  0  0  0  0  0  0  0
  150.0558  139.6546  154.3984 N   0  0  0  0  0  0  0  0  0  0  0  0
  148.9186  140.5417  154.2464 C   0  0  0  0  0  0  0  0  0  0  0  0
  148.5729  141.2581  155.5601 C   0  0  0  0  0  0  0  0  0  0  0  0
  149.6983  142.0940  156.0200 N   0  3  0  0  0  0  0  0  0  0  0  0
  150.3719  141.5814  157.2296 C   0  0  0  0  0  0  0  0  0  0  0  0
  151.4033  142.5893  157.7570 C   0  0  2  0  0  0  0  0  0  0  0  0
  152.1417  142.0577  159.0012 C   0  0  0  0  0  0  0  0  0  0  0  0
  153.0887  143.1235  159.5647 C   0  0  0  0  0  0  0  0  0  0  0  0
  152.3171  144.4255  159.8027 C   0  0  0  0  0  0  0  0  0  0  0  0
  151.5668  144.8406  158.5276 C   0  0  0  0  0  0  0  0  0  0  0  0
  150.7079  143.7855  158.1047 O   0  0  0  0  0  0  0  0  0  0  0  0
  150.1177  138.2932  154.1852 C   0  0  0  0  0  0  0  0  0  0  0  0
  151.8036  136.8996  154.3905 H   0  0  0  0  0  0  0  0  0  0  0  0
  153.0847  139.2495  155.1103 H   0  0  0  0  0  0  0  0  0  0  0  0
  149.1477  141.2660  153.4635 H   0  0  0  0  0  0  0  0  0  0  0  0
  148.0669  139.9559  153.8976 H   0  0  0  0  0  0  0  0  0  0  0  0
  147.6929  141.8878  155.4209 H   0  0  0  0  0  0  0  0  0  0  0  0
  148.3297  140.5293  156.3345 H   0  0  0  0  0  0  0  0  0  0  0  0
  150.3785  142.1589  155.2762 H   0  0  0  0  0  0  0  0  0  0  0  0
  149.6319  141.3612  158.0004 H   0  0  0  0  0  0  0  0  0  0  0  0
  150.8652  140.6414  156.9786 H   0  0  0  0  0  0  0  0  0  0  0  0
  152.1290  142.8049  156.9701 H   0  0  0  0  0  0  0  0  0  0  0  0
  151.4177  141.7733  159.7662 H   0  0  0  0  0  0  0  0  0  0  0  0
  152.7036  141.1568  158.7521 H   0  0  0  0  0  0  0  0  0  0  0  0
  153.5453  142.7764  160.4921 H   0  0  0  0  0  0  0  0  0  0  0  0
  153.9027  143.3022  158.8610 H   0  0  0  0  0  0  0  0  0  0  0  0
  151.6038  144.2862  160.6160 H   0  0  0  0  0  0  0  0  0  0  0  0
  152.9983  145.2173  160.1155 H   0  0  0  0  0  0  0  0  0  0  0  0
  150.9647  145.7288  158.7200 H   0  0  0  0  0  0  0  0  0  0  0  0
  152.2660  145.0971  157.7301 H   0  0  0  0  0  0  0  0  0  0  0  0
  149.2568  137.7238  153.8663 H   0  0  0  0  0  0  0  0  0  0  0  0
  149.3485  143.0204  156.2203 H   0  0  0  0  0  0  0  0  0  0  0  0
  1 15  2  0  0  0  0
  1  2  1  0  0  0  0
  1 16  1  0  0  0  0
  2  3  2  0  0  0  0
  2 17  1  0  0  0  0
  3  4  1  0  0  0  0
  4  5  1  0  0  0  0
  4 15  1  0  0  0  0
  5  6  1  0  0  0  0
  5 18  1  0  0  0  0
  5 19  1  0  0  0  0
  6  7  1  0  0  0  0
  6 20  1  0  0  0  0
  6 21  1  0  0  0  0
  7  8  1  0  0  0  0
  7 22  1  0  0  0  0
  7 35  1  0  0  0  0
  8  9  1  0  0  0  0
  8 23  1  0  0  0  0
  8 24  1  0  0  0  0
  9 14  1  0  0  0  0
  9 10  1  0  0  0  0
  9 25  1  0  0  0  0
 10 11  1  0  0  0  0
 10 26  1  0  0  0  0
 10 27  1  0  0  0  0
 11 12  1  0  0  0  0
 11 28  1  0  0  0  0
 11 29  1  0  0  0  0
 12 13  1  0  0  0  0
 12 30  1  0  0  0  0
 12 31  1  0  0  0  0
 13 14  1  0  0  0  0
 13 32  1  0  0  0  0
 13 33  1  0  0  0  0
 15 34  1  0  0  0  0
M  CHG  1   7   1
M  END
> <s_m_source_file>
AV-unprocessed.smi

> <i_m_source_file_index>
3113

> <i_lp_mmshare_version>
43012

> <i_f3d_flags>
0

> <s_epik_input>
W2NIXTFbY0hdW2NIXW5uMVtDSDJdW0NIMl1bTkhdW0NIMl1bQ0BASF0yW0NIMl1bQ0gyXVtDSDJdW0NIMl1PMg==

> <s_epik_cmdline>
J2VwaWtfcHl0aG9uJywgJy1waCcsICc3LjAnLCAnLXRuJywgJzgnLCAnLW1hJywgJzIwMCcsICctbWV0YWxfYmluZGluZycsICctaW1hZScsICc8aW5maWxlLm1hZT4nLCAnLW9tYWUnLCAnPG91dGZpbGUubWFlPic=

> <r_lp_tautomer_probability>
1

> <r_epik_Ionization_Penalty>
0.00849054

> <r_epik_Ionization_Penalty_Charging>
0.00848754

> <r_epik_Ionization_Penalty_Neutral>
3.00382e-06

> <r_epik_State_Penalty>
0.00639836

> <r_epik_Charging_Adjusted_Penalty>
0.0148859

> <i_epik_Tot_Q>
1

> <i_epik_Tot_abs_Q>
1

> <r_epik_Metal_State_Penalty>
0.00641155

> <b_epik_Metal_Only>
0

> <s_lp_Force_Field>
OPLS_2005

> <r_lp_Energy>
10.9258

> <b_lp_Chiralities_Consistent>
1

> <s_lp_Variant>
AV-unprocessed.smi:3113-1

> <Gold.Version>
5.8.1

> <Gold.Id.Protein>
6NUR|6NUR_protein|mol2

> <Gold.PLP.Fitness>
48.4127

> <Gold.PLP.PLP>
-37.2487

> <Gold.PLP.part.hbond>
-1.9809

> <Gold.PLP.part.metal>
0.0000

> <Gold.PLP.part.buried>
-3.1141

> <Gold.PLP.part.nonpolar>
-32.6493

> <Gold.PLP.part.repulsive>
0.3483

> <Gold.PLP.ligand.clash>
0.0000

> <Gold.PLP.ligand.torsion>
0.3653

> <Gold.PLP.Chemscore.Hbond>
3.0000

> <Gold.PLP.Chemscore.CHOScore>
0.9615

> <Gold.PLP.Chemscore.Metal>
0.0000

> <Gold.Chemscore.Hbonds>
donor molecule, donor type, donor heavy atom, donor atom, acceptor molecule, acceptor atom, score
      L1  H     7    35       P1  8028  2.00
      P1  H  7989  7998       L1     3  0.93
      L1  C    15    34       P1  7948  0.98

> <Gold.PLP.Chemscore.Internal.Correction>
0.0099

> <Gold.Rescore>
     Score         DG    S(hbond)    S(metal)    S(lipo)     H(rot)  DE(clash)    DE(int)     intcor
     18.48     -19.12       1.90        0.00      99.57       1.70       0.11       0.53       ----

> <Gold.Chemscore.Fitness>
18.4792

> <Gold.Chemscore.DG>
-19.1222

> <Gold.Chemscore.ZeroCoef>
-5.4800

> <Gold.Chemscore.Hbond>
1.8983

> <Gold.Chemscore.Metal>
0.0000

> <Gold.Chemscore.Lipo>
99.5735

> <Gold.Chemscore.Internal_Hbond>
0.0000

> <Gold.Chemscore.DEClash>
0.1134

> <Gold.Chemscore.DEInternal>
0.5296

> <Gold.Chemscore.Rot>
1.6985

> <Gold.Chemscore.Internal.Correction>
   9.000000E+99

> <Gold.Chemscore.Hbonds>
donor molecule, donor type, donor heavy atom, donor atom, acceptor molecule, acceptor atom, score
      L1  H     7    35       P1  8028  0.95
      P1  H  7989  7998       L1     3  0.09

> <Gold.Chemscore.Hbond.Weighted>
-6.3403

> <Gold.Chemscore.Metal.Weighted>
-0.0000

> <Gold.Chemscore.Lipo.Weighted>
-11.6501

> <Gold.Chemscore.Internal_Hbond.Weighted>
0.0000

> <Gold.Chemscore.DEClash.Weighted>
0.1134

> <Gold.Chemscore.DEInternal.Weighted>
0.5296

> <Gold.Chemscore.Rot.Weighted>
4.3482

> <Gold.Chemscore.Internal.Correction.Weighted>
   9.000000E+99

> <Gold.Protein.RotatedTorsions>
[ 6907 6896 6895 6894 ] final   -7.53 input  -60.11 | X-H torsion
[ 7974 7965 7964 7962 ] final  123.43 input  175.53 | X-H torsion
[ 8008 7997 7996 7995 ] final  131.72 input   59.86 | X-H torsion
[ 10167 10162 10161 10158 ] final  155.15 input  -65.29 | X-H torsion
[ 10718 10713 10712 10709 ] final  147.10 input   66.30 | X-H torsion
[ 10763 10752 10751 10750 ] final -140.72 input  -60.55 | X-H torsion
[ 11005 11000 10999 10996 ] final    1.54 input  -57.11 | X-H torsion

> <Gold.Protein.ActiveResidues>
 VAL166  LYS551  ARG553  GLY616  TRP617  ASP618  TYR619  PRO620  LYS621  CYS622 
 ASP623  PHE694  ASN695  SER759  ASP760  ASP761  ALA762  ILE779  LEU786  VAL792 
 PHE793  MET794  SER795  GLU796  ALA797  LYS798  CYS799  TRP800  GLU811  SER814 

> <Gold.Protein.RotatedAtoms>
  151.4481  135.1027  159.9689 H   0  0  0  0  0  0  0  0  0  0  0  0  # atno 6907 bound_to 6896
  152.4898  133.8466  159.7190 H   0  0  0  0  0  0  0  0  0  0  0  0  # atno 6908 bound_to 6896
  150.9041  133.7021  159.2898 H   0  0  0  0  0  0  0  0  0  0  0  0  # atno 6909 bound_to 6896
  145.0960  139.3552  143.4836 H   0  0  0  0  0  0  0  0  0  0  0  0  # atno 7974 bound_to 7965
  156.2973  140.2564  156.2971 H   0  0  0  0  0  0  0  0  0  0  0  0  # atno 8008 bound_to 7997
  154.9453  140.0395  157.2136 H   0  0  0  0  0  0  0  0  0  0  0  0  # atno 8009 bound_to 7997
  154.8087  140.2840  155.5873 H   0  0  0  0  0  0  0  0  0  0  0  0  # atno 8010 bound_to 7997
  139.4822  144.5124  151.8004 H   0  0  0  0  0  0  0  0  0  0  0  0  # atno 10167 bound_to 10162
  157.3251  131.0911  151.1209 H   0  0  0  0  0  0  0  0  0  0  0  0  # atno 10718 bound_to 10713
  154.8569  135.3545  154.5752 H   0  0  0  0  0  0  0  0  0  0  0  0  # atno 10763 bound_to 10752
  153.6364  135.7000  153.5262 H   0  0  0  0  0  0  0  0  0  0  0  0  # atno 10764 bound_to 10752
  153.3007  135.4207  155.1209 H   0  0  0  0  0  0  0  0  0  0  0  0  # atno 10765 bound_to 10752
  140.6143  133.9720  155.8192 H   0  0  0  0  0  0  0  0  0  0  0  0  # atno 11005 bound_to 11000
  146.3530  140.0816  142.8617 LP  0  0  0  0  0  0  0  0  0  0  0  0  # atno 17320 bound_to 7965
  145.1010  140.9346  143.4712 LP  0  0  0  0  0  0  0  0  0  0  0  0  # atno 17321 bound_to 7965
  140.4628  144.1697  150.5908 LP  0  0  0  0  0  0  0  0  0  0  0  0  # atno 17342 bound_to 10162
  140.4466  143.2504  151.9403 LP  0  0  0  0  0  0  0  0  0  0  0  0  # atno 17343 bound_to 10162
  157.2479  130.6600  149.5918 LP  0  0  0  0  0  0  0  0  0  0  0  0  # atno 17370 bound_to 10713
  155.9689  130.4547  150.5862 LP  0  0  0  0  0  0  0  0  0  0  0  0  # atno 17371 bound_to 10713
  141.0787  134.0096  157.3419 LP  0  0  0  0  0  0  0  0  0  0  0  0  # atno 17394 bound_to 11000
  139.9179  135.0198  156.7953 LP  0  0  0  0  0  0  0  0  0  0  0  0  # atno 17395 bound_to 11000

$$$$
