AV-unprocessed.smi:1029|AV-procd|sdf|4475|dock8
  -GOLD-   22720 2453D 1   1.00000     0.00000
 Structure written by MMmdl.
 46 47  0  0  0  0  0  0  0  0  2 V2000
  152.2722  140.7912  159.1315 C   0  0  0  0  0  0  0  0  0  0  0  0
  151.9236  140.3544  157.7393 C   0  0  0  0  0  0  0  0  0  0  0  0
  150.7739  140.6880  156.9701 C   0  0  0  0  0  0  0  0  0  0  0  0
  150.9897  140.0167  155.7961 C   0  0  0  0  0  0  0  0  0  0  0  0
  150.2007  139.9713  154.6910 N   0  0  0  0  0  0  0  0  0  0  0  0
  148.8708  140.1445  154.5954 C   0  0  0  0  0  0  0  0  0  0  0  0
  148.1144  140.4092  155.5303 O   0  0  0  0  0  0  0  0  0  0  0  0
  148.4531  139.9956  153.3299 N   0  0  0  0  0  0  0  0  0  0  0  0
  147.0677  140.1117  152.8867 C   0  0  0  0  0  0  0  0  0  0  0  0
  146.5546  138.8041  152.2495 C   0  0  1  0  0  0  0  0  0  0  0  0
  147.3959  138.4692  151.1626 O   0  0  0  0  0  0  0  0  0  0  0  0
  146.6072  137.6290  153.2479 C   0  0  0  0  0  0  0  0  0  0  0  0
  146.3502  136.3167  152.5996 N   0  3  2  0  0  0  0  0  0  0  0  0
  145.2377  136.3520  151.6132 C   0  0  0  0  0  0  0  0  0  0  0  0
  145.1068  135.0079  150.8771 C   0  0  0  0  0  0  0  0  0  0  0  0
  144.9104  133.8455  151.8646 C   0  0  1  0  0  0  0  0  0  0  0  0
  144.8113  132.4951  151.1411 C   0  0  0  0  0  0  0  0  0  0  0  0
  146.0532  133.8576  152.8934 C   0  0  0  0  0  0  0  0  0  0  0  0
  146.1650  135.2245  153.5892 C   0  0  0  0  0  0  0  0  0  0  0  0
  152.1550  139.3260  155.8323 O   0  0  0  0  0  0  0  0  0  0  0  0
  152.7467  139.5519  157.0805 N   0  0  0  0  0  0  0  0  0  0  0  0
  151.5310  141.4883  159.5226 H   0  0  0  0  0  0  0  0  0  0  0  0
  153.2414  141.2898  159.1562 H   0  0  0  0  0  0  0  0  0  0  0  0
  152.3173  139.9393  159.8106 H   0  0  0  0  0  0  0  0  0  0  0  0
  149.9420  141.3153  157.2521 H   0  0  0  0  0  0  0  0  0  0  0  0
  150.6873  139.7840  153.8269 H   0  0  0  0  0  0  0  0  0  0  0  0
  149.1424  139.7852  152.6229 H   0  0  0  0  0  0  0  0  0  0  0  0
  146.4134  140.4504  153.6924 H   0  0  0  0  0  0  0  0  0  0  0  0
  147.0581  140.9062  152.1398 H   0  0  0  0  0  0  0  0  0  0  0  0
  145.5377  138.9497  151.8860 H   0  0  0  0  0  0  0  0  0  0  0  0
  148.0904  139.1083  151.1073 H   0  0  0  0  0  0  0  0  0  0  0  0
  147.5911  137.6224  153.7201 H   0  0  0  0  0  0  0  0  0  0  0  0
  145.8868  137.7755  154.0541 H   0  0  0  0  0  0  0  0  0  0  0  0
  144.3035  136.5912  152.1238 H   0  0  0  0  0  0  0  0  0  0  0  0
  145.4044  137.1391  150.8787 H   0  0  0  0  0  0  0  0  0  0  0  0
  144.2690  135.0518  150.1804 H   0  0  0  0  0  0  0  0  0  0  0  0
  145.9997  134.8354  150.2742 H   0  0  0  0  0  0  0  0  0  0  0  0
  143.9715  134.0060  152.3969 H   0  0  0  0  0  0  0  0  0  0  0  0
  145.7244  132.2716  150.5884 H   0  0  0  0  0  0  0  0  0  0  0  0
  143.9833  132.4899  150.4318 H   0  0  0  0  0  0  0  0  0  0  0  0
  144.6431  131.6826  151.8485 H   0  0  0  0  0  0  0  0  0  0  0  0
  145.8931  133.0785  153.6397 H   0  0  0  0  0  0  0  0  0  0  0  0
  146.9977  133.6232  152.4002 H   0  0  0  0  0  0  0  0  0  0  0  0
  147.0105  135.2034  154.2780 H   0  0  0  0  0  0  0  0  0  0  0  0
  145.2731  135.4192  154.1870 H   0  0  0  0  0  0  0  0  0  0  0  0
  147.1910  136.0896  152.0872 H   0  0  0  0  0  0  0  0  0  0  0  0
  1  2  1  0  0  0  0
  1 22  1  0  0  0  0
  1 23  1  0  0  0  0
  1 24  1  0  0  0  0
  2 21  2  0  0  0  0
  2  3  1  0  0  0  0
  3  4  2  0  0  0  0
  3 25  1  0  0  0  0
  4  5  1  0  0  0  0
  4 20  1  0  0  0  0
  5  6  1  0  0  0  0
  5 26  1  0  0  0  0
  6  7  2  0  0  0  0
  6  8  1  0  0  0  0
  8  9  1  0  0  0  0
  8 27  1  0  0  0  0
  9 10  1  0  0  0  0
  9 28  1  0  0  0  0
  9 29  1  0  0  0  0
 10 11  1  0  0  0  0
 10 12  1  0  0  0  0
 10 30  1  0  0  0  0
 11 31  1  0  0  0  0
 12 13  1  0  0  0  0
 12 32  1  0  0  0  0
 12 33  1  0  0  0  0
 13 19  1  0  0  0  0
 13 14  1  0  0  0  0
 13 46  1  0  0  0  0
 14 15  1  0  0  0  0
 14 34  1  0  0  0  0
 14 35  1  0  0  0  0
 15 16  1  0  0  0  0
 15 36  1  0  0  0  0
 15 37  1  0  0  0  0
 16 17  1  0  0  0  0
 16 18  1  0  0  0  0
 16 38  1  0  0  0  0
 17 39  1  0  0  0  0
 17 40  1  0  0  0  0
 17 41  1  0  0  0  0
 18 19  1  0  0  0  0
 18 42  1  0  0  0  0
 18 43  1  0  0  0  0
 19 44  1  0  0  0  0
 19 45  1  0  0  0  0
 20 21  1  0  0  0  0
M  CHG  1  13   1
M  END
> <s_m_source_file>
AV-unprocessed.smi

> <i_m_source_file_index>
1029

> <i_lp_mmshare_version>
43012

> <i_f3d_flags>
0

> <s_epik_input>
W0NIM11jMVtjSF1jKG9uMSlbTkhdQyg9TylbTkhdW0NIMl1bQ0BIXShbT0hdKVtDSDJdTjJbQ0gyXVtDSDJdW0NIXShbQ0gzXSlbQ0gyXVtDSDJdMg==

> <s_epik_cmdline>
J2VwaWtfcHl0aG9uJywgJy1waCcsICc3LjAnLCAnLXRuJywgJzgnLCAnLW1hJywgJzIwMCcsICctbWV0YWxfYmluZGluZycsICctaW1hZScsICc8aW5maWxlLm1hZT4nLCAnLW9tYWUnLCAnPG91dGZpbGUubWFlPic=

> <r_lp_tautomer_probability>
1

> <r_epik_Ionization_Penalty>
0.00211787

> <r_epik_Ionization_Penalty_Charging>
0.00153238

> <r_epik_Ionization_Penalty_Neutral>
0.000585488

> <r_epik_State_Penalty>
-0

> <r_epik_Charging_Adjusted_Penalty>
0.00153238

> <i_epik_Tot_Q>
1

> <i_epik_Tot_abs_Q>
1

> <r_epik_Metal_State_Penalty>
-0

> <b_epik_Metal_Only>
0

> <s_lp_Force_Field>
OPLS_2005

> <r_lp_Energy>
20.5913

> <b_lp_Chiralities_Consistent>
1

> <s_lp_Variant>
AV-unprocessed.smi:1029-2

> <Gold.Version>
5.8.1

> <Gold.Id.Protein>
6NUR|6NUR_protein|mol2

> <Gold.PLP.Fitness>
49.7952

> <Gold.PLP.PLP>
-34.4069

> <Gold.PLP.part.hbond>
-6.0548

> <Gold.PLP.part.metal>
0.0000

> <Gold.PLP.part.buried>
-0.4815

> <Gold.PLP.part.nonpolar>
-26.7205

> <Gold.PLP.part.repulsive>
1.3047

> <Gold.PLP.ligand.clash>
0.0000

> <Gold.PLP.ligand.torsion>
0.2911

> <Gold.PLP.Chemscore.Hbond>
5.3000

> <Gold.PLP.Chemscore.CHOScore>
0.0000

> <Gold.PLP.Chemscore.Metal>
0.0000

> <Gold.Chemscore.Hbonds>
donor molecule, donor type, donor heavy atom, donor atom, acceptor molecule, acceptor atom, score
      L1  H     8    27       P1  7957  0.91
      L1  H    11    31       P1  7957  1.00
      L1  H    13    46       P1  7948  2.00
      P1  H  7954  7966       L1    11  0.05
      P1  H  7997  8010       L1    21  0.85

> <Gold.PLP.Chemscore.Internal.Correction>
0.0705

> <Gold.Rescore>
     Score         DG    S(hbond)    S(metal)    S(lipo)     H(rot)  DE(clash)    DE(int)     intcor
     17.47     -18.84       3.63        0.00      64.35       2.46       0.20       1.17       ----

> <Gold.Chemscore.Fitness>
17.4690

> <Gold.Chemscore.DG>
-18.8412

> <Gold.Chemscore.ZeroCoef>
-5.4800

> <Gold.Chemscore.Hbond>
3.6337

> <Gold.Chemscore.Metal>
0.0000

> <Gold.Chemscore.Lipo>
64.3459

> <Gold.Chemscore.Internal_Hbond>
0.0000

> <Gold.Chemscore.DEClash>
0.2034

> <Gold.Chemscore.DEInternal>
1.1688

> <Gold.Chemscore.Rot>
2.4624

> <Gold.Chemscore.Internal.Correction>
   9.000000E+99

> <Gold.Chemscore.Hbonds>
donor molecule, donor type, donor heavy atom, donor atom, acceptor molecule, acceptor atom, score
      L1  H     8    27       P1  7957  0.86
      L1  H    11    31       P1  7957  0.40
      L1  H    13    46       P1  7948  0.96
      P1  H  7997  8010       L1    21  0.14

> <Gold.Chemscore.Hbond.Weighted>
-12.1364

> <Gold.Chemscore.Metal.Weighted>
-0.0000

> <Gold.Chemscore.Lipo.Weighted>
-7.5285

> <Gold.Chemscore.Internal_Hbond.Weighted>
0.0000

> <Gold.Chemscore.DEClash.Weighted>
0.2034

> <Gold.Chemscore.DEInternal.Weighted>
1.1688

> <Gold.Chemscore.Rot.Weighted>
6.3037

> <Gold.Chemscore.Internal.Correction.Weighted>
   9.000000E+99

> <Gold.Protein.RotatedTorsions>
[ 6907 6896 6895 6894 ] final  -99.30 input  -60.11 | X-H torsion
[ 7974 7965 7964 7962 ] final  -46.17 input  175.53 | X-H torsion
[ 8008 7997 7996 7995 ] final   70.17 input   59.86 | X-H torsion
[ 10167 10162 10161 10158 ] final   -9.77 input  -65.29 | X-H torsion
[ 10718 10713 10712 10709 ] final   19.49 input   66.30 | X-H torsion
[ 10763 10752 10751 10750 ] final   94.58 input  -60.55 | X-H torsion
[ 11005 11000 10999 10996 ] final  138.13 input  -57.11 | X-H torsion

> <Gold.Protein.ActiveResidues>
 VAL166  LYS551  ARG553  GLY616  TRP617  ASP618  TYR619  PRO620  LYS621  CYS622 
 ASP623  PHE694  ASN695  SER759  ASP760  ASP761  ALA762  ILE779  LEU786  VAL792 
 PHE793  MET794  SER795  GLU796  ALA797  LYS798  CYS799  TRP800  GLU811  SER814 

> <Gold.Protein.RotatedAtoms>
  150.7075  134.1062  159.3983 H   0  0  0  0  0  0  0  0  0  0  0  0  # atno 6907 bound_to 6896
  151.9049  135.0361  160.0519 H   0  0  0  0  0  0  0  0  0  0  0  0  # atno 6908 bound_to 6896
  152.2384  133.5079  159.5292 H   0  0  0  0  0  0  0  0  0  0  0  0  # atno 6909 bound_to 6896
  145.9746  140.7347  142.9393 H   0  0  0  0  0  0  0  0  0  0  0  0  # atno 7974 bound_to 7965
  155.7347  140.3491  155.5076 H   0  0  0  0  0  0  0  0  0  0  0  0  # atno 8008 bound_to 7997
  155.9150  140.1057  157.1272 H   0  0  0  0  0  0  0  0  0  0  0  0  # atno 8009 bound_to 7997
  154.4061  140.1260  156.4592 H   0  0  0  0  0  0  0  0  0  0  0  0  # atno 8010 bound_to 7997
  140.7096  143.5821  150.8981 H   0  0  0  0  0  0  0  0  0  0  0  0  # atno 10167 bound_to 10162
  157.1112  130.6509  149.5898 H   0  0  0  0  0  0  0  0  0  0  0  0  # atno 10718 bound_to 10713
  153.2433  135.4284  155.0721 H   0  0  0  0  0  0  0  0  0  0  0  0  # atno 10763 bound_to 10752
  154.8350  135.3408  154.6618 H   0  0  0  0  0  0  0  0  0  0  0  0  # atno 10764 bound_to 10752
  153.7041  135.7026  153.5111 H   0  0  0  0  0  0  0  0  0  0  0  0  # atno 10765 bound_to 10752
  140.0162  134.9417  157.0381 H   0  0  0  0  0  0  0  0  0  0  0  0  # atno 11005 bound_to 11000
  144.6845  140.2806  143.7292 LP  0  0  0  0  0  0  0  0  0  0  0  0  # atno 17320 bound_to 7965
  145.7857  139.1908  143.2132 LP  0  0  0  0  0  0  0  0  0  0  0  0  # atno 17321 bound_to 7965
  139.9547  143.6232  152.3019 LP  0  0  0  0  0  0  0  0  0  0  0  0  # atno 17342 bound_to 10162
  139.6763  144.7658  151.1689 LP  0  0  0  0  0  0  0  0  0  0  0  0  # atno 17343 bound_to 10162
  155.9850  130.4878  150.7010 LP  0  0  0  0  0  0  0  0  0  0  0  0  # atno 17370 bound_to 10713
  157.4558  131.0877  151.0798 LP  0  0  0  0  0  0  0  0  0  0  0  0  # atno 17371 bound_to 10713
  140.4466  134.1625  155.7178 LP  0  0  0  0  0  0  0  0  0  0  0  0  # atno 17394 bound_to 11000
  141.1744  133.8543  157.1467 LP  0  0  0  0  0  0  0  0  0  0  0  0  # atno 17395 bound_to 11000

$$$$
