AV-unprocessed.smi:3003|AV-procd|sdf|11437|dock2
  -GOLD-   2272016363D 1   1.00000     0.00000
 Structure written by MMmdl.
 41 42  0  0  0  0  0  0  0  0  1 V2000
  149.0319  132.1908  156.6484 C   0  0  0  0  0  0  0  0  0  0  0  0
  150.2423  133.5256  156.8520 S   0  0  0  0  0  0  0  0  0  0  0  0
  149.6161  134.7480  155.6601 C   0  0  2  0  0  0  0  0  0  0  0  0
  149.2225  134.0536  154.3470 C   0  0  0  0  0  0  0  0  0  0  0  0
  150.6285  135.8707  155.4035 C   0  0  0  0  0  0  0  0  0  0  0  0
  151.5946  136.0197  156.1527 O   0  0  0  0  0  0  0  0  0  0  0  0
  150.3889  136.6642  154.3474 N   0  0  0  0  0  0  0  0  0  0  0  0
  151.2132  137.8027  153.9576 C   0  0  0  0  0  0  0  0  0  0  0  0
  151.3948  138.8211  155.0710 C   0  0  0  0  0  0  0  0  0  0  0  0
  150.4548  139.8487  155.2850 C   0  0  0  0  0  0  0  0  0  0  0  0
  150.6693  140.7635  156.3333 C   0  0  0  0  0  0  0  0  0  0  0  0
  151.8254  140.6317  157.1394 C   0  0  0  0  0  0  0  0  0  0  0  0
  152.0617  141.5372  158.1968 N   0  0  0  0  0  0  0  0  0  0  0  0
  152.2684  140.9375  159.5129 C   0  0  0  0  0  0  0  0  0  0  0  0
  152.8203  141.9833  160.4970 C   0  0  0  0  0  0  0  0  0  0  0  0
  151.9561  143.1140  160.5352 O   0  0  0  0  0  0  0  0  0  0  0  0
  151.8577  143.7481  159.2646 C   0  0  0  0  0  0  0  0  0  0  0  0
  151.2695  142.7651  158.2388 C   0  0  0  0  0  0  0  0  0  0  0  0
  152.7271  139.6407  156.9282 N   0  0  0  0  0  0  0  0  0  0  0  0
  152.5163  138.7660  155.9223 C   0  0  0  0  0  0  0  0  0  0  0  0
  149.3127  131.3352  157.2622 H   0  0  0  0  0  0  0  0  0  0  0  0
  148.9872  131.8694  155.6080 H   0  0  0  0  0  0  0  0  0  0  0  0
  148.0407  132.5203  156.9567 H   0  0  0  0  0  0  0  0  0  0  0  0
  148.7116  135.1811  156.0898 H   0  0  0  0  0  0  0  0  0  0  0  0
  148.8453  134.7698  153.6159 H   0  0  0  0  0  0  0  0  0  0  0  0
  148.4365  133.3173  154.5179 H   0  0  0  0  0  0  0  0  0  0  0  0
  150.0693  133.5325  153.8981 H   0  0  0  0  0  0  0  0  0  0  0  0
  149.5743  136.4726  153.7823 H   0  0  0  0  0  0  0  0  0  0  0  0
  152.1838  137.4560  153.5984 H   0  0  0  0  0  0  0  0  0  0  0  0
  150.7325  138.2991  153.1144 H   0  0  0  0  0  0  0  0  0  0  0  0
  149.5781  139.9350  154.6602 H   0  0  0  0  0  0  0  0  0  0  0  0
  149.9419  141.5404  156.5143 H   0  0  0  0  0  0  0  0  0  0  0  0
  151.3151  140.5512  159.8762 H   0  0  0  0  0  0  0  0  0  0  0  0
  152.9560  140.0941  159.4712 H   0  0  0  0  0  0  0  0  0  0  0  0
  152.8900  141.5563  161.4974 H   0  0  0  0  0  0  0  0  0  0  0  0
  153.8277  142.2912  160.2122 H   0  0  0  0  0  0  0  0  0  0  0  0
  151.2165  144.6249  159.3540 H   0  0  0  0  0  0  0  0  0  0  0  0
  152.8392  144.1026  158.9456 H   0  0  0  0  0  0  0  0  0  0  0  0
  151.2510  143.2377  157.2559 H   0  0  0  0  0  0  0  0  0  0  0  0
  150.2398  142.5214  158.5039 H   0  0  0  0  0  0  0  0  0  0  0  0
  153.2651  137.9977  155.7984 H   0  0  0  0  0  0  0  0  0  0  0  0
  1  2  1  0  0  0  0
  1 21  1  0  0  0  0
  1 22  1  0  0  0  0
  1 23  1  0  0  0  0
  2  3  1  0  0  0  0
  3  4  1  0  0  0  0
  3  5  1  0  0  0  0
  3 24  1  0  0  0  0
  4 25  1  0  0  0  0
  4 26  1  0  0  0  0
  4 27  1  0  0  0  0
  5  6  2  0  0  0  0
  5  7  1  0  0  0  0
  7  8  1  0  0  0  0
  7 28  1  0  0  0  0
  8  9  1  0  0  0  0
  8 29  1  0  0  0  0
  8 30  1  0  0  0  0
  9 20  1  0  0  0  0
  9 10  2  0  0  0  0
 10 11  1  0  0  0  0
 10 31  1  0  0  0  0
 11 12  2  0  0  0  0
 11 32  1  0  0  0  0
 12 13  1  0  0  0  0
 12 19  1  0  0  0  0
 13 18  1  0  0  0  0
 13 14  1  0  0  0  0
 14 15  1  0  0  0  0
 14 33  1  0  0  0  0
 14 34  1  0  0  0  0
 15 16  1  0  0  0  0
 15 35  1  0  0  0  0
 15 36  1  0  0  0  0
 16 17  1  0  0  0  0
 17 18  1  0  0  0  0
 17 37  1  0  0  0  0
 17 38  1  0  0  0  0
 18 39  1  0  0  0  0
 18 40  1  0  0  0  0
 19 20  2  0  0  0  0
 20 41  1  0  0  0  0
M  END
> <s_m_source_file>
AV-unprocessed.smi

> <i_m_source_file_index>
3003

> <i_lp_mmshare_version>
43012

> <i_f3d_flags>
0

> <s_epik_input>
W0NIM11TW0NASF0oW0NIM10pQyg9TylbTkhdW0NIMl1jMVtjSF1bY0hdYyhuW2NIXTEpTjJbQ0gyXVtDSDJdT1tDSDJdW0NIMl0y

> <s_epik_cmdline>
J2VwaWtfcHl0aG9uJywgJy1waCcsICc3LjAnLCAnLXRuJywgJzgnLCAnLW1hJywgJzIwMCcsICctbWV0YWxfYmluZGluZycsICctaW1hZScsICc8aW5maWxlLm1hZT4nLCAnLW9tYWUnLCAnPG91dGZpbGUubWFlPic=

> <r_lp_tautomer_probability>
1

> <r_epik_Ionization_Penalty>
0.00417642

> <r_epik_Ionization_Penalty_Charging>
0

> <r_epik_Ionization_Penalty_Neutral>
0.00417642

> <r_epik_State_Penalty>
0.00299889

> <r_epik_Charging_Adjusted_Penalty>
0.00299889

> <i_epik_Tot_Q>
0

> <i_epik_Tot_abs_Q>
0

> <r_epik_Metal_State_Penalty>
-0

> <b_epik_Metal_Only>
0

> <s_lp_Force_Field>
OPLS_2005

> <r_lp_Energy>
16.2796

> <b_lp_Chiralities_Consistent>
1

> <s_lp_Variant>
AV-unprocessed.smi:3003-1

> <Gold.Version>
5.8.1

> <Gold.Id.Protein>
6NUR|6NUR_protein|mol2

> <Gold.PLP.Fitness>
43.9462

> <Gold.PLP.PLP>
-36.8033

> <Gold.PLP.part.hbond>
-4.0000

> <Gold.PLP.part.metal>
0.0000

> <Gold.PLP.part.buried>
-2.2862

> <Gold.PLP.part.nonpolar>
-31.1666

> <Gold.PLP.part.repulsive>
0.1447

> <Gold.PLP.ligand.clash>
0.0000

> <Gold.PLP.ligand.torsion>
1.0505

> <Gold.PLP.Chemscore.Hbond>
2.9440

> <Gold.PLP.Chemscore.CHOScore>
0.0000

> <Gold.PLP.Chemscore.Metal>
0.0000

> <Gold.Chemscore.Hbonds>
donor molecule, donor type, donor heavy atom, donor atom, acceptor molecule, acceptor atom, score
      L1  H     7    28       P1  7948  0.83
      P1  H  7997  8010       L1    19  1.00
      P1  H 10752 10764       L1     6  1.00

> <Gold.PLP.Chemscore.Internal.Correction>
0.4120

> <Gold.Rescore>
     Score         DG    S(hbond)    S(metal)    S(lipo)     H(rot)  DE(clash)    DE(int)     intcor
     16.87     -19.93       2.27        0.00      95.19       1.67       0.33       2.74       ----

> <Gold.Chemscore.Fitness>
16.8652

> <Gold.Chemscore.DG>
-19.9313

> <Gold.Chemscore.ZeroCoef>
-5.4800

> <Gold.Chemscore.Hbond>
2.2708

> <Gold.Chemscore.Metal>
0.0000

> <Gold.Chemscore.Lipo>
95.1942

> <Gold.Chemscore.Internal_Hbond>
0.0000

> <Gold.Chemscore.DEClash>
0.3273

> <Gold.Chemscore.DEInternal>
2.7388

> <Gold.Chemscore.Rot>
1.6682

> <Gold.Chemscore.Internal.Correction>
   9.000000E+99

> <Gold.Chemscore.Hbonds>
donor molecule, donor type, donor heavy atom, donor atom, acceptor molecule, acceptor atom, score
      L1  H     7    28       P1  7948  0.55
      P1  H  7997  8010       L1    19  0.29
      P1  H 10752 10764       L1     6  0.34

> <Gold.Chemscore.Hbond.Weighted>
-7.5843

> <Gold.Chemscore.Metal.Weighted>
-0.0000

> <Gold.Chemscore.Lipo.Weighted>
-11.1377

> <Gold.Chemscore.Internal_Hbond.Weighted>
0.0000

> <Gold.Chemscore.DEClash.Weighted>
0.3273

> <Gold.Chemscore.DEInternal.Weighted>
2.7388

> <Gold.Chemscore.Rot.Weighted>
4.2707

> <Gold.Chemscore.Internal.Correction.Weighted>
   9.000000E+99

> <Gold.Protein.RotatedTorsions>
[ 6907 6896 6895 6894 ] final   92.12 input  -60.11 | X-H torsion
[ 7974 7965 7964 7962 ] final  -84.58 input  175.53 | X-H torsion
[ 8008 7997 7996 7995 ] final   60.91 input   59.86 | X-H torsion
[ 10167 10162 10161 10158 ] final   34.29 input  -65.29 | X-H torsion
[ 10718 10713 10712 10709 ] final  -51.69 input   66.30 | X-H torsion
[ 10763 10752 10751 10750 ] final  -33.59 input  -60.55 | X-H torsion
[ 11005 11000 10999 10996 ] final   34.63 input  -57.11 | X-H torsion

> <Gold.Protein.ActiveResidues>
 VAL166  LYS551  ARG553  GLY616  TRP617  ASP618  TYR619  PRO620  LYS621  CYS622 
 ASP623  PHE694  ASN695  SER759  ASP760  ASP761  ALA762  ILE779  LEU786  VAL792 
 PHE793  MET794  SER795  GLU796  ALA797  LYS798  CYS799  TRP800  GLU811  SER814 

> <Gold.Protein.RotatedAtoms>
  152.5452  134.1552  159.8534 H   0  0  0  0  0  0  0  0  0  0  0  0  # atno 6907 bound_to 6896
  151.1575  133.4860  159.2602 H   0  0  0  0  0  0  0  0  0  0  0  0  # atno 6908 bound_to 6896
  151.1408  135.0189  159.8679 H   0  0  0  0  0  0  0  0  0  0  0  0  # atno 6909 bound_to 6896
  145.5047  140.9544  143.1740 H   0  0  0  0  0  0  0  0  0  0  0  0  # atno 7974 bound_to 7965
  155.5898  140.3492  155.4563 H   0  0  0  0  0  0  0  0  0  0  0  0  # atno 8008 bound_to 7997
  156.0310  140.1274  157.0283 H   0  0  0  0  0  0  0  0  0  0  0  0  # atno 8009 bound_to 7997
  154.4352  140.1043  156.6085 H   0  0  0  0  0  0  0  0  0  0  0  0  # atno 8010 bound_to 7997
  140.4328  144.1299  150.6162 H   0  0  0  0  0  0  0  0  0  0  0  0  # atno 10167 bound_to 10162
  156.1687  130.4149  149.9680 H   0  0  0  0  0  0  0  0  0  0  0  0  # atno 10718 bound_to 10713
  153.8327  135.6864  153.4812 H   0  0  0  0  0  0  0  0  0  0  0  0  # atno 10763 bound_to 10752
  153.1501  135.4621  154.9622 H   0  0  0  0  0  0  0  0  0  0  0  0  # atno 10764 bound_to 10752
  154.7879  135.3291  154.7789 H   0  0  0  0  0  0  0  0  0  0  0  0  # atno 10765 bound_to 10752
  140.2509  134.3304  155.7891 H   0  0  0  0  0  0  0  0  0  0  0  0  # atno 11005 bound_to 11000
  144.7760  139.6628  143.7174 LP  0  0  0  0  0  0  0  0  0  0  0  0  # atno 17320 bound_to 7965
  146.2204  139.5625  142.9622 LP  0  0  0  0  0  0  0  0  0  0  0  0  # atno 17321 bound_to 7965
  140.4407  143.2528  151.9476 LP  0  0  0  0  0  0  0  0  0  0  0  0  # atno 17342 bound_to 10162
  139.4785  144.5657  151.8169 LP  0  0  0  0  0  0  0  0  0  0  0  0  # atno 17343 bound_to 10162
  156.7486  130.9107  151.3636 LP  0  0  0  0  0  0  0  0  0  0  0  0  # atno 17370 bound_to 10713
  157.6787  130.9119  150.0214 LP  0  0  0  0  0  0  0  0  0  0  0  0  # atno 17371 bound_to 10713
  141.2201  133.7353  156.9035 LP  0  0  0  0  0  0  0  0  0  0  0  0  # atno 17394 bound_to 11000
  140.1559  134.9198  157.2653 LP  0  0  0  0  0  0  0  0  0  0  0  0  # atno 17395 bound_to 11000

$$$$
