AV-unprocessed.smi:1612|AV-procd|sdf|6476|dock1
  -GOLD-   22720 7133D 1   1.00000     0.00000
 Structure written by MMmdl.
 37 38  0  0  0  0  0  0  0  0  1 V2000
  150.7462  134.0039  155.8242 C   0  0  0  0  0  0  0  0  0  0  0  0
  149.7955  135.1739  155.5196 C   0  0  2  0  0  0  0  0  0  0  0  0
  149.0592  134.8468  154.2985 N   0  0  0  0  0  0  0  0  0  0  0  0
  148.2809  133.7664  154.1329 C   0  0  0  0  0  0  0  0  0  0  0  0
  148.1209  132.9075  155.0010 O   0  0  0  0  0  0  0  0  0  0  0  0
  147.7115  133.7591  152.9148 N   0  0  0  0  0  0  0  0  0  0  0  0
  146.8319  132.7899  152.3628 C   0  0  0  0  0  0  0  0  0  0  0  0
  146.4768  133.0049  151.0118 C   0  0  0  0  0  0  0  0  0  0  0  0
  145.6100  132.0991  150.3705 C   0  0  0  0  0  0  0  0  0  0  0  0
  145.1192  131.0000  151.0977 C   0  0  0  0  0  0  0  0  0  0  0  0
  145.5218  130.8593  152.4385 C   0  0  0  0  0  0  0  0  0  0  0  0
  146.3533  131.7258  153.0549 N   0  0  0  0  0  0  0  0  0  0  0  0
  150.6513  136.4437  155.3137 C   0  0  0  0  0  0  0  0  0  0  0  0
  151.8778  136.3646  155.4109 O   0  0  0  0  0  0  0  0  0  0  0  0
  150.0344  137.6156  155.0498 N   0  0  0  0  0  0  0  0  0  0  0  0
  150.7556  138.8677  154.8266 C   0  0  0  0  0  0  0  0  0  0  0  0
  149.7149  139.8606  154.3096 C   0  0  0  0  0  0  0  0  0  0  0  0
  148.3990  139.3449  154.8741 C   0  0  0  0  0  0  0  0  0  0  0  0
  148.5912  137.8296  154.9435 C   0  0  0  0  0  0  0  0  0  0  0  0
  151.3192  134.1834  156.7347 H   0  0  0  0  0  0  0  0  0  0  0  0
  151.4562  133.8343  155.0130 H   0  0  0  0  0  0  0  0  0  0  0  0
  150.1886  133.0785  155.9718 H   0  0  0  0  0  0  0  0  0  0  0  0
  149.0838  135.2907  156.3374 H   0  0  0  0  0  0  0  0  0  0  0  0
  149.1296  135.5054  153.5369 H   0  0  0  0  0  0  0  0  0  0  0  0
  147.9316  134.5383  152.3123 H   0  0  0  0  0  0  0  0  0  0  0  0
  146.8626  133.8550  150.4677 H   0  0  0  0  0  0  0  0  0  0  0  0
  145.3266  132.2458  149.3387 H   0  0  0  0  0  0  0  0  0  0  0  0
  144.4526  130.2836  150.6408 H   0  0  0  0  0  0  0  0  0  0  0  0
  145.1678  130.0290  153.0317 H   0  0  0  0  0  0  0  0  0  0  0  0
  151.1740  139.2094  155.7745 H   0  0  0  0  0  0  0  0  0  0  0  0
  151.5757  138.7494  154.1166 H   0  0  0  0  0  0  0  0  0  0  0  0
  149.9289  140.8889  154.6024 H   0  0  0  0  0  0  0  0  0  0  0  0
  149.6837  139.8227  153.2199 H   0  0  0  0  0  0  0  0  0  0  0  0
  148.2536  139.7420  155.8796 H   0  0  0  0  0  0  0  0  0  0  0  0
  147.5370  139.6348  154.2727 H   0  0  0  0  0  0  0  0  0  0  0  0
  148.2284  137.3594  154.0281 H   0  0  0  0  0  0  0  0  0  0  0  0
  148.0455  137.4053  155.7873 H   0  0  0  0  0  0  0  0  0  0  0  0
  1  2  1  0  0  0  0
  1 20  1  0  0  0  0
  1 21  1  0  0  0  0
  1 22  1  0  0  0  0
  2  3  1  0  0  0  0
  2 13  1  0  0  0  0
  2 23  1  0  0  0  0
  3  4  1  0  0  0  0
  3 24  1  0  0  0  0
  4  5  2  0  0  0  0
  4  6  1  0  0  0  0
  6  7  1  0  0  0  0
  6 25  1  0  0  0  0
  7 12  1  0  0  0  0
  7  8  2  0  0  0  0
  8  9  1  0  0  0  0
  8 26  1  0  0  0  0
  9 10  2  0  0  0  0
  9 27  1  0  0  0  0
 10 11  1  0  0  0  0
 10 28  1  0  0  0  0
 11 12  2  0  0  0  0
 11 29  1  0  0  0  0
 13 14  2  0  0  0  0
 13 15  1  0  0  0  0
 15 19  1  0  0  0  0
 15 16  1  0  0  0  0
 16 17  1  0  0  0  0
 16 30  1  0  0  0  0
 16 31  1  0  0  0  0
 17 18  1  0  0  0  0
 17 32  1  0  0  0  0
 17 33  1  0  0  0  0
 18 19  1  0  0  0  0
 18 34  1  0  0  0  0
 18 35  1  0  0  0  0
 19 36  1  0  0  0  0
 19 37  1  0  0  0  0
M  END
> <s_m_source_file>
AV-unprocessed.smi

> <i_m_source_file_index>
1612

> <i_lp_mmshare_version>
43012

> <i_f3d_flags>
0

> <s_epik_input>
W0NIMl0xW0NIMl1bQ0gyXVtDSDJdTjFDKD1PKVtDQEhdKFtDSDNdKVtOSF1DKD1PKVtOSF1jMltjSF1bY0hdW2NIXVtjSF1uMg==

> <s_epik_cmdline>
J2VwaWtfcHl0aG9uJywgJy1waCcsICc3LjAnLCAnLXRuJywgJzgnLCAnLW1hJywgJzIwMCcsICctbWV0YWxfYmluZGluZycsICctaW1hZScsICc8aW5maWxlLm1hZT4nLCAnLW9tYWUnLCAnPG91dGZpbGUubWFlPic=

> <r_lp_tautomer_probability>
1

> <r_epik_Ionization_Penalty>
3.95281e-05

> <r_epik_Ionization_Penalty_Charging>
0

> <r_epik_Ionization_Penalty_Neutral>
3.95281e-05

> <r_epik_State_Penalty>
-0

> <r_epik_Charging_Adjusted_Penalty>
0

> <i_epik_Tot_Q>
0

> <i_epik_Tot_abs_Q>
0

> <r_epik_Metal_State_Penalty>
-0

> <b_epik_Metal_Only>
0

> <s_lp_Force_Field>
OPLS_2005

> <r_lp_Energy>
30.1614

> <b_lp_Chiralities_Consistent>
1

> <s_lp_Variant>
AV-unprocessed.smi:1612-1

> <Gold.Version>
5.8.1

> <Gold.Id.Protein>
6NUR|6NUR_protein|mol2

> <Gold.PLP.Fitness>
39.9422

> <Gold.PLP.PLP>
-29.7626

> <Gold.PLP.part.hbond>
-2.8671

> <Gold.PLP.part.metal>
0.0000

> <Gold.PLP.part.buried>
-5.3587

> <Gold.PLP.part.nonpolar>
-23.3876

> <Gold.PLP.part.repulsive>
0.2519

> <Gold.PLP.ligand.clash>
0.0000

> <Gold.PLP.ligand.torsion>
0.0202

> <Gold.PLP.Chemscore.Hbond>
3.0000

> <Gold.PLP.Chemscore.CHOScore>
0.4032

> <Gold.PLP.Chemscore.Metal>
0.0000

> <Gold.Chemscore.Hbonds>
donor molecule, donor type, donor heavy atom, donor atom, acceptor molecule, acceptor atom, score
      L1  H     3    24       P1  7948  1.00
      L1  H     6    25       P1  7948  1.00
      P1  H 10752 10763       L1    14  0.99
      L1  C    11    29       P1 10956  0.47

> <Gold.PLP.Chemscore.Internal.Correction>
0.0105

> <Gold.Rescore>
     Score         DG    S(hbond)    S(metal)    S(lipo)     H(rot)  DE(clash)    DE(int)     intcor
     15.79     -18.14       2.70        0.00      59.51       1.30       0.00       2.35       ----

> <Gold.Chemscore.Fitness>
15.7895

> <Gold.Chemscore.DG>
-18.1404

> <Gold.Chemscore.ZeroCoef>
-5.4800

> <Gold.Chemscore.Hbond>
2.7037

> <Gold.Chemscore.Metal>
0.0000

> <Gold.Chemscore.Lipo>
59.5056

> <Gold.Chemscore.Internal_Hbond>
0.0000

> <Gold.Chemscore.DEClash>
0.0048

> <Gold.Chemscore.DEInternal>
2.3461

> <Gold.Chemscore.Rot>
1.3016

> <Gold.Chemscore.Internal.Correction>
   9.000000E+99

> <Gold.Chemscore.Hbonds>
donor molecule, donor type, donor heavy atom, donor atom, acceptor molecule, acceptor atom, score
      L1  H     3    24       P1  7948  0.60
      L1  H     6    25       P1  7948  0.38
      P1  H 10752 10763       L1    14  0.92

> <Gold.Chemscore.Hbond.Weighted>
-9.0304

> <Gold.Chemscore.Metal.Weighted>
-0.0000

> <Gold.Chemscore.Lipo.Weighted>
-6.9622

> <Gold.Chemscore.Internal_Hbond.Weighted>
0.0000

> <Gold.Chemscore.DEClash.Weighted>
0.0048

> <Gold.Chemscore.DEInternal.Weighted>
2.3461

> <Gold.Chemscore.Rot.Weighted>
3.3322

> <Gold.Chemscore.Internal.Correction.Weighted>
   9.000000E+99

> <Gold.Protein.RotatedTorsions>
[ 6907 6896 6895 6894 ] final  111.30 input  -60.11 | X-H torsion
[ 7974 7965 7964 7962 ] final  -44.61 input  175.53 | X-H torsion
[ 8008 7997 7996 7995 ] final   33.56 input   59.86 | X-H torsion
[ 10167 10162 10161 10158 ] final -173.28 input  -65.29 | X-H torsion
[ 10718 10713 10712 10709 ] final  152.30 input   66.30 | X-H torsion
[ 10763 10752 10751 10750 ] final   52.54 input  -60.55 | X-H torsion
[ 11005 11000 10999 10996 ] final -120.20 input  -57.11 | X-H torsion

> <Gold.Protein.ActiveResidues>
 VAL166  LYS551  ARG553  GLY616  TRP617  ASP618  TYR619  PRO620  LYS621  CYS622 
 ASP623  PHE694  ASN695  SER759  ASP760  ASP761  ALA762  ILE779  LEU786  VAL792 
 PHE793  MET794  SER795  GLU796  ALA797  LYS798  CYS799  TRP800  GLU811  SER814 

> <Gold.Protein.RotatedAtoms>
  152.4976  133.8677  159.7282 H   0  0  0  0  0  0  0  0  0  0  0  0  # atno 6907 bound_to 6896
  150.9172  133.6916  159.2847 H   0  0  0  0  0  0  0  0  0  0  0  0  # atno 6908 bound_to 6896
  151.4305  135.1013  159.9693 H   0  0  0  0  0  0  0  0  0  0  0  0  # atno 6909 bound_to 6896
  145.9903  140.7188  142.9320 H   0  0  0  0  0  0  0  0  0  0  0  0  # atno 7974 bound_to 7965
  155.1406  140.3266  155.4453 H   0  0  0  0  0  0  0  0  0  0  0  0  # atno 8008 bound_to 7997
  156.2606  140.1994  156.6472 H   0  0  0  0  0  0  0  0  0  0  0  0  # atno 8009 bound_to 7997
  154.6545  140.0554  156.9979 H   0  0  0  0  0  0  0  0  0  0  0  0  # atno 8010 bound_to 7997
  139.5697  144.1670  152.1366 H   0  0  0  0  0  0  0  0  0  0  0  0  # atno 10167 bound_to 10162
  157.2595  131.0795  151.1675 H   0  0  0  0  0  0  0  0  0  0  0  0  # atno 10718 bound_to 10713
  152.9789  135.5809  154.4595 H   0  0  0  0  0  0  0  0  0  0  0  0  # atno 10763 bound_to 10752
  154.4173  135.2771  155.2000 H   0  0  0  0  0  0  0  0  0  0  0  0  # atno 10764 bound_to 10752
  154.3765  135.6156  153.5821 H   0  0  0  0  0  0  0  0  0  0  0  0  # atno 10765 bound_to 10752
  141.0161  134.0193  157.3348 H   0  0  0  0  0  0  0  0  0  0  0  0  # atno 11005 bound_to 11000
  144.6887  140.3058  143.7256 LP  0  0  0  0  0  0  0  0  0  0  0  0  # atno 17320 bound_to 7965
  145.7640  139.1834  143.2251 LP  0  0  0  0  0  0  0  0  0  0  0  0  # atno 17321 bound_to 7965
  140.1201  144.5381  150.6869 LP  0  0  0  0  0  0  0  0  0  0  0  0  # atno 17342 bound_to 10162
  140.6981  143.2417  151.4942 LP  0  0  0  0  0  0  0  0  0  0  0  0  # atno 17343 bound_to 10162
  157.3191  130.6928  149.6259 LP  0  0  0  0  0  0  0  0  0  0  0  0  # atno 17370 bound_to 10713
  155.9664  130.4341  150.5033 LP  0  0  0  0  0  0  0  0  0  0  0  0  # atno 17371 bound_to 10713
  139.9118  135.0191  156.7721 LP  0  0  0  0  0  0  0  0  0  0  0  0  # atno 17394 bound_to 11000
  140.6653  133.9609  155.7826 LP  0  0  0  0  0  0  0  0  0  0  0  0  # atno 17395 bound_to 11000

$$$$
