AV-unprocessed.smi:1966|AV-procd|sdf|7950|dock5
  -GOLD-   2272010113D 1   1.00000     0.00000
 Structure written by MMmdl.
 53 54  0  0  0  0  0  0  0  0  1 V2000
  153.9948  134.1570  165.1124 C   0  0  0  0  0  0  0  0  0  0  0  0
  154.6770  135.0803  164.1090 C   0  0  0  0  0  0  0  0  0  0  0  0
  154.6899  136.2964  164.2969 O   0  0  0  0  0  0  0  0  0  0  0  0
  155.2405  134.4869  163.0447 N   0  0  0  0  0  0  0  0  0  0  0  0
  155.9308  135.1772  161.9528 C   0  0  2  0  0  0  0  0  0  0  0  0
  154.9659  136.2064  161.3309 C   0  0  0  0  0  0  0  0  0  0  0  0
  153.8921  135.8314  160.8585 O   0  0  0  0  0  0  0  0  0  0  0  0
  155.4041  137.4791  161.3211 N   0  0  0  0  0  0  0  0  0  0  0  0
  154.7505  138.6488  160.8462 C   0  0  0  0  0  0  0  0  0  0  0  0
  155.3156  139.9455  160.8560 C   0  0  0  0  0  0  0  0  0  0  0  0
  154.5688  141.0194  160.3349 C   0  0  0  0  0  0  0  0  0  0  0  0
  153.2797  140.7761  159.8055 C   0  0  0  0  0  0  0  0  0  0  0  0
  152.5190  141.8398  159.2731 N   0  0  0  0  0  0  0  0  0  0  0  0
  152.6306  143.1491  159.9102 C   0  0  0  0  0  0  0  0  0  0  0  0
  152.0142  144.2376  159.0136 C   0  0  2  0  0  0  0  0  0  0  0  0
  151.9919  145.6038  159.7066 C   0  0  0  0  0  0  0  0  0  0  0  0
  150.6699  143.8857  158.6894 O   0  0  0  0  0  0  0  0  0  0  0  0
  150.5234  142.6238  158.0345 C   0  0  1  0  0  0  0  0  0  0  0  0
  151.0448  142.6557  156.5866 C   0  0  0  0  0  0  0  0  0  0  0  0
  151.1509  141.5036  158.8875 C   0  0  0  0  0  0  0  0  0  0  0  0
  152.7432  139.5313  159.7937 N   0  0  0  0  0  0  0  0  0  0  0  0
  153.4620  138.5048  160.2940 C   0  0  0  0  0  0  0  0  0  0  0  0
  156.3610  134.1261  160.8869 C   0  0  0  0  0  0  0  0  0  0  0  0
  155.1499  133.3639  160.3132 C   0  0  0  0  0  0  0  0  0  0  0  0
  157.3905  133.1078  161.4199 C   0  0  0  0  0  0  0  0  0  0  0  0
  153.1929  133.5974  164.6299 H   0  0  0  0  0  0  0  0  0  0  0  0
  153.5649  134.7282  165.9358 H   0  0  0  0  0  0  0  0  0  0  0  0
  154.7118  133.4475  165.5262 H   0  0  0  0  0  0  0  0  0  0  0  0
  155.1750  133.4820  162.9734 H   0  0  0  0  0  0  0  0  0  0  0  0
  156.8176  135.6826  162.3416 H   0  0  0  0  0  0  0  0  0  0  0  0
  156.3399  137.6226  161.6724 H   0  0  0  0  0  0  0  0  0  0  0  0
  156.3049  140.1410  161.2383 H   0  0  0  0  0  0  0  0  0  0  0  0
  154.9887  142.0139  160.3559 H   0  0  0  0  0  0  0  0  0  0  0  0
  152.1230  143.1221  160.8756 H   0  0  0  0  0  0  0  0  0  0  0  0
  153.6780  143.3886  160.0983 H   0  0  0  0  0  0  0  0  0  0  0  0
  152.6002  144.3334  158.0995 H   0  0  0  0  0  0  0  0  0  0  0  0
  152.9996  145.9283  159.9672 H   0  0  0  0  0  0  0  0  0  0  0  0
  151.4022  145.5718  160.6233 H   0  0  0  0  0  0  0  0  0  0  0  0
  151.5560  146.3624  159.0561 H   0  0  0  0  0  0  0  0  0  0  0  0
  149.4510  142.4352  157.9777 H   0  0  0  0  0  0  0  0  0  0  0  0
  150.7938  141.7312  156.0663 H   0  0  0  0  0  0  0  0  0  0  0  0
  152.1279  142.7677  156.5392 H   0  0  0  0  0  0  0  0  0  0  0  0
  150.5975  143.4792  156.0296 H   0  0  0  0  0  0  0  0  0  0  0  0
  151.0976  140.5625  158.3419 H   0  0  0  0  0  0  0  0  0  0  0  0
  150.5660  141.3680  159.7982 H   0  0  0  0  0  0  0  0  0  0  0  0
  152.9884  137.5346  160.2528 H   0  0  0  0  0  0  0  0  0  0  0  0
  156.8305  134.6511  160.0530 H   0  0  0  0  0  0  0  0  0  0  0  0
  154.6083  132.8360  161.0986 H   0  0  0  0  0  0  0  0  0  0  0  0
  155.4644  132.6257  159.5750 H   0  0  0  0  0  0  0  0  0  0  0  0
  154.4460  134.0298  159.8138 H   0  0  0  0  0  0  0  0  0  0  0  0
  157.0074  132.5804  162.2940 H   0  0  0  0  0  0  0  0  0  0  0  0
  158.3311  133.5815  161.7009 H   0  0  0  0  0  0  0  0  0  0  0  0
  157.6308  132.3611  160.6625 H   0  0  0  0  0  0  0  0  0  0  0  0
  1  2  1  0  0  0  0
  1 26  1  0  0  0  0
  1 27  1  0  0  0  0
  1 28  1  0  0  0  0
  2  3  2  0  0  0  0
  2  4  1  0  0  0  0
  4  5  1  0  0  0  0
  4 29  1  0  0  0  0
  5  6  1  0  0  0  0
  5 23  1  0  0  0  0
  5 30  1  0  0  0  0
  6  7  2  0  0  0  0
  6  8  1  0  0  0  0
  8  9  1  0  0  0  0
  8 31  1  0  0  0  0
  9 22  1  0  0  0  0
  9 10  2  0  0  0  0
 10 11  1  0  0  0  0
 10 32  1  0  0  0  0
 11 12  2  0  0  0  0
 11 33  1  0  0  0  0
 12 13  1  0  0  0  0
 12 21  1  0  0  0  0
 13 20  1  0  0  0  0
 13 14  1  0  0  0  0
 14 15  1  0  0  0  0
 14 34  1  0  0  0  0
 14 35  1  0  0  0  0
 15 16  1  0  0  0  0
 15 17  1  0  0  0  0
 15 36  1  0  0  0  0
 16 37  1  0  0  0  0
 16 38  1  0  0  0  0
 16 39  1  0  0  0  0
 17 18  1  0  0  0  0
 18 19  1  0  0  0  0
 18 20  1  0  0  0  0
 18 40  1  0  0  0  0
 19 41  1  0  0  0  0
 19 42  1  0  0  0  0
 19 43  1  0  0  0  0
 20 44  1  0  0  0  0
 20 45  1  0  0  0  0
 21 22  2  0  0  0  0
 22 46  1  0  0  0  0
 23 24  1  0  0  0  0
 23 25  1  0  0  0  0
 23 47  1  0  0  0  0
 24 48  1  0  0  0  0
 24 49  1  0  0  0  0
 24 50  1  0  0  0  0
 25 51  1  0  0  0  0
 25 52  1  0  0  0  0
 25 53  1  0  0  0  0
M  END
> <s_m_source_file>
AV-unprocessed.smi

> <i_m_source_file_index>
1966

> <i_lp_mmshare_version>
43012

> <i_f3d_flags>
0

> <s_epik_input>
W0NIM11DKD1PKVtOSF1bQ0BASF0oW0NIXShbQ0gzXSlbQ0gzXSlDKD1PKVtOSF1jMVtjSF1bY0hdYyhuW2NIXTEpTjJbQ0gyXVtDQEBIXShbQ0gzXSlPW0NAQEhdKFtDSDNdKVtDSDJdMg==

> <s_epik_cmdline>
J2VwaWtfcHl0aG9uJywgJy1waCcsICc3LjAnLCAnLXRuJywgJzgnLCAnLW1hJywgJzIwMCcsICctbWV0YWxfYmluZGluZycsICctaW1hZScsICc8aW5maWxlLm1hZT4nLCAnLW9tYWUnLCAnPG91dGZpbGUubWFlPic=

> <r_lp_tautomer_probability>
1

> <r_epik_Ionization_Penalty>
0.000679699

> <r_epik_Ionization_Penalty_Charging>
0

> <r_epik_Ionization_Penalty_Neutral>
0.000679699

> <r_epik_State_Penalty>
0.000430485

> <r_epik_Charging_Adjusted_Penalty>
0.000430485

> <i_epik_Tot_Q>
0

> <i_epik_Tot_abs_Q>
0

> <r_epik_Metal_State_Penalty>
-0

> <b_epik_Metal_Only>
0

> <s_lp_Force_Field>
OPLS_2005

> <r_lp_Energy>
28.7238

> <b_lp_Chiralities_Consistent>
1

> <s_lp_Variant>
AV-unprocessed.smi:1966-3

> <Gold.Version>
5.8.1

> <Gold.Id.Protein>
6NUR|6NUR_protein|mol2

> <Gold.PLP.Fitness>
41.1095

> <Gold.PLP.PLP>
-38.5991

> <Gold.PLP.part.hbond>
-1.0000

> <Gold.PLP.part.metal>
0.0000

> <Gold.PLP.part.buried>
-5.9103

> <Gold.PLP.part.nonpolar>
-32.0567

> <Gold.PLP.part.repulsive>
0.2283

> <Gold.PLP.ligand.clash>
0.0000

> <Gold.PLP.ligand.torsion>
0.4126

> <Gold.PLP.Chemscore.Hbond>
1.0000

> <Gold.PLP.Chemscore.CHOScore>
0.0000

> <Gold.PLP.Chemscore.Metal>
0.0000

> <Gold.Chemscore.Hbonds>
donor molecule, donor type, donor heavy atom, donor atom, acceptor molecule, acceptor atom, score
      P1  H  6896  6907       L1     7  1.00

> <Gold.PLP.Chemscore.Internal.Correction>
0.3356

> <Gold.Rescore>
     Score         DG    S(hbond)    S(metal)    S(lipo)     H(rot)  DE(clash)    DE(int)     intcor
     13.43     -16.88       0.99        0.00     105.74       1.68       0.16       3.29       ----

> <Gold.Chemscore.Fitness>
13.4253

> <Gold.Chemscore.DG>
-16.8836

> <Gold.Chemscore.ZeroCoef>
-5.4800

> <Gold.Chemscore.Hbond>
0.9948

> <Gold.Chemscore.Metal>
0.0000

> <Gold.Chemscore.Lipo>
105.7371

> <Gold.Chemscore.Internal_Hbond>
0.0000

> <Gold.Chemscore.DEClash>
0.1633

> <Gold.Chemscore.DEInternal>
3.2950

> <Gold.Chemscore.Rot>
1.6759

> <Gold.Chemscore.Internal.Correction>
   9.000000E+99

> <Gold.Chemscore.Hbonds>
donor molecule, donor type, donor heavy atom, donor atom, acceptor molecule, acceptor atom, score
      P1  H  6896  6907       L1     7  0.93

> <Gold.Chemscore.Hbond.Weighted>
-3.3226

> <Gold.Chemscore.Metal.Weighted>
-0.0000

> <Gold.Chemscore.Lipo.Weighted>
-12.3712

> <Gold.Chemscore.Internal_Hbond.Weighted>
0.0000

> <Gold.Chemscore.DEClash.Weighted>
0.1633

> <Gold.Chemscore.DEInternal.Weighted>
3.2950

> <Gold.Chemscore.Rot.Weighted>
4.2902

> <Gold.Chemscore.Internal.Correction.Weighted>
   9.000000E+99

> <Gold.Protein.RotatedTorsions>
[ 6907 6896 6895 6894 ] final   59.61 input  -60.11 | X-H torsion
[ 7974 7965 7964 7962 ] final   16.01 input  175.53 | X-H torsion
[ 8008 7997 7996 7995 ] final  -69.17 input   59.86 | X-H torsion
[ 10167 10162 10161 10158 ] final  -24.75 input  -65.29 | X-H torsion
[ 10718 10713 10712 10709 ] final  104.42 input   66.30 | X-H torsion
[ 10763 10752 10751 10750 ] final  134.64 input  -60.55 | X-H torsion
[ 11005 11000 10999 10996 ] final  120.14 input  -57.11 | X-H torsion

> <Gold.Protein.ActiveResidues>
 VAL166  LYS551  ARG553  GLY616  TRP617  ASP618  TYR619  PRO620  LYS621  CYS622 
 ASP623  PHE694  ASN695  SER759  ASP760  ASP761  ALA762  ILE779  LEU786  VAL792 
 PHE793  MET794  SER795  GLU796  ALA797  LYS798  CYS799  TRP800  GLU811  SER814 

> <Gold.Protein.RotatedAtoms>
  152.3930  134.6411  160.0099 H   0  0  0  0  0  0  0  0  0  0  0  0  # atno 6907 bound_to 6896
  151.6639  133.3310  159.3188 H   0  0  0  0  0  0  0  0  0  0  0  0  # atno 6908 bound_to 6896
  150.7842  134.6857  159.6513 H   0  0  0  0  0  0  0  0  0  0  0  0  # atno 6909 bound_to 6896
  146.2262  139.8810  142.8571 H   0  0  0  0  0  0  0  0  0  0  0  0  # atno 7974 bound_to 7965
  154.4920  140.0858  156.7614 H   0  0  0  0  0  0  0  0  0  0  0  0  # atno 8008 bound_to 7997
  155.4208  140.3445  155.4253 H   0  0  0  0  0  0  0  0  0  0  0  0  # atno 8009 bound_to 7997
  156.1342  140.1510  156.9007 H   0  0  0  0  0  0  0  0  0  0  0  0  # atno 8010 bound_to 7997
  140.7288  143.4325  151.0779 H   0  0  0  0  0  0  0  0  0  0  0  0  # atno 10167 bound_to 10162
  157.6741  131.0803  150.5703 H   0  0  0  0  0  0  0  0  0  0  0  0  # atno 10718 bound_to 10713
  153.8268  135.3109  155.3415 H   0  0  0  0  0  0  0  0  0  0  0  0  # atno 10763 bound_to 10752
  154.7990  135.4738  154.0232 H   0  0  0  0  0  0  0  0  0  0  0  0  # atno 10764 bound_to 10752
  153.1659  135.6869  153.8767 H   0  0  0  0  0  0  0  0  0  0  0  0  # atno 10765 bound_to 10752
  139.9173  134.9633  156.7762 H   0  0  0  0  0  0  0  0  0  0  0  0  # atno 11005 bound_to 11000
  145.2512  141.0044  143.3880 LP  0  0  0  0  0  0  0  0  0  0  0  0  # atno 17320 bound_to 7965
  144.9373  139.4229  143.6466 LP  0  0  0  0  0  0  0  0  0  0  0  0  # atno 17321 bound_to 7965
  139.7984  143.8119  152.3160 LP  0  0  0  0  0  0  0  0  0  0  0  0  # atno 17342 bound_to 10162
  139.8127  144.7329  150.9676 LP  0  0  0  0  0  0  0  0  0  0  0  0  # atno 17343 bound_to 10162
  156.6004  130.4353  149.5899 LP  0  0  0  0  0  0  0  0  0  0  0  0  # atno 17370 bound_to 10713
  156.2511  130.6907  151.1645 LP  0  0  0  0  0  0  0  0  0  0  0  0  # atno 17371 bound_to 10713
  140.6581  133.9670  155.7790 LP  0  0  0  0  0  0  0  0  0  0  0  0  # atno 17394 bound_to 11000
  141.0662  134.0273  157.3590 LP  0  0  0  0  0  0  0  0  0  0  0  0  # atno 17395 bound_to 11000

$$$$
