AV-unprocessed.smi:1243|AV-procd|sdf|5220|dock1
  -GOLD-   22720 4313D 1   1.00000     0.00000
 Structure written by MMmdl.
 50 51  0  0  0  0  0  0  0  0  1 V2000
  143.9480  146.8497  156.7583 C   0  0  0  0  0  0  0  0  0  0  0  0
  144.8160  146.1018  157.6028 O   0  0  0  0  0  0  0  0  0  0  0  0
  144.3008  145.5571  158.7639 C   0  0  0  0  0  0  0  0  0  0  0  0
  142.9849  145.7449  159.0361 N   0  0  0  0  0  0  0  0  0  0  0  0
  142.4819  145.2170  160.1708 C   0  0  0  0  0  0  0  0  0  0  0  0
  143.2567  144.4872  161.0906 C   0  0  0  0  0  0  0  0  0  0  0  0
  144.6217  144.2911  160.8107 C   0  0  0  0  0  0  0  0  0  0  0  0
  145.1616  144.8251  159.6151 C   0  0  0  0  0  0  0  0  0  0  0  0
  146.5264  144.6980  159.2342 N   0  0  0  0  0  0  0  0  0  0  0  0
  147.4276  143.7770  159.6152 C   0  0  0  0  0  0  0  0  0  0  0  0
  147.2231  142.8678  160.4190 O   0  0  0  0  0  0  0  0  0  0  0  0
  148.5972  143.9678  158.9901 N   0  0  0  0  0  0  0  0  0  0  0  0
  149.8083  143.1681  159.1705 C   0  0  0  0  0  0  0  0  0  0  0  0
  151.0808  144.0506  159.3235 C   0  0  0  0  0  0  0  0  0  0  0  0
  151.4004  144.6014  157.9103 C   0  0  0  0  0  0  0  0  0  0  0  0
  150.6954  145.2588  160.2105 C   0  0  0  0  0  0  0  0  0  0  0  0
  152.2295  143.2715  159.8655 N   0  0  0  0  0  0  0  0  0  0  0  0
  152.1374  142.9499  161.2988 C   0  0  0  0  0  0  0  0  0  0  0  0
  153.4201  142.2734  161.8161 C   0  0  0  0  0  0  0  0  0  0  0  0
  153.7083  141.0429  161.0857 N   0  0  0  0  0  0  0  0  0  0  0  0
  154.9133  140.3966  161.5819 C   0  0  0  0  0  0  0  0  0  0  0  0
  153.8138  141.3562  159.6641 C   0  0  0  0  0  0  0  0  0  0  0  0
  152.5315  142.0269  159.1387 C   0  0  0  0  0  0  0  0  0  0  0  0
  144.5066  147.2050  155.8926 H   0  0  0  0  0  0  0  0  0  0  0  0
  143.5450  147.7230  157.2731 H   0  0  0  0  0  0  0  0  0  0  0  0
  143.1238  146.2372  156.3901 H   0  0  0  0  0  0  0  0  0  0  0  0
  141.4311  145.3858  160.3543 H   0  0  0  0  0  0  0  0  0  0  0  0
  142.8149  144.0894  161.9923 H   0  0  0  0  0  0  0  0  0  0  0  0
  145.2232  143.7484  161.5226 H   0  0  0  0  0  0  0  0  0  0  0  0
  146.8320  145.3434  158.5205 H   0  0  0  0  0  0  0  0  0  0  0  0
  148.6680  144.7448  158.3497 H   0  0  0  0  0  0  0  0  0  0  0  0
  149.7116  142.5062  160.0329 H   0  0  0  0  0  0  0  0  0  0  0  0
  149.8956  142.4930  158.3196 H   0  0  0  0  0  0  0  0  0  0  0  0
  150.5127  145.0177  157.4321 H   0  0  0  0  0  0  0  0  0  0  0  0
  151.7871  143.8221  157.2525 H   0  0  0  0  0  0  0  0  0  0  0  0
  152.1356  145.4056  157.9357 H   0  0  0  0  0  0  0  0  0  0  0  0
  149.8547  145.8058  159.7818 H   0  0  0  0  0  0  0  0  0  0  0  0
  151.5127  145.9721  160.3134 H   0  0  0  0  0  0  0  0  0  0  0  0
  150.3927  144.9540  161.2120 H   0  0  0  0  0  0  0  0  0  0  0  0
  151.9809  143.8505  161.8893 H   0  0  0  0  0  0  0  0  0  0  0  0
  151.2870  142.2949  161.4890 H   0  0  0  0  0  0  0  0  0  0  0  0
  154.2594  142.9657  161.7299 H   0  0  0  0  0  0  0  0  0  0  0  0
  153.3065  142.0523  162.8779 H   0  0  0  0  0  0  0  0  0  0  0  0
  155.1057  139.4703  161.0396 H   0  0  0  0  0  0  0  0  0  0  0  0
  154.8096  140.1471  162.6382 H   0  0  0  0  0  0  0  0  0  0  0  0
  155.7840  141.0440  161.4687 H   0  0  0  0  0  0  0  0  0  0  0  0
  154.6682  142.0116  159.4869 H   0  0  0  0  0  0  0  0  0  0  0  0
  153.9996  140.4419  159.0994 H   0  0  0  0  0  0  0  0  0  0  0  0
  151.7014  141.3252  159.2222 H   0  0  0  0  0  0  0  0  0  0  0  0
  152.6755  142.2214  158.0777 H   0  0  0  0  0  0  0  0  0  0  0  0
  1  2  1  0  0  0  0
  1 24  1  0  0  0  0
  1 25  1  0  0  0  0
  1 26  1  0  0  0  0
  2  3  1  0  0  0  0
  3  8  1  0  0  0  0
  3  4  2  0  0  0  0
  4  5  1  0  0  0  0
  5  6  2  0  0  0  0
  5 27  1  0  0  0  0
  6  7  1  0  0  0  0
  6 28  1  0  0  0  0
  7  8  2  0  0  0  0
  7 29  1  0  0  0  0
  8  9  1  0  0  0  0
  9 10  1  0  0  0  0
  9 30  1  0  0  0  0
 10 11  2  0  0  0  0
 10 12  1  0  0  0  0
 12 13  1  0  0  0  0
 12 31  1  0  0  0  0
 13 14  1  0  0  0  0
 13 32  1  0  0  0  0
 13 33  1  0  0  0  0
 14 15  1  0  0  0  0
 14 16  1  0  0  0  0
 14 17  1  0  0  0  0
 15 34  1  0  0  0  0
 15 35  1  0  0  0  0
 15 36  1  0  0  0  0
 16 37  1  0  0  0  0
 16 38  1  0  0  0  0
 16 39  1  0  0  0  0
 17 23  1  0  0  0  0
 17 18  1  0  0  0  0
 18 19  1  0  0  0  0
 18 40  1  0  0  0  0
 18 41  1  0  0  0  0
 19 20  1  0  0  0  0
 19 42  1  0  0  0  0
 19 43  1  0  0  0  0
 20 21  1  0  0  0  0
 20 22  1  0  0  0  0
 21 44  1  0  0  0  0
 21 45  1  0  0  0  0
 21 46  1  0  0  0  0
 22 23  1  0  0  0  0
 22 47  1  0  0  0  0
 22 48  1  0  0  0  0
 23 49  1  0  0  0  0
 23 50  1  0  0  0  0
M  END
> <s_m_source_file>
AV-unprocessed.smi

> <i_m_source_file_index>
1243

> <i_lp_mmshare_version>
43012

> <i_f3d_flags>
0

> <s_epik_input>
W0NIM11PYzFuW2NIXVtjSF1bY0hdYzFbTkhdQyg9TylbTkhdW0NIMl1DKFtDSDNdKShbQ0gzXSlOMltDSDJdW0NIMl1OKFtDSDNdKVtDSDJdW0NIMl0y

> <s_epik_cmdline>
J2VwaWtfcHl0aG9uJywgJy1waCcsICc3LjAnLCAnLXRuJywgJzgnLCAnLW1hJywgJzIwMCcsICctbWV0YWxfYmluZGluZycsICctaW1hZScsICc8aW5maWxlLm1hZT4nLCAnLW9tYWUnLCAnPG91dGZpbGUubWFlPic=

> <r_lp_tautomer_probability>
1

> <r_epik_Ionization_Penalty>
3.08543

> <r_epik_Ionization_Penalty_Charging>
0

> <r_epik_Ionization_Penalty_Neutral>
3.08543

> <r_epik_State_Penalty>
2.1584

> <r_epik_Charging_Adjusted_Penalty>
2.1584

> <i_epik_Tot_Q>
0

> <i_epik_Tot_abs_Q>
0

> <r_epik_Metal_State_Penalty>
2.1584

> <b_epik_Metal_Only>
0

> <s_lp_Force_Field>
OPLS_2005

> <r_lp_Energy>
53.3534

> <b_lp_Chiralities_Consistent>
1

> <s_lp_Variant>
AV-unprocessed.smi:1243-3

> <Gold.Version>
5.8.1

> <Gold.Id.Protein>
6NUR|6NUR_protein|mol2

> <Gold.PLP.Fitness>
46.2259

> <Gold.PLP.PLP>
-36.4810

> <Gold.PLP.part.hbond>
-4.0278

> <Gold.PLP.part.metal>
0.0000

> <Gold.PLP.part.buried>
-3.6008

> <Gold.PLP.part.nonpolar>
-31.1203

> <Gold.PLP.part.repulsive>
1.1941

> <Gold.PLP.ligand.clash>
0.0261

> <Gold.PLP.ligand.torsion>
0.5623

> <Gold.PLP.Chemscore.Hbond>
3.6098

> <Gold.PLP.Chemscore.CHOScore>
0.0000

> <Gold.PLP.Chemscore.Metal>
0.0000

> <Gold.Chemscore.Hbonds>
donor molecule, donor type, donor heavy atom, donor atom, acceptor molecule, acceptor atom, score
      L1  H     9    30       P1  8029  1.00
      L1  H    12    31       P1  8029  1.00
      P1  H  6933  6944       L1    11  0.94
      P1  H  6934  6946       L1    11  0.70

> <Gold.PLP.Chemscore.Internal.Correction>
0.0662

> <Gold.Rescore>
     Score         DG    S(hbond)    S(metal)    S(lipo)     H(rot)  DE(clash)    DE(int)     intcor
     24.39     -26.19       3.39        0.00     116.83       1.67       0.16       1.64       ----

> <Gold.Chemscore.Fitness>
24.3892

> <Gold.Chemscore.DG>
-26.1883

> <Gold.Chemscore.ZeroCoef>
-5.4800

> <Gold.Chemscore.Hbond>
3.3904

> <Gold.Chemscore.Metal>
0.0000

> <Gold.Chemscore.Lipo>
116.8318

> <Gold.Chemscore.Internal_Hbond>
0.0000

> <Gold.Chemscore.DEClash>
0.1585

> <Gold.Chemscore.DEInternal>
1.6407

> <Gold.Chemscore.Rot>
1.6737

> <Gold.Chemscore.Internal.Correction>
   9.000000E+99

> <Gold.Chemscore.Hbonds>
donor molecule, donor type, donor heavy atom, donor atom, acceptor molecule, acceptor atom, score
      L1  H     9    30       P1  8029  0.99
      L1  H    12    31       P1  8029  0.71
      P1  H  6933  6944       L1    11  0.89
      P1  H  6934  6946       L1    11  0.66

> <Gold.Chemscore.Hbond.Weighted>
-11.3238

> <Gold.Chemscore.Metal.Weighted>
-0.0000

> <Gold.Chemscore.Lipo.Weighted>
-13.6693

> <Gold.Chemscore.Internal_Hbond.Weighted>
0.0000

> <Gold.Chemscore.DEClash.Weighted>
0.1585

> <Gold.Chemscore.DEInternal.Weighted>
1.6407

> <Gold.Chemscore.Rot.Weighted>
4.2848

> <Gold.Chemscore.Internal.Correction.Weighted>
   9.000000E+99

> <Gold.Protein.RotatedTorsions>
[ 6907 6896 6895 6894 ] final  -33.93 input  -60.11 | X-H torsion
[ 7974 7965 7964 7962 ] final -125.33 input  175.53 | X-H torsion
[ 8008 7997 7996 7995 ] final    9.75 input   59.86 | X-H torsion
[ 10167 10162 10161 10158 ] final -154.86 input  -65.29 | X-H torsion
[ 10718 10713 10712 10709 ] final  110.95 input   66.30 | X-H torsion
[ 10763 10752 10751 10750 ] final   62.34 input  -60.55 | X-H torsion
[ 11005 11000 10999 10996 ] final   62.38 input  -57.11 | X-H torsion

> <Gold.Protein.ActiveResidues>
 VAL166  LYS551  ARG553  GLY616  TRP617  ASP618  TYR619  PRO620  LYS621  CYS622 
 ASP623  PHE694  ASN695  SER759  ASP760  ASP761  ALA762  ILE779  LEU786  VAL792 
 PHE793  MET794  SER795  GLU796  ALA797  LYS798  CYS799  TRP800  GLU811  SER814 

> <Gold.Protein.RotatedAtoms>
  151.0592  134.9725  159.8251 H   0  0  0  0  0  0  0  0  0  0  0  0  # atno 6907 bound_to 6896
  152.5393  134.2439  159.8883 H   0  0  0  0  0  0  0  0  0  0  0  0  # atno 6908 bound_to 6896
  151.2458  133.4332  159.2643 H   0  0  0  0  0  0  0  0  0  0  0  0  # atno 6909 bound_to 6896
  144.9987  140.7800  143.4509 H   0  0  0  0  0  0  0  0  0  0  0  0  # atno 7974 bound_to 7965
  154.7842  140.2824  155.6041 H   0  0  0  0  0  0  0  0  0  0  0  0  # atno 8008 bound_to 7997
  156.2954  140.2617  156.2602 H   0  0  0  0  0  0  0  0  0  0  0  0  # atno 8009 bound_to 7997
  154.9748  140.0375  157.2240 H   0  0  0  0  0  0  0  0  0  0  0  0  # atno 8010 bound_to 7997
  139.6979  143.9312  152.2415 H   0  0  0  0  0  0  0  0  0  0  0  0  # atno 10167 bound_to 10162
  157.6469  131.0942  150.6677 H   0  0  0  0  0  0  0  0  0  0  0  0  # atno 10718 bound_to 10713
  152.9980  135.5468  154.6178 H   0  0  0  0  0  0  0  0  0  0  0  0  # atno 10763 bound_to 10752
  154.5484  135.2825  155.1033 H   0  0  0  0  0  0  0  0  0  0  0  0  # atno 10764 bound_to 10752
  154.2282  135.6438  153.5219 H   0  0  0  0  0  0  0  0  0  0  0  0  # atno 10765 bound_to 10752
  140.0096  134.6316  155.9801 H   0  0  0  0  0  0  0  0  0  0  0  0  # atno 11005 bound_to 11000
  145.2183  139.2171  143.5106 LP  0  0  0  0  0  0  0  0  0  0  0  0  # atno 17320 bound_to 7965
  146.3447  140.2036  142.8589 LP  0  0  0  0  0  0  0  0  0  0  0  0  # atno 17321 bound_to 7965
  139.9146  144.6836  150.8526 LP  0  0  0  0  0  0  0  0  0  0  0  0  # atno 17342 bound_to 10162
  140.7701  143.3418  151.2192 LP  0  0  0  0  0  0  0  0  0  0  0  0  # atno 17343 bound_to 10162
  156.6994  130.4618  149.5577 LP  0  0  0  0  0  0  0  0  0  0  0  0  # atno 17370 bound_to 10713
  156.1806  130.6496  151.0947 LP  0  0  0  0  0  0  0  0  0  0  0  0  # atno 17371 bound_to 10713
  141.1701  133.6537  156.4622 LP  0  0  0  0  0  0  0  0  0  0  0  0  # atno 17394 bound_to 11000
  140.4578  134.6869  157.5071 LP  0  0  0  0  0  0  0  0  0  0  0  0  # atno 17395 bound_to 11000

$$$$
