AV-unprocessed.smi:910|AV-procd|sdf|4132|dock8
  -GOLD-   22720 2 33D 1   1.00000     0.00000
 Structure written by MMmdl.
 45 46  0  0  0  0  0  0  0  0  2 V2000
  147.2313  136.7628  163.5862 C   0  0  0  0  0  0  0  0  0  0  0  0
  147.4845  136.2817  162.1924 C   0  0  0  0  0  0  0  0  0  0  0  0
  147.9669  137.1162  161.1956 N   0  0  0  0  0  0  0  0  0  0  0  0
  148.0649  136.3583  160.1018 C   0  0  0  0  0  0  0  0  0  0  0  0
  148.5000  136.7570  158.8958 N   0  5  0  0  0  0  0  0  0  0  0  0
  149.6879  137.3927  158.7837 C   0  0  0  0  0  0  0  0  0  0  0  0
  150.7125  137.1466  159.4245 O   0  0  0  0  0  0  0  0  0  0  0  0
  149.6892  138.3755  157.8718 N   0  0  0  0  0  0  0  0  0  0  0  0
  150.8218  139.2328  157.5378 C   0  0  0  0  0  0  0  0  0  0  0  0
  151.4495  139.8556  158.7923 C   0  0  0  0  0  0  0  0  0  0  0  0
  152.0564  141.0912  158.4416 O   0  0  0  0  0  0  0  0  0  0  0  0
  151.4945  142.2268  159.0869 C   0  0  2  0  0  0  0  0  0  0  0  0
  151.1178  143.2870  158.0297 C   0  0  0  0  0  0  0  0  0  0  0  0
  150.6263  144.5866  158.6845 C   0  0  0  0  0  0  0  0  0  0  0  0
  151.6700  145.1404  159.6643 C   0  0  0  0  0  0  0  0  0  0  0  0
  152.0476  144.0905  160.7201 C   0  0  0  0  0  0  0  0  0  0  0  0
  152.5457  142.7815  160.0749 C   0  0  1  0  0  0  0  0  0  0  0  0
  152.9132  141.7517  161.1557 C   0  0  0  0  0  0  0  0  0  0  0  0
  147.6810  135.0707  160.3346 O   0  0  0  0  0  0  0  0  0  0  0  0
  147.3155  135.0352  161.6525 C   0  0  0  0  0  0  0  0  0  0  0  0
  146.8388  133.7382  162.2116 C   0  0  0  0  0  0  0  0  0  0  0  0
  147.9531  136.3383  164.2839 H   0  0  0  0  0  0  0  0  0  0  0  0
  146.2351  136.4776  163.9245 H   0  0  0  0  0  0  0  0  0  0  0  0
  147.3041  137.8487  163.6543 H   0  0  0  0  0  0  0  0  0  0  0  0
  148.8276  138.5462  157.3743 H   0  0  0  0  0  0  0  0  0  0  0  0
  151.5700  138.6613  156.9865 H   0  0  0  0  0  0  0  0  0  0  0  0
  150.4764  140.0179  156.8651 H   0  0  0  0  0  0  0  0  0  0  0  0
  150.6951  139.9881  159.5681 H   0  0  0  0  0  0  0  0  0  0  0  0
  152.2079  139.1810  159.1916 H   0  0  0  0  0  0  0  0  0  0  0  0
  150.6059  141.9387  159.6524 H   0  0  0  0  0  0  0  0  0  0  0  0
  151.9848  143.5009  157.4033 H   0  0  0  0  0  0  0  0  0  0  0  0
  150.3440  142.9089  157.3621 H   0  0  0  0  0  0  0  0  0  0  0  0
  150.4056  145.3290  157.9172 H   0  0  0  0  0  0  0  0  0  0  0  0
  149.6907  144.3986  159.2128 H   0  0  0  0  0  0  0  0  0  0  0  0
  152.5617  145.4471  159.1161 H   0  0  0  0  0  0  0  0  0  0  0  0
  151.2835  146.0356  160.1524 H   0  0  0  0  0  0  0  0  0  0  0  0
  152.8157  144.4977  161.3785 H   0  0  0  0  0  0  0  0  0  0  0  0
  151.1813  143.8828  161.3500 H   0  0  0  0  0  0  0  0  0  0  0  0
  153.4523  143.0094  159.5122 H   0  0  0  0  0  0  0  0  0  0  0  0
  152.0415  141.4689  161.7466 H   0  0  0  0  0  0  0  0  0  0  0  0
  153.6637  142.1512  161.8381 H   0  0  0  0  0  0  0  0  0  0  0  0
  153.3247  140.8432  160.7157 H   0  0  0  0  0  0  0  0  0  0  0  0
  145.8165  133.8293  162.5783 H   0  0  0  0  0  0  0  0  0  0  0  0
  147.4702  133.4221  163.0420 H   0  0  0  0  0  0  0  0  0  0  0  0
  146.8583  132.9540  161.4544 H   0  0  0  0  0  0  0  0  0  0  0  0
  1 22  1  0  0  0  0
  1 23  1  0  0  0  0
  1 24  1  0  0  0  0
  1  2  1  0  0  0  0
  2  3  1  0  0  0  0
  2 20  2  0  0  0  0
  3  4  2  0  0  0  0
  4 19  1  0  0  0  0
  4  5  1  0  0  0  0
  5  6  1  0  0  0  0
  6  8  1  0  0  0  0
  6  7  2  0  0  0  0
  8  9  1  0  0  0  0
  8 25  1  0  0  0  0
  9 10  1  0  0  0  0
  9 26  1  0  0  0  0
  9 27  1  0  0  0  0
 10 11  1  0  0  0  0
 10 28  1  0  0  0  0
 10 29  1  0  0  0  0
 11 12  1  0  0  0  0
 12 17  1  0  0  0  0
 12 13  1  0  0  0  0
 12 30  1  0  0  0  0
 13 14  1  0  0  0  0
 13 31  1  0  0  0  0
 13 32  1  0  0  0  0
 14 15  1  0  0  0  0
 14 33  1  0  0  0  0
 14 34  1  0  0  0  0
 15 16  1  0  0  0  0
 15 35  1  0  0  0  0
 15 36  1  0  0  0  0
 16 17  1  0  0  0  0
 16 37  1  0  0  0  0
 16 38  1  0  0  0  0
 17 18  1  0  0  0  0
 17 39  1  0  0  0  0
 18 40  1  0  0  0  0
 18 41  1  0  0  0  0
 18 42  1  0  0  0  0
 19 20  1  0  0  0  0
 20 21  1  0  0  0  0
 21 43  1  0  0  0  0
 21 44  1  0  0  0  0
 21 45  1  0  0  0  0
M  CHG  1   5  -1
M  END
> <s_m_source_file>
AV-unprocessed.smi

> <i_m_source_file_index>
910

> <i_lp_mmshare_version>
43012

> <i_f3d_flags>
0

> <s_epik_input>
W0NIM11jMW5jKG9jMVtDSDNdKVtOSF1DKD1PKVtOSF1bQ0gyXVtDSDJdT1tDQEBIXTJbQ0gyXVtDSDJdW0NIMl1bQ0gyXVtDQEhdMltDSDNd

> <s_epik_cmdline>
J2VwaWtfcHl0aG9uJywgJy1waCcsICc3LjAnLCAnLXRuJywgJzgnLCAnLW1hJywgJzIwMCcsICctbWV0YWxfYmluZGluZycsICctaW1hZScsICc8aW5maWxlLm1hZT4nLCAnLW9tYWUnLCAnPG91dGZpbGUubWFlPic=

> <r_lp_tautomer_probability>
0.107061

> <r_epik_Ionization_Penalty>
10.1763

> <r_epik_Ionization_Penalty_Charging>
7.13067

> <r_epik_Ionization_Penalty_Neutral>
3.04564

> <r_epik_State_Penalty>
5.57927

> <r_epik_Charging_Adjusted_Penalty>
12.7099

> <i_epik_Tot_Q>
-1

> <i_epik_Tot_abs_Q>
1

> <r_epik_Metal_State_Penalty>
1.52303

> <b_epik_Metal_Only>
1

> <s_lp_Force_Field>
OPLS_2005

> <r_lp_Energy>
4.71476

> <b_lp_Chiralities_Consistent>
1

> <s_lp_Variant>
AV-unprocessed.smi:910-17

> <Gold.Version>
5.8.1

> <Gold.Id.Protein>
6NUR|6NUR_protein|mol2

> <Gold.PLP.Fitness>
51.1011

> <Gold.PLP.PLP>
-47.7714

> <Gold.PLP.part.hbond>
-2.9098

> <Gold.PLP.part.metal>
0.0000

> <Gold.PLP.part.buried>
-6.1713

> <Gold.PLP.part.nonpolar>
-39.5882

> <Gold.PLP.part.repulsive>
0.0643

> <Gold.PLP.ligand.clash>
0.0000

> <Gold.PLP.ligand.torsion>
2.0470

> <Gold.PLP.Chemscore.Hbond>
2.4577

> <Gold.PLP.Chemscore.CHOScore>
0.0000

> <Gold.PLP.Chemscore.Metal>
0.0000

> <Gold.Chemscore.Hbonds>
donor molecule, donor type, donor heavy atom, donor atom, acceptor molecule, acceptor atom, score
      P1  H  6896  6909       L1     7  0.70
      P1  H  6931  6943       L1     3  1.00
      P1  H  6934  6947       L1     3  0.66

> <Gold.PLP.Chemscore.Internal.Correction>
0.0506

> <Gold.Rescore>
     Score         DG    S(hbond)    S(metal)    S(lipo)     H(rot)  DE(clash)    DE(int)     intcor
     18.96     -22.03       1.80        0.00     125.49       1.62       0.06       3.01       ----

> <Gold.Chemscore.Fitness>
18.9576

> <Gold.Chemscore.DG>
-22.0281

> <Gold.Chemscore.ZeroCoef>
-5.4800

> <Gold.Chemscore.Hbond>
1.7978

> <Gold.Chemscore.Metal>
0.0000

> <Gold.Chemscore.Lipo>
125.4922

> <Gold.Chemscore.Internal_Hbond>
0.0000

> <Gold.Chemscore.DEClash>
0.0621

> <Gold.Chemscore.DEInternal>
3.0083

> <Gold.Chemscore.Rot>
1.6169

> <Gold.Chemscore.Internal.Correction>
   9.000000E+99

> <Gold.Chemscore.Hbonds>
donor molecule, donor type, donor heavy atom, donor atom, acceptor molecule, acceptor atom, score
      P1  H  6896  6909       L1     7  0.70
      P1  H  6931  6943       L1     3  0.67
      P1  H  6934  6947       L1     3  0.60

> <Gold.Chemscore.Hbond.Weighted>
-6.0047

> <Gold.Chemscore.Metal.Weighted>
-0.0000

> <Gold.Chemscore.Lipo.Weighted>
-14.6826

> <Gold.Chemscore.Internal_Hbond.Weighted>
0.0000

> <Gold.Chemscore.DEClash.Weighted>
0.0621

> <Gold.Chemscore.DEInternal.Weighted>
3.0083

> <Gold.Chemscore.Rot.Weighted>
4.1393

> <Gold.Chemscore.Internal.Correction.Weighted>
   9.000000E+99

> <Gold.Protein.RotatedTorsions>
[ 6907 6896 6895 6894 ] final  106.96 input  -60.11 | X-H torsion
[ 7974 7965 7964 7962 ] final  153.27 input  175.53 | X-H torsion
[ 8008 7997 7996 7995 ] final -170.94 input   59.86 | X-H torsion
[ 10167 10162 10161 10158 ] final  -27.62 input  -65.29 | X-H torsion
[ 10718 10713 10712 10709 ] final   73.37 input   66.30 | X-H torsion
[ 10763 10752 10751 10750 ] final   44.90 input  -60.55 | X-H torsion
[ 11005 11000 10999 10996 ] final  -63.65 input  -57.11 | X-H torsion

> <Gold.Protein.ActiveResidues>
 VAL166  LYS551  ARG553  GLY616  TRP617  ASP618  TYR619  PRO620  LYS621  CYS622 
 ASP623  PHE694  ASN695  SER759  ASP760  ASP761  ALA762  ILE779  LEU786  VAL792 
 PHE793  MET794  SER795  GLU796  ALA797  LYS798  CYS799  TRP800  GLU811  SER814 

> <Gold.Protein.RotatedAtoms>
  152.5173  133.9304  159.7577 H   0  0  0  0  0  0  0  0  0  0  0  0  # atno 6907 bound_to 6896
  150.9656  133.6390  159.2754 H   0  0  0  0  0  0  0  0  0  0  0  0  # atno 6908 bound_to 6896
  151.3620  135.0911  159.9490 H   0  0  0  0  0  0  0  0  0  0  0  0  # atno 6909 bound_to 6896
  144.8166  139.6779  143.6119 H   0  0  0  0  0  0  0  0  0  0  0  0  # atno 7974 bound_to 7965
  155.9250  140.1081  157.1177 H   0  0  0  0  0  0  0  0  0  0  0  0  # atno 8008 bound_to 7997
  154.4060  140.1248  156.4794 H   0  0  0  0  0  0  0  0  0  0  0  0  # atno 8009 bound_to 7997
  155.7150  140.3470  155.4993 H   0  0  0  0  0  0  0  0  0  0  0  0  # atno 8010 bound_to 7997
  140.7276  143.4078  151.1156 H   0  0  0  0  0  0  0  0  0  0  0  0  # atno 10167 bound_to 10162
  157.6545  130.9625  150.1060 H   0  0  0  0  0  0  0  0  0  0  0  0  # atno 10718 bound_to 10713
  152.9833  135.6056  154.3349 H   0  0  0  0  0  0  0  0  0  0  0  0  # atno 10763 bound_to 10752
  154.3049  135.2772  155.2595 H   0  0  0  0  0  0  0  0  0  0  0  0  # atno 10764 bound_to 10752
  154.4830  135.5912  153.6460 H   0  0  0  0  0  0  0  0  0  0  0  0  # atno 10765 bound_to 10752
  141.1400  133.6655  156.5712 H   0  0  0  0  0  0  0  0  0  0  0  0  # atno 11005 bound_to 11000
  146.2469  139.6117  142.9453 LP  0  0  0  0  0  0  0  0  0  0  0  0  # atno 17320 bound_to 7965
  145.5201  141.0432  143.2440 LP  0  0  0  0  0  0  0  0  0  0  0  0  # atno 17321 bound_to 7965
  139.7707  143.8498  152.3120 LP  0  0  0  0  0  0  0  0  0  0  0  0  # atno 17342 bound_to 10162
  139.8416  144.7207  150.9324 LP  0  0  0  0  0  0  0  0  0  0  0  0  # atno 17343 bound_to 10162
  156.1970  130.3658  149.8837 LP  0  0  0  0  0  0  0  0  0  0  0  0  # atno 17370 bound_to 10713
  156.6750  130.8835  151.3568 LP  0  0  0  0  0  0  0  0  0  0  0  0  # atno 17371 bound_to 10713
  140.3911  134.7439  157.4722 LP  0  0  0  0  0  0  0  0  0  0  0  0  # atno 17394 bound_to 11000
  140.0565  134.6056  155.8798 LP  0  0  0  0  0  0  0  0  0  0  0  0  # atno 17395 bound_to 11000

$$$$
