AV-unprocessed.smi:485|AV-procd|sdf|2692|dock3
  -GOLD-   2262023123D 1   1.00000     0.00000
 Structure written by MMmdl.
 36 38  0  0  0  0  0  0  0  0  1 V2000
  154.1691  138.5341  157.8995 O   0  0  0  0  0  0  0  0  0  0  0  0
  152.8897  138.7590  158.4517 C   0  0  0  0  0  0  0  0  0  0  0  0
  152.5702  140.2157  158.5989 C   0  0  0  0  0  0  0  0  0  0  0  0
  153.2867  141.0181  159.3867 N   0  0  0  0  0  0  0  0  0  0  0  0
  152.6695  142.2419  159.2161 C   0  0  0  0  0  0  0  0  0  0  0  0
  152.9611  143.5039  159.7816 C   0  0  0  0  0  0  0  0  0  0  0  0
  152.1792  144.6310  159.4541 C   0  0  0  0  0  0  0  0  0  0  0  0
  151.0968  144.5128  158.5581 C   0  0  0  0  0  0  0  0  0  0  0  0
  150.7895  143.2648  157.9829 C   0  0  0  0  0  0  0  0  0  0  0  0
  151.5733  142.1426  158.3131 C   0  0  0  0  0  0  0  0  0  0  0  0
  151.5424  140.8033  157.9359 N   0  0  0  0  0  0  0  0  0  0  0  0
  150.5973  140.1871  157.0143 C   0  0  0  0  0  0  0  0  0  0  0  0
  150.7148  140.7343  155.5775 C   0  0  1  0  0  0  0  0  0  0  0  0
  151.8751  140.2185  154.9531 O   0  0  0  0  0  0  0  0  0  0  0  0
  149.4505  140.4523  154.7807 C   0  0  0  0  0  0  0  0  0  0  0  0
  148.5961  141.5040  154.3802 C   0  0  0  0  0  0  0  0  0  0  0  0
  147.4348  141.2291  153.6317 C   0  0  0  0  0  0  0  0  0  0  0  0
  147.1236  139.9030  153.2750 C   0  0  0  0  0  0  0  0  0  0  0  0
  147.9741  138.8514  153.6669 C   0  0  0  0  0  0  0  0  0  0  0  0
  149.1346  139.1257  154.4165 C   0  0  0  0  0  0  0  0  0  0  0  0
  154.2709  137.6075  157.7455 H   0  0  0  0  0  0  0  0  0  0  0  0
  152.1377  138.2725  157.8316 H   0  0  0  0  0  0  0  0  0  0  0  0
  152.8439  138.2799  159.4303 H   0  0  0  0  0  0  0  0  0  0  0  0
  153.7882  143.6047  160.4686 H   0  0  0  0  0  0  0  0  0  0  0  0
  152.4108  145.5905  159.8928 H   0  0  0  0  0  0  0  0  0  0  0  0
  150.5023  145.3808  158.3127 H   0  0  0  0  0  0  0  0  0  0  0  0
  149.9595  143.1695  157.2986 H   0  0  0  0  0  0  0  0  0  0  0  0
  150.7576  139.1082  157.0218 H   0  0  0  0  0  0  0  0  0  0  0  0
  149.5875  140.3414  157.3951 H   0  0  0  0  0  0  0  0  0  0  0  0
  150.8493  141.8154  155.6184 H   0  0  0  0  0  0  0  0  0  0  0  0
  152.6103  140.3509  155.5319 H   0  0  0  0  0  0  0  0  0  0  0  0
  148.8296  142.5257  154.6418 H   0  0  0  0  0  0  0  0  0  0  0  0
  146.7838  142.0360  153.3293 H   0  0  0  0  0  0  0  0  0  0  0  0
  146.2344  139.6926  152.6991 H   0  0  0  0  0  0  0  0  0  0  0  0
  147.7373  137.8344  153.3909 H   0  0  0  0  0  0  0  0  0  0  0  0
  149.7839  138.3130  154.7081 H   0  0  0  0  0  0  0  0  0  0  0  0
  1  2  1  0  0  0  0
  1 21  1  0  0  0  0
  2  3  1  0  0  0  0
  2 22  1  0  0  0  0
  2 23  1  0  0  0  0
  3 11  1  0  0  0  0
  3  4  2  0  0  0  0
  4  5  1  0  0  0  0
  5 10  2  0  0  0  0
  5  6  1  0  0  0  0
  6  7  2  0  0  0  0
  6 24  1  0  0  0  0
  7  8  1  0  0  0  0
  7 25  1  0  0  0  0
  8  9  2  0  0  0  0
  8 26  1  0  0  0  0
  9 10  1  0  0  0  0
  9 27  1  0  0  0  0
 10 11  1  0  0  0  0
 11 12  1  0  0  0  0
 12 13  1  0  0  0  0
 12 28  1  0  0  0  0
 12 29  1  0  0  0  0
 13 14  1  0  0  0  0
 13 15  1  0  0  0  0
 13 30  1  0  0  0  0
 14 31  1  0  0  0  0
 15 20  1  0  0  0  0
 15 16  2  0  0  0  0
 16 17  1  0  0  0  0
 16 32  1  0  0  0  0
 17 18  2  0  0  0  0
 17 33  1  0  0  0  0
 18 19  1  0  0  0  0
 18 34  1  0  0  0  0
 19 20  2  0  0  0  0
 19 35  1  0  0  0  0
 20 36  1  0  0  0  0
M  END
> <s_m_source_file>
AV-unprocessed.smi

> <i_m_source_file_index>
485

> <i_lp_mmshare_version>
43012

> <i_f3d_flags>
0

> <s_epik_input>
W2NIXTFbY0hdW2NIXVtjSF1jKGMxMiluKGMobjIpW0NIMl1bT0hdKVtDSDJdW0NASF0oW09IXSljM1tjSF1bY0hdW2NIXVtjSF1bY0hdMw==

> <s_epik_cmdline>
J2VwaWtfcHl0aG9uJywgJy1waCcsICc3LjAnLCAnLXRuJywgJzgnLCAnLW1hJywgJzIwMCcsICctbWV0YWxfYmluZGluZycsICctaW1hZScsICc8aW5maWxlLm1hZT4nLCAnLW9tYWUnLCAnPG91dGZpbGUubWFlPic=

> <r_epik_Ionization_Penalty>
0.0634722

> <r_epik_Ionization_Penalty_Charging>
0

> <r_epik_Ionization_Penalty_Neutral>
0.0634722

> <r_epik_State_Penalty>
0.0551572

> <r_epik_Charging_Adjusted_Penalty>
0.0551572

> <i_epik_Tot_Q>
0

> <i_epik_Tot_abs_Q>
0

> <r_epik_Metal_State_Penalty>
5.78034e-05

> <b_epik_Metal_Only>
0

> <s_lp_Force_Field>
OPLS_2005

> <r_lp_Energy>
11.9135

> <b_lp_Chiralities_Consistent>
1

> <s_lp_Variant>
AV-unprocessed.smi:485-2

> <Gold.Version>
5.8.1

> <Gold.Id.Protein>
6NUR|6NUR_protein|mol2

> <Gold.PLP.Fitness>
50.7588

> <Gold.PLP.PLP>
-45.5479

> <Gold.PLP.part.hbond>
-1.9649

> <Gold.PLP.part.metal>
0.0000

> <Gold.PLP.part.buried>
-4.4088

> <Gold.PLP.part.nonpolar>
-38.9237

> <Gold.PLP.part.repulsive>
0.0000

> <Gold.PLP.ligand.clash>
0.0000

> <Gold.PLP.ligand.torsion>
0.2627

> <Gold.PLP.Chemscore.Hbond>
1.8960

> <Gold.PLP.Chemscore.CHOScore>
0.0000

> <Gold.PLP.Chemscore.Metal>
0.0000

> <Gold.Chemscore.Hbonds>
donor molecule, donor type, donor heavy atom, donor atom, acceptor molecule, acceptor atom, score
      P1  H  7989  7998       L1    14  0.76
      P1  H  7997  8010       L1     1  1.00

> <Gold.PLP.Chemscore.Internal.Correction>
0.0483

> <Gold.Rescore>
     Score         DG    S(hbond)    S(metal)    S(lipo)     H(rot)  DE(clash)    DE(int)     intcor
     17.37     -17.82       1.51        0.00     119.80       2.62       0.33       0.12       ----

> <Gold.Chemscore.Fitness>
17.3729

> <Gold.Chemscore.DG>
-17.8229

> <Gold.Chemscore.ZeroCoef>
-5.4800

> <Gold.Chemscore.Hbond>
1.5094

> <Gold.Chemscore.Metal>
0.0000

> <Gold.Chemscore.Lipo>
119.8016

> <Gold.Chemscore.Internal_Hbond>
0.0000

> <Gold.Chemscore.DEClash>
0.3271

> <Gold.Chemscore.DEInternal>
0.1229

> <Gold.Chemscore.Rot>
2.6232

> <Gold.Chemscore.Internal.Correction>
   9.000000E+99

> <Gold.Chemscore.Hbonds>
donor molecule, donor type, donor heavy atom, donor atom, acceptor molecule, acceptor atom, score
      P1  H  7989  7998       L1    14  0.15
      P1  H  7997  8010       L1     1  0.75

> <Gold.Chemscore.Hbond.Weighted>
-5.0415

> <Gold.Chemscore.Metal.Weighted>
-0.0000

> <Gold.Chemscore.Lipo.Weighted>
-14.0168

> <Gold.Chemscore.Internal_Hbond.Weighted>
0.0000

> <Gold.Chemscore.DEClash.Weighted>
0.3271

> <Gold.Chemscore.DEInternal.Weighted>
0.1229

> <Gold.Chemscore.Rot.Weighted>
6.7154

> <Gold.Chemscore.Internal.Correction.Weighted>
   9.000000E+99

> <Gold.Protein.RotatedTorsions>
[ 6907 6896 6895 6894 ] final  101.05 input  -60.11 | X-H torsion
[ 7974 7965 7964 7962 ] final -137.85 input  175.53 | X-H torsion
[ 8008 7997 7996 7995 ] final   18.99 input   59.86 | X-H torsion
[ 10167 10162 10161 10158 ] final -106.96 input  -65.29 | X-H torsion
[ 10718 10713 10712 10709 ] final -128.07 input   66.30 | X-H torsion
[ 10763 10752 10751 10750 ] final  140.84 input  -60.55 | X-H torsion
[ 11005 11000 10999 10996 ] final  145.16 input  -57.11 | X-H torsion

> <Gold.Protein.ActiveResidues>
 VAL166  LYS551  ARG553  GLY616  TRP617  ASP618  TYR619  PRO620  LYS621  CYS622 
 ASP623  PHE694  ASN695  SER759  ASP760  ASP761  ALA762  ILE779  LEU786  VAL792 
 PHE793  MET794  SER795  GLU796  ALA797  LYS798  CYS799  TRP800  GLU811  SER814 

> <Gold.Protein.RotatedAtoms>
  152.5358  134.0185  159.7970 H   0  0  0  0  0  0  0  0  0  0  0  0  # atno 6907 bound_to 6896
  151.0375  133.5727  159.2661 H   0  0  0  0  0  0  0  0  0  0  0  0  # atno 6908 bound_to 6896
  151.2709  135.0691  159.9187 H   0  0  0  0  0  0  0  0  0  0  0  0  # atno 6909 bound_to 6896
  144.8807  140.6503  143.5207 H   0  0  0  0  0  0  0  0  0  0  0  0  # atno 7974 bound_to 7965
  154.9141  140.3018  155.5250 H   0  0  0  0  0  0  0  0  0  0  0  0  # atno 8008 bound_to 7997
  156.3013  140.2383  156.4120 H   0  0  0  0  0  0  0  0  0  0  0  0  # atno 8009 bound_to 7997
  154.8395  140.0414  157.1521 H   0  0  0  0  0  0  0  0  0  0  0  0  # atno 8010 bound_to 7997
  140.1821  143.3958  152.1273 H   0  0  0  0  0  0  0  0  0  0  0  0  # atno 10167 bound_to 10162
  156.1916  130.6799  151.0431 H   0  0  0  0  0  0  0  0  0  0  0  0  # atno 10718 bound_to 10713
  153.9294  135.2992  155.3446 H   0  0  0  0  0  0  0  0  0  0  0  0  # atno 10763 bound_to 10752
  154.7535  135.4969  153.9334 H   0  0  0  0  0  0  0  0  0  0  0  0  # atno 10764 bound_to 10752
  153.1100  135.6756  153.9622 H   0  0  0  0  0  0  0  0  0  0  0  0  # atno 10765 bound_to 10752
  140.0690  134.9162  157.1313 H   0  0  0  0  0  0  0  0  0  0  0  0  # atno 11005 bound_to 11000
  145.3959  139.1607  143.4204 LP  0  0  0  0  0  0  0  0  0  0  0  0  # atno 17320 bound_to 7965
  146.2993  140.4052  142.8710 LP  0  0  0  0  0  0  0  0  0  0  0  0  # atno 17321 bound_to 7965
  139.5292  144.7139  151.5119 LP  0  0  0  0  0  0  0  0  0  0  0  0  # atno 17342 bound_to 10162
  140.6513  143.8691  150.6788 LP  0  0  0  0  0  0  0  0  0  0  0  0  # atno 17343 bound_to 10162
  157.6932  131.0803  150.7046 LP  0  0  0  0  0  0  0  0  0  0  0  0  # atno 17370 bound_to 10713
  156.7102  130.4649  149.5549 LP  0  0  0  0  0  0  0  0  0  0  0  0  # atno 17371 bound_to 10713
  140.3655  134.2447  155.7183 LP  0  0  0  0  0  0  0  0  0  0  0  0  # atno 17394 bound_to 11000
  141.2004  133.7988  157.0490 LP  0  0  0  0  0  0  0  0  0  0  0  0  # atno 17395 bound_to 11000

$$$$
