AV-unprocessed.smi:3316|AV-procd|sdf|12753|dock7
  -GOLD-   2272019 93D 1   1.00000     0.00000
 Structure written by MMmdl.
 41 43  0  0  0  0  0  0  0  0  2 V2000
  148.5369  140.9099  154.0837 C   0  0  0  0  0  0  0  0  0  0  0  0
  149.3748  140.5843  155.3301 C   0  0  2  0  0  0  0  0  0  0  0  0
  150.0672  141.8430  155.8873 C   0  0  0  0  0  0  0  0  0  0  0  0
  149.2489  142.5023  156.9255 N   0  3  0  0  0  0  0  0  0  0  0  0
  149.8682  142.5055  158.2647 C   0  0  0  0  0  0  0  0  0  0  0  0
  151.3752  142.8109  158.1818 C   0  0  2  0  0  0  0  0  0  0  0  0
  152.1594  142.5858  159.5123 C   0  0  0  0  0  0  0  0  0  0  0  0
  152.8819  143.9366  159.7228 C   0  0  2  0  0  0  0  0  0  0  0  0
  151.8273  144.9747  160.0397 C   0  0  0  0  0  0  0  0  0  0  0  0
  151.1311  145.1862  158.9218 C   0  0  0  0  0  0  0  0  0  0  0  0
  151.7148  144.2879  157.8488 C   0  0  1  0  0  0  0  0  0  0  0  0
  153.1897  144.3056  158.2678 C   0  0  0  0  0  0  0  0  0  0  0  0
  150.3631  139.4577  155.0535 C   0  0  0  0  0  0  0  0  0  0  0  0
  151.7443  139.6474  155.2711 C   0  0  0  0  0  0  0  0  0  0  0  0
  152.6238  138.5801  154.9994 C   0  0  0  0  0  0  0  0  0  0  0  0
  152.2126  137.3808  154.5360 N   0  0  0  0  0  0  0  0  0  0  0  0
  150.8903  137.2031  154.3298 C   0  0  0  0  0  0  0  0  0  0  0  0
  149.9283  138.2046  154.5695 C   0  0  0  0  0  0  0  0  0  0  0  0
  148.0026  140.0275  153.7302 H   0  0  0  0  0  0  0  0  0  0  0  0
  149.1567  141.2747  153.2640 H   0  0  0  0  0  0  0  0  0  0  0  0
  147.7931  141.6771  154.3003 H   0  0  0  0  0  0  0  0  0  0  0  0
  148.6790  140.2320  156.0931 H   0  0  0  0  0  0  0  0  0  0  0  0
  151.0431  141.5907  156.3043 H   0  0  0  0  0  0  0  0  0  0  0  0
  150.2428  142.5532  155.0781 H   0  0  0  0  0  0  0  0  0  0  0  0
  149.0847  143.4592  156.6471 H   0  0  0  0  0  0  0  0  0  0  0  0
  149.3761  143.2628  158.8760 H   0  0  0  0  0  0  0  0  0  0  0  0
  149.6923  141.5413  158.7435 H   0  0  0  0  0  0  0  0  0  0  0  0
  151.8115  142.1815  157.4036 H   0  0  0  0  0  0  0  0  0  0  0  0
  151.5096  142.3440  160.3547 H   0  0  0  0  0  0  0  0  0  0  0  0
  152.8762  141.7711  159.4020 H   0  0  0  0  0  0  0  0  0  0  0  0
  153.7369  143.9297  160.3992 H   0  0  0  0  0  0  0  0  0  0  0  0
  151.6709  145.4193  161.0114 H   0  0  0  0  0  0  0  0  0  0  0  0
  150.2821  145.8398  158.7853 H   0  0  0  0  0  0  0  0  0  0  0  0
  151.5201  144.6096  156.8254 H   0  0  0  0  0  0  0  0  0  0  0  0
  153.6502  145.2907  158.1662 H   0  0  0  0  0  0  0  0  0  0  0  0
  153.8099  143.5731  157.7470 H   0  0  0  0  0  0  0  0  0  0  0  0
  152.1285  140.5868  155.6410 H   0  0  0  0  0  0  0  0  0  0  0  0
  153.6861  138.6944  155.1573 H   0  0  0  0  0  0  0  0  0  0  0  0
  150.5895  136.2337  153.9610 H   0  0  0  0  0  0  0  0  0  0  0  0
  148.8823  138.0070  154.3868 H   0  0  0  0  0  0  0  0  0  0  0  0
  148.3601  142.0256  156.9830 H   0  0  0  0  0  0  0  0  0  0  0  0
  1  2  1  0  0  0  0
  1 19  1  0  0  0  0
  1 20  1  0  0  0  0
  1 21  1  0  0  0  0
  2  3  1  0  0  0  0
  2 13  1  0  0  0  0
  2 22  1  0  0  0  0
  3  4  1  0  0  0  0
  3 23  1  0  0  0  0
  3 24  1  0  0  0  0
  4  5  1  0  0  0  0
  4 25  1  0  0  0  0
  4 41  1  0  0  0  0
  5  6  1  0  0  0  0
  5 26  1  0  0  0  0
  5 27  1  0  0  0  0
  6 11  1  0  0  0  0
  6  7  1  0  0  0  0
  6 28  1  0  0  0  0
  7  8  1  0  0  0  0
  7 29  1  0  0  0  0
  7 30  1  0  0  0  0
  8 12  1  0  0  0  0
  8  9  1  0  0  0  0
  8 31  1  0  0  0  0
  9 10  2  0  0  0  0
  9 32  1  0  0  0  0
 10 11  1  0  0  0  0
 10 33  1  0  0  0  0
 11 12  1  0  0  0  0
 11 34  1  0  0  0  0
 12 35  1  0  0  0  0
 12 36  1  0  0  0  0
 13 18  1  0  0  0  0
 13 14  2  0  0  0  0
 14 15  1  0  0  0  0
 14 37  1  0  0  0  0
 15 16  2  0  0  0  0
 15 38  1  0  0  0  0
 16 17  1  0  0  0  0
 17 18  2  0  0  0  0
 17 39  1  0  0  0  0
 18 40  1  0  0  0  0
M  CHG  1   4   1
M  END
> <s_m_source_file>
AV-unprocessed.smi

> <i_m_source_file_index>
3316

> <i_lp_mmshare_version>
43012

> <i_f3d_flags>
0

> <s_epik_input>
W2NIXTFbY0hdbltjSF1bY0hdYzFbQ0BIXShbQ0gzXSlbQ0gyXVtOSF1bQ0gyXVtDQEhdKFtDSDJdW0NASF0yMylbQ0BIXShbQ0gyXTMpW0NIXT1bQ0hdMg==

> <s_epik_cmdline>
J2VwaWtfcHl0aG9uJywgJy1waCcsICc3LjAnLCAnLXRuJywgJzgnLCAnLW1hJywgJzIwMCcsICctbWV0YWxfYmluZGluZycsICctaW1hZScsICc8aW5maWxlLm1hZT4nLCAnLW9tYWUnLCAnPG91dGZpbGUubWFlPic=

> <r_lp_tautomer_probability>
1

> <r_epik_Ionization_Penalty>
0.00280406

> <r_epik_Ionization_Penalty_Charging>
0.000446589

> <r_epik_Ionization_Penalty_Neutral>
0.00235747

> <r_epik_State_Penalty>
-0

> <r_epik_Charging_Adjusted_Penalty>
0.000446589

> <i_epik_Tot_Q>
1

> <i_epik_Tot_abs_Q>
1

> <r_epik_Metal_State_Penalty>
-0

> <b_epik_Metal_Only>
0

> <s_lp_Force_Field>
OPLS_2005

> <r_lp_Energy>
65.4585

> <b_lp_Chiralities_Consistent>
1

> <s_lp_Variant>
AV-unprocessed.smi:3316-1

> <Gold.Version>
5.8.1

> <Gold.Id.Protein>
6NUR|6NUR_protein|mol2

> <Gold.PLP.Fitness>
55.3464

> <Gold.PLP.PLP>
-47.3946

> <Gold.PLP.part.hbond>
-2.0000

> <Gold.PLP.part.metal>
0.0000

> <Gold.PLP.part.buried>
-1.8089

> <Gold.PLP.part.nonpolar>
-43.3996

> <Gold.PLP.part.repulsive>
0.1025

> <Gold.PLP.ligand.clash>
0.0000

> <Gold.PLP.ligand.torsion>
1.0160

> <Gold.PLP.Chemscore.Hbond>
2.7040

> <Gold.PLP.Chemscore.CHOScore>
0.5981

> <Gold.PLP.Chemscore.Metal>
0.0000

> <Gold.Chemscore.Hbonds>
donor molecule, donor type, donor heavy atom, donor atom, acceptor molecule, acceptor atom, score
      L1  H     4    25       P1  8028  2.00
      P1  H 10752 10764       L1    16  0.77
      L1  C    17    39       P1  7948  0.22
      L1  C    17    39       P1  7949  0.32

> <Gold.PLP.Chemscore.Internal.Correction>
0.0774

> <Gold.Rescore>
     Score         DG    S(hbond)    S(metal)    S(lipo)     H(rot)  DE(clash)    DE(int)     intcor
     23.47     -24.68       1.73        0.00     144.69       1.36       0.20       1.01       ----

> <Gold.Chemscore.Fitness>
23.4653

> <Gold.Chemscore.DG>
-24.6803

> <Gold.Chemscore.ZeroCoef>
-5.4800

> <Gold.Chemscore.Hbond>
1.7255

> <Gold.Chemscore.Metal>
0.0000

> <Gold.Chemscore.Lipo>
144.6913

> <Gold.Chemscore.Internal_Hbond>
0.0000

> <Gold.Chemscore.DEClash>
0.2012

> <Gold.Chemscore.DEInternal>
1.0138

> <Gold.Chemscore.Rot>
1.3640

> <Gold.Chemscore.Internal.Correction>
   9.000000E+99

> <Gold.Chemscore.Hbonds>
donor molecule, donor type, donor heavy atom, donor atom, acceptor molecule, acceptor atom, score
      L1  H     4    25       P1  8028  0.93
      P1  H 10752 10764       L1    16  0.39

> <Gold.Chemscore.Hbond.Weighted>
-5.7633

> <Gold.Chemscore.Metal.Weighted>
-0.0000

> <Gold.Chemscore.Lipo.Weighted>
-16.9289

> <Gold.Chemscore.Internal_Hbond.Weighted>
0.0000

> <Gold.Chemscore.DEClash.Weighted>
0.2012

> <Gold.Chemscore.DEInternal.Weighted>
1.0138

> <Gold.Chemscore.Rot.Weighted>
3.4919

> <Gold.Chemscore.Internal.Correction.Weighted>
   9.000000E+99

> <Gold.Protein.RotatedTorsions>
[ 6907 6896 6895 6894 ] final  153.83 input  -60.11 | X-H torsion
[ 7974 7965 7964 7962 ] final   51.46 input  175.53 | X-H torsion
[ 8008 7997 7996 7995 ] final   33.97 input   59.86 | X-H torsion
[ 10167 10162 10161 10158 ] final   42.51 input  -65.29 | X-H torsion
[ 10718 10713 10712 10709 ] final   56.41 input   66.30 | X-H torsion
[ 10763 10752 10751 10750 ] final  -81.79 input  -60.55 | X-H torsion
[ 11005 11000 10999 10996 ] final  134.73 input  -57.11 | X-H torsion

> <Gold.Protein.ActiveResidues>
 VAL166  LYS551  ARG553  GLY616  TRP617  ASP618  TYR619  PRO620  LYS621  CYS622 
 ASP623  PHE694  ASN695  SER759  ASP760  ASP761  ALA762  ILE779  LEU786  VAL792 
 PHE793  MET794  SER795  GLU796  ALA797  LYS798  CYS799  TRP800  GLU811  SER814 

> <Gold.Protein.RotatedAtoms>
  152.0671  133.4089  159.4442 H   0  0  0  0  0  0  0  0  0  0  0  0  # atno 6907 bound_to 6896
  150.6864  134.3134  159.4765 H   0  0  0  0  0  0  0  0  0  0  0  0  # atno 6908 bound_to 6896
  152.0962  134.9373  160.0621 H   0  0  0  0  0  0  0  0  0  0  0  0  # atno 6909 bound_to 6896
  145.9911  139.4340  143.0073 H   0  0  0  0  0  0  0  0  0  0  0  0  # atno 7974 bound_to 7965
  155.1473  140.3271  155.4439 H   0  0  0  0  0  0  0  0  0  0  0  0  # atno 8008 bound_to 7997
  156.2585  140.1983  156.6536 H   0  0  0  0  0  0  0  0  0  0  0  0  # atno 8009 bound_to 7997
  154.6499  140.0560  156.9929 H   0  0  0  0  0  0  0  0  0  0  0  0  # atno 8010 bound_to 7997
  140.3537  144.2318  150.6143 H   0  0  0  0  0  0  0  0  0  0  0  0  # atno 10167 bound_to 10162
  157.5429  130.8710  149.8848 H   0  0  0  0  0  0  0  0  0  0  0  0  # atno 10718 bound_to 10713
  154.5679  135.5614  153.7067 H   0  0  0  0  0  0  0  0  0  0  0  0  # atno 10763 bound_to 10752
  153.0039  135.6290  154.2155 H   0  0  0  0  0  0  0  0  0  0  0  0  # atno 10764 bound_to 10752
  154.2094  135.2874  155.2943 H   0  0  0  0  0  0  0  0  0  0  0  0  # atno 10765 bound_to 10752
  139.9934  134.9506  156.9908 H   0  0  0  0  0  0  0  0  0  0  0  0  # atno 11005 bound_to 11000
  145.7628  140.9928  143.1191 LP  0  0  0  0  0  0  0  0  0  0  0  0  # atno 17320 bound_to 7965
  144.6889  139.9351  143.7473 LP  0  0  0  0  0  0  0  0  0  0  0  0  # atno 17321 bound_to 7965
  140.5195  143.2269  151.8411 LP  0  0  0  0  0  0  0  0  0  0  0  0  # atno 17342 bound_to 10162
  139.4823  144.4854  151.9253 LP  0  0  0  0  0  0  0  0  0  0  0  0  # atno 17343 bound_to 10162
  156.0511  130.3717  150.1199 LP  0  0  0  0  0  0  0  0  0  0  0  0  # atno 17370 bound_to 10713
  156.9377  130.9734  151.3521 LP  0  0  0  0  0  0  0  0  0  0  0  0  # atno 17371 bound_to 10713
  140.4865  134.1236  155.7225 LP  0  0  0  0  0  0  0  0  0  0  0  0  # atno 17394 bound_to 11000
  141.1584  133.8838  157.1914 LP  0  0  0  0  0  0  0  0  0  0  0  0  # atno 17395 bound_to 11000

$$$$
