AV-unprocessed.smi:1492|AV-procd|sdf|6043|dock6
  -GOLD-   22720 6153D 1   1.00000     0.00000
 Structure written by MMmdl.
 53 54  0  0  0  0  0  0  0  0  2 V2000
  150.1113  134.5028  156.0425 C   0  0  0  0  0  0  0  0  0  0  0  0
  150.7275  135.3864  157.1404 C   0  0  0  0  0  0  0  0  0  0  0  0
  150.0552  136.7839  157.3336 C   0  0  2  0  0  0  0  0  0  0  0  0
  150.8932  137.5662  158.3771 C   0  0  0  0  0  0  0  0  0  0  0  0
  148.6121  136.5983  157.9041 C   0  0  0  0  0  0  0  0  0  0  0  0
  148.5951  136.4032  159.3506 N   0  0  0  0  0  0  0  0  0  0  0  0
  147.7132  136.9443  160.2034 C   0  0  0  0  0  0  0  0  0  0  0  0
  146.9031  137.8156  159.8903 O   0  0  0  0  0  0  0  0  0  0  0  0
  147.7181  136.3690  161.6187 C   0  0  0  0  0  0  0  0  0  0  0  0
  146.3408  135.9447  162.1279 C   0  0  0  0  0  0  0  0  0  0  0  0
  146.0565  134.6720  162.5046 C   0  0  0  0  0  0  0  0  0  0  0  0
  147.0477  133.5223  162.4568 C   0  0  0  0  0  0  0  0  0  0  0  0
  144.8052  134.3304  162.9860 N   0  0  0  0  0  0  0  0  0  0  0  0
  143.8514  135.3299  163.0801 C   0  0  0  0  0  0  0  0  0  0  0  0
  142.5229  134.8519  163.6242 C   0  0  0  0  0  0  0  0  0  0  0  0
  144.0280  136.5734  162.7515 N   0  0  0  0  0  0  0  0  0  0  0  0
  145.2794  136.9719  162.2550 C   0  0  0  0  0  0  0  0  0  0  0  0
  145.4819  138.1472  161.9527 O   0  0  0  0  0  0  0  0  0  0  0  0
  150.0053  137.5282  156.0192 N   0  3  0  0  0  0  0  0  0  0  0  0
  149.4384  138.9072  156.0657 C   0  0  0  0  0  0  0  0  0  0  0  0
  149.2848  139.4851  154.6482 C   0  0  0  0  0  0  0  0  0  0  0  0
  150.5380  139.4738  153.9814 O   0  0  0  0  0  0  0  0  0  0  0  0
  151.0391  138.1533  153.8387 C   0  0  0  0  0  0  0  0  0  0  0  0
  151.2705  137.5398  155.2285 C   0  0  0  0  0  0  0  0  0  0  0  0
  144.6354  133.3710  163.2526 H   0  0  0  0  0  0  0  0  0  0  0  0
  150.6381  133.5504  155.9816 H   0  0  0  0  0  0  0  0  0  0  0  0
  150.1749  134.9736  155.0615 H   0  0  0  0  0  0  0  0  0  0  0  0
  149.0640  134.2784  156.2419 H   0  0  0  0  0  0  0  0  0  0  0  0
  150.7045  134.8265  158.0752 H   0  0  0  0  0  0  0  0  0  0  0  0
  151.7938  135.4943  156.9469 H   0  0  0  0  0  0  0  0  0  0  0  0
  150.9408  137.0349  159.3283 H   0  0  0  0  0  0  0  0  0  0  0  0
  150.4729  138.5497  158.5859 H   0  0  0  0  0  0  0  0  0  0  0  0
  151.9252  137.7074  158.0580 H   0  0  0  0  0  0  0  0  0  0  0  0
  148.0087  137.4892  157.7329 H   0  0  0  0  0  0  0  0  0  0  0  0
  148.1042  135.7820  157.3883 H   0  0  0  0  0  0  0  0  0  0  0  0
  149.2330  135.7121  159.7189 H   0  0  0  0  0  0  0  0  0  0  0  0
  148.4235  135.5383  161.6606 H   0  0  0  0  0  0  0  0  0  0  0  0
  148.1299  137.1169  162.2966 H   0  0  0  0  0  0  0  0  0  0  0  0
  147.3986  133.3606  161.4373 H   0  0  0  0  0  0  0  0  0  0  0  0
  146.6006  132.5912  162.8076 H   0  0  0  0  0  0  0  0  0  0  0  0
  147.9089  133.7358  163.0901 H   0  0  0  0  0  0  0  0  0  0  0  0
  141.7707  135.6396  163.5655 H   0  0  0  0  0  0  0  0  0  0  0  0
  142.6264  134.5555  164.6684 H   0  0  0  0  0  0  0  0  0  0  0  0
  142.1623  133.9950  163.0541 H   0  0  0  0  0  0  0  0  0  0  0  0
  148.4505  138.9234  156.5207 H   0  0  0  0  0  0  0  0  0  0  0  0
  150.0807  139.5585  156.6592 H   0  0  0  0  0  0  0  0  0  0  0  0
  148.5484  138.9192  154.0754 H   0  0  0  0  0  0  0  0  0  0  0  0
  148.9239  140.5124  154.6999 H   0  0  0  0  0  0  0  0  0  0  0  0
  150.3483  137.5450  153.2525 H   0  0  0  0  0  0  0  0  0  0  0  0
  151.9776  138.1911  153.2850 H   0  0  0  0  0  0  0  0  0  0  0  0
  152.0375  138.1144  155.7480 H   0  0  0  0  0  0  0  0  0  0  0  0
  151.6646  136.5371  155.0793 H   0  0  0  0  0  0  0  0  0  0  0  0
  149.3518  136.9994  155.4590 H   0  0  0  0  0  0  0  0  0  0  0  0
  1  2  1  0  0  0  0
  1 26  1  0  0  0  0
  1 27  1  0  0  0  0
  1 28  1  0  0  0  0
  2  3  1  0  0  0  0
  2 29  1  0  0  0  0
  2 30  1  0  0  0  0
  3  4  1  0  0  0  0
  3  5  1  0  0  0  0
  3 19  1  0  0  0  0
  4 31  1  0  0  0  0
  4 32  1  0  0  0  0
  4 33  1  0  0  0  0
  5  6  1  0  0  0  0
  5 34  1  0  0  0  0
  5 35  1  0  0  0  0
  6  7  1  0  0  0  0
  6 36  1  0  0  0  0
  7  8  2  0  0  0  0
  7  9  1  0  0  0  0
  9 37  1  0  0  0  0
  9 38  1  0  0  0  0
  9 10  1  0  0  0  0
 10 17  1  0  0  0  0
 10 11  2  0  0  0  0
 11 12  1  0  0  0  0
 11 13  1  0  0  0  0
 12 39  1  0  0  0  0
 12 40  1  0  0  0  0
 12 41  1  0  0  0  0
 13 25  1  0  0  0  0
 13 14  1  0  0  0  0
 14 15  1  0  0  0  0
 14 16  2  0  0  0  0
 15 42  1  0  0  0  0
 15 43  1  0  0  0  0
 15 44  1  0  0  0  0
 16 17  1  0  0  0  0
 17 18  2  0  0  0  0
 19 24  1  0  0  0  0
 19 20  1  0  0  0  0
 19 53  1  0  0  0  0
 20 21  1  0  0  0  0
 20 45  1  0  0  0  0
 20 46  1  0  0  0  0
 21 22  1  0  0  0  0
 21 47  1  0  0  0  0
 21 48  1  0  0  0  0
 22 23  1  0  0  0  0
 23 24  1  0  0  0  0
 23 49  1  0  0  0  0
 23 50  1  0  0  0  0
 24 51  1  0  0  0  0
 24 52  1  0  0  0  0
M  CHG  1  19   1
M  END
> <s_m_source_file>
AV-unprocessed.smi

> <i_m_source_file_index>
1492

> <i_lp_mmshare_version>
43012

> <i_f3d_flags>
0

> <s_epik_input>
W0NIMl0xW0NIMl1PW0NIMl1bQ0gyXU4xW0NAQF0oW0NIM10pKFtDSDJdW0NIM10pW0NIMl1bTkhdQyg9TylbQ0gyXWMyYyhbQ0gzXSluYyhbQ0gzXSlbbkhdYzI9Tw==

> <s_epik_cmdline>
J2VwaWtfcHl0aG9uJywgJy1waCcsICc3LjAnLCAnLXRuJywgJzgnLCAnLW1hJywgJzIwMCcsICctbWV0YWxfYmluZGluZycsICctaW1hZScsICc8aW5maWxlLm1hZT4nLCAnLW9tYWUnLCAnPG91dGZpbGUubWFlPic=

> <r_lp_tautomer_probability>
0.156392

> <r_epik_Ionization_Penalty>
0.523233

> <r_epik_Ionization_Penalty_Charging>
0.523147

> <r_epik_Ionization_Penalty_Neutral>
8.52784e-05

> <r_epik_State_Penalty>
1.66677

> <r_epik_Charging_Adjusted_Penalty>
2.18991

> <i_epik_Tot_Q>
1

> <i_epik_Tot_abs_Q>
1

> <r_epik_Metal_State_Penalty>
1.84524

> <b_epik_Metal_Only>
0

> <s_lp_Force_Field>
OPLS_2005

> <r_lp_Energy>
32.5308

> <b_lp_Chiralities_Consistent>
1

> <s_lp_Variant>
AV-unprocessed.smi:1492-8

> <Gold.Version>
5.8.1

> <Gold.Id.Protein>
6NUR|6NUR_protein|mol2

> <Gold.PLP.Fitness>
39.6138

> <Gold.PLP.PLP>
-34.8816

> <Gold.PLP.part.hbond>
-2.8719

> <Gold.PLP.part.metal>
0.0000

> <Gold.PLP.part.buried>
-7.3327

> <Gold.PLP.part.nonpolar>
-26.1669

> <Gold.PLP.part.repulsive>
0.4065

> <Gold.PLP.ligand.clash>
0.0000

> <Gold.PLP.ligand.torsion>
0.7480

> <Gold.PLP.Chemscore.Hbond>
2.0000

> <Gold.PLP.Chemscore.CHOScore>
0.0000

> <Gold.PLP.Chemscore.Metal>
0.0000

> <Gold.Chemscore.Hbonds>
donor molecule, donor type, donor heavy atom, donor atom, acceptor molecule, acceptor atom, score
      P1  H  6934  6947       L1     8  0.98
      P1  H  7989  7998       L1    22  1.00

> <Gold.PLP.Chemscore.Internal.Correction>
0.2282

> <Gold.Rescore>
     Score         DG    S(hbond)    S(metal)    S(lipo)     H(rot)  DE(clash)    DE(int)     intcor
     12.59     -15.31       1.90        0.00      77.62       2.19       0.83       1.88       ----

> <Gold.Chemscore.Fitness>
12.5935

> <Gold.Chemscore.DG>
-15.3061

> <Gold.Chemscore.ZeroCoef>
-5.4800

> <Gold.Chemscore.Hbond>
1.9036

> <Gold.Chemscore.Metal>
0.0000

> <Gold.Chemscore.Lipo>
77.6162

> <Gold.Chemscore.Internal_Hbond>
0.0000

> <Gold.Chemscore.DEClash>
0.8331

> <Gold.Chemscore.DEInternal>
1.8795

> <Gold.Chemscore.Rot>
2.1926

> <Gold.Chemscore.Internal.Correction>
   9.000000E+99

> <Gold.Chemscore.Hbonds>
donor molecule, donor type, donor heavy atom, donor atom, acceptor molecule, acceptor atom, score
      P1  H  6934  6947       L1     8  0.51
      P1  H  7989  7998       L1    22  0.94

> <Gold.Chemscore.Hbond.Weighted>
-6.3580

> <Gold.Chemscore.Metal.Weighted>
-0.0000

> <Gold.Chemscore.Lipo.Weighted>
-9.0811

> <Gold.Chemscore.Internal_Hbond.Weighted>
0.0000

> <Gold.Chemscore.DEClash.Weighted>
0.8331

> <Gold.Chemscore.DEInternal.Weighted>
1.8795

> <Gold.Chemscore.Rot.Weighted>
5.6129

> <Gold.Chemscore.Internal.Correction.Weighted>
   9.000000E+99

> <Gold.Protein.RotatedTorsions>
[ 6907 6896 6895 6894 ] final   37.64 input  -60.11 | X-H torsion
[ 7974 7965 7964 7962 ] final -108.71 input  175.53 | X-H torsion
[ 8008 7997 7996 7995 ] final -137.26 input   59.86 | X-H torsion
[ 10167 10162 10161 10158 ] final   31.83 input  -65.29 | X-H torsion
[ 10718 10713 10712 10709 ] final  118.74 input   66.30 | X-H torsion
[ 10763 10752 10751 10750 ] final  -76.40 input  -60.55 | X-H torsion
[ 11005 11000 10999 10996 ] final  -30.83 input  -57.11 | X-H torsion

> <Gold.Protein.ActiveResidues>
 VAL166  LYS551  ARG553  GLY616  TRP617  ASP618  TYR619  PRO620  LYS621  CYS622 
 ASP623  PHE694  ASN695  SER759  ASP760  ASP761  ALA762  ILE779  LEU786  VAL792 
 PHE793  MET794  SER795  GLU796  ALA797  LYS798  CYS799  TRP800  GLU811  SER814 

> <Gold.Protein.RotatedAtoms>
  152.1459  134.9026  160.0550 H   0  0  0  0  0  0  0  0  0  0  0  0  # atno 6907 bound_to 6896
  152.0076  133.3844  159.4215 H   0  0  0  0  0  0  0  0  0  0  0  0  # atno 6908 bound_to 6896
  150.6870  134.3687  159.5026 H   0  0  0  0  0  0  0  0  0  0  0  0  # atno 6909 bound_to 6896
  145.1895  140.9008  143.3433 H   0  0  0  0  0  0  0  0  0  0  0  0  # atno 7974 bound_to 7965
  155.4088  140.0511  157.3033 H   0  0  0  0  0  0  0  0  0  0  0  0  # atno 8008 bound_to 7997
  154.4956  140.2137  155.9415 H   0  0  0  0  0  0  0  0  0  0  0  0  # atno 8009 bound_to 7997
  156.1400  140.3156  155.8486 H   0  0  0  0  0  0  0  0  0  0  0  0  # atno 8010 bound_to 7997
  140.4554  144.0986  150.6200 H   0  0  0  0  0  0  0  0  0  0  0  0  # atno 10167 bound_to 10162
  157.6009  131.1051  150.7799 H   0  0  0  0  0  0  0  0  0  0  0  0  # atno 10718 bound_to 10713
  154.4994  135.5799  153.6519 H   0  0  0  0  0  0  0  0  0  0  0  0  # atno 10763 bound_to 10752
  152.9876  135.6132  154.3022 H   0  0  0  0  0  0  0  0  0  0  0  0  # atno 10764 bound_to 10752
  154.2928  135.2848  155.2626 H   0  0  0  0  0  0  0  0  0  0  0  0  # atno 10765 bound_to 10752
  140.9416  133.7275  156.1085 H   0  0  0  0  0  0  0  0  0  0  0  0  # atno 11005 bound_to 11000
  145.0055  139.3558  143.6146 LP  0  0  0  0  0  0  0  0  0  0  0  0  # atno 17320 bound_to 7965
  146.3439  139.9296  142.8755 LP  0  0  0  0  0  0  0  0  0  0  0  0  # atno 17321 bound_to 7965
  140.4158  143.2635  151.9777 LP  0  0  0  0  0  0  0  0  0  0  0  0  # atno 17342 bound_to 10162
  139.4800  144.5875  151.7828 LP  0  0  0  0  0  0  0  0  0  0  0  0  # atno 17343 bound_to 10162
  156.8198  130.4980  149.5344 LP  0  0  0  0  0  0  0  0  0  0  0  0  # atno 17370 bound_to 10713
  156.1082  130.6021  151.0005 LP  0  0  0  0  0  0  0  0  0  0  0  0  # atno 17371 bound_to 10713
  140.7726  134.3816  157.5504 LP  0  0  0  0  0  0  0  0  0  0  0  0  # atno 17394 bound_to 11000
  139.8822  134.9031  156.2848 LP  0  0  0  0  0  0  0  0  0  0  0  0  # atno 17395 bound_to 11000

$$$$
