AV-unprocessed.smi:1522|AV-procd|sdf|6134|dock2
  -GOLD-   22720 6273D 1   1.00000     0.00000
 Structure written by MMmdl.
 35 36  0  0  0  0  0  0  0  0  2 V2000
  144.8020  135.3675  152.5471 C   0  0  0  0  0  0  0  0  0  0  0  0
  145.6402  135.5986  151.2697 C   0  0  2  0  0  0  0  0  0  0  0  0
  145.2529  136.9406  150.5944 C   0  0  0  0  0  0  0  0  0  0  0  0
  145.3591  138.0836  151.4965 N   0  0  0  0  0  0  0  0  0  0  0  0
  146.4956  138.4980  152.0746 C   0  0  0  0  0  0  0  0  0  0  0  0
  147.5827  137.9499  151.8935 O   0  0  0  0  0  0  0  0  0  0  0  0
  146.2823  139.5651  152.8610 N   0  0  0  0  0  0  0  0  0  0  0  0
  147.2237  140.2594  153.6613 C   0  0  0  0  0  0  0  0  0  0  0  0
  148.2996  139.5890  154.0892 N   0  0  0  0  0  0  0  0  0  0  0  0
  149.1396  140.3875  154.8558 N   0  0  0  0  0  0  0  0  0  0  0  0
  148.6640  141.6308  154.9751 C   0  0  0  0  0  0  0  0  0  0  0  0
  147.1418  141.9510  154.1632 S   0  0  0  0  0  0  0  0  0  0  0  0
  145.4941  134.4655  150.3109 N   0  3  0  0  0  0  0  0  0  0  0  0
  146.2185  133.2241  150.6867 C   0  0  0  0  0  0  0  0  0  0  0  0
  145.3362  132.0371  150.2758 C   0  0  0  0  0  0  0  0  0  0  0  0
  144.2213  132.6498  149.4367 C   0  0  0  0  0  0  0  0  0  0  0  0
  144.1057  134.0621  149.9978 C   0  0  0  0  0  0  0  0  0  0  0  0
  144.8978  136.1976  153.2470 H   0  0  0  0  0  0  0  0  0  0  0  0
  145.1192  134.4773  153.0898 H   0  0  0  0  0  0  0  0  0  0  0  0
  143.7431  135.2571  152.3106 H   0  0  0  0  0  0  0  0  0  0  0  0
  146.6902  135.6417  151.5638 H   0  0  0  0  0  0  0  0  0  0  0  0
  145.8682  137.1408  149.7165 H   0  0  0  0  0  0  0  0  0  0  0  0
  144.2239  136.8908  150.2368 H   0  0  0  0  0  0  0  0  0  0  0  0
  144.5087  138.5907  151.6953 H   0  0  0  0  0  0  0  0  0  0  0  0
  145.3364  139.9146  152.9044 H   0  0  0  0  0  0  0  0  0  0  0  0
  149.2144  142.3649  155.5449 H   0  0  0  0  0  0  0  0  0  0  0  0
  147.1806  133.1999  150.1740 H   0  0  0  0  0  0  0  0  0  0  0  0
  146.4126  133.1803  151.7599 H   0  0  0  0  0  0  0  0  0  0  0  0
  145.8902  131.2706  149.7330 H   0  0  0  0  0  0  0  0  0  0  0  0
  144.9117  131.5705  151.1658 H   0  0  0  0  0  0  0  0  0  0  0  0
  144.5235  132.6907  148.3893 H   0  0  0  0  0  0  0  0  0  0  0  0
  143.2873  132.0902  149.4968 H   0  0  0  0  0  0  0  0  0  0  0  0
  143.5105  134.0463  150.9125 H   0  0  0  0  0  0  0  0  0  0  0  0
  143.6303  134.7428  149.2909 H   0  0  0  0  0  0  0  0  0  0  0  0
  145.8948  134.7663  149.4339 H   0  0  0  0  0  0  0  0  0  0  0  0
  1  2  1  0  0  0  0
  1 18  1  0  0  0  0
  1 19  1  0  0  0  0
  1 20  1  0  0  0  0
  2  3  1  0  0  0  0
  2 13  1  0  0  0  0
  2 21  1  0  0  0  0
  3  4  1  0  0  0  0
  3 22  1  0  0  0  0
  3 23  1  0  0  0  0
  4  5  1  0  0  0  0
  4 24  1  0  0  0  0
  5  6  2  0  0  0  0
  5  7  1  0  0  0  0
  7  8  1  0  0  0  0
  7 25  1  0  0  0  0
  8 12  1  0  0  0  0
  8  9  2  0  0  0  0
  9 10  1  0  0  0  0
 10 11  2  0  0  0  0
 11 12  1  0  0  0  0
 11 26  1  0  0  0  0
 13 17  1  0  0  0  0
 13 14  1  0  0  0  0
 13 35  1  0  0  0  0
 14 15  1  0  0  0  0
 14 27  1  0  0  0  0
 14 28  1  0  0  0  0
 15 16  1  0  0  0  0
 15 29  1  0  0  0  0
 15 30  1  0  0  0  0
 16 17  1  0  0  0  0
 16 31  1  0  0  0  0
 16 32  1  0  0  0  0
 17 33  1  0  0  0  0
 17 34  1  0  0  0  0
M  CHG  1  13   1
M  END
> <s_m_source_file>
AV-unprocessed.smi

> <i_m_source_file_index>
1522

> <i_lp_mmshare_version>
43012

> <i_f3d_flags>
0

> <s_epik_input>
W0NIMl0xW0NIMl1bQ0gyXVtDSDJdTjFbQ0BIXShbQ0gzXSlbQ0gyXVtOSF1DKD1PKVtOSF1jMm5uW2NIXXMy

> <s_epik_cmdline>
J2VwaWtfcHl0aG9uJywgJy1waCcsICc3LjAnLCAnLXRuJywgJzgnLCAnLW1hJywgJzIwMCcsICctbWV0YWxfYmluZGluZycsICctaW1hZScsICc8aW5maWxlLm1hZT4nLCAnLW9tYWUnLCAnPG91dGZpbGUubWFlPic=

> <r_lp_tautomer_probability>
1

> <r_epik_Ionization_Penalty>
0.00457064

> <r_epik_Ionization_Penalty_Charging>
0.000848324

> <r_epik_Ionization_Penalty_Neutral>
0.00372231

> <r_epik_State_Penalty>
-0

> <r_epik_Charging_Adjusted_Penalty>
0.000848324

> <i_epik_Tot_Q>
1

> <i_epik_Tot_abs_Q>
1

> <r_epik_Metal_State_Penalty>
0.370178

> <b_epik_Metal_Only>
0

> <s_lp_Force_Field>
OPLS_2005

> <r_lp_Energy>
27.0536

> <b_lp_Chiralities_Consistent>
1

> <s_lp_Variant>
AV-unprocessed.smi:1522-1

> <Gold.Version>
5.8.1

> <Gold.Id.Protein>
6NUR|6NUR_protein|mol2

> <Gold.PLP.Fitness>
38.3493

> <Gold.PLP.PLP>
-25.3110

> <Gold.PLP.part.hbond>
-4.3472

> <Gold.PLP.part.metal>
0.0000

> <Gold.PLP.part.buried>
0.6682

> <Gold.PLP.part.nonpolar>
-29.7515

> <Gold.PLP.part.repulsive>
9.3466

> <Gold.PLP.ligand.clash>
0.0000

> <Gold.PLP.ligand.torsion>
0.3496

> <Gold.PLP.Chemscore.Hbond>
3.5650

> <Gold.PLP.Chemscore.CHOScore>
1.0000

> <Gold.PLP.Chemscore.Metal>
0.0000

> <Gold.Chemscore.Hbonds>
donor molecule, donor type, donor heavy atom, donor atom, acceptor molecule, acceptor atom, score
      L1  H     4    24       P1 10175  0.61
      L1  H     7    25       P1 10175  1.00
      L1  H    13    35       P1  7921  1.00
      P1  H  7954  7966       L1     6  0.89
      L1  C    11    26       P1  8028  0.97

> <Gold.PLP.Chemscore.Internal.Correction>
0.0425

> <Gold.Rescore>
     Score         DG    S(hbond)    S(metal)    S(lipo)     H(rot)  DE(clash)    DE(int)     intcor
     14.08     -21.67       3.70        0.00      69.96       1.70       6.06       1.53       ----

> <Gold.Chemscore.Fitness>
14.0783

> <Gold.Chemscore.DG>
-21.6736

> <Gold.Chemscore.ZeroCoef>
-5.4800

> <Gold.Chemscore.Hbond>
3.7028

> <Gold.Chemscore.Metal>
0.0000

> <Gold.Chemscore.Lipo>
69.9619

> <Gold.Chemscore.Internal_Hbond>
0.0000

> <Gold.Chemscore.DEClash>
6.0646

> <Gold.Chemscore.DEInternal>
1.5307

> <Gold.Chemscore.Rot>
1.7028

> <Gold.Chemscore.Internal.Correction>
   9.000000E+99

> <Gold.Chemscore.Hbonds>
donor molecule, donor type, donor heavy atom, donor atom, acceptor molecule, acceptor atom, score
      L1  H     4    24       P1 10175  0.60
      L1  H     7    25       P1 10175  1.00
      L1  H    13    35       P1  7921  0.81
      P1  H  7954  7966       L1     6  0.77

> <Gold.Chemscore.Hbond.Weighted>
-12.3672

> <Gold.Chemscore.Metal.Weighted>
-0.0000

> <Gold.Chemscore.Lipo.Weighted>
-8.1855

> <Gold.Chemscore.Internal_Hbond.Weighted>
0.0000

> <Gold.Chemscore.DEClash.Weighted>
6.0646

> <Gold.Chemscore.DEInternal.Weighted>
1.5307

> <Gold.Chemscore.Rot.Weighted>
4.3592

> <Gold.Chemscore.Internal.Correction.Weighted>
   9.000000E+99

> <Gold.Protein.RotatedTorsions>
[ 6907 6896 6895 6894 ] final -113.58 input  -60.11 | X-H torsion
[ 7974 7965 7964 7962 ] final -179.13 input  175.53 | X-H torsion
[ 8008 7997 7996 7995 ] final   63.85 input   59.86 | X-H torsion
[ 10167 10162 10161 10158 ] final   87.12 input  -65.29 | X-H torsion
[ 10718 10713 10712 10709 ] final  -79.21 input   66.30 | X-H torsion
[ 10763 10752 10751 10750 ] final -172.57 input  -60.55 | X-H torsion
[ 11005 11000 10999 10996 ] final -120.62 input  -57.11 | X-H torsion

> <Gold.Protein.ActiveResidues>
 VAL166  LYS551  ARG553  GLY616  TRP617  ASP618  TYR619  PRO620  LYS621  CYS622 
 ASP623  PHE694  ASN695  SER759  ASP760  ASP761  ALA762  ILE779  LEU786  VAL792 
 PHE793  MET794  SER795  GLU796  ALA797  LYS798  CYS799  TRP800  GLU811  SER814 

> <Gold.Protein.RotatedAtoms>
  150.7839  133.8925  159.3317 H   0  0  0  0  0  0  0  0  0  0  0  0  # atno 6907 bound_to 6896
  151.6780  135.0964  160.0220 H   0  0  0  0  0  0  0  0  0  0  0  0  # atno 6908 bound_to 6896
  152.3898  133.6624  159.6263 H   0  0  0  0  0  0  0  0  0  0  0  0  # atno 6909 bound_to 6896
  144.7134  140.0763  143.6427 H   0  0  0  0  0  0  0  0  0  0  0  0  # atno 7974 bound_to 7965
  155.6368  140.3496  155.4701 H   0  0  0  0  0  0  0  0  0  0  0  0  # atno 8008 bound_to 7997
  155.9959  140.1203  157.0618 H   0  0  0  0  0  0  0  0  0  0  0  0  # atno 8009 bound_to 7997
  154.4233  140.1110  156.5615 H   0  0  0  0  0  0  0  0  0  0  0  0  # atno 8010 bound_to 7997
  139.8806  144.6442  150.8847 H   0  0  0  0  0  0  0  0  0  0  0  0  # atno 10167 bound_to 10162
  156.0098  130.4539  150.3614 H   0  0  0  0  0  0  0  0  0  0  0  0  # atno 10718 bound_to 10713
  154.6177  135.2871  155.0361 H   0  0  0  0  0  0  0  0  0  0  0  0  # atno 10763 bound_to 10752
  154.1567  135.6494  153.4980 H   0  0  0  0  0  0  0  0  0  0  0  0  # atno 10764 bound_to 10752
  153.0222  135.5368  154.6955 H   0  0  0  0  0  0  0  0  0  0  0  0  # atno 10765 bound_to 10752
  141.0130  134.0236  157.3388 H   0  0  0  0  0  0  0  0  0  0  0  0  # atno 11005 bound_to 11000
  145.9740  139.2891  143.1082 LP  0  0  0  0  0  0  0  0  0  0  0  0  # atno 17320 bound_to 7965
  145.9085  140.9196  143.0466 LP  0  0  0  0  0  0  0  0  0  0  0  0  # atno 17321 bound_to 7965
  140.7745  143.3589  151.1867 LP  0  0  0  0  0  0  0  0  0  0  0  0  # atno 17342 bound_to 10162
  139.7199  143.9240  152.2981 LP  0  0  0  0  0  0  0  0  0  0  0  0  # atno 17343 bound_to 10162
  157.1702  131.0367  151.2799 LP  0  0  0  0  0  0  0  0  0  0  0  0  # atno 17370 bound_to 10713
  157.4235  130.7451  149.6932 LP  0  0  0  0  0  0  0  0  0  0  0  0  # atno 17371 bound_to 10713
  139.9101  135.0188  156.7654 LP  0  0  0  0  0  0  0  0  0  0  0  0  # atno 17394 bound_to 11000
  140.6701  133.9567  155.7852 LP  0  0  0  0  0  0  0  0  0  0  0  0  # atno 17395 bound_to 11000

$$$$
