AV-unprocessed.smi:1434|AV-procd|sdf|5855|dock10
  -GOLD-   22720 5523D 1   1.00000     0.00000
 Structure written by MMmdl.
 44 45  0  0  0  0  0  0  0  0  3 V2000
  147.1290  134.7075  162.4479 C   0  0  0  0  0  0  0  0  0  0  0  0
  146.7521  136.1167  161.3322 S   0  0  0  0  0  0  0  0  0  0  0  0
  145.2848  136.1652  161.2288 O   0  0  0  0  0  0  0  0  0  0  0  0
  147.4237  137.2845  161.9254 O   0  0  0  0  0  0  0  0  0  0  0  0
  147.4603  135.6098  159.9638 N   0  5  0  0  0  0  0  0  0  0  0  0
  148.0572  136.5763  159.0530 C   0  0  2  0  0  0  0  0  0  0  0  0
  147.5740  136.3448  157.5962 C   0  0  0  0  0  0  0  0  0  0  0  0
  148.3635  137.1688  156.5439 C   0  0  0  0  0  0  0  0  0  0  0  0
  149.8937  137.0146  156.6956 C   0  0  0  0  0  0  0  0  0  0  0  0
  150.2372  137.3528  158.0953 N   0  0  0  0  0  0  0  0  0  0  0  0
  151.0448  138.3741  158.4873 C   0  0  0  0  0  0  0  0  0  0  0  0
  151.5438  138.4520  159.6108 O   0  0  0  0  0  0  0  0  0  0  0  0
  151.2260  139.3357  157.5670 N   0  0  0  0  0  0  0  0  0  0  0  0
  152.0122  140.5432  157.7787 C   0  0  0  0  0  0  0  0  0  0  0  0
  151.2660  141.7771  157.2544 C   0  0  0  0  0  0  0  0  0  0  0  0
  151.4851  142.9934  158.1334 C   0  0  0  0  0  0  0  0  0  0  0  0
  152.3297  142.9603  159.2643 C   0  0  0  0  0  0  0  0  0  0  0  0
  152.4974  144.1307  160.0335 C   0  0  0  0  0  0  0  0  0  0  0  0
  151.8191  145.3082  159.6558 C   0  0  0  0  0  0  0  0  0  0  0  0
  150.9893  145.2856  158.5164 C   0  0  0  0  0  0  0  0  0  0  0  0
  150.8542  144.1444  157.8053 N   0  3  0  0  0  0  0  0  0  0  0  0
  149.6048  136.4380  159.0742 C   0  0  0  0  0  0  0  0  0  0  0  0
  146.7056  134.9041  163.4321 H   0  0  0  0  0  0  0  0  0  0  0  0
  148.2092  134.5917  162.5338 H   0  0  0  0  0  0  0  0  0  0  0  0
  146.6952  133.7948  162.0406 H   0  0  0  0  0  0  0  0  0  0  0  0
  147.8125  137.6001  159.3398 H   0  0  0  0  0  0  0  0  0  0  0  0
  147.6762  135.2871  157.3485 H   0  0  0  0  0  0  0  0  0  0  0  0
  146.5120  136.5747  157.5095 H   0  0  0  0  0  0  0  0  0  0  0  0
  148.0622  136.8615  155.5422 H   0  0  0  0  0  0  0  0  0  0  0  0
  148.0983  138.2249  156.6245 H   0  0  0  0  0  0  0  0  0  0  0  0
  150.1852  135.9816  156.5000 H   0  0  0  0  0  0  0  0  0  0  0  0
  150.4055  137.6121  155.9417 H   0  0  0  0  0  0  0  0  0  0  0  0
  150.7755  139.2250  156.6702 H   0  0  0  0  0  0  0  0  0  0  0  0
  152.2197  140.6623  158.8435 H   0  0  0  0  0  0  0  0  0  0  0  0
  152.9725  140.4362  157.2720 H   0  0  0  0  0  0  0  0  0  0  0  0
  151.5917  142.0101  156.2397 H   0  0  0  0  0  0  0  0  0  0  0  0
  150.1966  141.5688  157.1952 H   0  0  0  0  0  0  0  0  0  0  0  0
  152.8460  142.0518  159.5391 H   0  0  0  0  0  0  0  0  0  0  0  0
  153.1398  144.1256  160.9020 H   0  0  0  0  0  0  0  0  0  0  0  0
  151.9349  146.2153  160.2309 H   0  0  0  0  0  0  0  0  0  0  0  0
  150.4348  146.1389  158.1541 H   0  0  0  0  0  0  0  0  0  0  0  0
  149.9675  136.6028  160.0900 H   0  0  0  0  0  0  0  0  0  0  0  0
  149.8938  135.4154  158.8255 H   0  0  0  0  0  0  0  0  0  0  0  0
  150.2502  144.1520  156.9830 H   0  0  0  0  0  0  0  0  0  0  0  0
  1  2  1  0  0  0  0
  1 23  1  0  0  0  0
  1 24  1  0  0  0  0
  1 25  1  0  0  0  0
  2  3  2  0  0  0  0
  2  4  2  0  0  0  0
  2  5  1  0  0  0  0
  5  6  1  0  0  0  0
  6 22  1  0  0  0  0
  6  7  1  0  0  0  0
  6 26  1  0  0  0  0
  7  8  1  0  0  0  0
  7 27  1  0  0  0  0
  7 28  1  0  0  0  0
  8  9  1  0  0  0  0
  8 29  1  0  0  0  0
  8 30  1  0  0  0  0
  9 10  1  0  0  0  0
  9 31  1  0  0  0  0
  9 32  1  0  0  0  0
 10 11  1  0  0  0  0
 10 22  1  0  0  0  0
 11 12  2  0  0  0  0
 11 13  1  0  0  0  0
 13 14  1  0  0  0  0
 13 33  1  0  0  0  0
 14 15  1  0  0  0  0
 14 34  1  0  0  0  0
 14 35  1  0  0  0  0
 15 16  1  0  0  0  0
 15 36  1  0  0  0  0
 15 37  1  0  0  0  0
 16 21  1  0  0  0  0
 16 17  2  0  0  0  0
 17 18  1  0  0  0  0
 17 38  1  0  0  0  0
 18 19  2  0  0  0  0
 18 39  1  0  0  0  0
 19 20  1  0  0  0  0
 19 40  1  0  0  0  0
 20 21  2  0  0  0  0
 20 41  1  0  0  0  0
 21 44  1  0  0  0  0
 22 42  1  0  0  0  0
 22 43  1  0  0  0  0
M  CHG  1   5  -1
M  CHG  1  21   1
M  END
> <s_m_source_file>
AV-unprocessed.smi

> <i_m_source_file_index>
1434

> <i_lp_mmshare_version>
43012

> <i_f3d_flags>
0

> <s_epik_input>
W0NIM11TKD1PKSg9TylbTkhdW0NAQEhdMVtDSDJdW0NIMl1bQ0gyXU4oW0NIMl0xKUMoPU8pW05IXVtDSDJdW0NIMl1jMltjSF1bY0hdW2NIXVtjSF1uMg==

> <s_epik_cmdline>
J2VwaWtfcHl0aG9uJywgJy1waCcsICc3LjAnLCAnLXRuJywgJzgnLCAnLW1hJywgJzIwMCcsICctbWV0YWxfYmluZGluZycsICctaW1hZScsICc8aW5maWxlLm1hZT4nLCAnLW9tYWUnLCAnPG91dGZpbGUubWFlPic=

> <r_epik_Ionization_Penalty>
8.07847

> <r_epik_Ionization_Penalty_Charging>
8.0784

> <r_epik_Ionization_Penalty_Neutral>
6.25603e-05

> <r_epik_State_Penalty>
8.17261

> <r_epik_Charging_Adjusted_Penalty>
16.251

> <i_epik_Tot_Q>
0

> <i_epik_Tot_abs_Q>
2

> <r_epik_Metal_State_Penalty>
4.14042

> <b_epik_Metal_Only>
1

> <s_lp_Force_Field>
OPLS_2005

> <r_lp_Energy>
29.5402

> <b_lp_Chiralities_Consistent>
1

> <s_lp_Variant>
AV-unprocessed.smi:1434-7

> <Gold.Version>
5.8.1

> <Gold.Id.Protein>
6NUR|6NUR_protein|mol2

> <Gold.PLP.Fitness>
44.6644

> <Gold.PLP.PLP>
-35.3204

> <Gold.PLP.part.hbond>
-3.5591

> <Gold.PLP.part.metal>
0.0000

> <Gold.PLP.part.buried>
-2.6673

> <Gold.PLP.part.nonpolar>
-28.0562

> <Gold.PLP.part.repulsive>
0.0759

> <Gold.PLP.ligand.clash>
0.0000

> <Gold.PLP.ligand.torsion>
1.1766

> <Gold.PLP.Chemscore.Hbond>
3.5680

> <Gold.PLP.Chemscore.CHOScore>
0.0000

> <Gold.PLP.Chemscore.Metal>
0.0000

> <Gold.Chemscore.Hbonds>
donor molecule, donor type, donor heavy atom, donor atom, acceptor molecule, acceptor atom, score
      L1  H    21    44       P1  8028  2.00
      P1  H  6931  6943       L1     4  0.86
      P1  H  6934  6947       L1     4  0.70

> <Gold.PLP.Chemscore.Internal.Correction>
0.9932

> <Gold.Rescore>
     Score         DG    S(hbond)    S(metal)    S(lipo)     H(rot)  DE(clash)    DE(int)     intcor
     19.31     -20.71       2.67        0.00      92.50       1.77       0.23       1.17       ----

> <Gold.Chemscore.Fitness>
19.3112

> <Gold.Chemscore.DG>
-20.7096

> <Gold.Chemscore.ZeroCoef>
-5.4800

> <Gold.Chemscore.Hbond>
2.6730

> <Gold.Chemscore.Metal>
0.0000

> <Gold.Chemscore.Lipo>
92.5029

> <Gold.Chemscore.Internal_Hbond>
0.0000

> <Gold.Chemscore.DEClash>
0.2254

> <Gold.Chemscore.DEInternal>
1.1729

> <Gold.Chemscore.Rot>
1.7661

> <Gold.Chemscore.Internal.Correction>
   9.000000E+99

> <Gold.Chemscore.Hbonds>
donor molecule, donor type, donor heavy atom, donor atom, acceptor molecule, acceptor atom, score
      L1  H    21    44       P1  8028  0.93
      P1  H  6931  6943       L1     4  0.85
      P1  H  6934  6947       L1     4  0.64

> <Gold.Chemscore.Hbond.Weighted>
-8.9278

> <Gold.Chemscore.Metal.Weighted>
-0.0000

> <Gold.Chemscore.Lipo.Weighted>
-10.8228

> <Gold.Chemscore.Internal_Hbond.Weighted>
0.0000

> <Gold.Chemscore.DEClash.Weighted>
0.2254

> <Gold.Chemscore.DEInternal.Weighted>
1.1729

> <Gold.Chemscore.Rot.Weighted>
4.5211

> <Gold.Chemscore.Internal.Correction.Weighted>
   9.000000E+99

> <Gold.Protein.RotatedTorsions>
[ 6907 6896 6895 6894 ] final  124.10 input  -60.11 | X-H torsion
[ 7974 7965 7964 7962 ] final -157.34 input  175.53 | X-H torsion
[ 8008 7997 7996 7995 ] final  120.15 input   59.86 | X-H torsion
[ 10167 10162 10161 10158 ] final  -59.25 input  -65.29 | X-H torsion
[ 10718 10713 10712 10709 ] final  161.18 input   66.30 | X-H torsion
[ 10763 10752 10751 10750 ] final  150.17 input  -60.55 | X-H torsion
[ 11005 11000 10999 10996 ] final  -71.98 input  -57.11 | X-H torsion

> <Gold.Protein.ActiveResidues>
 VAL166  LYS551  ARG553  GLY616  TRP617  ASP618  TYR619  PRO620  LYS621  CYS622 
 ASP623  PHE694  ASN695  SER759  ASP760  ASP761  ALA762  ILE779  LEU786  VAL792 
 PHE793  MET794  SER795  GLU796  ALA797  LYS798  CYS799  TRP800  GLU811  SER814 

> <Gold.Protein.RotatedAtoms>
  152.4107  133.6958  159.6394 H   0  0  0  0  0  0  0  0  0  0  0  0  # atno 6907 bound_to 6896
  150.7987  133.8629  159.3246 H   0  0  0  0  0  0  0  0  0  0  0  0  # atno 6908 bound_to 6896
  151.6373  135.1018  160.0185 H   0  0  0  0  0  0  0  0  0  0  0  0  # atno 6909 bound_to 6896
  144.7552  140.3982  143.6017 H   0  0  0  0  0  0  0  0  0  0  0  0  # atno 7974 bound_to 7965
  156.2629  140.2837  156.1104 H   0  0  0  0  0  0  0  0  0  0  0  0  # atno 8008 bound_to 7997
  155.1264  140.0393  157.2781 H   0  0  0  0  0  0  0  0  0  0  0  0  # atno 8009 bound_to 7997
  154.6632  140.2571  155.7092 H   0  0  0  0  0  0  0  0  0  0  0  0  # atno 8010 bound_to 7997
  140.6147  143.2398  151.5626 H   0  0  0  0  0  0  0  0  0  0  0  0  # atno 10167 bound_to 10162
  157.1401  131.0538  151.2330 H   0  0  0  0  0  0  0  0  0  0  0  0  # atno 10718 bound_to 10713
  154.0831  135.2858  155.3286 H   0  0  0  0  0  0  0  0  0  0  0  0  # atno 10763 bound_to 10752
  154.6670  135.5313  153.8093 H   0  0  0  0  0  0  0  0  0  0  0  0  # atno 10764 bound_to 10752
  153.0441  135.6548  154.1005 H   0  0  0  0  0  0  0  0  0  0  0  0  # atno 10765 bound_to 10752
  141.1601  133.6833  156.6989 H   0  0  0  0  0  0  0  0  0  0  0  0  # atno 11005 bound_to 11000
  145.6803  139.1617  143.2704 LP  0  0  0  0  0  0  0  0  0  0  0  0  # atno 17320 bound_to 7965
  146.1554  140.6865  142.9302 LP  0  0  0  0  0  0  0  0  0  0  0  0  # atno 17321 bound_to 7965
  139.5389  144.2704  152.1309 LP  0  0  0  0  0  0  0  0  0  0  0  0  # atno 17342 bound_to 10162
  140.1910  144.4751  150.6479 LP  0  0  0  0  0  0  0  0  0  0  0  0  # atno 17343 bound_to 10162
  157.4314  130.7493  149.6993 LP  0  0  0  0  0  0  0  0  0  0  0  0  # atno 17370 bound_to 10713
  155.9790  130.4045  150.3613 LP  0  0  0  0  0  0  0  0  0  0  0  0  # atno 17371 bound_to 10713
  140.2973  134.8192  157.4068 LP  0  0  0  0  0  0  0  0  0  0  0  0  # atno 17394 bound_to 11000
  140.1293  134.5117  155.8119 LP  0  0  0  0  0  0  0  0  0  0  0  0  # atno 17395 bound_to 11000

$$$$
