AV-unprocessed.smi:2351|AV-procd|sdf|9377|dock4
  -GOLD-   2272013 03D 1   1.00000     0.00000
 Structure written by MMmdl.
 47 49  0  0  0  0  0  0  0  0  2 V2000
  143.0090  136.1539  152.6534 O   0  0  0  0  0  0  0  0  0  0  0  0
  143.1744  137.3716  152.7129 C   0  0  0  0  0  0  0  0  0  0  0  0
  142.2420  138.2713  153.0708 N   0  0  0  0  0  0  0  0  0  0  0  0
  140.9057  138.0528  153.5061 C   0  0  0  0  0  0  0  0  0  0  0  0
  140.2618  136.7913  153.5098 C   0  0  0  0  0  0  0  0  0  0  0  0
  138.9376  136.7107  153.9864 C   0  0  0  0  0  0  0  0  0  0  0  0
  138.2469  137.7737  154.4495 N   0  0  0  0  0  0  0  0  0  0  0  0
  138.8676  138.9722  154.4557 C   0  0  0  0  0  0  0  0  0  0  0  0
  140.1882  139.1622  154.0016 C   0  0  0  0  0  0  0  0  0  0  0  0
  140.7539  140.3931  154.0405 F   0  0  0  0  0  0  0  0  0  0  0  0
  144.3336  137.9728  152.4074 N   0  0  0  0  0  0  0  0  0  0  0  0
  145.5521  137.2904  151.9718 C   0  0  2  0  0  0  0  0  0  0  0  0
  146.0725  136.3041  153.0364 C   0  0  0  0  0  0  0  0  0  0  0  0
  146.6400  137.0325  154.2670 C   0  0  0  0  0  0  0  0  0  0  0  0
  147.7100  137.9874  153.8794 N   0  3  2  0  0  0  0  0  0  0  0  0
  148.3736  138.5953  155.0613 C   0  0  0  0  0  0  0  0  0  0  0  0
  149.7824  139.1329  154.7416 C   0  0  1  0  0  0  0  0  0  0  0  0
  150.4423  139.8398  155.9082 C   0  0  0  0  0  0  0  0  0  0  0  0
  151.9132  139.8196  155.5023 C   0  0  0  0  0  0  0  0  0  0  0  0
  152.0851  138.6410  154.7200 O   0  0  0  0  0  0  0  0  0  0  0  0
  150.8201  138.0498  154.4425 C   0  0  0  0  0  0  0  0  0  0  0  0
  147.2147  138.9922  152.9007 C   0  0  0  0  0  0  0  0  0  0  0  0
  146.6514  138.3135  151.6381 C   0  0  0  0  0  0  0  0  0  0  0  0
  142.5081  139.2417  152.9893 H   0  0  0  0  0  0  0  0  0  0  0  0
  140.7501  135.8905  153.1731 H   0  0  0  0  0  0  0  0  0  0  0  0
  138.4206  135.7627  154.0012 H   0  0  0  0  0  0  0  0  0  0  0  0
  138.2951  139.8050  154.8366 H   0  0  0  0  0  0  0  0  0  0  0  0
  144.3732  138.9796  152.4704 H   0  0  0  0  0  0  0  0  0  0  0  0
  145.3172  136.7359  151.0614 H   0  0  0  0  0  0  0  0  0  0  0  0
  145.2863  135.6128  153.3412 H   0  0  0  0  0  0  0  0  0  0  0  0
  146.8575  135.6874  152.5967 H   0  0  0  0  0  0  0  0  0  0  0  0
  145.8468  137.5645  154.7948 H   0  0  0  0  0  0  0  0  0  0  0  0
  147.0399  136.2928  154.9617 H   0  0  0  0  0  0  0  0  0  0  0  0
  147.7435  139.3896  155.4644 H   0  0  0  0  0  0  0  0  0  0  0  0
  148.4635  137.8495  155.8527 H   0  0  0  0  0  0  0  0  0  0  0  0
  149.7492  139.8324  153.9062 H   0  0  0  0  0  0  0  0  0  0  0  0
  150.0620  140.8488  156.0699 H   0  0  0  0  0  0  0  0  0  0  0  0
  150.3034  139.2713  156.8292 H   0  0  0  0  0  0  0  0  0  0  0  0
  152.1491  140.6843  154.8810 H   0  0  0  0  0  0  0  0  0  0  0  0
  152.5819  139.8286  156.3633 H   0  0  0  0  0  0  0  0  0  0  0  0
  150.6896  137.1929  155.1050 H   0  0  0  0  0  0  0  0  0  0  0  0
  150.7661  137.6921  153.4139 H   0  0  0  0  0  0  0  0  0  0  0  0
  146.4488  139.6117  153.3698 H   0  0  0  0  0  0  0  0  0  0  0  0
  148.0196  139.6635  152.6047 H   0  0  0  0  0  0  0  0  0  0  0  0
  147.4640  137.8067  151.1157 H   0  0  0  0  0  0  0  0  0  0  0  0
  146.2713  139.0655  150.9453 H   0  0  0  0  0  0  0  0  0  0  0  0
  148.4150  137.4386  153.4082 H   0  0  0  0  0  0  0  0  0  0  0  0
  1  2  2  0  0  0  0
  2  3  1  0  0  0  0
  2 11  1  0  0  0  0
  3  4  1  0  0  0  0
  3 24  1  0  0  0  0
  4  9  1  0  0  0  0
  4  5  2  0  0  0  0
  5  6  1  0  0  0  0
  5 25  1  0  0  0  0
  6  7  2  0  0  0  0
  6 26  1  0  0  0  0
  7  8  1  0  0  0  0
  8  9  2  0  0  0  0
  8 27  1  0  0  0  0
  9 10  1  0  0  0  0
 11 12  1  0  0  0  0
 11 28  1  0  0  0  0
 12 23  1  0  0  0  0
 12 13  1  0  0  0  0
 12 29  1  0  0  0  0
 13 14  1  0  0  0  0
 13 30  1  0  0  0  0
 13 31  1  0  0  0  0
 14 15  1  0  0  0  0
 14 32  1  0  0  0  0
 14 33  1  0  0  0  0
 15 16  1  0  0  0  0
 15 22  1  0  0  0  0
 15 47  1  0  0  0  0
 16 17  1  0  0  0  0
 16 34  1  0  0  0  0
 16 35  1  0  0  0  0
 17 21  1  0  0  0  0
 17 18  1  0  0  0  0
 17 36  1  0  0  0  0
 18 19  1  0  0  0  0
 18 37  1  0  0  0  0
 18 38  1  0  0  0  0
 19 20  1  0  0  0  0
 19 39  1  0  0  0  0
 19 40  1  0  0  0  0
 20 21  1  0  0  0  0
 21 41  1  0  0  0  0
 21 42  1  0  0  0  0
 22 23  1  0  0  0  0
 22 43  1  0  0  0  0
 22 44  1  0  0  0  0
 23 45  1  0  0  0  0
 23 46  1  0  0  0  0
M  CHG  1  15   1
M  END
> <s_m_source_file>
AV-unprocessed.smi

> <i_m_source_file_index>
2351

> <i_lp_mmshare_version>
43012

> <i_f3d_flags>
0

> <s_epik_input>
RmMxW2NIXW5bY0hdW2NIXWMxW05IXUMoPU8pW05IXVtDSF0yW0NIMl1bQ0gyXU4oW0NIMl1bQ0gyXTIpW0NIMl1bQ0BASF0zW0NIMl1bQ0gyXU9bQ0gyXTM=

> <s_epik_cmdline>
J2VwaWtfcHl0aG9uJywgJy1waCcsICc3LjAnLCAnLXRuJywgJzgnLCAnLW1hJywgJzIwMCcsICctbWV0YWxfYmluZGluZycsICctaW1hZScsICc8aW5maWxlLm1hZT4nLCAnLW9tYWUnLCAnPG91dGZpbGUubWFlPic=

> <r_epik_Ionization_Penalty>
0.0102464

> <r_epik_Ionization_Penalty_Charging>
0.00747775

> <r_epik_Ionization_Penalty_Neutral>
0.00276864

> <r_epik_State_Penalty>
0.00558817

> <r_epik_Charging_Adjusted_Penalty>
0.0130659

> <i_epik_Tot_Q>
1

> <i_epik_Tot_abs_Q>
1

> <r_epik_Metal_State_Penalty>
-0

> <b_epik_Metal_Only>
0

> <s_lp_Force_Field>
OPLS_2005

> <r_lp_Energy>
39.2901

> <b_lp_Chiralities_Consistent>
1

> <s_lp_Variant>
AV-unprocessed.smi:2351-4

> <Gold.Version>
5.8.1

> <Gold.Id.Protein>
6NUR|6NUR_protein|mol2

> <Gold.PLP.Fitness>
47.7552

> <Gold.PLP.PLP>
-36.1484

> <Gold.PLP.part.hbond>
-4.0000

> <Gold.PLP.part.metal>
0.0000

> <Gold.PLP.part.buried>
1.3328

> <Gold.PLP.part.nonpolar>
-33.7913

> <Gold.PLP.part.repulsive>
0.3406

> <Gold.PLP.ligand.clash>
0.0000

> <Gold.PLP.ligand.torsion>
0.2108

> <Gold.PLP.Chemscore.Hbond>
4.0000

> <Gold.PLP.Chemscore.CHOScore>
0.0000

> <Gold.PLP.Chemscore.Metal>
0.0000

> <Gold.Chemscore.Hbonds>
donor molecule, donor type, donor heavy atom, donor atom, acceptor molecule, acceptor atom, score
      L1  H     3    24       P1 10175  1.00
      L1  H    11    28       P1 10175  1.00
      L1  H    15    47       P1  7948  2.00

> <Gold.PLP.Chemscore.Internal.Correction>
0.0284

> <Gold.Rescore>
     Score         DG    S(hbond)    S(metal)    S(lipo)     H(rot)  DE(clash)    DE(int)     intcor
     19.73     -21.60       2.80        0.00      89.58       1.45       0.44       1.42       ----

> <Gold.Chemscore.Fitness>
19.7338

> <Gold.Chemscore.DG>
-21.5962

> <Gold.Chemscore.ZeroCoef>
-5.4800

> <Gold.Chemscore.Hbond>
2.7975

> <Gold.Chemscore.Metal>
0.0000

> <Gold.Chemscore.Lipo>
89.5758

> <Gold.Chemscore.Internal_Hbond>
0.0000

> <Gold.Chemscore.DEClash>
0.4387

> <Gold.Chemscore.DEInternal>
1.4237

> <Gold.Chemscore.Rot>
1.4483

> <Gold.Chemscore.Internal.Correction>
   9.000000E+99

> <Gold.Chemscore.Hbonds>
donor molecule, donor type, donor heavy atom, donor atom, acceptor molecule, acceptor atom, score
      L1  H     3    24       P1 10175  0.95
      L1  H    11    28       P1 10175  0.95
      L1  H    15    47       P1  7948  0.88

> <Gold.Chemscore.Hbond.Weighted>
-9.3436

> <Gold.Chemscore.Metal.Weighted>
-0.0000

> <Gold.Chemscore.Lipo.Weighted>
-10.4804

> <Gold.Chemscore.Internal_Hbond.Weighted>
0.0000

> <Gold.Chemscore.DEClash.Weighted>
0.4387

> <Gold.Chemscore.DEInternal.Weighted>
1.4237

> <Gold.Chemscore.Rot.Weighted>
3.7077

> <Gold.Chemscore.Internal.Correction.Weighted>
   9.000000E+99

> <Gold.Protein.RotatedTorsions>
[ 6907 6896 6895 6894 ] final  -51.92 input  -60.11 | X-H torsion
[ 7974 7965 7964 7962 ] final -161.46 input  175.53 | X-H torsion
[ 8008 7997 7996 7995 ] final  119.15 input   59.86 | X-H torsion
[ 10167 10162 10161 10158 ] final   27.63 input  -65.29 | X-H torsion
[ 10718 10713 10712 10709 ] final   69.09 input   66.30 | X-H torsion
[ 10763 10752 10751 10750 ] final  155.71 input  -60.55 | X-H torsion
[ 11005 11000 10999 10996 ] final  177.72 input  -57.11 | X-H torsion

> <Gold.Protein.ActiveResidues>
 VAL166  LYS551  ARG553  GLY616  TRP617  ASP618  TYR619  PRO620  LYS621  CYS622 
 ASP623  PHE694  ASN695  SER759  ASP760  ASP761  ALA762  ILE779  LEU786  VAL792 
 PHE793  MET794  SER795  GLU796  ALA797  LYS798  CYS799  TRP800  GLU811  SER814 

> <Gold.Protein.RotatedAtoms>
  150.8566  134.7907  159.7050 H   0  0  0  0  0  0  0  0  0  0  0  0  # atno 6907 bound_to 6896
  152.4616  134.5168  159.9780 H   0  0  0  0  0  0  0  0  0  0  0  0  # atno 6908 bound_to 6896
  151.5279  133.3416  159.2948 H   0  0  0  0  0  0  0  0  0  0  0  0  # atno 6909 bound_to 6896
  144.7390  140.3394  143.6137 H   0  0  0  0  0  0  0  0  0  0  0  0  # atno 7974 bound_to 7965
  156.2582  140.2859  156.0946 H   0  0  0  0  0  0  0  0  0  0  0  0  # atno 8008 bound_to 7997
  155.1425  140.0396  157.2819 H   0  0  0  0  0  0  0  0  0  0  0  0  # atno 8009 bound_to 7997
  154.6519  140.2546  155.7211 H   0  0  0  0  0  0  0  0  0  0  0  0  # atno 8010 bound_to 7997
  140.4922  144.0449  150.6301 H   0  0  0  0  0  0  0  0  0  0  0  0  # atno 10167 bound_to 10162
  157.6326  130.9407  150.0466 H   0  0  0  0  0  0  0  0  0  0  0  0  # atno 10718 bound_to 10713
  154.1728  135.2803  155.3076 H   0  0  0  0  0  0  0  0  0  0  0  0  # atno 10763 bound_to 10752
  154.6062  135.5513  153.7429 H   0  0  0  0  0  0  0  0  0  0  0  0  # atno 10764 bound_to 10752
  153.0160  135.6404  154.1868 H   0  0  0  0  0  0  0  0  0  0  0  0  # atno 10765 bound_to 10752
  140.3872  134.6894  157.4486 H   0  0  0  0  0  0  0  0  0  0  0  0  # atno 11005 bound_to 11000
  145.7390  139.1758  143.2387 LP  0  0  0  0  0  0  0  0  0  0  0  0  # atno 17320 bound_to 7965
  146.1149  140.7382  142.9485 LP  0  0  0  0  0  0  0  0  0  0  0  0  # atno 17321 bound_to 7965
  140.3721  143.2849  152.0266 LP  0  0  0  0  0  0  0  0  0  0  0  0  # atno 17342 bound_to 10162
  139.4853  144.6221  151.7234 LP  0  0  0  0  0  0  0  0  0  0  0  0  # atno 17343 bound_to 10162
  156.1541  130.3643  149.9395 LP  0  0  0  0  0  0  0  0  0  0  0  0  # atno 17370 bound_to 10713
  156.7408  130.9079  151.3632 LP  0  0  0  0  0  0  0  0  0  0  0  0  # atno 17371 bound_to 10713
  140.0434  134.6235  155.8952 LP  0  0  0  0  0  0  0  0  0  0  0  0  # atno 17394 bound_to 11000
  141.1903  133.6568  156.5407 LP  0  0  0  0  0  0  0  0  0  0  0  0  # atno 17395 bound_to 11000

$$$$
