AV-unprocessed.smi:1841|AV-procd|sdf|7497|dock1
  -GOLD-   22720 9193D 1   1.00000     0.00000
 Structure written by MMmdl.
 40 41  0  0  0  0  0  0  0  0  1 V2000
  145.1455  136.0260  151.1832 C   0  0  0  0  0  0  0  0  0  0  0  0
  145.4724  136.9852  152.1733 O   0  0  0  0  0  0  0  0  0  0  0  0
  146.1348  138.1177  151.6355 C   0  0  0  0  0  0  0  0  0  0  0  0
  146.4528  139.0972  152.7691 C   0  0  0  0  0  0  0  0  0  0  0  0
  147.6350  138.6601  153.4326 O   0  0  0  0  0  0  0  0  0  0  0  0
  148.3399  139.5700  154.1931 C   0  0  0  0  0  0  0  0  0  0  0  0
  149.5342  139.1485  154.8103 C   0  0  0  0  0  0  0  0  0  0  0  0
  150.2576  140.0674  155.5941 C   0  0  0  0  0  0  0  0  0  0  0  0
  149.7565  141.3826  155.7435 C   0  0  0  0  0  0  0  0  0  0  0  0
  150.3984  142.4032  156.4958 N   0  0  0  0  0  0  0  0  0  0  0  0
  151.3211  142.2745  157.4673 C   0  0  0  0  0  0  0  0  0  0  0  0
  151.7596  141.1992  157.8759 O   0  0  0  0  0  0  0  0  0  0  0  0
  151.8170  143.5857  158.0991 C   0  0  1  0  0  0  0  0  0  0  0  0
  150.6471  144.4154  158.6672 C   0  0  0  0  0  0  0  0  0  0  0  0
  150.8642  144.3778  160.1707 C   0  0  0  0  0  0  0  0  0  0  0  0
  150.0624  144.8527  160.9735 O   0  0  0  0  0  0  0  0  0  0  0  0
  152.0107  143.7622  160.4728 N   0  0  0  0  0  0  0  0  0  0  0  0
  152.5207  143.5195  161.8155 C   0  0  0  0  0  0  0  0  0  0  0  0
  152.7582  143.3424  159.3000 C   0  0  0  0  0  0  0  0  0  0  0  0
  148.5617  141.7094  155.0691 C   0  0  0  0  0  0  0  0  0  0  0  0
  147.8632  140.8334  154.3166 N   0  0  0  0  0  0  0  0  0  0  0  0
  144.6349  135.1815  151.6459 H   0  0  0  0  0  0  0  0  0  0  0  0
  146.0421  135.6480  150.6901 H   0  0  0  0  0  0  0  0  0  0  0  0
  144.4817  136.4486  150.4279 H   0  0  0  0  0  0  0  0  0  0  0  0
  147.0482  137.8276  151.1139 H   0  0  0  0  0  0  0  0  0  0  0  0
  145.4814  138.6022  150.9085 H   0  0  0  0  0  0  0  0  0  0  0  0
  146.6207  140.0903  152.3488 H   0  0  0  0  0  0  0  0  0  0  0  0
  145.6084  139.1615  153.4576 H   0  0  0  0  0  0  0  0  0  0  0  0
  149.8905  138.1368  154.6832 H   0  0  0  0  0  0  0  0  0  0  0  0
  151.1817  139.7491  156.0510 H   0  0  0  0  0  0  0  0  0  0  0  0
  150.0682  143.3413  156.3213 H   0  0  0  0  0  0  0  0  0  0  0  0
  152.3440  144.1691  157.3419 H   0  0  0  0  0  0  0  0  0  0  0  0
  150.6909  145.4478  158.3191 H   0  0  0  0  0  0  0  0  0  0  0  0
  149.6627  144.0171  158.4150 H   0  0  0  0  0  0  0  0  0  0  0  0
  152.4626  144.4232  162.4239 H   0  0  0  0  0  0  0  0  0  0  0  0
  153.5630  143.2003  161.7861 H   0  0  0  0  0  0  0  0  0  0  0  0
  151.9391  142.7377  162.3047 H   0  0  0  0  0  0  0  0  0  0  0  0
  153.0685  142.3004  159.3977 H   0  0  0  0  0  0  0  0  0  0  0  0
  153.6616  143.9475  159.2125 H   0  0  0  0  0  0  0  0  0  0  0  0
  148.1471  142.7045  155.1399 H   0  0  0  0  0  0  0  0  0  0  0  0
  1  2  1  0  0  0  0
  1 22  1  0  0  0  0
  1 23  1  0  0  0  0
  1 24  1  0  0  0  0
  2  3  1  0  0  0  0
  3  4  1  0  0  0  0
  3 25  1  0  0  0  0
  3 26  1  0  0  0  0
  4  5  1  0  0  0  0
  4 27  1  0  0  0  0
  4 28  1  0  0  0  0
  5  6  1  0  0  0  0
  6 21  1  0  0  0  0
  6  7  2  0  0  0  0
  7  8  1  0  0  0  0
  7 29  1  0  0  0  0
  8  9  2  0  0  0  0
  8 30  1  0  0  0  0
  9 10  1  0  0  0  0
  9 20  1  0  0  0  0
 10 11  1  0  0  0  0
 10 31  1  0  0  0  0
 11 12  2  0  0  0  0
 11 13  1  0  0  0  0
 13 19  1  0  0  0  0
 13 14  1  0  0  0  0
 13 32  1  0  0  0  0
 14 15  1  0  0  0  0
 14 33  1  0  0  0  0
 14 34  1  0  0  0  0
 15 16  2  0  0  0  0
 15 17  1  0  0  0  0
 17 18  1  0  0  0  0
 17 19  1  0  0  0  0
 18 35  1  0  0  0  0
 18 36  1  0  0  0  0
 18 37  1  0  0  0  0
 19 38  1  0  0  0  0
 19 39  1  0  0  0  0
 20 21  2  0  0  0  0
 20 40  1  0  0  0  0
M  END
> <s_m_source_file>
AV-unprocessed.smi

> <i_m_source_file_index>
1841

> <i_lp_mmshare_version>
43012

> <i_f3d_flags>
0

> <s_epik_input>
W0NIM11PW0NIMl1bQ0gyXU9jMVtjSF1bY0hdYyhbY0hdbjEpW05IXUMoPU8pW0NAQEhdMltDSDJdQyg9TylOKFtDSDNdKVtDSDJdMg==

> <s_epik_cmdline>
J2VwaWtfcHl0aG9uJywgJy1waCcsICc3LjAnLCAnLXRuJywgJzgnLCAnLW1hJywgJzIwMCcsICctbWV0YWxfYmluZGluZycsICctaW1hZScsICc8aW5maWxlLm1hZT4nLCAnLW9tYWUnLCAnPG91dGZpbGUubWFlPic=

> <r_lp_tautomer_probability>
1

> <r_epik_Ionization_Penalty>
1.70347e-05

> <r_epik_Ionization_Penalty_Charging>
0

> <r_epik_Ionization_Penalty_Neutral>
1.70347e-05

> <r_epik_State_Penalty>
-0

> <r_epik_Charging_Adjusted_Penalty>
0

> <i_epik_Tot_Q>
0

> <i_epik_Tot_abs_Q>
0

> <r_epik_Metal_State_Penalty>
-0

> <b_epik_Metal_Only>
0

> <s_lp_Force_Field>
OPLS_2005

> <r_lp_Energy>
17.1342

> <b_lp_Chiralities_Consistent>
1

> <s_lp_Variant>
AV-unprocessed.smi:1841-2

> <Gold.Version>
5.8.1

> <Gold.Id.Protein>
6NUR|6NUR_protein|mol2

> <Gold.PLP.Fitness>
47.4176

> <Gold.PLP.PLP>
-42.0037

> <Gold.PLP.part.hbond>
-1.0714

> <Gold.PLP.part.metal>
0.0000

> <Gold.PLP.part.buried>
-1.8564

> <Gold.PLP.part.nonpolar>
-42.6006

> <Gold.PLP.part.repulsive>
4.0259

> <Gold.PLP.ligand.clash>
0.0000

> <Gold.PLP.ligand.torsion>
0.3243

> <Gold.PLP.Chemscore.Hbond>
1.0000

> <Gold.PLP.Chemscore.CHOScore>
1.0000

> <Gold.PLP.Chemscore.Metal>
0.0000

> <Gold.Chemscore.Hbonds>
donor molecule, donor type, donor heavy atom, donor atom, acceptor molecule, acceptor atom, score
      L1  H    10    31       P1  8028  1.00
      L1  C    20    40       P1  8028  1.00

> <Gold.PLP.Chemscore.Internal.Correction>
0.0624

> <Gold.Rescore>
     Score         DG    S(hbond)    S(metal)    S(lipo)     H(rot)  DE(clash)    DE(int)     intcor
     12.82     -14.89       0.98        0.00      95.10       1.95       0.59       1.48       ----

> <Gold.Chemscore.Fitness>
12.8183

> <Gold.Chemscore.DG>
-14.8904

> <Gold.Chemscore.ZeroCoef>
-5.4800

> <Gold.Chemscore.Hbond>
0.9783

> <Gold.Chemscore.Metal>
0.0000

> <Gold.Chemscore.Lipo>
95.1014

> <Gold.Chemscore.Internal_Hbond>
0.0000

> <Gold.Chemscore.DEClash>
0.5935

> <Gold.Chemscore.DEInternal>
1.4786

> <Gold.Chemscore.Rot>
1.9468

> <Gold.Chemscore.Internal.Correction>
   9.000000E+99

> <Gold.Chemscore.Hbonds>
donor molecule, donor type, donor heavy atom, donor atom, acceptor molecule, acceptor atom, score
      L1  H    10    31       P1  8028  0.99

> <Gold.Chemscore.Hbond.Weighted>
-3.2674

> <Gold.Chemscore.Metal.Weighted>
-0.0000

> <Gold.Chemscore.Lipo.Weighted>
-11.1269

> <Gold.Chemscore.Internal_Hbond.Weighted>
0.0000

> <Gold.Chemscore.DEClash.Weighted>
0.5935

> <Gold.Chemscore.DEInternal.Weighted>
1.4786

> <Gold.Chemscore.Rot.Weighted>
4.9839

> <Gold.Chemscore.Internal.Correction.Weighted>
   9.000000E+99

> <Gold.Protein.RotatedTorsions>
[ 6907 6896 6895 6894 ] final  143.49 input  -60.11 | X-H torsion
[ 7974 7965 7964 7962 ] final  -27.52 input  175.53 | X-H torsion
[ 8008 7997 7996 7995 ] final  -57.59 input   59.86 | X-H torsion
[ 10167 10162 10161 10158 ] final   85.65 input  -65.29 | X-H torsion
[ 10718 10713 10712 10709 ] final -107.46 input   66.30 | X-H torsion
[ 10763 10752 10751 10750 ] final -157.76 input  -60.55 | X-H torsion
[ 11005 11000 10999 10996 ] final  -37.63 input  -57.11 | X-H torsion

> <Gold.Protein.ActiveResidues>
 VAL166  LYS551  ARG553  GLY616  TRP617  ASP618  TYR619  PRO620  LYS621  CYS622 
 ASP623  PHE694  ASN695  SER759  ASP760  ASP761  ALA762  ILE779  LEU786  VAL792 
 PHE793  MET794  SER795  GLU796  ALA797  LYS798  CYS799  TRP800  GLU811  SER814 

> <Gold.Protein.RotatedAtoms>
  152.2056  133.4873  159.5081 H   0  0  0  0  0  0  0  0  0  0  0  0  # atno 6907 bound_to 6896
  150.6979  134.1534  159.4158 H   0  0  0  0  0  0  0  0  0  0  0  0  # atno 6908 bound_to 6896
  151.9452  135.0195  160.0589 H   0  0  0  0  0  0  0  0  0  0  0  0  # atno 6909 bound_to 6896
  146.1352  140.5163  142.8676 H   0  0  0  0  0  0  0  0  0  0  0  0  # atno 7974 bound_to 7965
  154.4274  140.1103  156.5822 H   0  0  0  0  0  0  0  0  0  0  0  0  # atno 8008 bound_to 7997
  155.6100  140.3494  155.4600 H   0  0  0  0  0  0  0  0  0  0  0  0  # atno 8009 bound_to 7997
  156.0107  140.1218  157.0446 H   0  0  0  0  0  0  0  0  0  0  0  0  # atno 8010 bound_to 7997
  139.8956  144.6360  150.8692 H   0  0  0  0  0  0  0  0  0  0  0  0  # atno 10167 bound_to 10162
  156.0437  130.5663  150.7824 H   0  0  0  0  0  0  0  0  0  0  0  0  # atno 10718 bound_to 10713
  154.7610  135.3118  154.8378 H   0  0  0  0  0  0  0  0  0  0  0  0  # atno 10763 bound_to 10752
  153.9138  135.6803  153.4754 H   0  0  0  0  0  0  0  0  0  0  0  0  # atno 10764 bound_to 10752
  153.1211  135.4822  154.9128 H   0  0  0  0  0  0  0  0  0  0  0  0  # atno 10765 bound_to 10752
  140.9967  133.6977  156.1947 H   0  0  0  0  0  0  0  0  0  0  0  0  # atno 11005 bound_to 11000
  144.7732  140.5683  143.6656 LP  0  0  0  0  0  0  0  0  0  0  0  0  # atno 17320 bound_to 7965
  145.5172  139.1477  143.3572 LP  0  0  0  0  0  0  0  0  0  0  0  0  # atno 17321 bound_to 7965
  140.7717  143.3476  151.2079 LP  0  0  0  0  0  0  0  0  0  0  0  0  # atno 17342 bound_to 10162
  139.7071  143.9438  152.2931 LP  0  0  0  0  0  0  0  0  0  0  0  0  # atno 17343 bound_to 10162
  157.5288  131.0935  150.9983 LP  0  0  0  0  0  0  0  0  0  0  0  0  # atno 17370 bound_to 10713
  157.0294  130.5705  149.5341 LP  0  0  0  0  0  0  0  0  0  0  0  0  # atno 17371 bound_to 10713
  140.6955  134.4620  157.5587 LP  0  0  0  0  0  0  0  0  0  0  0  0  # atno 17394 bound_to 11000
  139.9018  134.8539  156.1865 LP  0  0  0  0  0  0  0  0  0  0  0  0  # atno 17395 bound_to 11000

$$$$
