AV-unprocessed.smi:3348|AV-procd|sdf|12924|dock6
  -GOLD-   2272019343D 1   1.00000     0.00000
 Structure written by MMmdl.
 46 47  0  0  0  0  0  0  0  0  1 V2000
  148.0767  141.1563  153.4723 C   0  0  0  0  0  0  0  0  0  0  0  0
  148.3232  140.8573  154.9612 C   0  0  1  0  0  0  0  0  0  0  0  0
  148.3655  139.3376  155.2586 C   0  0  0  0  0  0  0  0  0  0  0  0
  149.6909  138.7606  155.1192 N   0  0  0  0  0  0  0  0  0  0  0  0
  150.5259  138.7848  154.0218 C   0  0  0  0  0  0  0  0  0  0  0  0
  151.6703  138.1252  154.3675 C   0  0  0  0  0  0  0  0  0  0  0  0
  151.4401  137.7329  155.7155 C   0  0  0  0  0  0  0  0  0  0  0  0
  150.2564  138.1184  156.1643 N   0  0  0  0  0  0  0  0  0  0  0  0
  149.5570  141.5282  155.3831 N   0  0  0  0  0  0  0  0  0  0  0  0
  149.7286  141.6875  156.8265 C   0  0  0  0  0  0  0  0  0  0  0  0
  150.9834  142.5175  157.1442 C   0  0  0  0  0  0  0  0  0  0  0  0
  150.8191  143.3191  158.3081 O   0  0  0  0  0  0  0  0  0  0  0  0
  151.8979  143.2779  159.2363 C   0  0  2  0  0  0  0  0  0  0  0  0
  152.1267  141.8019  159.6120 C   0  0  0  0  0  0  0  0  0  0  0  0
  153.2003  141.6592  160.7002 C   0  0  0  0  0  0  0  0  0  0  0  0
  152.8356  142.4870  161.9409 C   0  0  0  0  0  0  0  0  0  0  0  0
  152.6033  143.9615  161.5751 C   0  0  0  0  0  0  0  0  0  0  0  0
  151.5297  144.1202  160.4790 C   0  0  1  0  0  0  0  0  0  0  0  0
  151.3304  145.6033  160.1283 C   0  0  0  0  0  0  0  0  0  0  0  0
  147.1104  140.7773  153.1389 H   0  0  0  0  0  0  0  0  0  0  0  0
  148.8466  140.7066  152.8445 H   0  0  0  0  0  0  0  0  0  0  0  0
  148.0792  142.2304  153.2841 H   0  0  0  0  0  0  0  0  0  0  0  0
  147.4888  141.2866  155.5175 H   0  0  0  0  0  0  0  0  0  0  0  0
  148.0164  139.1455  156.2744 H   0  0  0  0  0  0  0  0  0  0  0  0
  147.7005  138.7892  154.5910 H   0  0  0  0  0  0  0  0  0  0  0  0
  150.2392  139.2628  153.0967 H   0  0  0  0  0  0  0  0  0  0  0  0
  152.5401  137.9507  153.7517 H   0  0  0  0  0  0  0  0  0  0  0  0
  152.0944  137.1852  156.3775 H   0  0  0  0  0  0  0  0  0  0  0  0
  150.3620  141.0463  154.9957 H   0  0  0  0  0  0  0  0  0  0  0  0
  148.8399  142.1344  157.2719 H   0  0  0  0  0  0  0  0  0  0  0  0
  149.8505  140.7118  157.2949 H   0  0  0  0  0  0  0  0  0  0  0  0
  151.8488  141.8651  157.2685 H   0  0  0  0  0  0  0  0  0  0  0  0
  151.2160  143.1726  156.3039 H   0  0  0  0  0  0  0  0  0  0  0  0
  152.8174  143.6777  158.8039 H   0  0  0  0  0  0  0  0  0  0  0  0
  151.1920  141.3654  159.9664 H   0  0  0  0  0  0  0  0  0  0  0  0
  152.4170  141.2305  158.7299 H   0  0  0  0  0  0  0  0  0  0  0  0
  153.3161  140.6100  160.9736 H   0  0  0  0  0  0  0  0  0  0  0  0
  154.1643  141.9869  160.3095 H   0  0  0  0  0  0  0  0  0  0  0  0
  151.9358  142.0786  162.4023 H   0  0  0  0  0  0  0  0  0  0  0  0
  153.6280  142.4088  162.6857 H   0  0  0  0  0  0  0  0  0  0  0  0
  152.3093  144.5146  162.4679 H   0  0  0  0  0  0  0  0  0  0  0  0
  153.5424  144.4016  161.2367 H   0  0  0  0  0  0  0  0  0  0  0  0
  150.5862  143.7436  160.8772 H   0  0  0  0  0  0  0  0  0  0  0  0
  152.2369  146.0352  159.7031 H   0  0  0  0  0  0  0  0  0  0  0  0
  151.0679  146.1837  161.0131 H   0  0  0  0  0  0  0  0  0  0  0  0
  150.5272  145.7353  159.4031 H   0  0  0  0  0  0  0  0  0  0  0  0
  1  2  1  0  0  0  0
  1 20  1  0  0  0  0
  1 21  1  0  0  0  0
  1 22  1  0  0  0  0
  2  3  1  0  0  0  0
  2  9  1  0  0  0  0
  2 23  1  0  0  0  0
  3  4  1  0  0  0  0
  3 24  1  0  0  0  0
  3 25  1  0  0  0  0
  4  8  1  0  0  0  0
  4  5  1  0  0  0  0
  5  6  2  0  0  0  0
  5 26  1  0  0  0  0
  6  7  1  0  0  0  0
  6 27  1  0  0  0  0
  7  8  2  0  0  0  0
  7 28  1  0  0  0  0
  9 10  1  0  0  0  0
  9 29  1  0  0  0  0
 10 11  1  0  0  0  0
 10 30  1  0  0  0  0
 10 31  1  0  0  0  0
 11 12  1  0  0  0  0
 11 32  1  0  0  0  0
 11 33  1  0  0  0  0
 12 13  1  0  0  0  0
 13 18  1  0  0  0  0
 13 14  1  0  0  0  0
 13 34  1  0  0  0  0
 14 15  1  0  0  0  0
 14 35  1  0  0  0  0
 14 36  1  0  0  0  0
 15 16  1  0  0  0  0
 15 37  1  0  0  0  0
 15 38  1  0  0  0  0
 16 17  1  0  0  0  0
 16 39  1  0  0  0  0
 16 40  1  0  0  0  0
 17 18  1  0  0  0  0
 17 41  1  0  0  0  0
 17 42  1  0  0  0  0
 18 19  1  0  0  0  0
 18 43  1  0  0  0  0
 19 44  1  0  0  0  0
 19 45  1  0  0  0  0
 19 46  1  0  0  0  0
M  END
> <s_m_source_file>
AV-unprocessed.smi

> <i_m_source_file_index>
3348

> <i_lp_mmshare_version>
43012

> <i_f3d_flags>
0

> <s_epik_input>
bjFbY0hdW2NIXVtjSF1uMVtDSDJdW0NAQEhdKFtDSDNdKVtOSF1bQ0gyXVtDSDJdT1tDQEBIXTJbQ0gyXVtDSDJdW0NIMl1bQ0gyXVtDQEhdMltDSDNd

> <s_epik_cmdline>
J2VwaWtfcHl0aG9uJywgJy1waCcsICc3LjAnLCAnLXRuJywgJzgnLCAnLW1hJywgJzIwMCcsICctbWV0YWxfYmluZGluZycsICctaW1hZScsICc8aW5maWxlLm1hZT4nLCAnLW9tYWUnLCAnPG91dGZpbGUubWFlPic=

> <r_lp_tautomer_probability>
1

> <r_epik_Ionization_Penalty>
2.46945

> <r_epik_Ionization_Penalty_Charging>
0

> <r_epik_Ionization_Penalty_Neutral>
2.46945

> <r_epik_State_Penalty>
2.6322

> <r_epik_Charging_Adjusted_Penalty>
2.6322

> <i_epik_Tot_Q>
0

> <i_epik_Tot_abs_Q>
0

> <r_epik_Metal_State_Penalty>
2.63217

> <b_epik_Metal_Only>
0

> <s_lp_Force_Field>
OPLS_2005

> <r_lp_Energy>
18.9542

> <b_lp_Chiralities_Consistent>
1

> <s_lp_Variant>
AV-unprocessed.smi:3348-10

> <Gold.Version>
5.8.1

> <Gold.Id.Protein>
6NUR|6NUR_protein|mol2

> <Gold.PLP.Fitness>
42.4639

> <Gold.PLP.PLP>
-41.4204

> <Gold.PLP.part.hbond>
-0.0867

> <Gold.PLP.part.metal>
0.0000

> <Gold.PLP.part.buried>
-4.8473

> <Gold.PLP.part.nonpolar>
-35.8578

> <Gold.PLP.part.repulsive>
0.1258

> <Gold.PLP.ligand.clash>
0.0000

> <Gold.PLP.ligand.torsion>
1.0136

> <Gold.PLP.Chemscore.Hbond>
0.0000

> <Gold.PLP.Chemscore.CHOScore>
1.0000

> <Gold.PLP.Chemscore.Metal>
0.0000

> <Gold.Chemscore.Hbonds>
donor molecule, donor type, donor heavy atom, donor atom, acceptor molecule, acceptor atom, score
      L1  C     5    26       P1  7957  1.00

> <Gold.PLP.Chemscore.Internal.Correction>
0.0708

> <Gold.Rescore>
     Score         DG    S(hbond)    S(metal)    S(lipo)     H(rot)  DE(clash)    DE(int)     intcor
     15.19     -16.32       0.00        0.00     130.35       1.72       0.10       1.02       ----

> <Gold.Chemscore.Fitness>
15.1921

> <Gold.Chemscore.DG>
-16.3179

> <Gold.Chemscore.ZeroCoef>
-5.4800

> <Gold.Chemscore.Hbond>
0.0000

> <Gold.Chemscore.Metal>
0.0000

> <Gold.Chemscore.Lipo>
130.3457

> <Gold.Chemscore.Internal_Hbond>
0.0000

> <Gold.Chemscore.DEClash>
0.1019

> <Gold.Chemscore.DEInternal>
1.0239

> <Gold.Chemscore.Rot>
1.7237

> <Gold.Chemscore.Internal.Correction>
   9.000000E+99

> <Gold.Chemscore.Hbond.Weighted>
-0.0000

> <Gold.Chemscore.Metal.Weighted>
-0.0000

> <Gold.Chemscore.Lipo.Weighted>
-15.2505

> <Gold.Chemscore.Internal_Hbond.Weighted>
0.0000

> <Gold.Chemscore.DEClash.Weighted>
0.1019

> <Gold.Chemscore.DEInternal.Weighted>
1.0239

> <Gold.Chemscore.Rot.Weighted>
4.4126

> <Gold.Chemscore.Internal.Correction.Weighted>
   9.000000E+99

> <Gold.Protein.RotatedTorsions>
[ 6907 6896 6895 6894 ] final    0.46 input  -60.11 | X-H torsion
[ 7974 7965 7964 7962 ] final  -82.01 input  175.53 | X-H torsion
[ 8008 7997 7996 7995 ] final  152.01 input   59.86 | X-H torsion
[ 10167 10162 10161 10158 ] final -179.90 input  -65.29 | X-H torsion
[ 10718 10713 10712 10709 ] final -120.95 input   66.30 | X-H torsion
[ 10763 10752 10751 10750 ] final -151.22 input  -60.55 | X-H torsion
[ 11005 11000 10999 10996 ] final -126.17 input  -57.11 | X-H torsion

> <Gold.Protein.ActiveResidues>
 VAL166  LYS551  ARG553  GLY616  TRP617  ASP618  TYR619  PRO620  LYS621  CYS622 
 ASP623  PHE694  ASN695  SER759  ASP760  ASP761  ALA762  ILE779  LEU786  VAL792 
 PHE793  MET794  SER795  GLU796  ALA797  LYS798  CYS799  TRP800  GLU811  SER814 

> <Gold.Protein.RotatedAtoms>
  151.5767  135.1060  160.0007 H   0  0  0  0  0  0  0  0  0  0  0  0  # atno 6907 bound_to 6896
  152.4374  133.7382  159.6636 H   0  0  0  0  0  0  0  0  0  0  0  0  # atno 6908 bound_to 6896
  150.8274  133.8079  159.3136 H   0  0  0  0  0  0  0  0  0  0  0  0  # atno 6909 bound_to 6896
  145.5391  140.9512  143.1561 H   0  0  0  0  0  0  0  0  0  0  0  0  # atno 7974 bound_to 7965
  156.2648  140.2032  156.6266 H   0  0  0  0  0  0  0  0  0  0  0  0  # atno 8008 bound_to 7997
  154.6715  140.0549  157.0195 H   0  0  0  0  0  0  0  0  0  0  0  0  # atno 8009 bound_to 7997
  155.1130  140.3217  155.4519 H   0  0  0  0  0  0  0  0  0  0  0  0  # atno 8010 bound_to 7997
  139.5365  144.2482  152.0806 H   0  0  0  0  0  0  0  0  0  0  0  0  # atno 10167 bound_to 10162
  156.1298  130.6387  150.9603 H   0  0  0  0  0  0  0  0  0  0  0  0  # atno 10718 bound_to 10713
  154.8071  135.3265  154.7402 H   0  0  0  0  0  0  0  0  0  0  0  0  # atno 10763 bound_to 10752
  153.8058  135.6899  153.4853 H   0  0  0  0  0  0  0  0  0  0  0  0  # atno 10764 bound_to 10752
  153.1824  135.4581  154.9990 H   0  0  0  0  0  0  0  0  0  0  0  0  # atno 10765 bound_to 10752
  140.9703  134.0814  157.3876 H   0  0  0  0  0  0  0  0  0  0  0  0  # atno 11005 bound_to 11000
  144.7586  139.7012  143.7243 LP  0  0  0  0  0  0  0  0  0  0  0  0  # atno 17320 bound_to 7965
  146.1993  139.5278  142.9754 LP  0  0  0  0  0  0  0  0  0  0  0  0  # atno 17321 bound_to 7965
  140.1953  144.4711  150.6458 LP  0  0  0  0  0  0  0  0  0  0  0  0  # atno 17342 bound_to 10162
  140.6575  143.2242  151.5935 LP  0  0  0  0  0  0  0  0  0  0  0  0  # atno 17343 bound_to 10162
  157.6477  131.0901  150.8117 LP  0  0  0  0  0  0  0  0  0  0  0  0  # atno 17370 bound_to 10713
  156.8204  130.4982  149.5344 LP  0  0  0  0  0  0  0  0  0  0  0  0  # atno 17371 bound_to 10713
  139.8910  135.0115  156.6766 LP  0  0  0  0  0  0  0  0  0  0  0  0  # atno 17394 bound_to 11000
  140.7338  133.9036  155.8230 LP  0  0  0  0  0  0  0  0  0  0  0  0  # atno 17395 bound_to 11000

$$$$
