AV-unprocessed.smi:72|AV-procd|sdf|684|dock2
  -GOLD-   2262016593D 1   1.00000     0.00000
 Structure written by MMmdl.
 29 30  0  0  0  0  0  0  0  0  1 V2000
  152.6028  138.3708  159.1580 N   0  0  0  0  0  0  0  0  0  0  0  0
  151.9079  138.7226  158.1361 C   0  0  0  0  0  0  0  0  0  0  0  0
  150.5071  138.7628  158.0812 N   0  0  0  0  0  0  0  0  0  0  0  0
  149.9395  139.1252  156.9722 C   0  0  0  0  0  0  0  0  0  0  0  0
  150.6997  139.4748  155.7826 N   0  0  0  0  0  0  0  0  0  0  0  0
  149.9454  139.9129  154.5366 C   0  0  1  0  0  0  0  0  0  0  0  0
  148.9620  138.9710  154.2180 O   0  0  0  0  0  0  0  0  0  0  0  0
  147.6723  139.5828  154.1726 C   0  0  2  0  0  0  0  0  0  0  0  0
  146.7602  138.8741  153.1549 C   0  0  0  0  0  0  0  0  0  0  0  0
  147.4126  138.7635  151.9081 O   0  0  0  0  0  0  0  0  0  0  0  0
  147.9602  141.0649  153.8880 C   0  0  2  0  0  0  0  0  0  0  0  0
  148.1047  141.3016  152.4986 O   0  0  0  0  0  0  0  0  0  0  0  0
  149.2849  141.3091  154.5967 C   0  0  1  0  0  0  0  0  0  0  0  0
  149.0797  141.8174  155.9010 O   0  0  0  0  0  0  0  0  0  0  0  0
  152.1196  139.4760  155.8369 C   0  0  0  0  0  0  0  0  0  0  0  0
  152.8275  139.8004  154.8863 O   0  0  0  0  0  0  0  0  0  0  0  0
  152.6589  139.0880  157.0128 N   0  0  0  0  0  0  0  0  0  0  0  0
  150.6724  139.8657  153.7246 H   0  0  0  0  0  0  0  0  0  0  0  0
  147.2187  139.5255  155.1621 H   0  0  0  0  0  0  0  0  0  0  0  0
  147.1626  141.7117  154.2564 H   0  0  0  0  0  0  0  0  0  0  0  0
  149.9108  142.0265  154.0639 H   0  0  0  0  0  0  0  0  0  0  0  0
  151.9927  138.1230  159.9239 H   0  0  0  0  0  0  0  0  0  0  0  0
  148.8559  139.1850  156.8612 H   0  0  0  0  0  0  0  0  0  0  0  0
  146.5366  137.8616  153.4921 H   0  0  0  0  0  0  0  0  0  0  0  0
  145.8107  139.3977  153.0384 H   0  0  0  0  0  0  0  0  0  0  0  0
  147.8018  137.9045  151.8472 H   0  0  0  0  0  0  0  0  0  0  0  0
  148.4461  140.5186  152.0946 H   0  0  0  0  0  0  0  0  0  0  0  0
  148.8107  142.7204  155.8325 H   0  0  0  0  0  0  0  0  0  0  0  0
  153.6659  139.0692  157.0815 H   0  0  0  0  0  0  0  0  0  0  0  0
  1  2  2  0  0  0  0
  1 22  1  0  0  0  0
  2 17  1  0  0  0  0
  2  3  1  0  0  0  0
  3  4  2  0  0  0  0
  4  5  1  0  0  0  0
  4 23  1  0  0  0  0
  5  6  1  0  0  0  0
  5 15  1  0  0  0  0
  6 18  1  0  0  0  0
  6 13  1  0  0  0  0
  6  7  1  0  0  0  0
  7  8  1  0  0  0  0
  8 19  1  0  0  0  0
  8  9  1  0  0  0  0
  8 11  1  0  0  0  0
  9 10  1  0  0  0  0
  9 24  1  0  0  0  0
  9 25  1  0  0  0  0
 10 26  1  0  0  0  0
 11 20  1  0  0  0  0
 11 12  1  0  0  0  0
 11 13  1  0  0  0  0
 12 27  1  0  0  0  0
 13 21  1  0  0  0  0
 13 14  1  0  0  0  0
 14 28  1  0  0  0  0
 15 16  2  0  0  0  0
 15 17  1  0  0  0  0
 17 29  1  0  0  0  0
M  END
> <s_m_source_file>
AV-unprocessed.smi

> <i_m_source_file_index>
72

> <i_lp_mmshare_version>
43012

> <i_f3d_flags>
0

> <s_epik_input>
W05IMl1jMW5bY0hdbihjKD1PKW4xKVtDQEBIXTJPW0NASF0oW0NIMl1bT0hdKVtDQEBIXShbT0hdKVtDQEhdMltPSF0=

> <s_epik_cmdline>
J2VwaWtfcHl0aG9uJywgJy1waCcsICc3LjAnLCAnLXRuJywgJzgnLCAnLW1hJywgJzIwMCcsICctbWV0YWxfYmluZGluZycsICctaW1hZScsICc8aW5maWxlLm1hZT4nLCAnLW9tYWUnLCAnPG91dGZpbGUubWFlPic=

> <r_lp_tautomer_probability>
7.17554e-07

> <r_epik_Ionization_Penalty>
0.0066451

> <r_epik_Ionization_Penalty_Charging>
0.00663793

> <r_epik_Ionization_Penalty_Neutral>
7.17052e-06

> <r_epik_State_Penalty>
0.419231

> <r_epik_Charging_Adjusted_Penalty>
0.425868

> <i_epik_Tot_Q>
0

> <i_epik_Tot_abs_Q>
0

> <r_epik_Metal_State_Penalty>
1.44144

> <b_epik_Metal_Only>
0

> <s_epik_Chemistry_Notes>
This compound contains an acetal/aminal-like group ( X-CH(R)-Y where X, Y are N, S, or O) that may be acid/base labile, releasing an aldehyde.

> <s_lp_Force_Field>
OPLS_2005

> <r_lp_Energy>
43.3095

> <b_lp_Chiralities_Consistent>
1

> <s_lp_Variant>
AV-unprocessed.smi:72-22

> <Gold.Version>
5.8.1

> <Gold.Id.Protein>
6NUR|6NUR_protein|mol2

> <Gold.PLP.Fitness>
35.9000

> <Gold.PLP.PLP>
-21.8867

> <Gold.PLP.part.hbond>
-6.7065

> <Gold.PLP.part.metal>
0.0000

> <Gold.PLP.part.buried>
0.7320

> <Gold.PLP.part.nonpolar>
-16.7407

> <Gold.PLP.part.repulsive>
0.6587

> <Gold.PLP.ligand.clash>
0.0000

> <Gold.PLP.ligand.torsion>
0.2843

> <Gold.PLP.Chemscore.Hbond>
4.8508

> <Gold.PLP.Chemscore.CHOScore>
0.0000

> <Gold.PLP.Chemscore.Metal>
0.0000

> <Gold.Chemscore.Hbonds>
donor molecule, donor type, donor heavy atom, donor atom, acceptor molecule, acceptor atom, score
      L1  H    10    26       P1  7948  1.00
      L1  H    12    27       P1  7957  0.82
      L1  H    14    28       P1  8028  1.00
      P1  H  7989  7998       L1    16  0.39
      P1  H  7997  8008       L1    16  1.00
      P1  H  8011  8017       L1    12  0.63

> <Gold.PLP.Chemscore.Internal.Correction>
0.0295

> <Gold.Rescore>
     Score         DG    S(hbond)    S(metal)    S(lipo)     H(rot)  DE(clash)    DE(int)     intcor
      8.09     -10.96       3.83        0.00      26.38       4.06       1.71       1.16       ----

> <Gold.Chemscore.Fitness>
8.0893

> <Gold.Chemscore.DG>
-10.9648

> <Gold.Chemscore.ZeroCoef>
-5.4800

> <Gold.Chemscore.Hbond>
3.8301

> <Gold.Chemscore.Metal>
0.0000

> <Gold.Chemscore.Lipo>
26.3758

> <Gold.Chemscore.Internal_Hbond>
0.0000

> <Gold.Chemscore.DEClash>
1.7132

> <Gold.Chemscore.DEInternal>
1.1623

> <Gold.Chemscore.Rot>
4.0600

> <Gold.Chemscore.Internal.Correction>
   9.000000E+99

> <Gold.Chemscore.Hbonds>
donor molecule, donor type, donor heavy atom, donor atom, acceptor molecule, acceptor atom, score
      L1  H    10    26       P1  7948  0.96
      L1  H    12    27       P1  7957  0.78
      L1  H    14    28       P1  8028  0.96
      P1  H  7989  7998       L1    16  0.29
      P1  H  7997  8008       L1    16  0.52
      P1  H  8011  8017       L1    12  0.06

> <Gold.Chemscore.Hbond.Weighted>
-12.7924

> <Gold.Chemscore.Metal.Weighted>
-0.0000

> <Gold.Chemscore.Lipo.Weighted>
-3.0860

> <Gold.Chemscore.Internal_Hbond.Weighted>
0.0000

> <Gold.Chemscore.DEClash.Weighted>
1.7132

> <Gold.Chemscore.DEInternal.Weighted>
1.1623

> <Gold.Chemscore.Rot.Weighted>
10.3936

> <Gold.Chemscore.Internal.Correction.Weighted>
   9.000000E+99

> <Gold.Protein.RotatedTorsions>
[ 6907 6896 6895 6894 ] final  -80.71 input  -60.11 | X-H torsion
[ 7974 7965 7964 7962 ] final   99.29 input  175.53 | X-H torsion
[ 8008 7997 7996 7995 ] final    1.15 input   59.86 | X-H torsion
[ 10167 10162 10161 10158 ] final   -6.81 input  -65.29 | X-H torsion
[ 10718 10713 10712 10709 ] final  125.22 input   66.30 | X-H torsion
[ 10763 10752 10751 10750 ] final  -15.87 input  -60.55 | X-H torsion
[ 11005 11000 10999 10996 ] final   48.01 input  -57.11 | X-H torsion

> <Gold.Protein.ActiveResidues>
 VAL166  LYS551  ARG553  GLY616  TRP617  ASP618  TYR619  PRO620  LYS621  CYS622 
 ASP623  PHE694  ASN695  SER759  ASP760  ASP761  ALA762  ILE779  LEU786  VAL792 
 PHE793  MET794  SER795  GLU796  ALA797  LYS798  CYS799  TRP800  GLU811  SER814 

> <Gold.Protein.RotatedAtoms>
  150.6924  134.3927  159.5083 H   0  0  0  0  0  0  0  0  0  0  0  0  # atno 6907 bound_to 6896
  152.1713  134.8829  160.0543 H   0  0  0  0  0  0  0  0  0  0  0  0  # atno 6908 bound_to 6896
  151.9854  133.3737  159.4160 H   0  0  0  0  0  0  0  0  0  0  0  0  # atno 6909 bound_to 6896
  145.4009  139.2348  143.3301 H   0  0  0  0  0  0  0  0  0  0  0  0  # atno 7974 bound_to 7965
  154.6763  140.2623  155.6954 H   0  0  0  0  0  0  0  0  0  0  0  0  # atno 8008 bound_to 7997
  156.2679  140.2819  156.1213 H   0  0  0  0  0  0  0  0  0  0  0  0  # atno 8009 bound_to 7997
  155.1095  140.0375  157.2710 H   0  0  0  0  0  0  0  0  0  0  0  0  # atno 8010 bound_to 7997
  140.7009  143.6152  150.8665 H   0  0  0  0  0  0  0  0  0  0  0  0  # atno 10167 bound_to 10162
  157.5521  131.1093  150.8684 H   0  0  0  0  0  0  0  0  0  0  0  0  # atno 10718 bound_to 10713
  153.5500  135.7012  153.5596 H   0  0  0  0  0  0  0  0  0  0  0  0  # atno 10763 bound_to 10752
  153.3524  135.3991  155.1656 H   0  0  0  0  0  0  0  0  0  0  0  0  # atno 10764 bound_to 10752
  154.8662  135.3768  154.5010 H   0  0  0  0  0  0  0  0  0  0  0  0  # atno 10765 bound_to 10752
  140.1228  134.4807  155.8583 H   0  0  0  0  0  0  0  0  0  0  0  0  # atno 11005 bound_to 11000
  146.2752  140.4706  142.8798 LP  0  0  0  0  0  0  0  0  0  0  0  0  # atno 17320 bound_to 7965
  144.8375  140.6805  143.6251 LP  0  0  0  0  0  0  0  0  0  0  0  0  # atno 17321 bound_to 7965
  139.9874  143.5885  152.2922 LP  0  0  0  0  0  0  0  0  0  0  0  0  # atno 17342 bound_to 10162
  139.6527  144.7661  151.2116 LP  0  0  0  0  0  0  0  0  0  0  0  0  # atno 17343 bound_to 10162
  156.9206  130.5313  149.5279 LP  0  0  0  0  0  0  0  0  0  0  0  0  # atno 17370 bound_to 10713
  156.0586  130.5643  150.9144 LP  0  0  0  0  0  0  0  0  0  0  0  0  # atno 17371 bound_to 10713
  141.2155  133.6767  156.6922 LP  0  0  0  0  0  0  0  0  0  0  0  0  # atno 17394 bound_to 11000
  140.2942  134.8216  157.4043 LP  0  0  0  0  0  0  0  0  0  0  0  0  # atno 17395 bound_to 11000

$$$$
