AV-unprocessed.smi:2310|AV-procd|sdf|9255|dock6
  -GOLD-   2272012473D 1   1.00000     0.00000
 Structure written by MMmdl.
 45 46  0  0  0  0  0  0  0  0  1 V2000
  154.7351  134.3682  163.0978 C   0  0  0  0  0  0  0  0  0  0  0  0
  155.1514  133.6574  161.8017 C   0  0  0  0  0  0  0  0  0  0  0  0
  154.6432  134.3519  160.5250 C   0  0  2  0  0  0  0  0  0  0  0  0
  155.3485  133.8069  159.2731 C   0  0  0  0  0  0  0  0  0  0  0  0
  154.8817  134.4274  158.0227 C   0  0  0  0  0  0  0  0  0  0  0  0
  154.5148  134.9156  157.0402 N   0  0  0  0  0  0  0  0  0  0  0  0
  154.8548  135.7962  160.6242 N   0  0  0  0  0  0  0  0  0  0  0  0
  153.9819  136.7456  160.2572 C   0  0  0  0  0  0  0  0  0  0  0  0
  152.8771  136.5064  159.7709 O   0  0  0  0  0  0  0  0  0  0  0  0
  154.4693  137.9714  160.5128 N   0  0  0  0  0  0  0  0  0  0  0  0
  153.8430  139.2326  160.3092 C   0  0  0  0  0  0  0  0  0  0  0  0
  152.7888  139.4378  159.3884 C   0  0  0  0  0  0  0  0  0  0  0  0
  152.2456  140.7282  159.2426 C   0  0  0  0  0  0  0  0  0  0  0  0
  152.7771  141.7904  160.0101 C   0  0  0  0  0  0  0  0  0  0  0  0
  152.2613  143.0971  159.9002 N   0  0  0  0  0  0  0  0  0  0  0  0
  152.0029  143.7156  158.6072 C   0  0  0  0  0  0  0  0  0  0  0  0
  152.1167  145.2268  158.8409 C   0  0  0  0  0  0  0  0  0  0  0  0
  151.9128  145.3899  160.3472 C   0  0  0  0  0  0  0  0  0  0  0  0
  152.5109  144.1057  160.9187 C   0  0  0  0  0  0  0  0  0  0  0  0
  153.7916  141.5954  160.8848 N   0  0  0  0  0  0  0  0  0  0  0  0
  154.3130  140.3577  161.0263 C   0  0  0  0  0  0  0  0  0  0  0  0
  155.4488  140.2421  162.0274 C   0  0  0  0  0  0  0  0  0  0  0  0
  155.0694  133.8076  163.9709 H   0  0  0  0  0  0  0  0  0  0  0  0
  153.6509  134.4653  163.1609 H   0  0  0  0  0  0  0  0  0  0  0  0
  155.1659  135.3676  163.1642 H   0  0  0  0  0  0  0  0  0  0  0  0
  156.2385  133.5731  161.7689 H   0  0  0  0  0  0  0  0  0  0  0  0
  154.7699  132.6361  161.8274 H   0  0  0  0  0  0  0  0  0  0  0  0
  153.5791  134.1281  160.4300 H   0  0  0  0  0  0  0  0  0  0  0  0
  156.4267  133.9537  159.3425 H   0  0  0  0  0  0  0  0  0  0  0  0
  155.1771  132.7342  159.1812 H   0  0  0  0  0  0  0  0  0  0  0  0
  155.7353  136.0952  161.0170 H   0  0  0  0  0  0  0  0  0  0  0  0
  155.3589  138.0035  160.9883 H   0  0  0  0  0  0  0  0  0  0  0  0
  152.3945  138.6362  158.7833 H   0  0  0  0  0  0  0  0  0  0  0  0
  151.4326  140.8820  158.5490 H   0  0  0  0  0  0  0  0  0  0  0  0
  152.7077  143.3869  157.8426 H   0  0  0  0  0  0  0  0  0  0  0  0
  150.9963  143.4481  158.2848 H   0  0  0  0  0  0  0  0  0  0  0  0
  153.1192  145.5630  158.5726 H   0  0  0  0  0  0  0  0  0  0  0  0
  151.4026  145.8012  158.2505 H   0  0  0  0  0  0  0  0  0  0  0  0
  152.3799  146.2900  160.7478 H   0  0  0  0  0  0  0  0  0  0  0  0
  150.8463  145.4338  160.5718 H   0  0  0  0  0  0  0  0  0  0  0  0
  152.0543  143.8384  161.8724 H   0  0  0  0  0  0  0  0  0  0  0  0
  153.5861  144.2145  161.0674 H   0  0  0  0  0  0  0  0  0  0  0  0
  155.1878  139.5359  162.8162 H   0  0  0  0  0  0  0  0  0  0  0  0
  155.6704  141.2025  162.4948 H   0  0  0  0  0  0  0  0  0  0  0  0
  156.3557  139.8909  161.5345 H   0  0  0  0  0  0  0  0  0  0  0  0
  1  2  1  0  0  0  0
  1 23  1  0  0  0  0
  1 24  1  0  0  0  0
  1 25  1  0  0  0  0
  2  3  1  0  0  0  0
  2 26  1  0  0  0  0
  2 27  1  0  0  0  0
  3  4  1  0  0  0  0
  3  7  1  0  0  0  0
  3 28  1  0  0  0  0
  4  5  1  0  0  0  0
  4 29  1  0  0  0  0
  4 30  1  0  0  0  0
  5  6  3  0  0  0  0
  7  8  1  0  0  0  0
  7 31  1  0  0  0  0
  8  9  2  0  0  0  0
  8 10  1  0  0  0  0
 10 11  1  0  0  0  0
 10 32  1  0  0  0  0
 11 21  1  0  0  0  0
 11 12  2  0  0  0  0
 12 13  1  0  0  0  0
 12 33  1  0  0  0  0
 13 14  2  0  0  0  0
 13 34  1  0  0  0  0
 14 15  1  0  0  0  0
 14 20  1  0  0  0  0
 15 19  1  0  0  0  0
 15 16  1  0  0  0  0
 16 17  1  0  0  0  0
 16 35  1  0  0  0  0
 16 36  1  0  0  0  0
 17 18  1  0  0  0  0
 17 37  1  0  0  0  0
 17 38  1  0  0  0  0
 18 19  1  0  0  0  0
 18 39  1  0  0  0  0
 18 40  1  0  0  0  0
 19 41  1  0  0  0  0
 19 42  1  0  0  0  0
 20 21  2  0  0  0  0
 21 22  1  0  0  0  0
 22 43  1  0  0  0  0
 22 44  1  0  0  0  0
 22 45  1  0  0  0  0
M  END
> <s_m_source_file>
AV-unprocessed.smi

> <i_m_source_file_index>
2310

> <i_lp_mmshare_version>
43012

> <i_f3d_flags>
0

> <s_epik_input>
TiNDW0NIMl1bQ0BASF0oW0NIMl1bQ0gzXSlbTkhdQyg9TylbTkhdYzFbY0hdW2NIXWMobmMxW0NIM10pTjJbQ0gyXVtDSDJdW0NIMl1bQ0gyXTI=

> <s_epik_cmdline>
J2VwaWtfcHl0aG9uJywgJy1waCcsICc3LjAnLCAnLXRuJywgJzgnLCAnLW1hJywgJzIwMCcsICctbWV0YWxfYmluZGluZycsICctaW1hZScsICc8aW5maWxlLm1hZT4nLCAnLW9tYWUnLCAnPG91dGZpbGUubWFlPic=

> <r_lp_tautomer_probability>
1

> <r_epik_Ionization_Penalty>
0.281354

> <r_epik_Ionization_Penalty_Charging>
0

> <r_epik_Ionization_Penalty_Neutral>
0.281354

> <r_epik_State_Penalty>
0.273364

> <r_epik_Charging_Adjusted_Penalty>
0.273364

> <i_epik_Tot_Q>
0

> <i_epik_Tot_abs_Q>
0

> <r_epik_Metal_State_Penalty>
0.18752

> <b_epik_Metal_Only>
0

> <s_lp_Force_Field>
OPLS_2005

> <r_lp_Energy>
30.6963

> <b_lp_Chiralities_Consistent>
1

> <s_lp_Variant>
AV-unprocessed.smi:2310-1

> <Gold.Version>
5.8.1

> <Gold.Id.Protein>
6NUR|6NUR_protein|mol2

> <Gold.PLP.Fitness>
47.4655

> <Gold.PLP.PLP>
-43.0959

> <Gold.PLP.part.hbond>
-2.0000

> <Gold.PLP.part.metal>
0.0000

> <Gold.PLP.part.buried>
-5.2945

> <Gold.PLP.part.nonpolar>
-35.9493

> <Gold.PLP.part.repulsive>
0.0596

> <Gold.PLP.ligand.clash>
0.0000

> <Gold.PLP.ligand.torsion>
0.9213

> <Gold.PLP.Chemscore.Hbond>
2.0000

> <Gold.PLP.Chemscore.CHOScore>
0.0000

> <Gold.PLP.Chemscore.Metal>
0.0000

> <Gold.Chemscore.Hbonds>
donor molecule, donor type, donor heavy atom, donor atom, acceptor molecule, acceptor atom, score
      P1  H  6896  6909       L1     9  1.00
      P1  H 10752 10764       L1     6  0.74

> <Gold.PLP.Chemscore.Internal.Correction>
0.2123

> <Gold.Rescore>
     Score         DG    S(hbond)    S(metal)    S(lipo)     H(rot)  DE(clash)    DE(int)     intcor
     17.59     -19.17       1.95        0.00      93.00       1.45       0.01       1.58       ----

> <Gold.Chemscore.Fitness>
17.5877

> <Gold.Chemscore.DG>
-19.1714

> <Gold.Chemscore.ZeroCoef>
-5.4800

> <Gold.Chemscore.Hbond>
1.9523

> <Gold.Chemscore.Metal>
0.0000

> <Gold.Chemscore.Lipo>
92.9990

> <Gold.Chemscore.Internal_Hbond>
0.0000

> <Gold.Chemscore.DEClash>
0.0086

> <Gold.Chemscore.DEInternal>
1.5751

> <Gold.Chemscore.Rot>
1.4492

> <Gold.Chemscore.Internal.Correction>
   9.000000E+99

> <Gold.Chemscore.Hbonds>
donor molecule, donor type, donor heavy atom, donor atom, acceptor molecule, acceptor atom, score
      P1  H  6896  6909       L1     9  0.93
      P1  H 10752 10764       L1     6  0.74

> <Gold.Chemscore.Hbond.Weighted>
-6.5205

> <Gold.Chemscore.Metal.Weighted>
-0.0000

> <Gold.Chemscore.Lipo.Weighted>
-10.8809

> <Gold.Chemscore.Internal_Hbond.Weighted>
0.0000

> <Gold.Chemscore.DEClash.Weighted>
0.0086

> <Gold.Chemscore.DEInternal.Weighted>
1.5751

> <Gold.Chemscore.Rot.Weighted>
3.7100

> <Gold.Chemscore.Internal.Correction.Weighted>
   9.000000E+99

> <Gold.Protein.RotatedTorsions>
[ 6907 6896 6895 6894 ] final  162.39 input  -60.11 | X-H torsion
[ 7974 7965 7964 7962 ] final -111.50 input  175.53 | X-H torsion
[ 8008 7997 7996 7995 ] final  128.81 input   59.86 | X-H torsion
[ 10167 10162 10161 10158 ] final  141.86 input  -65.29 | X-H torsion
[ 10718 10713 10712 10709 ] final   84.96 input   66.30 | X-H torsion
[ 10763 10752 10751 10750 ] final   60.53 input  -60.55 | X-H torsion
[ 11005 11000 10999 10996 ] final  175.17 input  -57.11 | X-H torsion

> <Gold.Protein.ActiveResidues>
 VAL166  LYS551  ARG553  GLY616  TRP617  ASP618  TYR619  PRO620  LYS621  CYS622 
 ASP623  PHE694  ASN695  SER759  ASP760  ASP761  ALA762  ILE779  LEU786  VAL792 
 PHE793  MET794  SER795  GLU796  ALA797  LYS798  CYS799  TRP800  GLU811  SER814 

> <Gold.Protein.RotatedAtoms>
  151.9411  133.3638  159.3965 H   0  0  0  0  0  0  0  0  0  0  0  0  # atno 6907 bound_to 6896
  150.6998  134.4438  159.5314 H   0  0  0  0  0  0  0  0  0  0  0  0  # atno 6908 bound_to 6896
  152.2095  134.8514  160.0550 H   0  0  0  0  0  0  0  0  0  0  0  0  # atno 6909 bound_to 6896
  145.1553  140.8850  143.3622 H   0  0  0  0  0  0  0  0  0  0  0  0  # atno 7974 bound_to 7965
  156.2923  140.2635  156.2497 H   0  0  0  0  0  0  0  0  0  0  0  0  # atno 8008 bound_to 7997
  154.9895  140.0389  157.2331 H   0  0  0  0  0  0  0  0  0  0  0  0  # atno 8009 bound_to 7997
  154.7699  140.2776  155.6151 H   0  0  0  0  0  0  0  0  0  0  0  0  # atno 8010 bound_to 7997
  139.5009  144.6144  151.6197 H   0  0  0  0  0  0  0  0  0  0  0  0  # atno 10167 bound_to 10162
  157.6907  131.0155  150.2751 H   0  0  0  0  0  0  0  0  0  0  0  0  # atno 10718 bound_to 10713
  152.9924  135.5533  154.5888 H   0  0  0  0  0  0  0  0  0  0  0  0  # atno 10763 bound_to 10752
  154.5254  135.2810  155.1228 H   0  0  0  0  0  0  0  0  0  0  0  0  # atno 10764 bound_to 10752
  154.2565  135.6389  153.5311 H   0  0  0  0  0  0  0  0  0  0  0  0  # atno 10765 bound_to 10752
  140.3593  134.7127  157.4320 H   0  0  0  0  0  0  0  0  0  0  0  0  # atno 11005 bound_to 11000
  145.0388  139.3278  143.5987 LP  0  0  0  0  0  0  0  0  0  0  0  0  # atno 17320 bound_to 7965
  146.3489  139.9753  142.8701 LP  0  0  0  0  0  0  0  0  0  0  0  0  # atno 17321 bound_to 7965
  140.5828  143.9916  150.6278 LP  0  0  0  0  0  0  0  0  0  0  0  0  # atno 17342 bound_to 10162
  140.3070  143.3222  152.0916 LP  0  0  0  0  0  0  0  0  0  0  0  0  # atno 17343 bound_to 10162
  156.3307  130.3800  149.7493 LP  0  0  0  0  0  0  0  0  0  0  0  0  # atno 17370 bound_to 10713
  156.5034  130.8139  151.3141 LP  0  0  0  0  0  0  0  0  0  0  0  0  # atno 17371 bound_to 10713
  140.0639  134.5956  155.8717 LP  0  0  0  0  0  0  0  0  0  0  0  0  # atno 17394 bound_to 11000
  141.1989  133.6604  156.5815 LP  0  0  0  0  0  0  0  0  0  0  0  0  # atno 17395 bound_to 11000

$$$$
