AV-unprocessed.smi:3012|AV-procd|sdf|11462|dock6
  -GOLD-   2272016403D 1   1.00000     0.00000
 Structure written by MMmdl.
 16 16  0  0  0  0  0  0  0  0  3 V2000
  149.3484  135.7400  158.8091 O   0  0  0  0  0  0  0  0  0  0  0  0
  149.0331  136.7165  159.5243 C   0  0  0  0  0  0  0  0  0  0  0  0
  148.7602  136.6668  160.7439 O   0  5  0  0  0  0  0  0  0  0  0  0
  148.9919  138.0912  158.8545 C   0  0  0  0  0  0  0  0  0  0  0  0
  150.3347  138.5236  158.2878 C   0  0  0  0  0  0  0  0  0  0  0  0
  151.4750  138.6471  159.0017 C   0  0  0  0  0  0  0  0  0  0  0  0
  152.6848  139.1063  158.3218 C   0  0  0  0  0  0  0  0  0  0  0  0
  153.7283  139.2163  158.9633 O   0  0  0  0  0  0  0  0  0  0  0  0
  152.5954  139.3988  156.9891 N   0  5  0  0  0  0  0  0  0  0  0  0
  151.4316  139.2798  156.2783 C   0  0  0  0  0  0  0  0  0  0  0  0
  151.3252  139.5417  155.0819 O   0  0  0  0  0  0  0  0  0  0  0  0
  150.3247  138.8505  156.9255 N   0  0  0  0  0  0  0  0  0  0  0  0
  149.4542  138.7542  156.4234 H   0  0  0  0  0  0  0  0  0  0  0  0
  148.2366  138.0821  158.0670 H   0  0  0  0  0  0  0  0  0  0  0  0
  148.6640  138.8334  159.5833 H   0  0  0  0  0  0  0  0  0  0  0  0
  151.4942  138.4142  160.0564 H   0  0  0  0  0  0  0  0  0  0  0  0
  1  2  2  0  0  0  0
  2  3  1  0  0  0  0
  2  4  1  0  0  0  0
  4  5  1  0  0  0  0
  4 14  1  0  0  0  0
  4 15  1  0  0  0  0
  5 12  1  0  0  0  0
  5  6  2  0  0  0  0
  6  7  1  0  0  0  0
  6 16  1  0  0  0  0
  7  8  2  0  0  0  0
  7  9  1  0  0  0  0
  9 10  1  0  0  0  0
 10 11  2  0  0  0  0
 10 12  1  0  0  0  0
 12 13  1  0  0  0  0
M  CHG  1   3  -1
M  CHG  1   9  -1
M  END
> <s_m_source_file>
AV-unprocessed.smi

> <i_m_source_file_index>
3012

> <i_lp_mmshare_version>
43012

> <i_f3d_flags>
0

> <s_epik_input>
Tz1DKFtPSF0pW0NIMl1jMVtjSF1jKD1PKVtuSF1jKD1PKVtuSF0x

> <s_epik_cmdline>
J2VwaWtfcHl0aG9uJywgJy1waCcsICc3LjAnLCAnLXRuJywgJzgnLCAnLW1hJywgJzIwMCcsICctbWV0YWxfYmluZGluZycsICctaW1hZScsICc8aW5maWxlLm1hZT4nLCAnLW9tYWUnLCAnPG91dGZpbGUubWFlPic=

> <r_lp_tautomer_probability>
1

> <r_epik_Ionization_Penalty>
3.84851

> <r_epik_Ionization_Penalty_Charging>
0.000432965

> <r_epik_Ionization_Penalty_Neutral>
3.84808

> <r_epik_State_Penalty>
3.84718

> <r_epik_Charging_Adjusted_Penalty>
3.84761

> <i_epik_Tot_Q>
-2

> <i_epik_Tot_abs_Q>
2

> <r_epik_Metal_State_Penalty>
0.579588

> <b_epik_Metal_Only>
1

> <s_lp_Force_Field>
OPLS_2005

> <r_lp_Energy>
14.5502

> <b_lp_Chiralities_Consistent>
1

> <s_lp_Variant>
AV-unprocessed.smi:3012-2

> <Gold.Version>
5.8.1

> <Gold.Id.Protein>
6NUR|6NUR_protein|mol2

> <Gold.PLP.Fitness>
35.2190

> <Gold.PLP.PLP>
-15.2988

> <Gold.PLP.part.hbond>
-5.0000

> <Gold.PLP.part.metal>
0.0000

> <Gold.PLP.part.buried>
-2.9084

> <Gold.PLP.part.nonpolar>
-7.4173

> <Gold.PLP.part.repulsive>
0.0763

> <Gold.PLP.ligand.clash>
0.0000

> <Gold.PLP.ligand.torsion>
0.0136

> <Gold.PLP.Chemscore.Hbond>
6.6482

> <Gold.PLP.Chemscore.CHOScore>
0.0000

> <Gold.PLP.Chemscore.Metal>
0.0000

> <Gold.Chemscore.Hbonds>
donor molecule, donor type, donor heavy atom, donor atom, acceptor molecule, acceptor atom, score
      P1  H  6896  6909       L1     1  2.00
      P1  H  6931  6943       L1     3  1.92
      P1  H  7989  7998       L1    11  0.86
      P1  H  7997  8008       L1     9  1.35

> <Gold.PLP.Chemscore.Internal.Correction>
0.0029

> <Gold.Rescore>
     Score         DG    S(hbond)    S(metal)    S(lipo)     H(rot)  DE(clash)    DE(int)     intcor
     14.44     -14.57       3.64        0.00      10.57       1.68       0.07       0.07       ----

> <Gold.Chemscore.Fitness>
14.4406

> <Gold.Chemscore.DG>
-14.5748

> <Gold.Chemscore.ZeroCoef>
-5.4800

> <Gold.Chemscore.Hbond>
3.6438

> <Gold.Chemscore.Metal>
0.0000

> <Gold.Chemscore.Lipo>
10.5739

> <Gold.Chemscore.Internal_Hbond>
0.0000

> <Gold.Chemscore.DEClash>
0.0650

> <Gold.Chemscore.DEInternal>
0.0691

> <Gold.Chemscore.Rot>
1.6846

> <Gold.Chemscore.Internal.Correction>
   9.000000E+99

> <Gold.Chemscore.Hbonds>
donor molecule, donor type, donor heavy atom, donor atom, acceptor molecule, acceptor atom, score
      P1  H  6896  6909       L1     1  0.92
      P1  H  6931  6943       L1     3  0.88
      P1  H  7989  7998       L1    11  0.84
      P1  H  7997  8008       L1     9  0.59

> <Gold.Chemscore.Hbond.Weighted>
-12.1702

> <Gold.Chemscore.Metal.Weighted>
-0.0000

> <Gold.Chemscore.Lipo.Weighted>
-1.2371

> <Gold.Chemscore.Internal_Hbond.Weighted>
0.0000

> <Gold.Chemscore.DEClash.Weighted>
0.0650

> <Gold.Chemscore.DEInternal.Weighted>
0.0691

> <Gold.Chemscore.Rot.Weighted>
4.3126

> <Gold.Chemscore.Internal.Correction.Weighted>
   9.000000E+99

> <Gold.Protein.RotatedTorsions>
[ 6907 6896 6895 6894 ] final   46.49 input  -60.11 | X-H torsion
[ 7974 7965 7964 7962 ] final   96.05 input  175.53 | X-H torsion
[ 8008 7997 7996 7995 ] final  -30.06 input   59.86 | X-H torsion
[ 10167 10162 10161 10158 ] final  -33.68 input  -65.29 | X-H torsion
[ 10718 10713 10712 10709 ] final  113.92 input   66.30 | X-H torsion
[ 10763 10752 10751 10750 ] final -148.53 input  -60.55 | X-H torsion
[ 11005 11000 10999 10996 ] final  174.52 input  -57.11 | X-H torsion

> <Gold.Protein.ActiveResidues>
 VAL166  LYS551  ARG553  GLY616  TRP617  ASP618  TYR619  PRO620  LYS621  CYS622 
 ASP623  PHE694  ASN695  SER759  ASP760  ASP761  ALA762  ILE779  LEU786  VAL792 
 PHE793  MET794  SER795  GLU796  ALA797  LYS798  CYS799  TRP800  GLU811  SER814 

> <Gold.Protein.RotatedAtoms>
  152.2570  134.8074  160.0436 H   0  0  0  0  0  0  0  0  0  0  0  0  # atno 6907 bound_to 6896
  151.8734  133.3475  159.3750 H   0  0  0  0  0  0  0  0  0  0  0  0  # atno 6908 bound_to 6896
  150.7103  134.5017  159.5609 H   0  0  0  0  0  0  0  0  0  0  0  0  # atno 6909 bound_to 6896
  145.4440  139.2299  143.3076 H   0  0  0  0  0  0  0  0  0  0  0  0  # atno 7974 bound_to 7965
  154.4265  140.1801  156.1347 H   0  0  0  0  0  0  0  0  0  0  0  0  # atno 8008 bound_to 7997
  156.0040  140.3357  155.6848 H   0  0  0  0  0  0  0  0  0  0  0  0  # atno 8009 bound_to 7997
  155.6204  140.0659  157.2670 H   0  0  0  0  0  0  0  0  0  0  0  0  # atno 8010 bound_to 7997
  140.7200  143.3603  151.1977 H   0  0  0  0  0  0  0  0  0  0  0  0  # atno 10167 bound_to 10162
  157.6311  131.0991  150.7110 H   0  0  0  0  0  0  0  0  0  0  0  0  # atno 10718 bound_to 10713
  154.8228  135.3332  154.6987 H   0  0  0  0  0  0  0  0  0  0  0  0  # atno 10763 bound_to 10752
  153.7618  135.6932  153.4928 H   0  0  0  0  0  0  0  0  0  0  0  0  # atno 10764 bound_to 10752
  153.2105  135.4484  155.0323 H   0  0  0  0  0  0  0  0  0  0  0  0  # atno 10765 bound_to 10752
  140.3522  134.7185  157.4275 H   0  0  0  0  0  0  0  0  0  0  0  0  # atno 11005 bound_to 11000
  146.2541  140.5192  142.8881 LP  0  0  0  0  0  0  0  0  0  0  0  0  # atno 17320 bound_to 7965
  144.8103  140.6374  143.6419 LP  0  0  0  0  0  0  0  0  0  0  0  0  # atno 17321 bound_to 7965
  139.7153  143.9310  152.2964 LP  0  0  0  0  0  0  0  0  0  0  0  0  # atno 17342 bound_to 10162
  139.9049  144.6890  150.8625 LP  0  0  0  0  0  0  0  0  0  0  0  0  # atno 17343 bound_to 10162
  156.7450  130.4751  149.5469 LP  0  0  0  0  0  0  0  0  0  0  0  0  # atno 17370 bound_to 10713
  156.1515  130.6313  151.0602 LP  0  0  0  0  0  0  0  0  0  0  0  0  # atno 17371 bound_to 10713
  140.0694  134.5884  155.8659 LP  0  0  0  0  0  0  0  0  0  0  0  0  # atno 17394 bound_to 11000
  141.2009  133.6615  156.5920 LP  0  0  0  0  0  0  0  0  0  0  0  0  # atno 17395 bound_to 11000

$$$$
