AV-unprocessed.smi:3031|AV-procd|sdf|11548|dock9
  -GOLD-   2272016503D 1   1.00000     0.00000
 Structure written by MMmdl.
 47 48  0  0  0  0  0  0  0  0  2 V2000
  152.0150  141.3514  158.1235 C   0  0  0  0  0  0  0  0  0  0  0  0
  151.2447  141.1254  156.8548 C   0  0  0  0  0  0  0  0  0  0  0  0
  151.4917  140.1536  155.8438 C   0  0  0  0  0  0  0  0  0  0  0  0
  150.6206  140.2123  154.8501 N   0  0  0  0  0  0  0  0  0  0  0  0
  149.7862  141.2181  155.1920 N   0  0  0  0  0  0  0  0  0  0  0  0
  148.6810  141.5689  154.3185 C   0  0  0  0  0  0  0  0  0  0  0  0
  147.2972  141.0963  154.8269 C   0  0  1  0  0  0  0  0  0  0  0  0
  146.6336  142.2122  155.6456 C   0  0  0  0  0  0  0  0  0  0  0  0
  146.4015  140.7184  153.7291 N   0  0  0  0  0  0  0  0  0  0  0  0
  147.0636  140.2575  152.5055 C   0  0  0  0  0  0  0  0  0  0  0  0
  146.5418  138.8859  152.0432 C   0  0  1  0  0  0  0  0  0  0  0  0
  147.5387  138.2398  151.2765 O   0  0  0  0  0  0  0  0  0  0  0  0
  146.0816  137.9839  153.2089 C   0  0  0  0  0  0  0  0  0  0  0  0
  146.1955  136.5388  152.8901 N   0  3  0  0  0  0  0  0  0  0  0  0
  145.8400  135.6737  154.0401 C   0  0  0  0  0  0  0  0  0  0  0  0
  146.0314  134.1912  153.6779 C   0  0  0  0  0  0  0  0  0  0  0  0
  145.2502  133.8740  152.5325 O   0  0  0  0  0  0  0  0  0  0  0  0
  145.6370  134.6373  151.3967 C   0  0  0  0  0  0  0  0  0  0  0  0
  145.4304  136.1337  151.6847 C   0  0  0  0  0  0  0  0  0  0  0  0
  150.1459  141.7930  156.3925 C   0  0  0  0  0  0  0  0  0  0  0  0
  153.0236  140.9424  158.0632 H   0  0  0  0  0  0  0  0  0  0  0  0
  151.5275  140.8799  158.9770 H   0  0  0  0  0  0  0  0  0  0  0  0
  152.1128  142.4127  158.3535 H   0  0  0  0  0  0  0  0  0  0  0  0
  152.2734  139.4095  155.8043 H   0  0  0  0  0  0  0  0  0  0  0  0
  148.6839  142.6551  154.2193 H   0  0  0  0  0  0  0  0  0  0  0  0
  148.8734  141.1730  153.3196 H   0  0  0  0  0  0  0  0  0  0  0  0
  147.4330  140.2459  155.4968 H   0  0  0  0  0  0  0  0  0  0  0  0
  147.2526  142.4965  156.4968 H   0  0  0  0  0  0  0  0  0  0  0  0
  145.6680  141.8914  156.0379 H   0  0  0  0  0  0  0  0  0  0  0  0
  146.4680  143.1056  155.0422 H   0  0  0  0  0  0  0  0  0  0  0  0
  145.7573  140.0014  154.0482 H   0  0  0  0  0  0  0  0  0  0  0  0
  146.9102  140.9631  151.6935 H   0  0  0  0  0  0  0  0  0  0  0  0
  148.1420  140.2121  152.6609 H   0  0  0  0  0  0  0  0  0  0  0  0
  145.7048  139.0774  151.3729 H   0  0  0  0  0  0  0  0  0  0  0  0
  147.8655  137.5019  151.7689 H   0  0  0  0  0  0  0  0  0  0  0  0
  146.6869  138.2101  154.0881 H   0  0  0  0  0  0  0  0  0  0  0  0
  145.0507  138.2115  153.4853 H   0  0  0  0  0  0  0  0  0  0  0  0
  146.4643  135.9225  154.8991 H   0  0  0  0  0  0  0  0  0  0  0  0
  144.8045  135.8579  154.3311 H   0  0  0  0  0  0  0  0  0  0  0  0
  147.0829  133.9685  153.4896 H   0  0  0  0  0  0  0  0  0  0  0  0
  145.7157  133.5582  154.5073 H   0  0  0  0  0  0  0  0  0  0  0  0
  146.6771  134.4298  151.1399 H   0  0  0  0  0  0  0  0  0  0  0  0
  145.0313  134.3322  150.5430 H   0  0  0  0  0  0  0  0  0  0  0  0
  144.3695  136.3381  151.8384 H   0  0  0  0  0  0  0  0  0  0  0  0
  145.7435  136.7135  150.8173 H   0  0  0  0  0  0  0  0  0  0  0  0
  149.5906  142.6162  156.8175 H   0  0  0  0  0  0  0  0  0  0  0  0
  147.1726  136.3669  152.6983 H   0  0  0  0  0  0  0  0  0  0  0  0
  1  2  1  0  0  0  0
  1 21  1  0  0  0  0
  1 22  1  0  0  0  0
  1 23  1  0  0  0  0
  2 20  2  0  0  0  0
  2  3  1  0  0  0  0
  3  4  2  0  0  0  0
  3 24  1  0  0  0  0
  4  5  1  0  0  0  0
  5  6  1  0  0  0  0
  5 20  1  0  0  0  0
  6  7  1  0  0  0  0
  6 25  1  0  0  0  0
  6 26  1  0  0  0  0
  7  8  1  0  0  0  0
  7  9  1  0  0  0  0
  7 27  1  0  0  0  0
  8 28  1  0  0  0  0
  8 29  1  0  0  0  0
  8 30  1  0  0  0  0
  9 10  1  0  0  0  0
  9 31  1  0  0  0  0
 10 11  1  0  0  0  0
 10 32  1  0  0  0  0
 10 33  1  0  0  0  0
 11 12  1  0  0  0  0
 11 13  1  0  0  0  0
 11 34  1  0  0  0  0
 12 35  1  0  0  0  0
 13 14  1  0  0  0  0
 13 36  1  0  0  0  0
 13 37  1  0  0  0  0
 14 19  1  0  0  0  0
 14 15  1  0  0  0  0
 14 47  1  0  0  0  0
 15 16  1  0  0  0  0
 15 38  1  0  0  0  0
 15 39  1  0  0  0  0
 16 17  1  0  0  0  0
 16 40  1  0  0  0  0
 16 41  1  0  0  0  0
 17 18  1  0  0  0  0
 18 19  1  0  0  0  0
 18 42  1  0  0  0  0
 18 43  1  0  0  0  0
 19 44  1  0  0  0  0
 19 45  1  0  0  0  0
 20 46  1  0  0  0  0
M  CHG  1  14   1
M  END
> <s_m_source_file>
AV-unprocessed.smi

> <i_m_source_file_index>
3031

> <i_lp_mmshare_version>
43012

> <i_f3d_flags>
0

> <s_epik_input>
W0NIM11jMVtjSF1ubihbY0hdMSlbQ0gyXVtDQEhdKFtDSDNdKVtOSF1bQ0gyXVtDQEhdKFtPSF0pW0NIMl1OMltDSDJdW0NIMl1PW0NIMl1bQ0gyXTI=

> <s_epik_cmdline>
J2VwaWtfcHl0aG9uJywgJy1waCcsICc3LjAnLCAnLXRuJywgJzgnLCAnLW1hJywgJzIwMCcsICctbWV0YWxfYmluZGluZycsICctaW1hZScsICc8aW5maWxlLm1hZT4nLCAnLW9tYWUnLCAnPG91dGZpbGUubWFlPic=

> <r_epik_Ionization_Penalty>
0.467051

> <r_epik_Ionization_Penalty_Charging>
0.202493

> <r_epik_Ionization_Penalty_Neutral>
0.264558

> <r_epik_State_Penalty>
1.34287

> <r_epik_Charging_Adjusted_Penalty>
1.54537

> <i_epik_Tot_Q>
1

> <i_epik_Tot_abs_Q>
1

> <r_epik_Metal_State_Penalty>
1.34281

> <b_epik_Metal_Only>
0

> <s_lp_Force_Field>
OPLS_2005

> <r_lp_Energy>
30.2263

> <b_lp_Chiralities_Consistent>
1

> <s_lp_Variant>
AV-unprocessed.smi:3031-8

> <Gold.Version>
5.8.1

> <Gold.Id.Protein>
6NUR|6NUR_protein|mol2

> <Gold.PLP.Fitness>
49.1580

> <Gold.PLP.PLP>
-35.6733

> <Gold.PLP.part.hbond>
-5.6119

> <Gold.PLP.part.metal>
0.0000

> <Gold.PLP.part.buried>
-0.5349

> <Gold.PLP.part.nonpolar>
-30.2158

> <Gold.PLP.part.repulsive>
0.1493

> <Gold.PLP.ligand.clash>
0.0000

> <Gold.PLP.ligand.torsion>
2.0911

> <Gold.PLP.Chemscore.Hbond>
4.8960

> <Gold.PLP.Chemscore.CHOScore>
0.9584

> <Gold.PLP.Chemscore.Metal>
0.0000

> <Gold.Chemscore.Hbonds>
donor molecule, donor type, donor heavy atom, donor atom, acceptor molecule, acceptor atom, score
      L1  H    12    35       P1  7948  0.91
      L1  H    14    47       P1  7948  2.00
      P1  H  7954  7966       L1    12  0.90
      P1  H  7989  7998       L1     4  1.00
      L1  C    20    46       P1  8028  0.95

> <Gold.PLP.Chemscore.Internal.Correction>
0.1037

> <Gold.Rescore>
     Score         DG    S(hbond)    S(metal)    S(lipo)     H(rot)  DE(clash)    DE(int)     intcor
     14.01     -17.45       2.80        0.00      80.58       2.65       1.53       1.91       ----

> <Gold.Chemscore.Fitness>
14.0124

> <Gold.Chemscore.DG>
-17.4549

> <Gold.Chemscore.ZeroCoef>
-5.4800

> <Gold.Chemscore.Hbond>
2.7954

> <Gold.Chemscore.Metal>
0.0000

> <Gold.Chemscore.Lipo>
80.5773

> <Gold.Chemscore.Internal_Hbond>
0.0000

> <Gold.Chemscore.DEClash>
1.5286

> <Gold.Chemscore.DEInternal>
1.9140

> <Gold.Chemscore.Rot>
2.6521

> <Gold.Chemscore.Internal.Correction>
   9.000000E+99

> <Gold.Chemscore.Hbonds>
donor molecule, donor type, donor heavy atom, donor atom, acceptor molecule, acceptor atom, score
      L1  H    12    35       P1  7948  0.89
      L1  H    14    47       P1  7948  0.98
      P1  H  7954  7966       L1    12  0.17
      P1  H  7989  7998       L1     4  0.17

> <Gold.Chemscore.Hbond.Weighted>
-9.3368

> <Gold.Chemscore.Metal.Weighted>
-0.0000

> <Gold.Chemscore.Lipo.Weighted>
-9.4275

> <Gold.Chemscore.Internal_Hbond.Weighted>
0.0000

> <Gold.Chemscore.DEClash.Weighted>
1.5286

> <Gold.Chemscore.DEInternal.Weighted>
1.9140

> <Gold.Chemscore.Rot.Weighted>
6.7894

> <Gold.Chemscore.Internal.Correction.Weighted>
   9.000000E+99

> <Gold.Protein.RotatedTorsions>
[ 6907 6896 6895 6894 ] final -149.73 input  -60.11 | X-H torsion
[ 7974 7965 7964 7962 ] final   84.65 input  175.53 | X-H torsion
[ 8008 7997 7996 7995 ] final  -74.95 input   59.86 | X-H torsion
[ 10167 10162 10161 10158 ] final   -8.31 input  -65.29 | X-H torsion
[ 10718 10713 10712 10709 ] final  132.01 input   66.30 | X-H torsion
[ 10763 10752 10751 10750 ] final  -46.90 input  -60.55 | X-H torsion
[ 11005 11000 10999 10996 ] final   59.45 input  -57.11 | X-H torsion

> <Gold.Protein.ActiveResidues>
 VAL166  LYS551  ARG553  GLY616  TRP617  ASP618  TYR619  PRO620  LYS621  CYS622 
 ASP623  PHE694  ASN695  SER759  ASP760  ASP761  ALA762  ILE779  LEU786  VAL792 
 PHE793  MET794  SER795  GLU796  ALA797  LYS798  CYS799  TRP800  GLU811  SER814 

> <Gold.Protein.RotatedAtoms>
  151.1883  133.4683  159.2594 H   0  0  0  0  0  0  0  0  0  0  0  0  # atno 6907 bound_to 6896
  151.1189  135.0068  159.8539 H   0  0  0  0  0  0  0  0  0  0  0  0  # atno 6908 bound_to 6896
  152.5455  134.1796  159.8683 H   0  0  0  0  0  0  0  0  0  0  0  0  # atno 6909 bound_to 6896
  145.5959  139.2345  143.2273 H   0  0  0  0  0  0  0  0  0  0  0  0  # atno 7974 bound_to 7965
  154.5374  140.0752  156.8451 H   0  0  0  0  0  0  0  0  0  0  0  0  # atno 8008 bound_to 7997
  155.3250  140.3398  155.4222 H   0  0  0  0  0  0  0  0  0  0  0  0  # atno 8009 bound_to 7997
  156.1842  140.1663  156.8204 H   0  0  0  0  0  0  0  0  0  0  0  0  # atno 8010 bound_to 7997
  140.7055  143.5983  150.8824 H   0  0  0  0  0  0  0  0  0  0  0  0  # atno 10167 bound_to 10162
  157.4912  131.1090  150.9553 H   0  0  0  0  0  0  0  0  0  0  0  0  # atno 10718 bound_to 10713
  154.0526  135.6629  153.4802 H   0  0  0  0  0  0  0  0  0  0  0  0  # atno 10763 bound_to 10752
  153.0457  135.5116  154.7736 H   0  0  0  0  0  0  0  0  0  0  0  0  # atno 10764 bound_to 10752
  154.6747  135.3035  154.9661 H   0  0  0  0  0  0  0  0  0  0  0  0  # atno 10765 bound_to 10752
  140.0303  134.6022  155.9516 H   0  0  0  0  0  0  0  0  0  0  0  0  # atno 11005 bound_to 11000
  146.1612  140.6784  142.9276 LP  0  0  0  0  0  0  0  0  0  0  0  0  # atno 17320 bound_to 7965
  144.7331  140.4730  143.6923 LP  0  0  0  0  0  0  0  0  0  0  0  0  # atno 17321 bound_to 7965
  139.9707  143.6060  152.2974 LP  0  0  0  0  0  0  0  0  0  0  0  0  # atno 17342 bound_to 10162
  139.6645  144.7662  151.1899 LP  0  0  0  0  0  0  0  0  0  0  0  0  # atno 17343 bound_to 10162
  157.0254  130.5690  149.5336 LP  0  0  0  0  0  0  0  0  0  0  0  0  # atno 17370 bound_to 10713
  156.0175  130.5269  150.8177 LP  0  0  0  0  0  0  0  0  0  0  0  0  # atno 17371 bound_to 10713
  141.1827  133.6549  156.5087 LP  0  0  0  0  0  0  0  0  0  0  0  0  # atno 17394 bound_to 11000
  140.4237  134.7164  157.4904 LP  0  0  0  0  0  0  0  0  0  0  0  0  # atno 17395 bound_to 11000

$$$$
