AV-unprocessed.smi:160|AV-procd|sdf|1364|dock10
  -GOLD-   2262019 73D 1   1.00000     0.00000
 Structure written by MMmdl.
 28 29  0  0  0  0  0  0  0  0  2 V2000
  154.5308  136.0464  157.1102 N   0  5  0  0  0  0  0  0  0  0  0  0
  154.2725  137.3702  157.1850 C   0  0  0  0  0  0  0  0  0  0  0  0
  154.8596  138.1851  157.8962 O   0  0  0  0  0  0  0  0  0  0  0  0
  153.1472  137.8443  156.2957 C   0  0  0  0  0  0  0  0  0  0  0  0
  152.3871  136.9466  155.5974 N   0  0  0  0  0  0  0  0  0  0  0  0
  151.5698  137.7920  154.9842 C   0  0  0  0  0  0  0  0  0  0  0  0
  151.7989  139.0779  155.2638 N   0  0  0  0  0  0  0  0  0  0  0  0
  151.0928  140.3052  154.7665 C   0  0  1  0  0  0  0  0  0  0  0  0
  150.0974  139.9121  153.8698 O   0  0  0  0  0  0  0  0  0  0  0  0
  148.8269  139.9620  154.5098 C   0  0  2  0  0  0  0  0  0  0  0  0
  147.6850  140.0206  153.4796 C   0  0  0  0  0  0  0  0  0  0  0  0
  147.7284  138.8883  152.6380 O   0  0  0  0  0  0  0  0  0  0  0  0
  148.9606  141.1914  155.4207 C   0  0  2  0  0  0  0  0  0  0  0  0
  148.7294  142.3886  154.6992 O   0  0  0  0  0  0  0  0  0  0  0  0
  150.4114  141.1281  155.8881 C   0  0  1  0  0  0  0  0  0  0  0  0
  150.4838  140.5438  157.1771 O   0  0  0  0  0  0  0  0  0  0  0  0
  152.8356  139.1344  156.1371 N   0  0  0  0  0  0  0  0  0  0  0  0
  151.8651  140.8626  154.2354 H   0  0  0  0  0  0  0  0  0  0  0  0
  148.7085  139.0811  155.1433 H   0  0  0  0  0  0  0  0  0  0  0  0
  148.2508  141.1586  156.2487 H   0  0  0  0  0  0  0  0  0  0  0  0
  150.8685  142.1173  155.9382 H   0  0  0  0  0  0  0  0  0  0  0  0
  154.7757  135.5445  157.9716 H   0  0  0  0  0  0  0  0  0  0  0  0
  150.7893  137.4660  154.3126 H   0  0  0  0  0  0  0  0  0  0  0  0
  146.7211  140.0089  153.9886 H   0  0  0  0  0  0  0  0  0  0  0  0
  147.7303  140.9336  152.8851 H   0  0  0  0  0  0  0  0  0  0  0  0
  148.3919  139.0264  151.9798 H   0  0  0  0  0  0  0  0  0  0  0  0
  148.9371  143.1205  155.2594 H   0  0  0  0  0  0  0  0  0  0  0  0
  151.1628  139.8868  157.1735 H   0  0  0  0  0  0  0  0  0  0  0  0
  1  2  1  0  0  0  0
  1 22  1  0  0  0  0
  2  3  2  0  0  0  0
  2  4  1  0  0  0  0
  4 17  2  0  0  0  0
  4  5  1  0  0  0  0
  5  6  2  0  0  0  0
  6  7  1  0  0  0  0
  6 23  1  0  0  0  0
  7  8  1  0  0  0  0
  7 17  1  0  0  0  0
  8 18  1  0  0  0  0
  8 15  1  0  0  0  0
  8  9  1  0  0  0  0
  9 10  1  0  0  0  0
 10 19  1  0  0  0  0
 10 11  1  0  0  0  0
 10 13  1  0  0  0  0
 11 12  1  0  0  0  0
 11 24  1  0  0  0  0
 11 25  1  0  0  0  0
 12 26  1  0  0  0  0
 13 20  1  0  0  0  0
 13 14  1  0  0  0  0
 13 15  1  0  0  0  0
 14 27  1  0  0  0  0
 15 21  1  0  0  0  0
 15 16  1  0  0  0  0
 16 28  1  0  0  0  0
M  CHG  1   1  -1
M  END
> <s_m_source_file>
AV-unprocessed.smi

> <i_m_source_file_index>
160

> <i_lp_mmshare_version>
43012

> <i_f3d_flags>
0

> <s_epik_input>
W05IMl1DKD1PKWMxbltjSF1uKG4xKVtDQEBIXTJPW0NASF0oW0NIMl1bT0hdKVtDQEBIXShbT0hdKVtDQEhdMltPSF0=

> <s_epik_cmdline>
J2VwaWtfcHl0aG9uJywgJy1waCcsICc3LjAnLCAnLXRuJywgJzgnLCAnLW1hJywgJzIwMCcsICctbWV0YWxfYmluZGluZycsICctaW1hZScsICc8aW5maWxlLm1hZT4nLCAnLW9tYWUnLCAnPG91dGZpbGUubWFlPic=

> <r_lp_tautomer_probability>
1

> <r_epik_Ionization_Penalty>
6.6993

> <r_epik_Ionization_Penalty_Charging>
6.6993

> <r_epik_Ionization_Penalty_Neutral>
6.01698e-06

> <r_epik_State_Penalty>
6.69929

> <r_epik_Charging_Adjusted_Penalty>
13.3986

> <i_epik_Tot_Q>
-1

> <i_epik_Tot_abs_Q>
1

> <r_epik_Metal_State_Penalty>
2.62798

> <b_epik_Metal_Only>
1

> <s_epik_Chemistry_Notes>
This compound contains an acetal/aminal-like group ( X-CH(R)-Y where X, Y are N, S, or O) that may be acid/base labile, releasing an aldehyde.

> <s_lp_Force_Field>
OPLS_2005

> <r_lp_Energy>
46.6633

> <b_lp_Chiralities_Consistent>
1

> <s_lp_Variant>
AV-unprocessed.smi:160-22

> <Gold.Version>
5.8.1

> <Gold.Id.Protein>
6NUR|6NUR_protein|mol2

> <Gold.PLP.Fitness>
42.3676

> <Gold.PLP.PLP>
-23.9691

> <Gold.PLP.part.hbond>
-8.7813

> <Gold.PLP.part.metal>
0.0000

> <Gold.PLP.part.buried>
0.0274

> <Gold.PLP.part.nonpolar>
-17.9901

> <Gold.PLP.part.repulsive>
2.5890

> <Gold.PLP.ligand.clash>
0.0000

> <Gold.PLP.ligand.torsion>
0.0309

> <Gold.PLP.Chemscore.Hbond>
6.1520

> <Gold.PLP.Chemscore.CHOScore>
0.0000

> <Gold.PLP.Chemscore.Metal>
0.0000

> <Gold.Chemscore.Hbonds>
donor molecule, donor type, donor heavy atom, donor atom, acceptor molecule, acceptor atom, score
      L1  H    12    26       P1  7957  1.00
      L1  H    14    27       P1  8028  1.00
      P1  H  7997  8008       L1     3  0.58
      P1  H  7997  8009       L1    17  0.99
      P1  H 10752 10764       L1     5  0.56
      P1  H 10752 10765       L1     1  2.00

> <Gold.PLP.Chemscore.Internal.Correction>
0.0044

> <Gold.Rescore>
     Score         DG    S(hbond)    S(metal)    S(lipo)     H(rot)  DE(clash)    DE(int)     intcor
      9.16     -12.19       4.25        0.00      24.50       4.04       2.75       0.29       ----

> <Gold.Chemscore.Fitness>
9.1557

> <Gold.Chemscore.DG>
-12.1939

> <Gold.Chemscore.ZeroCoef>
-5.4800

> <Gold.Chemscore.Hbond>
4.2487

> <Gold.Chemscore.Metal>
0.0000

> <Gold.Chemscore.Lipo>
24.4993

> <Gold.Chemscore.Internal_Hbond>
0.0000

> <Gold.Chemscore.DEClash>
2.7504

> <Gold.Chemscore.DEInternal>
0.2877

> <Gold.Chemscore.Rot>
4.0403

> <Gold.Chemscore.Internal.Correction>
   9.000000E+99

> <Gold.Chemscore.Hbonds>
donor molecule, donor type, donor heavy atom, donor atom, acceptor molecule, acceptor atom, score
      L1  H    12    26       P1  7957  0.95
      L1  H    14    27       P1  8028  0.95
      P1  H  7997  8008       L1     3  0.56
      P1  H  7997  8009       L1    17  0.70
      P1  H 10752 10764       L1     5  0.44
      P1  H 10752 10765       L1     1  0.83

> <Gold.Chemscore.Hbond.Weighted>
-14.1905

> <Gold.Chemscore.Metal.Weighted>
-0.0000

> <Gold.Chemscore.Lipo.Weighted>
-2.8664

> <Gold.Chemscore.Internal_Hbond.Weighted>
0.0000

> <Gold.Chemscore.DEClash.Weighted>
2.7504

> <Gold.Chemscore.DEInternal.Weighted>
0.2877

> <Gold.Chemscore.Rot.Weighted>
10.3431

> <Gold.Chemscore.Internal.Correction.Weighted>
   9.000000E+99

> <Gold.Protein.RotatedTorsions>
[ 6907 6896 6895 6894 ] final -105.01 input  -60.11 | X-H torsion
[ 7974 7965 7964 7962 ] final   -6.04 input  175.53 | X-H torsion
[ 8008 7997 7996 7995 ] final -141.83 input   59.86 | X-H torsion
[ 10167 10162 10161 10158 ] final    2.76 input  -65.29 | X-H torsion
[ 10718 10713 10712 10709 ] final  -88.68 input   66.30 | X-H torsion
[ 10763 10752 10751 10750 ] final  -70.59 input  -60.55 | X-H torsion
[ 11005 11000 10999 10996 ] final  -70.81 input  -57.11 | X-H torsion

> <Gold.Protein.ActiveResidues>
 VAL166  LYS551  ARG553  GLY616  TRP617  ASP618  TYR619  PRO620  LYS621  CYS622 
 ASP623  PHE694  ASN695  SER759  ASP760  ASP761  ALA762  ILE779  LEU786  VAL792 
 PHE793  MET794  SER795  GLU796  ALA797  LYS798  CYS799  TRP800  GLU811  SER814 

> <Gold.Protein.RotatedAtoms>
  150.7315  134.0191  159.3694 H   0  0  0  0  0  0  0  0  0  0  0  0  # atno 6907 bound_to 6896
  151.8154  135.0666  160.0427 H   0  0  0  0  0  0  0  0  0  0  0  0  # atno 6908 bound_to 6896
  152.3042  133.5650  159.5674 H   0  0  0  0  0  0  0  0  0  0  0  0  # atno 6909 bound_to 6896
  146.2340  140.2111  142.8335 H   0  0  0  0  0  0  0  0  0  0  0  0  # atno 7974 bound_to 7965
  155.4842  140.0562  157.2963 H   0  0  0  0  0  0  0  0  0  0  0  0  # atno 8008 bound_to 7997
  154.4648  140.2013  156.0099 H   0  0  0  0  0  0  0  0  0  0  0  0  # atno 8009 bound_to 7997
  156.0955  140.3227  155.7876 H   0  0  0  0  0  0  0  0  0  0  0  0  # atno 8010 bound_to 7997
  140.6619  143.7281  150.7754 H   0  0  0  0  0  0  0  0  0  0  0  0  # atno 10167 bound_to 10162
  155.9983  130.4844  150.5055 H   0  0  0  0  0  0  0  0  0  0  0  0  # atno 10718 bound_to 10713
  154.4199  135.5989  153.6003 H   0  0  0  0  0  0  0  0  0  0  0  0  # atno 10763 bound_to 10752
  152.9793  135.5949  154.3968 H   0  0  0  0  0  0  0  0  0  0  0  0  # atno 10764 bound_to 10752
  154.3792  135.2841  155.2200 H   0  0  0  0  0  0  0  0  0  0  0  0  # atno 10765 bound_to 10752
  141.1581  133.6800  156.6810 H   0  0  0  0  0  0  0  0  0  0  0  0  # atno 11005 bound_to 11000
  144.9706  140.8364  143.5458 LP  0  0  0  0  0  0  0  0  0  0  0  0  # atno 17320 bound_to 7965
  145.2092  139.2213  143.5152 LP  0  0  0  0  0  0  0  0  0  0  0  0  # atno 17321 bound_to 7965
  140.0952  143.4840  152.2456 LP  0  0  0  0  0  0  0  0  0  0  0  0  # atno 17342 bound_to 10162
  139.5855  144.7529  151.3530 LP  0  0  0  0  0  0  0  0  0  0  0  0  # atno 17343 bound_to 10162
  157.3035  131.0650  151.2052 LP  0  0  0  0  0  0  0  0  0  0  0  0  # atno 17370 bound_to 10713
  157.3023  130.6849  149.6170 LP  0  0  0  0  0  0  0  0  0  0  0  0  # atno 17371 bound_to 10713
  140.3102  134.8092  157.4170 LP  0  0  0  0  0  0  0  0  0  0  0  0  # atno 17394 bound_to 11000
  140.1185  134.5251  155.8204 LP  0  0  0  0  0  0  0  0  0  0  0  0  # atno 17395 bound_to 11000

$$$$
