AV-unprocessed.smi:468|AV-procd|sdf|2652|dock7
  -GOLD-   2262023 63D 1   1.00000     0.00000
 Structure written by MMmdl.
 49 50  0  0  0  0  0  0  0  0  2 V2000
  150.0028  138.9434  154.1024 C   0  0  0  0  0  0  0  0  0  0  0  0
  149.5317  137.6558  154.4554 O   0  0  0  0  0  0  0  0  0  0  0  0
  148.4170  137.7004  155.3301 C   0  0  0  0  0  0  0  0  0  0  0  0
  147.7468  136.3173  155.3745 C   0  0  0  0  0  0  0  0  0  0  0  0
  148.2869  135.4606  156.4432 N   0  0  0  0  0  0  0  0  0  0  0  0
  148.9634  134.3187  156.1489 C   0  0  0  0  0  0  0  0  0  0  0  0
  149.5055  133.6427  157.0255 O   0  0  0  0  0  0  0  0  0  0  0  0
  149.0190  133.8264  154.6839 C   0  0  0  0  0  0  0  0  0  0  0  0
  147.6575  133.6080  153.9918 C   0  0  0  0  0  0  0  0  0  0  0  0
  148.2054  132.2946  153.4273 C   0  0  0  0  0  0  0  0  0  0  0  0
  149.2548  132.3135  154.5415 C   0  0  0  0  0  0  0  0  0  0  0  0
  148.1082  135.9070  157.7661 C   0  0  0  0  0  0  0  0  0  0  0  0
  147.1232  135.4290  158.5730 C   0  0  0  0  0  0  0  0  0  0  0  0
  146.2292  134.4705  158.1174 N   0  0  0  0  0  0  0  0  0  0  0  0
  146.9932  135.9162  159.9016 N   0  0  0  0  0  0  0  0  0  0  0  0
  145.9016  135.3852  160.7510 C   0  0  0  0  0  0  0  0  0  0  0  0
  146.3766  134.9519  162.1600 C   0  0  0  0  0  0  0  0  0  0  0  0
  147.4756  133.8766  162.1231 C   0  0  0  0  0  0  0  0  0  0  0  0
  145.1863  134.4745  163.0048 C   0  0  0  0  0  0  0  0  0  0  0  0
  147.8591  136.8602  160.3863 C   0  0  0  0  0  0  0  0  0  0  0  0
  147.7219  137.2723  161.5388 O   0  0  0  0  0  0  0  0  0  0  0  0
  148.8522  137.3274  159.5768 N   0  5  0  0  0  0  0  0  0  0  0  0
  149.0358  136.9118  158.2961 C   0  0  0  0  0  0  0  0  0  0  0  0
  149.9465  137.3451  157.5898 O   0  0  0  0  0  0  0  0  0  0  0  0
  150.8546  138.8476  153.4293 H   0  0  0  0  0  0  0  0  0  0  0  0
  150.3308  139.4975  154.9828 H   0  0  0  0  0  0  0  0  0  0  0  0
  149.2309  139.5199  153.5914 H   0  0  0  0  0  0  0  0  0  0  0  0
  148.7189  138.0198  156.3287 H   0  0  0  0  0  0  0  0  0  0  0  0
  147.7034  138.4363  154.9572 H   0  0  0  0  0  0  0  0  0  0  0  0
  146.6708  136.4373  155.5114 H   0  0  0  0  0  0  0  0  0  0  0  0
  147.8554  135.8329  154.4026 H   0  0  0  0  0  0  0  0  0  0  0  0
  149.6787  134.4099  154.0398 H   0  0  0  0  0  0  0  0  0  0  0  0
  146.8130  133.4458  154.6631 H   0  0  0  0  0  0  0  0  0  0  0  0
  147.4182  134.3498  153.2295 H   0  0  0  0  0  0  0  0  0  0  0  0
  147.5112  131.4548  153.4692 H   0  0  0  0  0  0  0  0  0  0  0  0
  148.6427  132.4119  152.4345 H   0  0  0  0  0  0  0  0  0  0  0  0
  150.2580  132.0441  154.2098 H   0  0  0  0  0  0  0  0  0  0  0  0
  148.9549  131.7370  155.4184 H   0  0  0  0  0  0  0  0  0  0  0  0
  146.2893  134.1062  157.1775 H   0  0  0  0  0  0  0  0  0  0  0  0
  145.3640  134.2932  158.6070 H   0  0  0  0  0  0  0  0  0  0  0  0
  145.1174  136.1379  160.8406 H   0  0  0  0  0  0  0  0  0  0  0  0
  145.3870  134.5490  160.2756 H   0  0  0  0  0  0  0  0  0  0  0  0
  146.7961  135.8217  162.6658 H   0  0  0  0  0  0  0  0  0  0  0  0
  147.1418  132.9875  161.5874 H   0  0  0  0  0  0  0  0  0  0  0  0
  147.7608  133.5715  163.1301 H   0  0  0  0  0  0  0  0  0  0  0  0
  148.3775  134.2434  161.6329 H   0  0  0  0  0  0  0  0  0  0  0  0
  144.7200  133.5908  162.5677 H   0  0  0  0  0  0  0  0  0  0  0  0
  144.4236  135.2498  163.0829 H   0  0  0  0  0  0  0  0  0  0  0  0
  145.4989  134.2198  164.0178 H   0  0  0  0  0  0  0  0  0  0  0  0
  1  2  1  0  0  0  0
  1 25  1  0  0  0  0
  1 26  1  0  0  0  0
  1 27  1  0  0  0  0
  2  3  1  0  0  0  0
  3  4  1  0  0  0  0
  3 28  1  0  0  0  0
  3 29  1  0  0  0  0
  4  5  1  0  0  0  0
  4 30  1  0  0  0  0
  4 31  1  0  0  0  0
  5  6  1  0  0  0  0
  5 12  1  0  0  0  0
  6  7  2  0  0  0  0
  6  8  1  0  0  0  0
  8 11  1  0  0  0  0
  8  9  1  0  0  0  0
  8 32  1  0  0  0  0
  9 10  1  0  0  0  0
  9 33  1  0  0  0  0
  9 34  1  0  0  0  0
 10 11  1  0  0  0  0
 10 35  1  0  0  0  0
 10 36  1  0  0  0  0
 11 37  1  0  0  0  0
 11 38  1  0  0  0  0
 12 23  1  0  0  0  0
 12 13  2  0  0  0  0
 13 14  1  0  0  0  0
 13 15  1  0  0  0  0
 14 39  1  0  0  0  0
 14 40  1  0  0  0  0
 15 16  1  0  0  0  0
 15 20  1  0  0  0  0
 16 17  1  0  0  0  0
 16 41  1  0  0  0  0
 16 42  1  0  0  0  0
 17 18  1  0  0  0  0
 17 19  1  0  0  0  0
 17 43  1  0  0  0  0
 18 44  1  0  0  0  0
 18 45  1  0  0  0  0
 18 46  1  0  0  0  0
 19 47  1  0  0  0  0
 19 48  1  0  0  0  0
 19 49  1  0  0  0  0
 20 21  2  0  0  0  0
 20 22  1  0  0  0  0
 22 23  1  0  0  0  0
 23 24  2  0  0  0  0
M  CHG  1  22  -1
M  END
> <s_m_source_file>
AV-unprocessed.smi

> <i_m_source_file_index>
468

> <i_lp_mmshare_version>
43012

> <i_f3d_flags>
0

> <s_epik_input>
W0NIMl0xW0NIMl1bQ0gyXVtDSF0xQyg9TylOKFtDSDJdW0NIMl1PW0NIM10pYzJjKFtOSDJdKW4oW0NIMl1bQ0hdKFtDSDNdKVtDSDNdKWMoPU8pW25IXWMyPU8=

> <s_epik_cmdline>
J2VwaWtfcHl0aG9uJywgJy1waCcsICc3LjAnLCAnLXRuJywgJzgnLCAnLW1hJywgJzIwMCcsICctbWV0YWxfYmluZGluZycsICctaW1hZScsICc8aW5maWxlLm1hZT4nLCAnLW9tYWUnLCAnPG91dGZpbGUubWFlPic=

> <r_lp_tautomer_probability>
1

> <r_epik_Ionization_Penalty>
5.91772

> <r_epik_Ionization_Penalty_Charging>
1.97379e-07

> <r_epik_Ionization_Penalty_Neutral>
5.91772

> <r_epik_State_Penalty>
5.91769

> <r_epik_Charging_Adjusted_Penalty>
5.91769

> <i_epik_Tot_Q>
-1

> <i_epik_Tot_abs_Q>
1

> <r_epik_Metal_State_Penalty>
1.85156

> <b_epik_Metal_Only>
1

> <s_lp_Force_Field>
OPLS_2005

> <r_lp_Energy>
46.8311

> <b_lp_Chiralities_Consistent>
1

> <s_lp_Variant>
AV-unprocessed.smi:468-2

> <Gold.Version>
5.8.1

> <Gold.Id.Protein>
6NUR|6NUR_protein|mol2

> <Gold.PLP.Fitness>
42.2546

> <Gold.PLP.PLP>
-34.9622

> <Gold.PLP.part.hbond>
-4.1522

> <Gold.PLP.part.metal>
0.0000

> <Gold.PLP.part.buried>
-3.5091

> <Gold.PLP.part.nonpolar>
-27.6266

> <Gold.PLP.part.repulsive>
0.1663

> <Gold.PLP.ligand.clash>
0.0000

> <Gold.PLP.ligand.torsion>
2.2177

> <Gold.PLP.Chemscore.Hbond>
2.9990

> <Gold.PLP.Chemscore.CHOScore>
0.0000

> <Gold.PLP.Chemscore.Metal>
0.0000

> <Gold.Chemscore.Hbonds>
donor molecule, donor type, donor heavy atom, donor atom, acceptor molecule, acceptor atom, score
      P1  H  6931  6943       L1    21  0.98
      P1  H  6934  6947       L1    21  0.48

> <Gold.PLP.Chemscore.Internal.Correction>
2.7309

> <Gold.Rescore>
     Score         DG    S(hbond)    S(metal)    S(lipo)     H(rot)  DE(clash)    DE(int)     intcor
     11.97     -16.38       2.67        0.00      61.34       2.04       0.25       4.16       ----

> <Gold.Chemscore.Fitness>
11.9701

> <Gold.Chemscore.DG>
-16.3758

> <Gold.Chemscore.ZeroCoef>
-5.4800

> <Gold.Chemscore.Hbond>
2.6741

> <Gold.Chemscore.Metal>
0.0000

> <Gold.Chemscore.Lipo>
61.3416

> <Gold.Chemscore.Internal_Hbond>
0.0000

> <Gold.Chemscore.DEClash>
0.2459

> <Gold.Chemscore.DEInternal>
4.1598

> <Gold.Chemscore.Rot>
2.0362

> <Gold.Chemscore.Internal.Correction>
   9.000000E+99

> <Gold.Chemscore.Hbonds>
donor molecule, donor type, donor heavy atom, donor atom, acceptor molecule, acceptor atom, score
      P1  H  6931  6943       L1    21  0.65
      P1  H  6934  6947       L1    21  0.04

> <Gold.Chemscore.Hbond.Weighted>
-8.9315

> <Gold.Chemscore.Metal.Weighted>
-0.0000

> <Gold.Chemscore.Lipo.Weighted>
-7.1770

> <Gold.Chemscore.Internal_Hbond.Weighted>
0.0000

> <Gold.Chemscore.DEClash.Weighted>
0.2459

> <Gold.Chemscore.DEInternal.Weighted>
4.1598

> <Gold.Chemscore.Rot.Weighted>
5.2126

> <Gold.Chemscore.Internal.Correction.Weighted>
   9.000000E+99

> <Gold.Protein.RotatedTorsions>
[ 6907 6896 6895 6894 ] final   98.47 input  -60.11 | X-H torsion
[ 7974 7965 7964 7962 ] final -153.74 input  175.53 | X-H torsion
[ 8008 7997 7996 7995 ] final -160.26 input   59.86 | X-H torsion
[ 10167 10162 10161 10158 ] final -174.11 input  -65.29 | X-H torsion
[ 10718 10713 10712 10709 ] final -130.22 input   66.30 | X-H torsion
[ 10763 10752 10751 10750 ] final  -80.59 input  -60.55 | X-H torsion
[ 11005 11000 10999 10996 ] final  -31.09 input  -57.11 | X-H torsion

> <Gold.Protein.ActiveResidues>
 VAL166  LYS551  ARG553  GLY616  TRP617  ASP618  TYR619  PRO620  LYS621  CYS622 
 ASP623  PHE694  ASN695  SER759  ASP760  ASP761  ALA762  ILE779  LEU786  VAL792 
 PHE793  MET794  SER795  GLU796  ALA797  LYS798  CYS799  TRP800  GLU811  SER814 

> <Gold.Protein.RotatedAtoms>
  152.5408  134.0575  159.8137 H   0  0  0  0  0  0  0  0  0  0  0  0  # atno 6907 bound_to 6896
  151.0708  133.5460  159.2634 H   0  0  0  0  0  0  0  0  0  0  0  0  # atno 6908 bound_to 6896
  151.2324  135.0567  159.9047 H   0  0  0  0  0  0  0  0  0  0  0  0  # atno 6909 bound_to 6896
  144.7725  140.4483  143.5897 H   0  0  0  0  0  0  0  0  0  0  0  0  # atno 7974 bound_to 7965
  155.7748  140.0857  157.2089 H   0  0  0  0  0  0  0  0  0  0  0  0  # atno 8008 bound_to 7997
  154.3994  140.1518  156.3041 H   0  0  0  0  0  0  0  0  0  0  0  0  # atno 8009 bound_to 7997
  155.8711  140.3425  155.5824 H   0  0  0  0  0  0  0  0  0  0  0  0  # atno 8010 bound_to 7997
  139.5651  144.1774  152.1300 H   0  0  0  0  0  0  0  0  0  0  0  0  # atno 10167 bound_to 10162
  156.2123  130.6926  151.0664 H   0  0  0  0  0  0  0  0  0  0  0  0  # atno 10718 bound_to 10713
  154.5531  135.5655  153.6940 H   0  0  0  0  0  0  0  0  0  0  0  0  # atno 10763 bound_to 10752
  152.9995  135.6255  154.2347 H   0  0  0  0  0  0  0  0  0  0  0  0  # atno 10764 bound_to 10752
  154.2282  135.2867  155.2879 H   0  0  0  0  0  0  0  0  0  0  0  0  # atno 10765 bound_to 10752
  140.9438  133.7262  156.1116 H   0  0  0  0  0  0  0  0  0  0  0  0  # atno 11005 bound_to 11000
  145.6283  139.1533  143.2984 LP  0  0  0  0  0  0  0  0  0  0  0  0  # atno 17320 bound_to 7965
  146.1881  140.6388  142.9158 LP  0  0  0  0  0  0  0  0  0  0  0  0  # atno 17321 bound_to 7965
  140.1296  144.5301  150.6811 LP  0  0  0  0  0  0  0  0  0  0  0  0  # atno 17342 bound_to 10162
  140.6934  143.2389  151.5067 LP  0  0  0  0  0  0  0  0  0  0  0  0  # atno 17343 bound_to 10162
  157.7045  131.0762  150.6712 LP  0  0  0  0  0  0  0  0  0  0  0  0  # atno 17370 bound_to 10713
  156.6772  130.4556  149.5639 LP  0  0  0  0  0  0  0  0  0  0  0  0  # atno 17371 bound_to 10713
  140.7697  134.3847  157.5510 LP  0  0  0  0  0  0  0  0  0  0  0  0  # atno 17394 bound_to 11000
  139.8828  134.9014  156.2810 LP  0  0  0  0  0  0  0  0  0  0  0  0  # atno 17395 bound_to 11000

$$$$
