AV-unprocessed.smi:1901|AV-procd|sdf|7716|dock7
  -GOLD-   22720 9453D 1   1.00000     0.00000
 Structure written by MMmdl.
 28 29  0  0  0  0  0  0  0  0  1 V2000
  151.8609  141.4478  157.0674 O   0  0  0  0  0  0  0  0  0  0  0  0
  151.0865  142.3215  156.6756 C   0  0  0  0  0  0  0  0  0  0  0  0
  151.0898  143.5767  157.1471 N   0  0  0  0  0  0  0  0  0  0  0  0
  151.9951  144.0815  158.1739 C   0  0  0  0  0  0  0  0  0  0  0  0
  152.0061  143.1856  159.4271 C   0  0  2  0  0  0  0  0  0  0  0  0
  152.2774  143.9155  160.7279 C   0  0  0  0  0  0  0  0  0  0  0  0
  152.7003  142.7714  161.6430 C   0  0  0  0  0  0  0  0  0  0  0  0
  153.3626  141.8304  160.8033 O   0  0  0  0  0  0  0  0  0  0  0  0
  153.1227  142.1415  159.4333 C   0  0  0  0  0  0  0  0  0  0  0  0
  150.1388  142.1566  155.7363 N   0  0  0  0  0  0  0  0  0  0  0  0
  149.8283  140.9835  154.9995 C   0  0  0  0  0  0  0  0  0  0  0  0
  148.6358  140.7328  154.4465 N   0  0  0  0  0  0  0  0  0  0  0  0
  148.6130  139.5033  153.7832 C   0  0  0  0  0  0  0  0  0  0  0  0
  149.8060  138.8269  153.8408 C   0  0  0  0  0  0  0  0  0  0  0  0
  151.0128  139.7125  154.7347 S   0  0  0  0  0  0  0  0  0  0  0  0
  150.4190  144.2303  156.7704 H   0  0  0  0  0  0  0  0  0  0  0  0
  153.0035  144.1738  157.7672 H   0  0  0  0  0  0  0  0  0  0  0  0
  151.6770  145.0909  158.4365 H   0  0  0  0  0  0  0  0  0  0  0  0
  151.0509  142.6645  159.5140 H   0  0  0  0  0  0  0  0  0  0  0  0
  153.1004  144.6213  160.6061 H   0  0  0  0  0  0  0  0  0  0  0  0
  151.4112  144.4601  161.1049 H   0  0  0  0  0  0  0  0  0  0  0  0
  153.3449  143.1035  162.4570 H   0  0  0  0  0  0  0  0  0  0  0  0
  151.8236  142.2906  162.0790 H   0  0  0  0  0  0  0  0  0  0  0  0
  152.8593  141.2497  158.8641 H   0  0  0  0  0  0  0  0  0  0  0  0
  154.0409  142.5517  159.0110 H   0  0  0  0  0  0  0  0  0  0  0  0
  149.5783  142.9667  155.5169 H   0  0  0  0  0  0  0  0  0  0  0  0
  147.7031  139.1861  153.2952 H   0  0  0  0  0  0  0  0  0  0  0  0
  150.0464  137.8649  153.4132 H   0  0  0  0  0  0  0  0  0  0  0  0
  1  2  2  0  0  0  0
  2  3  1  0  0  0  0
  2 10  1  0  0  0  0
  3  4  1  0  0  0  0
  3 16  1  0  0  0  0
  4  5  1  0  0  0  0
  4 17  1  0  0  0  0
  4 18  1  0  0  0  0
  5  9  1  0  0  0  0
  5  6  1  0  0  0  0
  5 19  1  0  0  0  0
  6  7  1  0  0  0  0
  6 20  1  0  0  0  0
  6 21  1  0  0  0  0
  7  8  1  0  0  0  0
  7 22  1  0  0  0  0
  7 23  1  0  0  0  0
  8  9  1  0  0  0  0
  9 24  1  0  0  0  0
  9 25  1  0  0  0  0
 10 11  1  0  0  0  0
 10 26  1  0  0  0  0
 11 15  1  0  0  0  0
 11 12  2  0  0  0  0
 12 13  1  0  0  0  0
 13 14  2  0  0  0  0
 13 27  1  0  0  0  0
 14 15  1  0  0  0  0
 14 28  1  0  0  0  0
M  END
> <s_m_source_file>
AV-unprocessed.smi

> <i_m_source_file_index>
1901

> <i_lp_mmshare_version>
43012

> <i_f3d_flags>
0

> <s_epik_input>
czFbY0hdW2NIXW5jMVtOSF1DKD1PKVtOSF1bQ0gyXVtDQEBIXTJbQ0gyXVtDSDJdT1tDSDJdMg==

> <s_epik_cmdline>
J2VwaWtfcHl0aG9uJywgJy1waCcsICc3LjAnLCAnLXRuJywgJzgnLCAnLW1hJywgJzIwMCcsICctbWV0YWxfYmluZGluZycsICctaW1hZScsICc8aW5maWxlLm1hZT4nLCAnLW9tYWUnLCAnPG91dGZpbGUubWFlPic=

> <r_lp_tautomer_probability>
0.999

> <r_epik_Ionization_Penalty>
0.000365592

> <r_epik_Ionization_Penalty_Charging>
0

> <r_epik_Ionization_Penalty_Neutral>
0.000365592

> <r_epik_State_Penalty>
0.000177984

> <r_epik_Charging_Adjusted_Penalty>
0.000177984

> <i_epik_Tot_Q>
0

> <i_epik_Tot_abs_Q>
0

> <r_epik_Metal_State_Penalty>
0.00682492

> <b_epik_Metal_Only>
0

> <s_lp_Force_Field>
OPLS_2005

> <r_lp_Energy>
16.9403

> <b_lp_Chiralities_Consistent>
1

> <s_lp_Variant>
AV-unprocessed.smi:1901-1

> <Gold.Version>
5.8.1

> <Gold.Id.Protein>
6NUR|6NUR_protein|mol2

> <Gold.PLP.Fitness>
43.6017

> <Gold.PLP.PLP>
-35.7720

> <Gold.PLP.part.hbond>
-2.0000

> <Gold.PLP.part.metal>
0.0000

> <Gold.PLP.part.buried>
-3.2473

> <Gold.PLP.part.nonpolar>
-30.4426

> <Gold.PLP.part.repulsive>
0.2890

> <Gold.PLP.ligand.clash>
0.0000

> <Gold.PLP.ligand.torsion>
0.5878

> <Gold.PLP.Chemscore.Hbond>
2.0000

> <Gold.PLP.Chemscore.CHOScore>
1.0000

> <Gold.PLP.Chemscore.Metal>
0.0000

> <Gold.Chemscore.Hbonds>
donor molecule, donor type, donor heavy atom, donor atom, acceptor molecule, acceptor atom, score
      L1  H     3    16       P1  8028  1.00
      L1  H    10    26       P1  8028  1.00
      L1  C    14    28       P1  7948  1.00
      L1  C    14    28       P1  7949  0.01

> <Gold.PLP.Chemscore.Internal.Correction>
0.0053

> <Gold.Rescore>
     Score         DG    S(hbond)    S(metal)    S(lipo)     H(rot)  DE(clash)    DE(int)     intcor
     15.38     -17.95       1.96        0.00      79.29       1.32       0.06       2.50       ----

> <Gold.Chemscore.Fitness>
15.3848

> <Gold.Chemscore.DG>
-17.9486

> <Gold.Chemscore.ZeroCoef>
-5.4800

> <Gold.Chemscore.Hbond>
1.9647

> <Gold.Chemscore.Metal>
0.0000

> <Gold.Chemscore.Lipo>
79.2858

> <Gold.Chemscore.Internal_Hbond>
0.0000

> <Gold.Chemscore.DEClash>
0.0629

> <Gold.Chemscore.DEInternal>
2.5010

> <Gold.Chemscore.Rot>
1.3163

> <Gold.Chemscore.Internal.Correction>
   9.000000E+99

> <Gold.Chemscore.Hbonds>
donor molecule, donor type, donor heavy atom, donor atom, acceptor molecule, acceptor atom, score
      L1  H     3    16       P1  8028  0.96
      L1  H    10    26       P1  8028  0.99

> <Gold.Chemscore.Hbond.Weighted>
-6.5620

> <Gold.Chemscore.Metal.Weighted>
-0.0000

> <Gold.Chemscore.Lipo.Weighted>
-9.2764

> <Gold.Chemscore.Internal_Hbond.Weighted>
0.0000

> <Gold.Chemscore.DEClash.Weighted>
0.0629

> <Gold.Chemscore.DEInternal.Weighted>
2.5010

> <Gold.Chemscore.Rot.Weighted>
3.3698

> <Gold.Chemscore.Internal.Correction.Weighted>
   9.000000E+99

> <Gold.Protein.RotatedTorsions>
[ 6907 6896 6895 6894 ] final  101.43 input  -60.11 | X-H torsion
[ 7974 7965 7964 7962 ] final   43.75 input  175.53 | X-H torsion
[ 8008 7997 7996 7995 ] final   90.97 input   59.86 | X-H torsion
[ 10167 10162 10161 10158 ] final -118.49 input  -65.29 | X-H torsion
[ 10718 10713 10712 10709 ] final  150.48 input   66.30 | X-H torsion
[ 10763 10752 10751 10750 ] final  -52.98 input  -60.55 | X-H torsion
[ 11005 11000 10999 10996 ] final  157.25 input  -57.11 | X-H torsion

> <Gold.Protein.ActiveResidues>
 VAL166  LYS551  ARG553  GLY616  TRP617  ASP618  TYR619  PRO620  LYS621  CYS622 
 ASP623  PHE694  ASN695  SER759  ASP760  ASP761  ALA762  ILE779  LEU786  VAL792 
 PHE793  MET794  SER795  GLU796  ALA797  LYS798  CYS799  TRP800  GLU811  SER814 

> <Gold.Protein.RotatedAtoms>
  152.5349  134.0126  159.7945 H   0  0  0  0  0  0  0  0  0  0  0  0  # atno 6907 bound_to 6896
  151.0326  133.5769  159.2666 H   0  0  0  0  0  0  0  0  0  0  0  0  # atno 6908 bound_to 6896
  151.2768  135.0709  159.9208 H   0  0  0  0  0  0  0  0  0  0  0  0  # atno 6909 bound_to 6896
  146.0628  139.5152  142.9647 H   0  0  0  0  0  0  0  0  0  0  0  0  # atno 7974 bound_to 7965
  156.0183  140.3343  155.7012 H   0  0  0  0  0  0  0  0  0  0  0  0  # atno 8008 bound_to 7997
  155.6060  140.0660  157.2737 H   0  0  0  0  0  0  0  0  0  0  0  0  # atno 8009 bound_to 7997
  154.4306  140.1802  156.1210 H   0  0  0  0  0  0  0  0  0  0  0  0  # atno 8010 bound_to 7997
  140.0569  143.5006  152.2052 H   0  0  0  0  0  0  0  0  0  0  0  0  # atno 10167 bound_to 10162
  157.2829  131.0839  151.1519 H   0  0  0  0  0  0  0  0  0  0  0  0  # atno 10718 bound_to 10713
  154.1514  135.6489  153.4964 H   0  0  0  0  0  0  0  0  0  0  0  0  # atno 10763 bound_to 10752
  153.0137  135.5339  154.6804 H   0  0  0  0  0  0  0  0  0  0  0  0  # atno 10764 bound_to 10752
  154.6093  135.2952  155.0421 H   0  0  0  0  0  0  0  0  0  0  0  0  # atno 10765 bound_to 10752
  140.1752  134.8515  157.2737 H   0  0  0  0  0  0  0  0  0  0  0  0  # atno 11005 bound_to 11000
  145.6529  141.0259  143.1750 LP  0  0  0  0  0  0  0  0  0  0  0  0  # atno 17320 bound_to 7965
  144.7185  139.8112  143.7390 LP  0  0  0  0  0  0  0  0  0  0  0  0  # atno 17321 bound_to 7965
  139.5918  144.7553  151.3382 LP  0  0  0  0  0  0  0  0  0  0  0  0  # atno 17342 bound_to 10162
  140.7190  143.7187  150.7713 LP  0  0  0  0  0  0  0  0  0  0  0  0  # atno 17343 bound_to 10162
  157.2946  130.6813  149.6132 LP  0  0  0  0  0  0  0  0  0  0  0  0  # atno 17370 bound_to 10713
  155.9665  130.4410  150.5324 LP  0  0  0  0  0  0  0  0  0  0  0  0  # atno 17371 bound_to 10713
  140.2331  134.3885  155.7513 LP  0  0  0  0  0  0  0  0  0  0  0  0  # atno 17394 bound_to 11000
  141.2220  133.7225  156.8672 LP  0  0  0  0  0  0  0  0  0  0  0  0  # atno 17395 bound_to 11000

$$$$
