AV-unprocessed.smi:1337|AV-procd|sdf|5498|dock5
  -GOLD-   22720 5 83D 1   1.00000     0.00000
 Structure written by MMmdl.
 38 39  0  0  0  0  0  0  0  0  1 V2000
  152.9414  136.8860  159.7025 O   0  0  0  0  0  0  0  0  0  0  0  0
  154.0493  137.2383  160.1098 C   0  0  0  0  0  0  0  0  0  0  0  0
  155.0923  136.1995  160.5462 C   0  0  0  0  0  0  0  0  0  0  0  0
  154.8576  135.6777  161.9025 N   0  0  0  0  0  0  0  0  0  0  0  0
  154.3029  136.5551  162.8494 C   0  0  0  0  0  0  0  0  0  0  0  0
  154.0542  136.1478  164.1023 C   0  0  0  0  0  0  0  0  0  0  0  0
  154.3921  134.7532  164.4146 C   0  0  0  0  0  0  0  0  0  0  0  0
  154.8950  133.9499  163.5531 N   0  0  0  0  0  0  0  0  0  0  0  0
  155.1519  134.3791  162.2371 C   0  0  0  0  0  0  0  0  0  0  0  0
  155.6293  133.6104  161.4022 O   0  0  0  0  0  0  0  0  0  0  0  0
  154.4153  138.5240  160.2220 N   0  0  0  0  0  0  0  0  0  0  0  0
  153.5801  139.6648  159.8655 C   0  0  0  0  0  0  0  0  0  0  0  0
  153.6182  140.7533  160.9521 C   0  0  0  0  0  0  0  0  0  0  0  0
  152.9644  142.0513  160.5075 C   0  0  0  0  0  0  0  0  0  0  0  0
  152.7059  142.3104  159.2108 C   0  0  0  0  0  0  0  0  0  0  0  0
  152.0711  143.5945  158.7065 C   0  0  0  0  0  0  0  0  0  0  0  0
  152.0730  144.7049  159.7701 C   0  0  0  0  0  0  0  0  0  0  0  0
  151.6636  144.1564  161.1427 C   0  0  0  0  0  0  0  0  0  0  0  0
  152.6202  143.0452  161.6115 C   0  0  0  0  0  0  0  0  0  0  0  0
  155.1135  135.3772  159.8283 H   0  0  0  0  0  0  0  0  0  0  0  0
  156.0780  136.6620  160.4814 H   0  0  0  0  0  0  0  0  0  0  0  0
  154.0928  137.5535  162.4944 H   0  0  0  0  0  0  0  0  0  0  0  0
  153.6271  136.7683  164.8763 H   0  0  0  0  0  0  0  0  0  0  0  0
  154.1845  134.4404  165.4410 H   0  0  0  0  0  0  0  0  0  0  0  0
  155.3404  138.7260  160.5727 H   0  0  0  0  0  0  0  0  0  0  0  0
  153.9459  140.0628  158.9189 H   0  0  0  0  0  0  0  0  0  0  0  0
  152.5541  139.3374  159.6884 H   0  0  0  0  0  0  0  0  0  0  0  0
  153.1159  140.3926  161.8509 H   0  0  0  0  0  0  0  0  0  0  0  0
  154.6493  140.9603  161.2402 H   0  0  0  0  0  0  0  0  0  0  0  0
  152.9467  141.5747  158.4572 H   0  0  0  0  0  0  0  0  0  0  0  0
  152.6018  143.9330  157.8161 H   0  0  0  0  0  0  0  0  0  0  0  0
  151.0497  143.3675  158.4001 H   0  0  0  0  0  0  0  0  0  0  0  0
  153.0712  145.1392  159.8418 H   0  0  0  0  0  0  0  0  0  0  0  0
  151.4056  145.5124  159.4678 H   0  0  0  0  0  0  0  0  0  0  0  0
  151.6376  144.9598  161.8795 H   0  0  0  0  0  0  0  0  0  0  0  0
  150.6489  143.7611  161.0815 H   0  0  0  0  0  0  0  0  0  0  0  0
  152.1772  142.5158  162.4556 H   0  0  0  0  0  0  0  0  0  0  0  0
  153.5488  143.4899  161.9701 H   0  0  0  0  0  0  0  0  0  0  0  0
  1  2  2  0  0  0  0
  2  3  1  0  0  0  0
  2 11  1  0  0  0  0
  3  4  1  0  0  0  0
  3 20  1  0  0  0  0
  3 21  1  0  0  0  0
  4  9  1  0  0  0  0
  4  5  1  0  0  0  0
  5  6  2  0  0  0  0
  5 22  1  0  0  0  0
  6  7  1  0  0  0  0
  6 23  1  0  0  0  0
  7  8  2  0  0  0  0
  7 24  1  0  0  0  0
  8  9  1  0  0  0  0
  9 10  2  0  0  0  0
 11 12  1  0  0  0  0
 11 25  1  0  0  0  0
 12 13  1  0  0  0  0
 12 26  1  0  0  0  0
 12 27  1  0  0  0  0
 13 14  1  0  0  0  0
 13 28  1  0  0  0  0
 13 29  1  0  0  0  0
 14 19  1  0  0  0  0
 14 15  2  0  0  0  0
 15 16  1  0  0  0  0
 15 30  1  0  0  0  0
 16 17  1  0  0  0  0
 16 31  1  0  0  0  0
 16 32  1  0  0  0  0
 17 18  1  0  0  0  0
 17 33  1  0  0  0  0
 17 34  1  0  0  0  0
 18 19  1  0  0  0  0
 18 35  1  0  0  0  0
 18 36  1  0  0  0  0
 19 37  1  0  0  0  0
 19 38  1  0  0  0  0
M  END
> <s_m_source_file>
AV-unprocessed.smi

> <i_m_source_file_index>
1337

> <i_lp_mmshare_version>
43012

> <i_f3d_flags>
0

> <s_epik_input>
Tz1jMW5bY0hdW2NIXVtjSF1uMVtDSDJdQyg9TylbTkhdW0NIMl1bQ0gyXUMyPVtDSF1bQ0gyXVtDSDJdW0NIMl1bQ0gyXTI=

> <s_epik_cmdline>
J2VwaWtfcHl0aG9uJywgJy1waCcsICc3LjAnLCAnLXRuJywgJzgnLCAnLW1hJywgJzIwMCcsICctbWV0YWxfYmluZGluZycsICctaW1hZScsICc8aW5maWxlLm1hZT4nLCAnLW9tYWUnLCAnPG91dGZpbGUubWFlPic=

> <r_lp_tautomer_probability>
1

> <r_epik_Ionization_Penalty>
7.10509e-06

> <r_epik_Ionization_Penalty_Charging>
1.70435e-08

> <r_epik_Ionization_Penalty_Neutral>
7.08805e-06

> <r_epik_State_Penalty>
-0

> <r_epik_Charging_Adjusted_Penalty>
1.70435e-08

> <i_epik_Tot_Q>
0

> <i_epik_Tot_abs_Q>
0

> <r_epik_Metal_State_Penalty>
-0

> <b_epik_Metal_Only>
0

> <s_lp_Force_Field>
OPLS_2005

> <r_lp_Energy>
9.56824

> <b_lp_Chiralities_Consistent>
1

> <s_lp_Variant>
AV-unprocessed.smi:1337-1

> <Gold.Version>
5.8.1

> <Gold.Id.Protein>
6NUR|6NUR_protein|mol2

> <Gold.PLP.Fitness>
46.4007

> <Gold.PLP.PLP>
-45.2885

> <Gold.PLP.part.hbond>
-1.0000

> <Gold.PLP.part.metal>
0.0000

> <Gold.PLP.part.buried>
-4.7440

> <Gold.PLP.part.nonpolar>
-39.6896

> <Gold.PLP.part.repulsive>
0.0643

> <Gold.PLP.ligand.clash>
0.0000

> <Gold.PLP.ligand.torsion>
0.9663

> <Gold.PLP.Chemscore.Hbond>
1.0000

> <Gold.PLP.Chemscore.CHOScore>
0.0000

> <Gold.PLP.Chemscore.Metal>
0.0000

> <Gold.Chemscore.Hbonds>
donor molecule, donor type, donor heavy atom, donor atom, acceptor molecule, acceptor atom, score
      P1  H  6896  6907       L1     1  0.89

> <Gold.PLP.Chemscore.Internal.Correction>
0.0447

> <Gold.Rescore>
     Score         DG    S(hbond)    S(metal)    S(lipo)     H(rot)  DE(clash)    DE(int)     intcor
     17.18     -18.00       0.98        0.00     120.32       1.89       0.07       0.75       ----

> <Gold.Chemscore.Fitness>
17.1824

> <Gold.Chemscore.DG>
-18.0042

> <Gold.Chemscore.ZeroCoef>
-5.4800

> <Gold.Chemscore.Hbond>
0.9848

> <Gold.Chemscore.Metal>
0.0000

> <Gold.Chemscore.Lipo>
120.3196

> <Gold.Chemscore.Internal_Hbond>
0.0000

> <Gold.Chemscore.DEClash>
0.0694

> <Gold.Chemscore.DEInternal>
0.7524

> <Gold.Chemscore.Rot>
1.8916

> <Gold.Chemscore.Internal.Correction>
   9.000000E+99

> <Gold.Chemscore.Hbonds>
donor molecule, donor type, donor heavy atom, donor atom, acceptor molecule, acceptor atom, score
      P1  H  6896  6907       L1     1  0.85

> <Gold.Chemscore.Hbond.Weighted>
-3.2893

> <Gold.Chemscore.Metal.Weighted>
-0.0000

> <Gold.Chemscore.Lipo.Weighted>
-14.0774

> <Gold.Chemscore.Internal_Hbond.Weighted>
0.0000

> <Gold.Chemscore.DEClash.Weighted>
0.0694

> <Gold.Chemscore.DEInternal.Weighted>
0.7524

> <Gold.Chemscore.Rot.Weighted>
4.8425

> <Gold.Chemscore.Internal.Correction.Weighted>
   9.000000E+99

> <Gold.Protein.RotatedTorsions>
[ 6907 6896 6895 6894 ] final   25.54 input  -60.11 | X-H torsion
[ 7974 7965 7964 7962 ] final   99.54 input  175.53 | X-H torsion
[ 8008 7997 7996 7995 ] final -144.81 input   59.86 | X-H torsion
[ 10167 10162 10161 10158 ] final  106.23 input  -65.29 | X-H torsion
[ 10718 10713 10712 10709 ] final  -89.73 input   66.30 | X-H torsion
[ 10763 10752 10751 10750 ] final -177.04 input  -60.55 | X-H torsion
[ 11005 11000 10999 10996 ] final -179.42 input  -57.11 | X-H torsion

> <Gold.Protein.ActiveResidues>
 VAL166  LYS551  ARG553  GLY616  TRP617  ASP618  TYR619  PRO620  LYS621  CYS622 
 ASP623  PHE694  ASN695  SER759  ASP760  ASP761  ALA762  ILE779  LEU786  VAL792 
 PHE793  MET794  SER795  GLU796  ALA797  LYS798  CYS799  TRP800  GLU811  SER814 

> <Gold.Protein.RotatedAtoms>
  151.9740  135.0062  160.0553 H   0  0  0  0  0  0  0  0  0  0  0  0  # atno 6907 bound_to 6896
  152.1757  133.4668  159.4940 H   0  0  0  0  0  0  0  0  0  0  0  0  # atno 6908 bound_to 6896
  150.6909  134.1814  159.4293 H   0  0  0  0  0  0  0  0  0  0  0  0  # atno 6909 bound_to 6896
  145.3975  139.2353  143.3318 H   0  0  0  0  0  0  0  0  0  0  0  0  # atno 7974 bound_to 7965
  155.5330  140.0601  157.2885 H   0  0  0  0  0  0  0  0  0  0  0  0  # atno 8008 bound_to 7997
  154.4478  140.1932  156.0559 H   0  0  0  0  0  0  0  0  0  0  0  0  # atno 8009 bound_to 7997
  156.0638  140.3269  155.7497 H   0  0  0  0  0  0  0  0  0  0  0  0  # atno 8010 bound_to 7997
  139.7027  144.7091  151.1159 H   0  0  0  0  0  0  0  0  0  0  0  0  # atno 10167 bound_to 10162
  155.9985  130.4883  150.5216 H   0  0  0  0  0  0  0  0  0  0  0  0  # atno 10718 bound_to 10713
  154.5650  135.2823  155.0882 H   0  0  0  0  0  0  0  0  0  0  0  0  # atno 10763 bound_to 10752
  154.2276  135.6380  153.5168 H   0  0  0  0  0  0  0  0  0  0  0  0  # atno 10764 bound_to 10752
  153.0040  135.5529  154.6256 H   0  0  0  0  0  0  0  0  0  0  0  0  # atno 10765 bound_to 10752
  140.4189  134.6624  157.4653 H   0  0  0  0  0  0  0  0  0  0  0  0  # atno 11005 bound_to 11000
  146.2768  140.4667  142.8792 LP  0  0  0  0  0  0  0  0  0  0  0  0  # atno 17320 bound_to 7965
  144.8397  140.6838  143.6237 LP  0  0  0  0  0  0  0  0  0  0  0  0  # atno 17321 bound_to 7965
  140.7713  143.5402  150.9322 LP  0  0  0  0  0  0  0  0  0  0  0  0  # atno 17342 bound_to 10162
  139.9084  143.6750  152.3119 LP  0  0  0  0  0  0  0  0  0  0  0  0  # atno 17343 bound_to 10162
  157.3176  131.0676  151.1955 LP  0  0  0  0  0  0  0  0  0  0  0  0  # atno 17370 bound_to 10713
  157.2879  130.6782  149.6099 LP  0  0  0  0  0  0  0  0  0  0  0  0  # atno 17371 bound_to 10713
  140.0214  134.6541  155.9234 LP  0  0  0  0  0  0  0  0  0  0  0  0  # atno 17394 bound_to 11000
  141.1792  133.6544  156.4951 LP  0  0  0  0  0  0  0  0  0  0  0  0  # atno 17395 bound_to 11000

$$$$
