AV-unprocessed.smi:1165|AV-procd|sdf|4928|dock4
  -GOLD-   22720 3513D 1   1.00000     0.00000
 Structure written by MMmdl.
 41 42  0  0  0  0  0  0  0  0  1 V2000
  150.4562  141.8892  157.2840 C   0  0  0  0  0  0  0  0  0  0  0  0
  150.4947  142.7558  158.5471 C   0  0  2  0  0  0  0  0  0  0  0  0
  149.1219  143.3744  158.8615 C   0  0  0  0  0  0  0  0  0  0  0  0
  149.2202  144.3025  159.9984 N   0  0  0  0  0  0  0  0  0  0  0  0
  147.7554  144.7826  160.7878 S   0  0  0  0  0  0  0  0  0  0  0  0
  147.1223  143.5901  161.3718 O   0  0  0  0  0  0  0  0  0  0  0  0
  148.0390  145.9747  161.6009 O   0  0  0  0  0  0  0  0  0  0  0  0
  146.8328  145.2617  159.4103 N   0  0  0  0  0  0  0  0  0  0  0  0
  145.4797  144.7370  159.2300 C   0  0  0  0  0  0  0  0  0  0  0  0
  144.6100  145.7530  158.4807 C   0  0  0  0  0  0  0  0  0  0  0  0
  144.4371  145.3820  157.0214 C   0  0  0  0  0  0  0  0  0  0  0  0
  145.0080  144.2025  156.5005 C   0  0  0  0  0  0  0  0  0  0  0  0
  144.8246  143.9059  155.1361 C   0  0  0  0  0  0  0  0  0  0  0  0
  144.0773  144.8046  154.3486 C   0  0  0  0  0  0  0  0  0  0  0  0
  143.5272  145.9375  154.8365 N   0  0  0  0  0  0  0  0  0  0  0  0
  143.7071  146.2141  156.1460 C   0  0  0  0  0  0  0  0  0  0  0  0
  150.2660  145.3207  159.8236 C   0  0  0  0  0  0  0  0  0  0  0  0
  151.6142  144.6772  159.4454 C   0  0  1  0  0  0  0  0  0  0  0  0
  152.3216  144.0057  160.6366 C   0  0  0  0  0  0  0  0  0  0  0  0
  151.4545  143.7869  158.3429 O   0  0  0  0  0  0  0  0  0  0  0  0
  149.7423  141.0718  157.3895 H   0  0  0  0  0  0  0  0  0  0  0  0
  151.4343  141.4520  157.0827 H   0  0  0  0  0  0  0  0  0  0  0  0
  150.1677  142.4758  156.4114 H   0  0  0  0  0  0  0  0  0  0  0  0
  150.8054  142.1213  159.3774 H   0  0  0  0  0  0  0  0  0  0  0  0
  148.7399  143.9181  157.9963 H   0  0  0  0  0  0  0  0  0  0  0  0
  148.4040  142.5848  159.0822 H   0  0  0  0  0  0  0  0  0  0  0  0
  147.3850  145.2957  158.5538 H   0  0  0  0  0  0  0  0  0  0  0  0
  145.5277  143.8017  158.6715 H   0  0  0  0  0  0  0  0  0  0  0  0
  145.0502  144.5101  160.2065 H   0  0  0  0  0  0  0  0  0  0  0  0
  143.6281  145.8260  158.9508 H   0  0  0  0  0  0  0  0  0  0  0  0
  145.0565  146.7464  158.5411 H   0  0  0  0  0  0  0  0  0  0  0  0
  145.5779  143.5373  157.1327 H   0  0  0  0  0  0  0  0  0  0  0  0
  145.2476  143.0116  154.7028 H   0  0  0  0  0  0  0  0  0  0  0  0
  143.9175  144.6084  153.2987 H   0  0  0  0  0  0  0  0  0  0  0  0
  143.2579  147.1285  156.5050 H   0  0  0  0  0  0  0  0  0  0  0  0
  149.9493  146.0100  159.0400 H   0  0  0  0  0  0  0  0  0  0  0  0
  150.3747  145.9084  160.7352 H   0  0  0  0  0  0  0  0  0  0  0  0
  152.2736  145.4724  159.0968 H   0  0  0  0  0  0  0  0  0  0  0  0
  152.5662  144.7405  161.4039 H   0  0  0  0  0  0  0  0  0  0  0  0
  153.2536  143.5359  160.3216 H   0  0  0  0  0  0  0  0  0  0  0  0
  151.7032  143.2425  161.1087 H   0  0  0  0  0  0  0  0  0  0  0  0
  1  2  1  0  0  0  0
  1 21  1  0  0  0  0
  1 22  1  0  0  0  0
  1 23  1  0  0  0  0
  2 20  1  0  0  0  0
  2  3  1  0  0  0  0
  2 24  1  0  0  0  0
  3  4  1  0  0  0  0
  3 25  1  0  0  0  0
  3 26  1  0  0  0  0
  4  5  1  0  0  0  0
  4 17  1  0  0  0  0
  5  6  2  0  0  0  0
  5  7  2  0  0  0  0
  5  8  1  0  0  0  0
  8  9  1  0  0  0  0
  8 27  1  0  0  0  0
  9 10  1  0  0  0  0
  9 28  1  0  0  0  0
  9 29  1  0  0  0  0
 10 11  1  0  0  0  0
 10 30  1  0  0  0  0
 10 31  1  0  0  0  0
 11 16  1  0  0  0  0
 11 12  2  0  0  0  0
 12 13  1  0  0  0  0
 12 32  1  0  0  0  0
 13 14  2  0  0  0  0
 13 33  1  0  0  0  0
 14 15  1  0  0  0  0
 14 34  1  0  0  0  0
 15 16  2  0  0  0  0
 16 35  1  0  0  0  0
 17 18  1  0  0  0  0
 17 36  1  0  0  0  0
 17 37  1  0  0  0  0
 18 19  1  0  0  0  0
 18 20  1  0  0  0  0
 18 38  1  0  0  0  0
 19 39  1  0  0  0  0
 19 40  1  0  0  0  0
 19 41  1  0  0  0  0
M  END
> <s_m_source_file>
AV-unprocessed.smi

> <i_m_source_file_index>
1165

> <i_lp_mmshare_version>
43012

> <i_f3d_flags>
0

> <s_epik_input>
W0NIM11bQ0BASF0xW0NIMl1OKFtDSDJdW0NASF0oTzEpW0NIM10pUyg9TykoPU8pW05IXVtDSDJdW0NIMl1jMltjSF1bY0hdW2NIXW5bY0hdMg==

> <s_epik_cmdline>
J2VwaWtfcHl0aG9uJywgJy1waCcsICc3LjAnLCAnLXRuJywgJzgnLCAnLW1hJywgJzIwMCcsICctbWV0YWxfYmluZGluZycsICctaW1hZScsICc8aW5maWxlLm1hZT4nLCAnLW9tYWUnLCAnPG91dGZpbGUubWFlPic=

> <r_epik_Ionization_Penalty>
0.0861056

> <r_epik_Ionization_Penalty_Charging>
0

> <r_epik_Ionization_Penalty_Neutral>
0.0861056

> <r_epik_State_Penalty>
0.0574425

> <r_epik_Charging_Adjusted_Penalty>
0.0574425

> <i_epik_Tot_Q>
0

> <i_epik_Tot_abs_Q>
0

> <r_epik_Metal_State_Penalty>
0.317425

> <b_epik_Metal_Only>
0

> <s_lp_Force_Field>
OPLS_2005

> <r_lp_Energy>
8.25328

> <b_lp_Chiralities_Consistent>
1

> <s_lp_Variant>
AV-unprocessed.smi:1165-1

> <Gold.Version>
5.8.1

> <Gold.Id.Protein>
6NUR|6NUR_protein|mol2

> <Gold.PLP.Fitness>
41.9029

> <Gold.PLP.PLP>
-34.6521

> <Gold.PLP.part.hbond>
-3.8367

> <Gold.PLP.part.metal>
0.0000

> <Gold.PLP.part.buried>
-8.4544

> <Gold.PLP.part.nonpolar>
-24.4583

> <Gold.PLP.part.repulsive>
0.6530

> <Gold.PLP.ligand.clash>
0.0000

> <Gold.PLP.ligand.torsion>
1.3064

> <Gold.PLP.Chemscore.Hbond>
2.0000

> <Gold.PLP.Chemscore.CHOScore>
0.9968

> <Gold.PLP.Chemscore.Metal>
0.0000

> <Gold.Chemscore.Hbonds>
donor molecule, donor type, donor heavy atom, donor atom, acceptor molecule, acceptor atom, score
      L1  H     8    27       P1  8029  0.94
      P1  H  6933  6944       L1     6  1.00
      L1  C    14    34       P1 10174  0.56

> <Gold.PLP.Chemscore.Internal.Correction>
0.8734

> <Gold.Rescore>
     Score         DG    S(hbond)    S(metal)    S(lipo)     H(rot)  DE(clash)    DE(int)     intcor
     14.80     -16.31       1.77        0.00      79.40       1.71       0.30       1.21       ----

> <Gold.Chemscore.Fitness>
14.8006

> <Gold.Chemscore.DG>
-16.3088

> <Gold.Chemscore.ZeroCoef>
-5.4800

> <Gold.Chemscore.Hbond>
1.7685

> <Gold.Chemscore.Metal>
0.0000

> <Gold.Chemscore.Lipo>
79.3961

> <Gold.Chemscore.Internal_Hbond>
0.0000

> <Gold.Chemscore.DEClash>
0.3031

> <Gold.Chemscore.DEInternal>
1.2051

> <Gold.Chemscore.Rot>
1.7060

> <Gold.Chemscore.Internal.Correction>
   9.000000E+99

> <Gold.Chemscore.Hbonds>
donor molecule, donor type, donor heavy atom, donor atom, acceptor molecule, acceptor atom, score
      L1  H     8    27       P1  8029  0.87
      P1  H  6933  6944       L1     6  0.45

> <Gold.Chemscore.Hbond.Weighted>
-5.9068

> <Gold.Chemscore.Metal.Weighted>
-0.0000

> <Gold.Chemscore.Lipo.Weighted>
-9.2893

> <Gold.Chemscore.Internal_Hbond.Weighted>
0.0000

> <Gold.Chemscore.DEClash.Weighted>
0.3031

> <Gold.Chemscore.DEInternal.Weighted>
1.2051

> <Gold.Chemscore.Rot.Weighted>
4.3674

> <Gold.Chemscore.Internal.Correction.Weighted>
   9.000000E+99

> <Gold.Protein.RotatedTorsions>
[ 6907 6896 6895 6894 ] final  161.23 input  -60.11 | X-H torsion
[ 7974 7965 7964 7962 ] final  115.56 input  175.53 | X-H torsion
[ 8008 7997 7996 7995 ] final  -29.98 input   59.86 | X-H torsion
[ 10167 10162 10161 10158 ] final   61.37 input  -65.29 | X-H torsion
[ 10718 10713 10712 10709 ] final  -90.01 input   66.30 | X-H torsion
[ 10763 10752 10751 10750 ] final -177.87 input  -60.55 | X-H torsion
[ 11005 11000 10999 10996 ] final -151.59 input  -57.11 | X-H torsion

> <Gold.Protein.ActiveResidues>
 VAL166  LYS551  ARG553  GLY616  TRP617  ASP618  TYR619  PRO620  LYS621  CYS622 
 ASP623  PHE694  ASN695  SER759  ASP760  ASP761  ALA762  ILE779  LEU786  VAL792 
 PHE793  MET794  SER795  GLU796  ALA797  LYS798  CYS799  TRP800  GLU811  SER814 

> <Gold.Protein.RotatedAtoms>
  151.9587  133.3688  159.4026 H   0  0  0  0  0  0  0  0  0  0  0  0  # atno 6907 bound_to 6896
  150.6968  134.4264  159.5237 H   0  0  0  0  0  0  0  0  0  0  0  0  # atno 6908 bound_to 6896
  152.1949  134.8639  160.0564 H   0  0  0  0  0  0  0  0  0  0  0  0  # atno 6909 bound_to 6896
  145.1904  139.3003  143.4371 H   0  0  0  0  0  0  0  0  0  0  0  0  # atno 7974 bound_to 7965
  154.4268  140.1804  156.1334 H   0  0  0  0  0  0  0  0  0  0  0  0  # atno 8008 bound_to 7997
  156.0050  140.3356  155.6858 H   0  0  0  0  0  0  0  0  0  0  0  0  # atno 8009 bound_to 7997
  155.6191  140.0658  157.2674 H   0  0  0  0  0  0  0  0  0  0  0  0  # atno 8010 bound_to 7997
  140.1555  144.4421  150.6736 H   0  0  0  0  0  0  0  0  0  0  0  0  # atno 10167 bound_to 10162
  155.9986  130.4893  150.5258 H   0  0  0  0  0  0  0  0  0  0  0  0  # atno 10718 bound_to 10713
  154.5548  135.2815  155.0975 H   0  0  0  0  0  0  0  0  0  0  0  0  # atno 10763 bound_to 10752
  154.2407  135.6357  153.5210 H   0  0  0  0  0  0  0  0  0  0  0  0  # atno 10764 bound_to 10752
  153.0012  135.5559  154.6124 H   0  0  0  0  0  0  0  0  0  0  0  0  # atno 10765 bound_to 10752
  140.7279  134.3654  157.5172 H   0  0  0  0  0  0  0  0  0  0  0  0  # atno 11005 bound_to 11000
  146.3437  140.2115  142.8590 LP  0  0  0  0  0  0  0  0  0  0  0  0  # atno 17320 bound_to 7965
  145.0047  140.8662  143.5260 LP  0  0  0  0  0  0  0  0  0  0  0  0  # atno 17321 bound_to 7965
  140.6676  143.2273  151.5705 LP  0  0  0  0  0  0  0  0  0  0  0  0  # atno 17342 bound_to 10162
  139.5405  144.2660  152.1342 LP  0  0  0  0  0  0  0  0  0  0  0  0  # atno 17343 bound_to 10162
  157.3213  131.0682  151.1929 LP  0  0  0  0  0  0  0  0  0  0  0  0  # atno 17370 bound_to 10713
  157.2842  130.6764  149.6081 LP  0  0  0  0  0  0  0  0  0  0  0  0  # atno 17371 bound_to 10713
  139.8833  134.8999  156.2776 LP  0  0  0  0  0  0  0  0  0  0  0  0  # atno 17394 bound_to 11000
  140.9946  133.7188  156.0867 LP  0  0  0  0  0  0  0  0  0  0  0  0  # atno 17395 bound_to 11000

$$$$
