AV-unprocessed.smi:25|AV-procd|sdf|181|dock2
  -GOLD-   2262015443D 1   1.00000     0.00000
 Structure written by MMmdl.
 47 50  0  0  0  0  0  0  0  0  1 V2000
  151.4430  138.5944  157.1190 C   0  0  0  0  0  0  0  0  0  0  0  0
  151.0723  139.1360  158.5140 C   0  0  2  0  0  0  0  0  0  0  0  0
  150.6686  140.6264  158.4520 C   0  0  0  0  0  0  0  0  0  0  0  0
  151.7483  141.3049  159.2370 C   0  0  0  0  0  0  0  0  0  0  0  0
  151.9053  142.6924  159.3978 C   0  0  0  0  0  0  0  0  0  0  0  0
  153.0037  143.1585  160.1470 C   0  0  0  0  0  0  0  0  0  0  0  0
  153.9206  142.2416  160.7061 C   0  0  0  0  0  0  0  0  0  0  0  0
  153.7475  140.8507  160.5332 C   0  0  0  0  0  0  0  0  0  0  0  0
  152.6317  140.3834  159.7974 C   0  0  0  0  0  0  0  0  0  0  0  0
  152.2109  139.0617  159.4586 N   0  0  0  0  0  0  0  0  0  0  0  0
  152.5958  137.8652  159.9830 C   0  0  0  0  0  0  0  0  0  0  0  0
  152.0369  136.8176  159.6485 O   0  0  0  0  0  0  0  0  0  0  0  0
  153.7204  137.7758  161.0331 C   0  0  0  0  0  0  0  0  0  0  0  0
  153.9566  136.4028  161.5386 N   0  0  0  0  0  0  0  0  0  0  0  0
  154.2008  135.3661  160.6038 C   0  0  0  0  0  0  0  0  0  0  0  0
  154.2013  135.5838  159.3912 O   0  0  0  0  0  0  0  0  0  0  0  0
  154.4498  134.0494  161.1768 C   0  0  0  0  0  0  0  0  0  0  0  0
  154.7535  133.0187  160.3699 F   0  0  0  0  0  0  0  0  0  0  0  0
  154.3981  133.8506  162.5097 C   0  0  0  0  0  0  0  0  0  0  0  0
  154.0851  134.8541  163.4098 N   0  0  0  0  0  0  0  0  0  0  0  0
  154.1195  134.6203  164.9067 C   0  0  1  0  0  0  0  0  0  0  0  0
  153.1223  133.5585  165.4029 C   0  0  0  0  0  0  0  0  0  0  0  0
  154.0243  132.3717  165.6805 C   0  0  0  0  0  0  0  0  0  0  0  0
  155.3178  133.0610  166.0955 C   0  0  0  0  0  0  0  0  0  0  0  0
  155.4066  134.1879  165.2332 O   0  0  0  0  0  0  0  0  0  0  0  0
  153.9088  136.1742  162.9356 C   0  0  0  0  0  0  0  0  0  0  0  0
  153.7082  137.1052  163.7187 O   0  0  0  0  0  0  0  0  0  0  0  0
  150.6106  138.7093  156.4246 H   0  0  0  0  0  0  0  0  0  0  0  0
  151.6951  137.5347  157.1454 H   0  0  0  0  0  0  0  0  0  0  0  0
  152.2982  139.1283  156.7031 H   0  0  0  0  0  0  0  0  0  0  0  0
  150.2273  138.5652  158.9040 H   0  0  0  0  0  0  0  0  0  0  0  0
  150.6276  141.0153  157.4338 H   0  0  0  0  0  0  0  0  0  0  0  0
  149.7032  140.7997  158.9285 H   0  0  0  0  0  0  0  0  0  0  0  0
  151.2059  143.3848  158.9529 H   0  0  0  0  0  0  0  0  0  0  0  0
  153.1509  144.2195  160.2850 H   0  0  0  0  0  0  0  0  0  0  0  0
  154.7671  142.6085  161.2673 H   0  0  0  0  0  0  0  0  0  0  0  0
  154.4907  140.2039  160.9630 H   0  0  0  0  0  0  0  0  0  0  0  0
  154.6353  138.1690  160.5900 H   0  0  0  0  0  0  0  0  0  0  0  0
  153.4838  138.4392  161.8654 H   0  0  0  0  0  0  0  0  0  0  0  0
  154.6188  132.8579  162.8673 H   0  0  0  0  0  0  0  0  0  0  0  0
  153.9027  135.5840  165.3699 H   0  0  0  0  0  0  0  0  0  0  0  0
  152.6864  133.9151  166.3370 H   0  0  0  0  0  0  0  0  0  0  0  0
  152.3068  133.3663  164.7061 H   0  0  0  0  0  0  0  0  0  0  0  0
  153.6311  131.7071  166.4501 H   0  0  0  0  0  0  0  0  0  0  0  0
  154.1847  131.7863  164.7751 H   0  0  0  0  0  0  0  0  0  0  0  0
  155.2544  133.4063  167.1286 H   0  0  0  0  0  0  0  0  0  0  0  0
  156.1904  132.4141  166.0028 H   0  0  0  0  0  0  0  0  0  0  0  0
  1  2  1  0  0  0  0
  1 28  1  0  0  0  0
  1 29  1  0  0  0  0
  1 30  1  0  0  0  0
  2 10  1  0  0  0  0
  2  3  1  0  0  0  0
  2 31  1  0  0  0  0
  3  4  1  0  0  0  0
  3 32  1  0  0  0  0
  3 33  1  0  0  0  0
  4  9  2  0  0  0  0
  4  5  1  0  0  0  0
  5  6  2  0  0  0  0
  5 34  1  0  0  0  0
  6  7  1  0  0  0  0
  6 35  1  0  0  0  0
  7  8  2  0  0  0  0
  7 36  1  0  0  0  0
  8  9  1  0  0  0  0
  8 37  1  0  0  0  0
  9 10  1  0  0  0  0
 10 11  1  0  0  0  0
 11 12  2  0  0  0  0
 11 13  1  0  0  0  0
 13 14  1  0  0  0  0
 13 38  1  0  0  0  0
 13 39  1  0  0  0  0
 14 26  1  0  0  0  0
 14 15  1  0  0  0  0
 15 16  2  0  0  0  0
 15 17  1  0  0  0  0
 17 18  1  0  0  0  0
 17 19  2  0  0  0  0
 19 20  1  0  0  0  0
 19 40  1  0  0  0  0
 20 21  1  0  0  0  0
 20 26  1  0  0  0  0
 21 25  1  0  0  0  0
 21 22  1  0  0  0  0
 21 41  1  0  0  0  0
 22 23  1  0  0  0  0
 22 42  1  0  0  0  0
 22 43  1  0  0  0  0
 23 24  1  0  0  0  0
 23 44  1  0  0  0  0
 23 45  1  0  0  0  0
 24 25  1  0  0  0  0
 24 46  1  0  0  0  0
 24 47  1  0  0  0  0
 26 27  2  0  0  0  0
M  END
> <s_m_source_file>
AV-unprocessed.smi

> <i_m_source_file_index>
25

> <i_lp_mmshare_version>
43012

> <i_f3d_flags>
0

> <s_epik_input>
W2NIXTFbY0hdW2NIXVtjSF1jKGMxMilOKFtDQEhdKFtDSDNdKVtDSDJdMilDKD1PKVtDSDJdbjNjKD1PKWMoRilbY0hdbihjMz1PKVtDQEBIXTRbQ0gyXVtDSDJdW0NIMl1PNA==

> <s_epik_cmdline>
J2VwaWtfcHl0aG9uJywgJy1waCcsICc3LjAnLCAnLXRuJywgJzgnLCAnLW1hJywgJzIwMCcsICctbWV0YWxfYmluZGluZycsICctaW1hZScsICc8aW5maWxlLm1hZT4nLCAnLW9tYWUnLCAnPG91dGZpbGUubWFlPic=

> <r_lp_tautomer_probability>
1

> <r_epik_Ionization_Penalty>
1.67943e-06

> <r_epik_Ionization_Penalty_Charging>
3.79603e-09

> <r_epik_Ionization_Penalty_Neutral>
1.67563e-06

> <r_epik_State_Penalty>
-0

> <r_epik_Charging_Adjusted_Penalty>
3.79603e-09

> <i_epik_Tot_Q>
0

> <i_epik_Tot_abs_Q>
0

> <r_epik_Metal_State_Penalty>
-0

> <b_epik_Metal_Only>
0

> <s_epik_Chemistry_Notes>
This compound contains an acetal/aminal-like group ( X-CH(R)-Y where X, Y are N, S, or O) that may be acid/base labile, releasing an aldehyde.

> <s_lp_Force_Field>
OPLS_2005

> <r_lp_Energy>
54.5982

> <b_lp_Chiralities_Consistent>
1

> <s_lp_Variant>
AV-unprocessed.smi:25-3

> <Gold.Version>
5.8.1

> <Gold.Id.Protein>
6NUR|6NUR_protein|mol2

> <Gold.PLP.Fitness>
49.1664

> <Gold.PLP.PLP>
-46.2473

> <Gold.PLP.part.hbond>
-1.0000

> <Gold.PLP.part.metal>
0.0000

> <Gold.PLP.part.buried>
-5.7299

> <Gold.PLP.part.nonpolar>
-39.6129

> <Gold.PLP.part.repulsive>
0.1303

> <Gold.PLP.ligand.clash>
0.0000

> <Gold.PLP.ligand.torsion>
0.0937

> <Gold.PLP.Chemscore.Hbond>
1.0000

> <Gold.PLP.Chemscore.CHOScore>
0.0000

> <Gold.PLP.Chemscore.Metal>
0.0000

> <Gold.Chemscore.Hbonds>
donor molecule, donor type, donor heavy atom, donor atom, acceptor molecule, acceptor atom, score
      P1  H  6896  6907       L1    12  0.96

> <Gold.PLP.Chemscore.Internal.Correction>
0.1065

> <Gold.Rescore>
     Score         DG    S(hbond)    S(metal)    S(lipo)     H(rot)  DE(clash)    DE(int)     intcor
     16.63     -16.98       0.98        0.00     104.30       1.55       0.08       0.26       ----

> <Gold.Chemscore.Fitness>
16.6294

> <Gold.Chemscore.DG>
-16.9759

> <Gold.Chemscore.ZeroCoef>
-5.4800

> <Gold.Chemscore.Hbond>
0.9754

> <Gold.Chemscore.Metal>
0.0000

> <Gold.Chemscore.Lipo>
104.3005

> <Gold.Chemscore.Internal_Hbond>
0.0000

> <Gold.Chemscore.DEClash>
0.0819

> <Gold.Chemscore.DEInternal>
0.2646

> <Gold.Chemscore.Rot>
1.5489

> <Gold.Chemscore.Internal.Correction>
   9.000000E+99

> <Gold.Chemscore.Hbonds>
donor molecule, donor type, donor heavy atom, donor atom, acceptor molecule, acceptor atom, score
      P1  H  6896  6907       L1    12  0.92

> <Gold.Chemscore.Hbond.Weighted>
-3.2579

> <Gold.Chemscore.Metal.Weighted>
-0.0000

> <Gold.Chemscore.Lipo.Weighted>
-12.2032

> <Gold.Chemscore.Internal_Hbond.Weighted>
0.0000

> <Gold.Chemscore.DEClash.Weighted>
0.0819

> <Gold.Chemscore.DEInternal.Weighted>
0.2646

> <Gold.Chemscore.Rot.Weighted>
3.9651

> <Gold.Chemscore.Internal.Correction.Weighted>
   9.000000E+99

> <Gold.Protein.RotatedTorsions>
[ 6907 6896 6895 6894 ] final   28.20 input  -60.11 | X-H torsion
[ 7974 7965 7964 7962 ] final   45.94 input  175.53 | X-H torsion
[ 8008 7997 7996 7995 ] final  103.69 input   59.86 | X-H torsion
[ 10167 10162 10161 10158 ] final -176.32 input  -65.29 | X-H torsion
[ 10718 10713 10712 10709 ] final   16.09 input   66.30 | X-H torsion
[ 10763 10752 10751 10750 ] final   12.78 input  -60.55 | X-H torsion
[ 11005 11000 10999 10996 ] final -139.53 input  -57.11 | X-H torsion

> <Gold.Protein.ActiveResidues>
 VAL166  LYS551  ARG553  GLY616  TRP617  ASP618  TYR619  PRO620  LYS621  CYS622 
 ASP623  PHE694  ASN695  SER759  ASP760  ASP761  ALA762  ILE779  LEU786  VAL792 
 PHE793  MET794  SER795  GLU796  ALA797  LYS798  CYS799  TRP800  GLU811  SER814 

> <Gold.Protein.RotatedAtoms>
  152.0135  134.9863  160.0568 H   0  0  0  0  0  0  0  0  0  0  0  0  # atno 6907 bound_to 6896
  152.1406  133.4457  159.4773 H   0  0  0  0  0  0  0  0  0  0  0  0  # atno 6908 bound_to 6896
  150.6865  134.2228  159.4446 H   0  0  0  0  0  0  0  0  0  0  0  0  # atno 6909 bound_to 6896
  146.0434  139.4909  142.9763 H   0  0  0  0  0  0  0  0  0  0  0  0  # atno 7974 bound_to 7965
  156.1507  140.3160  155.8643 H   0  0  0  0  0  0  0  0  0  0  0  0  # atno 8008 bound_to 7997
  155.3977  140.0497  157.3055 H   0  0  0  0  0  0  0  0  0  0  0  0  # atno 8009 bound_to 7997
  154.5056  140.2145  155.9270 H   0  0  0  0  0  0  0  0  0  0  0  0  # atno 8010 bound_to 7997
  139.5535  144.2048  152.1119 H   0  0  0  0  0  0  0  0  0  0  0  0  # atno 10167 bound_to 10162
  157.0629  130.6316  149.5790 H   0  0  0  0  0  0  0  0  0  0  0  0  # atno 10718 bound_to 10713
  153.1788  135.6824  153.8507 H   0  0  0  0  0  0  0  0  0  0  0  0  # atno 10763 bound_to 10752
  153.7846  135.3177  155.3371 H   0  0  0  0  0  0  0  0  0  0  0  0  # atno 10764 bound_to 10752
  154.8046  135.4756  154.0454 H   0  0  0  0  0  0  0  0  0  0  0  0  # atno 10765 bound_to 10752
  140.8511  134.2284  157.4760 H   0  0  0  0  0  0  0  0  0  0  0  0  # atno 11005 bound_to 11000
  145.6846  141.0181  143.1588 LP  0  0  0  0  0  0  0  0  0  0  0  0  # atno 17320 bound_to 7965
  144.7086  139.8461  143.7422 LP  0  0  0  0  0  0  0  0  0  0  0  0  # atno 17321 bound_to 7965
  140.1547  144.5081  150.6667 LP  0  0  0  0  0  0  0  0  0  0  0  0  # atno 17342 bound_to 10162
  140.6803  143.2324  151.5400 LP  0  0  0  0  0  0  0  0  0  0  0  0  # atno 17343 bound_to 10162
  155.9973  130.5044  150.7529 LP  0  0  0  0  0  0  0  0  0  0  0  0  # atno 17370 bound_to 10713
  157.4940  131.0913  151.0393 LP  0  0  0  0  0  0  0  0  0  0  0  0  # atno 17371 bound_to 10713
  139.8704  134.9684  156.4629 LP  0  0  0  0  0  0  0  0  0  0  0  0  # atno 17394 bound_to 11000
  140.8789  133.7933  155.9445 LP  0  0  0  0  0  0  0  0  0  0  0  0  # atno 17395 bound_to 11000

$$$$
