AV-unprocessed.smi:467|AV-procd|sdf|2650|dock9
  -GOLD-   2262023 63D 1   1.00000     0.00000
 Structure written by MMmdl.
 46 48  0  0  0  0  0  0  0  0  3 V2000
  152.2591  144.1216  160.0614 C   0  0  0  0  0  0  0  0  0  0  0  0
  152.0212  143.0393  159.0221 C   0  0  0  0  0  0  0  0  0  0  0  0
  151.1224  143.3057  157.9647 C   0  0  0  0  0  0  0  0  0  0  0  0
  150.9281  142.2977  157.0279 C   0  0  0  0  0  0  0  0  0  0  0  0
  150.1234  142.2539  155.8878 N   0  3  0  0  0  0  0  0  0  0  0  0
  150.2655  141.0452  155.2775 C   0  0  0  0  0  0  0  0  0  0  0  0
  151.1498  140.3151  156.0107 N   0  0  0  0  0  0  0  0  0  0  0  0
  151.6497  138.9505  155.7852 C   0  0  0  0  0  0  0  0  0  0  0  0
  150.9341  138.2379  154.6208 C   0  0  1  0  0  0  0  0  0  0  0  0
  151.8068  137.2909  154.0343 O   0  0  0  0  0  0  0  0  0  0  0  0
  149.6577  137.5114  155.0899 C   0  0  0  0  0  0  0  0  0  0  0  0
  148.5433  137.6284  154.1143 N   0  3  0  0  0  0  0  0  0  0  0  0
  147.3215  136.9164  154.5590 C   0  0  0  0  0  0  0  0  0  0  0  0
  146.2170  137.0210  153.4932 C   0  0  0  0  0  0  0  0  0  0  0  0
  145.9472  138.3897  153.2172 O   0  0  0  0  0  0  0  0  0  0  0  0
  147.0892  139.0634  152.7034 C   0  0  0  0  0  0  0  0  0  0  0  0
  148.2200  139.0295  153.7456 C   0  0  0  0  0  0  0  0  0  0  0  0
  151.5890  141.0565  157.1152 C   0  0  0  0  0  0  0  0  0  0  0  0
  152.4760  140.7775  158.1529 C   0  0  0  0  0  0  0  0  0  0  0  0
  152.6883  141.7905  159.1154 C   0  0  0  0  0  0  0  0  0  0  0  0
  153.6521  141.5143  160.2570 C   0  0  0  0  0  0  0  0  0  0  0  0
  151.7135  145.0341  159.8193 H   0  0  0  0  0  0  0  0  0  0  0  0
  153.3183  144.3737  160.1191 H   0  0  0  0  0  0  0  0  0  0  0  0
  151.9278  143.7864  161.0445 H   0  0  0  0  0  0  0  0  0  0  0  0
  150.6102  144.2538  157.8877 H   0  0  0  0  0  0  0  0  0  0  0  0
  149.7672  140.7250  154.3738 H   0  0  0  0  0  0  0  0  0  0  0  0
  152.7291  138.9780  155.6344 H   0  0  0  0  0  0  0  0  0  0  0  0
  151.4871  138.3972  156.7113 H   0  0  0  0  0  0  0  0  0  0  0  0
  150.6892  138.9826  153.8640 H   0  0  0  0  0  0  0  0  0  0  0  0
  151.5233  137.1251  153.1479 H   0  0  0  0  0  0  0  0  0  0  0  0
  149.8977  136.4592  155.2529 H   0  0  0  0  0  0  0  0  0  0  0  0
  149.3286  137.8983  156.0557 H   0  0  0  0  0  0  0  0  0  0  0  0
  147.5510  135.8663  154.7438 H   0  0  0  0  0  0  0  0  0  0  0  0
  146.9732  137.3405  155.5024 H   0  0  0  0  0  0  0  0  0  0  0  0
  146.5075  136.5029  152.5777 H   0  0  0  0  0  0  0  0  0  0  0  0
  145.3029  136.5465  153.8510 H   0  0  0  0  0  0  0  0  0  0  0  0
  147.4083  138.6039  151.7664 H   0  0  0  0  0  0  0  0  0  0  0  0
  146.8180  140.0946  152.4764 H   0  0  0  0  0  0  0  0  0  0  0  0
  147.9188  139.5833  154.6363 H   0  0  0  0  0  0  0  0  0  0  0  0
  149.0971  139.5321  153.3398 H   0  0  0  0  0  0  0  0  0  0  0  0
  152.9883  139.8301  158.2265 H   0  0  0  0  0  0  0  0  0  0  0  0
  154.0309  140.4923  160.2215 H   0  0  0  0  0  0  0  0  0  0  0  0
  153.1583  141.6516  161.2193 H   0  0  0  0  0  0  0  0  0  0  0  0
  154.5071  142.1894  160.2062 H   0  0  0  0  0  0  0  0  0  0  0  0
  148.8506  137.1624  153.2720 H   0  0  0  0  0  0  0  0  0  0  0  0
  149.5210  142.9934  155.5489 H   0  0  0  0  0  0  0  0  0  0  0  0
  1  2  1  0  0  0  0
  1 22  1  0  0  0  0
  1 23  1  0  0  0  0
  1 24  1  0  0  0  0
  2 20  1  0  0  0  0
  2  3  2  0  0  0  0
  3  4  1  0  0  0  0
  3 25  1  0  0  0  0
  4 18  2  0  0  0  0
  4  5  1  0  0  0  0
  5  6  2  0  0  0  0
  5 46  1  0  0  0  0
  6  7  1  0  0  0  0
  6 26  1  0  0  0  0
  7  8  1  0  0  0  0
  7 18  1  0  0  0  0
  8  9  1  0  0  0  0
  8 27  1  0  0  0  0
  8 28  1  0  0  0  0
  9 10  1  0  0  0  0
  9 11  1  0  0  0  0
  9 29  1  0  0  0  0
 10 30  1  0  0  0  0
 11 12  1  0  0  0  0
 11 31  1  0  0  0  0
 11 32  1  0  0  0  0
 12 17  1  0  0  0  0
 12 13  1  0  0  0  0
 12 45  1  0  0  0  0
 13 14  1  0  0  0  0
 13 33  1  0  0  0  0
 13 34  1  0  0  0  0
 14 15  1  0  0  0  0
 14 35  1  0  0  0  0
 14 36  1  0  0  0  0
 15 16  1  0  0  0  0
 16 17  1  0  0  0  0
 16 37  1  0  0  0  0
 16 38  1  0  0  0  0
 17 39  1  0  0  0  0
 17 40  1  0  0  0  0
 18 19  1  0  0  0  0
 19 20  2  0  0  0  0
 19 41  1  0  0  0  0
 20 21  1  0  0  0  0
 21 42  1  0  0  0  0
 21 43  1  0  0  0  0
 21 44  1  0  0  0  0
M  CHG  1   5   1
M  CHG  1  12   1
M  END
> <s_m_source_file>
AV-unprocessed.smi

> <i_m_source_file_index>
467

> <i_lp_mmshare_version>
43012

> <i_f3d_flags>
0

> <s_epik_input>
W0NIM11jKFtjSF0xKWMoW0NIM10pW2NIXWMoYzEyKW4oW2NIXW4yKVtDSDJdW0NASF0oW09IXSlbQ0gyXU4zW0NIMl1bQ0gyXU9bQ0gyXVtDSDJdMw==

> <s_epik_cmdline>
J2VwaWtfcHl0aG9uJywgJy1waCcsICc3LjAnLCAnLXRuJywgJzgnLCAnLW1hJywgJzIwMCcsICctbWV0YWxfYmluZGluZycsICctaW1hZScsICc8aW5maWxlLm1hZT4nLCAnLW9tYWUnLCAnPG91dGZpbGUubWFlPic=

> <r_epik_Ionization_Penalty>
1.88533

> <r_epik_Ionization_Penalty_Charging>
1.88531

> <r_epik_Ionization_Penalty_Neutral>
1.42224e-05

> <r_epik_State_Penalty>
1.94609

> <r_epik_Charging_Adjusted_Penalty>
3.8314

> <i_epik_Tot_Q>
2

> <i_epik_Tot_abs_Q>
2

> <r_epik_Metal_State_Penalty>
5.95915

> <b_epik_Metal_Only>
0

> <s_lp_Force_Field>
OPLS_2005

> <r_lp_Energy>
30.7546

> <b_lp_Chiralities_Consistent>
1

> <s_lp_Variant>
AV-unprocessed.smi:467-8

> <Gold.Version>
5.8.1

> <Gold.Id.Protein>
6NUR|6NUR_protein|mol2

> <Gold.PLP.Fitness>
58.3046

> <Gold.PLP.PLP>
-42.1452

> <Gold.PLP.part.hbond>
-4.0000

> <Gold.PLP.part.metal>
0.0000

> <Gold.PLP.part.buried>
-3.4161

> <Gold.PLP.part.nonpolar>
-34.3710

> <Gold.PLP.part.repulsive>
0.3486

> <Gold.PLP.ligand.clash>
0.0000

> <Gold.PLP.ligand.torsion>
0.9230

> <Gold.PLP.Chemscore.Hbond>
5.9913

> <Gold.PLP.Chemscore.CHOScore>
0.0000

> <Gold.PLP.Chemscore.Metal>
0.0000

> <Gold.Chemscore.Hbonds>
donor molecule, donor type, donor heavy atom, donor atom, acceptor molecule, acceptor atom, score
      L1  H     5    46       P1  8028  2.00
      L1  H    10    30       P1  7949  0.98
      L1  H    12    45       P1  7948  2.00
      P1  H 10752 10764       L1    10  0.95

> <Gold.PLP.Chemscore.Internal.Correction>
0.0316

> <Gold.Rescore>
     Score         DG    S(hbond)    S(metal)    S(lipo)     H(rot)  DE(clash)    DE(int)     intcor
     23.04     -23.87       3.37        0.00     108.20       2.16       0.03       0.81       ----

> <Gold.Chemscore.Fitness>
23.0357

> <Gold.Chemscore.DG>
-23.8717

> <Gold.Chemscore.ZeroCoef>
-5.4800

> <Gold.Chemscore.Hbond>
3.3713

> <Gold.Chemscore.Metal>
0.0000

> <Gold.Chemscore.Lipo>
108.1967

> <Gold.Chemscore.Internal_Hbond>
0.0000

> <Gold.Chemscore.DEClash>
0.0258

> <Gold.Chemscore.DEInternal>
0.8102

> <Gold.Chemscore.Rot>
2.1592

> <Gold.Chemscore.Internal.Correction>
   9.000000E+99

> <Gold.Chemscore.Hbonds>
donor molecule, donor type, donor heavy atom, donor atom, acceptor molecule, acceptor atom, score
      L1  H     5    46       P1  8028  0.95
      L1  H    10    30       P1  7949  0.82
      L1  H    12    45       P1  7948  1.00
      P1  H 10752 10764       L1    10  0.20

> <Gold.Chemscore.Hbond.Weighted>
-11.2603

> <Gold.Chemscore.Metal.Weighted>
-0.0000

> <Gold.Chemscore.Lipo.Weighted>
-12.6590

> <Gold.Chemscore.Internal_Hbond.Weighted>
0.0000

> <Gold.Chemscore.DEClash.Weighted>
0.0258

> <Gold.Chemscore.DEInternal.Weighted>
0.8102

> <Gold.Chemscore.Rot.Weighted>
5.5275

> <Gold.Chemscore.Internal.Correction.Weighted>
   9.000000E+99

> <Gold.Protein.RotatedTorsions>
[ 6907 6896 6895 6894 ] final  117.03 input  -60.11 | X-H torsion
[ 7974 7965 7964 7962 ] final  -17.63 input  175.53 | X-H torsion
[ 8008 7997 7996 7995 ] final   44.53 input   59.86 | X-H torsion
[ 10167 10162 10161 10158 ] final   43.83 input  -65.29 | X-H torsion
[ 10718 10713 10712 10709 ] final  -96.01 input   66.30 | X-H torsion
[ 10763 10752 10751 10750 ] final  -74.82 input  -60.55 | X-H torsion
[ 11005 11000 10999 10996 ] final  -39.22 input  -57.11 | X-H torsion

> <Gold.Protein.ActiveResidues>
 VAL166  LYS551  ARG553  GLY616  TRP617  ASP618  TYR619  PRO620  LYS621  CYS622 
 ASP623  PHE694  ASN695  SER759  ASP760  ASP761  ALA762  ILE779  LEU786  VAL792 
 PHE793  MET794  SER795  GLU796  ALA797  LYS798  CYS799  TRP800  GLU811  SER814 

> <Gold.Protein.RotatedAtoms>
  152.4639  133.7881  159.6886 H   0  0  0  0  0  0  0  0  0  0  0  0  # atno 6907 bound_to 6896
  150.8595  133.7655  159.3003 H   0  0  0  0  0  0  0  0  0  0  0  0  # atno 6908 bound_to 6896
  151.5225  135.1070  159.9934 H   0  0  0  0  0  0  0  0  0  0  0  0  # atno 6909 bound_to 6896
  146.1931  140.3807  142.8450 H   0  0  0  0  0  0  0  0  0  0  0  0  # atno 7974 bound_to 7965
  155.3209  140.3397  155.4241 H   0  0  0  0  0  0  0  0  0  0  0  0  # atno 8008 bound_to 7997
  156.1909  140.1697  156.8130 H   0  0  0  0  0  0  0  0  0  0  0  0  # atno 8009 bound_to 7997
  154.5441  140.0719  156.8543 H   0  0  0  0  0  0  0  0  0  0  0  0  # atno 8010 bound_to 7997
  140.3405  144.2476  150.6156 H   0  0  0  0  0  0  0  0  0  0  0  0  # atno 10167 bound_to 10162
  156.0054  130.5133  150.6161 H   0  0  0  0  0  0  0  0  0  0  0  0  # atno 10718 bound_to 10713
  154.4783  135.5851  153.6371 H   0  0  0  0  0  0  0  0  0  0  0  0  # atno 10763 bound_to 10752
  152.9844  135.6083  154.3279 H   0  0  0  0  0  0  0  0  0  0  0  0  # atno 10764 bound_to 10752
  154.3168  135.2844  155.2518 H   0  0  0  0  0  0  0  0  0  0  0  0  # atno 10765 bound_to 10752
  141.0085  133.6919  156.2157 H   0  0  0  0  0  0  0  0  0  0  0  0  # atno 11005 bound_to 11000
  144.8527  140.7024  143.6158 LP  0  0  0  0  0  0  0  0  0  0  0  0  # atno 17320 bound_to 7965
  145.3729  139.1654  143.4322 LP  0  0  0  0  0  0  0  0  0  0  0  0  # atno 17321 bound_to 7965
  140.5314  143.2242  151.8233 LP  0  0  0  0  0  0  0  0  0  0  0  0  # atno 17342 bound_to 10162
  139.4841  144.4716  151.9418 LP  0  0  0  0  0  0  0  0  0  0  0  0  # atno 17343 bound_to 10162
  157.3985  131.0806  151.1330 LP  0  0  0  0  0  0  0  0  0  0  0  0  # atno 17370 bound_to 10713
  157.1999  130.6390  149.5735 LP  0  0  0  0  0  0  0  0  0  0  0  0  # atno 17371 bound_to 10713
  140.6772  134.4805  157.5588 LP  0  0  0  0  0  0  0  0  0  0  0  0  # atno 17394 bound_to 11000
  139.9077  134.8413  156.1645 LP  0  0  0  0  0  0  0  0  0  0  0  0  # atno 17395 bound_to 11000

$$$$
