AV-unprocessed.smi:290|AV-procd|sdf|2232|dock8
  -GOLD-   2262022 93D 1   1.00000     0.00000
 Structure written by MMmdl.
 59 62  0  0  0  0  0  0  0  0  2 V2000
  151.0418  138.5180  154.3917 C   0  0  0  0  0  0  0  0  0  0  0  0
  149.9777  139.1991  155.2700 C   0  0  1  0  0  0  0  0  0  0  0  0
  150.5725  139.3891  156.5555 O   0  0  0  0  0  0  0  0  0  0  0  0
  150.4841  140.7506  156.9526 C   0  0  0  0  0  0  0  0  0  0  0  0
  150.3985  141.5133  155.6395 C   0  0  0  0  0  0  0  0  0  0  0  0
  149.5154  140.6002  154.7971 C   0  0  1  0  0  0  0  0  0  0  0  0
  149.7857  140.8367  153.4261 O   0  0  0  0  0  0  0  0  0  0  0  0
  147.9938  140.7943  155.0337 C   0  0  0  0  0  0  0  0  0  0  0  0
  147.1702  139.6915  154.5617 N   0  0  0  0  0  0  0  0  0  0  0  0
  147.1189  139.1853  153.2821 C   0  0  0  0  0  0  0  0  0  0  0  0
  146.2988  138.1838  153.1112 N   0  0  0  0  0  0  0  0  0  0  0  0
  145.7495  137.9797  154.3714 C   0  0  0  0  0  0  0  0  0  0  0  0
  144.7980  137.0657  154.9058 C   0  0  0  0  0  0  0  0  0  0  0  0
  144.1728  136.1025  154.1943 N   0  0  0  0  0  0  0  0  0  0  0  0
  143.2265  136.5875  153.2003 C   0  0  0  0  0  0  0  0  0  0  0  0
  143.6114  135.9222  151.8841 C   0  0  0  0  0  0  0  0  0  0  0  0
  144.3435  134.6394  152.3021 C   0  0  1  0  0  0  0  0  0  0  0  0
  145.2295  134.1520  151.2005 N   0  3  1  0  0  0  0  0  0  0  0  0
  146.2493  133.1543  151.6040 C   0  0  0  0  0  0  0  0  0  0  0  0
  144.4640  133.6931  150.0093 C   0  0  0  0  0  0  0  0  0  0  0  0
  143.6468  132.4250  150.3061 C   0  0  0  0  0  0  0  0  0  0  0  0
  142.8388  132.0982  149.1950 O   0  0  0  0  0  0  0  0  0  0  0  0
  145.0561  135.1016  153.5973 C   0  0  2  0  0  0  0  0  0  0  0  0
  145.3291  133.9884  154.6299 C   0  0  0  0  0  0  0  0  0  0  0  0
  144.4962  137.1569  156.2236 N   0  0  0  0  0  0  0  0  0  0  0  0
  145.0882  138.0861  156.9805 C   0  0  0  0  0  0  0  0  0  0  0  0
  145.9904  139.0034  156.6239 N   0  0  0  0  0  0  0  0  0  0  0  0
  146.2930  138.9135  155.2969 C   0  0  0  0  0  0  0  0  0  0  0  0
  143.6120  133.8692  152.5551 H   0  0  0  0  0  0  0  0  0  0  0  0
  146.0002  135.5787  153.3299 H   0  0  0  0  0  0  0  0  0  0  0  0
  150.6537  138.2955  153.3976 H   0  0  0  0  0  0  0  0  0  0  0  0
  151.3627  137.5749  154.8344 H   0  0  0  0  0  0  0  0  0  0  0  0
  151.9252  139.1470  154.2768 H   0  0  0  0  0  0  0  0  0  0  0  0
  149.1259  138.5250  155.3700 H   0  0  0  0  0  0  0  0  0  0  0  0
  149.5818  140.8967  157.5478 H   0  0  0  0  0  0  0  0  0  0  0  0
  151.3416  141.0474  157.5565 H   0  0  0  0  0  0  0  0  0  0  0  0
  150.0259  142.5301  155.7554 H   0  0  0  0  0  0  0  0  0  0  0  0
  151.3975  141.5814  155.2056 H   0  0  0  0  0  0  0  0  0  0  0  0
  149.4721  140.0978  152.9277 H   0  0  0  0  0  0  0  0  0  0  0  0
  147.7970  140.9313  156.0979 H   0  0  0  0  0  0  0  0  0  0  0  0
  147.6464  141.7073  154.5486 H   0  0  0  0  0  0  0  0  0  0  0  0
  147.7119  139.5876  152.4732 H   0  0  0  0  0  0  0  0  0  0  0  0
  142.2288  136.2697  153.5047 H   0  0  0  0  0  0  0  0  0  0  0  0
  143.2089  137.6749  153.1096 H   0  0  0  0  0  0  0  0  0  0  0  0
  142.7419  135.7451  151.2512 H   0  0  0  0  0  0  0  0  0  0  0  0
  144.2913  136.5787  151.3386 H   0  0  0  0  0  0  0  0  0  0  0  0
  145.7821  132.2748  152.0481 H   0  0  0  0  0  0  0  0  0  0  0  0
  146.9596  133.5789  152.3126 H   0  0  0  0  0  0  0  0  0  0  0  0
  146.8344  132.8200  150.7478 H   0  0  0  0  0  0  0  0  0  0  0  0
  143.8046  134.4947  149.6730 H   0  0  0  0  0  0  0  0  0  0  0  0
  145.1211  133.4882  149.1644 H   0  0  0  0  0  0  0  0  0  0  0  0
  144.2851  131.5777  150.5549 H   0  0  0  0  0  0  0  0  0  0  0  0
  142.9947  132.5935  151.1636 H   0  0  0  0  0  0  0  0  0  0  0  0
  142.1602  132.7510  149.1101 H   0  0  0  0  0  0  0  0  0  0  0  0
  146.0028  133.2185  154.2628 H   0  0  0  0  0  0  0  0  0  0  0  0
  144.4033  133.4966  154.9302 H   0  0  0  0  0  0  0  0  0  0  0  0
  145.7869  134.3978  155.5308 H   0  0  0  0  0  0  0  0  0  0  0  0
  144.7979  138.0961  158.0209 H   0  0  0  0  0  0  0  0  0  0  0  0
  145.7460  134.9661  150.8976 H   0  0  0  0  0  0  0  0  0  0  0  0
  1  2  1  0  0  0  0
  1 31  1  0  0  0  0
  1 32  1  0  0  0  0
  1 33  1  0  0  0  0
  2  6  1  0  0  0  0
  2  3  1  0  0  0  0
  2 34  1  0  0  0  0
  3  4  1  0  0  0  0
  4  5  1  0  0  0  0
  4 35  1  0  0  0  0
  4 36  1  0  0  0  0
  5  6  1  0  0  0  0
  5 37  1  0  0  0  0
  5 38  1  0  0  0  0
  6  7  1  0  0  0  0
  6  8  1  0  0  0  0
  7 39  1  0  0  0  0
  8  9  1  0  0  0  0
  8 40  1  0  0  0  0
  8 41  1  0  0  0  0
  9 28  1  0  0  0  0
  9 10  1  0  0  0  0
 10 11  2  0  0  0  0
 10 42  1  0  0  0  0
 11 12  1  0  0  0  0
 12 28  2  0  0  0  0
 12 13  1  0  0  0  0
 13 14  1  0  0  0  0
 13 25  2  0  0  0  0
 14 23  1  0  0  0  0
 14 15  1  0  0  0  0
 15 16  1  0  0  0  0
 15 43  1  0  0  0  0
 15 44  1  0  0  0  0
 16 17  1  0  0  0  0
 16 45  1  0  0  0  0
 16 46  1  0  0  0  0
 17 29  1  0  0  0  0
 17 18  1  0  0  0  0
 17 23  1  0  0  0  0
 18 19  1  0  0  0  0
 18 20  1  0  0  0  0
 18 59  1  0  0  0  0
 19 47  1  0  0  0  0
 19 48  1  0  0  0  0
 19 49  1  0  0  0  0
 20 21  1  0  0  0  0
 20 50  1  0  0  0  0
 20 51  1  0  0  0  0
 21 22  1  0  0  0  0
 21 52  1  0  0  0  0
 21 53  1  0  0  0  0
 22 54  1  0  0  0  0
 23 30  1  0  0  0  0
 23 24  1  0  0  0  0
 24 55  1  0  0  0  0
 24 56  1  0  0  0  0
 24 57  1  0  0  0  0
 25 26  1  0  0  0  0
 26 27  2  0  0  0  0
 26 58  1  0  0  0  0
 27 28  1  0  0  0  0
M  CHG  1  18   1
M  END
> <s_m_source_file>
AV-unprocessed.smi

> <i_m_source_file_index>
290

> <i_lp_mmshare_version>
43012

> <i_f3d_flags>
0

> <s_epik_input>
W0NIMl0xW0NIMl1PW0NAQEhdKFtDSDNdKVtDQEBdMShbT0hdKVtDSDJdbihbY0hdbjIpYyhjMjMpbltjSF1uYzNONFtDSDJdW0NIMl1bQ0BIXShbQ0BIXTRbQ0gzXSlOKFtDSDNdKVtDSDJdW0NIMl1bT0hd

> <s_epik_cmdline>
J2VwaWtfcHl0aG9uJywgJy1waCcsICc3LjAnLCAnLXRuJywgJzgnLCAnLW1hJywgJzIwMCcsICctbWV0YWxfYmluZGluZycsICctaW1hZScsICc8aW5maWxlLm1hZT4nLCAnLW9tYWUnLCAnPG91dGZpbGUubWFlPic=

> <r_lp_tautomer_probability>
1

> <r_epik_Ionization_Penalty>
0.0036983

> <r_epik_Ionization_Penalty_Charging>
0.0032725

> <r_epik_Ionization_Penalty_Neutral>
0.000425798

> <r_epik_State_Penalty>
-0

> <r_epik_Charging_Adjusted_Penalty>
0.0032725

> <i_epik_Tot_Q>
1

> <i_epik_Tot_abs_Q>
1

> <r_epik_Metal_State_Penalty>
-0

> <b_epik_Metal_Only>
0

> <s_lp_Force_Field>
OPLS_2005

> <r_lp_Energy>
64.3392

> <b_lp_Chiralities_Consistent>
1

> <s_lp_Variant>
AV-unprocessed.smi:290-18

> <Gold.Version>
5.8.1

> <Gold.Id.Protein>
6NUR|6NUR_protein|mol2

> <Gold.PLP.Fitness>
50.0049

> <Gold.PLP.PLP>
-36.4967

> <Gold.PLP.part.hbond>
-5.2028

> <Gold.PLP.part.metal>
0.0000

> <Gold.PLP.part.buried>
-5.8006

> <Gold.PLP.part.nonpolar>
-24.7908

> <Gold.PLP.part.repulsive>
0.2914

> <Gold.PLP.ligand.clash>
0.0000

> <Gold.PLP.ligand.torsion>
0.3718

> <Gold.PLP.Chemscore.Hbond>
3.6535

> <Gold.PLP.Chemscore.CHOScore>
1.0000

> <Gold.PLP.Chemscore.Metal>
0.0000

> <Gold.Chemscore.Hbonds>
donor molecule, donor type, donor heavy atom, donor atom, acceptor molecule, acceptor atom, score
      L1  H     7    39       P1  7957  0.43
      L1  H    22    54       P1 10186  0.93
      P1  H  7989  7998       L1     7  0.30
      P1  H  8011  8017       L1     7  1.00
      P1  H 10785 10796       L1    22  0.98
      L1  C    10    42       P1  7957  1.00

> <Gold.PLP.Chemscore.Internal.Correction>
0.2912

> <Gold.Rescore>
     Score         DG    S(hbond)    S(metal)    S(lipo)     H(rot)  DE(clash)    DE(int)     intcor
     14.82     -15.45       2.96        0.00      80.79       3.67       0.24       0.39       ----

> <Gold.Chemscore.Fitness>
14.8155

> <Gold.Chemscore.DG>
-15.4477

> <Gold.Chemscore.ZeroCoef>
-5.4800

> <Gold.Chemscore.Hbond>
2.9641

> <Gold.Chemscore.Metal>
0.0000

> <Gold.Chemscore.Lipo>
80.7877

> <Gold.Chemscore.Internal_Hbond>
0.0000

> <Gold.Chemscore.DEClash>
0.2399

> <Gold.Chemscore.DEInternal>
0.3922

> <Gold.Chemscore.Rot>
3.6658

> <Gold.Chemscore.Internal.Correction>
   9.000000E+99

> <Gold.Chemscore.Hbonds>
donor molecule, donor type, donor heavy atom, donor atom, acceptor molecule, acceptor atom, score
      L1  H     7    39       P1  7957  0.42
      L1  H    22    54       P1 10186  0.88
      P1  H  7989  7998       L1     7  0.07
      P1  H  8011  8017       L1     7  0.73
      P1  H 10785 10796       L1    22  0.60

> <Gold.Chemscore.Hbond.Weighted>
-9.8999

> <Gold.Chemscore.Metal.Weighted>
-0.0000

> <Gold.Chemscore.Lipo.Weighted>
-9.4522

> <Gold.Chemscore.Internal_Hbond.Weighted>
0.0000

> <Gold.Chemscore.DEClash.Weighted>
0.2399

> <Gold.Chemscore.DEInternal.Weighted>
0.3922

> <Gold.Chemscore.Rot.Weighted>
9.3844

> <Gold.Chemscore.Internal.Correction.Weighted>
   9.000000E+99

> <Gold.Protein.RotatedTorsions>
[ 6907 6896 6895 6894 ] final -128.51 input  -60.11 | X-H torsion
[ 7974 7965 7964 7962 ] final  148.23 input  175.53 | X-H torsion
[ 8008 7997 7996 7995 ] final  -81.00 input   59.86 | X-H torsion
[ 10167 10162 10161 10158 ] final   30.27 input  -65.29 | X-H torsion
[ 10718 10713 10712 10709 ] final  159.22 input   66.30 | X-H torsion
[ 10763 10752 10751 10750 ] final  -39.72 input  -60.55 | X-H torsion
[ 11005 11000 10999 10996 ] final  118.09 input  -57.11 | X-H torsion

> <Gold.Protein.ActiveResidues>
 VAL166  LYS551  ARG553  GLY616  TRP617  ASP618  TYR619  PRO620  LYS621  CYS622 
 ASP623  PHE694  ASN695  SER759  ASP760  ASP761  ALA762  ILE779  LEU786  VAL792 
 PHE793  MET794  SER795  GLU796  ALA797  LYS798  CYS799  TRP800  GLU811  SER814 

> <Gold.Protein.RotatedAtoms>
  150.9187  133.6907  159.2837 H   0  0  0  0  0  0  0  0  0  0  0  0  # atno 6907 bound_to 6896
  151.4369  135.1014  159.9668 H   0  0  0  0  0  0  0  0  0  0  0  0  # atno 6908 bound_to 6896
  152.4968  133.8604  159.7302 H   0  0  0  0  0  0  0  0  0  0  0  0  # atno 6909 bound_to 6896
  144.8530  139.6127  143.5965 H   0  0  0  0  0  0  0  0  0  0  0  0  # atno 7974 bound_to 7965
  154.5939  140.0654  156.9277 H   0  0  0  0  0  0  0  0  0  0  0  0  # atno 8008 bound_to 7997
  155.2247  140.3333  155.4292 H   0  0  0  0  0  0  0  0  0  0  0  0  # atno 8009 bound_to 7997
  156.2274  140.1825  156.7312 H   0  0  0  0  0  0  0  0  0  0  0  0  # atno 8010 bound_to 7997
  140.4692  144.0788  150.6232 H   0  0  0  0  0  0  0  0  0  0  0  0  # atno 10167 bound_to 10162
  157.1672  131.0601  151.2202 H   0  0  0  0  0  0  0  0  0  0  0  0  # atno 10718 bound_to 10713
  153.9340  135.6769  153.4745 H   0  0  0  0  0  0  0  0  0  0  0  0  # atno 10763 bound_to 10752
  153.0965  135.4849  154.8785 H   0  0  0  0  0  0  0  0  0  0  0  0  # atno 10764 bound_to 10752
  154.7412  135.3161  154.8681 H   0  0  0  0  0  0  0  0  0  0  0  0  # atno 10765 bound_to 10752
  139.9097  134.9617  156.7451 H   0  0  0  0  0  0  0  0  0  0  0  0  # atno 11005 bound_to 11000
  146.2800  139.6853  142.9235 LP  0  0  0  0  0  0  0  0  0  0  0  0  # atno 17320 bound_to 7965
  145.4462  141.0425  143.2830 LP  0  0  0  0  0  0  0  0  0  0  0  0  # atno 17321 bound_to 7965
  140.3998  143.2709  151.9961 LP  0  0  0  0  0  0  0  0  0  0  0  0  # atno 17342 bound_to 10162
  139.4816  144.6007  151.7610 LP  0  0  0  0  0  0  0  0  0  0  0  0  # atno 17343 bound_to 10162
  157.4077  130.7368  149.6815 LP  0  0  0  0  0  0  0  0  0  0  0  0  # atno 17370 bound_to 10713
  155.9744  130.4103  150.3926 LP  0  0  0  0  0  0  0  0  0  0  0  0  # atno 17371 bound_to 10713
  140.6819  133.9467  155.7915 LP  0  0  0  0  0  0  0  0  0  0  0  0  # atno 17394 bound_to 11000
  141.0504  134.0493  157.3790 LP  0  0  0  0  0  0  0  0  0  0  0  0  # atno 17395 bound_to 11000

$$$$
