AV-unprocessed.smi:2078|AV-procd|sdf|8474|dock4
  -GOLD-   2272011173D 1   1.00000     0.00000
 Structure written by MMmdl.
 41 42  0  0  0  0  0  0  0  0  3 V2000
  147.0660  135.4514  162.2831 C   0  0  0  0  0  0  0  0  0  0  0  0
  147.6069  135.8495  160.9529 C   0  0  0  0  0  0  0  0  0  0  0  0
  147.8630  135.1524  159.8059 C   0  0  0  0  0  0  0  0  0  0  0  0
  148.3656  136.1501  158.9289 C   0  0  0  0  0  0  0  0  0  0  0  0
  148.7628  135.8191  157.6065 N   0  0  0  0  0  0  0  0  0  0  0  0
  149.3508  134.6938  157.1622 C   0  0  0  0  0  0  0  0  0  0  0  0
  149.6554  133.7931  157.9536 O   0  0  0  0  0  0  0  0  0  0  0  0
  149.5286  134.6993  155.8117 N   0  5  0  0  0  0  0  0  0  0  0  0
  148.5549  134.2106  154.8300 C   0  0  0  0  0  0  0  0  0  0  0  0
  147.4454  135.2580  154.5939 C   0  0  0  0  0  0  0  0  0  0  0  0
  146.9478  135.2360  153.1922 N   0  3  2  0  0  0  0  0  0  0  0  0
  145.8827  136.2351  152.9128 C   0  0  0  0  0  0  0  0  0  0  0  0
  145.5739  136.2922  151.4088 C   0  0  0  0  0  0  0  0  0  0  0  0
  145.1842  134.9065  150.8763 C   0  0  0  0  0  0  0  0  0  0  0  0
  146.2800  133.8779  151.2071 C   0  0  2  0  0  0  0  0  0  0  0  0
  145.9055  132.4759  150.7070 C   0  0  0  0  0  0  0  0  0  0  0  0
  146.5742  133.8782  152.7206 C   0  0  0  0  0  0  0  0  0  0  0  0
  148.4160  137.3480  159.4929 N   0  0  0  0  0  0  0  0  0  0  0  0
  147.9287  137.1617  160.7918 O   0  0  0  0  0  0  0  0  0  0  0  0
  146.8903  134.3765  162.3264 H   0  0  0  0  0  0  0  0  0  0  0  0
  146.1211  135.9571  162.4826 H   0  0  0  0  0  0  0  0  0  0  0  0
  147.7649  135.7122  163.0780 H   0  0  0  0  0  0  0  0  0  0  0  0
  147.7126  134.0986  159.6246 H   0  0  0  0  0  0  0  0  0  0  0  0
  148.5644  136.5169  156.9045 H   0  0  0  0  0  0  0  0  0  0  0  0
  149.0404  134.0051  153.8763 H   0  0  0  0  0  0  0  0  0  0  0  0
  148.0992  133.2656  155.1286 H   0  0  0  0  0  0  0  0  0  0  0  0
  146.6301  135.0635  155.2927 H   0  0  0  0  0  0  0  0  0  0  0  0
  147.8115  136.2552  154.8426 H   0  0  0  0  0  0  0  0  0  0  0  0
  144.9834  135.9788  153.4749 H   0  0  0  0  0  0  0  0  0  0  0  0
  146.1995  137.2220  153.2523 H   0  0  0  0  0  0  0  0  0  0  0  0
  144.7709  137.0048  151.2185 H   0  0  0  0  0  0  0  0  0  0  0  0
  146.4491  136.6595  150.8705 H   0  0  0  0  0  0  0  0  0  0  0  0
  144.2364  134.5972  151.3192 H   0  0  0  0  0  0  0  0  0  0  0  0
  145.0239  134.9556  149.7987 H   0  0  0  0  0  0  0  0  0  0  0  0
  147.1925  134.1786  150.6888 H   0  0  0  0  0  0  0  0  0  0  0  0
  144.9995  132.1104  151.1915 H   0  0  0  0  0  0  0  0  0  0  0  0
  146.7036  131.7611  150.9103 H   0  0  0  0  0  0  0  0  0  0  0  0
  145.7312  132.4766  149.6306 H   0  0  0  0  0  0  0  0  0  0  0  0
  147.3953  133.1891  152.9242 H   0  0  0  0  0  0  0  0  0  0  0  0
  145.7098  133.5216  153.2828 H   0  0  0  0  0  0  0  0  0  0  0  0
  147.7474  135.5052  152.6344 H   0  0  0  0  0  0  0  0  0  0  0  0
  1  2  1  0  0  0  0
  1 20  1  0  0  0  0
  1 21  1  0  0  0  0
  1 22  1  0  0  0  0
  2 19  1  0  0  0  0
  2  3  2  0  0  0  0
  3  4  1  0  0  0  0
  3 23  1  0  0  0  0
  4  5  1  0  0  0  0
  4 18  2  0  0  0  0
  5  6  1  0  0  0  0
  5 24  1  0  0  0  0
  6  7  2  0  0  0  0
  6  8  1  0  0  0  0
  8  9  1  0  0  0  0
  9 10  1  0  0  0  0
  9 25  1  0  0  0  0
  9 26  1  0  0  0  0
 10 11  1  0  0  0  0
 10 27  1  0  0  0  0
 10 28  1  0  0  0  0
 11 17  1  0  0  0  0
 11 12  1  0  0  0  0
 11 41  1  0  0  0  0
 12 13  1  0  0  0  0
 12 29  1  0  0  0  0
 12 30  1  0  0  0  0
 13 14  1  0  0  0  0
 13 31  1  0  0  0  0
 13 32  1  0  0  0  0
 14 15  1  0  0  0  0
 14 33  1  0  0  0  0
 14 34  1  0  0  0  0
 15 16  1  0  0  0  0
 15 17  1  0  0  0  0
 15 35  1  0  0  0  0
 16 36  1  0  0  0  0
 16 37  1  0  0  0  0
 16 38  1  0  0  0  0
 17 39  1  0  0  0  0
 17 40  1  0  0  0  0
 18 19  1  0  0  0  0
M  CHG  1   8  -1
M  CHG  1  11   1
M  END
> <s_m_source_file>
AV-unprocessed.smi

> <i_m_source_file_index>
2078

> <i_lp_mmshare_version>
43012

> <i_f3d_flags>
0

> <s_epik_input>
W0NIM11jMVtjSF1jKG5vMSlbTkhdQyg9TylbTkhdW0NIMl1bQ0gyXU4yW0NIMl1bQ0gyXVtDSDJdW0NAQEhdKFtDSDNdKVtDSDJdMg==

> <s_epik_cmdline>
J2VwaWtfcHl0aG9uJywgJy1waCcsICc3LjAnLCAnLXRuJywgJzgnLCAnLW1hJywgJzIwMCcsICctbWV0YWxfYmluZGluZycsICctaW1hZScsICc8aW5maWxlLm1hZT4nLCAnLW9tYWUnLCAnPG91dGZpbGUubWFlPic=

> <r_epik_Ionization_Penalty>
6.76934

> <r_epik_Ionization_Penalty_Charging>
6.76934

> <r_epik_Ionization_Penalty_Neutral>
5.77849e-06

> <r_epik_State_Penalty>
6.79457

> <r_epik_Charging_Adjusted_Penalty>
13.5639

> <i_epik_Tot_Q>
0

> <i_epik_Tot_abs_Q>
2

> <r_epik_Metal_State_Penalty>
2.72837

> <b_epik_Metal_Only>
1

> <s_lp_Force_Field>
OPLS_2005

> <r_lp_Energy>
9.58201

> <b_lp_Chiralities_Consistent>
1

> <s_lp_Variant>
AV-unprocessed.smi:2078-12

> <Gold.Version>
5.8.1

> <Gold.Id.Protein>
6NUR|6NUR_protein|mol2

> <Gold.PLP.Fitness>
40.1979

> <Gold.PLP.PLP>
-29.9149

> <Gold.PLP.part.hbond>
-4.7626

> <Gold.PLP.part.metal>
0.0000

> <Gold.PLP.part.buried>
-3.2672

> <Gold.PLP.part.nonpolar>
-21.0666

> <Gold.PLP.part.repulsive>
0.1010

> <Gold.PLP.ligand.clash>
0.0000

> <Gold.PLP.ligand.torsion>
1.3793

> <Gold.PLP.Chemscore.Hbond>
4.3264

> <Gold.PLP.Chemscore.CHOScore>
0.0000

> <Gold.PLP.Chemscore.Metal>
0.0000

> <Gold.Chemscore.Hbonds>
donor molecule, donor type, donor heavy atom, donor atom, acceptor molecule, acceptor atom, score
      L1  H    11    41       P1  7948  2.00
      P1  H  6896  6909       L1     7  0.86
      P1  H  6931  6943       L1    19  0.86
      P1  H  6934  6947       L1    19  0.56

> <Gold.PLP.Chemscore.Internal.Correction>
0.0623

> <Gold.Rescore>
     Score         DG    S(hbond)    S(metal)    S(lipo)     H(rot)  DE(clash)    DE(int)     intcor
     15.75     -18.38       2.92        0.00      60.68       1.54       0.01       2.62       ----

> <Gold.Chemscore.Fitness>
15.7512

> <Gold.Chemscore.DG>
-18.3761

> <Gold.Chemscore.ZeroCoef>
-5.4800

> <Gold.Chemscore.Hbond>
2.9166

> <Gold.Chemscore.Metal>
0.0000

> <Gold.Chemscore.Lipo>
60.6773

> <Gold.Chemscore.Internal_Hbond>
0.0000

> <Gold.Chemscore.DEClash>
0.0067

> <Gold.Chemscore.DEInternal>
2.6182

> <Gold.Chemscore.Rot>
1.5409

> <Gold.Chemscore.Internal.Correction>
   9.000000E+99

> <Gold.Chemscore.Hbonds>
donor molecule, donor type, donor heavy atom, donor atom, acceptor molecule, acceptor atom, score
      L1  H    11    41       P1  7948  0.98
      P1  H  6896  6909       L1     7  0.85
      P1  H  6931  6943       L1    19  0.43
      P1  H  6934  6947       L1    19  0.06

> <Gold.Chemscore.Hbond.Weighted>
-9.7415

> <Gold.Chemscore.Metal.Weighted>
-0.0000

> <Gold.Chemscore.Lipo.Weighted>
-7.0992

> <Gold.Chemscore.Internal_Hbond.Weighted>
0.0000

> <Gold.Chemscore.DEClash.Weighted>
0.0067

> <Gold.Chemscore.DEInternal.Weighted>
2.6182

> <Gold.Chemscore.Rot.Weighted>
3.9446

> <Gold.Chemscore.Internal.Correction.Weighted>
   9.000000E+99

> <Gold.Protein.RotatedTorsions>
[ 6907 6896 6895 6894 ] final  -17.01 input  -60.11 | X-H torsion
[ 7974 7965 7964 7962 ] final -167.28 input  175.53 | X-H torsion
[ 8008 7997 7996 7995 ] final  102.98 input   59.86 | X-H torsion
[ 10167 10162 10161 10158 ] final -110.06 input  -65.29 | X-H torsion
[ 10718 10713 10712 10709 ] final  151.75 input   66.30 | X-H torsion
[ 10763 10752 10751 10750 ] final  -25.62 input  -60.55 | X-H torsion
[ 11005 11000 10999 10996 ] final   62.71 input  -57.11 | X-H torsion

> <Gold.Protein.ActiveResidues>
 VAL166  LYS551  ARG553  GLY616  TRP617  ASP618  TYR619  PRO620  LYS621  CYS622 
 ASP623  PHE694  ASN695  SER759  ASP760  ASP761  ALA762  ILE779  LEU786  VAL792 
 PHE793  MET794  SER795  GLU796  ALA797  LYS798  CYS799  TRP800  GLU811  SER814 

> <Gold.Protein.RotatedAtoms>
  151.2999  135.0765  159.9234 H   0  0  0  0  0  0  0  0  0  0  0  0  # atno 6907 bound_to 6896
  152.5300  133.9844  159.7832 H   0  0  0  0  0  0  0  0  0  0  0  0  # atno 6908 bound_to 6896
  151.0129  133.5897  159.2711 H   0  0  0  0  0  0  0  0  0  0  0  0  # atno 6909 bound_to 6896
  144.7226  140.2542  143.6274 H   0  0  0  0  0  0  0  0  0  0  0  0  # atno 7974 bound_to 7965
  156.1442  140.3172  155.8544 H   0  0  0  0  0  0  0  0  0  0  0  0  # atno 8008 bound_to 7997
  155.4096  140.0505  157.3049 H   0  0  0  0  0  0  0  0  0  0  0  0  # atno 8009 bound_to 7997
  154.5002  140.2126  155.9374 H   0  0  0  0  0  0  0  0  0  0  0  0  # atno 8010 bound_to 7997
  140.1485  143.4219  152.1512 H   0  0  0  0  0  0  0  0  0  0  0  0  # atno 10167 bound_to 10162
  157.2666  131.0809  151.1628 H   0  0  0  0  0  0  0  0  0  0  0  0  # atno 10718 bound_to 10713
  153.7028  135.6955  153.5058 H   0  0  0  0  0  0  0  0  0  0  0  0  # atno 10763 bound_to 10752
  153.2330  135.4331  155.0615 H   0  0  0  0  0  0  0  0  0  0  0  0  # atno 10764 bound_to 10752
  154.8339  135.3489  154.6566 H   0  0  0  0  0  0  0  0  0  0  0  0  # atno 10765 bound_to 10752
  140.0074  134.6349  155.9834 H   0  0  0  0  0  0  0  0  0  0  0  0  # atno 11005 bound_to 11000
  145.8198  139.2039  143.1944 LP  0  0  0  0  0  0  0  0  0  0  0  0  # atno 17320 bound_to 7965
  146.0524  140.8056  142.9775 LP  0  0  0  0  0  0  0  0  0  0  0  0  # atno 17321 bound_to 7965
  139.5437  144.7280  151.4651 LP  0  0  0  0  0  0  0  0  0  0  0  0  # atno 17342 bound_to 10162
  140.6717  143.8279  150.7007 LP  0  0  0  0  0  0  0  0  0  0  0  0  # atno 17343 bound_to 10162
  157.3117  130.6893  149.6219 LP  0  0  0  0  0  0  0  0  0  0  0  0  # atno 17370 bound_to 10713
  155.9663  130.4361  150.5122 LP  0  0  0  0  0  0  0  0  0  0  0  0  # atno 17371 bound_to 10713
  141.1686  133.6537  156.4570 LP  0  0  0  0  0  0  0  0  0  0  0  0  # atno 17394 bound_to 11000
  140.4617  134.6835  157.5088 LP  0  0  0  0  0  0  0  0  0  0  0  0  # atno 17395 bound_to 11000

$$$$
