AV-unprocessed.smi:287|AV-procd|sdf|2177|dock3
  -GOLD-   2262021543D 1   1.00000     0.00000
 Structure written by MMmdl.
 55 58  0  0  0  0  0  0  0  0  1 V2000
  153.7512  140.3447  161.1537 C   0  0  0  0  0  0  0  0  0  0  0  0
  152.9077  141.2803  160.3576 C   0  0  0  0  0  0  0  0  0  0  0  0
  152.0329  141.1156  159.3237 C   0  0  0  0  0  0  0  0  0  0  0  0
  151.5386  142.4079  158.9732 C   0  0  0  0  0  0  0  0  0  0  0  0
  150.5339  142.7192  157.8719 C   0  0  1  0  0  0  0  0  0  0  0  0
  149.1901  142.0432  158.1887 C   0  0  0  0  0  0  0  0  0  0  0  0
  150.2471  144.1008  157.7694 O   0  0  0  0  0  0  0  0  0  0  0  0
  151.0294  142.2853  156.4730 C   0  0  0  0  0  0  0  0  0  0  0  0
  149.9939  142.3806  155.4489 N   0  0  0  0  0  0  0  0  0  0  0  0
  149.4061  141.2644  154.9709 C   0  0  0  0  0  0  0  0  0  0  0  0
  150.1452  140.1830  154.6093 N   0  0  0  0  0  0  0  0  0  0  0  0
  149.5408  139.0873  154.1390 C   0  0  0  0  0  0  0  0  0  0  0  0
  148.2366  138.8666  153.9553 N   0  0  0  0  0  0  0  0  0  0  0  0
  147.4931  139.9515  154.3194 C   0  0  0  0  0  0  0  0  0  0  0  0
  147.9971  141.1784  154.8313 C   0  0  0  0  0  0  0  0  0  0  0  0
  146.9448  142.0472  155.0901 N   0  0  0  0  0  0  0  0  0  0  0  0
  145.8819  141.3657  154.7540 C   0  0  0  0  0  0  0  0  0  0  0  0
  146.1236  140.0913  154.2849 N   0  0  0  0  0  0  0  0  0  0  0  0
  145.1555  139.0488  153.8271 C   0  0  2  0  0  0  0  0  0  0  0  0
  145.4272  137.8717  154.5326 O   0  0  0  0  0  0  0  0  0  0  0  0
  145.8198  136.8215  153.6487 C   0  0  2  0  0  0  0  0  0  0  0  0
  146.8874  135.9406  154.3160 C   0  0  0  0  0  0  0  0  0  0  0  0
  147.3350  134.9537  153.4121 O   0  0  0  0  0  0  0  0  0  0  0  0
  146.3276  137.5635  152.4123 C   0  0  1  0  0  0  0  0  0  0  0  0
  146.3074  136.7791  151.2354 O   0  0  0  0  0  0  0  0  0  0  0  0
  145.3893  138.7579  152.3395 C   0  0  1  0  0  0  0  0  0  0  0  0
  144.1675  138.4726  151.6825 O   0  0  0  0  0  0  0  0  0  0  0  0
  152.1491  143.2668  159.8552 C   0  0  0  0  0  0  0  0  0  0  0  0
  152.0824  144.7412  160.0810 C   0  0  0  0  0  0  0  0  0  0  0  0
  152.9860  142.5925  160.6924 O   0  0  0  0  0  0  0  0  0  0  0  0
  144.1743  139.4607  154.0671 H   0  0  0  0  0  0  0  0  0  0  0  0
  144.9355  136.2383  153.3837 H   0  0  0  0  0  0  0  0  0  0  0  0
  147.3453  137.9169  152.5871 H   0  0  0  0  0  0  0  0  0  0  0  0
  145.8515  139.6083  151.8359 H   0  0  0  0  0  0  0  0  0  0  0  0
  153.7177  139.3388  160.7350 H   0  0  0  0  0  0  0  0  0  0  0  0
  153.4031  140.2935  162.1853 H   0  0  0  0  0  0  0  0  0  0  0  0
  154.7911  140.6720  161.1612 H   0  0  0  0  0  0  0  0  0  0  0  0
  151.7801  140.1724  158.8626 H   0  0  0  0  0  0  0  0  0  0  0  0
  149.2999  140.9603  158.2574 H   0  0  0  0  0  0  0  0  0  0  0  0
  148.4473  142.2480  157.4166 H   0  0  0  0  0  0  0  0  0  0  0  0
  148.7843  142.3926  159.1392 H   0  0  0  0  0  0  0  0  0  0  0  0
  149.8612  144.2645  156.9226 H   0  0  0  0  0  0  0  0  0  0  0  0
  151.8441  142.9453  156.1712 H   0  0  0  0  0  0  0  0  0  0  0  0
  151.4417  141.2755  156.5026 H   0  0  0  0  0  0  0  0  0  0  0  0
  149.7662  143.3126  155.1324 H   0  0  0  0  0  0  0  0  0  0  0  0
  150.1956  138.2704  153.8740 H   0  0  0  0  0  0  0  0  0  0  0  0
  144.8890  141.7804  154.8449 H   0  0  0  0  0  0  0  0  0  0  0  0
  147.7517  136.5448  154.5931 H   0  0  0  0  0  0  0  0  0  0  0  0
  146.5110  135.4780  155.2285 H   0  0  0  0  0  0  0  0  0  0  0  0
  148.0024  135.3323  152.8605 H   0  0  0  0  0  0  0  0  0  0  0  0
  147.1866  136.4748  151.0672 H   0  0  0  0  0  0  0  0  0  0  0  0
  144.2387  138.7547  150.7831 H   0  0  0  0  0  0  0  0  0  0  0  0
  151.0474  145.0781  160.1355 H   0  0  0  0  0  0  0  0  0  0  0  0
  152.5723  145.2786  159.2692 H   0  0  0  0  0  0  0  0  0  0  0  0
  152.5727  145.0202  161.0138 H   0  0  0  0  0  0  0  0  0  0  0  0
  1  2  1  0  0  0  0
  1 35  1  0  0  0  0
  1 36  1  0  0  0  0
  1 37  1  0  0  0  0
  2 30  1  0  0  0  0
  2  3  2  0  0  0  0
  3  4  1  0  0  0  0
  3 38  1  0  0  0  0
  4  5  1  0  0  0  0
  4 28  2  0  0  0  0
  5  6  1  0  0  0  0
  5  7  1  0  0  0  0
  5  8  1  0  0  0  0
  6 39  1  0  0  0  0
  6 40  1  0  0  0  0
  6 41  1  0  0  0  0
  7 42  1  0  0  0  0
  8  9  1  0  0  0  0
  8 43  1  0  0  0  0
  8 44  1  0  0  0  0
  9 10  1  0  0  0  0
  9 45  1  0  0  0  0
 10 15  1  0  0  0  0
 10 11  2  0  0  0  0
 11 12  1  0  0  0  0
 12 13  2  0  0  0  0
 12 46  1  0  0  0  0
 13 14  1  0  0  0  0
 14 18  1  0  0  0  0
 14 15  2  0  0  0  0
 15 16  1  0  0  0  0
 16 17  2  0  0  0  0
 17 18  1  0  0  0  0
 17 47  1  0  0  0  0
 18 19  1  0  0  0  0
 19 31  1  0  0  0  0
 19 26  1  0  0  0  0
 19 20  1  0  0  0  0
 20 21  1  0  0  0  0
 21 32  1  0  0  0  0
 21 22  1  0  0  0  0
 21 24  1  0  0  0  0
 22 23  1  0  0  0  0
 22 48  1  0  0  0  0
 22 49  1  0  0  0  0
 23 50  1  0  0  0  0
 24 33  1  0  0  0  0
 24 25  1  0  0  0  0
 24 26  1  0  0  0  0
 25 51  1  0  0  0  0
 26 34  1  0  0  0  0
 26 27  1  0  0  0  0
 27 52  1  0  0  0  0
 28 29  1  0  0  0  0
 28 30  1  0  0  0  0
 29 53  1  0  0  0  0
 29 54  1  0  0  0  0
 29 55  1  0  0  0  0
M  END
> <s_m_source_file>
AV-unprocessed.smi

> <i_m_source_file_index>
287

> <i_lp_mmshare_version>
43012

> <i_f3d_flags>
0

> <s_epik_input>
W0NIM11jMVtjSF1jKGMobzEpW0NIM10pW0NAQF0oW0NIM10pKFtPSF0pW0NIMl1bTkhdYyhuW2NIXW4yKWMoYzIzKW5bY0hdbjNbQ0BASF00T1tDQEhdKFtDSDJdW09IXSlbQ0BASF0oW09IXSlbQ0BIXTRbT0hd

> <s_epik_cmdline>
J2VwaWtfcHl0aG9uJywgJy1waCcsICc3LjAnLCAnLXRuJywgJzgnLCAnLW1hJywgJzIwMCcsICctbWV0YWxfYmluZGluZycsICctaW1hZScsICc8aW5maWxlLm1hZT4nLCAnLW9tYWUnLCAnPG91dGZpbGUubWFlPic=

> <r_lp_tautomer_probability>
1

> <r_epik_Ionization_Penalty>
0.000992612

> <r_epik_Ionization_Penalty_Charging>
0

> <r_epik_Ionization_Penalty_Neutral>
0.000992612

> <r_epik_State_Penalty>
-0

> <r_epik_Charging_Adjusted_Penalty>
0

> <i_epik_Tot_Q>
0

> <i_epik_Tot_abs_Q>
0

> <r_epik_Metal_State_Penalty>
-0

> <b_epik_Metal_Only>
0

> <s_epik_Chemistry_Notes>
This compound contains an acetal/aminal-like group ( X-CH(R)-Y where X, Y are N, S, or O) that may be acid/base labile, releasing an aldehyde.

> <s_lp_Force_Field>
OPLS_2005

> <r_lp_Energy>
40.3349

> <b_lp_Chiralities_Consistent>
1

> <s_lp_Variant>
AV-unprocessed.smi:287-1

> <Gold.Version>
5.8.1

> <Gold.Id.Protein>
6NUR|6NUR_protein|mol2

> <Gold.PLP.Fitness>
57.8245

> <Gold.PLP.PLP>
-41.2450

> <Gold.PLP.part.hbond>
-7.8200

> <Gold.PLP.part.metal>
0.0000

> <Gold.PLP.part.buried>
-1.9581

> <Gold.PLP.part.nonpolar>
-31.8062

> <Gold.PLP.part.repulsive>
0.5851

> <Gold.PLP.ligand.clash>
0.0000

> <Gold.PLP.ligand.torsion>
0.6313

> <Gold.PLP.Chemscore.Hbond>
5.8880

> <Gold.PLP.Chemscore.CHOScore>
0.0000

> <Gold.PLP.Chemscore.Metal>
0.0000

> <Gold.Chemscore.Hbonds>
donor molecule, donor type, donor heavy atom, donor atom, acceptor molecule, acceptor atom, score
      L1  H     7    42       P1  8028  1.00
      L1  H     9    45       P1  8028  0.82
      L1  H    23    50       P1  7948  1.00
      L1  H    25    51       P1  7948  0.91
      P1  H  7989  7998       L1    11  1.00

> <Gold.PLP.Chemscore.Internal.Correction>
0.1780

> <Gold.Rescore>
     Score         DG    S(hbond)    S(metal)    S(lipo)     H(rot)  DE(clash)    DE(int)     intcor
     14.98     -20.71       5.22        0.00      96.25       5.27       1.58       4.14       ----

> <Gold.Chemscore.Fitness>
14.9844

> <Gold.Chemscore.DG>
-20.7058

> <Gold.Chemscore.ZeroCoef>
-5.4800

> <Gold.Chemscore.Hbond>
5.2241

> <Gold.Chemscore.Metal>
0.0000

> <Gold.Chemscore.Lipo>
96.2509

> <Gold.Chemscore.Internal_Hbond>
0.0000

> <Gold.Chemscore.DEClash>
1.5792

> <Gold.Chemscore.DEInternal>
4.1422

> <Gold.Chemscore.Rot>
5.2672

> <Gold.Chemscore.Internal.Correction>
   9.000000E+99

> <Gold.Chemscore.Hbonds>
donor molecule, donor type, donor heavy atom, donor atom, acceptor molecule, acceptor atom, score
      L1  H     7    42       P1  8028  0.78
      L1  H     9    45       P1  8028  0.81
      L1  H    23    50       P1  7948  0.99
      L1  H    25    51       P1  7948  0.89
      L1  H    27    52       P1 10171  0.01
      P1  H  7989  7998       L1    11  0.48

> <Gold.Chemscore.Hbond.Weighted>
-17.4484

> <Gold.Chemscore.Metal.Weighted>
-0.0000

> <Gold.Chemscore.Lipo.Weighted>
-11.2614

> <Gold.Chemscore.Internal_Hbond.Weighted>
0.0000

> <Gold.Chemscore.DEClash.Weighted>
1.5792

> <Gold.Chemscore.DEInternal.Weighted>
4.1422

> <Gold.Chemscore.Rot.Weighted>
13.4839

> <Gold.Chemscore.Internal.Correction.Weighted>
   9.000000E+99

> <Gold.Protein.RotatedTorsions>
[ 6907 6896 6895 6894 ] final -101.93 input  -60.11 | X-H torsion
[ 7974 7965 7964 7962 ] final  -41.91 input  175.53 | X-H torsion
[ 8008 7997 7996 7995 ] final  153.72 input   59.86 | X-H torsion
[ 10167 10162 10161 10158 ] final  102.51 input  -65.29 | X-H torsion
[ 10718 10713 10712 10709 ] final  -22.49 input   66.30 | X-H torsion
[ 10763 10752 10751 10750 ] final   98.54 input  -60.55 | X-H torsion
[ 11005 11000 10999 10996 ] final  -51.40 input  -57.11 | X-H torsion

> <Gold.Protein.ActiveResidues>
 VAL166  LYS551  ARG553  GLY616  TRP617  ASP618  TYR619  PRO620  LYS621  CYS622 
 ASP623  PHE694  ASN695  SER759  ASP760  ASP761  ALA762  ILE779  LEU786  VAL792 
 PHE793  MET794  SER795  GLU796  ALA797  LYS798  CYS799  TRP800  GLU811  SER814 

> <Gold.Protein.RotatedAtoms>
  150.7175  134.0659  159.3847 H   0  0  0  0  0  0  0  0  0  0  0  0  # atno 6907 bound_to 6896
  151.8640  135.0511  160.0481 H   0  0  0  0  0  0  0  0  0  0  0  0  # atno 6908 bound_to 6896
  152.2695  133.5334  159.5467 H   0  0  0  0  0  0  0  0  0  0  0  0  # atno 6909 bound_to 6896
  146.0166  140.6900  142.9198 H   0  0  0  0  0  0  0  0  0  0  0  0  # atno 7974 bound_to 7965
  156.2567  140.1986  156.6534 H   0  0  0  0  0  0  0  0  0  0  0  0  # atno 8008 bound_to 7997
  154.6519  140.0571  156.9990 H   0  0  0  0  0  0  0  0  0  0  0  0  # atno 8009 bound_to 7997
  155.1405  140.3242  155.4456 H   0  0  0  0  0  0  0  0  0  0  0  0  # atno 8010 bound_to 7997
  139.7343  144.7028  151.0673 H   0  0  0  0  0  0  0  0  0  0  0  0  # atno 10167 bound_to 10162
  156.5039  130.4594  149.6686 H   0  0  0  0  0  0  0  0  0  0  0  0  # atno 10718 bound_to 10713
  153.2903  135.4144  155.1161 H   0  0  0  0  0  0  0  0  0  0  0  0  # atno 10763 bound_to 10752
  154.8518  135.3517  154.5990 H   0  0  0  0  0  0  0  0  0  0  0  0  # atno 10764 bound_to 10752
  153.6412  135.7057  153.5299 H   0  0  0  0  0  0  0  0  0  0  0  0  # atno 10765 bound_to 10752
  141.0869  133.6640  156.3871 H   0  0  0  0  0  0  0  0  0  0  0  0  # atno 11005 bound_to 11000
  144.6973  140.3492  143.7185 LP  0  0  0  0  0  0  0  0  0  0  0  0  # atno 17320 bound_to 7965
  145.7259  139.1722  143.2458 LP  0  0  0  0  0  0  0  0  0  0  0  0  # atno 17321 bound_to 7965
  140.7776  143.5003  150.9780 LP  0  0  0  0  0  0  0  0  0  0  0  0  # atno 17342 bound_to 10162
  139.8691  143.7215  152.3168 LP  0  0  0  0  0  0  0  0  0  0  0  0  # atno 17343 bound_to 10162
  156.3306  130.7329  151.2258 LP  0  0  0  0  0  0  0  0  0  0  0  0  # atno 17370 bound_to 10713
  157.7459  131.0431  150.4726 LP  0  0  0  0  0  0  0  0  0  0  0  0  # atno 17371 bound_to 10713
  140.5343  134.6182  157.5360 LP  0  0  0  0  0  0  0  0  0  0  0  0  # atno 17394 bound_to 11000
  139.9688  134.7327  156.0083 LP  0  0  0  0  0  0  0  0  0  0  0  0  # atno 17395 bound_to 11000

$$$$
