AV-unprocessed.smi:1804|AV-procd|sdf|7295|dock7
  -GOLD-   22720 8553D 1   1.00000     0.00000
 Structure written by MMmdl.
 44 45  0  0  0  0  0  0  0  0  2 V2000
  147.7187  137.3164  155.4904 C   0  0  0  0  0  0  0  0  0  0  0  0
  147.7745  138.7998  155.5840 N   0  3  0  0  0  0  0  0  0  0  0  0
  146.5133  139.3106  156.1834 C   0  0  0  0  0  0  0  0  0  0  0  0
  148.2492  139.5109  154.3410 C   0  0  0  0  0  0  0  0  0  0  0  0
  147.1800  139.3578  153.2077 C   0  0  0  0  0  0  0  0  0  0  0  0
  147.1241  138.0193  152.6171 N   0  0  0  0  0  0  0  0  0  0  0  0
  146.0087  137.3114  152.3848 C   0  0  0  0  0  0  0  0  0  0  0  0
  144.8784  137.7194  152.6523 O   0  0  0  0  0  0  0  0  0  0  0  0
  146.2957  136.1177  151.8367 N   0  0  0  0  0  0  0  0  0  0  0  0
  145.3985  135.0806  151.4675 C   0  0  0  0  0  0  0  0  0  0  0  0
  145.7936  133.8617  151.0683 N   0  0  0  0  0  0  0  0  0  0  0  0
  144.7158  133.0397  150.7655 N   0  0  0  0  0  0  0  0  0  0  0  0
  143.5521  133.6702  150.9479 C   0  0  0  0  0  0  0  0  0  0  0  0
  143.6591  135.3305  151.5058 S   0  0  0  0  0  0  0  0  0  0  0  0
  148.4541  141.0429  154.5848 C   0  0  0  0  0  0  0  0  0  0  0  0
  149.3463  141.4800  155.7618 C   0  0  0  0  0  0  0  0  0  0  0  0
  150.8013  141.0010  155.6889 C   0  0  0  0  0  0  0  0  0  0  0  0
  150.9391  139.5145  156.0321 C   0  0  0  0  0  0  0  0  0  0  0  0
  150.7029  138.5513  154.8596 C   0  0  0  0  0  0  0  0  0  0  0  0
  149.6002  138.9099  153.8361 C   0  0  0  0  0  0  0  0  0  0  0  0
  146.8716  136.9848  154.8897 H   0  0  0  0  0  0  0  0  0  0  0  0
  147.5961  136.8878  156.4855 H   0  0  0  0  0  0  0  0  0  0  0  0
  148.6201  136.8767  155.0691 H   0  0  0  0  0  0  0  0  0  0  0  0
  145.6570  139.1304  155.5337 H   0  0  0  0  0  0  0  0  0  0  0  0
  146.5478  140.3730  156.4147 H   0  0  0  0  0  0  0  0  0  0  0  0
  146.3172  138.7998  157.1265 H   0  0  0  0  0  0  0  0  0  0  0  0
  146.1873  139.6363  153.5619 H   0  0  0  0  0  0  0  0  0  0  0  0
  147.3967  140.0396  152.3861 H   0  0  0  0  0  0  0  0  0  0  0  0
  148.0077  137.6014  152.3637 H   0  0  0  0  0  0  0  0  0  0  0  0
  147.2716  135.9235  151.6680 H   0  0  0  0  0  0  0  0  0  0  0  0
  142.6240  133.1542  150.7521 H   0  0  0  0  0  0  0  0  0  0  0  0
  148.8696  141.5009  153.6866 H   0  0  0  0  0  0  0  0  0  0  0  0
  147.4839  141.5265  154.7031 H   0  0  0  0  0  0  0  0  0  0  0  0
  149.3530  142.5704  155.7814 H   0  0  0  0  0  0  0  0  0  0  0  0
  148.9088  141.1821  156.7140 H   0  0  0  0  0  0  0  0  0  0  0  0
  151.2470  141.2274  154.7194 H   0  0  0  0  0  0  0  0  0  0  0  0
  151.3745  141.5698  156.4223 H   0  0  0  0  0  0  0  0  0  0  0  0
  151.9437  139.3335  156.4161 H   0  0  0  0  0  0  0  0  0  0  0  0
  150.2722  139.2653  156.8579 H   0  0  0  0  0  0  0  0  0  0  0  0
  151.6370  138.4495  154.3059 H   0  0  0  0  0  0  0  0  0  0  0  0
  150.5174  137.5599  155.2720 H   0  0  0  0  0  0  0  0  0  0  0  0
  149.4022  138.0047  153.2610 H   0  0  0  0  0  0  0  0  0  0  0  0
  150.0380  139.5934  153.1076 H   0  0  0  0  0  0  0  0  0  0  0  0
  148.4903  138.9939  156.2700 H   0  0  0  0  0  0  0  0  0  0  0  0
  1  2  1  0  0  0  0
  1 21  1  0  0  0  0
  1 22  1  0  0  0  0
  1 23  1  0  0  0  0
  2  3  1  0  0  0  0
  2  4  1  0  0  0  0
  2 44  1  0  0  0  0
  3 24  1  0  0  0  0
  3 25  1  0  0  0  0
  3 26  1  0  0  0  0
  4 20  1  0  0  0  0
  4  5  1  0  0  0  0
  4 15  1  0  0  0  0
  5  6  1  0  0  0  0
  5 27  1  0  0  0  0
  5 28  1  0  0  0  0
  6  7  1  0  0  0  0
  6 29  1  0  0  0  0
  7  8  2  0  0  0  0
  7  9  1  0  0  0  0
  9 10  1  0  0  0  0
  9 30  1  0  0  0  0
 10 14  1  0  0  0  0
 10 11  2  0  0  0  0
 11 12  1  0  0  0  0
 12 13  2  0  0  0  0
 13 14  1  0  0  0  0
 13 31  1  0  0  0  0
 15 16  1  0  0  0  0
 15 32  1  0  0  0  0
 15 33  1  0  0  0  0
 16 17  1  0  0  0  0
 16 34  1  0  0  0  0
 16 35  1  0  0  0  0
 17 18  1  0  0  0  0
 17 36  1  0  0  0  0
 17 37  1  0  0  0  0
 18 19  1  0  0  0  0
 18 38  1  0  0  0  0
 18 39  1  0  0  0  0
 19 20  1  0  0  0  0
 19 40  1  0  0  0  0
 19 41  1  0  0  0  0
 20 42  1  0  0  0  0
 20 43  1  0  0  0  0
M  CHG  1   2   1
M  END
> <s_m_source_file>
AV-unprocessed.smi

> <i_m_source_file_index>
1804

> <i_lp_mmshare_version>
43012

> <i_f3d_flags>
0

> <s_epik_input>
W0NIMl0xW0NIMl1bQ0gyXVtDSDJdW0NIMl1bQ0gyXUMxKE4oW0NIM10pW0NIM10pW0NIMl1bTkhdQyg9TylbTkhdYzJubltjSF1zMg==

> <s_epik_cmdline>
J2VwaWtfcHl0aG9uJywgJy1waCcsICc3LjAnLCAnLXRuJywgJzgnLCAnLW1hJywgJzIwMCcsICctbWV0YWxfYmluZGluZycsICctaW1hZScsICc8aW5maWxlLm1hZT4nLCAnLW9tYWUnLCAnPG91dGZpbGUubWFlPic=

> <r_lp_tautomer_probability>
1

> <r_epik_Ionization_Penalty>
0.00320238

> <r_epik_Ionization_Penalty_Charging>
0.00244219

> <r_epik_Ionization_Penalty_Neutral>
0.000760187

> <r_epik_State_Penalty>
-0

> <r_epik_Charging_Adjusted_Penalty>
0.00244219

> <i_epik_Tot_Q>
1

> <i_epik_Tot_abs_Q>
1

> <r_epik_Metal_State_Penalty>
0.262153

> <b_epik_Metal_Only>
0

> <s_lp_Force_Field>
OPLS_2005

> <r_lp_Energy>
34.4391

> <b_lp_Chiralities_Consistent>
1

> <s_lp_Variant>
AV-unprocessed.smi:1804-1

> <Gold.Version>
5.8.1

> <Gold.Id.Protein>
6NUR|6NUR_protein|mol2

> <Gold.PLP.Fitness>
32.7915

> <Gold.PLP.PLP>
-25.3762

> <Gold.PLP.part.hbond>
-1.9183

> <Gold.PLP.part.metal>
0.0000

> <Gold.PLP.part.buried>
-0.1572

> <Gold.PLP.part.nonpolar>
-25.1009

> <Gold.PLP.part.repulsive>
0.9511

> <Gold.PLP.ligand.clash>
0.0000

> <Gold.PLP.ligand.torsion>
0.2790

> <Gold.PLP.Chemscore.Hbond>
1.9280

> <Gold.PLP.Chemscore.CHOScore>
0.7016

> <Gold.PLP.Chemscore.Metal>
0.0000

> <Gold.Chemscore.Hbonds>
donor molecule, donor type, donor heavy atom, donor atom, acceptor molecule, acceptor atom, score
      L1  H     6    29       P1  7948  1.00
      L1  H     9    30       P1  7948  1.00
      L1  C    13    31       P1 10186  0.71

> <Gold.PLP.Chemscore.Internal.Correction>
0.0847

> <Gold.Rescore>
     Score         DG    S(hbond)    S(metal)    S(lipo)     H(rot)  DE(clash)    DE(int)     intcor
     12.09     -14.60       1.90        0.00      59.76       1.65       0.08       2.42       ----

> <Gold.Chemscore.Fitness>
12.0897

> <Gold.Chemscore.DG>
-14.5968

> <Gold.Chemscore.ZeroCoef>
-5.4800

> <Gold.Chemscore.Hbond>
1.9000

> <Gold.Chemscore.Metal>
0.0000

> <Gold.Chemscore.Lipo>
59.7577

> <Gold.Chemscore.Internal_Hbond>
0.0000

> <Gold.Chemscore.DEClash>
0.0836

> <Gold.Chemscore.DEInternal>
2.4235

> <Gold.Chemscore.Rot>
1.6487

> <Gold.Chemscore.Internal.Correction>
   9.000000E+99

> <Gold.Chemscore.Hbonds>
donor molecule, donor type, donor heavy atom, donor atom, acceptor molecule, acceptor atom, score
      L1  H     6    29       P1  7948  0.96
      L1  H     9    30       P1  7948  0.98

> <Gold.Chemscore.Hbond.Weighted>
-6.3459

> <Gold.Chemscore.Metal.Weighted>
-0.0000

> <Gold.Chemscore.Lipo.Weighted>
-6.9917

> <Gold.Chemscore.Internal_Hbond.Weighted>
0.0000

> <Gold.Chemscore.DEClash.Weighted>
0.0836

> <Gold.Chemscore.DEInternal.Weighted>
2.4235

> <Gold.Chemscore.Rot.Weighted>
4.2207

> <Gold.Chemscore.Internal.Correction.Weighted>
   9.000000E+99

> <Gold.Protein.RotatedTorsions>
[ 6907 6896 6895 6894 ] final  157.59 input  -60.11 | X-H torsion
[ 7974 7965 7964 7962 ] final  136.98 input  175.53 | X-H torsion
[ 8008 7997 7996 7995 ] final  -60.17 input   59.86 | X-H torsion
[ 10167 10162 10161 10158 ] final    6.51 input  -65.29 | X-H torsion
[ 10718 10713 10712 10709 ] final   96.38 input   66.30 | X-H torsion
[ 10763 10752 10751 10750 ] final -170.69 input  -60.55 | X-H torsion
[ 11005 11000 10999 10996 ] final  -25.63 input  -57.11 | X-H torsion

> <Gold.Protein.ActiveResidues>
 VAL166  LYS551  ARG553  GLY616  TRP617  ASP618  TYR619  PRO620  LYS621  CYS622 
 ASP623  PHE694  ASN695  SER759  ASP760  ASP761  ALA762  ILE779  LEU786  VAL792 
 PHE793  MET794  SER795  GLU796  ALA797  LYS798  CYS799  TRP800  GLU811  SER814 

> <Gold.Protein.RotatedAtoms>
  152.0128  133.3868  159.4226 H   0  0  0  0  0  0  0  0  0  0  0  0  # atno 6907 bound_to 6896
  150.6898  134.3712  159.5002 H   0  0  0  0  0  0  0  0  0  0  0  0  # atno 6908 bound_to 6896
  152.1475  134.9014  160.0601 H   0  0  0  0  0  0  0  0  0  0  0  0  # atno 6909 bound_to 6896
  144.9512  139.4816  143.5525 H   0  0  0  0  0  0  0  0  0  0  0  0  # atno 7974 bound_to 7965
  154.4386  140.1045  156.6232 H   0  0  0  0  0  0  0  0  0  0  0  0  # atno 8008 bound_to 7997
  155.5685  140.3489  155.4490 H   0  0  0  0  0  0  0  0  0  0  0  0  # atno 8009 bound_to 7997
  156.0407  140.1281  157.0148 H   0  0  0  0  0  0  0  0  0  0  0  0  # atno 8010 bound_to 7997
  140.6424  143.7743  150.7447 H   0  0  0  0  0  0  0  0  0  0  0  0  # atno 10167 bound_to 10162
  157.6927  131.0576  150.4482 H   0  0  0  0  0  0  0  0  0  0  0  0  # atno 10718 bound_to 10713
  154.6388  135.2896  155.0129 H   0  0  0  0  0  0  0  0  0  0  0  0  # atno 10763 bound_to 10752
  154.1263  135.6540  153.4917 H   0  0  0  0  0  0  0  0  0  0  0  0  # atno 10764 bound_to 10752
  153.0316  135.5299  154.7246 H   0  0  0  0  0  0  0  0  0  0  0  0  # atno 10765 bound_to 10752
  140.8955  133.7559  156.0476 H   0  0  0  0  0  0  0  0  0  0  0  0  # atno 11005 bound_to 11000
  146.3322  139.8599  142.8858 LP  0  0  0  0  0  0  0  0  0  0  0  0  # atno 17320 bound_to 7965
  145.2840  141.0147  143.3701 LP  0  0  0  0  0  0  0  0  0  0  0  0  # atno 17321 bound_to 7965
  140.1377  143.4469  152.2213 LP  0  0  0  0  0  0  0  0  0  0  0  0  # atno 17342 bound_to 10162
  139.5633  144.7419  151.4093 LP  0  0  0  0  0  0  0  0  0  0  0  0  # atno 17343 bound_to 10162
  156.4836  130.4079  149.6447 LP  0  0  0  0  0  0  0  0  0  0  0  0  # atno 17370 bound_to 10713
  156.3484  130.7419  151.2375 LP  0  0  0  0  0  0  0  0  0  0  0  0  # atno 17371 bound_to 10713
  140.8294  134.3196  157.5354 LP  0  0  0  0  0  0  0  0  0  0  0  0  # atno 17394 bound_to 11000
  139.8735  134.9355  156.3634 LP  0  0  0  0  0  0  0  0  0  0  0  0  # atno 17395 bound_to 11000

$$$$
