AV-unprocessed.smi:149|AV-procd|sdf|1240|dock7
  -GOLD-   2262018453D 1   1.00000     0.00000
 Structure written by MMmdl.
 59 63  0  0  0  0  0  0  0  0  1 V2000
  155.0923  134.0589  164.6184 C   0  0  0  0  0  0  0  0  0  0  0  0
  155.5082  135.0678  163.5338 C   0  0  2  0  0  0  0  0  0  0  0  0
  154.4003  135.9797  163.0161 C   0  0  0  0  0  0  0  0  0  0  0  0
  154.9413  136.5405  161.7864 N   0  0  0  0  0  0  0  0  0  0  0  0
  154.1711  137.3328  160.9943 C   0  0  0  0  0  0  0  0  0  0  0  0
  153.1648  136.7622  160.2792 N   0  0  0  0  0  0  0  0  0  0  0  0
  152.3829  137.5047  159.4915 C   0  0  0  0  0  0  0  0  0  0  0  0
  152.4277  138.8192  159.2738 N   0  0  0  0  0  0  0  0  0  0  0  0
  153.4284  139.4045  159.9910 C   0  0  0  0  0  0  0  0  0  0  0  0
  154.3334  138.7455  160.8729 C   0  0  0  0  0  0  0  0  0  0  0  0
  155.1901  139.6818  161.4430 N   0  0  0  0  0  0  0  0  0  0  0  0
  154.8169  140.8201  160.9270 C   0  0  0  0  0  0  0  0  0  0  0  0
  153.7846  140.7414  160.0211 N   0  0  0  0  0  0  0  0  0  0  0  0
  153.1547  141.8336  159.3395 C   0  0  0  0  0  0  0  0  0  0  0  0
  153.4976  143.2844  159.6857 C   0  0  0  0  0  0  0  0  0  0  0  0
  152.0489  143.6999  159.3487 C   0  0  0  0  0  0  0  0  0  0  0  0
  151.4212  144.7229  160.3102 C   0  0  0  0  0  0  0  0  0  0  0  0
  151.5704  144.3205  161.6565 O   0  0  0  0  0  0  0  0  0  0  0  0
  151.8223  144.1636  157.8956 C   0  0  0  0  0  0  0  0  0  0  0  0
  150.6431  143.6045  157.3531 O   0  0  0  0  0  0  0  0  0  0  0  0
  151.7025  142.2200  159.6298 C   0  0  0  0  0  0  0  0  0  0  0  0
  155.8681  135.5909  161.1820 C   0  0  0  0  0  0  0  0  0  0  0  0
  156.1694  134.5176  162.2525 C   0  0  2  0  0  0  0  0  0  0  0  0
  155.8532  133.1304  161.8721 N   0  0  0  0  0  0  0  0  0  0  0  0
  154.4242  132.8226  161.7737 C   0  0  0  0  0  0  0  0  0  0  0  0
  154.1904  131.3356  161.4608 C   0  0  0  0  0  0  0  0  0  0  0  0
  154.8671  130.9920  160.2555 O   0  0  0  0  0  0  0  0  0  0  0  0
  156.2682  131.2394  160.3198 C   0  0  0  0  0  0  0  0  0  0  0  0
  156.5204  132.7234  160.6393 C   0  0  0  0  0  0  0  0  0  0  0  0
  154.2858  133.4028  164.2964 H   0  0  0  0  0  0  0  0  0  0  0  0
  154.7470  134.5779  165.5127 H   0  0  0  0  0  0  0  0  0  0  0  0
  155.9360  133.4323  164.9084 H   0  0  0  0  0  0  0  0  0  0  0  0
  156.2479  135.7245  163.9954 H   0  0  0  0  0  0  0  0  0  0  0  0
  153.4929  135.4149  162.7999 H   0  0  0  0  0  0  0  0  0  0  0  0
  154.1568  136.7594  163.7390 H   0  0  0  0  0  0  0  0  0  0  0  0
  151.6116  136.9686  158.9587 H   0  0  0  0  0  0  0  0  0  0  0  0
  155.2923  141.7532  161.1924 H   0  0  0  0  0  0  0  0  0  0  0  0
  153.2987  141.6459  158.2742 H   0  0  0  0  0  0  0  0  0  0  0  0
  153.7435  143.4132  160.7417 H   0  0  0  0  0  0  0  0  0  0  0  0
  154.2626  143.7321  159.0506 H   0  0  0  0  0  0  0  0  0  0  0  0
  151.8583  145.7138  160.1852 H   0  0  0  0  0  0  0  0  0  0  0  0
  150.3542  144.8336  160.1140 H   0  0  0  0  0  0  0  0  0  0  0  0
  150.7887  144.5611  162.1300 H   0  0  0  0  0  0  0  0  0  0  0  0
  151.7596  145.2499  157.8276 H   0  0  0  0  0  0  0  0  0  0  0  0
  152.6533  143.8700  157.2543 H   0  0  0  0  0  0  0  0  0  0  0  0
  150.1651  144.2873  156.9077 H   0  0  0  0  0  0  0  0  0  0  0  0
  150.9757  141.7760  158.9489 H   0  0  0  0  0  0  0  0  0  0  0  0
  151.4223  142.0391  160.6693 H   0  0  0  0  0  0  0  0  0  0  0  0
  155.4594  135.1731  160.2626 H   0  0  0  0  0  0  0  0  0  0  0  0
  156.7870  136.1152  160.9185 H   0  0  0  0  0  0  0  0  0  0  0  0
  157.2431  134.5455  162.4458 H   0  0  0  0  0  0  0  0  0  0  0  0
  153.9056  133.0774  162.6951 H   0  0  0  0  0  0  0  0  0  0  0  0
  153.9586  133.4163  160.9877 H   0  0  0  0  0  0  0  0  0  0  0  0
  154.5463  130.7080  162.2794 H   0  0  0  0  0  0  0  0  0  0  0  0
  153.1255  131.1361  161.3416 H   0  0  0  0  0  0  0  0  0  0  0  0
  156.7212  130.5993  161.0786 H   0  0  0  0  0  0  0  0  0  0  0  0
  156.7221  130.9739  159.3650 H   0  0  0  0  0  0  0  0  0  0  0  0
  156.1715  133.3343  159.8058 H   0  0  0  0  0  0  0  0  0  0  0  0
  157.5941  132.8935  160.7236 H   0  0  0  0  0  0  0  0  0  0  0  0
  1  2  1  0  0  0  0
  1 30  1  0  0  0  0
  1 31  1  0  0  0  0
  1 32  1  0  0  0  0
  2 23  1  0  0  0  0
  2  3  1  0  0  0  0
  2 33  1  0  0  0  0
  3  4  1  0  0  0  0
  3 34  1  0  0  0  0
  3 35  1  0  0  0  0
  4  5  1  0  0  0  0
  4 22  1  0  0  0  0
  5 10  1  0  0  0  0
  5  6  2  0  0  0  0
  6  7  1  0  0  0  0
  7  8  2  0  0  0  0
  7 36  1  0  0  0  0
  8  9  1  0  0  0  0
  9 13  1  0  0  0  0
  9 10  2  0  0  0  0
 10 11  1  0  0  0  0
 11 12  2  0  0  0  0
 12 13  1  0  0  0  0
 12 37  1  0  0  0  0
 13 14  1  0  0  0  0
 14 21  1  0  0  0  0
 14 15  1  0  0  0  0
 14 38  1  0  0  0  0
 15 16  1  0  0  0  0
 15 39  1  0  0  0  0
 15 40  1  0  0  0  0
 16 17  1  0  0  0  0
 16 19  1  0  0  0  0
 16 21  1  0  0  0  0
 17 18  1  0  0  0  0
 17 41  1  0  0  0  0
 17 42  1  0  0  0  0
 18 43  1  0  0  0  0
 19 20  1  0  0  0  0
 19 44  1  0  0  0  0
 19 45  1  0  0  0  0
 20 46  1  0  0  0  0
 21 47  1  0  0  0  0
 21 48  1  0  0  0  0
 22 23  1  0  0  0  0
 22 49  1  0  0  0  0
 22 50  1  0  0  0  0
 23 24  1  0  0  0  0
 23 51  1  0  0  0  0
 24 29  1  0  0  0  0
 24 25  1  0  0  0  0
 25 26  1  0  0  0  0
 25 52  1  0  0  0  0
 25 53  1  0  0  0  0
 26 27  1  0  0  0  0
 26 54  1  0  0  0  0
 26 55  1  0  0  0  0
 27 28  1  0  0  0  0
 28 29  1  0  0  0  0
 28 56  1  0  0  0  0
 28 57  1  0  0  0  0
 29 58  1  0  0  0  0
 29 59  1  0  0  0  0
M  END
> <s_m_source_file>
AV-unprocessed.smi

> <i_m_source_file_index>
149

> <i_lp_mmshare_version>
43012

> <i_f3d_flags>
0

> <s_epik_input>
W0NIMl0xW0NIMl1PW0NIMl1bQ0gyXU4xW0NAQEhdMltDSDJdTihbQ0gyXVtDQEhdMltDSDNdKWMobltjSF1uMyljKGMzNCluW2NIXW40W0NIXShbQ0gyXTUpW0NIMl1DNShbQ0gyXVtPSF0pW0NIMl1bT0hd

> <s_epik_cmdline>
J2VwaWtfcHl0aG9uJywgJy1waCcsICc3LjAnLCAnLXRuJywgJzgnLCAnLW1hJywgJzIwMCcsICctbWV0YWxfYmluZGluZycsICctaW1hZScsICc8aW5maWxlLm1hZT4nLCAnLW9tYWUnLCAnPG91dGZpbGUubWFlPic=

> <r_lp_tautomer_probability>
1

> <r_epik_Ionization_Penalty>
0.41918

> <r_epik_Ionization_Penalty_Charging>
0

> <r_epik_Ionization_Penalty_Neutral>
0.41918

> <r_epik_State_Penalty>
0.654916

> <r_epik_Charging_Adjusted_Penalty>
0.654916

> <i_epik_Tot_Q>
0

> <i_epik_Tot_abs_Q>
0

> <r_epik_Metal_State_Penalty>
0.653217

> <b_epik_Metal_Only>
0

> <s_lp_Force_Field>
OPLS_2005

> <r_lp_Energy>
80.6686

> <b_lp_Chiralities_Consistent>
1

> <s_lp_Variant>
AV-unprocessed.smi:149-7

> <Gold.Version>
5.8.1

> <Gold.Id.Protein>
6NUR|6NUR_protein|mol2

> <Gold.PLP.Fitness>
51.5778

> <Gold.PLP.PLP>
-46.8876

> <Gold.PLP.part.hbond>
-4.3679

> <Gold.PLP.part.metal>
0.0000

> <Gold.PLP.part.buried>
-7.1941

> <Gold.PLP.part.nonpolar>
-37.1359

> <Gold.PLP.part.repulsive>
0.0000

> <Gold.PLP.ligand.clash>
0.0000

> <Gold.PLP.ligand.torsion>
1.0800

> <Gold.PLP.Chemscore.Hbond>
1.9513

> <Gold.PLP.Chemscore.CHOScore>
0.0000

> <Gold.PLP.Chemscore.Metal>
0.0000

> <Gold.Chemscore.Hbonds>
donor molecule, donor type, donor heavy atom, donor atom, acceptor molecule, acceptor atom, score
      L1  H    20    46       P1  8028  0.98
      P1  H  6896  6907       L1     6  0.86

> <Gold.PLP.Chemscore.Internal.Correction>
0.9965

> <Gold.Rescore>
     Score         DG    S(hbond)    S(metal)    S(lipo)     H(rot)  DE(clash)    DE(int)     intcor
     12.84     -14.18       1.26        0.00     111.41       3.34       0.28       1.06       ----

> <Gold.Chemscore.Fitness>
12.8351

> <Gold.Chemscore.DG>
-14.1776

> <Gold.Chemscore.ZeroCoef>
-5.4800

> <Gold.Chemscore.Hbond>
1.2625

> <Gold.Chemscore.Metal>
0.0000

> <Gold.Chemscore.Lipo>
111.4119

> <Gold.Chemscore.Internal_Hbond>
0.0000

> <Gold.Chemscore.DEClash>
0.2793

> <Gold.Chemscore.DEInternal>
1.0632

> <Gold.Chemscore.Rot>
3.3416

> <Gold.Chemscore.Internal.Correction>
   9.000000E+99

> <Gold.Chemscore.Hbonds>
donor molecule, donor type, donor heavy atom, donor atom, acceptor molecule, acceptor atom, score
      L1  H    20    46       P1  8028  0.85
      P1  H  6896  6907       L1     6  0.19

> <Gold.Chemscore.Hbond.Weighted>
-4.2169

> <Gold.Chemscore.Metal.Weighted>
-0.0000

> <Gold.Chemscore.Lipo.Weighted>
-13.0352

> <Gold.Chemscore.Internal_Hbond.Weighted>
0.0000

> <Gold.Chemscore.DEClash.Weighted>
0.2793

> <Gold.Chemscore.DEInternal.Weighted>
1.0632

> <Gold.Chemscore.Rot.Weighted>
8.5545

> <Gold.Chemscore.Internal.Correction.Weighted>
   9.000000E+99

> <Gold.Protein.RotatedTorsions>
[ 6907 6896 6895 6894 ] final   39.70 input  -60.11 | X-H torsion
[ 7974 7965 7964 7962 ] final  -35.63 input  175.53 | X-H torsion
[ 8008 7997 7996 7995 ] final  -14.91 input   59.86 | X-H torsion
[ 10167 10162 10161 10158 ] final -130.84 input  -65.29 | X-H torsion
[ 10718 10713 10712 10709 ] final   -8.94 input   66.30 | X-H torsion
[ 10763 10752 10751 10750 ] final  107.03 input  -60.55 | X-H torsion
[ 11005 11000 10999 10996 ] final -160.63 input  -57.11 | X-H torsion

> <Gold.Protein.ActiveResidues>
 VAL166  LYS551  ARG553  GLY616  TRP617  ASP618  TYR619  PRO620  LYS621  CYS622 
 ASP623  PHE694  ASN695  SER759  ASP760  ASP761  ALA762  ILE779  LEU786  VAL792 
 PHE793  MET794  SER795  GLU796  ALA797  LYS798  CYS799  TRP800  GLU811  SER814 

> <Gold.Protein.RotatedAtoms>
  152.1729  134.8819  160.0532 H   0  0  0  0  0  0  0  0  0  0  0  0  # atno 6907 bound_to 6896
  151.9772  133.3740  159.4102 H   0  0  0  0  0  0  0  0  0  0  0  0  # atno 6908 bound_to 6896
  150.6904  134.4000  159.5158 H   0  0  0  0  0  0  0  0  0  0  0  0  # atno 6909 bound_to 6896
  146.0730  140.6182  142.8943 H   0  0  0  0  0  0  0  0  0  0  0  0  # atno 7974 bound_to 7965
  154.5172  140.2210  155.9044 H   0  0  0  0  0  0  0  0  0  0  0  0  # atno 8008 bound_to 7997
  156.1621  140.3140  155.8790 H   0  0  0  0  0  0  0  0  0  0  0  0  # atno 8009 bound_to 7997
  155.3730  140.0468  157.3036 H   0  0  0  0  0  0  0  0  0  0  0  0  # atno 8010 bound_to 7997
  139.9251  143.6336  152.2544 H   0  0  0  0  0  0  0  0  0  0  0  0  # atno 10167 bound_to 10162
  156.6952  130.5077  149.5932 H   0  0  0  0  0  0  0  0  0  0  0  0  # atno 10718 bound_to 10713
  153.4011  135.3857  155.1988 H   0  0  0  0  0  0  0  0  0  0  0  0  # atno 10763 bound_to 10752
  154.8729  135.3771  154.4617 H   0  0  0  0  0  0  0  0  0  0  0  0  # atno 10764 bound_to 10752
  153.5115  135.7087  153.5840 H   0  0  0  0  0  0  0  0  0  0  0  0  # atno 10765 bound_to 10752
  140.6293  134.4668  157.5228 H   0  0  0  0  0  0  0  0  0  0  0  0  # atno 11005 bound_to 11000
  144.7244  140.4477  143.6984 LP  0  0  0  0  0  0  0  0  0  0  0  0  # atno 17320 bound_to 7965
  145.6356  139.1542  143.2944 LP  0  0  0  0  0  0  0  0  0  0  0  0  # atno 17321 bound_to 7965
  139.6829  144.7654  151.1577 LP  0  0  0  0  0  0  0  0  0  0  0  0  # atno 17342 bound_to 10162
  140.7652  143.5699  150.9007 LP  0  0  0  0  0  0  0  0  0  0  0  0  # atno 17343 bound_to 10162
  156.1768  130.6473  151.0904 LP  0  0  0  0  0  0  0  0  0  0  0  0  # atno 17370 bound_to 10713
  157.6994  131.0782  150.6869 LP  0  0  0  0  0  0  0  0  0  0  0  0  # atno 17371 bound_to 10713
  139.9122  134.8320  156.1488 LP  0  0  0  0  0  0  0  0  0  0  0  0  # atno 17394 bound_to 11000
  141.0687  133.6807  156.2096 LP  0  0  0  0  0  0  0  0  0  0  0  0  # atno 17395 bound_to 11000

$$$$
