AV-unprocessed.smi:3038|AV-procd|sdf|11588|dock8
  -GOLD-   2272016563D 1   1.00000     0.00000
 Structure written by MMmdl.
 37 39  0  0  0  0  0  0  0  0  2 V2000
  153.1431  139.4086  154.6955 O   0  0  0  0  0  0  0  0  0  0  0  0
  151.9729  139.1119  154.9339 C   0  0  0  0  0  0  0  0  0  0  0  0
  151.2878  138.0011  154.1355 C   0  0  0  0  0  0  0  0  0  0  0  0
  150.9588  136.8704  154.9837 N   0  0  0  0  0  0  0  0  0  0  0  0
  149.8800  136.0855  155.0203 C   0  0  0  0  0  0  0  0  0  0  0  0
  149.9755  135.1687  155.9710 N   0  0  0  0  0  0  0  0  0  0  0  0
  151.2103  135.4319  156.5402 N   0  0  0  0  0  0  0  0  0  0  0  0
  151.7984  136.4409  155.9590 N   0  0  0  0  0  0  0  0  0  0  0  0
  151.2362  139.7134  155.8817 N   0  0  0  0  0  0  0  0  0  0  0  0
  151.6899  140.8054  156.7365 C   0  0  2  0  0  0  0  0  0  0  0  0
  151.5701  140.4231  158.2234 C   0  0  0  0  0  0  0  0  0  0  0  0
  151.9430  141.6062  159.1327 C   0  0  0  0  0  0  0  0  0  0  0  0
  151.1147  142.7987  158.8255 N   0  3  1  0  0  0  0  0  0  0  0  0
  151.3794  143.9159  159.7582 C   0  0  0  0  0  0  0  0  0  0  0  0
  150.9183  145.2596  159.2437 C   0  0  0  0  0  0  0  0  0  0  0  0
  152.3905  144.9132  159.2423 C   0  0  0  0  0  0  0  0  0  0  0  0
  151.2497  143.2110  157.4062 C   0  0  0  0  0  0  0  0  0  0  0  0
  150.8546  142.0659  156.4589 C   0  0  0  0  0  0  0  0  0  0  0  0
  150.3693  138.3763  153.6817 H   0  0  0  0  0  0  0  0  0  0  0  0
  151.9371  137.6703  153.3235 H   0  0  0  0  0  0  0  0  0  0  0  0
  149.0311  136.1889  154.3606 H   0  0  0  0  0  0  0  0  0  0  0  0
  150.2835  139.4006  156.0058 H   0  0  0  0  0  0  0  0  0  0  0  0
  152.7338  141.0310  156.5093 H   0  0  0  0  0  0  0  0  0  0  0  0
  150.5498  140.1051  158.4436 H   0  0  0  0  0  0  0  0  0  0  0  0
  152.2147  139.5721  158.4470 H   0  0  0  0  0  0  0  0  0  0  0  0
  151.8020  141.3216  160.1761 H   0  0  0  0  0  0  0  0  0  0  0  0
  152.9989  141.8543  159.0126 H   0  0  0  0  0  0  0  0  0  0  0  0
  151.3274  143.6829  160.8206 H   0  0  0  0  0  0  0  0  0  0  0  0
  150.4116  145.2986  158.2809 H   0  0  0  0  0  0  0  0  0  0  0  0
  150.5789  145.9881  159.9772 H   0  0  0  0  0  0  0  0  0  0  0  0
  153.0205  145.4131  159.9753 H   0  0  0  0  0  0  0  0  0  0  0  0
  152.8605  144.7210  158.2792 H   0  0  0  0  0  0  0  0  0  0  0  0
  150.6151  144.0769  157.2143 H   0  0  0  0  0  0  0  0  0  0  0  0
  152.2772  143.5226  157.2118 H   0  0  0  0  0  0  0  0  0  0  0  0
  150.9855  142.3819  155.4232 H   0  0  0  0  0  0  0  0  0  0  0  0
  149.7933  141.8443  156.5827 H   0  0  0  0  0  0  0  0  0  0  0  0
  150.1509  142.5292  158.9623 H   0  0  0  0  0  0  0  0  0  0  0  0
  1  2  2  0  0  0  0
  2  3  1  0  0  0  0
  2  9  1  0  0  0  0
  3  4  1  0  0  0  0
  3 19  1  0  0  0  0
  3 20  1  0  0  0  0
  4  8  1  0  0  0  0
  4  5  1  0  0  0  0
  5  6  2  0  0  0  0
  5 21  1  0  0  0  0
  6  7  1  0  0  0  0
  7  8  2  0  0  0  0
  9 10  1  0  0  0  0
  9 22  1  0  0  0  0
 10 18  1  0  0  0  0
 10 11  1  0  0  0  0
 10 23  1  0  0  0  0
 11 12  1  0  0  0  0
 11 24  1  0  0  0  0
 11 25  1  0  0  0  0
 12 13  1  0  0  0  0
 12 26  1  0  0  0  0
 12 27  1  0  0  0  0
 13 14  1  0  0  0  0
 13 17  1  0  0  0  0
 13 37  1  0  0  0  0
 14 16  1  0  0  0  0
 14 15  1  0  0  0  0
 14 28  1  0  0  0  0
 15 16  1  0  0  0  0
 15 29  1  0  0  0  0
 15 30  1  0  0  0  0
 16 31  1  0  0  0  0
 16 32  1  0  0  0  0
 17 18  1  0  0  0  0
 17 33  1  0  0  0  0
 17 34  1  0  0  0  0
 18 35  1  0  0  0  0
 18 36  1  0  0  0  0
M  CHG  1  13   1
M  END
> <s_m_source_file>
AV-unprocessed.smi

> <i_m_source_file_index>
3038

> <i_lp_mmshare_version>
43012

> <i_f3d_flags>
0

> <s_epik_input>
bjFubltjSF1uMVtDSDJdQyg9TylbTkhdW0NIXTJbQ0gyXVtDSDJdTihbQ0gyXVtDSDJdMilbQ0hdM1tDSDJdW0NIMl0z

> <s_epik_cmdline>
J2VwaWtfcHl0aG9uJywgJy1waCcsICc3LjAnLCAnLXRuJywgJzgnLCAnLW1hJywgJzIwMCcsICctbWV0YWxfYmluZGluZycsICctaW1hZScsICc8aW5maWxlLm1hZT4nLCAnLW9tYWUnLCAnPG91dGZpbGUubWFlPic=

> <r_lp_tautomer_probability>
1

> <r_epik_Ionization_Penalty>
0.284275

> <r_epik_Ionization_Penalty_Charging>
0.284273

> <r_epik_Ionization_Penalty_Neutral>
2.31262e-06

> <r_epik_State_Penalty>
0.277002

> <r_epik_Charging_Adjusted_Penalty>
0.561274

> <i_epik_Tot_Q>
1

> <i_epik_Tot_abs_Q>
1

> <r_epik_Metal_State_Penalty>
0.277002

> <b_epik_Metal_Only>
0

> <s_lp_Force_Field>
OPLS_2005

> <r_lp_Energy>
27.0237

> <b_lp_Chiralities_Consistent>
1

> <s_lp_Variant>
AV-unprocessed.smi:3038-1

> <Gold.Version>
5.8.1

> <Gold.Id.Protein>
6NUR|6NUR_protein|mol2

> <Gold.PLP.Fitness>
44.2998

> <Gold.PLP.PLP>
-36.0255

> <Gold.PLP.part.hbond>
-3.0000

> <Gold.PLP.part.metal>
0.0000

> <Gold.PLP.part.buried>
-5.5231

> <Gold.PLP.part.nonpolar>
-27.4957

> <Gold.PLP.part.repulsive>
0.2711

> <Gold.PLP.ligand.clash>
0.0000

> <Gold.PLP.ligand.torsion>
0.9554

> <Gold.PLP.Chemscore.Hbond>
2.0000

> <Gold.PLP.Chemscore.CHOScore>
0.9745

> <Gold.PLP.Chemscore.Metal>
0.0000

> <Gold.Chemscore.Hbonds>
donor molecule, donor type, donor heavy atom, donor atom, acceptor molecule, acceptor atom, score
      P1  H  7997  8009       L1     1  1.00
      P1  H 10752 10764       L1     8  1.00
      L1  C     5    21       P1  7948  0.97

> <Gold.PLP.Chemscore.Internal.Correction>
1.2615

> <Gold.Rescore>
     Score         DG    S(hbond)    S(metal)    S(lipo)     H(rot)  DE(clash)    DE(int)     intcor
     15.27     -16.01       1.97        0.00      82.99       2.25       0.00       0.74       ----

> <Gold.Chemscore.Fitness>
15.2671

> <Gold.Chemscore.DG>
-16.0127

> <Gold.Chemscore.ZeroCoef>
-5.4800

> <Gold.Chemscore.Hbond>
1.9730

> <Gold.Chemscore.Metal>
0.0000

> <Gold.Chemscore.Lipo>
82.9918

> <Gold.Chemscore.Internal_Hbond>
0.0000

> <Gold.Chemscore.DEClash>
0.0033

> <Gold.Chemscore.DEInternal>
0.7423

> <Gold.Chemscore.Rot>
2.2528

> <Gold.Chemscore.Internal.Correction>
   9.000000E+99

> <Gold.Chemscore.Hbonds>
donor molecule, donor type, donor heavy atom, donor atom, acceptor molecule, acceptor atom, score
      P1  H  7997  8009       L1     1  1.00
      P1  H 10752 10764       L1     8  0.07

> <Gold.Chemscore.Hbond.Weighted>
-6.5898

> <Gold.Chemscore.Metal.Weighted>
-0.0000

> <Gold.Chemscore.Lipo.Weighted>
-9.7100

> <Gold.Chemscore.Internal_Hbond.Weighted>
0.0000

> <Gold.Chemscore.DEClash.Weighted>
0.0033

> <Gold.Chemscore.DEInternal.Weighted>
0.7423

> <Gold.Chemscore.Rot.Weighted>
5.7672

> <Gold.Chemscore.Internal.Correction.Weighted>
   9.000000E+99

> <Gold.Protein.RotatedTorsions>
[ 6907 6896 6895 6894 ] final  -15.87 input  -60.11 | X-H torsion
[ 7974 7965 7964 7962 ] final   87.32 input  175.53 | X-H torsion
[ 8008 7997 7996 7995 ] final -129.08 input   59.86 | X-H torsion
[ 10167 10162 10161 10158 ] final  -94.86 input  -65.29 | X-H torsion
[ 10718 10713 10712 10709 ] final   45.17 input   66.30 | X-H torsion
[ 10763 10752 10751 10750 ] final  -38.56 input  -60.55 | X-H torsion
[ 11005 11000 10999 10996 ] final   46.69 input  -57.11 | X-H torsion

> <Gold.Protein.ActiveResidues>
 VAL166  LYS551  ARG553  GLY616  TRP617  ASP618  TYR619  PRO620  LYS621  CYS622 
 ASP623  PHE694  ASN695  SER759  ASP760  ASP761  ALA762  ILE779  LEU786  VAL792 
 PHE793  MET794  SER795  GLU796  ALA797  LYS798  CYS799  TRP800  GLU811  SER814 

> <Gold.Protein.RotatedAtoms>
  151.3173  135.0809  159.9293 H   0  0  0  0  0  0  0  0  0  0  0  0  # atno 6907 bound_to 6896
  152.5264  133.9674  159.7756 H   0  0  0  0  0  0  0  0  0  0  0  0  # atno 6908 bound_to 6896
  150.9989  133.6024  159.2728 H   0  0  0  0  0  0  0  0  0  0  0  0  # atno 6909 bound_to 6896
  145.5605  139.2303  143.2462 H   0  0  0  0  0  0  0  0  0  0  0  0  # atno 7974 bound_to 7965
  155.2733  140.0441  157.3009 H   0  0  0  0  0  0  0  0  0  0  0  0  # atno 8008 bound_to 7997
  154.5640  140.2354  155.8260 H   0  0  0  0  0  0  0  0  0  0  0  0  # atno 8009 bound_to 7997
  156.2070  140.3009  155.9657 H   0  0  0  0  0  0  0  0  0  0  0  0  # atno 8010 bound_to 7997
  140.3101  143.3110  152.0157 H   0  0  0  0  0  0  0  0  0  0  0  0  # atno 10167 bound_to 10162
  157.4346  130.8045  149.7636 H   0  0  0  0  0  0  0  0  0  0  0  0  # atno 10718 bound_to 10713
  153.9148  135.6788  153.4749 H   0  0  0  0  0  0  0  0  0  0  0  0  # atno 10763 bound_to 10752
  153.1059  135.4806  154.8948 H   0  0  0  0  0  0  0  0  0  0  0  0  # atno 10764 bound_to 10752
  154.7508  135.3184  154.8516 H   0  0  0  0  0  0  0  0  0  0  0  0  # atno 10765 bound_to 10752
  140.1346  134.4661  155.8495 H   0  0  0  0  0  0  0  0  0  0  0  0  # atno 11005 bound_to 11000
  146.1854  140.6429  142.9170 LP  0  0  0  0  0  0  0  0  0  0  0  0  # atno 17320 bound_to 7965
  144.7485  140.5131  143.6818 LP  0  0  0  0  0  0  0  0  0  0  0  0  # atno 17321 bound_to 7965
  139.4895  144.6391  151.6915 LP  0  0  0  0  0  0  0  0  0  0  0  0  # atno 17342 bound_to 10162
  140.5575  144.0323  150.6154 LP  0  0  0  0  0  0  0  0  0  0  0  0  # atno 17343 bound_to 10162
  155.9926  130.3930  150.2936 LP  0  0  0  0  0  0  0  0  0  0  0  0  # atno 17370 bound_to 10713
  157.1096  131.0217  151.3053 LP  0  0  0  0  0  0  0  0  0  0  0  0  # atno 17371 bound_to 10713
  141.2176  133.6809  156.7134 LP  0  0  0  0  0  0  0  0  0  0  0  0  # atno 17394 bound_to 11000
  140.2798  134.8326  157.3923 LP  0  0  0  0  0  0  0  0  0  0  0  0  # atno 17395 bound_to 11000

$$$$
