AV-unprocessed.smi:562|AV-procd|sdf|2945|dock10
  -GOLD-   2262023443D 1   1.00000     0.00000
 Structure written by MMmdl.
 40 42  0  0  0  0  0  0  0  0  2 V2000
  150.5608  141.6776  155.9588 C   0  0  0  0  0  0  0  0  0  0  0  0
  151.2084  140.4643  155.6225 O   0  0  0  0  0  0  0  0  0  0  0  0
  152.2004  140.0949  156.5661 C   0  0  0  0  0  0  0  0  0  0  0  0
  151.6023  140.1296  157.9792 C   0  0  0  0  0  0  0  0  0  0  0  0
  152.6161  139.9162  159.0092 N   0  0  0  0  0  0  0  0  0  0  0  0
  153.1319  140.8245  159.8778 C   0  0  0  0  0  0  0  0  0  0  0  0
  152.7057  142.1698  159.8856 N   0  0  0  0  0  0  0  0  0  0  0  0
  152.2145  142.7361  158.7615 N   0  0  0  0  0  0  0  0  0  0  0  0
  151.9285  143.9808  159.1055 C   0  0  0  0  0  0  0  0  0  0  0  0
  151.3387  144.9108  158.0869 C   0  0  0  0  0  0  0  0  0  0  0  0
  152.2481  144.2510  160.4655 C   0  0  0  0  0  0  0  0  0  0  0  0
  152.7535  143.0710  160.9338 C   0  0  0  0  0  0  0  0  0  0  0  0
  153.2792  142.7163  162.2868 C   0  0  0  0  0  0  0  0  0  0  0  0
  154.0330  140.3383  160.7334 N   0  0  0  0  0  0  0  0  0  0  0  0
  154.0999  138.9995  160.3757 C   0  0  0  0  0  0  0  0  0  0  0  0
  153.2542  138.7196  159.3474 C   0  0  0  0  0  0  0  0  0  0  0  0
  153.0843  137.3716  158.7630 C   0  0  0  0  0  0  0  0  0  0  0  0
  152.2956  137.1745  157.8408 O   0  0  0  0  0  0  0  0  0  0  0  0
  153.8835  136.4401  159.3732 N   0  5  0  0  0  0  0  0  0  0  0  0
  154.7542  136.6776  160.4154 C   0  0  0  0  0  0  0  0  0  0  0  0
  155.4346  135.7784  160.9113 O   0  0  0  0  0  0  0  0  0  0  0  0
  154.8765  137.9434  160.9262 N   0  0  0  0  0  0  0  0  0  0  0  0
  155.7905  138.2236  162.0372 C   0  0  0  0  0  0  0  0  0  0  0  0
  149.8084  141.9107  155.2053 H   0  0  0  0  0  0  0  0  0  0  0  0
  151.2700  142.5055  155.9933 H   0  0  0  0  0  0  0  0  0  0  0  0
  150.0599  141.6027  156.9248 H   0  0  0  0  0  0  0  0  0  0  0  0
  152.5778  139.0963  156.3416 H   0  0  0  0  0  0  0  0  0  0  0  0
  153.0442  140.7837  156.5055 H   0  0  0  0  0  0  0  0  0  0  0  0
  151.1035  141.0804  158.1618 H   0  0  0  0  0  0  0  0  0  0  0  0
  150.8211  139.3766  158.0651 H   0  0  0  0  0  0  0  0  0  0  0  0
  151.2019  145.9107  158.4990 H   0  0  0  0  0  0  0  0  0  0  0  0
  150.3651  144.5554  157.7487 H   0  0  0  0  0  0  0  0  0  0  0  0
  151.9853  144.9984  157.2133 H   0  0  0  0  0  0  0  0  0  0  0  0
  152.1287  145.1737  161.0138 H   0  0  0  0  0  0  0  0  0  0  0  0
  152.9500  143.4387  163.0337 H   0  0  0  0  0  0  0  0  0  0  0  0
  154.3692  142.7046  162.2852 H   0  0  0  0  0  0  0  0  0  0  0  0
  152.9330  141.7314  162.6003 H   0  0  0  0  0  0  0  0  0  0  0  0
  156.8106  137.9386  161.7761 H   0  0  0  0  0  0  0  0  0  0  0  0
  155.4947  137.6612  162.9237 H   0  0  0  0  0  0  0  0  0  0  0  0
  155.8089  139.2779  162.3113 H   0  0  0  0  0  0  0  0  0  0  0  0
  1  2  1  0  0  0  0
  1 24  1  0  0  0  0
  1 25  1  0  0  0  0
  1 26  1  0  0  0  0
  2  3  1  0  0  0  0
  3  4  1  0  0  0  0
  3 27  1  0  0  0  0
  3 28  1  0  0  0  0
  4  5  1  0  0  0  0
  4 29  1  0  0  0  0
  4 30  1  0  0  0  0
  5 16  1  0  0  0  0
  5  6  1  0  0  0  0
  6  7  1  0  0  0  0
  6 14  2  0  0  0  0
  7 12  1  0  0  0  0
  7  8  1  0  0  0  0
  8  9  2  0  0  0  0
  9 10  1  0  0  0  0
  9 11  1  0  0  0  0
 10 31  1  0  0  0  0
 10 32  1  0  0  0  0
 10 33  1  0  0  0  0
 11 12  2  0  0  0  0
 11 34  1  0  0  0  0
 12 13  1  0  0  0  0
 13 35  1  0  0  0  0
 13 36  1  0  0  0  0
 13 37  1  0  0  0  0
 14 15  1  0  0  0  0
 15 22  1  0  0  0  0
 15 16  2  0  0  0  0
 16 17  1  0  0  0  0
 17 18  2  0  0  0  0
 17 19  1  0  0  0  0
 19 20  1  0  0  0  0
 20 21  2  0  0  0  0
 20 22  1  0  0  0  0
 22 23  1  0  0  0  0
 23 38  1  0  0  0  0
 23 39  1  0  0  0  0
 23 40  1  0  0  0  0
M  CHG  1  19  -1
M  END
> <s_m_source_file>
AV-unprocessed.smi

> <i_m_source_file_index>
562

> <i_lp_mmshare_version>
43012

> <i_f3d_flags>
0

> <s_epik_input>
W0NIM11uMWMoPU8pW25IXWMoPU8pYyhjMTIpbihbQ0gyXVtDSDJdT1tDSDNdKWMobjIpLW4zbmMoW0NIM10pW2NIXWMzW0NIM10=

> <s_epik_cmdline>
J2VwaWtfcHl0aG9uJywgJy1waCcsICc3LjAnLCAnLXRuJywgJzgnLCAnLW1hJywgJzIwMCcsICctbWV0YWxfYmluZGluZycsICctaW1hZScsICc8aW5maWxlLm1hZT4nLCAnLW9tYWUnLCAnPG91dGZpbGUubWFlPic=

> <r_lp_tautomer_probability>
1

> <r_epik_Ionization_Penalty>
3.9873

> <r_epik_Ionization_Penalty_Charging>
0.0180637

> <r_epik_Ionization_Penalty_Neutral>
3.96924

> <r_epik_State_Penalty>
3.96767

> <r_epik_Charging_Adjusted_Penalty>
3.98573

> <i_epik_Tot_Q>
-1

> <i_epik_Tot_abs_Q>
1

> <r_epik_Metal_State_Penalty>
0.612149

> <b_epik_Metal_Only>
1

> <s_lp_Force_Field>
OPLS_2005

> <r_lp_Energy>
28.5769

> <b_lp_Chiralities_Consistent>
1

> <s_lp_Variant>
AV-unprocessed.smi:562-2

> <Gold.Version>
5.8.1

> <Gold.Id.Protein>
6NUR|6NUR_protein|mol2

> <Gold.PLP.Fitness>
52.1520

> <Gold.PLP.PLP>
-44.7957

> <Gold.PLP.part.hbond>
-2.0000

> <Gold.PLP.part.metal>
0.0000

> <Gold.PLP.part.buried>
-6.4242

> <Gold.PLP.part.nonpolar>
-35.1767

> <Gold.PLP.part.repulsive>
0.0197

> <Gold.PLP.ligand.clash>
0.0000

> <Gold.PLP.ligand.torsion>
0.4412

> <Gold.PLP.Chemscore.Hbond>
2.6269

> <Gold.PLP.Chemscore.CHOScore>
0.0000

> <Gold.PLP.Chemscore.Metal>
0.0000

> <Gold.Chemscore.Hbonds>
donor molecule, donor type, donor heavy atom, donor atom, acceptor molecule, acceptor atom, score
      P1  H  6896  6908       L1    19  0.42
      P1  H  7989  7998       L1     2  0.50

> <Gold.PLP.Chemscore.Internal.Correction>
0.3579

> <Gold.Rescore>
     Score         DG    S(hbond)    S(metal)    S(lipo)     H(rot)  DE(clash)    DE(int)     intcor
     11.80     -14.86       0.76        0.00      91.68       1.52       0.04       3.02       ----

> <Gold.Chemscore.Fitness>
11.8044

> <Gold.Chemscore.DG>
-14.8633

> <Gold.Chemscore.ZeroCoef>
-5.4800

> <Gold.Chemscore.Hbond>
0.7596

> <Gold.Chemscore.Metal>
0.0000

> <Gold.Chemscore.Lipo>
91.6813

> <Gold.Chemscore.Internal_Hbond>
0.0000

> <Gold.Chemscore.DEClash>
0.0398

> <Gold.Chemscore.DEInternal>
3.0191

> <Gold.Chemscore.Rot>
1.5159

> <Gold.Chemscore.Internal.Correction>
   9.000000E+99

> <Gold.Chemscore.Hbonds>
donor molecule, donor type, donor heavy atom, donor atom, acceptor molecule, acceptor atom, score
      P1  H  6896  6908       L1    19  0.07
      P1  H  7989  7998       L1     2  0.11

> <Gold.Chemscore.Hbond.Weighted>
-2.5372

> <Gold.Chemscore.Metal.Weighted>
-0.0000

> <Gold.Chemscore.Lipo.Weighted>
-10.7267

> <Gold.Chemscore.Internal_Hbond.Weighted>
0.0000

> <Gold.Chemscore.DEClash.Weighted>
0.0398

> <Gold.Chemscore.DEInternal.Weighted>
3.0191

> <Gold.Chemscore.Rot.Weighted>
3.8806

> <Gold.Chemscore.Internal.Correction.Weighted>
   9.000000E+99

> <Gold.Protein.RotatedTorsions>
[ 6907 6896 6895 6894 ] final  -62.35 input  -60.11 | X-H torsion
[ 7974 7965 7964 7962 ] final -170.52 input  175.53 | X-H torsion
[ 8008 7997 7996 7995 ] final -104.04 input   59.86 | X-H torsion
[ 10167 10162 10161 10158 ] final  104.43 input  -65.29 | X-H torsion
[ 10718 10713 10712 10709 ] final   25.52 input   66.30 | X-H torsion
[ 10763 10752 10751 10750 ] final -171.20 input  -60.55 | X-H torsion
[ 11005 11000 10999 10996 ] final  -44.76 input  -57.11 | X-H torsion

> <Gold.Protein.ActiveResidues>
 VAL166  LYS551  ARG553  GLY616  TRP617  ASP618  TYR619  PRO620  LYS621  CYS622 
 ASP623  PHE694  ASN695  SER759  ASP760  ASP761  ALA762  ILE779  LEU786  VAL792 
 PHE793  MET794  SER795  GLU796  ALA797  LYS798  CYS799  TRP800  GLU811  SER814 

> <Gold.Protein.RotatedAtoms>
  150.7721  134.6582  159.6324 H   0  0  0  0  0  0  0  0  0  0  0  0  # atno 6907 bound_to 6896
  152.3778  134.6634  160.0162 H   0  0  0  0  0  0  0  0  0  0  0  0  # atno 6908 bound_to 6896
  151.6973  133.3274  159.3294 H   0  0  0  0  0  0  0  0  0  0  0  0  # atno 6909 bound_to 6896
  144.7169  140.2060  143.6333 H   0  0  0  0  0  0  0  0  0  0  0  0  # atno 7974 bound_to 7965
  154.8796  140.0420  157.1774 H   0  0  0  0  0  0  0  0  0  0  0  0  # atno 8008 bound_to 7997
  154.8653  140.2950  155.5493 H   0  0  0  0  0  0  0  0  0  0  0  0  # atno 8009 bound_to 7997
  156.2999  140.2439  156.3633 H   0  0  0  0  0  0  0  0  0  0  0  0  # atno 8010 bound_to 7997
  139.7178  144.7064  151.0922 H   0  0  0  0  0  0  0  0  0  0  0  0  # atno 10167 bound_to 10162
  157.1945  130.6861  149.6163 H   0  0  0  0  0  0  0  0  0  0  0  0  # atno 10718 bound_to 10713
  154.6331  135.2889  155.0192 H   0  0  0  0  0  0  0  0  0  0  0  0  # atno 10763 bound_to 10752
  154.1346  135.6528  153.4933 H   0  0  0  0  0  0  0  0  0  0  0  0  # atno 10764 bound_to 10752
  153.0289  135.5318  154.7167 H   0  0  0  0  0  0  0  0  0  0  0  0  # atno 10765 bound_to 10752
  141.0471  133.6757  156.2918 H   0  0  0  0  0  0  0  0  0  0  0  0  # atno 11005 bound_to 11000
  145.8636  139.2235  143.1702 LP  0  0  0  0  0  0  0  0  0  0  0  0  # atno 17320 bound_to 7965
  146.0151  140.8400  142.9951 LP  0  0  0  0  0  0  0  0  0  0  0  0  # atno 17321 bound_to 7965
  140.7747  143.5207  150.9540 LP  0  0  0  0  0  0  0  0  0  0  0  0  # atno 17342 bound_to 10162
  139.8893  143.6973  152.3147 LP  0  0  0  0  0  0  0  0  0  0  0  0  # atno 17343 bound_to 10162
  155.9707  130.4603  150.6069 LP  0  0  0  0  0  0  0  0  0  0  0  0  # atno 17370 bound_to 10713
  157.3828  131.0783  151.1462 LP  0  0  0  0  0  0  0  0  0  0  0  0  # atno 17371 bound_to 10713
  140.6125  134.5444  157.5535 LP  0  0  0  0  0  0  0  0  0  0  0  0  # atno 17394 bound_to 11000
  139.9321  134.7944  156.0903 LP  0  0  0  0  0  0  0  0  0  0  0  0  # atno 17395 bound_to 11000

$$$$
