AV-unprocessed.smi:1966|AV-procd|sdf|7952|dock3
  -GOLD-   2272010123D 1   1.00000     0.00000
 Structure written by MMmdl.
 53 54  0  0  0  0  0  0  0  0  1 V2000
  145.3299  136.0136  151.5164 C   0  0  0  0  0  0  0  0  0  0  0  0
  145.7144  135.2410  152.7734 C   0  0  0  0  0  0  0  0  0  0  0  0
  144.8905  134.5137  153.3270 O   0  0  0  0  0  0  0  0  0  0  0  0
  146.9727  135.4048  153.2119 N   0  0  0  0  0  0  0  0  0  0  0  0
  147.5478  134.7665  154.3984 C   0  0  2  0  0  0  0  0  0  0  0  0
  148.0149  135.8631  155.3760 C   0  0  0  0  0  0  0  0  0  0  0  0
  147.5846  135.8812  156.5302 O   0  0  0  0  0  0  0  0  0  0  0  0
  148.8953  136.7511  154.8787 N   0  0  0  0  0  0  0  0  0  0  0  0
  149.4671  137.8795  155.5250 C   0  0  0  0  0  0  0  0  0  0  0  0
  150.6399  138.5345  155.0810 C   0  0  0  0  0  0  0  0  0  0  0  0
  151.1288  139.6295  155.8185 C   0  0  0  0  0  0  0  0  0  0  0  0
  150.4375  140.0313  156.9795 C   0  0  0  0  0  0  0  0  0  0  0  0
  150.9231  141.1215  157.7151 N   0  0  0  0  0  0  0  0  0  0  0  0
  151.0333  142.3475  156.9356 C   0  0  0  0  0  0  0  0  0  0  0  0
  151.4351  143.5327  157.8359 C   0  0  1  0  0  0  0  0  0  0  0  0
  150.2898  144.0428  158.7286 C   0  0  0  0  0  0  0  0  0  0  0  0
  152.6024  143.2020  158.5939 O   0  0  0  0  0  0  0  0  0  0  0  0
  152.4945  142.0115  159.3754 C   0  0  2  0  0  0  0  0  0  0  0  0
  153.8270  141.7970  160.1002 C   0  0  0  0  0  0  0  0  0  0  0  0
  152.1399  140.8269  158.4585 C   0  0  0  0  0  0  0  0  0  0  0  0
  149.3225  139.4006  157.4187 N   0  0  0  0  0  0  0  0  0  0  0  0
  148.8598  138.3502  156.7078 C   0  0  0  0  0  0  0  0  0  0  0  0
  148.7593  133.8895  153.9634 C   0  0  0  0  0  0  0  0  0  0  0  0
  148.3564  132.8279  152.9208 C   0  0  0  0  0  0  0  0  0  0  0  0
  149.4547  133.1900  155.1501 C   0  0  0  0  0  0  0  0  0  0  0  0
  145.7287  137.0281  151.5479 H   0  0  0  0  0  0  0  0  0  0  0  0
  144.2456  136.0776  151.4201 H   0  0  0  0  0  0  0  0  0  0  0  0
  145.7239  135.5138  150.6313 H   0  0  0  0  0  0  0  0  0  0  0  0
  147.5762  136.0294  152.6971 H   0  0  0  0  0  0  0  0  0  0  0  0
  146.7957  134.1337  154.8749 H   0  0  0  0  0  0  0  0  0  0  0  0
  149.2408  136.5598  153.9491 H   0  0  0  0  0  0  0  0  0  0  0  0
  151.1789  138.2108  154.2041 H   0  0  0  0  0  0  0  0  0  0  0  0
  152.0218  140.1466  155.4991 H   0  0  0  0  0  0  0  0  0  0  0  0
  151.7877  142.2111  156.1593 H   0  0  0  0  0  0  0  0  0  0  0  0
  150.0901  142.5567  156.4295 H   0  0  0  0  0  0  0  0  0  0  0  0
  151.7192  144.3602  157.1856 H   0  0  0  0  0  0  0  0  0  0  0  0
  149.4570  144.3981  158.1212 H   0  0  0  0  0  0  0  0  0  0  0  0
  150.6220  144.8745  159.3500 H   0  0  0  0  0  0  0  0  0  0  0  0
  149.9006  143.2668  159.3870 H   0  0  0  0  0  0  0  0  0  0  0  0
  151.7165  142.1362  160.1288 H   0  0  0  0  0  0  0  0  0  0  0  0
  153.7975  140.8998  160.7189 H   0  0  0  0  0  0  0  0  0  0  0  0
  154.0566  142.6412  160.7508 H   0  0  0  0  0  0  0  0  0  0  0  0
  154.6487  141.6889  159.3917 H   0  0  0  0  0  0  0  0  0  0  0  0
  151.9998  139.9214  159.0505 H   0  0  0  0  0  0  0  0  0  0  0  0
  152.9576  140.6349  157.7620 H   0  0  0  0  0  0  0  0  0  0  0  0
  147.9715  137.8732  157.0957 H   0  0  0  0  0  0  0  0  0  0  0  0
  149.5018  134.5345  153.4897 H   0  0  0  0  0  0  0  0  0  0  0  0
  147.5835  132.1653  153.3112 H   0  0  0  0  0  0  0  0  0  0  0  0
  149.2096  132.2104  152.6387 H   0  0  0  0  0  0  0  0  0  0  0  0
  147.9766  133.2791  152.0041 H   0  0  0  0  0  0  0  0  0  0  0  0
  148.7545  132.5637  155.7037 H   0  0  0  0  0  0  0  0  0  0  0  0
  149.8913  133.9023  155.8504 H   0  0  0  0  0  0  0  0  0  0  0  0
  150.2683  132.5507  154.8061 H   0  0  0  0  0  0  0  0  0  0  0  0
  1  2  1  0  0  0  0
  1 26  1  0  0  0  0
  1 27  1  0  0  0  0
  1 28  1  0  0  0  0
  2  3  2  0  0  0  0
  2  4  1  0  0  0  0
  4  5  1  0  0  0  0
  4 29  1  0  0  0  0
  5  6  1  0  0  0  0
  5 23  1  0  0  0  0
  5 30  1  0  0  0  0
  6  7  2  0  0  0  0
  6  8  1  0  0  0  0
  8  9  1  0  0  0  0
  8 31  1  0  0  0  0
  9 22  1  0  0  0  0
  9 10  2  0  0  0  0
 10 11  1  0  0  0  0
 10 32  1  0  0  0  0
 11 12  2  0  0  0  0
 11 33  1  0  0  0  0
 12 13  1  0  0  0  0
 12 21  1  0  0  0  0
 13 20  1  0  0  0  0
 13 14  1  0  0  0  0
 14 15  1  0  0  0  0
 14 34  1  0  0  0  0
 14 35  1  0  0  0  0
 15 16  1  0  0  0  0
 15 17  1  0  0  0  0
 15 36  1  0  0  0  0
 16 37  1  0  0  0  0
 16 38  1  0  0  0  0
 16 39  1  0  0  0  0
 17 18  1  0  0  0  0
 18 19  1  0  0  0  0
 18 20  1  0  0  0  0
 18 40  1  0  0  0  0
 19 41  1  0  0  0  0
 19 42  1  0  0  0  0
 19 43  1  0  0  0  0
 20 44  1  0  0  0  0
 20 45  1  0  0  0  0
 21 22  2  0  0  0  0
 22 46  1  0  0  0  0
 23 24  1  0  0  0  0
 23 25  1  0  0  0  0
 23 47  1  0  0  0  0
 24 48  1  0  0  0  0
 24 49  1  0  0  0  0
 24 50  1  0  0  0  0
 25 51  1  0  0  0  0
 25 52  1  0  0  0  0
 25 53  1  0  0  0  0
M  END
> <s_m_source_file>
AV-unprocessed.smi

> <i_m_source_file_index>
1966

> <i_lp_mmshare_version>
43012

> <i_f3d_flags>
0

> <s_epik_input>
W0NIM11DKD1PKVtOSF1bQ0BASF0oW0NIXShbQ0gzXSlbQ0gzXSlDKD1PKVtOSF1jMVtjSF1bY0hdYyhuW2NIXTEpTjJbQ0gyXVtDQEBIXShbQ0gzXSlPW0NAQEhdKFtDSDNdKVtDSDJdMg==

> <s_epik_cmdline>
J2VwaWtfcHl0aG9uJywgJy1waCcsICc3LjAnLCAnLXRuJywgJzgnLCAnLW1hJywgJzIwMCcsICctbWV0YWxfYmluZGluZycsICctaW1hZScsICc8aW5maWxlLm1hZT4nLCAnLW9tYWUnLCAnPG91dGZpbGUubWFlPic=

> <r_lp_tautomer_probability>
1

> <r_epik_Ionization_Penalty>
0.000679699

> <r_epik_Ionization_Penalty_Charging>
0

> <r_epik_Ionization_Penalty_Neutral>
0.000679699

> <r_epik_State_Penalty>
0.000430485

> <r_epik_Charging_Adjusted_Penalty>
0.000430485

> <i_epik_Tot_Q>
0

> <i_epik_Tot_abs_Q>
0

> <r_epik_Metal_State_Penalty>
-0

> <b_epik_Metal_Only>
0

> <s_lp_Force_Field>
OPLS_2005

> <r_lp_Energy>
29.6381

> <b_lp_Chiralities_Consistent>
1

> <s_lp_Variant>
AV-unprocessed.smi:1966-5

> <Gold.Version>
5.8.1

> <Gold.Id.Protein>
6NUR|6NUR_protein|mol2

> <Gold.PLP.Fitness>
42.0445

> <Gold.PLP.PLP>
-36.8379

> <Gold.PLP.part.hbond>
-1.7556

> <Gold.PLP.part.metal>
0.0000

> <Gold.PLP.part.buried>
-3.8297

> <Gold.PLP.part.nonpolar>
-32.3305

> <Gold.PLP.part.repulsive>
0.1072

> <Gold.PLP.ligand.clash>
0.0000

> <Gold.PLP.ligand.torsion>
0.2421

> <Gold.PLP.Chemscore.Hbond>
1.8450

> <Gold.PLP.Chemscore.CHOScore>
0.0000

> <Gold.PLP.Chemscore.Metal>
0.0000

> <Gold.Chemscore.Hbonds>
donor molecule, donor type, donor heavy atom, donor atom, acceptor molecule, acceptor atom, score
      L1  H     4    29       P1  7948  0.94
      L1  H     8    31       P1  7948  0.80

> <Gold.PLP.Chemscore.Internal.Correction>
0.1558

> <Gold.Rescore>
     Score         DG    S(hbond)    S(metal)    S(lipo)     H(rot)  DE(clash)    DE(int)     intcor
     16.67     -18.55       1.82        0.00      96.35       1.68       0.20       1.69       ----

> <Gold.Chemscore.Fitness>
16.6655

> <Gold.Chemscore.DG>
-18.5548

> <Gold.Chemscore.ZeroCoef>
-5.4800

> <Gold.Chemscore.Hbond>
1.8241

> <Gold.Chemscore.Metal>
0.0000

> <Gold.Chemscore.Lipo>
96.3467

> <Gold.Chemscore.Internal_Hbond>
0.0000

> <Gold.Chemscore.DEClash>
0.2015

> <Gold.Chemscore.DEInternal>
1.6877

> <Gold.Chemscore.Rot>
1.6759

> <Gold.Chemscore.Internal.Correction>
   9.000000E+99

> <Gold.Chemscore.Hbonds>
donor molecule, donor type, donor heavy atom, donor atom, acceptor molecule, acceptor atom, score
      L1  H     4    29       P1  7948  0.90
      L1  H     8    31       P1  7948  0.74

> <Gold.Chemscore.Hbond.Weighted>
-6.0924

> <Gold.Chemscore.Metal.Weighted>
-0.0000

> <Gold.Chemscore.Lipo.Weighted>
-11.2726

> <Gold.Chemscore.Internal_Hbond.Weighted>
0.0000

> <Gold.Chemscore.DEClash.Weighted>
0.2015

> <Gold.Chemscore.DEInternal.Weighted>
1.6877

> <Gold.Chemscore.Rot.Weighted>
4.2902

> <Gold.Chemscore.Internal.Correction.Weighted>
   9.000000E+99

> <Gold.Protein.RotatedTorsions>
[ 6907 6896 6895 6894 ] final   98.62 input  -60.11 | X-H torsion
[ 7974 7965 7964 7962 ] final -128.73 input  175.53 | X-H torsion
[ 8008 7997 7996 7995 ] final -131.26 input   59.86 | X-H torsion
[ 10167 10162 10161 10158 ] final -124.67 input  -65.29 | X-H torsion
[ 10718 10713 10712 10709 ] final  138.54 input   66.30 | X-H torsion
[ 10763 10752 10751 10750 ] final -143.92 input  -60.55 | X-H torsion
[ 11005 11000 10999 10996 ] final   -2.96 input  -57.11 | X-H torsion

> <Gold.Protein.ActiveResidues>
 VAL166  LYS551  ARG553  GLY616  TRP617  ASP618  TYR619  PRO620  LYS621  CYS622 
 ASP623  PHE694  ASN695  SER759  ASP760  ASP761  ALA762  ILE779  LEU786  VAL792 
 PHE793  MET794  SER795  GLU796  ALA797  LYS798  CYS799  TRP800  GLU811  SER814 

> <Gold.Protein.RotatedAtoms>
  152.5406  134.0553  159.8127 H   0  0  0  0  0  0  0  0  0  0  0  0  # atno 6907 bound_to 6896
  151.0689  133.5475  159.2636 H   0  0  0  0  0  0  0  0  0  0  0  0  # atno 6908 bound_to 6896
  151.2346  135.0575  159.9055 H   0  0  0  0  0  0  0  0  0  0  0  0  # atno 6909 bound_to 6896
  144.9641  140.7478  143.4710 H   0  0  0  0  0  0  0  0  0  0  0  0  # atno 7974 bound_to 7965
  155.3093  140.0456  157.3034 H   0  0  0  0  0  0  0  0  0  0  0  0  # atno 8008 bound_to 7997
  154.5442  140.2297  155.8557 H   0  0  0  0  0  0  0  0  0  0  0  0  # atno 8009 bound_to 7997
  156.1908  140.3051  155.9336 H   0  0  0  0  0  0  0  0  0  0  0  0  # atno 8010 bound_to 7997
  139.9903  143.5648  152.2344 H   0  0  0  0  0  0  0  0  0  0  0  0  # atno 10167 bound_to 10162
  157.4242  131.1042  151.0321 H   0  0  0  0  0  0  0  0  0  0  0  0  # atno 10718 bound_to 10713
  154.8450  135.3454  154.6264 H   0  0  0  0  0  0  0  0  0  0  0  0  # atno 10763 bound_to 10752
  153.6873  135.6977  153.5105 H   0  0  0  0  0  0  0  0  0  0  0  0  # atno 10764 bound_to 10752
  153.2622  135.4319  155.0860 H   0  0  0  0  0  0  0  0  0  0  0  0  # atno 10765 bound_to 10752
  140.6641  133.9294  155.8454 H   0  0  0  0  0  0  0  0  0  0  0  0  # atno 11005 bound_to 11000
  145.2655  139.1975  143.4869 LP  0  0  0  0  0  0  0  0  0  0  0  0  # atno 17320 bound_to 7965
  146.3362  140.2593  142.8601 LP  0  0  0  0  0  0  0  0  0  0  0  0  # atno 17321 bound_to 7965
  139.6345  144.7648  151.2466 LP  0  0  0  0  0  0  0  0  0  0  0  0  # atno 17342 bound_to 10162
  140.7457  143.6422  150.8324 LP  0  0  0  0  0  0  0  0  0  0  0  0  # atno 17343 bound_to 10162
  157.1240  130.6074  149.5512 LP  0  0  0  0  0  0  0  0  0  0  0  0  # atno 17370 bound_to 10713
  155.9891  130.4937  150.7198 LP  0  0  0  0  0  0  0  0  0  0  0  0  # atno 17371 bound_to 10713
  141.0443  134.0577  157.3864 LP  0  0  0  0  0  0  0  0  0  0  0  0  # atno 17394 bound_to 11000
  139.9003  135.0162  156.7236 LP  0  0  0  0  0  0  0  0  0  0  0  0  # atno 17395 bound_to 11000

$$$$
