AV-unprocessed.smi:2411|AV-procd|sdf|9530|dock9
  -GOLD-   2272013163D 1   1.00000     0.00000
 Structure written by MMmdl.
 41 43  0  0  0  0  0  0  0  0  1 V2000
  145.8782  134.3417  152.6716 C   0  0  0  0  0  0  0  0  0  0  0  0
  144.9887  135.3104  152.0454 N   0  0  0  0  0  0  0  0  0  0  0  0
  145.0205  135.3609  150.5889 C   0  0  0  0  0  0  0  0  0  0  0  0
  143.7150  135.3734  152.6468 C   0  0  0  0  0  0  0  0  0  0  0  0
  142.9376  134.2637  152.6069 N   0  0  0  0  0  0  0  0  0  0  0  0
  141.7427  134.3241  153.1967 C   0  0  0  0  0  0  0  0  0  0  0  0
  141.2172  135.3747  153.8264 N   0  0  0  0  0  0  0  0  0  0  0  0
  141.9720  136.4918  153.8769 C   0  0  0  0  0  0  0  0  0  0  0  0
  143.2636  136.5513  153.2984 C   0  0  0  0  0  0  0  0  0  0  0  0
  144.0578  137.7308  153.2918 N   0  0  0  0  0  0  0  0  0  0  0  0
  145.3863  137.8249  153.4594 C   0  0  0  0  0  0  0  0  0  0  0  0
  146.1385  136.8806  153.6997 O   0  0  0  0  0  0  0  0  0  0  0  0
  145.8041  139.0878  153.2986 N   0  0  0  0  0  0  0  0  0  0  0  0
  147.1944  139.5343  153.3488 C   0  0  0  0  0  0  0  0  0  0  0  0
  147.5111  140.7609  154.2040 C   0  0  0  0  0  0  0  0  0  0  0  0
  149.0063  140.9807  154.4086 C   0  0  0  0  0  0  0  0  0  0  0  0
  149.8152  139.9765  155.1948 C   0  0  0  0  0  0  0  0  0  0  0  0
  149.6456  141.3823  155.7223 C   0  0  0  0  0  0  0  0  0  0  0  0
  146.6607  142.0125  154.0719 C   0  0  0  0  0  0  0  0  0  0  0  0
  146.5167  141.1440  155.2931 C   0  0  0  0  0  0  0  0  0  0  0  0
  145.9865  134.5204  153.7411 H   0  0  0  0  0  0  0  0  0  0  0  0
  146.8714  134.3935  152.2248 H   0  0  0  0  0  0  0  0  0  0  0  0
  145.4966  133.3295  152.5328 H   0  0  0  0  0  0  0  0  0  0  0  0
  144.3656  136.1471  150.2115 H   0  0  0  0  0  0  0  0  0  0  0  0
  144.7054  134.4091  150.1592 H   0  0  0  0  0  0  0  0  0  0  0  0
  146.0316  135.5727  150.2408 H   0  0  0  0  0  0  0  0  0  0  0  0
  141.1372  133.4311  153.1561 H   0  0  0  0  0  0  0  0  0  0  0  0
  141.5169  137.3421  154.3611 H   0  0  0  0  0  0  0  0  0  0  0  0
  143.5800  138.5742  153.0093 H   0  0  0  0  0  0  0  0  0  0  0  0
  145.1103  139.7940  153.1010 H   0  0  0  0  0  0  0  0  0  0  0  0
  147.7804  138.6999  153.7344 H   0  0  0  0  0  0  0  0  0  0  0  0
  147.5676  139.7111  152.3386 H   0  0  0  0  0  0  0  0  0  0  0  0
  149.5065  141.3896  153.5327 H   0  0  0  0  0  0  0  0  0  0  0  0
  149.2761  139.1818  155.7071 H   0  0  0  0  0  0  0  0  0  0  0  0
  150.7905  139.6995  154.7999 H   0  0  0  0  0  0  0  0  0  0  0  0
  150.5114  142.0394  155.6730 H   0  0  0  0  0  0  0  0  0  0  0  0
  149.0232  141.5159  156.6027 H   0  0  0  0  0  0  0  0  0  0  0  0
  147.1530  142.9741  154.2028 H   0  0  0  0  0  0  0  0  0  0  0  0
  145.8393  142.0150  153.3593 H   0  0  0  0  0  0  0  0  0  0  0  0
  145.5981  140.5681  155.3829 H   0  0  0  0  0  0  0  0  0  0  0  0
  146.8860  141.5400  156.2348 H   0  0  0  0  0  0  0  0  0  0  0  0
  1  2  1  0  0  0  0
  1 21  1  0  0  0  0
  1 22  1  0  0  0  0
  1 23  1  0  0  0  0
  2  3  1  0  0  0  0
  2  4  1  0  0  0  0
  3 24  1  0  0  0  0
  3 25  1  0  0  0  0
  3 26  1  0  0  0  0
  4  9  1  0  0  0  0
  4  5  2  0  0  0  0
  5  6  1  0  0  0  0
  6  7  2  0  0  0  0
  6 27  1  0  0  0  0
  7  8  1  0  0  0  0
  8  9  2  0  0  0  0
  8 28  1  0  0  0  0
  9 10  1  0  0  0  0
 10 11  1  0  0  0  0
 10 29  1  0  0  0  0
 11 12  2  0  0  0  0
 11 13  1  0  0  0  0
 13 14  1  0  0  0  0
 13 30  1  0  0  0  0
 14 15  1  0  0  0  0
 14 31  1  0  0  0  0
 14 32  1  0  0  0  0
 15 20  1  0  0  0  0
 15 16  1  0  0  0  0
 15 19  1  0  0  0  0
 16 18  1  0  0  0  0
 16 17  1  0  0  0  0
 16 33  1  0  0  0  0
 17 18  1  0  0  0  0
 17 34  1  0  0  0  0
 17 35  1  0  0  0  0
 18 36  1  0  0  0  0
 18 37  1  0  0  0  0
 19 20  1  0  0  0  0
 19 38  1  0  0  0  0
 19 39  1  0  0  0  0
 20 40  1  0  0  0  0
 20 41  1  0  0  0  0
M  END
> <s_m_source_file>
AV-unprocessed.smi

> <i_m_source_file_index>
2411

> <i_lp_mmshare_version>
43012

> <i_f3d_flags>
0

> <s_epik_input>
W0NIM11OKFtDSDNdKWMxbltjSF1uW2NIXWMxW05IXUMoPU8pW05IXVtDSDJdQzIoW0NIMl1bQ0gyXTIpW0NIXTNbQ0gyXVtDSDJdMw==

> <s_epik_cmdline>
J2VwaWtfcHl0aG9uJywgJy1waCcsICc3LjAnLCAnLXRuJywgJzgnLCAnLW1hJywgJzIwMCcsICctbWV0YWxfYmluZGluZycsICctaW1hZScsICc8aW5maWxlLm1hZT4nLCAnLW9tYWUnLCAnPG91dGZpbGUubWFlPic=

> <r_lp_tautomer_probability>
1

> <r_epik_Ionization_Penalty>
0.0183431

> <r_epik_Ionization_Penalty_Charging>
0

> <r_epik_Ionization_Penalty_Neutral>
0.0183431

> <r_epik_State_Penalty>
0.013978

> <r_epik_Charging_Adjusted_Penalty>
0.013978

> <i_epik_Tot_Q>
0

> <i_epik_Tot_abs_Q>
0

> <r_epik_Metal_State_Penalty>
0.0135734

> <b_epik_Metal_Only>
0

> <s_lp_Force_Field>
OPLS_2005

> <r_lp_Energy>
29.7017

> <b_lp_Chiralities_Consistent>
1

> <s_lp_Variant>
AV-unprocessed.smi:2411-1

> <Gold.Version>
5.8.1

> <Gold.Id.Protein>
6NUR|6NUR_protein|mol2

> <Gold.PLP.Fitness>
38.6293

> <Gold.PLP.PLP>
-32.8255

> <Gold.PLP.part.hbond>
-2.5540

> <Gold.PLP.part.metal>
0.0000

> <Gold.PLP.part.buried>
-1.3715

> <Gold.PLP.part.nonpolar>
-28.8183

> <Gold.PLP.part.repulsive>
0.6137

> <Gold.PLP.ligand.clash>
0.0000

> <Gold.PLP.ligand.torsion>
1.9512

> <Gold.PLP.Chemscore.Hbond>
1.9920

> <Gold.PLP.Chemscore.CHOScore>
0.2917

> <Gold.PLP.Chemscore.Metal>
0.0000

> <Gold.Chemscore.Hbonds>
donor molecule, donor type, donor heavy atom, donor atom, acceptor molecule, acceptor atom, score
      L1  H    10    29       P1 10175  1.00
      L1  H    13    30       P1 10175  1.00
      L1  C     6    27       P1 10957  0.19

> <Gold.PLP.Chemscore.Internal.Correction>
2.8553

> <Gold.Rescore>
     Score         DG    S(hbond)    S(metal)    S(lipo)     H(rot)  DE(clash)    DE(int)     intcor
      8.14     -15.20       1.97        0.00      63.63       1.68       0.23       6.83       ----

> <Gold.Chemscore.Fitness>
8.1429

> <Gold.Chemscore.DG>
-15.2037

> <Gold.Chemscore.ZeroCoef>
-5.4800

> <Gold.Chemscore.Hbond>
1.9665

> <Gold.Chemscore.Metal>
0.0000

> <Gold.Chemscore.Lipo>
63.6340

> <Gold.Chemscore.Internal_Hbond>
0.0000

> <Gold.Chemscore.DEClash>
0.2274

> <Gold.Chemscore.DEInternal>
6.8334

> <Gold.Chemscore.Rot>
1.6757

> <Gold.Chemscore.Internal.Correction>
   9.000000E+99

> <Gold.Chemscore.Hbonds>
donor molecule, donor type, donor heavy atom, donor atom, acceptor molecule, acceptor atom, score
      L1  H    10    29       P1 10175  0.94
      L1  H    13    30       P1 10175  0.99

> <Gold.Chemscore.Hbond.Weighted>
-6.5682

> <Gold.Chemscore.Metal.Weighted>
-0.0000

> <Gold.Chemscore.Lipo.Weighted>
-7.4452

> <Gold.Chemscore.Internal_Hbond.Weighted>
0.0000

> <Gold.Chemscore.DEClash.Weighted>
0.2274

> <Gold.Chemscore.DEInternal.Weighted>
6.8334

> <Gold.Chemscore.Rot.Weighted>
4.2897

> <Gold.Chemscore.Internal.Correction.Weighted>
   9.000000E+99

> <Gold.Protein.RotatedTorsions>
[ 6907 6896 6895 6894 ] final  -55.90 input  -60.11 | X-H torsion
[ 7974 7965 7964 7962 ] final  104.65 input  175.53 | X-H torsion
[ 8008 7997 7996 7995 ] final  110.77 input   59.86 | X-H torsion
[ 10167 10162 10161 10158 ] final   92.60 input  -65.29 | X-H torsion
[ 10718 10713 10712 10709 ] final   72.37 input   66.30 | X-H torsion
[ 10763 10752 10751 10750 ] final  114.24 input  -60.55 | X-H torsion
[ 11005 11000 10999 10996 ] final   -6.02 input  -57.11 | X-H torsion

> <Gold.Protein.ActiveResidues>
 VAL166  LYS551  ARG553  GLY616  TRP617  ASP618  TYR619  PRO620  LYS621  CYS622 
 ASP623  PHE694  ASN695  SER759  ASP760  ASP761  ALA762  ILE779  LEU786  VAL792 
 PHE793  MET794  SER795  GLU796  ALA797  LYS798  CYS799  TRP800  GLU811  SER814 

> <Gold.Protein.RotatedAtoms>
  150.8212  134.7421  159.6773 H   0  0  0  0  0  0  0  0  0  0  0  0  # atno 6907 bound_to 6896
  152.4327  134.5742  159.9939 H   0  0  0  0  0  0  0  0  0  0  0  0  # atno 6908 bound_to 6896
  151.5926  133.3327  159.3067 H   0  0  0  0  0  0  0  0  0  0  0  0  # atno 6909 bound_to 6896
  145.3300  139.2489  143.3666 H   0  0  0  0  0  0  0  0  0  0  0  0  # atno 7974 bound_to 7965
  156.2077  140.3032  155.9663 H   0  0  0  0  0  0  0  0  0  0  0  0  # atno 8008 bound_to 7997
  155.2801  140.0437  157.3032 H   0  0  0  0  0  0  0  0  0  0  0  0  # atno 8009 bound_to 7997
  154.5655  140.2333  155.8278 H   0  0  0  0  0  0  0  0  0  0  0  0  # atno 8010 bound_to 7997
  139.8261  144.6709  150.9458 H   0  0  0  0  0  0  0  0  0  0  0  0  # atno 10167 bound_to 10162
  157.6497  130.9575  150.0919 H   0  0  0  0  0  0  0  0  0  0  0  0  # atno 10718 bound_to 10713
  153.5043  135.3631  155.2555 H   0  0  0  0  0  0  0  0  0  0  0  0  # atno 10763 bound_to 10752
  154.8746  135.4007  154.3442 H   0  0  0  0  0  0  0  0  0  0  0  0  # atno 10764 bound_to 10752
  153.4083  135.7077  153.6443 H   0  0  0  0  0  0  0  0  0  0  0  0  # atno 10765 bound_to 10752
  140.6975  133.9018  155.8660 H   0  0  0  0  0  0  0  0  0  0  0  0  # atno 11005 bound_to 11000
  146.3049  140.3875  142.8691 LP  0  0  0  0  0  0  0  0  0  0  0  0  # atno 17320 bound_to 7965
  144.8872  140.7477  143.5949 LP  0  0  0  0  0  0  0  0  0  0  0  0  # atno 17321 bound_to 7965
  140.7810  143.4045  151.1094 LP  0  0  0  0  0  0  0  0  0  0  0  0  # atno 17342 bound_to 10162
  139.7702  143.8505  152.3119 LP  0  0  0  0  0  0  0  0  0  0  0  0  # atno 17343 bound_to 10162
  156.1866  130.3652  149.8965 LP  0  0  0  0  0  0  0  0  0  0  0  0  # atno 17370 bound_to 10713
  156.6904  130.8893  151.3587 LP  0  0  0  0  0  0  0  0  0  0  0  0  # atno 17371 bound_to 10713
  141.0191  134.0914  157.4140 LP  0  0  0  0  0  0  0  0  0  0  0  0  # atno 17394 bound_to 11000
  139.8906  135.0113  156.6745 LP  0  0  0  0  0  0  0  0  0  0  0  0  # atno 17395 bound_to 11000

$$$$
