AV-unprocessed.smi:1285|AV-procd|sdf|5373|dock5
  -GOLD-   22720 4513D 1   1.00000     0.00000
 Structure written by MMmdl.
 47 48  0  0  0  0  0  0  0  0  2 V2000
  149.2261  132.1067  153.7893 C   0  0  0  0  0  0  0  0  0  0  0  0
  148.4092  133.1596  153.0187 C   0  0  0  0  0  0  0  0  0  0  0  0
  147.4016  133.9967  153.8643 C   0  0  1  0  0  0  0  0  0  0  0  0
  146.4437  133.0339  154.6133 C   0  0  0  0  0  0  0  0  0  0  0  0
  148.1800  134.8199  154.9389 C   0  0  0  0  0  0  0  0  0  0  0  0
  148.8227  136.0249  154.4124 N   0  0  0  0  0  0  0  0  0  0  0  0
  149.1701  137.1058  155.1293 C   0  0  0  0  0  0  0  0  0  0  0  0
  148.9612  137.2056  156.3385 O   0  0  0  0  0  0  0  0  0  0  0  0
  149.8531  138.2436  154.3545 C   0  0  1  0  0  0  0  0  0  0  0  0
  149.0090  139.5336  154.3243 C   0  0  0  0  0  0  0  0  0  0  0  0
  151.1938  138.4772  154.8760 N   0  0  0  0  0  0  0  0  0  0  0  0
  151.7408  139.5902  155.3697 C   0  0  0  0  0  0  0  0  0  0  0  0
  153.0123  139.4566  155.7193 N   0  0  0  0  0  0  0  0  0  0  0  0
  153.2047  138.1464  155.3834 C   0  0  0  0  0  0  0  0  0  0  0  0
  152.1506  137.5159  154.8659 N   0  0  0  0  0  0  0  0  0  0  0  0
  146.5990  134.9260  152.9857 N   0  3  0  0  0  0  0  0  0  0  0  0
  145.8587  134.2781  151.8665 C   0  0  0  0  0  0  0  0  0  0  0  0
  145.2786  135.3422  150.9215 C   0  0  0  0  0  0  0  0  0  0  0  0
  144.4157  136.2032  151.6511 O   0  0  0  0  0  0  0  0  0  0  0  0
  145.1078  136.8941  152.6817 C   0  0  0  0  0  0  0  0  0  0  0  0
  145.6983  135.8872  153.6838 C   0  0  0  0  0  0  0  0  0  0  0  0
  149.9076  131.5886  153.1145 H   0  0  0  0  0  0  0  0  0  0  0  0
  148.5895  131.3480  154.2440 H   0  0  0  0  0  0  0  0  0  0  0  0
  149.8340  132.5557  154.5742 H   0  0  0  0  0  0  0  0  0  0  0  0
  149.1226  133.8203  152.5268 H   0  0  0  0  0  0  0  0  0  0  0  0
  147.8820  132.6428  152.2173 H   0  0  0  0  0  0  0  0  0  0  0  0
  146.9444  132.5238  155.4366 H   0  0  0  0  0  0  0  0  0  0  0  0
  146.0536  132.2527  153.9603 H   0  0  0  0  0  0  0  0  0  0  0  0
  145.5922  133.5637  155.0412 H   0  0  0  0  0  0  0  0  0  0  0  0
  147.5305  135.0841  155.7748 H   0  0  0  0  0  0  0  0  0  0  0  0
  148.9653  134.2106  155.3862 H   0  0  0  0  0  0  0  0  0  0  0  0
  149.0490  136.0238  153.4285 H   0  0  0  0  0  0  0  0  0  0  0  0
  149.9659  137.9109  153.3212 H   0  0  0  0  0  0  0  0  0  0  0  0
  148.0251  139.3501  153.8908 H   0  0  0  0  0  0  0  0  0  0  0  0
  149.4935  140.3003  153.7192 H   0  0  0  0  0  0  0  0  0  0  0  0
  148.8580  139.9486  155.3216 H   0  0  0  0  0  0  0  0  0  0  0  0
  151.1993  140.5190  155.4724 H   0  0  0  0  0  0  0  0  0  0  0  0
  154.1516  137.6446  155.5178 H   0  0  0  0  0  0  0  0  0  0  0  0
  146.5041  133.6201  151.2872 H   0  0  0  0  0  0  0  0  0  0  0  0
  145.0436  133.6673  152.2555 H   0  0  0  0  0  0  0  0  0  0  0  0
  146.0742  135.9170  150.4444 H   0  0  0  0  0  0  0  0  0  0  0  0
  144.7079  134.8655  150.1243 H   0  0  0  0  0  0  0  0  0  0  0  0
  145.8918  137.5207  152.2531 H   0  0  0  0  0  0  0  0  0  0  0  0
  144.4102  137.5614  153.1882 H   0  0  0  0  0  0  0  0  0  0  0  0
  144.8906  135.3532  154.1846 H   0  0  0  0  0  0  0  0  0  0  0  0
  146.2267  136.4589  154.4442 H   0  0  0  0  0  0  0  0  0  0  0  0
  147.2963  135.5058  152.5410 H   0  0  0  0  0  0  0  0  0  0  0  0
  1  2  1  0  0  0  0
  1 22  1  0  0  0  0
  1 23  1  0  0  0  0
  1 24  1  0  0  0  0
  2  3  1  0  0  0  0
  2 25  1  0  0  0  0
  2 26  1  0  0  0  0
  3  4  1  0  0  0  0
  3  5  1  0  0  0  0
  3 16  1  0  0  0  0
  4 27  1  0  0  0  0
  4 28  1  0  0  0  0
  4 29  1  0  0  0  0
  5  6  1  0  0  0  0
  5 30  1  0  0  0  0
  5 31  1  0  0  0  0
  6  7  1  0  0  0  0
  6 32  1  0  0  0  0
  7  8  2  0  0  0  0
  7  9  1  0  0  0  0
  9 10  1  0  0  0  0
  9 11  1  0  0  0  0
  9 33  1  0  0  0  0
 10 34  1  0  0  0  0
 10 35  1  0  0  0  0
 10 36  1  0  0  0  0
 11 15  1  0  0  0  0
 11 12  1  0  0  0  0
 12 13  2  0  0  0  0
 12 37  1  0  0  0  0
 13 14  1  0  0  0  0
 14 15  2  0  0  0  0
 14 38  1  0  0  0  0
 16 21  1  0  0  0  0
 16 17  1  0  0  0  0
 16 47  1  0  0  0  0
 17 18  1  0  0  0  0
 17 39  1  0  0  0  0
 17 40  1  0  0  0  0
 18 19  1  0  0  0  0
 18 41  1  0  0  0  0
 18 42  1  0  0  0  0
 19 20  1  0  0  0  0
 20 21  1  0  0  0  0
 20 43  1  0  0  0  0
 20 44  1  0  0  0  0
 21 45  1  0  0  0  0
 21 46  1  0  0  0  0
M  CHG  1  16   1
M  END
> <s_m_source_file>
AV-unprocessed.smi

> <i_m_source_file_index>
1285

> <i_lp_mmshare_version>
43012

> <i_f3d_flags>
0

> <s_epik_input>
W0NIMl0xW0NIMl1PW0NIMl1bQ0gyXU4xW0NAQF0oW0NIM10pKFtDSDJdW0NIM10pW0NIMl1bTkhdQyg9TylbQ0BIXShbQ0gzXSluMltjSF1uW2NIXW4y

> <s_epik_cmdline>
J2VwaWtfcHl0aG9uJywgJy1waCcsICc3LjAnLCAnLXRuJywgJzgnLCAnLW1hJywgJzIwMCcsICctbWV0YWxfYmluZGluZycsICctaW1hZScsICc8aW5maWxlLm1hZT4nLCAnLW9tYWUnLCAnPG91dGZpbGUubWFlPic=

> <r_lp_tautomer_probability>
1

> <r_epik_Ionization_Penalty>
0.569304

> <r_epik_Ionization_Penalty_Charging>
0.569295

> <r_epik_Ionization_Penalty_Neutral>
8.22697e-06

> <r_epik_State_Penalty>
0.581114

> <r_epik_Charging_Adjusted_Penalty>
1.15041

> <i_epik_Tot_Q>
1

> <i_epik_Tot_abs_Q>
1

> <r_epik_Metal_State_Penalty>
0.581117

> <b_epik_Metal_Only>
0

> <s_lp_Force_Field>
OPLS_2005

> <r_lp_Energy>
40.9155

> <b_lp_Chiralities_Consistent>
1

> <s_lp_Variant>
AV-unprocessed.smi:1285-7

> <Gold.Version>
5.8.1

> <Gold.Id.Protein>
6NUR|6NUR_protein|mol2

> <Gold.PLP.Fitness>
45.1415

> <Gold.PLP.PLP>
-31.5696

> <Gold.PLP.part.hbond>
-3.9353

> <Gold.PLP.part.metal>
0.0000

> <Gold.PLP.part.buried>
-3.3896

> <Gold.PLP.part.nonpolar>
-26.0401

> <Gold.PLP.part.repulsive>
1.1434

> <Gold.PLP.ligand.clash>
0.0000

> <Gold.PLP.ligand.torsion>
0.4921

> <Gold.PLP.Chemscore.Hbond>
4.7520

> <Gold.PLP.Chemscore.CHOScore>
0.0000

> <Gold.PLP.Chemscore.Metal>
0.0000

> <Gold.Chemscore.Hbonds>
donor molecule, donor type, donor heavy atom, donor atom, acceptor molecule, acceptor atom, score
      L1  H     6    32       P1  7948  1.00
      L1  H    16    47       P1  7948  2.00
      P1  H  7997  8010       L1    13  1.00
      P1  H 10752 10765       L1    15  0.70

> <Gold.PLP.Chemscore.Internal.Correction>
0.3000

> <Gold.Rescore>
     Score         DG    S(hbond)    S(metal)    S(lipo)     H(rot)  DE(clash)    DE(int)     intcor
     13.76     -14.49       3.04        0.00      50.70       2.76       0.18       0.55       ----

> <Gold.Chemscore.Fitness>
13.7614

> <Gold.Chemscore.DG>
-14.4932

> <Gold.Chemscore.ZeroCoef>
-5.4800

> <Gold.Chemscore.Hbond>
3.0371

> <Gold.Chemscore.Metal>
0.0000

> <Gold.Chemscore.Lipo>
50.7004

> <Gold.Chemscore.Internal_Hbond>
0.0000

> <Gold.Chemscore.DEClash>
0.1794

> <Gold.Chemscore.DEInternal>
0.5524

> <Gold.Chemscore.Rot>
2.7589

> <Gold.Chemscore.Internal.Correction>
   9.000000E+99

> <Gold.Chemscore.Hbonds>
donor molecule, donor type, donor heavy atom, donor atom, acceptor molecule, acceptor atom, score
      L1  H     6    32       P1  7948  0.91
      L1  H    16    47       P1  7948  1.00
      P1  H  7997  8010       L1    13  0.73
      P1  H 10752 10765       L1    15  0.20

> <Gold.Chemscore.Hbond.Weighted>
-10.1439

> <Gold.Chemscore.Metal.Weighted>
-0.0000

> <Gold.Chemscore.Lipo.Weighted>
-5.9319

> <Gold.Chemscore.Internal_Hbond.Weighted>
0.0000

> <Gold.Chemscore.DEClash.Weighted>
0.1794

> <Gold.Chemscore.DEInternal.Weighted>
0.5524

> <Gold.Chemscore.Rot.Weighted>
7.0627

> <Gold.Chemscore.Internal.Correction.Weighted>
   9.000000E+99

> <Gold.Protein.RotatedTorsions>
[ 6907 6896 6895 6894 ] final   27.05 input  -60.11 | X-H torsion
[ 7974 7965 7964 7962 ] final   24.46 input  175.53 | X-H torsion
[ 8008 7997 7996 7995 ] final  104.56 input   59.86 | X-H torsion
[ 10167 10162 10161 10158 ] final  143.06 input  -65.29 | X-H torsion
[ 10718 10713 10712 10709 ] final -148.72 input   66.30 | X-H torsion
[ 10763 10752 10751 10750 ] final  172.86 input  -60.55 | X-H torsion
[ 11005 11000 10999 10996 ] final   85.20 input  -57.11 | X-H torsion

> <Gold.Protein.ActiveResidues>
 VAL166  LYS551  ARG553  GLY616  TRP617  ASP618  TYR619  PRO620  LYS621  CYS622 
 ASP623  PHE694  ASN695  SER759  ASP760  ASP761  ALA762  ILE779  LEU786  VAL792 
 PHE793  MET794  SER795  GLU796  ALA797  LYS798  CYS799  TRP800  GLU811  SER814 

> <Gold.Protein.RotatedAtoms>
  151.9965  134.9951  160.0563 H   0  0  0  0  0  0  0  0  0  0  0  0  # atno 6907 bound_to 6896
  152.1559  133.4546  159.4845 H   0  0  0  0  0  0  0  0  0  0  0  0  # atno 6908 bound_to 6896
  150.6881  134.2049  159.4379 H   0  0  0  0  0  0  0  0  0  0  0  0  # atno 6909 bound_to 6896
  146.1936  139.7602  142.8813 H   0  0  0  0  0  0  0  0  0  0  0  0  # atno 7974 bound_to 7965
  156.1583  140.3146  155.8763 H   0  0  0  0  0  0  0  0  0  0  0  0  # atno 8008 bound_to 7997
  155.3834  140.0489  157.3060 H   0  0  0  0  0  0  0  0  0  0  0  0  # atno 8009 bound_to 7997
  154.5122  140.2168  155.9145 H   0  0  0  0  0  0  0  0  0  0  0  0  # atno 8010 bound_to 7997
  139.4979  144.6066  151.6366 H   0  0  0  0  0  0  0  0  0  0  0  0  # atno 10167 bound_to 10162
  156.4239  130.8042  151.2266 H   0  0  0  0  0  0  0  0  0  0  0  0  # atno 10718 bound_to 10713
  154.4320  135.2760  155.1906 H   0  0  0  0  0  0  0  0  0  0  0  0  # atno 10763 bound_to 10752
  154.3808  135.6088  153.5793 H   0  0  0  0  0  0  0  0  0  0  0  0  # atno 10764 bound_to 10752
  152.9836  135.5880  154.4633 H   0  0  0  0  0  0  0  0  0  0  0  0  # atno 10765 bound_to 10752
  139.8978  134.8270  156.2550 H   0  0  0  0  0  0  0  0  0  0  0  0  # atno 11005 bound_to 11000
  145.3713  141.0343  143.3229 LP  0  0  0  0  0  0  0  0  0  0  0  0  # atno 17320 bound_to 7965
  144.8536  139.5284  143.6845 LP  0  0  0  0  0  0  0  0  0  0  0  0  # atno 17321 bound_to 7965
  140.5729  144.0078  150.6226 LP  0  0  0  0  0  0  0  0  0  0  0  0  # atno 17342 bound_to 10162
  140.3202  143.3142  152.0792 LP  0  0  0  0  0  0  0  0  0  0  0  0  # atno 17343 bound_to 10162
  157.7508  131.0219  150.3771 LP  0  0  0  0  0  0  0  0  0  0  0  0  # atno 17370 bound_to 10713
  156.4094  130.3931  149.6902 LP  0  0  0  0  0  0  0  0  0  0  0  0  # atno 17371 bound_to 10713
  141.0199  133.7047  156.1251 LP  0  0  0  0  0  0  0  0  0  0  0  0  # atno 17394 bound_to 11000
  140.7248  134.4319  157.5571 LP  0  0  0  0  0  0  0  0  0  0  0  0  # atno 17395 bound_to 11000

$$$$
