AV-unprocessed.smi:3333|AV-procd|sdf|12833|dock10
  -GOLD-   2272019213D 1   1.00000     0.00000
 Structure written by MMmdl.
 41 43  0  0  0  0  0  0  0  0  1 V2000
  144.2769  145.6322  157.2477 C   0  0  0  0  0  0  0  0  0  0  0  0
  144.3586  144.1030  157.1960 C   0  0  0  0  0  0  0  0  0  0  0  0
  145.0935  143.6088  155.9952 C   0  0  0  0  0  0  0  0  0  0  0  0
  146.1734  142.8259  156.0620 N   0  0  0  0  0  0  0  0  0  0  0  0
  146.7067  142.5325  154.8015 C   0  0  0  0  0  0  0  0  0  0  0  0
  147.9294  141.6693  154.6834 C   0  0  0  0  0  0  0  0  0  0  0  0
  148.4960  141.3824  156.0740 C   0  0  0  0  0  0  0  0  0  0  0  0
  148.3754  140.2629  156.5713 O   0  0  0  0  0  0  0  0  0  0  0  0
  149.1283  142.3991  156.6799 N   0  0  0  0  0  0  0  0  0  0  0  0
  149.8302  142.3140  157.9545 C   0  0  0  0  0  0  0  0  0  0  0  0
  151.2207  142.9803  157.8838 C   0  0  2  0  0  0  0  0  0  0  0  0
  152.2150  142.5009  158.9621 C   0  0  0  0  0  0  0  0  0  0  0  0
  152.7460  143.8231  159.5490 C   0  0  2  0  0  0  0  0  0  0  0  0
  151.6527  144.4586  160.4275 C   0  0  0  0  0  0  0  0  0  0  0  0
  150.6357  144.9644  159.3882 C   0  0  0  0  0  0  0  0  0  0  0  0
  151.2628  144.5192  158.0506 C   0  0  1  0  0  0  0  0  0  0  0  0
  152.7451  144.7423  158.3317 C   0  0  0  0  0  0  0  0  0  0  0  0
  146.0063  143.1109  153.7719 C   0  0  0  0  0  0  0  0  0  0  0  0
  144.6633  144.0577  154.3491 S   0  0  0  0  0  0  0  0  0  0  0  0
  143.7299  145.9626  158.1307 H   0  0  0  0  0  0  0  0  0  0  0  0
  143.7662  146.0297  156.3699 H   0  0  0  0  0  0  0  0  0  0  0  0
  145.2708  146.0764  157.2871 H   0  0  0  0  0  0  0  0  0  0  0  0
  144.8524  143.7265  158.0927 H   0  0  0  0  0  0  0  0  0  0  0  0
  143.3550  143.6769  157.1899 H   0  0  0  0  0  0  0  0  0  0  0  0
  147.6976  140.7294  154.1806 H   0  0  0  0  0  0  0  0  0  0  0  0
  148.6920  142.1623  154.0793 H   0  0  0  0  0  0  0  0  0  0  0  0
  149.1771  143.2819  156.1918 H   0  0  0  0  0  0  0  0  0  0  0  0
  149.2115  142.7877  158.7161 H   0  0  0  0  0  0  0  0  0  0  0  0
  149.9293  141.2706  158.2577 H   0  0  0  0  0  0  0  0  0  0  0  0
  151.6488  142.7451  156.9077 H   0  0  0  0  0  0  0  0  0  0  0  0
  151.7486  141.8756  159.7247 H   0  0  0  0  0  0  0  0  0  0  0  0
  153.0211  141.9225  158.5087 H   0  0  0  0  0  0  0  0  0  0  0  0
  153.7079  143.7233  160.0525 H   0  0  0  0  0  0  0  0  0  0  0  0
  151.2145  143.7438  161.1250 H   0  0  0  0  0  0  0  0  0  0  0  0
  152.0534  145.2907  161.0080 H   0  0  0  0  0  0  0  0  0  0  0  0
  149.6333  144.5700  159.5491 H   0  0  0  0  0  0  0  0  0  0  0  0
  150.5646  146.0517  159.4332 H   0  0  0  0  0  0  0  0  0  0  0  0
  150.8800  145.0612  157.1851 H   0  0  0  0  0  0  0  0  0  0  0  0
  152.9908  145.7787  158.5707 H   0  0  0  0  0  0  0  0  0  0  0  0
  153.3977  144.3966  157.5280 H   0  0  0  0  0  0  0  0  0  0  0  0
  146.2060  143.0455  152.7125 H   0  0  0  0  0  0  0  0  0  0  0  0
  1  2  1  0  0  0  0
  1 20  1  0  0  0  0
  1 21  1  0  0  0  0
  1 22  1  0  0  0  0
  2  3  1  0  0  0  0
  2 23  1  0  0  0  0
  2 24  1  0  0  0  0
  3 19  1  0  0  0  0
  3  4  2  0  0  0  0
  4  5  1  0  0  0  0
  5  6  1  0  0  0  0
  5 18  2  0  0  0  0
  6  7  1  0  0  0  0
  6 25  1  0  0  0  0
  6 26  1  0  0  0  0
  7  8  2  0  0  0  0
  7  9  1  0  0  0  0
  9 10  1  0  0  0  0
  9 27  1  0  0  0  0
 10 11  1  0  0  0  0
 10 28  1  0  0  0  0
 10 29  1  0  0  0  0
 11 16  1  0  0  0  0
 11 12  1  0  0  0  0
 11 30  1  0  0  0  0
 12 13  1  0  0  0  0
 12 31  1  0  0  0  0
 12 32  1  0  0  0  0
 13 17  1  0  0  0  0
 13 14  1  0  0  0  0
 13 33  1  0  0  0  0
 14 15  1  0  0  0  0
 14 34  1  0  0  0  0
 14 35  1  0  0  0  0
 15 16  1  0  0  0  0
 15 36  1  0  0  0  0
 15 37  1  0  0  0  0
 16 17  1  0  0  0  0
 16 38  1  0  0  0  0
 17 39  1  0  0  0  0
 17 40  1  0  0  0  0
 18 19  1  0  0  0  0
 18 41  1  0  0  0  0
M  END
> <s_m_source_file>
AV-unprocessed.smi

> <i_m_source_file_index>
3333

> <i_lp_mmshare_version>
43012

> <i_f3d_flags>
0

> <s_epik_input>
W0NIM11bQ0gyXWMxbmMoW2NIXXMxKVtDSDJdQyg9TylbTkhdW0NIMl1bQ0BIXShbQ0gyXVtDQEBIXTIzKVtDQEBIXShbQ0gyXTMpW0NIMl1bQ0gyXTI=

> <s_epik_cmdline>
J2VwaWtfcHl0aG9uJywgJy1waCcsICc3LjAnLCAnLXRuJywgJzgnLCAnLW1hJywgJzIwMCcsICctbWV0YWxfYmluZGluZycsICctaW1hZScsICc8aW5maWxlLm1hZT4nLCAnLW9tYWUnLCAnPG91dGZpbGUubWFlPic=

> <r_lp_tautomer_probability>
1

> <r_epik_Ionization_Penalty>
6.68371e-05

> <r_epik_Ionization_Penalty_Charging>
0

> <r_epik_Ionization_Penalty_Neutral>
6.68371e-05

> <r_epik_State_Penalty>
-0

> <r_epik_Charging_Adjusted_Penalty>
0

> <i_epik_Tot_Q>
0

> <i_epik_Tot_abs_Q>
0

> <r_epik_Metal_State_Penalty>
-0

> <b_epik_Metal_Only>
0

> <s_lp_Force_Field>
OPLS_2005

> <r_lp_Energy>
42.1731

> <b_lp_Chiralities_Consistent>
1

> <s_lp_Variant>
AV-unprocessed.smi:3333-3

> <Gold.Version>
5.8.1

> <Gold.Id.Protein>
6NUR|6NUR_protein|mol2

> <Gold.PLP.Fitness>
46.2747

> <Gold.PLP.PLP>
-44.2761

> <Gold.PLP.part.hbond>
-1.0000

> <Gold.PLP.part.metal>
0.0000

> <Gold.PLP.part.buried>
-5.7882

> <Gold.PLP.part.nonpolar>
-38.2683

> <Gold.PLP.part.repulsive>
0.1985

> <Gold.PLP.ligand.clash>
0.0000

> <Gold.PLP.ligand.torsion>
0.5102

> <Gold.PLP.Chemscore.Hbond>
1.0000

> <Gold.PLP.Chemscore.CHOScore>
0.0000

> <Gold.PLP.Chemscore.Metal>
0.0000

> <Gold.Chemscore.Hbonds>
donor molecule, donor type, donor heavy atom, donor atom, acceptor molecule, acceptor atom, score
      L1  H     9    27       P1  8028  1.00

> <Gold.PLP.Chemscore.Internal.Correction>
0.0191

> <Gold.Rescore>
     Score         DG    S(hbond)    S(metal)    S(lipo)     H(rot)  DE(clash)    DE(int)     intcor
     18.82     -19.51       1.00        0.00     122.64       1.42       0.07       0.62       ----

> <Gold.Chemscore.Fitness>
18.8217

> <Gold.Chemscore.DG>
-19.5117

> <Gold.Chemscore.ZeroCoef>
-5.4800

> <Gold.Chemscore.Hbond>
0.9954

> <Gold.Chemscore.Metal>
0.0000

> <Gold.Chemscore.Lipo>
122.6430

> <Gold.Chemscore.Internal_Hbond>
0.0000

> <Gold.Chemscore.DEClash>
0.0742

> <Gold.Chemscore.DEInternal>
0.6158

> <Gold.Chemscore.Rot>
1.4227

> <Gold.Chemscore.Internal.Correction>
   9.000000E+99

> <Gold.Chemscore.Hbonds>
donor molecule, donor type, donor heavy atom, donor atom, acceptor molecule, acceptor atom, score
      L1  H     9    27       P1  8028  0.96

> <Gold.Chemscore.Hbond.Weighted>
-3.3245

> <Gold.Chemscore.Metal.Weighted>
-0.0000

> <Gold.Chemscore.Lipo.Weighted>
-14.3492

> <Gold.Chemscore.Internal_Hbond.Weighted>
0.0000

> <Gold.Chemscore.DEClash.Weighted>
0.0742

> <Gold.Chemscore.DEInternal.Weighted>
0.6158

> <Gold.Chemscore.Rot.Weighted>
3.6421

> <Gold.Chemscore.Internal.Correction.Weighted>
   9.000000E+99

> <Gold.Protein.RotatedTorsions>
[ 6907 6896 6895 6894 ] final  120.31 input  -60.11 | X-H torsion
[ 7974 7965 7964 7962 ] final -151.56 input  175.53 | X-H torsion
[ 8008 7997 7996 7995 ] final  -19.63 input   59.86 | X-H torsion
[ 10167 10162 10161 10158 ] final   33.12 input  -65.29 | X-H torsion
[ 10718 10713 10712 10709 ] final  107.76 input   66.30 | X-H torsion
[ 10763 10752 10751 10750 ] final -143.55 input  -60.55 | X-H torsion
[ 11005 11000 10999 10996 ] final -175.49 input  -57.11 | X-H torsion

> <Gold.Protein.ActiveResidues>
 VAL166  LYS551  ARG553  GLY616  TRP617  ASP618  TYR619  PRO620  LYS621  CYS622 
 ASP623  PHE694  ASN695  SER759  ASP760  ASP761  ALA762  ILE779  LEU786  VAL792 
 PHE793  MET794  SER795  GLU796  ALA797  LYS798  CYS799  TRP800  GLU811  SER814 

> <Gold.Protein.RotatedAtoms>
  152.4407  133.7443  159.6658 H   0  0  0  0  0  0  0  0  0  0  0  0  # atno 6907 bound_to 6896
  150.8298  133.8100  159.3109 H   0  0  0  0  0  0  0  0  0  0  0  0  # atno 6908 bound_to 6896
  151.5758  135.1063  160.0057 H   0  0  0  0  0  0  0  0  0  0  0  0  # atno 6909 bound_to 6896
  144.7843  140.4780  143.5817 H   0  0  0  0  0  0  0  0  0  0  0  0  # atno 7974 bound_to 7965
  154.4824  140.2084  155.9733 H   0  0  0  0  0  0  0  0  0  0  0  0  # atno 8008 bound_to 7997
  156.1185  140.3217  155.8143 H   0  0  0  0  0  0  0  0  0  0  0  0  # atno 8009 bound_to 7997
  155.4510  140.0517  157.2992 H   0  0  0  0  0  0  0  0  0  0  0  0  # atno 8010 bound_to 7997
  140.4436  144.1151  150.6178 H   0  0  0  0  0  0  0  0  0  0  0  0  # atno 10167 bound_to 10162
  157.6615  131.0879  150.6204 H   0  0  0  0  0  0  0  0  0  0  0  0  # atno 10718 bound_to 10713
  154.8465  135.3465  154.6205 H   0  0  0  0  0  0  0  0  0  0  0  0  # atno 10763 bound_to 10752
  153.6814  135.6980  153.5121 H   0  0  0  0  0  0  0  0  0  0  0  0  # atno 10764 bound_to 10752
  153.2666  135.4306  155.0902 H   0  0  0  0  0  0  0  0  0  0  0  0  # atno 10765 bound_to 10752
  140.4627  134.6239  157.4849 H   0  0  0  0  0  0  0  0  0  0  0  0  # atno 11005 bound_to 11000
  145.5965  139.1500  143.3153 LP  0  0  0  0  0  0  0  0  0  0  0  0  # atno 17320 bound_to 7965
  146.2067  140.6089  142.9078 LP  0  0  0  0  0  0  0  0  0  0  0  0  # atno 17321 bound_to 7965
  140.4290  143.2577  151.9620 LP  0  0  0  0  0  0  0  0  0  0  0  0  # atno 17342 bound_to 10162
  139.4791  144.5762  151.8008 LP  0  0  0  0  0  0  0  0  0  0  0  0  # atno 17343 bound_to 10162
  156.6507  130.4484  149.5720 LP  0  0  0  0  0  0  0  0  0  0  0  0  # atno 17370 bound_to 10713
  156.2140  130.6696  151.1299 LP  0  0  0  0  0  0  0  0  0  0  0  0  # atno 17371 bound_to 10713
  139.9935  134.6948  155.9650 LP  0  0  0  0  0  0  0  0  0  0  0  0  # atno 17394 bound_to 11000
  141.1613  133.6539  156.4330 LP  0  0  0  0  0  0  0  0  0  0  0  0  # atno 17395 bound_to 11000

$$$$
