AV-unprocessed.smi:1174|AV-procd|sdf|4946|dock6
  -GOLD-   22720 3533D 1   1.00000     0.00000
 Structure written by MMmdl.
 41 42  0  0  0  0  0  0  0  0  1 V2000
  152.9187  144.2807  158.3607 C   0  0  0  0  0  0  0  0  0  0  0  0
  152.0720  143.0813  158.8106 C   0  0  2  0  0  0  0  0  0  0  0  0
  152.8664  142.1254  159.7224 C   0  0  0  0  0  0  0  0  0  0  0  0
  153.0121  142.6488  161.0707 N   0  0  0  0  0  0  0  0  0  0  0  0
  153.6899  142.0955  162.1364 C   0  0  0  0  0  0  0  0  0  0  0  0
  153.5712  142.9600  163.1869 C   0  0  0  0  0  0  0  0  0  0  0  0
  152.7939  144.0289  162.6591 C   0  0  0  0  0  0  0  0  0  0  0  0
  152.4573  143.8379  161.3939 N   0  0  0  0  0  0  0  0  0  0  0  0
  151.5788  142.3526  157.6452 N   0  0  0  0  0  0  0  0  0  0  0  0
  150.5268  141.5217  157.6297 C   0  0  0  0  0  0  0  0  0  0  0  0
  149.7659  141.3714  158.5861 O   0  0  0  0  0  0  0  0  0  0  0  0
  150.3285  140.7121  156.3432 C   0  0  2  0  0  0  0  0  0  0  0  0
  149.1053  141.2023  155.5354 C   0  0  0  0  0  0  0  0  0  0  0  0
  148.8363  140.2995  154.3157 C   0  0  0  0  0  0  0  0  0  0  0  0
  148.7785  138.8161  154.7264 C   0  0  0  0  0  0  0  0  0  0  0  0
  150.0321  138.4626  155.4147 N   0  0  0  0  0  0  0  0  0  0  0  0
  151.0456  137.7172  154.9065 C   0  0  0  0  0  0  0  0  0  0  0  0
  150.8120  137.1820  153.7042 N   0  0  0  0  0  0  0  0  0  0  0  0
  152.1004  137.4998  155.5011 O   0  0  0  0  0  0  0  0  0  0  0  0
  150.1782  139.2100  156.6694 C   0  0  0  0  0  0  0  0  0  0  0  0
  153.2836  144.8451  159.2192 H   0  0  0  0  0  0  0  0  0  0  0  0
  152.3355  144.9648  157.7432 H   0  0  0  0  0  0  0  0  0  0  0  0
  153.7839  143.9610  157.7789 H   0  0  0  0  0  0  0  0  0  0  0  0
  151.2255  143.4616  159.3856 H   0  0  0  0  0  0  0  0  0  0  0  0
  152.3840  141.1473  159.7687 H   0  0  0  0  0  0  0  0  0  0  0  0
  153.8646  141.9613  159.3149 H   0  0  0  0  0  0  0  0  0  0  0  0
  154.1989  141.1462  162.0572 H   0  0  0  0  0  0  0  0  0  0  0  0
  153.9803  142.8484  164.1800 H   0  0  0  0  0  0  0  0  0  0  0  0
  152.4663  144.9311  163.1543 H   0  0  0  0  0  0  0  0  0  0  0  0
  152.1422  142.4083  156.8089 H   0  0  0  0  0  0  0  0  0  0  0  0
  151.2169  140.8366  155.7202 H   0  0  0  0  0  0  0  0  0  0  0  0
  148.2175  141.2066  156.1694 H   0  0  0  0  0  0  0  0  0  0  0  0
  149.2553  142.2318  155.2075 H   0  0  0  0  0  0  0  0  0  0  0  0
  147.9034  140.5928  153.8335 H   0  0  0  0  0  0  0  0  0  0  0  0
  149.6252  140.4409  153.5760 H   0  0  0  0  0  0  0  0  0  0  0  0
  147.9404  138.6521  155.4052 H   0  0  0  0  0  0  0  0  0  0  0  0
  148.5659  138.2011  153.8523 H   0  0  0  0  0  0  0  0  0  0  0  0
  151.5193  136.6160  153.2589 H   0  0  0  0  0  0  0  0  0  0  0  0
  149.9279  137.3494  153.2464 H   0  0  0  0  0  0  0  0  0  0  0  0
  151.0263  138.8624  157.2626 H   0  0  0  0  0  0  0  0  0  0  0  0
  149.2977  139.0382  157.2909 H   0  0  0  0  0  0  0  0  0  0  0  0
  1  2  1  0  0  0  0
  1 21  1  0  0  0  0
  1 22  1  0  0  0  0
  1 23  1  0  0  0  0
  2  3  1  0  0  0  0
  2  9  1  0  0  0  0
  2 24  1  0  0  0  0
  3  4  1  0  0  0  0
  3 25  1  0  0  0  0
  3 26  1  0  0  0  0
  4  8  1  0  0  0  0
  4  5  1  0  0  0  0
  5  6  2  0  0  0  0
  5 27  1  0  0  0  0
  6  7  1  0  0  0  0
  6 28  1  0  0  0  0
  7  8  2  0  0  0  0
  7 29  1  0  0  0  0
  9 10  1  0  0  0  0
  9 30  1  0  0  0  0
 10 11  2  0  0  0  0
 10 12  1  0  0  0  0
 12 20  1  0  0  0  0
 12 13  1  0  0  0  0
 12 31  1  0  0  0  0
 13 14  1  0  0  0  0
 13 32  1  0  0  0  0
 13 33  1  0  0  0  0
 14 15  1  0  0  0  0
 14 34  1  0  0  0  0
 14 35  1  0  0  0  0
 15 16  1  0  0  0  0
 15 36  1  0  0  0  0
 15 37  1  0  0  0  0
 16 17  1  0  0  0  0
 16 20  1  0  0  0  0
 17 18  1  0  0  0  0
 17 19  2  0  0  0  0
 18 38  1  0  0  0  0
 18 39  1  0  0  0  0
 20 40  1  0  0  0  0
 20 41  1  0  0  0  0
M  END
> <s_m_source_file>
AV-unprocessed.smi

> <i_m_source_file_index>
1174

> <i_lp_mmshare_version>
43012

> <i_f3d_flags>
0

> <s_epik_input>
bjFbY0hdW2NIXVtjSF1uMVtDSDJdW0NAQEhdKFtDSDNdKVtOSF1DKD1PKVtDQEBIXTJbQ0gyXVtDSDJdW0NIMl1OKFtDSDJdMilDKD1PKVtOSDJd

> <s_epik_cmdline>
J2VwaWtfcHl0aG9uJywgJy1waCcsICc3LjAnLCAnLXRuJywgJzgnLCAnLW1hJywgJzIwMCcsICctbWV0YWxfYmluZGluZycsICctaW1hZScsICc8aW5maWxlLm1hZT4nLCAnLW9tYWUnLCAnPG91dGZpbGUubWFlPic=

> <r_lp_tautomer_probability>
1

> <r_epik_Ionization_Penalty>
0.000372452

> <r_epik_Ionization_Penalty_Charging>
0

> <r_epik_Ionization_Penalty_Neutral>
0.000372452

> <r_epik_State_Penalty>
-0

> <r_epik_Charging_Adjusted_Penalty>
0

> <i_epik_Tot_Q>
0

> <i_epik_Tot_abs_Q>
0

> <r_epik_Metal_State_Penalty>
-0

> <b_epik_Metal_Only>
0

> <s_lp_Force_Field>
OPLS_2005

> <r_lp_Energy>
26.8287

> <b_lp_Chiralities_Consistent>
1

> <s_lp_Variant>
AV-unprocessed.smi:1174-1

> <Gold.Version>
5.8.1

> <Gold.Id.Protein>
6NUR|6NUR_protein|mol2

> <Gold.PLP.Fitness>
43.5147

> <Gold.PLP.PLP>
-41.3898

> <Gold.PLP.part.hbond>
-2.7886

> <Gold.PLP.part.metal>
0.0000

> <Gold.PLP.part.buried>
-2.0917

> <Gold.PLP.part.nonpolar>
-37.5642

> <Gold.PLP.part.repulsive>
0.3359

> <Gold.PLP.ligand.clash>
0.0000

> <Gold.PLP.ligand.torsion>
0.6343

> <Gold.PLP.Chemscore.Hbond>
1.1019

> <Gold.PLP.Chemscore.CHOScore>
0.0000

> <Gold.PLP.Chemscore.Metal>
0.0000

> <Gold.Chemscore.Hbonds>
donor molecule, donor type, donor heavy atom, donor atom, acceptor molecule, acceptor atom, score
      L1  H    18    38       P1  7949  0.37
      L1  H    18    39       P1  7948  0.58
      P1  H 10752 10765       L1    19  0.38

> <Gold.PLP.Chemscore.Internal.Correction>
0.0877

> <Gold.Rescore>
     Score         DG    S(hbond)    S(metal)    S(lipo)     H(rot)  DE(clash)    DE(int)     intcor
     14.80     -16.00       1.22        0.00      94.81       1.82       0.68       0.52       ----

> <Gold.Chemscore.Fitness>
14.8018

> <Gold.Chemscore.DG>
-15.9996

> <Gold.Chemscore.ZeroCoef>
-5.4800

> <Gold.Chemscore.Hbond>
1.2238

> <Gold.Chemscore.Metal>
0.0000

> <Gold.Chemscore.Lipo>
94.8086

> <Gold.Chemscore.Internal_Hbond>
0.0000

> <Gold.Chemscore.DEClash>
0.6810

> <Gold.Chemscore.DEInternal>
0.5168

> <Gold.Chemscore.Rot>
1.8206

> <Gold.Chemscore.Internal.Correction>
   9.000000E+99

> <Gold.Chemscore.Hbonds>
donor molecule, donor type, donor heavy atom, donor atom, acceptor molecule, acceptor atom, score
      L1  H    18    38       P1  7949  0.33
      L1  H    18    39       P1  7948  0.20
      P1  H 10752 10765       L1    19  0.28

> <Gold.Chemscore.Hbond.Weighted>
-4.0876

> <Gold.Chemscore.Metal.Weighted>
-0.0000

> <Gold.Chemscore.Lipo.Weighted>
-11.0926

> <Gold.Chemscore.Internal_Hbond.Weighted>
0.0000

> <Gold.Chemscore.DEClash.Weighted>
0.6810

> <Gold.Chemscore.DEInternal.Weighted>
0.5168

> <Gold.Chemscore.Rot.Weighted>
4.6607

> <Gold.Chemscore.Internal.Correction.Weighted>
   9.000000E+99

> <Gold.Protein.RotatedTorsions>
[ 6907 6896 6895 6894 ] final   32.01 input  -60.11 | X-H torsion
[ 7974 7965 7964 7962 ] final  143.90 input  175.53 | X-H torsion
[ 8008 7997 7996 7995 ] final -170.43 input   59.86 | X-H torsion
[ 10167 10162 10161 10158 ] final   20.20 input  -65.29 | X-H torsion
[ 10718 10713 10712 10709 ] final  -32.42 input   66.30 | X-H torsion
[ 10763 10752 10751 10750 ] final -168.09 input  -60.55 | X-H torsion
[ 11005 11000 10999 10996 ] final   44.55 input  -57.11 | X-H torsion

> <Gold.Protein.ActiveResidues>
 VAL166  LYS551  ARG553  GLY616  TRP617  ASP618  TYR619  PRO620  LYS621  CYS622 
 ASP623  PHE694  ASN695  SER759  ASP760  ASP761  ALA762  ILE779  LEU786  VAL792 
 PHE793  MET794  SER795  GLU796  ALA797  LYS798  CYS799  TRP800  GLU811  SER814 

> <Gold.Protein.RotatedAtoms>
  152.0685  134.9549  160.0574 H   0  0  0  0  0  0  0  0  0  0  0  0  # atno 6907 bound_to 6896
  152.0884  133.4183  159.4541 H   0  0  0  0  0  0  0  0  0  0  0  0  # atno 6908 bound_to 6896
  150.6836  134.2819  159.4674 H   0  0  0  0  0  0  0  0  0  0  0  0  # atno 6909 bound_to 6896
  144.8881  139.5598  143.5811 H   0  0  0  0  0  0  0  0  0  0  0  0  # atno 7974 bound_to 7965
  155.9183  140.1069  157.1227 H   0  0  0  0  0  0  0  0  0  0  0  0  # atno 8008 bound_to 7997
  154.4050  140.1261  156.4711 H   0  0  0  0  0  0  0  0  0  0  0  0  # atno 8009 bound_to 7997
  155.7227  140.3469  155.5025 H   0  0  0  0  0  0  0  0  0  0  0  0  # atno 8010 bound_to 7997
  140.5521  143.9490  150.6585 H   0  0  0  0  0  0  0  0  0  0  0  0  # atno 10167 bound_to 10162
  156.3752  130.4346  149.7513 H   0  0  0  0  0  0  0  0  0  0  0  0  # atno 10718 bound_to 10713
  154.6665  135.2933  154.9798 H   0  0  0  0  0  0  0  0  0  0  0  0  # atno 10763 bound_to 10752
  154.0840  135.6600  153.4846 H   0  0  0  0  0  0  0  0  0  0  0  0  # atno 10764 bound_to 10752
  153.0461  135.5204  154.7641 H   0  0  0  0  0  0  0  0  0  0  0  0  # atno 10765 bound_to 10752
  140.1541  134.4424  155.8361 H   0  0  0  0  0  0  0  0  0  0  0  0  # atno 11005 bound_to 11000
  146.3037  139.7509  142.9072 LP  0  0  0  0  0  0  0  0  0  0  0  0  # atno 17320 bound_to 7965
  145.3832  141.0361  143.3166 LP  0  0  0  0  0  0  0  0  0  0  0  0  # atno 17321 bound_to 7965
  140.2918  143.3319  152.1055 LP  0  0  0  0  0  0  0  0  0  0  0  0  # atno 17342 bound_to 10162
  139.5032  144.6750  151.6150 LP  0  0  0  0  0  0  0  0  0  0  0  0  # atno 17343 bound_to 10162
  156.4625  130.7959  151.2978 LP  0  0  0  0  0  0  0  0  0  0  0  0  # atno 17370 bound_to 10713
  157.7487  131.0061  150.3139 LP  0  0  0  0  0  0  0  0  0  0  0  0  # atno 17371 bound_to 10713
  141.2202  133.6885  156.7476 LP  0  0  0  0  0  0  0  0  0  0  0  0  # atno 17394 bound_to 11000
  140.2568  134.8497  157.3721 LP  0  0  0  0  0  0  0  0  0  0  0  0  # atno 17395 bound_to 11000

$$$$
