AV-unprocessed.smi:1584|AV-procd|sdf|6366|dock1
  -GOLD-   22720 6593D 1   1.00000     0.00000
 Structure written by MMmdl.
 39 40  0  0  0  0  0  0  0  0  1 V2000
  151.0238  139.8840  157.7792 C   0  0  0  0  0  0  0  0  0  0  0  0
  150.2048  141.1580  157.5319 C   0  0  1  0  0  0  0  0  0  0  0  0
  151.0818  142.2848  156.9427 C   0  0  0  0  0  0  0  0  0  0  0  0
  151.7083  143.1057  157.9645 N   0  0  0  0  0  0  0  0  0  0  0  0
  151.5962  144.4667  158.1581 C   0  0  0  0  0  0  0  0  0  0  0  0
  152.3454  144.7842  159.2543 C   0  0  0  0  0  0  0  0  0  0  0  0
  152.8904  143.5351  159.6640 C   0  0  0  0  0  0  0  0  0  0  0  0
  152.5119  142.5334  158.8867 N   0  0  0  0  0  0  0  0  0  0  0  0
  149.0946  140.8428  156.6334 N   0  0  0  0  0  0  0  0  0  0  0  0
  149.2063  140.5232  155.3340 C   0  0  0  0  0  0  0  0  0  0  0  0
  150.2795  140.5178  154.7299 O   0  0  0  0  0  0  0  0  0  0  0  0
  147.9052  140.1344  154.6116 C   0  0  2  0  0  0  0  0  0  0  0  0
  147.5135  141.1489  153.5277 C   0  0  0  0  0  0  0  0  0  0  0  0
  146.9942  142.4589  154.1356 C   0  0  0  0  0  0  0  0  0  0  0  0
  145.9841  142.2488  155.1804 N   0  0  0  0  0  0  0  0  0  0  0  0
  145.1422  143.4113  155.4685 C   0  0  0  0  0  0  0  0  0  0  0  0
  145.8412  141.1059  155.8948 C   0  0  0  0  0  0  0  0  0  0  0  0
  144.9980  140.9891  156.7849 O   0  0  0  0  0  0  0  0  0  0  0  0
  146.7364  139.8882  155.5931 C   0  0  0  0  0  0  0  0  0  0  0  0
  151.8465  140.0753  158.4688 H   0  0  0  0  0  0  0  0  0  0  0  0
  151.4498  139.4978  156.8525 H   0  0  0  0  0  0  0  0  0  0  0  0
  150.4062  139.0985  158.2157 H   0  0  0  0  0  0  0  0  0  0  0  0
  149.8185  141.4834  158.4997 H   0  0  0  0  0  0  0  0  0  0  0  0
  151.8713  141.8602  156.3208 H   0  0  0  0  0  0  0  0  0  0  0  0
  150.4888  142.9298  156.2927 H   0  0  0  0  0  0  0  0  0  0  0  0
  150.9912  145.0867  157.5132 H   0  0  0  0  0  0  0  0  0  0  0  0
  152.4815  145.7591  159.6979 H   0  0  0  0  0  0  0  0  0  0  0  0
  153.5457  143.3279  160.4970 H   0  0  0  0  0  0  0  0  0  0  0  0
  148.1715  140.8296  157.0424 H   0  0  0  0  0  0  0  0  0  0  0  0
  148.1021  139.1858  154.1089 H   0  0  0  0  0  0  0  0  0  0  0  0
  148.3570  141.3543  152.8670 H   0  0  0  0  0  0  0  0  0  0  0  0
  146.7367  140.7136  152.8975 H   0  0  0  0  0  0  0  0  0  0  0  0
  147.8189  143.0275  154.5669 H   0  0  0  0  0  0  0  0  0  0  0  0
  146.5825  143.0753  153.3354 H   0  0  0  0  0  0  0  0  0  0  0  0
  145.2091  143.6868  156.5220 H   0  0  0  0  0  0  0  0  0  0  0  0
  144.0987  143.1934  155.2380 H   0  0  0  0  0  0  0  0  0  0  0  0
  145.4342  144.2874  154.8883 H   0  0  0  0  0  0  0  0  0  0  0  0
  146.0868  139.1203  155.1718 H   0  0  0  0  0  0  0  0  0  0  0  0
  147.1003  139.4767  156.5360 H   0  0  0  0  0  0  0  0  0  0  0  0
  1  2  1  0  0  0  0
  1 20  1  0  0  0  0
  1 21  1  0  0  0  0
  1 22  1  0  0  0  0
  2  3  1  0  0  0  0
  2  9  1  0  0  0  0
  2 23  1  0  0  0  0
  3  4  1  0  0  0  0
  3 24  1  0  0  0  0
  3 25  1  0  0  0  0
  4  8  1  0  0  0  0
  4  5  1  0  0  0  0
  5  6  2  0  0  0  0
  5 26  1  0  0  0  0
  6  7  1  0  0  0  0
  6 27  1  0  0  0  0
  7  8  2  0  0  0  0
  7 28  1  0  0  0  0
  9 10  1  0  0  0  0
  9 29  1  0  0  0  0
 10 11  2  0  0  0  0
 10 12  1  0  0  0  0
 12 19  1  0  0  0  0
 12 13  1  0  0  0  0
 12 30  1  0  0  0  0
 13 14  1  0  0  0  0
 13 31  1  0  0  0  0
 13 32  1  0  0  0  0
 14 15  1  0  0  0  0
 14 33  1  0  0  0  0
 14 34  1  0  0  0  0
 15 16  1  0  0  0  0
 15 17  1  0  0  0  0
 16 35  1  0  0  0  0
 16 36  1  0  0  0  0
 16 37  1  0  0  0  0
 17 18  2  0  0  0  0
 17 19  1  0  0  0  0
 19 38  1  0  0  0  0
 19 39  1  0  0  0  0
M  END
> <s_m_source_file>
AV-unprocessed.smi

> <i_m_source_file_index>
1584

> <i_lp_mmshare_version>
43012

> <i_f3d_flags>
0

> <s_epik_input>
bjFbY0hdW2NIXVtjSF1uMVtDSDJdW0NAQEhdKFtDSDNdKVtOSF1DKD1PKVtDQEBIXTJbQ0gyXVtDSDJdTihbQ0gzXSlDKD1PKVtDSDJdMg==

> <s_epik_cmdline>
J2VwaWtfcHl0aG9uJywgJy1waCcsICc3LjAnLCAnLXRuJywgJzgnLCAnLW1hJywgJzIwMCcsICctbWV0YWxfYmluZGluZycsICctaW1hZScsICc8aW5maWxlLm1hZT4nLCAnLW9tYWUnLCAnPG91dGZpbGUubWFlPic=

> <r_lp_tautomer_probability>
1

> <r_epik_Ionization_Penalty>
0.000299422

> <r_epik_Ionization_Penalty_Charging>
0

> <r_epik_Ionization_Penalty_Neutral>
0.000299422

> <r_epik_State_Penalty>
-0

> <r_epik_Charging_Adjusted_Penalty>
0

> <i_epik_Tot_Q>
0

> <i_epik_Tot_abs_Q>
0

> <r_epik_Metal_State_Penalty>
-0

> <b_epik_Metal_Only>
0

> <s_lp_Force_Field>
OPLS_2005

> <r_lp_Energy>
11.5075

> <b_lp_Chiralities_Consistent>
1

> <s_lp_Variant>
AV-unprocessed.smi:1584-2

> <Gold.Version>
5.8.1

> <Gold.Id.Protein>
6NUR|6NUR_protein|mol2

> <Gold.PLP.Fitness>
41.5201

> <Gold.PLP.PLP>
-36.8758

> <Gold.PLP.part.hbond>
-1.0000

> <Gold.PLP.part.metal>
0.0000

> <Gold.PLP.part.buried>
-6.8512

> <Gold.PLP.part.nonpolar>
-30.2055

> <Gold.PLP.part.repulsive>
0.1400

> <Gold.PLP.ligand.clash>
0.0510

> <Gold.PLP.ligand.torsion>
0.6173

> <Gold.PLP.Chemscore.Hbond>
0.9760

> <Gold.PLP.Chemscore.CHOScore>
0.9820

> <Gold.PLP.Chemscore.Metal>
0.0000

> <Gold.Chemscore.Hbonds>
donor molecule, donor type, donor heavy atom, donor atom, acceptor molecule, acceptor atom, score
      P1  H  7989  7998       L1    11  0.96
      L1  C     5    26       P1  8028  0.38

> <Gold.PLP.Chemscore.Internal.Correction>
0.0560

> <Gold.Rescore>
     Score         DG    S(hbond)    S(metal)    S(lipo)     H(rot)  DE(clash)    DE(int)     intcor
     12.85     -14.19       0.97        0.00      83.38       1.67       0.04       1.29       ----

> <Gold.Chemscore.Fitness>
12.8505

> <Gold.Chemscore.DG>
-14.1884

> <Gold.Chemscore.ZeroCoef>
-5.4800

> <Gold.Chemscore.Hbond>
0.9693

> <Gold.Chemscore.Metal>
0.0000

> <Gold.Chemscore.Lipo>
83.3762

> <Gold.Chemscore.Internal_Hbond>
0.0000

> <Gold.Chemscore.DEClash>
0.0429

> <Gold.Chemscore.DEInternal>
1.2950

> <Gold.Chemscore.Rot>
1.6734

> <Gold.Chemscore.Internal.Correction>
   9.000000E+99

> <Gold.Chemscore.Hbonds>
donor molecule, donor type, donor heavy atom, donor atom, acceptor molecule, acceptor atom, score
      P1  H  7989  7998       L1    11  0.92

> <Gold.Chemscore.Hbond.Weighted>
-3.2373

> <Gold.Chemscore.Metal.Weighted>
-0.0000

> <Gold.Chemscore.Lipo.Weighted>
-9.7550

> <Gold.Chemscore.Internal_Hbond.Weighted>
0.0000

> <Gold.Chemscore.DEClash.Weighted>
0.0429

> <Gold.Chemscore.DEInternal.Weighted>
1.2950

> <Gold.Chemscore.Rot.Weighted>
4.2840

> <Gold.Chemscore.Internal.Correction.Weighted>
   9.000000E+99

> <Gold.Protein.RotatedTorsions>
[ 6907 6896 6895 6894 ] final  144.50 input  -60.11 | X-H torsion
[ 7974 7965 7964 7962 ] final  160.11 input  175.53 | X-H torsion
[ 8008 7997 7996 7995 ] final   27.25 input   59.86 | X-H torsion
[ 10167 10162 10161 10158 ] final  161.75 input  -65.29 | X-H torsion
[ 10718 10713 10712 10709 ] final -113.68 input   66.30 | X-H torsion
[ 10763 10752 10751 10750 ] final  -69.21 input  -60.55 | X-H torsion
[ 11005 11000 10999 10996 ] final   45.56 input  -57.11 | X-H torsion

> <Gold.Protein.ActiveResidues>
 VAL166  LYS551  ARG553  GLY616  TRP617  ASP618  TYR619  PRO620  LYS621  CYS622 
 ASP623  PHE694  ASN695  SER759  ASP760  ASP761  ALA762  ILE779  LEU786  VAL792 
 PHE793  MET794  SER795  GLU796  ALA797  LYS798  CYS799  TRP800  GLU811  SER814 

> <Gold.Protein.RotatedAtoms>
  152.1929  133.4786  159.5017 H   0  0  0  0  0  0  0  0  0  0  0  0  # atno 6907 bound_to 6896
  150.6954  134.1689  159.4214 H   0  0  0  0  0  0  0  0  0  0  0  0  # atno 6908 bound_to 6896
  151.9604  135.0126  160.0598 H   0  0  0  0  0  0  0  0  0  0  0  0  # atno 6909 bound_to 6896
  144.7754  139.7712  143.6281 H   0  0  0  0  0  0  0  0  0  0  0  0  # atno 7974 bound_to 7965
  155.0401  140.3168  155.4728 H   0  0  0  0  0  0  0  0  0  0  0  0  # atno 8008 bound_to 7997
  156.2856  140.2164  156.5467 H   0  0  0  0  0  0  0  0  0  0  0  0  # atno 8009 bound_to 7997
  154.7297  140.0482  157.0703 H   0  0  0  0  0  0  0  0  0  0  0  0  # atno 8010 bound_to 7997
  139.4853  144.4506  151.8835 H   0  0  0  0  0  0  0  0  0  0  0  0  # atno 10167 bound_to 10162
  156.0782  130.5986  150.8674 H   0  0  0  0  0  0  0  0  0  0  0  0  # atno 10718 bound_to 10713
  154.4001  135.6033  153.5892 H   0  0  0  0  0  0  0  0  0  0  0  0  # atno 10763 bound_to 10752
  152.9788  135.5904  154.4194 H   0  0  0  0  0  0  0  0  0  0  0  0  # atno 10764 bound_to 10752
  154.3991  135.2842  155.2085 H   0  0  0  0  0  0  0  0  0  0  0  0  # atno 10765 bound_to 10752
  140.1449  134.4536  155.8423 H   0  0  0  0  0  0  0  0  0  0  0  0  # atno 11005 bound_to 11000
  146.1930  139.5180  142.9793 LP  0  0  0  0  0  0  0  0  0  0  0  0  # atno 17320 bound_to 7965
  145.6202  141.0324  143.1919 LP  0  0  0  0  0  0  0  0  0  0  0  0  # atno 17321 bound_to 7965
  140.3962  144.2552  150.5896 LP  0  0  0  0  0  0  0  0  0  0  0  0  # atno 17342 bound_to 10162
  140.5100  143.2293  151.8550 LP  0  0  0  0  0  0  0  0  0  0  0  0  # atno 17343 bound_to 10162
  157.5887  131.0945  150.9155 LP  0  0  0  0  0  0  0  0  0  0  0  0  # atno 17370 bound_to 10713
  156.9335  130.5358  149.5279 LP  0  0  0  0  0  0  0  0  0  0  0  0  # atno 17371 bound_to 10713
  141.2191  133.6848  156.7315 LP  0  0  0  0  0  0  0  0  0  0  0  0  # atno 17394 bound_to 11000
  140.2676  134.8417  157.3817 LP  0  0  0  0  0  0  0  0  0  0  0  0  # atno 17395 bound_to 11000

$$$$
