AV-unprocessed.smi:148|AV-procd|sdf|1229|dock2
  -GOLD-   2262018433D 1   1.00000     0.00000
 Structure written by MMmdl.
 63 67  0  0  0  0  0  0  0  0  1 V2000
  150.7189  141.8228  155.4300 O   0  0  0  0  0  0  0  0  0  0  0  0
  151.3400  142.2083  156.6387 C   0  0  0  0  0  0  0  0  0  0  0  0
  151.1753  141.1210  157.7292 C   0  0  1  0  0  0  0  0  0  0  0  0
  151.9457  139.8197  157.3838 C   0  0  0  0  0  0  0  0  0  0  0  0
  151.1628  138.6139  157.5910 N   0  0  0  0  0  0  0  0  0  0  0  0
  150.8035  138.0640  158.8012 C   0  0  0  0  0  0  0  0  0  0  0  0
  150.1042  136.9638  158.7271 N   0  0  0  0  0  0  0  0  0  0  0  0
  149.9744  136.7401  157.3626 C   0  0  0  0  0  0  0  0  0  0  0  0
  149.3541  135.7297  156.5828 C   0  0  0  0  0  0  0  0  0  0  0  0
  148.7163  134.6782  157.1471 N   0  0  0  0  0  0  0  0  0  0  0  0
  147.6133  135.1572  157.9821 C   0  0  0  0  0  0  0  0  0  0  0  0
  146.9782  134.0186  158.7906 C   0  0  0  0  0  0  0  0  0  0  0  0
  146.5323  132.8891  157.8571 C   0  0  0  0  0  0  0  0  0  0  0  0
  147.7279  132.4017  157.0302 C   0  0  0  0  0  0  0  0  0  0  0  0
  148.3928  133.5605  156.2386 C   0  0  2  0  0  0  0  0  0  0  0  0
  149.6051  133.0925  155.3600 C   0  0  2  0  0  0  0  0  0  0  0  0
  149.1777  132.1594  154.2030 C   0  0  0  0  0  0  0  0  0  0  0  0
  150.0409  130.8943  154.2983 C   0  0  0  0  0  0  0  0  0  0  0  0
  150.5540  130.8643  155.7353 C   0  0  0  0  0  0  0  0  0  0  0  0
  150.7639  132.3410  156.0622 C   0  0  2  0  0  0  0  0  0  0  0  0
  150.9108  132.5685  157.4489 O   0  0  0  0  0  0  0  0  0  0  0  0
  149.4229  135.8366  155.2290 N   0  0  0  0  0  0  0  0  0  0  0  0
  150.0695  136.8661  154.6739 C   0  0  0  0  0  0  0  0  0  0  0  0
  150.7051  137.8749  155.2747 N   0  0  0  0  0  0  0  0  0  0  0  0
  150.6313  137.7689  156.6328 C   0  0  0  0  0  0  0  0  0  0  0  0
  151.5036  141.6799  159.1432 C   0  0  1  0  0  0  0  0  0  0  0  0
  152.7127  141.0935  159.8502 C   0  0  0  0  0  0  0  0  0  0  0  0
  152.9054  142.0939  160.9839 C   0  0  0  0  0  0  0  0  0  0  0  0
  152.5675  143.3593  160.4253 O   0  0  0  0  0  0  0  0  0  0  0  0
  151.7855  143.1836  159.2455 C   0  0  0  0  0  0  0  0  0  0  0  0
  150.3592  140.9558  155.5397 H   0  0  0  0  0  0  0  0  0  0  0  0
  152.3902  142.3860  156.4091 H   0  0  0  0  0  0  0  0  0  0  0  0
  150.9239  143.1595  156.9713 H   0  0  0  0  0  0  0  0  0  0  0  0
  150.1179  140.8517  157.7418 H   0  0  0  0  0  0  0  0  0  0  0  0
  152.2828  139.8299  156.3480 H   0  0  0  0  0  0  0  0  0  0  0  0
  152.8401  139.7252  157.9983 H   0  0  0  0  0  0  0  0  0  0  0  0
  151.0795  138.5080  159.7466 H   0  0  0  0  0  0  0  0  0  0  0  0
  147.9739  135.9282  158.6649 H   0  0  0  0  0  0  0  0  0  0  0  0
  146.8546  135.6225  157.3506 H   0  0  0  0  0  0  0  0  0  0  0  0
  147.6964  133.6363  159.5173 H   0  0  0  0  0  0  0  0  0  0  0  0
  146.1272  134.3937  159.3595 H   0  0  0  0  0  0  0  0  0  0  0  0
  146.1134  132.0652  158.4357 H   0  0  0  0  0  0  0  0  0  0  0  0
  145.7417  133.2427  157.1944 H   0  0  0  0  0  0  0  0  0  0  0  0
  148.4435  131.9403  157.7091 H   0  0  0  0  0  0  0  0  0  0  0  0
  147.3939  131.6100  156.3614 H   0  0  0  0  0  0  0  0  0  0  0  0
  147.6367  133.9436  155.5515 H   0  0  0  0  0  0  0  0  0  0  0  0
  150.0426  133.9692  154.8829 H   0  0  0  0  0  0  0  0  0  0  0  0
  148.1225  131.8967  154.2649 H   0  0  0  0  0  0  0  0  0  0  0  0
  149.3124  132.6437  153.2352 H   0  0  0  0  0  0  0  0  0  0  0  0
  149.4894  129.9917  154.0336 H   0  0  0  0  0  0  0  0  0  0  0  0
  150.8858  130.9771  153.6134 H   0  0  0  0  0  0  0  0  0  0  0  0
  149.7978  130.4279  156.3886 H   0  0  0  0  0  0  0  0  0  0  0  0
  151.4663  130.2768  155.8424 H   0  0  0  0  0  0  0  0  0  0  0  0
  151.6983  132.6548  155.5941 H   0  0  0  0  0  0  0  0  0  0  0  0
  151.6876  132.1200  157.7477 H   0  0  0  0  0  0  0  0  0  0  0  0
  150.0824  136.8823  153.5940 H   0  0  0  0  0  0  0  0  0  0  0  0
  150.6496  141.4716  159.7898 H   0  0  0  0  0  0  0  0  0  0  0  0
  152.5515  140.0754  160.2052 H   0  0  0  0  0  0  0  0  0  0  0  0
  153.5987  141.1014  159.2170 H   0  0  0  0  0  0  0  0  0  0  0  0
  152.2185  141.8781  161.8034 H   0  0  0  0  0  0  0  0  0  0  0  0
  153.9204  142.0898  161.3814 H   0  0  0  0  0  0  0  0  0  0  0  0
  152.3670  143.5501  158.4007 H   0  0  0  0  0  0  0  0  0  0  0  0
  150.8668  143.7685  159.2971 H   0  0  0  0  0  0  0  0  0  0  0  0
  1  2  1  0  0  0  0
  1 31  1  0  0  0  0
  2  3  1  0  0  0  0
  2 32  1  0  0  0  0
  2 33  1  0  0  0  0
  3  4  1  0  0  0  0
  3 26  1  0  0  0  0
  3 34  1  0  0  0  0
  4  5  1  0  0  0  0
  4 35  1  0  0  0  0
  4 36  1  0  0  0  0
  5 25  1  0  0  0  0
  5  6  1  0  0  0  0
  6  7  2  0  0  0  0
  6 37  1  0  0  0  0
  7  8  1  0  0  0  0
  8 25  2  0  0  0  0
  8  9  1  0  0  0  0
  9 10  1  0  0  0  0
  9 22  2  0  0  0  0
 10 15  1  0  0  0  0
 10 11  1  0  0  0  0
 11 12  1  0  0  0  0
 11 38  1  0  0  0  0
 11 39  1  0  0  0  0
 12 13  1  0  0  0  0
 12 40  1  0  0  0  0
 12 41  1  0  0  0  0
 13 14  1  0  0  0  0
 13 42  1  0  0  0  0
 13 43  1  0  0  0  0
 14 15  1  0  0  0  0
 14 44  1  0  0  0  0
 14 45  1  0  0  0  0
 15 16  1  0  0  0  0
 15 46  1  0  0  0  0
 16 20  1  0  0  0  0
 16 17  1  0  0  0  0
 16 47  1  0  0  0  0
 17 18  1  0  0  0  0
 17 48  1  0  0  0  0
 17 49  1  0  0  0  0
 18 19  1  0  0  0  0
 18 50  1  0  0  0  0
 18 51  1  0  0  0  0
 19 20  1  0  0  0  0
 19 52  1  0  0  0  0
 19 53  1  0  0  0  0
 20 21  1  0  0  0  0
 20 54  1  0  0  0  0
 21 55  1  0  0  0  0
 22 23  1  0  0  0  0
 23 24  2  0  0  0  0
 23 56  1  0  0  0  0
 24 25  1  0  0  0  0
 26 30  1  0  0  0  0
 26 27  1  0  0  0  0
 26 57  1  0  0  0  0
 27 28  1  0  0  0  0
 27 58  1  0  0  0  0
 27 59  1  0  0  0  0
 28 29  1  0  0  0  0
 28 60  1  0  0  0  0
 28 61  1  0  0  0  0
 29 30  1  0  0  0  0
 30 62  1  0  0  0  0
 30 63  1  0  0  0  0
M  END
> <s_m_source_file>
AV-unprocessed.smi

> <i_m_source_file_index>
148

> <i_lp_mmshare_version>
43012

> <i_f3d_flags>
0

> <s_epik_input>
W0NIMl0xT1tDSDJdW0NIMl1bQ0BIXTFbQ0BIXShbQ0gyXVtPSF0pW0NIMl1uKFtjSF1uMiljKGMyMyluW2NIXW5jM040W0NIMl1bQ0gyXVtDSDJdW0NIMl1bQ0BIXTRbQ0BASF01W0NIMl1bQ0gyXVtDSDJdW0NASF01W09IXQ==

> <s_epik_cmdline>
J2VwaWtfcHl0aG9uJywgJy1waCcsICc3LjAnLCAnLXRuJywgJzgnLCAnLW1hJywgJzIwMCcsICctbWV0YWxfYmluZGluZycsICctaW1hZScsICc8aW5maWxlLm1hZT4nLCAnLW9tYWUnLCAnPG91dGZpbGUubWFlPic=

> <r_lp_tautomer_probability>
1

> <r_epik_Ionization_Penalty>
0.00556303

> <r_epik_Ionization_Penalty_Charging>
0

> <r_epik_Ionization_Penalty_Neutral>
0.00556303

> <r_epik_State_Penalty>
0.00401767

> <r_epik_Charging_Adjusted_Penalty>
0.00401767

> <i_epik_Tot_Q>
0

> <i_epik_Tot_abs_Q>
0

> <r_epik_Metal_State_Penalty>
-0

> <b_epik_Metal_Only>
0

> <s_lp_Force_Field>
OPLS_2005

> <r_lp_Energy>
73.9782

> <b_lp_Chiralities_Consistent>
1

> <s_lp_Variant>
AV-unprocessed.smi:148-28

> <Gold.Version>
5.8.1

> <Gold.Id.Protein>
6NUR|6NUR_protein|mol2

> <Gold.PLP.Fitness>
45.4585

> <Gold.PLP.PLP>
-40.7794

> <Gold.PLP.part.hbond>
-3.0447

> <Gold.PLP.part.metal>
0.0000

> <Gold.PLP.part.buried>
-7.2201

> <Gold.PLP.part.nonpolar>
-31.2907

> <Gold.PLP.part.repulsive>
0.1400

> <Gold.PLP.ligand.clash>
0.0000

> <Gold.PLP.ligand.torsion>
2.4243

> <Gold.PLP.Chemscore.Hbond>
1.9920

> <Gold.PLP.Chemscore.CHOScore>
1.0000

> <Gold.PLP.Chemscore.Metal>
0.0000

> <Gold.Chemscore.Hbonds>
donor molecule, donor type, donor heavy atom, donor atom, acceptor molecule, acceptor atom, score
      P1  H  6896  6907       L1     7  0.08
      P1  H  7989  7998       L1     1  0.02
      L1  C    23    56       P1  7948  0.93
      L1  C    23    56       P1  7949  0.01

> <Gold.PLP.Chemscore.Internal.Correction>
0.5518

> <Gold.Rescore>
     Score         DG    S(hbond)    S(metal)    S(lipo)     H(rot)  DE(clash)    DE(int)     intcor
      8.48     -12.46       1.19        0.00      98.29       3.32       0.02       3.95       ----

> <Gold.Chemscore.Fitness>
8.4846

> <Gold.Chemscore.DG>
-12.4596

> <Gold.Chemscore.ZeroCoef>
-5.4800

> <Gold.Chemscore.Hbond>
1.1914

> <Gold.Chemscore.Metal>
0.0000

> <Gold.Chemscore.Lipo>
98.2919

> <Gold.Chemscore.Internal_Hbond>
0.0000

> <Gold.Chemscore.DEClash>
0.0222

> <Gold.Chemscore.DEInternal>
3.9528

> <Gold.Chemscore.Rot>
3.3203

> <Gold.Chemscore.Internal.Correction>
   9.000000E+99

> <Gold.Chemscore.Hbonds>
donor molecule, donor type, donor heavy atom, donor atom, acceptor molecule, acceptor atom, score
      P1  H  6896  6907       L1     7  0.09

> <Gold.Chemscore.Hbond.Weighted>
-3.9794

> <Gold.Chemscore.Metal.Weighted>
-0.0000

> <Gold.Chemscore.Lipo.Weighted>
-11.5002

> <Gold.Chemscore.Internal_Hbond.Weighted>
0.0000

> <Gold.Chemscore.DEClash.Weighted>
0.0222

> <Gold.Chemscore.DEInternal.Weighted>
3.9528

> <Gold.Chemscore.Rot.Weighted>
8.5000

> <Gold.Chemscore.Internal.Correction.Weighted>
   9.000000E+99

> <Gold.Protein.RotatedTorsions>
[ 6907 6896 6895 6894 ] final  -38.45 input  -60.11 | X-H torsion
[ 7974 7965 7964 7962 ] final   87.03 input  175.53 | X-H torsion
[ 8008 7997 7996 7995 ] final  -52.39 input   59.86 | X-H torsion
[ 10167 10162 10161 10158 ] final   72.31 input  -65.29 | X-H torsion
[ 10718 10713 10712 10709 ] final -157.62 input   66.30 | X-H torsion
[ 10763 10752 10751 10750 ] final -151.58 input  -60.55 | X-H torsion
[ 11005 11000 10999 10996 ] final -151.96 input  -57.11 | X-H torsion

> <Gold.Protein.ActiveResidues>
 VAL166  LYS551  ARG553  GLY616  TRP617  ASP618  TYR619  PRO620  LYS621  CYS622 
 ASP623  PHE694  ASN695  SER759  ASP760  ASP761  ALA762  ILE779  LEU786  VAL792 
 PHE793  MET794  SER795  GLU796  ALA797  LYS798  CYS799  TRP800  GLU811  SER814 

> <Gold.Protein.RotatedAtoms>
  151.0023  134.9332  159.7960 H   0  0  0  0  0  0  0  0  0  0  0  0  # atno 6907 bound_to 6896
  152.5281  134.3137  159.9133 H   0  0  0  0  0  0  0  0  0  0  0  0  # atno 6908 bound_to 6896
  151.3143  133.4025  159.2683 H   0  0  0  0  0  0  0  0  0  0  0  0  # atno 6909 bound_to 6896
  145.5643  139.2307  143.2442 H   0  0  0  0  0  0  0  0  0  0  0  0  # atno 7974 bound_to 7965
  154.4105  140.1225  156.4984 H   0  0  0  0  0  0  0  0  0  0  0  0  # atno 8008 bound_to 7997
  155.6920  140.3495  155.4878 H   0  0  0  0  0  0  0  0  0  0  0  0  # atno 8009 bound_to 7997
  155.9460  140.1096  157.1006 H   0  0  0  0  0  0  0  0  0  0  0  0  # atno 8010 bound_to 7997
  140.0366  144.5423  150.7466 H   0  0  0  0  0  0  0  0  0  0  0  0  # atno 10167 bound_to 10162
  156.5428  130.8571  151.2754 H   0  0  0  0  0  0  0  0  0  0  0  0  # atno 10718 bound_to 10713
  154.8049  135.3256  154.7457 H   0  0  0  0  0  0  0  0  0  0  0  0  # atno 10763 bound_to 10752
  153.8117  135.6895  153.4844 H   0  0  0  0  0  0  0  0  0  0  0  0  # atno 10764 bound_to 10752
  153.1788  135.4594  154.9945 H   0  0  0  0  0  0  0  0  0  0  0  0  # atno 10765 bound_to 10752
  140.7239  134.3696  157.5178 H   0  0  0  0  0  0  0  0  0  0  0  0  # atno 11005 bound_to 11000
  146.1829  140.6469  142.9181 LP  0  0  0  0  0  0  0  0  0  0  0  0  # atno 17320 bound_to 7965
  144.7468  140.5088  143.6830 LP  0  0  0  0  0  0  0  0  0  0  0  0  # atno 17321 bound_to 7965
  140.7278  143.2656  151.4058 LP  0  0  0  0  0  0  0  0  0  0  0  0  # atno 17342 bound_to 10162
  139.6041  144.1234  152.2230 LP  0  0  0  0  0  0  0  0  0  0  0  0  # atno 17343 bound_to 10162
  157.7402  130.9846  150.2363 LP  0  0  0  0  0  0  0  0  0  0  0  0  # atno 17370 bound_to 10713
  156.2956  130.3751  149.7799 LP  0  0  0  0  0  0  0  0  0  0  0  0  # atno 17371 bound_to 10713
  139.8841  134.8973  156.2721 LP  0  0  0  0  0  0  0  0  0  0  0  0  # atno 17394 bound_to 11000
  140.9979  133.7169  156.0915 LP  0  0  0  0  0  0  0  0  0  0  0  0  # atno 17395 bound_to 11000

$$$$
