AV-unprocessed.smi:1878|AV-procd|sdf|7628|dock6
  -GOLD-   22720 9353D 1   1.00000     0.00000
 Structure written by MMmdl.
 34 35  0  0  0  0  0  0  0  0  2 V2000
  150.4204  140.0291  154.3823 O   0  0  0  0  0  0  0  0  0  0  0  0
  149.5658  140.8693  154.6724 C   0  0  0  0  0  0  0  0  0  0  0  0
  148.3528  140.8077  154.1093 N   0  0  0  0  0  0  0  0  0  0  0  0
  147.9280  139.8015  153.1436 C   0  0  0  0  0  0  0  0  0  0  0  0
  146.8819  138.8556  153.7500 C   0  0  0  0  0  0  0  0  0  0  0  0
  146.0312  139.5598  154.4957 F   0  0  0  0  0  0  0  0  0  0  0  0
  146.1969  138.2408  152.7855 F   0  0  0  0  0  0  0  0  0  0  0  0
  147.4718  137.9422  154.5215 F   0  0  0  0  0  0  0  0  0  0  0  0
  149.7153  141.9001  155.5362 N   0  5  0  0  0  0  0  0  0  0  0  0
  150.5460  141.7858  156.5842 C   0  0  0  0  0  0  0  0  0  0  0  0
  151.0233  140.5305  157.0181 C   0  0  0  0  0  0  0  0  0  0  0  0
  151.8966  140.4546  158.1195 C   0  0  0  0  0  0  0  0  0  0  0  0
  152.2862  141.6491  158.7677 C   0  0  0  0  0  0  0  0  0  0  0  0
  153.1548  141.6232  159.8771 N   0  0  0  0  0  0  0  0  0  0  0  0
  153.6292  140.3739  160.4514 C   0  0  0  0  0  0  0  0  0  0  0  0
  154.4212  140.7947  161.6884 C   0  0  0  0  0  0  0  0  0  0  0  0
  153.6871  142.0502  162.1593 C   0  0  0  0  0  0  0  0  0  0  0  0
  153.1747  142.6929  160.8650 C   0  0  0  0  0  0  0  0  0  0  0  0
  151.8334  142.8575  158.3599 N   0  0  0  0  0  0  0  0  0  0  0  0
  150.9953  142.9155  157.3032 C   0  0  0  0  0  0  0  0  0  0  0  0
  147.6771  141.5113  154.3692 H   0  0  0  0  0  0  0  0  0  0  0  0
  147.5147  140.3003  152.2657 H   0  0  0  0  0  0  0  0  0  0  0  0
  148.7950  139.2291  152.8099 H   0  0  0  0  0  0  0  0  0  0  0  0
  150.7176  139.6257  156.5130 H   0  0  0  0  0  0  0  0  0  0  0  0
  152.2448  139.4884  158.4516 H   0  0  0  0  0  0  0  0  0  0  0  0
  152.7758  139.7550  160.7320 H   0  0  0  0  0  0  0  0  0  0  0  0
  154.2467  139.8148  159.7476 H   0  0  0  0  0  0  0  0  0  0  0  0
  154.4674  140.0146  162.4485 H   0  0  0  0  0  0  0  0  0  0  0  0
  155.4425  141.0507  161.4035 H   0  0  0  0  0  0  0  0  0  0  0  0
  152.8401  141.7621  162.7835 H   0  0  0  0  0  0  0  0  0  0  0  0
  154.3198  142.7201  162.7423 H   0  0  0  0  0  0  0  0  0  0  0  0
  153.8558  143.4729  160.5239 H   0  0  0  0  0  0  0  0  0  0  0  0
  152.1900  143.1366  161.0141 H   0  0  0  0  0  0  0  0  0  0  0  0
  150.6689  143.9063  157.0221 H   0  0  0  0  0  0  0  0  0  0  0  0
  1  2  2  0  0  0  0
  2  3  1  0  0  0  0
  2  9  1  0  0  0  0
  3  4  1  0  0  0  0
  3 21  1  0  0  0  0
  4  5  1  0  0  0  0
  4 22  1  0  0  0  0
  4 23  1  0  0  0  0
  5  6  1  0  0  0  0
  5  7  1  0  0  0  0
  5  8  1  0  0  0  0
  9 10  1  0  0  0  0
 10 20  1  0  0  0  0
 10 11  2  0  0  0  0
 11 12  1  0  0  0  0
 11 24  1  0  0  0  0
 12 13  2  0  0  0  0
 12 25  1  0  0  0  0
 13 14  1  0  0  0  0
 13 19  1  0  0  0  0
 14 18  1  0  0  0  0
 14 15  1  0  0  0  0
 15 16  1  0  0  0  0
 15 26  1  0  0  0  0
 15 27  1  0  0  0  0
 16 17  1  0  0  0  0
 16 28  1  0  0  0  0
 16 29  1  0  0  0  0
 17 18  1  0  0  0  0
 17 30  1  0  0  0  0
 17 31  1  0  0  0  0
 18 32  1  0  0  0  0
 18 33  1  0  0  0  0
 19 20  2  0  0  0  0
 20 34  1  0  0  0  0
M  CHG  1   9  -1
M  END
> <s_m_source_file>
AV-unprocessed.smi

> <i_m_source_file_index>
1878

> <i_lp_mmshare_version>
43012

> <i_f3d_flags>
0

> <s_epik_input>
RkMoRikoRilbQ0gyXVtOSF1DKD1PKVtOSF1jMVtjSF1bY0hdYyhuW2NIXTEpTjJbQ0gyXVtDSDJdW0NIMl1bQ0gyXTI=

> <s_epik_cmdline>
J2VwaWtfcHl0aG9uJywgJy1waCcsICc3LjAnLCAnLXRuJywgJzgnLCAnLW1hJywgJzIwMCcsICctbWV0YWxfYmluZGluZycsICctaW1hZScsICc8aW5maWxlLm1hZT4nLCAnLW9tYWUnLCAnPG91dGZpbGUubWFlPic=

> <r_lp_tautomer_probability>
1

> <r_epik_Ionization_Penalty>
8.41125

> <r_epik_Ionization_Penalty_Charging>
6.79601

> <r_epik_Ionization_Penalty_Neutral>
1.61524

> <r_epik_State_Penalty>
6.86553

> <r_epik_Charging_Adjusted_Penalty>
13.6615

> <i_epik_Tot_Q>
-1

> <i_epik_Tot_abs_Q>
1

> <r_epik_Metal_State_Penalty>
2.85642

> <b_epik_Metal_Only>
1

> <s_lp_Force_Field>
OPLS_2005

> <r_lp_Energy>
22.1987

> <b_lp_Chiralities_Consistent>
1

> <s_lp_Variant>
AV-unprocessed.smi:1878-3

> <Gold.Version>
5.8.1

> <Gold.Id.Protein>
6NUR|6NUR_protein|mol2

> <Gold.PLP.Fitness>
40.9643

> <Gold.PLP.PLP>
-35.5988

> <Gold.PLP.part.hbond>
-1.0000

> <Gold.PLP.part.metal>
0.0000

> <Gold.PLP.part.buried>
-1.3746

> <Gold.PLP.part.nonpolar>
-34.3865

> <Gold.PLP.part.repulsive>
1.3978

> <Gold.PLP.ligand.clash>
0.0005

> <Gold.PLP.ligand.torsion>
0.6882

> <Gold.PLP.Chemscore.Hbond>
1.0000

> <Gold.PLP.Chemscore.CHOScore>
1.0000

> <Gold.PLP.Chemscore.Metal>
0.0000

> <Gold.Chemscore.Hbonds>
donor molecule, donor type, donor heavy atom, donor atom, acceptor molecule, acceptor atom, score
      P1  H  7989  7998       L1     1  1.00
      L1  C    20    34       P1  8028  1.00

> <Gold.PLP.Chemscore.Internal.Correction>
0.7423

> <Gold.Rescore>
     Score         DG    S(hbond)    S(metal)    S(lipo)     H(rot)  DE(clash)    DE(int)     intcor
     12.08     -14.89       0.97        0.00      74.52       1.00       1.00       1.81       ----

> <Gold.Chemscore.Fitness>
12.0795

> <Gold.Chemscore.DG>
-14.8894

> <Gold.Chemscore.ZeroCoef>
-5.4800

> <Gold.Chemscore.Hbond>
0.9733

> <Gold.Chemscore.Metal>
0.0000

> <Gold.Chemscore.Lipo>
74.5180

> <Gold.Chemscore.Internal_Hbond>
0.0000

> <Gold.Chemscore.DEClash>
0.9961

> <Gold.Chemscore.DEInternal>
1.8138

> <Gold.Chemscore.Rot>
1.0000

> <Gold.Chemscore.Internal.Correction>
   9.000000E+99

> <Gold.Chemscore.Hbonds>
donor molecule, donor type, donor heavy atom, donor atom, acceptor molecule, acceptor atom, score
      P1  H  7989  7998       L1     1  0.55

> <Gold.Chemscore.Hbond.Weighted>
-3.2508

> <Gold.Chemscore.Metal.Weighted>
-0.0000

> <Gold.Chemscore.Lipo.Weighted>
-8.7186

> <Gold.Chemscore.Internal_Hbond.Weighted>
0.0000

> <Gold.Chemscore.DEClash.Weighted>
0.9961

> <Gold.Chemscore.DEInternal.Weighted>
1.8138

> <Gold.Chemscore.Rot.Weighted>
2.5600

> <Gold.Chemscore.Internal.Correction.Weighted>
   9.000000E+99

> <Gold.Protein.RotatedTorsions>
[ 6907 6896 6895 6894 ] final   29.57 input  -60.11 | X-H torsion
[ 7974 7965 7964 7962 ] final -125.07 input  175.53 | X-H torsion
[ 8008 7997 7996 7995 ] final -176.30 input   59.86 | X-H torsion
[ 10167 10162 10161 10158 ] final  -38.92 input  -65.29 | X-H torsion
[ 10718 10713 10712 10709 ] final   39.72 input   66.30 | X-H torsion
[ 10763 10752 10751 10750 ] final  -68.74 input  -60.55 | X-H torsion
[ 11005 11000 10999 10996 ] final  -51.65 input  -57.11 | X-H torsion

> <Gold.Protein.ActiveResidues>
 VAL166  LYS551  ARG553  GLY616  TRP617  ASP618  TYR619  PRO620  LYS621  CYS622 
 ASP623  PHE694  ASN695  SER759  ASP760  ASP761  ALA762  ILE779  LEU786  VAL792 
 PHE793  MET794  SER795  GLU796  ALA797  LYS798  CYS799  TRP800  GLU811  SER814 

> <Gold.Protein.RotatedAtoms>
  152.0334  134.9754  160.0572 H   0  0  0  0  0  0  0  0  0  0  0  0  # atno 6907 bound_to 6896
  152.1222  133.4355  159.4689 H   0  0  0  0  0  0  0  0  0  0  0  0  # atno 6908 bound_to 6896
  150.6850  134.2440  159.4527 H   0  0  0  0  0  0  0  0  0  0  0  0  # atno 6909 bound_to 6896
  145.0015  140.7824  143.4493 H   0  0  0  0  0  0  0  0  0  0  0  0  # atno 7974 bound_to 7965
  155.9931  140.1205  157.0619 H   0  0  0  0  0  0  0  0  0  0  0  0  # atno 8008 bound_to 7997
  154.4218  140.1121  156.5662 H   0  0  0  0  0  0  0  0  0  0  0  0  # atno 8009 bound_to 7997
  155.6315  140.3473  155.4687 H   0  0  0  0  0  0  0  0  0  0  0  0  # atno 8010 bound_to 7997
  140.7079  143.3246  151.2709 H   0  0  0  0  0  0  0  0  0  0  0  0  # atno 10167 bound_to 10162
  157.3738  130.7716  149.7139 H   0  0  0  0  0  0  0  0  0  0  0  0  # atno 10718 bound_to 10713
  154.3933  135.6047  153.5855 H   0  0  0  0  0  0  0  0  0  0  0  0  # atno 10763 bound_to 10752
  152.9787  135.5889  154.4271 H   0  0  0  0  0  0  0  0  0  0  0  0  # atno 10764 bound_to 10752
  154.4059  135.2843  155.2046 H   0  0  0  0  0  0  0  0  0  0  0  0  # atno 10765 bound_to 10752
  141.0882  133.6638  156.3909 H   0  0  0  0  0  0  0  0  0  0  0  0  # atno 11005 bound_to 11000
  145.2147  139.2188  143.5124 LP  0  0  0  0  0  0  0  0  0  0  0  0  # atno 17320 bound_to 7965
  146.3453  140.1992  142.8589 LP  0  0  0  0  0  0  0  0  0  0  0  0  # atno 17321 bound_to 7965
  139.6711  144.0019  152.2753 LP  0  0  0  0  0  0  0  0  0  0  0  0  # atno 17342 bound_to 10162
  139.9617  144.6553  150.8073 LP  0  0  0  0  0  0  0  0  0  0  0  0  # atno 17343 bound_to 10162
  155.9761  130.4080  150.3803 LP  0  0  0  0  0  0  0  0  0  0  0  0  # atno 17370 bound_to 10713
  157.1898  131.0412  151.2706 LP  0  0  0  0  0  0  0  0  0  0  0  0  # atno 17371 bound_to 10713
  140.5313  134.6210  157.5351 LP  0  0  0  0  0  0  0  0  0  0  0  0  # atno 17394 bound_to 11000
  139.9704  134.7303  156.0053 LP  0  0  0  0  0  0  0  0  0  0  0  0  # atno 17395 bound_to 11000

$$$$
