AV-unprocessed.smi:2650|AV-procd|sdf|10291|dock4
  -GOLD-   2272014303D 1   1.00000     0.00000
 Structure written by MMmdl.
 33 34  0  0  0  0  0  0  0  0  1 V2000
  144.6529  136.9456  152.7461 O   0  0  0  0  0  0  0  0  0  0  0  0
  145.8433  136.7942  152.4692 C   0  0  0  0  0  0  0  0  0  0  0  0
  146.7930  137.6873  152.7834 N   0  0  0  0  0  0  0  0  0  0  0  0
  146.5573  138.9387  153.4926 C   0  0  0  0  0  0  0  0  0  0  0  0
  147.6334  139.9872  153.1549 C   0  0  0  0  0  0  0  0  0  0  0  0
  148.2073  140.5741  154.3688 N   0  0  0  0  0  0  0  0  0  0  0  0
  147.4987  141.2491  155.2846 C   0  0  0  0  0  0  0  0  0  0  0  0
  146.2904  141.4801  155.2464 O   0  0  0  0  0  0  0  0  0  0  0  0
  148.3879  141.7128  156.4305 C   0  0  0  0  0  0  0  0  0  0  0  0
  149.7690  141.1810  156.0342 C   0  0  0  0  0  0  0  0  0  0  0  0
  149.4993  140.4748  154.7123 C   0  0  0  0  0  0  0  0  0  0  0  0
  150.3804  139.8965  154.0774 O   0  0  0  0  0  0  0  0  0  0  0  0
  146.3642  135.7338  151.8269 N   0  0  0  0  0  0  0  0  0  0  0  0
  145.6880  134.5824  151.3424 C   0  0  0  0  0  0  0  0  0  0  0  0
  146.5252  133.5753  150.8110 C   0  0  0  0  0  0  0  0  0  0  0  0
  145.9514  132.3930  150.3046 C   0  0  0  0  0  0  0  0  0  0  0  0
  144.5531  132.2479  150.3430 C   0  0  0  0  0  0  0  0  0  0  0  0
  143.7922  133.2979  150.8891 C   0  0  0  0  0  0  0  0  0  0  0  0
  144.3401  134.4317  151.3746 N   0  0  0  0  0  0  0  0  0  0  0  0
  147.7463  137.4860  152.5188 H   0  0  0  0  0  0  0  0  0  0  0  0
  145.5722  139.3081  153.2069 H   0  0  0  0  0  0  0  0  0  0  0  0
  146.5204  138.7557  154.5681 H   0  0  0  0  0  0  0  0  0  0  0  0
  148.4259  139.5350  152.5557 H   0  0  0  0  0  0  0  0  0  0  0  0
  147.2048  140.7705  152.5272 H   0  0  0  0  0  0  0  0  0  0  0  0
  148.3772  142.8006  156.5069 H   0  0  0  0  0  0  0  0  0  0  0  0
  148.0449  141.2893  157.3750 H   0  0  0  0  0  0  0  0  0  0  0  0
  150.4906  141.9868  155.8960 H   0  0  0  0  0  0  0  0  0  0  0  0
  150.1616  140.4783  156.7698 H   0  0  0  0  0  0  0  0  0  0  0  0
  147.3609  135.7497  151.6698 H   0  0  0  0  0  0  0  0  0  0  0  0
  147.5979  133.7028  150.7896 H   0  0  0  0  0  0  0  0  0  0  0  0
  146.5741  131.6115  149.8949 H   0  0  0  0  0  0  0  0  0  0  0  0
  144.0763  131.3560  149.9644 H   0  0  0  0  0  0  0  0  0  0  0  0
  142.7158  133.2265  150.9381 H   0  0  0  0  0  0  0  0  0  0  0  0
  1  2  2  0  0  0  0
  2  3  1  0  0  0  0
  2 13  1  0  0  0  0
  3  4  1  0  0  0  0
  3 20  1  0  0  0  0
  4  5  1  0  0  0  0
  4 21  1  0  0  0  0
  4 22  1  0  0  0  0
  5  6  1  0  0  0  0
  5 23  1  0  0  0  0
  5 24  1  0  0  0  0
  6 11  1  0  0  0  0
  6  7  1  0  0  0  0
  7  8  2  0  0  0  0
  7  9  1  0  0  0  0
  9 10  1  0  0  0  0
  9 25  1  0  0  0  0
  9 26  1  0  0  0  0
 10 11  1  0  0  0  0
 10 27  1  0  0  0  0
 10 28  1  0  0  0  0
 11 12  2  0  0  0  0
 13 14  1  0  0  0  0
 13 29  1  0  0  0  0
 14 19  1  0  0  0  0
 14 15  2  0  0  0  0
 15 16  1  0  0  0  0
 15 30  1  0  0  0  0
 16 17  2  0  0  0  0
 16 31  1  0  0  0  0
 17 18  1  0  0  0  0
 17 32  1  0  0  0  0
 18 19  2  0  0  0  0
 18 33  1  0  0  0  0
M  END
> <s_m_source_file>
AV-unprocessed.smi

> <i_m_source_file_index>
2650

> <i_lp_mmshare_version>
43012

> <i_f3d_flags>
0

> <s_epik_input>
bjFbY0hdW2NIXVtjSF1bY0hdYzFbTkhdQyg9TylbTkhdW0NIMl1bQ0gyXU4yQyg9TylbQ0gyXVtDSDJdQzI9Tw==

> <s_epik_cmdline>
J2VwaWtfcHl0aG9uJywgJy1waCcsICc3LjAnLCAnLXRuJywgJzgnLCAnLW1hJywgJzIwMCcsICctbWV0YWxfYmluZGluZycsICctaW1hZScsICc8aW5maWxlLm1hZT4nLCAnLW9tYWUnLCAnPG91dGZpbGUubWFlPic=

> <r_lp_tautomer_probability>
1

> <r_epik_Ionization_Penalty>
4.11926e-05

> <r_epik_Ionization_Penalty_Charging>
0

> <r_epik_Ionization_Penalty_Neutral>
4.11926e-05

> <r_epik_State_Penalty>
-0

> <r_epik_Charging_Adjusted_Penalty>
0

> <i_epik_Tot_Q>
0

> <i_epik_Tot_abs_Q>
0

> <r_epik_Metal_State_Penalty>
-0

> <b_epik_Metal_Only>
0

> <s_lp_Force_Field>
OPLS_2005

> <r_lp_Energy>
11.0549

> <b_lp_Chiralities_Consistent>
1

> <s_lp_Variant>
AV-unprocessed.smi:2650-1

> <Gold.Version>
5.8.1

> <Gold.Id.Protein>
6NUR|6NUR_protein|mol2

> <Gold.PLP.Fitness>
40.3285

> <Gold.PLP.PLP>
-29.5199

> <Gold.PLP.part.hbond>
-3.0000

> <Gold.PLP.part.metal>
0.0000

> <Gold.PLP.part.buried>
-2.8049

> <Gold.PLP.part.nonpolar>
-24.5429

> <Gold.PLP.part.repulsive>
1.2981

> <Gold.PLP.ligand.clash>
0.0000

> <Gold.PLP.ligand.torsion>
0.5393

> <Gold.PLP.Chemscore.Hbond>
2.9600

> <Gold.PLP.Chemscore.CHOScore>
0.9930

> <Gold.PLP.Chemscore.Metal>
0.0000

> <Gold.Chemscore.Hbonds>
donor molecule, donor type, donor heavy atom, donor atom, acceptor molecule, acceptor atom, score
      L1  H     3    20       P1  7948  0.94
      L1  H    13    29       P1  7948  1.00
      P1  H  7989  7998       L1    12  1.00
      L1  C    18    33       P1 10186  0.98

> <Gold.PLP.Chemscore.Internal.Correction>
0.0283

> <Gold.Rescore>
     Score         DG    S(hbond)    S(metal)    S(lipo)     H(rot)  DE(clash)    DE(int)     intcor
     14.28     -16.80       2.82        0.00      55.50       1.80       0.71       1.81       ----

> <Gold.Chemscore.Fitness>
14.2773

> <Gold.Chemscore.DG>
-16.7974

> <Gold.Chemscore.ZeroCoef>
-5.4800

> <Gold.Chemscore.Hbond>
2.8214

> <Gold.Chemscore.Metal>
0.0000

> <Gold.Chemscore.Lipo>
55.5030

> <Gold.Chemscore.Internal_Hbond>
0.0000

> <Gold.Chemscore.DEClash>
0.7055

> <Gold.Chemscore.DEInternal>
1.8146

> <Gold.Chemscore.Rot>
1.7968

> <Gold.Chemscore.Internal.Correction>
   9.000000E+99

> <Gold.Chemscore.Hbonds>
donor molecule, donor type, donor heavy atom, donor atom, acceptor molecule, acceptor atom, score
      L1  H     3    20       P1  7948  0.92
      L1  H    13    29       P1  7948  0.99
      P1  H  7989  7998       L1    12  0.91

> <Gold.Chemscore.Hbond.Weighted>
-9.4234

> <Gold.Chemscore.Metal.Weighted>
-0.0000

> <Gold.Chemscore.Lipo.Weighted>
-6.4938

> <Gold.Chemscore.Internal_Hbond.Weighted>
0.0000

> <Gold.Chemscore.DEClash.Weighted>
0.7055

> <Gold.Chemscore.DEInternal.Weighted>
1.8146

> <Gold.Chemscore.Rot.Weighted>
4.5999

> <Gold.Chemscore.Internal.Correction.Weighted>
   9.000000E+99

> <Gold.Protein.RotatedTorsions>
[ 6907 6896 6895 6894 ] final -116.32 input  -60.11 | X-H torsion
[ 7974 7965 7964 7962 ] final   12.23 input  175.53 | X-H torsion
[ 8008 7997 7996 7995 ] final -124.95 input   59.86 | X-H torsion
[ 10167 10162 10161 10158 ] final  104.91 input  -65.29 | X-H torsion
[ 10718 10713 10712 10709 ] final  161.03 input   66.30 | X-H torsion
[ 10763 10752 10751 10750 ] final  -82.97 input  -60.55 | X-H torsion
[ 11005 11000 10999 10996 ] final  133.28 input  -57.11 | X-H torsion

> <Gold.Protein.ActiveResidues>
 VAL166  LYS551  ARG553  GLY616  TRP617  ASP618  TYR619  PRO620  LYS621  CYS622 
 ASP623  PHE694  ASN695  SER759  ASP760  ASP761  ALA762  ILE779  LEU786  VAL792 
 PHE793  MET794  SER795  GLU796  ALA797  LYS798  CYS799  TRP800  GLU811  SER814 

> <Gold.Protein.RotatedAtoms>
  150.8047  133.8533  159.3211 H   0  0  0  0  0  0  0  0  0  0  0  0  # atno 6907 bound_to 6896
  151.6335  135.1018  160.0136 H   0  0  0  0  0  0  0  0  0  0  0  0  # atno 6908 bound_to 6896
  152.4137  133.6964  159.6455 H   0  0  0  0  0  0  0  0  0  0  0  0  # atno 6909 bound_to 6896
  146.2355  139.9368  142.8488 H   0  0  0  0  0  0  0  0  0  0  0  0  # atno 7974 bound_to 7965
  155.2052  140.0417  157.2924 H   0  0  0  0  0  0  0  0  0  0  0  0  # atno 8008 bound_to 7997
  154.6048  140.2461  155.7716 H   0  0  0  0  0  0  0  0  0  0  0  0  # atno 8009 bound_to 7997
  156.2343  140.2927  156.0281 H   0  0  0  0  0  0  0  0  0  0  0  0  # atno 8010 bound_to 7997
  139.7137  144.7072  151.0985 H   0  0  0  0  0  0  0  0  0  0  0  0  # atno 10167 bound_to 10162
  157.1421  131.0543  151.2321 H   0  0  0  0  0  0  0  0  0  0  0  0  # atno 10718 bound_to 10713
  154.5821  135.5572  153.7196 H   0  0  0  0  0  0  0  0  0  0  0  0  # atno 10763 bound_to 10752
  153.0085  135.6322  154.1967 H   0  0  0  0  0  0  0  0  0  0  0  0  # atno 10764 bound_to 10752
  154.1908  135.2882  155.3002 H   0  0  0  0  0  0  0  0  0  0  0  0  # atno 10765 bound_to 10752
  139.9842  134.9538  156.9702 H   0  0  0  0  0  0  0  0  0  0  0  0  # atno 11005 bound_to 11000
  145.1991  140.9846  143.4166 LP  0  0  0  0  0  0  0  0  0  0  0  0  # atno 17320 bound_to 7965
  144.9789  139.3803  143.6272 LP  0  0  0  0  0  0  0  0  0  0  0  0  # atno 17321 bound_to 7965
  140.7739  143.5259  150.9481 LP  0  0  0  0  0  0  0  0  0  0  0  0  # atno 17342 bound_to 10162
  139.8944  143.6913  152.3140 LP  0  0  0  0  0  0  0  0  0  0  0  0  # atno 17343 bound_to 10162
  157.4297  130.7484  149.6980 LP  0  0  0  0  0  0  0  0  0  0  0  0  # atno 17370 bound_to 10713
  155.9786  130.4049  150.3636 LP  0  0  0  0  0  0  0  0  0  0  0  0  # atno 17371 bound_to 10713
  140.5036  134.1072  155.7255 LP  0  0  0  0  0  0  0  0  0  0  0  0  # atno 17394 bound_to 11000
  141.1509  133.8970  157.2099 LP  0  0  0  0  0  0  0  0  0  0  0  0  # atno 17395 bound_to 11000

$$$$
