AV-unprocessed.smi:3178|AV-procd|sdf|12131|dock6
  -GOLD-   2272017573D 1   1.00000     0.00000
 Structure written by MMmdl.
 35 35  0  0  0  0  0  0  0  0  1 V2000
  147.1020  139.8088  153.2303 C   0  0  0  0  0  0  0  0  0  0  0  0
  146.7398  140.2017  154.5491 O   0  0  0  0  0  0  0  0  0  0  0  0
  147.4416  141.2986  155.1448 C   0  0  0  0  0  0  0  0  0  0  0  0
  147.3586  142.4256  154.0970 C   0  0  0  0  0  0  0  0  0  0  0  0
  146.7332  141.7630  156.4337 C   0  0  0  0  0  0  0  0  0  0  0  0
  148.9178  140.9345  155.4381 C   0  0  0  0  0  0  0  0  0  0  0  0
  149.6118  142.0282  156.1084 N   0  0  0  0  0  0  0  0  0  0  0  0
  150.8024  141.9415  156.7214 C   0  0  0  0  0  0  0  0  0  0  0  0
  151.4891  140.9204  156.7290 O   0  0  0  0  0  0  0  0  0  0  0  0
  151.3005  143.2018  157.4337 C   0  0  0  0  0  0  0  0  0  0  0  0
  151.9425  142.8750  158.7463 C   0  0  0  0  0  0  0  0  0  0  0  0
  151.8274  143.4542  159.9793 C   0  0  0  0  0  0  0  0  0  0  0  0
  152.7056  142.6970  160.8085 C   0  0  0  0  0  0  0  0  0  0  0  0
  152.9897  142.8851  162.2697 C   0  0  0  0  0  0  0  0  0  0  0  0
  153.3115  141.7225  160.1465 N   0  0  0  0  0  0  0  0  0  0  0  0
  152.8384  141.8399  158.8923 N   0  0  0  0  0  0  0  0  0  0  0  0
  153.1332  141.2155  158.1550 H   0  0  0  0  0  0  0  0  0  0  0  0
  146.4672  138.9769  152.9258 H   0  0  0  0  0  0  0  0  0  0  0  0
  148.1332  139.4628  153.1717 H   0  0  0  0  0  0  0  0  0  0  0  0
  146.9530  140.6081  152.5050 H   0  0  0  0  0  0  0  0  0  0  0  0
  147.8913  143.3168  154.4302 H   0  0  0  0  0  0  0  0  0  0  0  0
  146.3232  142.7114  153.9088 H   0  0  0  0  0  0  0  0  0  0  0  0
  147.7875  142.1236  153.1406 H   0  0  0  0  0  0  0  0  0  0  0  0
  147.1722  142.6881  156.8087 H   0  0  0  0  0  0  0  0  0  0  0  0
  146.8135  141.0281  157.2343 H   0  0  0  0  0  0  0  0  0  0  0  0
  145.6737  141.9502  156.2568 H   0  0  0  0  0  0  0  0  0  0  0  0
  148.9462  140.0325  156.0520 H   0  0  0  0  0  0  0  0  0  0  0  0
  149.4552  140.6888  154.5224 H   0  0  0  0  0  0  0  0  0  0  0  0
  149.1211  142.9097  156.1535 H   0  0  0  0  0  0  0  0  0  0  0  0
  152.0156  143.7212  156.7949 H   0  0  0  0  0  0  0  0  0  0  0  0
  150.4596  143.8811  157.5779 H   0  0  0  0  0  0  0  0  0  0  0  0
  151.2114  144.2997  160.2480 H   0  0  0  0  0  0  0  0  0  0  0  0
  152.7443  143.8979  162.5902 H   0  0  0  0  0  0  0  0  0  0  0  0
  154.0426  142.7134  162.4957 H   0  0  0  0  0  0  0  0  0  0  0  0
  152.4012  142.1941  162.8732 H   0  0  0  0  0  0  0  0  0  0  0  0
  1  2  1  0  0  0  0
  1 18  1  0  0  0  0
  1 19  1  0  0  0  0
  1 20  1  0  0  0  0
  2  3  1  0  0  0  0
  3  4  1  0  0  0  0
  3  5  1  0  0  0  0
  3  6  1  0  0  0  0
  4 21  1  0  0  0  0
  4 22  1  0  0  0  0
  4 23  1  0  0  0  0
  5 24  1  0  0  0  0
  5 25  1  0  0  0  0
  5 26  1  0  0  0  0
  6  7  1  0  0  0  0
  6 27  1  0  0  0  0
  6 28  1  0  0  0  0
  7  8  1  0  0  0  0
  7 29  1  0  0  0  0
  8  9  2  0  0  0  0
  8 10  1  0  0  0  0
 10 30  1  0  0  0  0
 10 31  1  0  0  0  0
 10 11  1  0  0  0  0
 11 16  1  0  0  0  0
 11 12  2  0  0  0  0
 12 13  1  0  0  0  0
 12 32  1  0  0  0  0
 13 14  1  0  0  0  0
 13 15  2  0  0  0  0
 14 33  1  0  0  0  0
 14 34  1  0  0  0  0
 14 35  1  0  0  0  0
 15 16  1  0  0  0  0
 16 17  1  0  0  0  0
M  END
> <s_m_source_file>
AV-unprocessed.smi

> <i_m_source_file_index>
3178

> <i_lp_mmshare_version>
43012

> <i_f3d_flags>
0

> <s_epik_input>
W0NIM11PQyhbQ0gzXSkoW0NIM10pW0NIMl1bTkhdQyg9TylbQ0gyXWMxW2NIXWMoW0NIM10pW25IXW4x

> <s_epik_cmdline>
J2VwaWtfcHl0aG9uJywgJy1waCcsICc3LjAnLCAnLXRuJywgJzgnLCAnLW1hJywgJzIwMCcsICctbWV0YWxfYmluZGluZycsICctaW1hZScsICc8aW5maWxlLm1hZT4nLCAnLW9tYWUnLCAnPG91dGZpbGUubWFlPic=

> <r_lp_tautomer_probability>
0.5

> <r_epik_Ionization_Penalty>
0.000125824

> <r_epik_Ionization_Penalty_Charging>
0

> <r_epik_Ionization_Penalty_Neutral>
0.000125824

> <r_epik_State_Penalty>
0.41068

> <r_epik_Charging_Adjusted_Penalty>
0.41068

> <i_epik_Tot_Q>
0

> <i_epik_Tot_abs_Q>
0

> <r_epik_Metal_State_Penalty>
0.410657

> <b_epik_Metal_Only>
0

> <s_lp_Force_Field>
OPLS_2005

> <r_lp_Energy>
5.55187

> <b_lp_Chiralities_Consistent>
1

> <s_lp_Variant>
AV-unprocessed.smi:3178-2

> <Gold.Version>
5.8.1

> <Gold.Id.Protein>
6NUR|6NUR_protein|mol2

> <Gold.PLP.Fitness>
33.5074

> <Gold.PLP.PLP>
-31.7439

> <Gold.PLP.part.hbond>
-1.0000

> <Gold.PLP.part.metal>
0.0000

> <Gold.PLP.part.buried>
-4.3000

> <Gold.PLP.part.nonpolar>
-26.2348

> <Gold.PLP.part.repulsive>
0.2826

> <Gold.PLP.ligand.clash>
0.0000

> <Gold.PLP.ligand.torsion>
0.6351

> <Gold.PLP.Chemscore.Hbond>
1.0000

> <Gold.PLP.Chemscore.CHOScore>
0.0000

> <Gold.PLP.Chemscore.Metal>
0.0000

> <Gold.Chemscore.Hbonds>
donor molecule, donor type, donor heavy atom, donor atom, acceptor molecule, acceptor atom, score
      L1  H     7    29       P1  8028  1.00

> <Gold.PLP.Chemscore.Internal.Correction>
0.0338

> <Gold.Rescore>
     Score         DG    S(hbond)    S(metal)    S(lipo)     H(rot)  DE(clash)    DE(int)     intcor
     13.24     -13.70       0.97        0.00      83.90       1.89       0.06       0.40       ----

> <Gold.Chemscore.Fitness>
13.2382

> <Gold.Chemscore.DG>
-13.7006

> <Gold.Chemscore.ZeroCoef>
-5.4800

> <Gold.Chemscore.Hbond>
0.9692

> <Gold.Chemscore.Metal>
0.0000

> <Gold.Chemscore.Lipo>
83.8976

> <Gold.Chemscore.Internal_Hbond>
0.0000

> <Gold.Chemscore.DEClash>
0.0630

> <Gold.Chemscore.DEInternal>
0.3994

> <Gold.Chemscore.Rot>
1.8877

> <Gold.Chemscore.Internal.Correction>
   9.000000E+99

> <Gold.Chemscore.Hbonds>
donor molecule, donor type, donor heavy atom, donor atom, acceptor molecule, acceptor atom, score
      L1  H     7    29       P1  8028  0.97

> <Gold.Chemscore.Hbond.Weighted>
-3.2371

> <Gold.Chemscore.Metal.Weighted>
-0.0000

> <Gold.Chemscore.Lipo.Weighted>
-9.8160

> <Gold.Chemscore.Internal_Hbond.Weighted>
0.0000

> <Gold.Chemscore.DEClash.Weighted>
0.0630

> <Gold.Chemscore.DEInternal.Weighted>
0.3994

> <Gold.Chemscore.Rot.Weighted>
4.8325

> <Gold.Chemscore.Internal.Correction.Weighted>
   9.000000E+99

> <Gold.Protein.RotatedTorsions>
[ 6907 6896 6895 6894 ] final  -95.72 input  -60.11 | X-H torsion
[ 7974 7965 7964 7962 ] final -163.52 input  175.53 | X-H torsion
[ 8008 7997 7996 7995 ] final  157.54 input   59.86 | X-H torsion
[ 10167 10162 10161 10158 ] final  -78.38 input  -65.29 | X-H torsion
[ 10718 10713 10712 10709 ] final  -20.87 input   66.30 | X-H torsion
[ 10763 10752 10751 10750 ] final   44.02 input  -60.55 | X-H torsion
[ 11005 11000 10999 10996 ] final  118.53 input  -57.11 | X-H torsion

> <Gold.Protein.ActiveResidues>
 VAL166  LYS551  ARG553  GLY616  TRP617  ASP618  TYR619  PRO620  LYS621  CYS622 
 ASP623  PHE694  ASN695  SER759  ASP760  ASP761  ALA762  ILE779  LEU786  VAL792 
 PHE793  MET794  SER795  GLU796  ALA797  LYS798  CYS799  TRP800  GLU811  SER814 

> <Gold.Protein.RotatedAtoms>
  150.6971  134.1613  159.4177 H   0  0  0  0  0  0  0  0  0  0  0  0  # atno 6907 bound_to 6896
  151.9594  135.0129  160.0556 H   0  0  0  0  0  0  0  0  0  0  0  0  # atno 6908 bound_to 6896
  152.1941  133.4758  159.5060 H   0  0  0  0  0  0  0  0  0  0  0  0  # atno 6909 bound_to 6896
  144.7323  140.3094  143.6190 H   0  0  0  0  0  0  0  0  0  0  0  0  # atno 7974 bound_to 7965
  156.2358  140.1882  156.7124 H   0  0  0  0  0  0  0  0  0  0  0  0  # atno 8008 bound_to 7997
  154.6103  140.0623  156.9512 H   0  0  0  0  0  0  0  0  0  0  0  0  # atno 8009 bound_to 7997
  155.2027  140.3293  155.4343 H   0  0  0  0  0  0  0  0  0  0  0  0  # atno 8010 bound_to 7997
  140.4687  143.2432  151.8238 H   0  0  0  0  0  0  0  0  0  0  0  0  # atno 10167 bound_to 10162
  156.5260  130.4643  149.6572 H   0  0  0  0  0  0  0  0  0  0  0  0  # atno 10718 bound_to 10713
  152.9849  135.6083  154.3206 H   0  0  0  0  0  0  0  0  0  0  0  0  # atno 10763 bound_to 10752
  154.2916  135.2774  155.2654 H   0  0  0  0  0  0  0  0  0  0  0  0  # atno 10764 bound_to 10752
  154.4947  135.5883  153.6542 H   0  0  0  0  0  0  0  0  0  0  0  0  # atno 10765 bound_to 10752
  139.9113  134.9621  156.7517 H   0  0  0  0  0  0  0  0  0  0  0  0  # atno 11005 bound_to 11000
  145.7680  139.1847  143.2229 LP  0  0  0  0  0  0  0  0  0  0  0  0  # atno 17320 bound_to 7965
  146.0934  140.7629  142.9584 LP  0  0  0  0  0  0  0  0  0  0  0  0  # atno 17321 bound_to 7965
  139.4815  144.4918  151.9175 LP  0  0  0  0  0  0  0  0  0  0  0  0  # atno 17342 bound_to 10162
  140.4004  144.2501  150.5893 LP  0  0  0  0  0  0  0  0  0  0  0  0  # atno 17343 bound_to 10162
  156.3105  130.7226  151.2118 LP  0  0  0  0  0  0  0  0  0  0  0  0  # atno 17370 bound_to 10713
  157.7429  131.0482  150.4986 LP  0  0  0  0  0  0  0  0  0  0  0  0  # atno 17371 bound_to 10713
  140.6768  133.9510  155.7887 LP  0  0  0  0  0  0  0  0  0  0  0  0  # atno 17394 bound_to 11000
  141.0538  134.0445  157.3748 LP  0  0  0  0  0  0  0  0  0  0  0  0  # atno 17395 bound_to 11000

$$$$
