AV-unprocessed.smi:3181|AV-procd|sdf|12146|dock4
  -GOLD-   2272017583D 1   1.00000     0.00000
 Structure written by MMmdl.
 42 43  0  0  0  0  0  0  0  0  2 V2000
  148.1893  141.4265  157.2797 C   0  0  0  0  0  0  0  0  0  0  0  0
  149.7182  141.5787  157.2285 C   0  0  1  0  0  0  0  0  0  0  0  0
  150.2872  141.3569  155.8104 C   0  0  0  0  0  0  0  0  0  0  0  0
  150.1350  139.9904  155.3464 N   0  0  0  0  0  0  0  0  0  0  0  0
  149.3121  139.0205  155.7493 C   0  0  0  0  0  0  0  0  0  0  0  0
  149.4496  137.8883  155.0740 N   0  0  0  0  0  0  0  0  0  0  0  0
  150.4361  138.2586  154.2041 C   0  0  0  0  0  0  0  0  0  0  0  0
  150.8797  139.5102  154.3233 N   0  0  0  0  0  0  0  0  0  0  0  0
  150.0975  142.9224  157.7215 N   0  3  0  0  0  0  0  0  0  0  0  0
  151.5301  143.2854  157.5983 C   0  0  1  0  0  0  0  0  0  0  0  0
  151.8379  144.6893  158.1549 C   0  0  0  0  0  0  0  0  0  0  0  0
  151.7117  144.7394  159.6850 C   0  0  0  0  0  0  0  0  0  0  0  0
  152.6113  143.6936  160.3737 C   0  0  1  0  0  0  0  0  0  0  0  0
  152.4633  143.8032  161.9016 C   0  0  0  0  0  0  0  0  0  0  0  0
  152.3067  142.2707  159.8350 C   0  0  2  0  0  0  0  0  0  0  0  0
  153.2190  141.1915  160.4451 C   0  0  0  0  0  0  0  0  0  0  0  0
  152.4132  142.2333  158.2936 C   0  0  0  0  0  0  0  0  0  0  0  0
  147.8765  140.4222  156.9922 H   0  0  0  0  0  0  0  0  0  0  0  0
  147.6976  142.1329  156.6104 H   0  0  0  0  0  0  0  0  0  0  0  0
  147.8125  141.6052  158.2872 H   0  0  0  0  0  0  0  0  0  0  0  0
  150.1385  140.8237  157.8946 H   0  0  0  0  0  0  0  0  0  0  0  0
  149.7917  142.0181  155.0980 H   0  0  0  0  0  0  0  0  0  0  0  0
  151.3483  141.6054  155.7761 H   0  0  0  0  0  0  0  0  0  0  0  0
  148.5999  139.1433  156.5525 H   0  0  0  0  0  0  0  0  0  0  0  0
  150.8381  137.5867  153.4599 H   0  0  0  0  0  0  0  0  0  0  0  0
  149.5401  143.6177  157.2461 H   0  0  0  0  0  0  0  0  0  0  0  0
  151.7748  143.2682  156.5351 H   0  0  0  0  0  0  0  0  0  0  0  0
  152.8568  144.9631  157.8779 H   0  0  0  0  0  0  0  0  0  0  0  0
  151.1977  145.4435  157.6979 H   0  0  0  0  0  0  0  0  0  0  0  0
  151.9727  145.7399  160.0320 H   0  0  0  0  0  0  0  0  0  0  0  0
  150.6722  144.5796  159.9743 H   0  0  0  0  0  0  0  0  0  0  0  0
  153.6468  143.9349  160.1279 H   0  0  0  0  0  0  0  0  0  0  0  0
  151.4667  143.5047  162.2274 H   0  0  0  0  0  0  0  0  0  0  0  0
  152.6278  144.8277  162.2372 H   0  0  0  0  0  0  0  0  0  0  0  0
  153.1888  143.1813  162.4253 H   0  0  0  0  0  0  0  0  0  0  0  0
  151.2811  142.0174  160.1074 H   0  0  0  0  0  0  0  0  0  0  0  0
  154.2718  141.4210  160.2783 H   0  0  0  0  0  0  0  0  0  0  0  0
  153.0194  140.2151  160.0031 H   0  0  0  0  0  0  0  0  0  0  0  0
  153.0638  141.0883  161.5187 H   0  0  0  0  0  0  0  0  0  0  0  0
  152.1601  141.2386  157.9235 H   0  0  0  0  0  0  0  0  0  0  0  0
  153.4523  142.4027  158.0067 H   0  0  0  0  0  0  0  0  0  0  0  0
  149.8679  142.9527  158.7046 H   0  0  0  0  0  0  0  0  0  0  0  0
  1  2  1  0  0  0  0
  1 18  1  0  0  0  0
  1 19  1  0  0  0  0
  1 20  1  0  0  0  0
  2  3  1  0  0  0  0
  2  9  1  0  0  0  0
  2 21  1  0  0  0  0
  3  4  1  0  0  0  0
  3 22  1  0  0  0  0
  3 23  1  0  0  0  0
  4  8  1  0  0  0  0
  4  5  1  0  0  0  0
  5  6  2  0  0  0  0
  5 24  1  0  0  0  0
  6  7  1  0  0  0  0
  7  8  2  0  0  0  0
  7 25  1  0  0  0  0
  9 10  1  0  0  0  0
  9 26  1  0  0  0  0
  9 42  1  0  0  0  0
 10 17  1  0  0  0  0
 10 11  1  0  0  0  0
 10 27  1  0  0  0  0
 11 12  1  0  0  0  0
 11 28  1  0  0  0  0
 11 29  1  0  0  0  0
 12 13  1  0  0  0  0
 12 30  1  0  0  0  0
 12 31  1  0  0  0  0
 13 14  1  0  0  0  0
 13 15  1  0  0  0  0
 13 32  1  0  0  0  0
 14 33  1  0  0  0  0
 14 34  1  0  0  0  0
 14 35  1  0  0  0  0
 15 16  1  0  0  0  0
 15 17  1  0  0  0  0
 15 36  1  0  0  0  0
 16 37  1  0  0  0  0
 16 38  1  0  0  0  0
 16 39  1  0  0  0  0
 17 40  1  0  0  0  0
 17 41  1  0  0  0  0
M  CHG  1   9   1
M  END
> <s_m_source_file>
AV-unprocessed.smi

> <i_m_source_file_index>
3181

> <i_lp_mmshare_version>
43012

> <i_f3d_flags>
0

> <s_epik_input>
bjFbY0hdbltjSF1uMVtDSDJdW0NAQEhdKFtDSDNdKVtOSF1bQ0BASF0yW0NIMl1bQ0gyXVtDQEBIXShbQ0gzXSlbQ0BASF0oW0NIM10pW0NIMl0y

> <s_epik_cmdline>
J2VwaWtfcHl0aG9uJywgJy1waCcsICc3LjAnLCAnLXRuJywgJzgnLCAnLW1hJywgJzIwMCcsICctbWV0YWxfYmluZGluZycsICctaW1hZScsICc8aW5maWxlLm1hZT4nLCAnLW9tYWUnLCAnPG91dGZpbGUubWFlPic=

> <r_lp_tautomer_probability>
1

> <r_epik_Ionization_Penalty>
0.000617007

> <r_epik_Ionization_Penalty_Charging>
0.000616215

> <r_epik_Ionization_Penalty_Neutral>
7.92544e-07

> <r_epik_State_Penalty>
0.000388807

> <r_epik_Charging_Adjusted_Penalty>
0.00100502

> <i_epik_Tot_Q>
1

> <i_epik_Tot_abs_Q>
1

> <r_epik_Metal_State_Penalty>
-0

> <b_epik_Metal_Only>
0

> <s_lp_Force_Field>
OPLS_2005

> <r_lp_Energy>
23.4305

> <b_lp_Chiralities_Consistent>
1

> <s_lp_Variant>
AV-unprocessed.smi:3181-12

> <Gold.Version>
5.8.1

> <Gold.Id.Protein>
6NUR|6NUR_protein|mol2

> <Gold.PLP.Fitness>
50.9926

> <Gold.PLP.PLP>
-39.4655

> <Gold.PLP.part.hbond>
-2.0000

> <Gold.PLP.part.metal>
0.0000

> <Gold.PLP.part.buried>
-5.3836

> <Gold.PLP.part.nonpolar>
-31.3049

> <Gold.PLP.part.repulsive>
0.3176

> <Gold.PLP.ligand.clash>
0.0000

> <Gold.PLP.ligand.torsion>
0.3468

> <Gold.PLP.Chemscore.Hbond>
3.0000

> <Gold.PLP.Chemscore.CHOScore>
1.0625

> <Gold.PLP.Chemscore.Metal>
0.0000

> <Gold.Chemscore.Hbonds>
donor molecule, donor type, donor heavy atom, donor atom, acceptor molecule, acceptor atom, score
      L1  H     9    26       P1  8028  2.00
      P1  H  7989  7998       L1     8  1.00
      L1  C     7    25       P1  7948  0.14
      L1  C     7    25       P1  7949  0.85

> <Gold.PLP.Chemscore.Internal.Correction>
0.0330

> <Gold.Rescore>
     Score         DG    S(hbond)    S(metal)    S(lipo)     H(rot)  DE(clash)    DE(int)     intcor
     17.94     -18.29       1.72        0.00     106.63       2.11       0.04       0.31       ----

> <Gold.Chemscore.Fitness>
17.9387

> <Gold.Chemscore.DG>
-18.2923

> <Gold.Chemscore.ZeroCoef>
-5.4800

> <Gold.Chemscore.Hbond>
1.7177

> <Gold.Chemscore.Metal>
0.0000

> <Gold.Chemscore.Lipo>
106.6282

> <Gold.Chemscore.Internal_Hbond>
0.0000

> <Gold.Chemscore.DEClash>
0.0416

> <Gold.Chemscore.DEInternal>
0.3121

> <Gold.Chemscore.Rot>
2.1095

> <Gold.Chemscore.Internal.Correction>
   9.000000E+99

> <Gold.Chemscore.Hbonds>
donor molecule, donor type, donor heavy atom, donor atom, acceptor molecule, acceptor atom, score
      L1  H     9    26       P1  8028  0.72
      P1  H  7989  7998       L1     8  0.70

> <Gold.Chemscore.Hbond.Weighted>
-5.7371

> <Gold.Chemscore.Metal.Weighted>
-0.0000

> <Gold.Chemscore.Lipo.Weighted>
-12.4755

> <Gold.Chemscore.Internal_Hbond.Weighted>
0.0000

> <Gold.Chemscore.DEClash.Weighted>
0.0416

> <Gold.Chemscore.DEInternal.Weighted>
0.3121

> <Gold.Chemscore.Rot.Weighted>
5.4003

> <Gold.Chemscore.Internal.Correction.Weighted>
   9.000000E+99

> <Gold.Protein.RotatedTorsions>
[ 6907 6896 6895 6894 ] final  -40.67 input  -60.11 | X-H torsion
[ 7974 7965 7964 7962 ] final  114.72 input  175.53 | X-H torsion
[ 8008 7997 7996 7995 ] final   -6.04 input   59.86 | X-H torsion
[ 10167 10162 10161 10158 ] final -150.70 input  -65.29 | X-H torsion
[ 10718 10713 10712 10709 ] final   59.46 input   66.30 | X-H torsion
[ 10763 10752 10751 10750 ] final   42.56 input  -60.55 | X-H torsion
[ 11005 11000 10999 10996 ] final -146.56 input  -57.11 | X-H torsion

> <Gold.Protein.ActiveResidues>
 VAL166  LYS551  ARG553  GLY616  TRP617  ASP618  TYR619  PRO620  LYS621  CYS622 
 ASP623  PHE694  ASN695  SER759  ASP760  ASP761  ALA762  ILE779  LEU786  VAL792 
 PHE793  MET794  SER795  GLU796  ALA797  LYS798  CYS799  TRP800  GLU811  SER814 

> <Gold.Protein.RotatedAtoms>
  150.9757  134.9122  159.7814 H   0  0  0  0  0  0  0  0  0  0  0  0  # atno 6907 bound_to 6896
  152.5205  134.3479  159.9250 H   0  0  0  0  0  0  0  0  0  0  0  0  # atno 6908 bound_to 6896
  151.3487  133.3893  159.2712 H   0  0  0  0  0  0  0  0  0  0  0  0  # atno 6909 bound_to 6896
  145.2010  139.2952  143.4318 H   0  0  0  0  0  0  0  0  0  0  0  0  # atno 7974 bound_to 7965
  154.5977  140.2443  155.7834 H   0  0  0  0  0  0  0  0  0  0  0  0  # atno 8008 bound_to 7997
  156.2290  140.2973  156.0093 H   0  0  0  0  0  0  0  0  0  0  0  0  # atno 8009 bound_to 7997
  155.2264  140.0402  157.2946 H   0  0  0  0  0  0  0  0  0  0  0  0  # atno 8010 bound_to 7997
  139.7331  143.8777  152.2541 H   0  0  0  0  0  0  0  0  0  0  0  0  # atno 10167 bound_to 10162
  157.5678  130.8884  149.9215 H   0  0  0  0  0  0  0  0  0  0  0  0  # atno 10718 bound_to 10713
  152.9880  135.6128  154.2970 H   0  0  0  0  0  0  0  0  0  0  0  0  # atno 10763 bound_to 10752
  154.2692  135.2780  155.2747 H   0  0  0  0  0  0  0  0  0  0  0  0  # atno 10764 bound_to 10752
  154.5137  135.5834  153.6682 H   0  0  0  0  0  0  0  0  0  0  0  0  # atno 10765 bound_to 10752
  140.7808  134.3082  157.5046 H   0  0  0  0  0  0  0  0  0  0  0  0  # atno 11005 bound_to 11000
  146.3417  140.2254  142.8592 LP  0  0  0  0  0  0  0  0  0  0  0  0  # atno 17320 bound_to 7965
  144.9948  140.8579  143.5317 LP  0  0  0  0  0  0  0  0  0  0  0  0  # atno 17321 bound_to 7965
  139.8706  144.7070  150.8992 LP  0  0  0  0  0  0  0  0  0  0  0  0  # atno 17342 bound_to 10162
  140.7774  143.3741  151.1595 LP  0  0  0  0  0  0  0  0  0  0  0  0  # atno 17343 bound_to 10162
  156.0725  130.3683  150.0747 LP  0  0  0  0  0  0  0  0  0  0  0  0  # atno 17370 bound_to 10713
  156.8903  130.9586  151.3589 LP  0  0  0  0  0  0  0  0  0  0  0  0  # atno 17371 bound_to 10713
  139.8743  134.9317  156.3534 LP  0  0  0  0  0  0  0  0  0  0  0  0  # atno 17394 bound_to 11000
  140.9485  133.7467  156.0240 LP  0  0  0  0  0  0  0  0  0  0  0  0  # atno 17395 bound_to 11000

$$$$
