AV-unprocessed.smi:1043|AV-procd|sdf|4540|dock2
  -GOLD-   22720 2563D 1   1.00000     0.00000
 Structure written by MMmdl.
 35 36  0  0  0  0  0  0  0  0  1 V2000
  145.5900  134.7166  155.4149 C   0  0  0  0  0  0  0  0  0  0  0  0
  145.7336  135.0494  153.9119 C   0  0  0  0  0  0  0  0  0  0  0  0
  146.8503  135.9893  153.7254 N   0  0  0  0  0  0  0  0  0  0  0  0
  147.0473  137.1858  154.3056 C   0  0  0  0  0  0  0  0  0  0  0  0
  146.2768  137.6922  155.1211 O   0  0  0  0  0  0  0  0  0  0  0  0
  148.1899  137.7453  153.8707 N   0  0  0  0  0  0  0  0  0  0  0  0
  148.7490  139.0007  154.2281 C   0  0  0  0  0  0  0  0  0  0  0  0
  149.9896  139.1521  154.7175 N   0  0  0  0  0  0  0  0  0  0  0  0
  150.2841  140.4829  154.9845 N   0  0  0  0  0  0  0  0  0  0  0  0
  149.2552  141.2816  154.6871 C   0  0  0  0  0  0  0  0  0  0  0  0
  147.8256  140.4860  154.0521 S   0  0  0  0  0  0  0  0  0  0  0  0
  146.1088  133.7361  153.1836 C   0  0  0  0  0  0  0  0  0  0  0  0
  146.2007  133.8050  151.6462 C   0  0  0  0  0  0  0  0  0  0  0  0
  144.8218  133.8075  150.9674 C   0  0  0  0  0  0  0  0  0  0  0  0
  144.1524  135.1851  150.8252 C   0  0  0  0  0  0  0  0  0  0  0  0
  144.4118  136.1994  151.9520 C   0  0  0  0  0  0  0  0  0  0  0  0
  144.3872  135.6279  153.3855 C   0  0  0  0  0  0  0  0  0  0  0  0
  144.8258  133.9561  155.5788 H   0  0  0  0  0  0  0  0  0  0  0  0
  145.3008  135.5856  156.0057 H   0  0  0  0  0  0  0  0  0  0  0  0
  146.5238  134.3352  155.8298 H   0  0  0  0  0  0  0  0  0  0  0  0
  147.5549  135.6884  153.0686 H   0  0  0  0  0  0  0  0  0  0  0  0
  148.7236  137.2090  153.2029 H   0  0  0  0  0  0  0  0  0  0  0  0
  149.3384  142.3469  154.8434 H   0  0  0  0  0  0  0  0  0  0  0  0
  147.0741  133.3955  153.5622 H   0  0  0  0  0  0  0  0  0  0  0  0
  145.4062  132.9483  153.4587 H   0  0  0  0  0  0  0  0  0  0  0  0
  146.8085  134.6461  151.3119 H   0  0  0  0  0  0  0  0  0  0  0  0
  146.7291  132.9113  151.3131 H   0  0  0  0  0  0  0  0  0  0  0  0
  144.9162  133.3763  149.9702 H   0  0  0  0  0  0  0  0  0  0  0  0
  144.1536  133.1342  151.5054 H   0  0  0  0  0  0  0  0  0  0  0  0
  144.4701  135.6393  149.8859 H   0  0  0  0  0  0  0  0  0  0  0  0
  143.0778  135.0302  150.7231 H   0  0  0  0  0  0  0  0  0  0  0  0
  145.3473  136.7223  151.7587 H   0  0  0  0  0  0  0  0  0  0  0  0
  143.6455  136.9718  151.8766 H   0  0  0  0  0  0  0  0  0  0  0  0
  143.5977  134.8799  153.4693 H   0  0  0  0  0  0  0  0  0  0  0  0
  144.0748  136.4340  154.0500 H   0  0  0  0  0  0  0  0  0  0  0  0
  1  2  1  0  0  0  0
  1 18  1  0  0  0  0
  1 19  1  0  0  0  0
  1 20  1  0  0  0  0
  2 17  1  0  0  0  0
  2  3  1  0  0  0  0
  2 12  1  0  0  0  0
  3  4  1  0  0  0  0
  3 21  1  0  0  0  0
  4  5  2  0  0  0  0
  4  6  1  0  0  0  0
  6  7  1  0  0  0  0
  6 22  1  0  0  0  0
  7 11  1  0  0  0  0
  7  8  2  0  0  0  0
  8  9  1  0  0  0  0
  9 10  2  0  0  0  0
 10 11  1  0  0  0  0
 10 23  1  0  0  0  0
 12 13  1  0  0  0  0
 12 24  1  0  0  0  0
 12 25  1  0  0  0  0
 13 14  1  0  0  0  0
 13 26  1  0  0  0  0
 13 27  1  0  0  0  0
 14 15  1  0  0  0  0
 14 28  1  0  0  0  0
 14 29  1  0  0  0  0
 15 16  1  0  0  0  0
 15 30  1  0  0  0  0
 15 31  1  0  0  0  0
 16 17  1  0  0  0  0
 16 32  1  0  0  0  0
 16 33  1  0  0  0  0
 17 34  1  0  0  0  0
 17 35  1  0  0  0  0
M  END
> <s_m_source_file>
AV-unprocessed.smi

> <i_m_source_file_index>
1043

> <i_lp_mmshare_version>
43012

> <i_f3d_flags>
0

> <s_epik_input>
W0NIMl0xW0NIMl1bQ0gyXVtDSDJdW0NIMl1bQ0gyXUMxKFtDSDNdKVtOSF1DKD1PKVtOSF1jMm5uW2NIXXMy

> <s_epik_cmdline>
J2VwaWtfcHl0aG9uJywgJy1waCcsICc3LjAnLCAnLXRuJywgJzgnLCAnLW1hJywgJzIwMCcsICctbWV0YWxfYmluZGluZycsICctaW1hZScsICc8aW5maWxlLm1hZT4nLCAnLW9tYWUnLCAnPG91dGZpbGUubWFlPic=

> <r_lp_tautomer_probability>
1

> <r_epik_Ionization_Penalty>
0.000320341

> <r_epik_Ionization_Penalty_Charging>
0

> <r_epik_Ionization_Penalty_Neutral>
0.000320341

> <r_epik_State_Penalty>
-0

> <r_epik_Charging_Adjusted_Penalty>
0

> <i_epik_Tot_Q>
0

> <i_epik_Tot_abs_Q>
0

> <r_epik_Metal_State_Penalty>
0.170162

> <b_epik_Metal_Only>
0

> <s_lp_Force_Field>
OPLS_2005

> <r_lp_Energy>
19.1751

> <b_lp_Chiralities_Consistent>
1

> <s_lp_Variant>
AV-unprocessed.smi:1043-1

> <Gold.Version>
5.8.1

> <Gold.Id.Protein>
6NUR|6NUR_protein|mol2

> <Gold.PLP.Fitness>
32.8716

> <Gold.PLP.PLP>
-22.3482

> <Gold.PLP.part.hbond>
-3.0000

> <Gold.PLP.part.metal>
0.0000

> <Gold.PLP.part.buried>
-3.0682

> <Gold.PLP.part.nonpolar>
-16.3650

> <Gold.PLP.part.repulsive>
0.2949

> <Gold.PLP.ligand.clash>
0.0000

> <Gold.PLP.ligand.torsion>
0.5748

> <Gold.PLP.Chemscore.Hbond>
2.8880

> <Gold.PLP.Chemscore.CHOScore>
1.0000

> <Gold.PLP.Chemscore.Metal>
0.0000

> <Gold.Chemscore.Hbonds>
donor molecule, donor type, donor heavy atom, donor atom, acceptor molecule, acceptor atom, score
      L1  H     3    21       P1  7948  0.94
      L1  H     6    22       P1  7948  1.00
      P1  H  7989  7998       L1     9  0.97
      L1  C    10    23       P1  8028  0.98

> <Gold.PLP.Chemscore.Internal.Correction>
0.0089

> <Gold.Rescore>
     Score         DG    S(hbond)    S(metal)    S(lipo)     H(rot)  DE(clash)    DE(int)     intcor
     15.22     -15.61       2.32        0.00      42.35       1.00       0.04       0.35       ----

> <Gold.Chemscore.Fitness>
15.2213

> <Gold.Chemscore.DG>
-15.6147

> <Gold.Chemscore.ZeroCoef>
-5.4800

> <Gold.Chemscore.Hbond>
2.3174

> <Gold.Chemscore.Metal>
0.0000

> <Gold.Chemscore.Lipo>
42.3475

> <Gold.Chemscore.Internal_Hbond>
0.0000

> <Gold.Chemscore.DEClash>
0.0406

> <Gold.Chemscore.DEInternal>
0.3528

> <Gold.Chemscore.Rot>
1.0000

> <Gold.Chemscore.Internal.Correction>
   9.000000E+99

> <Gold.Chemscore.Hbonds>
donor molecule, donor type, donor heavy atom, donor atom, acceptor molecule, acceptor atom, score
      L1  H     3    21       P1  7948  0.91
      L1  H     6    22       P1  7948  0.99
      P1  H  7989  7998       L1     9  0.10

> <Gold.Chemscore.Hbond.Weighted>
-7.7401

> <Gold.Chemscore.Metal.Weighted>
-0.0000

> <Gold.Chemscore.Lipo.Weighted>
-4.9547

> <Gold.Chemscore.Internal_Hbond.Weighted>
0.0000

> <Gold.Chemscore.DEClash.Weighted>
0.0406

> <Gold.Chemscore.DEInternal.Weighted>
0.3528

> <Gold.Chemscore.Rot.Weighted>
2.5600

> <Gold.Chemscore.Internal.Correction.Weighted>
   9.000000E+99

> <Gold.Protein.RotatedTorsions>
[ 6907 6896 6895 6894 ] final  127.58 input  -60.11 | X-H torsion
[ 7974 7965 7964 7962 ] final  -24.77 input  175.53 | X-H torsion
[ 8008 7997 7996 7995 ] final   56.67 input   59.86 | X-H torsion
[ 10167 10162 10161 10158 ] final  172.44 input  -65.29 | X-H torsion
[ 10718 10713 10712 10709 ] final  -15.17 input   66.30 | X-H torsion
[ 10763 10752 10751 10750 ] final  114.17 input  -60.55 | X-H torsion
[ 11005 11000 10999 10996 ] final  116.54 input  -57.11 | X-H torsion

> <Gold.Protein.ActiveResidues>
 VAL166  LYS551  ARG553  GLY616  TRP617  ASP618  TYR619  PRO620  LYS621  CYS622 
 ASP623  PHE694  ASN695  SER759  ASP760  ASP761  ALA762  ILE779  LEU786  VAL792 
 PHE793  MET794  SER795  GLU796  ALA797  LYS798  CYS799  TRP800  GLU811  SER814 

> <Gold.Protein.RotatedAtoms>
  152.3799  133.6532  159.6153 H   0  0  0  0  0  0  0  0  0  0  0  0  # atno 6907 bound_to 6896
  150.7733  133.9130  159.3384 H   0  0  0  0  0  0  0  0  0  0  0  0  # atno 6908 bound_to 6896
  151.6938  135.0943  160.0290 H   0  0  0  0  0  0  0  0  0  0  0  0  # atno 6909 bound_to 6896
  146.1534  140.4796  142.8602 H   0  0  0  0  0  0  0  0  0  0  0  0  # atno 7974 bound_to 7965
  155.5213  140.3480  155.4407 H   0  0  0  0  0  0  0  0  0  0  0  0  # atno 8008 bound_to 7997
  156.0782  140.1380  156.9772 H   0  0  0  0  0  0  0  0  0  0  0  0  # atno 8009 bound_to 7997
  154.4565  140.0951  156.6748 H   0  0  0  0  0  0  0  0  0  0  0  0  # atno 8010 bound_to 7997
  139.5076  144.3374  152.0052 H   0  0  0  0  0  0  0  0  0  0  0  0  # atno 10167 bound_to 10162
  156.6055  130.4835  149.6222 H   0  0  0  0  0  0  0  0  0  0  0  0  # atno 10718 bound_to 10713
  153.5034  135.3633  155.2551 H   0  0  0  0  0  0  0  0  0  0  0  0  # atno 10763 bound_to 10752
  154.8746  135.4005  154.3452 H   0  0  0  0  0  0  0  0  0  0  0  0  # atno 10764 bound_to 10752
  153.4092  135.7077  153.6437 H   0  0  0  0  0  0  0  0  0  0  0  0  # atno 10765 bound_to 10752
  139.9044  134.9599  156.7214 H   0  0  0  0  0  0  0  0  0  0  0  0  # atno 11005 bound_to 11000
  144.7932  140.6072  143.6527 LP  0  0  0  0  0  0  0  0  0  0  0  0  # atno 17320 bound_to 7965
  145.4769  139.1498  143.3783 LP  0  0  0  0  0  0  0  0  0  0  0  0  # atno 17321 bound_to 7965
  140.2812  144.3857  150.6118 LP  0  0  0  0  0  0  0  0  0  0  0  0  # atno 17342 bound_to 10162
  140.6016  143.2167  151.7060 LP  0  0  0  0  0  0  0  0  0  0  0  0  # atno 17343 bound_to 10162
  156.2433  130.6864  151.1576 LP  0  0  0  0  0  0  0  0  0  0  0  0  # atno 17370 bound_to 10713
  157.7268  131.0643  150.5893 LP  0  0  0  0  0  0  0  0  0  0  0  0  # atno 17371 bound_to 10713
  140.6998  133.9317  155.8017 LP  0  0  0  0  0  0  0  0  0  0  0  0  # atno 17394 bound_to 11000
  141.0380  134.0662  157.3936 LP  0  0  0  0  0  0  0  0  0  0  0  0  # atno 17395 bound_to 11000

$$$$
