AV-unprocessed.smi:2928|AV-procd|sdf|11232|dock8
  -GOLD-   2272016123D 1   1.00000     0.00000
 Structure written by MMmdl.
 55 58  0  0  0  0  0  0  0  0  2 V2000
  146.6319  141.9419  154.6554 C   0  0  0  0  0  0  0  0  0  0  0  0
  147.8597  141.8101  155.4758 N   0  3  2  0  0  0  0  0  0  0  0  0
  149.0693  141.3926  154.7257 C   0  0  1  0  0  0  0  0  0  0  0  0
  150.3205  141.7164  155.5749 C   0  0  0  0  0  0  0  0  0  0  0  0
  150.2750  141.1268  156.9992 C   0  0  0  0  0  0  0  0  0  0  0  0
  148.8869  141.2793  157.6545 C   0  0  0  0  0  0  0  0  0  0  0  0
  147.7070  140.9845  156.6984 C   0  0  2  0  0  0  0  0  0  0  0  0
  147.5155  139.4889  156.3453 C   0  0  0  0  0  0  0  0  0  0  0  0
  148.5706  138.9154  155.3719 C   0  0  1  0  0  0  0  0  0  0  0  0
  148.0393  137.6994  154.7594 N   0  0  0  0  0  0  0  0  0  0  0  0
  148.5906  136.4788  154.8202 C   0  0  0  0  0  0  0  0  0  0  0  0
  149.6424  136.2306  155.4095 O   0  0  0  0  0  0  0  0  0  0  0  0
  147.8541  135.5860  154.1390 N   0  0  0  0  0  0  0  0  0  0  0  0
  148.0815  134.1903  153.9770 C   0  0  0  0  0  0  0  0  0  0  0  0
  149.2297  133.5357  154.4853 C   0  0  0  0  0  0  0  0  0  0  0  0
  149.3629  132.1468  154.3046 C   0  0  0  0  0  0  0  0  0  0  0  0
  148.3384  131.4591  153.6299 C   0  0  0  0  0  0  0  0  0  0  0  0
  147.2318  132.0649  153.1533 N   0  0  0  0  0  0  0  0  0  0  0  0
  147.0986  133.4031  153.3241 C   0  0  0  0  0  0  0  0  0  0  0  0
  145.9375  134.0142  152.8176 N   0  0  0  0  0  0  0  0  0  0  0  0
  145.1109  133.1756  151.9656 C   0  0  0  0  0  0  0  0  0  0  0  0
  143.7692  133.9046  151.8569 C   0  0  0  0  0  0  0  0  0  0  0  0
  143.7220  134.8287  153.0800 C   0  0  0  0  0  0  0  0  0  0  0  0
  145.0433  134.5814  153.8129 C   0  0  0  0  0  0  0  0  0  0  0  0
  148.9635  139.9181  154.2612 C   0  0  0  0  0  0  0  0  0  0  0  0
  146.3126  140.9905  154.2308 H   0  0  0  0  0  0  0  0  0  0  0  0
  146.7976  142.6388  153.8334 H   0  0  0  0  0  0  0  0  0  0  0  0
  145.8125  142.3337  155.2585 H   0  0  0  0  0  0  0  0  0  0  0  0
  149.1356  142.0117  153.8297 H   0  0  0  0  0  0  0  0  0  0  0  0
  151.2254  141.3878  155.0624 H   0  0  0  0  0  0  0  0  0  0  0  0
  150.4038  142.8009  155.6584 H   0  0  0  0  0  0  0  0  0  0  0  0
  150.5769  140.0830  156.9867 H   0  0  0  0  0  0  0  0  0  0  0  0
  151.0248  141.6191  157.6195 H   0  0  0  0  0  0  0  0  0  0  0  0
  148.8228  140.6524  158.5446 H   0  0  0  0  0  0  0  0  0  0  0  0
  148.7892  142.3067  158.0077 H   0  0  0  0  0  0  0  0  0  0  0  0
  146.8030  141.3144  157.2126 H   0  0  0  0  0  0  0  0  0  0  0  0
  147.4925  138.8901  157.2567 H   0  0  0  0  0  0  0  0  0  0  0  0
  146.5255  139.3723  155.9026 H   0  0  0  0  0  0  0  0  0  0  0  0
  149.4583  138.6599  155.9452 H   0  0  0  0  0  0  0  0  0  0  0  0
  147.1764  137.7946  154.2440 H   0  0  0  0  0  0  0  0  0  0  0  0
  147.0750  135.9566  153.6148 H   0  0  0  0  0  0  0  0  0  0  0  0
  149.9996  134.0683  155.0220 H   0  0  0  0  0  0  0  0  0  0  0  0
  150.2280  131.6207  154.6798 H   0  0  0  0  0  0  0  0  0  0  0  0
  148.4058  130.3927  153.4737 H   0  0  0  0  0  0  0  0  0  0  0  0
  145.5722  133.0332  150.9880 H   0  0  0  0  0  0  0  0  0  0  0  0
  144.9669  132.1927  152.4167 H   0  0  0  0  0  0  0  0  0  0  0  0
  143.7328  134.4974  150.9420 H   0  0  0  0  0  0  0  0  0  0  0  0
  142.9337  133.2044  151.8325 H   0  0  0  0  0  0  0  0  0  0  0  0
  143.6553  135.8684  152.7572 H   0  0  0  0  0  0  0  0  0  0  0  0
  142.8644  134.6238  153.7215 H   0  0  0  0  0  0  0  0  0  0  0  0
  144.8909  133.8811  154.6353 H   0  0  0  0  0  0  0  0  0  0  0  0
  145.4519  135.5036  154.2270 H   0  0  0  0  0  0  0  0  0  0  0  0
  148.2203  139.8710  153.4640 H   0  0  0  0  0  0  0  0  0  0  0  0
  149.8994  139.6051  153.7966 H   0  0  0  0  0  0  0  0  0  0  0  0
  148.0516  142.7463  155.8025 H   0  0  0  0  0  0  0  0  0  0  0  0
  1  2  1  0  0  0  0
  1 26  1  0  0  0  0
  1 27  1  0  0  0  0
  1 28  1  0  0  0  0
  2  7  1  0  0  0  0
  2  3  1  0  0  0  0
  2 55  1  0  0  0  0
  3 25  1  0  0  0  0
  3  4  1  0  0  0  0
  3 29  1  0  0  0  0
  4  5  1  0  0  0  0
  4 30  1  0  0  0  0
  4 31  1  0  0  0  0
  5  6  1  0  0  0  0
  5 32  1  0  0  0  0
  5 33  1  0  0  0  0
  6  7  1  0  0  0  0
  6 34  1  0  0  0  0
  6 35  1  0  0  0  0
  7  8  1  0  0  0  0
  7 36  1  0  0  0  0
  8  9  1  0  0  0  0
  8 37  1  0  0  0  0
  8 38  1  0  0  0  0
  9 10  1  0  0  0  0
  9 25  1  0  0  0  0
  9 39  1  0  0  0  0
 10 11  1  0  0  0  0
 10 40  1  0  0  0  0
 11 12  2  0  0  0  0
 11 13  1  0  0  0  0
 13 14  1  0  0  0  0
 13 41  1  0  0  0  0
 14 19  1  0  0  0  0
 14 15  2  0  0  0  0
 15 16  1  0  0  0  0
 15 42  1  0  0  0  0
 16 17  2  0  0  0  0
 16 43  1  0  0  0  0
 17 18  1  0  0  0  0
 17 44  1  0  0  0  0
 18 19  2  0  0  0  0
 19 20  1  0  0  0  0
 20 24  1  0  0  0  0
 20 21  1  0  0  0  0
 21 22  1  0  0  0  0
 21 45  1  0  0  0  0
 21 46  1  0  0  0  0
 22 23  1  0  0  0  0
 22 47  1  0  0  0  0
 22 48  1  0  0  0  0
 23 24  1  0  0  0  0
 23 49  1  0  0  0  0
 23 50  1  0  0  0  0
 24 51  1  0  0  0  0
 24 52  1  0  0  0  0
 25 53  1  0  0  0  0
 25 54  1  0  0  0  0
M  CHG  1   2   1
M  END
> <s_m_source_file>
AV-unprocessed.smi

> <i_m_source_file_index>
2928

> <i_lp_mmshare_version>
43012

> <i_f3d_flags>
0

> <s_epik_input>
W0NIMl0xW0NIMl1bQ0gyXVtDQEhdKE4oW0NIM10pW0NIXTEyKVtDSDJdW0NASF0oW0NIMl0yKVtOSF1DKD1PKVtOSF1jM1tjSF1bY0hdW2NIXW5jM040W0NIMl1bQ0gyXVtDSDJdW0NIMl00

> <s_epik_cmdline>
J2VwaWtfcHl0aG9uJywgJy1waCcsICc3LjAnLCAnLXRuJywgJzgnLCAnLW1hJywgJzIwMCcsICctbWV0YWxfYmluZGluZycsICctaW1hZScsICc8aW5maWxlLm1hZT4nLCAnLW9tYWUnLCAnPG91dGZpbGUubWFlPic=

> <r_lp_tautomer_probability>
1

> <r_epik_Ionization_Penalty>
0.07954

> <r_epik_Ionization_Penalty_Charging>
0.00089841

> <r_epik_Ionization_Penalty_Neutral>
0.0786416

> <r_epik_State_Penalty>
0.0689917

> <r_epik_Charging_Adjusted_Penalty>
0.0698901

> <i_epik_Tot_Q>
1

> <i_epik_Tot_abs_Q>
1

> <r_epik_Metal_State_Penalty>
0.0608947

> <b_epik_Metal_Only>
0

> <s_lp_Force_Field>
OPLS_2005

> <r_lp_Energy>
65.7965

> <b_lp_Chiralities_Consistent>
1

> <s_lp_Variant>
AV-unprocessed.smi:2928-2

> <Gold.Version>
5.8.1

> <Gold.Id.Protein>
6NUR|6NUR_protein|mol2

> <Gold.PLP.Fitness>
43.2246

> <Gold.PLP.PLP>
-36.4873

> <Gold.PLP.part.hbond>
-2.0764

> <Gold.PLP.part.metal>
0.0000

> <Gold.PLP.part.buried>
-5.0306

> <Gold.PLP.part.nonpolar>
-31.4061

> <Gold.PLP.part.repulsive>
1.6727

> <Gold.PLP.ligand.clash>
0.0000

> <Gold.PLP.ligand.torsion>
0.1504

> <Gold.PLP.Chemscore.Hbond>
2.3360

> <Gold.PLP.Chemscore.CHOScore>
0.0000

> <Gold.PLP.Chemscore.Metal>
0.0000

> <Gold.Chemscore.Hbonds>
donor molecule, donor type, donor heavy atom, donor atom, acceptor molecule, acceptor atom, score
      L1  H     2    55       P1  8028  1.50

> <Gold.PLP.Chemscore.Internal.Correction>
0.0301

> <Gold.Rescore>
     Score         DG    S(hbond)    S(metal)    S(lipo)     H(rot)  DE(clash)    DE(int)     intcor
     14.93     -16.78       1.46        0.00      80.72       1.18       0.18       1.67       ----

> <Gold.Chemscore.Fitness>
14.9270

> <Gold.Chemscore.DG>
-16.7766

> <Gold.Chemscore.ZeroCoef>
-5.4800

> <Gold.Chemscore.Hbond>
1.4571

> <Gold.Chemscore.Metal>
0.0000

> <Gold.Chemscore.Lipo>
80.7218

> <Gold.Chemscore.Internal_Hbond>
0.0000

> <Gold.Chemscore.DEClash>
0.1794

> <Gold.Chemscore.DEInternal>
1.6702

> <Gold.Chemscore.Rot>
1.1776

> <Gold.Chemscore.Internal.Correction>
   9.000000E+99

> <Gold.Chemscore.Hbonds>
donor molecule, donor type, donor heavy atom, donor atom, acceptor molecule, acceptor atom, score
      L1  H     2    55       P1  8028  0.63

> <Gold.Chemscore.Hbond.Weighted>
-4.8669

> <Gold.Chemscore.Metal.Weighted>
-0.0000

> <Gold.Chemscore.Lipo.Weighted>
-9.4444

> <Gold.Chemscore.Internal_Hbond.Weighted>
0.0000

> <Gold.Chemscore.DEClash.Weighted>
0.1794

> <Gold.Chemscore.DEInternal.Weighted>
1.6702

> <Gold.Chemscore.Rot.Weighted>
3.0147

> <Gold.Chemscore.Internal.Correction.Weighted>
   9.000000E+99

> <Gold.Protein.RotatedTorsions>
[ 6907 6896 6895 6894 ] final  133.23 input  -60.11 | X-H torsion
[ 7974 7965 7964 7962 ] final -167.96 input  175.53 | X-H torsion
[ 8008 7997 7996 7995 ] final  -50.46 input   59.86 | X-H torsion
[ 10167 10162 10161 10158 ] final    8.45 input  -65.29 | X-H torsion
[ 10718 10713 10712 10709 ] final  -49.44 input   66.30 | X-H torsion
[ 10763 10752 10751 10750 ] final   33.59 input  -60.55 | X-H torsion
[ 11005 11000 10999 10996 ] final -111.30 input  -57.11 | X-H torsion

> <Gold.Protein.ActiveResidues>
 VAL166  LYS551  ARG553  GLY616  TRP617  ASP618  TYR619  PRO620  LYS621  CYS622 
 ASP623  PHE694  ASN695  SER759  ASP760  ASP761  ALA762  ILE779  LEU786  VAL792 
 PHE793  MET794  SER795  GLU796  ALA797  LYS798  CYS799  TRP800  GLU811  SER814 

> <Gold.Protein.RotatedAtoms>
  152.3242  133.5886  159.5764 H   0  0  0  0  0  0  0  0  0  0  0  0  # atno 6907 bound_to 6896
  150.7387  133.9966  159.3633 H   0  0  0  0  0  0  0  0  0  0  0  0  # atno 6908 bound_to 6896
  151.7847  135.0752  160.0430 H   0  0  0  0  0  0  0  0  0  0  0  0  # atno 6909 bound_to 6896
  144.7212  140.2441  143.6287 H   0  0  0  0  0  0  0  0  0  0  0  0  # atno 7974 bound_to 7965
  154.4062  140.1272  156.4669 H   0  0  0  0  0  0  0  0  0  0  0  0  # atno 8008 bound_to 7997
  155.7218  140.3492  155.4999 H   0  0  0  0  0  0  0  0  0  0  0  0  # atno 8009 bound_to 7997
  155.9207  140.1052  157.1199 H   0  0  0  0  0  0  0  0  0  0  0  0  # atno 8010 bound_to 7997
  140.6313  143.7986  150.7300 H   0  0  0  0  0  0  0  0  0  0  0  0  # atno 10167 bound_to 10162
  156.1893  130.4152  149.9394 H   0  0  0  0  0  0  0  0  0  0  0  0  # atno 10718 bound_to 10713
  153.0204  135.6383  154.1535 H   0  0  0  0  0  0  0  0  0  0  0  0  # atno 10763 bound_to 10752
  154.1270  135.2843  155.3196 H   0  0  0  0  0  0  0  0  0  0  0  0  # atno 10764 bound_to 10752
  154.6222  135.5521  153.7649 H   0  0  0  0  0  0  0  0  0  0  0  0  # atno 10765 bound_to 10752
  141.0742  133.9329  157.2423 H   0  0  0  0  0  0  0  0  0  0  0  0  # atno 11005 bound_to 11000
  145.8291  139.2078  143.1893 LP  0  0  0  0  0  0  0  0  0  0  0  0  # atno 17320 bound_to 7965
  146.0446  140.8130  142.9811 LP  0  0  0  0  0  0  0  0  0  0  0  0  # atno 17321 bound_to 7965
  140.1598  143.4285  152.2075 LP  0  0  0  0  0  0  0  0  0  0  0  0  # atno 17342 bound_to 10162
  139.5527  144.7350  151.4385 LP  0  0  0  0  0  0  0  0  0  0  0  0  # atno 17343 bound_to 10162
  156.7140  130.8981  151.3612 LP  0  0  0  0  0  0  0  0  0  0  0  0  # atno 17370 bound_to 10713
  157.6919  130.9242  150.0537 LP  0  0  0  0  0  0  0  0  0  0  0  0  # atno 17371 bound_to 10713
  139.9555  135.0166  156.9114 LP  0  0  0  0  0  0  0  0  0  0  0  0  # atno 17394 bound_to 11000
  140.5609  134.0536  155.7398 LP  0  0  0  0  0  0  0  0  0  0  0  0  # atno 17395 bound_to 11000

$$$$
