AV-unprocessed.smi:648|AV-procd|sdf|3176|dock1
  -GOLD-   22720 0103D 1   1.00000     0.00000
 Structure written by MMmdl.
 45 46  0  0  0  0  0  0  0  0  1 V2000
  148.1697  141.3002  153.7725 C   0  0  0  0  0  0  0  0  0  0  0  0
  148.8958  140.5557  154.9025 C   0  0  2  0  0  0  0  0  0  0  0  0
  147.8907  139.9593  155.9061 C   0  0  0  0  0  0  0  0  0  0  0  0
  148.5560  139.1755  157.0618 C   0  0  0  0  0  0  0  0  0  0  0  0
  147.4910  138.9196  158.1509 C   0  0  0  0  0  0  0  0  0  0  0  0
  149.0261  137.7831  156.5806 C   0  0  0  0  0  0  0  0  0  0  0  0
  149.6991  140.0205  157.7045 C   0  0  0  0  0  0  0  0  0  0  0  0
  150.6876  140.7701  156.7553 C   0  0  2  0  0  0  0  0  0  0  0  0
  151.7341  139.7888  156.1588 C   0  0  0  0  0  0  0  0  0  0  0  0
  152.4486  139.0936  157.1638 O   0  0  0  0  0  0  0  0  0  0  0  0
  151.4849  141.7405  157.5400 N   0  0  0  0  0  0  0  0  0  0  0  0
  151.8294  141.4513  158.9393 C   0  0  0  0  0  0  0  0  0  0  0  0
  152.6613  142.5922  159.5451 C   0  0  0  0  0  0  0  0  0  0  0  0
  151.9977  143.8777  159.4309 N   0  0  0  0  0  0  0  0  0  0  0  0
  152.4769  145.1164  159.5563 C   0  0  0  0  0  0  0  0  0  0  0  0
  151.5664  146.0632  159.3768 N   0  0  0  0  0  0  0  0  0  0  0  0
  150.4724  145.2830  159.1282 C   0  0  0  0  0  0  0  0  0  0  0  0
  150.6765  143.9658  159.1502 N   0  0  0  0  0  0  0  0  0  0  0  0
  149.8771  141.4862  155.6383 C   0  0  0  0  0  0  0  0  0  0  0  0
  147.5832  142.1350  154.1578 H   0  0  0  0  0  0  0  0  0  0  0  0
  147.4908  140.6356  153.2374 H   0  0  0  0  0  0  0  0  0  0  0  0
  148.8787  141.6985  153.0464 H   0  0  0  0  0  0  0  0  0  0  0  0
  149.4555  139.7480  154.4331 H   0  0  0  0  0  0  0  0  0  0  0  0
  147.2966  140.7758  156.3199 H   0  0  0  0  0  0  0  0  0  0  0  0
  147.1827  139.3145  155.3833 H   0  0  0  0  0  0  0  0  0  0  0  0
  147.9100  138.3666  158.9926 H   0  0  0  0  0  0  0  0  0  0  0  0
  146.6520  138.3406  157.7633 H   0  0  0  0  0  0  0  0  0  0  0  0
  147.0813  139.8508  158.5446 H   0  0  0  0  0  0  0  0  0  0  0  0
  149.6590  137.2961  157.3230 H   0  0  0  0  0  0  0  0  0  0  0  0
  149.5676  137.8092  155.6399 H   0  0  0  0  0  0  0  0  0  0  0  0
  148.1752  137.1241  156.4038 H   0  0  0  0  0  0  0  0  0  0  0  0
  149.1976  140.7641  158.3201 H   0  0  0  0  0  0  0  0  0  0  0  0
  150.2597  139.4082  158.4124 H   0  0  0  0  0  0  0  0  0  0  0  0
  151.2504  139.0586  155.5084 H   0  0  0  0  0  0  0  0  0  0  0  0
  152.4796  140.2904  155.5540 H   0  0  0  0  0  0  0  0  0  0  0  0
  151.9317  138.3530  157.4418 H   0  0  0  0  0  0  0  0  0  0  0  0
  151.0379  142.6506  157.4856 H   0  0  0  0  0  0  0  0  0  0  0  0
  150.9351  141.3209  159.5468 H   0  0  0  0  0  0  0  0  0  0  0  0
  152.4051  140.5313  159.0196 H   0  0  0  0  0  0  0  0  0  0  0  0
  152.8465  142.3957  160.6020 H   0  0  0  0  0  0  0  0  0  0  0  0
  153.6377  142.6541  159.0625 H   0  0  0  0  0  0  0  0  0  0  0  0
  153.5122  145.3294  159.7789 H   0  0  0  0  0  0  0  0  0  0  0  0
  149.4960  145.6981  158.9261 H   0  0  0  0  0  0  0  0  0  0  0  0
  150.5494  141.9621  154.9236 H   0  0  0  0  0  0  0  0  0  0  0  0
  149.2809  142.2934  156.0612 H   0  0  0  0  0  0  0  0  0  0  0  0
  1  2  1  0  0  0  0
  1 20  1  0  0  0  0
  1 21  1  0  0  0  0
  1 22  1  0  0  0  0
  2 19  1  0  0  0  0
  2  3  1  0  0  0  0
  2 23  1  0  0  0  0
  3  4  1  0  0  0  0
  3 24  1  0  0  0  0
  3 25  1  0  0  0  0
  4  5  1  0  0  0  0
  4  6  1  0  0  0  0
  4  7  1  0  0  0  0
  5 26  1  0  0  0  0
  5 27  1  0  0  0  0
  5 28  1  0  0  0  0
  6 29  1  0  0  0  0
  6 30  1  0  0  0  0
  6 31  1  0  0  0  0
  7  8  1  0  0  0  0
  7 32  1  0  0  0  0
  7 33  1  0  0  0  0
  8  9  1  0  0  0  0
  8 11  1  0  0  0  0
  8 19  1  0  0  0  0
  9 10  1  0  0  0  0
  9 34  1  0  0  0  0
  9 35  1  0  0  0  0
 10 36  1  0  0  0  0
 11 12  1  0  0  0  0
 11 37  1  0  0  0  0
 12 13  1  0  0  0  0
 12 38  1  0  0  0  0
 12 39  1  0  0  0  0
 13 14  1  0  0  0  0
 13 40  1  0  0  0  0
 13 41  1  0  0  0  0
 14 18  1  0  0  0  0
 14 15  1  0  0  0  0
 15 16  2  0  0  0  0
 15 42  1  0  0  0  0
 16 17  1  0  0  0  0
 17 18  2  0  0  0  0
 17 43  1  0  0  0  0
 19 44  1  0  0  0  0
 19 45  1  0  0  0  0
M  END
> <s_m_source_file>
AV-unprocessed.smi

> <i_m_source_file_index>
648

> <i_lp_mmshare_version>
43012

> <i_f3d_flags>
0

> <s_epik_input>
W0NIM11DMShbQ0gzXSlbQ0gyXVtDQEBIXShbQ0gzXSlbQ0gyXVtDQF0oW0NIMl0xKShbQ0gyXVtPSF0pW05IXVtDSDJdW0NIMl1uMltjSF1uW2NIXW4y

> <s_epik_cmdline>
J2VwaWtfcHl0aG9uJywgJy1waCcsICc3LjAnLCAnLXRuJywgJzgnLCAnLW1hJywgJzIwMCcsICctbWV0YWxfYmluZGluZycsICctaW1hZScsICc8aW5maWxlLm1hZT4nLCAnLW9tYWUnLCAnPG91dGZpbGUubWFlPic=

> <r_lp_tautomer_probability>
1

> <r_epik_Ionization_Penalty>
2.45849

> <r_epik_Ionization_Penalty_Charging>
0

> <r_epik_Ionization_Penalty_Neutral>
2.45849

> <r_epik_State_Penalty>
2.62037

> <r_epik_Charging_Adjusted_Penalty>
2.62037

> <i_epik_Tot_Q>
0

> <i_epik_Tot_abs_Q>
0

> <r_epik_Metal_State_Penalty>
2.62024

> <b_epik_Metal_Only>
0

> <s_lp_Force_Field>
OPLS_2005

> <r_lp_Energy>
36.1132

> <b_lp_Chiralities_Consistent>
1

> <s_lp_Variant>
AV-unprocessed.smi:648-7

> <Gold.Version>
5.8.1

> <Gold.Id.Protein>
6NUR|6NUR_protein|mol2

> <Gold.PLP.Fitness>
38.3397

> <Gold.PLP.PLP>
-33.6917

> <Gold.PLP.part.hbond>
-3.0000

> <Gold.PLP.part.metal>
0.0000

> <Gold.PLP.part.buried>
-3.7060

> <Gold.PLP.part.nonpolar>
-27.1824

> <Gold.PLP.part.repulsive>
0.3162

> <Gold.PLP.ligand.clash>
0.0000

> <Gold.PLP.ligand.torsion>
0.7119

> <Gold.PLP.Chemscore.Hbond>
1.0000

> <Gold.PLP.Chemscore.CHOScore>
0.9943

> <Gold.PLP.Chemscore.Metal>
0.0000

> <Gold.Chemscore.Hbonds>
donor molecule, donor type, donor heavy atom, donor atom, acceptor molecule, acceptor atom, score
      P1  H  7997  8010       L1    10  0.23
      L1  C    17    43       P1  8029  1.00

> <Gold.PLP.Chemscore.Internal.Correction>
0.0890

> <Gold.Rescore>
     Score         DG    S(hbond)    S(metal)    S(lipo)     H(rot)  DE(clash)    DE(int)     intcor
      5.57      -7.81       0.96        0.00      60.80       3.12       0.04       2.20       ----

> <Gold.Chemscore.Fitness>
5.5650

> <Gold.Chemscore.DG>
-7.8078

> <Gold.Chemscore.ZeroCoef>
-5.4800

> <Gold.Chemscore.Hbond>
0.9573

> <Gold.Chemscore.Metal>
0.0000

> <Gold.Chemscore.Lipo>
60.7976

> <Gold.Chemscore.Internal_Hbond>
0.0000

> <Gold.Chemscore.DEClash>
0.0437

> <Gold.Chemscore.DEInternal>
2.1990

> <Gold.Chemscore.Rot>
3.1183

> <Gold.Chemscore.Internal.Correction>
   9.000000E+99

> <Gold.Chemscore.Hbonds>
donor molecule, donor type, donor heavy atom, donor atom, acceptor molecule, acceptor atom, score
      P1  H  7997  8010       L1    10  0.01

> <Gold.Chemscore.Hbond.Weighted>
-3.1974

> <Gold.Chemscore.Metal.Weighted>
-0.0000

> <Gold.Chemscore.Lipo.Weighted>
-7.1133

> <Gold.Chemscore.Internal_Hbond.Weighted>
0.0000

> <Gold.Chemscore.DEClash.Weighted>
0.0437

> <Gold.Chemscore.DEInternal.Weighted>
2.1990

> <Gold.Chemscore.Rot.Weighted>
7.9829

> <Gold.Chemscore.Internal.Correction.Weighted>
   9.000000E+99

> <Gold.Protein.RotatedTorsions>
[ 6907 6896 6895 6894 ] final -100.81 input  -60.11 | X-H torsion
[ 7974 7965 7964 7962 ] final -173.88 input  175.53 | X-H torsion
[ 8008 7997 7996 7995 ] final   68.99 input   59.86 | X-H torsion
[ 10167 10162 10161 10158 ] final -126.55 input  -65.29 | X-H torsion
[ 10718 10713 10712 10709 ] final -144.16 input   66.30 | X-H torsion
[ 10763 10752 10751 10750 ] final   77.57 input  -60.55 | X-H torsion
[ 11005 11000 10999 10996 ] final    3.08 input  -57.11 | X-H torsion

> <Gold.Protein.ActiveResidues>
 VAL166  LYS551  ARG553  GLY616  TRP617  ASP618  TYR619  PRO620  LYS621  CYS622 
 ASP623  PHE694  ASN695  SER759  ASP760  ASP761  ALA762  ILE779  LEU786  VAL792 
 PHE793  MET794  SER795  GLU796  ALA797  LYS798  CYS799  TRP800  GLU811  SER814 

> <Gold.Protein.RotatedAtoms>
  150.7130  134.0830  159.3904 H   0  0  0  0  0  0  0  0  0  0  0  0  # atno 6907 bound_to 6896
  151.8815  135.0449  160.0498 H   0  0  0  0  0  0  0  0  0  0  0  0  # atno 6908 bound_to 6896
  152.2564  133.5224  159.5392 H   0  0  0  0  0  0  0  0  0  0  0  0  # atno 6909 bound_to 6896
  144.7135  140.1556  143.6380 H   0  0  0  0  0  0  0  0  0  0  0  0  # atno 7974 bound_to 7965
  155.7168  140.3494  155.4998 H   0  0  0  0  0  0  0  0  0  0  0  0  # atno 8008 bound_to 7997
  155.9306  140.1083  157.1157 H   0  0  0  0  0  0  0  0  0  0  0  0  # atno 8009 bound_to 7997
  154.4084  140.1232  156.4784 H   0  0  0  0  0  0  0  0  0  0  0  0  # atno 8010 bound_to 7997
  139.9703  143.5853  152.2415 H   0  0  0  0  0  0  0  0  0  0  0  0  # atno 10167 bound_to 10162
  156.3667  130.7767  151.1942 H   0  0  0  0  0  0  0  0  0  0  0  0  # atno 10718 bound_to 10713
  153.0809  135.4909  154.8500 H   0  0  0  0  0  0  0  0  0  0  0  0  # atno 10763 bound_to 10752
  154.7149  135.3027  154.9142 H   0  0  0  0  0  0  0  0  0  0  0  0  # atno 10764 bound_to 10752
  153.9824  135.6788  153.4803 H   0  0  0  0  0  0  0  0  0  0  0  0  # atno 10765 bound_to 10752
  140.5971  133.9870  155.8115 H   0  0  0  0  0  0  0  0  0  0  0  0  # atno 11005 bound_to 11000
  145.9077  139.2468  143.1456 LP  0  0  0  0  0  0  0  0  0  0  0  0  # atno 17320 bound_to 7965
  145.9747  140.8731  143.0144 LP  0  0  0  0  0  0  0  0  0  0  0  0  # atno 17321 bound_to 7965
  139.6486  144.7659  151.2193 LP  0  0  0  0  0  0  0  0  0  0  0  0  # atno 17342 bound_to 10162
  140.7524  143.6197  150.8525 LP  0  0  0  0  0  0  0  0  0  0  0  0  # atno 17343 bound_to 10162
  157.7479  131.0384  150.4501 LP  0  0  0  0  0  0  0  0  0  0  0  0  # atno 17370 bound_to 10713
  156.4721  130.4055  149.6511 LP  0  0  0  0  0  0  0  0  0  0  0  0  # atno 17371 bound_to 10713
  141.0897  133.9936  157.3257 LP  0  0  0  0  0  0  0  0  0  0  0  0  # atno 17394 bound_to 11000
  139.9248  135.0201  156.8196 LP  0  0  0  0  0  0  0  0  0  0  0  0  # atno 17395 bound_to 11000

$$$$
