AV-unprocessed.smi:13|AV-procd|sdf|71|dock7
  -GOLD-   2262015193D 1   1.00000     0.00000
 Structure written by MMmdl.
 54 58  0  0  0  0  0  0  0  0  1 V2000
  148.0751  134.5675  162.3228 C   0  0  0  0  0  0  0  0  0  0  0  0
  147.8479  136.0521  162.0394 C   0  0  0  0  0  0  0  0  0  0  0  0
  147.7737  136.7537  163.4027 C   0  0  0  0  0  0  0  0  0  0  0  0
  148.8163  136.6959  161.0353 C   0  0  0  0  0  0  0  0  0  0  0  0
  147.6667  137.3871  160.4792 N   0  0  0  0  0  0  0  0  0  0  0  0
  147.7376  137.5829  159.0694 C   0  0  0  0  0  0  0  0  0  0  0  0
  146.7080  138.1580  158.3922 N   0  0  0  0  0  0  0  0  0  0  0  0
  146.7725  138.3539  157.0724 C   0  0  0  0  0  0  0  0  0  0  0  0
  147.7652  138.0557  156.2337 N   0  0  0  0  0  0  0  0  0  0  0  0
  148.8095  137.4848  156.8973 C   0  0  0  0  0  0  0  0  0  0  0  0
  148.8769  137.2216  158.2953 C   0  0  0  0  0  0  0  0  0  0  0  0
  150.1017  136.6435  158.6070 N   0  0  0  0  0  0  0  0  0  0  0  0
  150.7186  136.5626  157.4601 C   0  0  0  0  0  0  0  0  0  0  0  0
  150.0118  137.0368  156.3784 N   0  0  0  0  0  0  0  0  0  0  0  0
  150.4550  137.0593  154.9929 C   0  0  0  0  0  0  0  0  0  0  0  0
  150.8265  138.4747  154.4933 C   0  0  1  0  0  0  0  0  0  0  0  0
  150.3310  138.6427  153.1759 O   0  0  0  0  0  0  0  0  0  0  0  0
  150.2848  139.6057  155.3627 C   0  0  0  0  0  0  0  0  0  0  0  0
  151.3464  140.6862  155.2146 C   0  0  0  0  0  0  0  0  0  0  0  0
  152.5501  139.9381  155.2239 O   0  0  0  0  0  0  0  0  0  0  0  0
  152.3451  138.7412  154.4796 C   0  0  0  0  0  0  0  0  0  0  0  0
  146.7508  136.3762  160.9968 C   0  0  2  0  0  0  0  0  0  0  0  0
  145.3957  136.9609  161.4100 C   0  0  2  0  0  0  0  0  0  0  0  0
  144.6742  136.1486  162.4865 C   0  0  0  0  0  0  0  0  0  0  0  0
  143.2014  136.4453  162.2459 C   0  0  0  0  0  0  0  0  0  0  0  0
  143.1770  137.1301  160.8780 C   0  0  0  0  0  0  0  0  0  0  0  0
  144.4692  136.9036  160.3371 O   0  0  0  0  0  0  0  0  0  0  0  0
  148.9964  134.4022  162.8820 H   0  0  0  0  0  0  0  0  0  0  0  0
  148.1512  133.9922  161.3996 H   0  0  0  0  0  0  0  0  0  0  0  0
  147.2548  134.1408  162.9010 H   0  0  0  0  0  0  0  0  0  0  0  0
  147.5638  137.8187  163.2991 H   0  0  0  0  0  0  0  0  0  0  0  0
  148.7169  136.6680  163.9432 H   0  0  0  0  0  0  0  0  0  0  0  0
  146.9969  136.3296  164.0383 H   0  0  0  0  0  0  0  0  0  0  0  0
  149.5588  137.3604  161.4782 H   0  0  0  0  0  0  0  0  0  0  0  0
  149.2618  135.9818  160.3397 H   0  0  0  0  0  0  0  0  0  0  0  0
  145.9044  138.8163  156.6261 H   0  0  0  0  0  0  0  0  0  0  0  0
  151.7110  136.1453  157.3691 H   0  0  0  0  0  0  0  0  0  0  0  0
  151.3116  136.3907  154.8973 H   0  0  0  0  0  0  0  0  0  0  0  0
  149.6653  136.6334  154.3725 H   0  0  0  0  0  0  0  0  0  0  0  0
  149.8632  137.8592  152.9300 H   0  0  0  0  0  0  0  0  0  0  0  0
  149.2850  139.9396  155.0821 H   0  0  0  0  0  0  0  0  0  0  0  0
  150.2503  139.2953  156.4073 H   0  0  0  0  0  0  0  0  0  0  0  0
  151.2438  141.2115  154.2639 H   0  0  0  0  0  0  0  0  0  0  0  0
  151.3206  141.4189  156.0215 H   0  0  0  0  0  0  0  0  0  0  0  0
  152.9126  137.9335  154.9429 H   0  0  0  0  0  0  0  0  0  0  0  0
  152.7313  138.8705  153.4672 H   0  0  0  0  0  0  0  0  0  0  0  0
  146.6517  135.5406  160.3009 H   0  0  0  0  0  0  0  0  0  0  0  0
  145.4923  137.9982  161.7361 H   0  0  0  0  0  0  0  0  0  0  0  0
  144.8596  135.0835  162.3404 H   0  0  0  0  0  0  0  0  0  0  0  0
  144.9917  136.4070  163.4961 H   0  0  0  0  0  0  0  0  0  0  0  0
  142.6186  135.5237  162.2420 H   0  0  0  0  0  0  0  0  0  0  0  0
  142.7897  137.1008  163.0139 H   0  0  0  0  0  0  0  0  0  0  0  0
  142.3998  136.7350  160.2235 H   0  0  0  0  0  0  0  0  0  0  0  0
  143.0176  138.2036  160.9881 H   0  0  0  0  0  0  0  0  0  0  0  0
  1  2  1  0  0  0  0
  1 28  1  0  0  0  0
  1 29  1  0  0  0  0
  1 30  1  0  0  0  0
  2 22  1  0  0  0  0
  2  3  1  0  0  0  0
  2  4  1  0  0  0  0
  3 31  1  0  0  0  0
  3 32  1  0  0  0  0
  3 33  1  0  0  0  0
  4  5  1  0  0  0  0
  4 34  1  0  0  0  0
  4 35  1  0  0  0  0
  5  6  1  0  0  0  0
  5 22  1  0  0  0  0
  6 11  1  0  0  0  0
  6  7  2  0  0  0  0
  7  8  1  0  0  0  0
  8  9  2  0  0  0  0
  8 36  1  0  0  0  0
  9 10  1  0  0  0  0
 10 14  1  0  0  0  0
 10 11  2  0  0  0  0
 11 12  1  0  0  0  0
 12 13  2  0  0  0  0
 13 14  1  0  0  0  0
 13 37  1  0  0  0  0
 14 15  1  0  0  0  0
 15 16  1  0  0  0  0
 15 38  1  0  0  0  0
 15 39  1  0  0  0  0
 16 21  1  0  0  0  0
 16 17  1  0  0  0  0
 16 18  1  0  0  0  0
 17 40  1  0  0  0  0
 18 19  1  0  0  0  0
 18 41  1  0  0  0  0
 18 42  1  0  0  0  0
 19 20  1  0  0  0  0
 19 43  1  0  0  0  0
 19 44  1  0  0  0  0
 20 21  1  0  0  0  0
 21 45  1  0  0  0  0
 21 46  1  0  0  0  0
 22 23  1  0  0  0  0
 22 47  1  0  0  0  0
 23 27  1  0  0  0  0
 23 24  1  0  0  0  0
 23 48  1  0  0  0  0
 24 25  1  0  0  0  0
 24 49  1  0  0  0  0
 24 50  1  0  0  0  0
 25 26  1  0  0  0  0
 25 51  1  0  0  0  0
 25 52  1  0  0  0  0
 26 27  1  0  0  0  0
 26 53  1  0  0  0  0
 26 54  1  0  0  0  0
M  END
> <s_m_source_file>
AV-unprocessed.smi

> <i_m_source_file_index>
13

> <i_lp_mmshare_version>
43012

> <i_f3d_flags>
0

> <s_epik_input>
TzFbQ0gyXVtDSDJdW0NIMl1bQ0BIXTFbQ0BASF0yTihbQ0gyXUMyKFtDSDNdKVtDSDNdKWMobltjSF1uMyljKGMzNCluW2NIXW40W0NIMl1bQ0BAXTUoW09IXSlbQ0gyXVtDSDJdT1tDSDJdNQ==

> <s_epik_cmdline>
J2VwaWtfcHl0aG9uJywgJy1waCcsICc3LjAnLCAnLXRuJywgJzgnLCAnLW1hJywgJzIwMCcsICctbWV0YWxfYmluZGluZycsICctaW1hZScsICc8aW5maWxlLm1hZT4nLCAnLW9tYWUnLCAnPG91dGZpbGUubWFlPic=

> <r_lp_tautomer_probability>
1

> <r_epik_Ionization_Penalty>
0.00202764

> <r_epik_Ionization_Penalty_Charging>
0

> <r_epik_Ionization_Penalty_Neutral>
0.00202764

> <r_epik_State_Penalty>
0.00134017

> <r_epik_Charging_Adjusted_Penalty>
0.00134017

> <i_epik_Tot_Q>
0

> <i_epik_Tot_abs_Q>
0

> <r_epik_Metal_State_Penalty>
-0

> <b_epik_Metal_Only>
0

> <s_lp_Force_Field>
OPLS_2005

> <r_lp_Energy>
61.7559

> <b_lp_Chiralities_Consistent>
1

> <s_lp_Variant>
AV-unprocessed.smi:13-3

> <Gold.Version>
5.8.1

> <Gold.Id.Protein>
6NUR|6NUR_protein|mol2

> <Gold.PLP.Fitness>
44.9671

> <Gold.PLP.PLP>
-36.7953

> <Gold.PLP.part.hbond>
-7.0307

> <Gold.PLP.part.metal>
0.0000

> <Gold.PLP.part.buried>
0.0947

> <Gold.PLP.part.nonpolar>
-30.0039

> <Gold.PLP.part.repulsive>
0.0000

> <Gold.PLP.ligand.clash>
0.0747

> <Gold.PLP.ligand.torsion>
1.5459

> <Gold.PLP.Chemscore.Hbond>
3.6448

> <Gold.PLP.Chemscore.CHOScore>
0.0000

> <Gold.PLP.Chemscore.Metal>
0.0000

> <Gold.Chemscore.Hbonds>
donor molecule, donor type, donor heavy atom, donor atom, acceptor molecule, acceptor atom, score
      L1  H    17    40       P1  7948  0.83
      P1  H  6896  6907       L1    12  0.49
      P1  H  6934  6947       L1     5  0.81
      P1  H  7997  8008       L1    20  0.99

> <Gold.PLP.Chemscore.Internal.Correction>
0.4040

> <Gold.Rescore>
     Score         DG    S(hbond)    S(metal)    S(lipo)     H(rot)  DE(clash)    DE(int)     intcor
     14.47     -17.84       2.45        0.00      85.91       2.30       0.18       3.19       ----

> <Gold.Chemscore.Fitness>
14.4737

> <Gold.Chemscore.DG>
-17.8422

> <Gold.Chemscore.ZeroCoef>
-5.4800

> <Gold.Chemscore.Hbond>
2.4543

> <Gold.Chemscore.Metal>
0.0000

> <Gold.Chemscore.Lipo>
85.9116

> <Gold.Chemscore.Internal_Hbond>
0.0000

> <Gold.Chemscore.DEClash>
0.1751

> <Gold.Chemscore.DEInternal>
3.1934

> <Gold.Chemscore.Rot>
2.2996

> <Gold.Chemscore.Internal.Correction>
   9.000000E+99

> <Gold.Chemscore.Hbonds>
donor molecule, donor type, donor heavy atom, donor atom, acceptor molecule, acceptor atom, score
      L1  H    17    40       P1  7948  0.36
      P1  H  6896  6907       L1    12  0.16
      P1  H  6934  6947       L1     5  0.13
      P1  H  7997  8008       L1    20  0.87

> <Gold.Chemscore.Hbond.Weighted>
-8.1975

> <Gold.Chemscore.Metal.Weighted>
-0.0000

> <Gold.Chemscore.Lipo.Weighted>
-10.0517

> <Gold.Chemscore.Internal_Hbond.Weighted>
0.0000

> <Gold.Chemscore.DEClash.Weighted>
0.1751

> <Gold.Chemscore.DEInternal.Weighted>
3.1934

> <Gold.Chemscore.Rot.Weighted>
5.8869

> <Gold.Chemscore.Internal.Correction.Weighted>
   9.000000E+99

> <Gold.Protein.RotatedTorsions>
[ 6907 6896 6895 6894 ] final  -57.50 input  -60.11 | X-H torsion
[ 7974 7965 7964 7962 ] final -135.14 input  175.53 | X-H torsion
[ 8008 7997 7996 7995 ] final  -31.43 input   59.86 | X-H torsion
[ 10167 10162 10161 10158 ] final  -56.11 input  -65.29 | X-H torsion
[ 10718 10713 10712 10709 ] final  108.06 input   66.30 | X-H torsion
[ 10763 10752 10751 10750 ] final  179.26 input  -60.55 | X-H torsion
[ 11005 11000 10999 10996 ] final   31.55 input  -57.11 | X-H torsion

> <Gold.Protein.ActiveResidues>
 VAL166  LYS551  ARG553  GLY616  TRP617  ASP618  TYR619  PRO620  LYS621  CYS622 
 ASP623  PHE694  ASN695  SER759  ASP760  ASP761  ALA762  ILE779  LEU786  VAL792 
 PHE793  MET794  SER795  GLU796  ALA797  LYS798  CYS799  TRP800  GLU811  SER814 

> <Gold.Protein.RotatedAtoms>
  150.8081  134.7218  159.6662 H   0  0  0  0  0  0  0  0  0  0  0  0  # atno 6907 bound_to 6896
  152.4200  134.5968  159.9999 H   0  0  0  0  0  0  0  0  0  0  0  0  # atno 6908 bound_to 6896
  151.6186  133.3304  159.3119 H   0  0  0  0  0  0  0  0  0  0  0  0  # atno 6909 bound_to 6896
  144.9040  140.6809  143.5067 H   0  0  0  0  0  0  0  0  0  0  0  0  # atno 7974 bound_to 7965
  154.4214  140.1764  156.1565 H   0  0  0  0  0  0  0  0  0  0  0  0  # atno 8008 bound_to 7997
  155.9873  140.3372  155.6695 H   0  0  0  0  0  0  0  0  0  0  0  0  # atno 8009 bound_to 7997
  155.6420  140.0681  157.2606 H   0  0  0  0  0  0  0  0  0  0  0  0  # atno 8010 bound_to 7997
  140.6336  143.2471  151.5177 H   0  0  0  0  0  0  0  0  0  0  0  0  # atno 10167 bound_to 10162
  157.6602  131.0886  150.6250 H   0  0  0  0  0  0  0  0  0  0  0  0  # atno 10718 bound_to 10713
  154.5183  135.2792  155.1284 H   0  0  0  0  0  0  0  0  0  0  0  0  # atno 10763 bound_to 10752
  154.2851  135.6278  153.5366 H   0  0  0  0  0  0  0  0  0  0  0  0  # atno 10764 bound_to 10752
  152.9932  135.5660  154.5666 H   0  0  0  0  0  0  0  0  0  0  0  0  # atno 10765 bound_to 10752
  140.2827  134.2954  155.7796 H   0  0  0  0  0  0  0  0  0  0  0  0  # atno 11005 bound_to 11000
  145.3567  139.1692  143.4405 LP  0  0  0  0  0  0  0  0  0  0  0  0  # atno 17320 bound_to 7965
  146.3124  140.3625  142.8666 LP  0  0  0  0  0  0  0  0  0  0  0  0  # atno 17321 bound_to 7965
  139.5548  144.2304  152.1593 LP  0  0  0  0  0  0  0  0  0  0  0  0  # atno 17342 bound_to 10162
  140.1554  144.5075  150.6663 LP  0  0  0  0  0  0  0  0  0  0  0  0  # atno 17343 bound_to 10162
  156.6553  130.4497  149.5705 LP  0  0  0  0  0  0  0  0  0  0  0  0  # atno 17370 bound_to 10713
  156.2107  130.6677  151.1266 LP  0  0  0  0  0  0  0  0  0  0  0  0  # atno 17371 bound_to 10713
  141.2160  133.7535  156.9505 LP  0  0  0  0  0  0  0  0  0  0  0  0  # atno 17394 bound_to 11000
  140.1268  134.9381  157.2281 LP  0  0  0  0  0  0  0  0  0  0  0  0  # atno 17395 bound_to 11000

$$$$
