AV-unprocessed.smi:887|AV-procd|sdf|4052|dock6
  -GOLD-   22720 1543D 1   1.00000     0.00000
 Structure written by MMmdl.
 31 32  0  0  0  0  0  0  0  0  1 V2000
  150.5966  135.8871  156.9419 C   0  0  0  0  0  0  0  0  0  0  0  0
  151.4008  137.0425  156.5743 N   0  0  0  0  0  0  0  0  0  0  0  0
  151.7782  137.3315  155.3202 C   0  0  0  0  0  0  0  0  0  0  0  0
  151.4778  136.6385  154.3479 O   0  0  0  0  0  0  0  0  0  0  0  0
  152.6209  138.5951  155.1309 C   0  0  0  0  0  0  0  0  0  0  0  0
  151.9541  139.7774  155.7583 C   0  0  0  0  0  0  0  0  0  0  0  0
  150.9035  140.3595  155.1915 N   0  0  0  0  0  0  0  0  0  0  0  0
  150.6042  141.4117  156.0685 O   0  0  0  0  0  0  0  0  0  0  0  0
  151.4989  141.3182  157.0822 C   0  0  0  0  0  0  0  0  0  0  0  0
  151.4933  142.3722  158.1452 C   0  0  2  0  0  0  0  0  0  0  0  0
  151.6079  143.7910  157.5468 C   0  0  0  0  0  0  0  0  0  0  0  0
  151.9034  144.8481  158.5967 C   0  0  0  0  0  0  0  0  0  0  0  0
  152.2855  144.5630  159.8532 C   0  0  0  0  0  0  0  0  0  0  0  0
  152.4777  143.1484  160.3676 C   0  0  0  0  0  0  0  0  0  0  0  0
  152.5651  142.1214  159.2238 C   0  0  0  0  0  0  0  0  0  0  0  0
  152.3914  140.3434  156.9170 N   0  0  0  0  0  0  0  0  0  0  0  0
  150.4501  135.8649  158.0218 H   0  0  0  0  0  0  0  0  0  0  0  0
  151.0885  134.9598  156.6455 H   0  0  0  0  0  0  0  0  0  0  0  0
  149.6165  135.9295  156.4653 H   0  0  0  0  0  0  0  0  0  0  0  0
  151.6889  137.6610  157.3190 H   0  0  0  0  0  0  0  0  0  0  0  0
  153.6012  138.4433  155.5842 H   0  0  0  0  0  0  0  0  0  0  0  0
  152.7901  138.7892  154.0706 H   0  0  0  0  0  0  0  0  0  0  0  0
  150.5255  142.3078  158.6450 H   0  0  0  0  0  0  0  0  0  0  0  0
  152.4177  143.8288  156.8174 H   0  0  0  0  0  0  0  0  0  0  0  0
  150.6911  144.0492  157.0161 H   0  0  0  0  0  0  0  0  0  0  0  0
  151.7983  145.8786  158.2901 H   0  0  0  0  0  0  0  0  0  0  0  0
  152.4604  145.3644  160.5558 H   0  0  0  0  0  0  0  0  0  0  0  0
  153.3828  143.1053  160.9741 H   0  0  0  0  0  0  0  0  0  0  0  0
  151.6416  142.9111  161.0263 H   0  0  0  0  0  0  0  0  0  0  0  0
  152.4672  141.1144  159.6311 H   0  0  0  0  0  0  0  0  0  0  0  0
  153.5552  142.1741  158.7682 H   0  0  0  0  0  0  0  0  0  0  0  0
  1  2  1  0  0  0  0
  1 17  1  0  0  0  0
  1 18  1  0  0  0  0
  1 19  1  0  0  0  0
  2  3  1  0  0  0  0
  2 20  1  0  0  0  0
  3  4  2  0  0  0  0
  3  5  1  0  0  0  0
  5  6  1  0  0  0  0
  5 21  1  0  0  0  0
  5 22  1  0  0  0  0
  6 16  1  0  0  0  0
  6  7  2  0  0  0  0
  7  8  1  0  0  0  0
  8  9  1  0  0  0  0
  9 10  1  0  0  0  0
  9 16  2  0  0  0  0
 10 15  1  0  0  0  0
 10 11  1  0  0  0  0
 10 23  1  0  0  0  0
 11 12  1  0  0  0  0
 11 24  1  0  0  0  0
 11 25  1  0  0  0  0
 12 13  2  0  0  0  0
 12 26  1  0  0  0  0
 13 14  1  0  0  0  0
 13 27  1  0  0  0  0
 14 15  1  0  0  0  0
 14 28  1  0  0  0  0
 14 29  1  0  0  0  0
 15 30  1  0  0  0  0
 15 31  1  0  0  0  0
M  END
> <s_m_source_file>
AV-unprocessed.smi

> <i_m_source_file_index>
887

> <i_lp_mmshare_version>
43012

> <i_f3d_flags>
0

> <s_epik_input>
W0NIM11bTkhdQyg9TylbQ0gyXWMxbm9jKG4xKVtDQEBIXTJbQ0gyXVtDSF09W0NIXVtDSDJdW0NIMl0y

> <s_epik_cmdline>
J2VwaWtfcHl0aG9uJywgJy1waCcsICc3LjAnLCAnLXRuJywgJzgnLCAnLW1hJywgJzIwMCcsICctbWV0YWxfYmluZGluZycsICctaW1hZScsICc8aW5maWxlLm1hZT4nLCAnLW9tYWUnLCAnPG91dGZpbGUubWFlPic=

> <r_lp_tautomer_probability>
1

> <r_epik_Ionization_Penalty>
1.02915e-07

> <r_epik_Ionization_Penalty_Charging>
0

> <r_epik_Ionization_Penalty_Neutral>
1.02915e-07

> <r_epik_State_Penalty>
-0

> <r_epik_Charging_Adjusted_Penalty>
0

> <i_epik_Tot_Q>
0

> <i_epik_Tot_abs_Q>
0

> <r_epik_Metal_State_Penalty>
-0

> <b_epik_Metal_Only>
0

> <s_lp_Force_Field>
OPLS_2005

> <r_lp_Energy>
6.3781

> <b_lp_Chiralities_Consistent>
1

> <s_lp_Variant>
AV-unprocessed.smi:887-1

> <Gold.Version>
5.8.1

> <Gold.Id.Protein>
6NUR|6NUR_protein|mol2

> <Gold.PLP.Fitness>
42.3741

> <Gold.PLP.PLP>
-34.1131

> <Gold.PLP.part.hbond>
-3.0000

> <Gold.PLP.part.metal>
0.0000

> <Gold.PLP.part.buried>
-3.7479

> <Gold.PLP.part.nonpolar>
-28.2026

> <Gold.PLP.part.repulsive>
1.3363

> <Gold.PLP.ligand.clash>
0.0000

> <Gold.PLP.ligand.torsion>
0.2787

> <Gold.PLP.Chemscore.Hbond>
2.9040

> <Gold.PLP.Chemscore.CHOScore>
0.0000

> <Gold.PLP.Chemscore.Metal>
0.0000

> <Gold.Chemscore.Hbonds>
donor molecule, donor type, donor heavy atom, donor atom, acceptor molecule, acceptor atom, score
      P1  H  7989  7998       L1     7  1.00
      P1  H  7997  8009       L1    16  0.88
      P1  H 10752 10763       L1     4  1.00

> <Gold.PLP.Chemscore.Internal.Correction>
0.1064

> <Gold.Rescore>
     Score         DG    S(hbond)    S(metal)    S(lipo)     H(rot)  DE(clash)    DE(int)     intcor
     15.45     -15.99       1.54        0.00      81.48       1.63       0.11       0.44       ----

> <Gold.Chemscore.Fitness>
15.4470

> <Gold.Chemscore.DG>
-15.9940

> <Gold.Chemscore.ZeroCoef>
-5.4800

> <Gold.Chemscore.Hbond>
1.5439

> <Gold.Chemscore.Metal>
0.0000

> <Gold.Chemscore.Lipo>
81.4814

> <Gold.Chemscore.Internal_Hbond>
0.0000

> <Gold.Chemscore.DEClash>
0.1065

> <Gold.Chemscore.DEInternal>
0.4405

> <Gold.Chemscore.Rot>
1.6312

> <Gold.Chemscore.Internal.Correction>
   9.000000E+99

> <Gold.Chemscore.Hbonds>
donor molecule, donor type, donor heavy atom, donor atom, acceptor molecule, acceptor atom, score
      P1  H  7989  7998       L1     7  0.26
      P1  H  7997  8009       L1    16  0.16
      P1  H 10752 10763       L1     4  0.34

> <Gold.Chemscore.Hbond.Weighted>
-5.1565

> <Gold.Chemscore.Metal.Weighted>
-0.0000

> <Gold.Chemscore.Lipo.Weighted>
-9.5333

> <Gold.Chemscore.Internal_Hbond.Weighted>
0.0000

> <Gold.Chemscore.DEClash.Weighted>
0.1065

> <Gold.Chemscore.DEInternal.Weighted>
0.4405

> <Gold.Chemscore.Rot.Weighted>
4.1758

> <Gold.Chemscore.Internal.Correction.Weighted>
   9.000000E+99

> <Gold.Protein.RotatedTorsions>
[ 6907 6896 6895 6894 ] final  101.95 input  -60.11 | X-H torsion
[ 7974 7965 7964 7962 ] final -155.18 input  175.53 | X-H torsion
[ 8008 7997 7996 7995 ] final -179.40 input   59.86 | X-H torsion
[ 10167 10162 10161 10158 ] final   86.83 input  -65.29 | X-H torsion
[ 10718 10713 10712 10709 ] final  120.60 input   66.30 | X-H torsion
[ 10763 10752 10751 10750 ] final   28.27 input  -60.55 | X-H torsion
[ 11005 11000 10999 10996 ] final  133.67 input  -57.11 | X-H torsion

> <Gold.Protein.ActiveResidues>
 VAL166  LYS551  ARG553  GLY616  TRP617  ASP618  TYR619  PRO620  LYS621  CYS622 
 ASP623  PHE694  ASN695  SER759  ASP760  ASP761  ALA762  ILE779  LEU786  VAL792 
 PHE793  MET794  SER795  GLU796  ALA797  LYS798  CYS799  TRP800  GLU811  SER814 

> <Gold.Protein.RotatedAtoms>
  152.5336  134.0049  159.7911 H   0  0  0  0  0  0  0  0  0  0  0  0  # atno 6907 bound_to 6896
  151.0261  133.5824  159.2673 H   0  0  0  0  0  0  0  0  0  0  0  0  # atno 6908 bound_to 6896
  151.2846  135.0731  159.9235 H   0  0  0  0  0  0  0  0  0  0  0  0  # atno 6909 bound_to 6896
  144.7652  140.4284  143.5947 H   0  0  0  0  0  0  0  0  0  0  0  0  # atno 7974 bound_to 7965
  156.0301  140.1280  157.0267 H   0  0  0  0  0  0  0  0  0  0  0  0  # atno 8008 bound_to 7997
  154.4346  140.1051  156.6157 H   0  0  0  0  0  0  0  0  0  0  0  0  # atno 8009 bound_to 7997
  155.5820  140.3468  155.4545 H   0  0  0  0  0  0  0  0  0  0  0  0  # atno 8010 bound_to 7997
  139.8835  144.6426  150.8817 H   0  0  0  0  0  0  0  0  0  0  0  0  # atno 10167 bound_to 10162
  157.5879  131.1068  150.8058 H   0  0  0  0  0  0  0  0  0  0  0  0  # atno 10718 bound_to 10713
  153.0502  135.6517  154.0712 H   0  0  0  0  0  0  0  0  0  0  0  0  # atno 10763 bound_to 10752
  154.0402  135.2904  155.3357 H   0  0  0  0  0  0  0  0  0  0  0  0  # atno 10764 bound_to 10752
  154.6786  135.5328  153.8299 H   0  0  0  0  0  0  0  0  0  0  0  0  # atno 10765 bound_to 10752
  139.9866  134.9530  156.9757 H   0  0  0  0  0  0  0  0  0  0  0  0  # atno 11005 bound_to 11000
  145.6492  139.1562  143.2872 LP  0  0  0  0  0  0  0  0  0  0  0  0  # atno 17320 bound_to 7965
  146.1753  140.6582  142.9214 LP  0  0  0  0  0  0  0  0  0  0  0  0  # atno 17321 bound_to 7965
  140.7740  143.3566  151.1908 LP  0  0  0  0  0  0  0  0  0  0  0  0  # atno 17342 bound_to 10162
  139.7174  143.9278  152.2972 LP  0  0  0  0  0  0  0  0  0  0  0  0  # atno 17343 bound_to 10162
  156.8487  130.5073  149.5314 LP  0  0  0  0  0  0  0  0  0  0  0  0  # atno 17370 bound_to 10713
  156.0930  130.5910  150.9765 LP  0  0  0  0  0  0  0  0  0  0  0  0  # atno 17371 bound_to 10713
  140.4990  134.1116  155.7247 LP  0  0  0  0  0  0  0  0  0  0  0  0  # atno 17394 bound_to 11000
  141.1530  133.8934  157.2050 LP  0  0  0  0  0  0  0  0  0  0  0  0  # atno 17395 bound_to 11000

$$$$
