AV-unprocessed.smi:1910|AV-procd|sdf|7736|dock1
  -GOLD-   22720 9473D 1   1.00000     0.00000
 Structure written by MMmdl.
 40 41  0  0  0  0  0  0  0  0  1 V2000
  146.1838  132.5762  151.6007 C   0  0  0  0  0  0  0  0  0  0  0  0
  147.3009  133.0567  152.3405 O   0  0  0  0  0  0  0  0  0  0  0  0
  148.0115  132.1623  153.1185 C   0  0  0  0  0  0  0  0  0  0  0  0
  147.6566  130.8532  153.0814 N   0  0  0  0  0  0  0  0  0  0  0  0
  148.3444  129.9788  153.8436 C   0  0  0  0  0  0  0  0  0  0  0  0
  149.4082  130.3594  154.6815 C   0  0  0  0  0  0  0  0  0  0  0  0
  149.7784  131.7164  154.7221 C   0  0  0  0  0  0  0  0  0  0  0  0
  149.0752  132.6459  153.9165 C   0  0  0  0  0  0  0  0  0  0  0  0
  149.3507  134.0424  153.8836 N   0  0  0  0  0  0  0  0  0  0  0  0
  149.8667  134.8304  154.8424 C   0  0  0  0  0  0  0  0  0  0  0  0
  150.2066  134.4625  155.9665 O   0  0  0  0  0  0  0  0  0  0  0  0
  149.9810  136.0961  154.4159 N   0  0  0  0  0  0  0  0  0  0  0  0
  150.5041  137.2057  155.2068 C   0  0  0  0  0  0  0  0  0  0  0  0
  151.2990  138.2088  154.3461 C   0  0  0  0  0  0  0  0  0  0  0  0
  150.9677  139.6144  154.5713 N   0  0  0  0  0  0  0  0  0  0  0  0
  149.5431  139.8857  154.3946 C   0  0  0  0  0  0  0  0  0  0  0  0
  149.2033  141.3627  154.6603 C   0  0  0  0  0  0  0  0  0  0  0  0
  149.6298  141.7237  155.9698 O   0  0  0  0  0  0  0  0  0  0  0  0
  151.0243  141.5160  156.1696 C   0  0  0  0  0  0  0  0  0  0  0  0
  151.3679  140.0393  155.9084 C   0  0  0  0  0  0  0  0  0  0  0  0
  145.7354  133.4018  151.0485 H   0  0  0  0  0  0  0  0  0  0  0  0
  145.4170  132.1641  152.2585 H   0  0  0  0  0  0  0  0  0  0  0  0
  146.4806  131.8165  150.8761 H   0  0  0  0  0  0  0  0  0  0  0  0
  148.0332  128.9461  153.7887 H   0  0  0  0  0  0  0  0  0  0  0  0
  149.9265  129.6271  155.2830 H   0  0  0  0  0  0  0  0  0  0  0  0
  150.5818  132.0108  155.3781 H   0  0  0  0  0  0  0  0  0  0  0  0
  149.1800  134.4878  152.9937 H   0  0  0  0  0  0  0  0  0  0  0  0
  149.6834  136.3103  153.4754 H   0  0  0  0  0  0  0  0  0  0  0  0
  149.6677  137.7190  155.6840 H   0  0  0  0  0  0  0  0  0  0  0  0
  151.1161  136.8155  156.0206 H   0  0  0  0  0  0  0  0  0  0  0  0
  152.3733  138.0492  154.4527 H   0  0  0  0  0  0  0  0  0  0  0  0
  151.0759  137.9747  153.3042 H   0  0  0  0  0  0  0  0  0  0  0  0
  149.2338  139.6311  153.3809 H   0  0  0  0  0  0  0  0  0  0  0  0
  148.9600  139.2544  155.0667 H   0  0  0  0  0  0  0  0  0  0  0  0
  149.6842  142.0078  153.9234 H   0  0  0  0  0  0  0  0  0  0  0  0
  148.1289  141.5261  154.5769 H   0  0  0  0  0  0  0  0  0  0  0  0
  151.5952  142.1689  155.5075 H   0  0  0  0  0  0  0  0  0  0  0  0
  151.2830  141.7911  157.1920 H   0  0  0  0  0  0  0  0  0  0  0  0
  150.8741  139.4181  156.6571 H   0  0  0  0  0  0  0  0  0  0  0  0
  152.4404  139.8912  156.0384 H   0  0  0  0  0  0  0  0  0  0  0  0
  1  2  1  0  0  0  0
  1 21  1  0  0  0  0
  1 22  1  0  0  0  0
  1 23  1  0  0  0  0
  2  3  1  0  0  0  0
  3  8  1  0  0  0  0
  3  4  2  0  0  0  0
  4  5  1  0  0  0  0
  5  6  2  0  0  0  0
  5 24  1  0  0  0  0
  6  7  1  0  0  0  0
  6 25  1  0  0  0  0
  7  8  2  0  0  0  0
  7 26  1  0  0  0  0
  8  9  1  0  0  0  0
  9 10  1  0  0  0  0
  9 27  1  0  0  0  0
 10 11  2  0  0  0  0
 10 12  1  0  0  0  0
 12 13  1  0  0  0  0
 12 28  1  0  0  0  0
 13 14  1  0  0  0  0
 13 29  1  0  0  0  0
 13 30  1  0  0  0  0
 14 15  1  0  0  0  0
 14 31  1  0  0  0  0
 14 32  1  0  0  0  0
 15 20  1  0  0  0  0
 15 16  1  0  0  0  0
 16 17  1  0  0  0  0
 16 33  1  0  0  0  0
 16 34  1  0  0  0  0
 17 18  1  0  0  0  0
 17 35  1  0  0  0  0
 17 36  1  0  0  0  0
 18 19  1  0  0  0  0
 19 20  1  0  0  0  0
 19 37  1  0  0  0  0
 19 38  1  0  0  0  0
 20 39  1  0  0  0  0
 20 40  1  0  0  0  0
M  END
> <s_m_source_file>
AV-unprocessed.smi

> <i_m_source_file_index>
1910

> <i_lp_mmshare_version>
43012

> <i_f3d_flags>
0

> <s_epik_input>
W0NIM11PYzFuW2NIXVtjSF1bY0hdYzFbTkhdQyg9TylbTkhdW0NIMl1bQ0gyXU4yW0NIMl1bQ0gyXU9bQ0gyXVtDSDJdMg==

> <s_epik_cmdline>
J2VwaWtfcHl0aG9uJywgJy1waCcsICc3LjAnLCAnLXRuJywgJzgnLCAnLW1hJywgJzIwMCcsICctbWV0YWxfYmluZGluZycsICctaW1hZScsICc8aW5maWxlLm1hZT4nLCAnLW9tYWUnLCAnPG91dGZpbGUubWFlPic=

> <r_lp_tautomer_probability>
1

> <r_epik_Ionization_Penalty>
0.266083

> <r_epik_Ionization_Penalty_Charging>
0

> <r_epik_Ionization_Penalty_Neutral>
0.266083

> <r_epik_State_Penalty>
0.257924

> <r_epik_Charging_Adjusted_Penalty>
0.257924

> <i_epik_Tot_Q>
0

> <i_epik_Tot_abs_Q>
0

> <r_epik_Metal_State_Penalty>
0.257922

> <b_epik_Metal_Only>
0

> <s_lp_Force_Field>
OPLS_2005

> <r_lp_Energy>
30.1373

> <b_lp_Chiralities_Consistent>
1

> <s_lp_Variant>
AV-unprocessed.smi:1910-1

> <Gold.Version>
5.8.1

> <Gold.Id.Protein>
6NUR|6NUR_protein|mol2

> <Gold.PLP.Fitness>
42.0858

> <Gold.PLP.PLP>
-36.5752

> <Gold.PLP.part.hbond>
-3.6226

> <Gold.PLP.part.metal>
0.0000

> <Gold.PLP.part.buried>
-4.9421

> <Gold.PLP.part.nonpolar>
-29.6973

> <Gold.PLP.part.repulsive>
1.1106

> <Gold.PLP.ligand.clash>
0.0000

> <Gold.PLP.ligand.torsion>
0.7105

> <Gold.PLP.Chemscore.Hbond>
2.3000

> <Gold.PLP.Chemscore.CHOScore>
0.0000

> <Gold.PLP.Chemscore.Metal>
0.0000

> <Gold.Chemscore.Hbonds>
donor molecule, donor type, donor heavy atom, donor atom, acceptor molecule, acceptor atom, score
      L1  H     9    27       P1  7948  0.30
      L1  H    12    28       P1  7948  1.00
      P1  H  7989  7998       L1    15  0.95

> <Gold.PLP.Chemscore.Internal.Correction>
0.0314

> <Gold.Rescore>
     Score         DG    S(hbond)    S(metal)    S(lipo)     H(rot)  DE(clash)    DE(int)     intcor
     13.12     -14.04       1.74        0.00      62.14       1.76       0.09       0.84       ----

> <Gold.Chemscore.Fitness>
13.1164

> <Gold.Chemscore.DG>
-14.0415

> <Gold.Chemscore.ZeroCoef>
-5.4800

> <Gold.Chemscore.Hbond>
1.7377

> <Gold.Chemscore.Metal>
0.0000

> <Gold.Chemscore.Lipo>
62.1363

> <Gold.Chemscore.Internal_Hbond>
0.0000

> <Gold.Chemscore.DEClash>
0.0873

> <Gold.Chemscore.DEInternal>
0.8378

> <Gold.Chemscore.Rot>
1.7626

> <Gold.Chemscore.Internal.Correction>
   9.000000E+99

> <Gold.Chemscore.Hbonds>
donor molecule, donor type, donor heavy atom, donor atom, acceptor molecule, acceptor atom, score
      L1  H    12    28       P1  7948  0.35
      P1  H  7989  7998       L1    15  0.10

> <Gold.Chemscore.Hbond.Weighted>
-5.8039

> <Gold.Chemscore.Metal.Weighted>
-0.0000

> <Gold.Chemscore.Lipo.Weighted>
-7.2699

> <Gold.Chemscore.Internal_Hbond.Weighted>
0.0000

> <Gold.Chemscore.DEClash.Weighted>
0.0873

> <Gold.Chemscore.DEInternal.Weighted>
0.8378

> <Gold.Chemscore.Rot.Weighted>
4.5123

> <Gold.Chemscore.Internal.Correction.Weighted>
   9.000000E+99

> <Gold.Protein.RotatedTorsions>
[ 6907 6896 6895 6894 ] final  146.28 input  -60.11 | X-H torsion
[ 7974 7965 7964 7962 ] final  101.04 input  175.53 | X-H torsion
[ 8008 7997 7996 7995 ] final  -23.77 input   59.86 | X-H torsion
[ 10167 10162 10161 10158 ] final  164.54 input  -65.29 | X-H torsion
[ 10718 10713 10712 10709 ] final  -87.01 input   66.30 | X-H torsion
[ 10763 10752 10751 10750 ] final  -39.87 input  -60.55 | X-H torsion
[ 11005 11000 10999 10996 ] final  112.62 input  -57.11 | X-H torsion

> <Gold.Protein.ActiveResidues>
 VAL166  LYS551  ARG553  GLY616  TRP617  ASP618  TYR619  PRO620  LYS621  CYS622 
 ASP623  PHE694  ASN695  SER759  ASP760  ASP761  ALA762  ILE779  LEU786  VAL792 
 PHE793  MET794  SER795  GLU796  ALA797  LYS798  CYS799  TRP800  GLU811  SER814 

> <Gold.Protein.RotatedAtoms>
  152.1700  133.4637  159.4904 H   0  0  0  0  0  0  0  0  0  0  0  0  # atno 6907 bound_to 6896
  150.6918  134.1965  159.4314 H   0  0  0  0  0  0  0  0  0  0  0  0  # atno 6908 bound_to 6896
  151.9871  134.9998  160.0610 H   0  0  0  0  0  0  0  0  0  0  0  0  # atno 6909 bound_to 6896
  145.3776  139.2386  143.3421 H   0  0  0  0  0  0  0  0  0  0  0  0  # atno 7974 bound_to 7965
  154.4566  140.1972  156.0361 H   0  0  0  0  0  0  0  0  0  0  0  0  # atno 8008 bound_to 7997
  156.0759  140.3278  155.7605 H   0  0  0  0  0  0  0  0  0  0  0  0  # atno 8009 bound_to 7997
  155.5190  140.0568  157.2901 H   0  0  0  0  0  0  0  0  0  0  0  0  # atno 8010 bound_to 7997
  139.4890  144.4224  151.9170 H   0  0  0  0  0  0  0  0  0  0  0  0  # atno 10167 bound_to 10162
  155.9987  130.4785  150.4801 H   0  0  0  0  0  0  0  0  0  0  0  0  # atno 10718 bound_to 10713
  153.9366  135.6766  153.4745 H   0  0  0  0  0  0  0  0  0  0  0  0  # atno 10763 bound_to 10752
  153.0952  135.4854  154.8763 H   0  0  0  0  0  0  0  0  0  0  0  0  # atno 10764 bound_to 10752
  154.7399  135.3158  154.8703 H   0  0  0  0  0  0  0  0  0  0  0  0  # atno 10765 bound_to 10752
  139.8932  134.9533  156.6614 H   0  0  0  0  0  0  0  0  0  0  0  0  # atno 11005 bound_to 11000
  146.2857  140.4438  142.8759 LP  0  0  0  0  0  0  0  0  0  0  0  0  # atno 17320 bound_to 7965
  144.8531  140.7030  143.6155 LP  0  0  0  0  0  0  0  0  0  0  0  0  # atno 17321 bound_to 7965
  140.3669  144.2904  150.5925 LP  0  0  0  0  0  0  0  0  0  0  0  0  # atno 17342 bound_to 10162
  140.5354  143.2234  151.8172 LP  0  0  0  0  0  0  0  0  0  0  0  0  # atno 17343 bound_to 10162
  157.2807  131.0606  151.2199 LP  0  0  0  0  0  0  0  0  0  0  0  0  # atno 17370 bound_to 10713
  157.3246  130.6954  149.6289 LP  0  0  0  0  0  0  0  0  0  0  0  0  # atno 17371 bound_to 10713
  140.7444  133.8950  155.8301 LP  0  0  0  0  0  0  0  0  0  0  0  0  # atno 17394 bound_to 11000
  141.0051  134.1097  157.4278 LP  0  0  0  0  0  0  0  0  0  0  0  0  # atno 17395 bound_to 11000

$$$$
