AV-unprocessed.smi:817|AV-procd|sdf|3829|dock8
  -GOLD-   22720 1273D 1   1.00000     0.00000
 Structure written by MMmdl.
 48 49  0  0  0  0  0  0  0  0  2 V2000
  150.2911  133.6667  156.5806 C   0  0  0  0  0  0  0  0  0  0  0  0
  149.4294  134.9379  156.5708 C   0  0  1  0  0  0  0  0  0  0  0  0
  149.5560  135.7024  157.9002 C   0  0  0  0  0  0  0  0  0  0  0  0
  148.7418  137.0032  157.8886 C   0  0  0  0  0  0  0  0  0  0  0  0
  149.1173  137.9042  156.6969 C   0  0  0  0  0  0  0  0  0  0  0  0
  148.9963  137.1955  155.3156 C   0  0  1  0  0  0  0  0  0  0  0  0
  147.4996  136.8663  155.0204 C   0  0  0  0  0  0  0  0  0  0  0  0
  147.3305  136.0924  153.7884 N   0  0  0  0  0  0  0  0  0  0  0  0
  146.3248  135.2568  153.4780 C   0  0  0  0  0  0  0  0  0  0  0  0
  145.3904  135.0771  154.2548 O   0  0  0  0  0  0  0  0  0  0  0  0
  146.4422  134.6832  152.2643 N   0  0  0  0  0  0  0  0  0  0  0  0
  145.5831  133.7446  151.6312 C   0  0  0  0  0  0  0  0  0  0  0  0
  144.1930  133.9099  151.8011 C   0  0  0  0  0  0  0  0  0  0  0  0
  143.3116  133.0097  151.1735 C   0  0  0  0  0  0  0  0  0  0  0  0
  143.8575  131.9758  150.3891 C   0  0  0  0  0  0  0  0  0  0  0  0
  145.1839  131.8097  150.2045 N   0  0  0  0  0  0  0  0  0  0  0  0
  146.0242  132.6762  150.8107 C   0  0  0  0  0  0  0  0  0  0  0  0
  149.5165  138.0791  154.2034 N   0  3  0  0  0  0  0  0  0  0  0  0
  148.8175  139.3817  154.0431 C   0  0  0  0  0  0  0  0  0  0  0  0
  150.9886  138.2781  154.1483 C   0  0  0  0  0  0  0  0  0  0  0  0
  149.8099  135.8606  155.3920 C   0  0  0  0  0  0  0  0  0  0  0  0
  151.3481  133.9016  156.7104 H   0  0  0  0  0  0  0  0  0  0  0  0
  150.1860  133.1134  155.6469 H   0  0  0  0  0  0  0  0  0  0  0  0
  149.9974  133.0000  157.3920 H   0  0  0  0  0  0  0  0  0  0  0  0
  148.3973  134.6090  156.4569 H   0  0  0  0  0  0  0  0  0  0  0  0
  149.2270  135.0721  158.7274 H   0  0  0  0  0  0  0  0  0  0  0  0
  150.6041  135.9365  158.0915 H   0  0  0  0  0  0  0  0  0  0  0  0
  147.6767  136.7726  157.8688 H   0  0  0  0  0  0  0  0  0  0  0  0
  148.9107  137.5442  158.8201 H   0  0  0  0  0  0  0  0  0  0  0  0
  148.4864  138.7925  156.7326 H   0  0  0  0  0  0  0  0  0  0  0  0
  150.1391  138.2539  156.8462 H   0  0  0  0  0  0  0  0  0  0  0  0
  147.0394  136.3109  155.8352 H   0  0  0  0  0  0  0  0  0  0  0  0
  146.9135  137.7823  154.9505 H   0  0  0  0  0  0  0  0  0  0  0  0
  148.0597  136.1904  153.0970 H   0  0  0  0  0  0  0  0  0  0  0  0
  147.2256  134.9904  151.7070 H   0  0  0  0  0  0  0  0  0  0  0  0
  143.8036  134.7149  152.4074 H   0  0  0  0  0  0  0  0  0  0  0  0
  142.2426  133.1100  151.2899 H   0  0  0  0  0  0  0  0  0  0  0  0
  143.2114  131.2669  149.8926 H   0  0  0  0  0  0  0  0  0  0  0  0
  147.0682  132.5038  150.6034 H   0  0  0  0  0  0  0  0  0  0  0  0
  149.0456  140.0622  154.8638 H   0  0  0  0  0  0  0  0  0  0  0  0
  147.7369  139.2756  153.9723 H   0  0  0  0  0  0  0  0  0  0  0  0
  149.1368  139.8677  153.1206 H   0  0  0  0  0  0  0  0  0  0  0  0
  151.3794  138.6671  155.0884 H   0  0  0  0  0  0  0  0  0  0  0  0
  151.2547  138.9866  153.3630 H   0  0  0  0  0  0  0  0  0  0  0  0
  151.5107  137.3541  153.9021 H   0  0  0  0  0  0  0  0  0  0  0  0
  150.8705  136.0716  155.5249 H   0  0  0  0  0  0  0  0  0  0  0  0
  149.7281  135.3123  154.4527 H   0  0  0  0  0  0  0  0  0  0  0  0
  149.3031  137.5700  153.3573 H   0  0  0  0  0  0  0  0  0  0  0  0
  1  2  1  0  0  0  0
  1 22  1  0  0  0  0
  1 23  1  0  0  0  0
  1 24  1  0  0  0  0
  2 21  1  0  0  0  0
  2  3  1  0  0  0  0
  2 25  1  0  0  0  0
  3  4  1  0  0  0  0
  3 26  1  0  0  0  0
  3 27  1  0  0  0  0
  4  5  1  0  0  0  0
  4 28  1  0  0  0  0
  4 29  1  0  0  0  0
  5  6  1  0  0  0  0
  5 30  1  0  0  0  0
  5 31  1  0  0  0  0
  6  7  1  0  0  0  0
  6 18  1  0  0  0  0
  6 21  1  0  0  0  0
  7  8  1  0  0  0  0
  7 32  1  0  0  0  0
  7 33  1  0  0  0  0
  8  9  1  0  0  0  0
  8 34  1  0  0  0  0
  9 10  2  0  0  0  0
  9 11  1  0  0  0  0
 11 12  1  0  0  0  0
 11 35  1  0  0  0  0
 12 17  1  0  0  0  0
 12 13  2  0  0  0  0
 13 14  1  0  0  0  0
 13 36  1  0  0  0  0
 14 15  2  0  0  0  0
 14 37  1  0  0  0  0
 15 16  1  0  0  0  0
 15 38  1  0  0  0  0
 16 17  2  0  0  0  0
 17 39  1  0  0  0  0
 18 19  1  0  0  0  0
 18 20  1  0  0  0  0
 18 48  1  0  0  0  0
 19 40  1  0  0  0  0
 19 41  1  0  0  0  0
 19 42  1  0  0  0  0
 20 43  1  0  0  0  0
 20 44  1  0  0  0  0
 20 45  1  0  0  0  0
 21 46  1  0  0  0  0
 21 47  1  0  0  0  0
M  CHG  1  18   1
M  END
> <s_m_source_file>
AV-unprocessed.smi

> <i_m_source_file_index>
817

> <i_lp_mmshare_version>
43012

> <i_f3d_flags>
0

> <s_epik_input>
W0NIM11bQ0BASF0oW0NIMl0xKVtDSDJdW0NIMl1bQ0gyXVtDQF0xKE4oW0NIM10pW0NIM10pW0NIMl1bTkhdQyg9TylbTkhdYzJbY0hdW2NIXVtjSF1uW2NIXTI=

> <s_epik_cmdline>
J2VwaWtfcHl0aG9uJywgJy1waCcsICc3LjAnLCAnLXRuJywgJzgnLCAnLW1hJywgJzIwMCcsICctbWV0YWxfYmluZGluZycsICctaW1hZScsICc8aW5maWxlLm1hZT4nLCAnLW9tYWUnLCAnPG91dGZpbGUubWFlPic=

> <r_lp_tautomer_probability>
1

> <r_epik_Ionization_Penalty>
0.00584939

> <r_epik_Ionization_Penalty_Charging>
0.00160539

> <r_epik_Ionization_Penalty_Neutral>
0.004244

> <r_epik_State_Penalty>
-0

> <r_epik_Charging_Adjusted_Penalty>
0.00160539

> <i_epik_Tot_Q>
1

> <i_epik_Tot_abs_Q>
1

> <r_epik_Metal_State_Penalty>
-0

> <b_epik_Metal_Only>
0

> <s_lp_Force_Field>
OPLS_2005

> <r_lp_Energy>
49.3624

> <b_lp_Chiralities_Consistent>
1

> <s_lp_Variant>
AV-unprocessed.smi:817-2

> <Gold.Version>
5.8.1

> <Gold.Id.Protein>
6NUR|6NUR_protein|mol2

> <Gold.PLP.Fitness>
42.1754

> <Gold.PLP.PLP>
-26.5378

> <Gold.PLP.part.hbond>
-2.9749

> <Gold.PLP.part.metal>
0.0000

> <Gold.PLP.part.buried>
-2.7521

> <Gold.PLP.part.nonpolar>
-21.1233

> <Gold.PLP.part.repulsive>
0.2205

> <Gold.PLP.ligand.clash>
0.0000

> <Gold.PLP.ligand.torsion>
0.5725

> <Gold.PLP.Chemscore.Hbond>
3.7078

> <Gold.PLP.Chemscore.CHOScore>
1.8489

> <Gold.PLP.Chemscore.Metal>
0.0000

> <Gold.Chemscore.Hbonds>
donor molecule, donor type, donor heavy atom, donor atom, acceptor molecule, acceptor atom, score
      L1  H     8    34       P1  7948  0.98
      L1  H    11    35       P1  7948  0.72
      L1  H    18    48       P1  7948  2.00
      L1  C    15    38       P1 10952  0.87
      L1  C    17    39       P1 10747  0.99

> <Gold.PLP.Chemscore.Internal.Correction>
0.1125

> <Gold.Rescore>
     Score         DG    S(hbond)    S(metal)    S(lipo)     H(rot)  DE(clash)    DE(int)     intcor
     17.15     -18.95       2.56        0.00      73.54       1.44       0.13       1.67       ----

> <Gold.Chemscore.Fitness>
17.1517

> <Gold.Chemscore.DG>
-18.9494

> <Gold.Chemscore.ZeroCoef>
-5.4800

> <Gold.Chemscore.Hbond>
2.5609

> <Gold.Chemscore.Metal>
0.0000

> <Gold.Chemscore.Lipo>
73.5364

> <Gold.Chemscore.Internal_Hbond>
0.0000

> <Gold.Chemscore.DEClash>
0.1297

> <Gold.Chemscore.DEInternal>
1.6680

> <Gold.Chemscore.Rot>
1.4405

> <Gold.Chemscore.Internal.Correction>
   9.000000E+99

> <Gold.Chemscore.Hbonds>
donor molecule, donor type, donor heavy atom, donor atom, acceptor molecule, acceptor atom, score
      L1  H     8    34       P1  7948  0.92
      L1  H    11    35       P1  7948  0.62
      L1  H    18    48       P1  7948  0.94

> <Gold.Chemscore.Hbond.Weighted>
-8.5534

> <Gold.Chemscore.Metal.Weighted>
-0.0000

> <Gold.Chemscore.Lipo.Weighted>
-8.6038

> <Gold.Chemscore.Internal_Hbond.Weighted>
0.0000

> <Gold.Chemscore.DEClash.Weighted>
0.1297

> <Gold.Chemscore.DEInternal.Weighted>
1.6680

> <Gold.Chemscore.Rot.Weighted>
3.6878

> <Gold.Chemscore.Internal.Correction.Weighted>
   9.000000E+99

> <Gold.Protein.RotatedTorsions>
[ 6907 6896 6895 6894 ] final -100.64 input  -60.11 | X-H torsion
[ 7974 7965 7964 7962 ] final   58.86 input  175.53 | X-H torsion
[ 8008 7997 7996 7995 ] final  179.05 input   59.86 | X-H torsion
[ 10167 10162 10161 10158 ] final  177.54 input  -65.29 | X-H torsion
[ 10718 10713 10712 10709 ] final  143.98 input   66.30 | X-H torsion
[ 10763 10752 10751 10750 ] final   88.46 input  -60.55 | X-H torsion
[ 11005 11000 10999 10996 ] final  -68.40 input  -57.11 | X-H torsion

> <Gold.Protein.ActiveResidues>
 VAL166  LYS551  ARG553  GLY616  TRP617  ASP618  TYR619  PRO620  LYS621  CYS622 
 ASP623  PHE694  ASN695  SER759  ASP760  ASP761  ALA762  ILE779  LEU786  VAL792 
 PHE793  MET794  SER795  GLU796  ALA797  LYS798  CYS799  TRP800  GLU811  SER814 

> <Gold.Protein.RotatedAtoms>
  150.7123  134.0857  159.3913 H   0  0  0  0  0  0  0  0  0  0  0  0  # atno 6907 bound_to 6896
  151.8842  135.0440  160.0501 H   0  0  0  0  0  0  0  0  0  0  0  0  # atno 6908 bound_to 6896
  152.2544  133.5207  159.5381 H   0  0  0  0  0  0  0  0  0  0  0  0  # atno 6909 bound_to 6896
  145.9135  139.3673  143.0521 H   0  0  0  0  0  0  0  0  0  0  0  0  # atno 7974 bound_to 7965
  156.0478  140.1318  157.0084 H   0  0  0  0  0  0  0  0  0  0  0  0  # atno 8008 bound_to 7997
  154.4420  140.1017  156.6402 H   0  0  0  0  0  0  0  0  0  0  0  0  # atno 8009 bound_to 7997
  155.5570  140.3464  155.4484 H   0  0  0  0  0  0  0  0  0  0  0  0  # atno 8010 bound_to 7997
  139.5257  144.2786  152.0566 H   0  0  0  0  0  0  0  0  0  0  0  0  # atno 10167 bound_to 10162
  157.3626  131.0967  151.0902 H   0  0  0  0  0  0  0  0  0  0  0  0  # atno 10718 bound_to 10713
  153.1770  135.4506  154.9979 H   0  0  0  0  0  0  0  0  0  0  0  0  # atno 10763 bound_to 10752
  154.8005  135.3254  154.7564 H   0  0  0  0  0  0  0  0  0  0  0  0  # atno 10764 bound_to 10752
  153.8033  135.6961  153.4907 H   0  0  0  0  0  0  0  0  0  0  0  0  # atno 10765 bound_to 10752
  141.1531  133.6740  156.6440 H   0  0  0  0  0  0  0  0  0  0  0  0  # atno 11005 bound_to 11000
  145.8641  140.9458  143.0685 LP  0  0  0  0  0  0  0  0  0  0  0  0  # atno 17320 bound_to 7965
  144.6745  140.0569  143.7477 LP  0  0  0  0  0  0  0  0  0  0  0  0  # atno 17321 bound_to 7965
  140.2243  144.4434  150.6328 LP  0  0  0  0  0  0  0  0  0  0  0  0  # atno 17342 bound_to 10162
  140.6398  143.2201  151.6315 LP  0  0  0  0  0  0  0  0  0  0  0  0  # atno 17343 bound_to 10162
  157.2036  130.6406  149.5747 LP  0  0  0  0  0  0  0  0  0  0  0  0  # atno 17370 bound_to 10713
  155.9740  130.4683  150.6354 LP  0  0  0  0  0  0  0  0  0  0  0  0  # atno 17371 bound_to 10713
  140.3371  134.7880  157.4370 LP  0  0  0  0  0  0  0  0  0  0  0  0  # atno 17394 bound_to 11000
  140.0968  134.5526  155.8391 LP  0  0  0  0  0  0  0  0  0  0  0  0  # atno 17395 bound_to 11000

$$$$
