AV-unprocessed.smi:2198|AV-procd|sdf|8920|dock9
  -GOLD-   2272012133D 1   1.00000     0.00000
 Structure written by MMmdl.
 42 43  0  0  0  0  0  0  0  0  2 V2000
  148.2930  135.9814  161.0759 C   0  0  0  0  0  0  0  0  0  0  0  0
  148.7655  136.6470  159.8011 C   0  0  0  0  0  0  0  0  0  0  0  0
  148.0579  137.5773  159.2836 N   0  0  0  0  0  0  0  0  0  0  0  0
  148.4871  138.1930  158.0954 C   0  0  0  0  0  0  0  0  0  0  0  0
  147.5808  139.2815  157.5475 C   0  0  0  0  0  0  0  0  0  0  0  0
  149.6473  137.8169  157.4848 C   0  0  0  0  0  0  0  0  0  0  0  0
  150.1509  138.4451  156.1847 C   0  0  0  0  0  0  0  0  0  0  0  0
  150.8363  139.8085  156.3063 C   0  0  0  0  0  0  0  0  0  0  0  0
  151.1167  140.4660  155.3036 O   0  0  0  0  0  0  0  0  0  0  0  0
  151.1123  140.2159  157.5545 N   0  0  0  0  0  0  0  0  0  0  0  0
  151.7913  141.4599  157.9035 C   0  0  1  0  0  0  0  0  0  0  0  0
  150.9665  142.6595  157.4034 C   0  0  0  0  0  0  0  0  0  0  0  0
  151.6243  143.9901  157.8003 C   0  0  0  0  0  0  0  0  0  0  0  0
  151.8435  144.0718  159.3191 C   0  0  0  0  0  0  0  0  0  0  0  0
  152.6709  142.8796  159.8362 C   0  0  1  0  0  0  0  0  0  0  0  0
  152.8803  142.9595  161.3551 C   0  0  0  0  0  0  0  0  0  0  0  0
  152.0123  141.5474  159.4283 C   0  0  0  0  0  0  0  0  0  0  0  0
  150.4405  136.7502  158.1212 C   0  0  0  0  0  0  0  0  0  0  0  0
  151.5067  136.3892  157.6243 O   0  0  0  0  0  0  0  0  0  0  0  0
  149.9510  136.1950  159.2666 N   0  5  0  0  0  0  0  0  0  0  0  0
  147.4827  136.5475  161.5372 H   0  0  0  0  0  0  0  0  0  0  0  0
  149.1099  135.9099  161.7949 H   0  0  0  0  0  0  0  0  0  0  0  0
  147.9311  134.9757  160.8615 H   0  0  0  0  0  0  0  0  0  0  0  0
  147.1365  138.9663  156.6034 H   0  0  0  0  0  0  0  0  0  0  0  0
  148.1393  140.2026  157.3802 H   0  0  0  0  0  0  0  0  0  0  0  0
  146.7708  139.5065  158.2423 H   0  0  0  0  0  0  0  0  0  0  0  0
  150.8255  137.7627  155.6665 H   0  0  0  0  0  0  0  0  0  0  0  0
  149.3023  138.5596  155.5102 H   0  0  0  0  0  0  0  0  0  0  0  0
  150.8430  139.6132  158.3184 H   0  0  0  0  0  0  0  0  0  0  0  0
  152.7615  141.4857  157.4033 H   0  0  0  0  0  0  0  0  0  0  0  0
  150.8567  142.6134  156.3192 H   0  0  0  0  0  0  0  0  0  0  0  0
  149.9586  142.6163  157.8191 H   0  0  0  0  0  0  0  0  0  0  0  0
  152.5810  144.0922  157.2866 H   0  0  0  0  0  0  0  0  0  0  0  0
  151.0051  144.8243  157.4694 H   0  0  0  0  0  0  0  0  0  0  0  0
  152.3445  145.0088  159.5653 H   0  0  0  0  0  0  0  0  0  0  0  0
  150.8772  144.0971  159.8243 H   0  0  0  0  0  0  0  0  0  0  0  0
  153.6545  142.9243  159.3664 H   0  0  0  0  0  0  0  0  0  0  0  0
  151.9297  142.9273  161.8883 H   0  0  0  0  0  0  0  0  0  0  0  0
  153.3869  143.8841  161.6332 H   0  0  0  0  0  0  0  0  0  0  0  0
  153.4907  142.1295  161.7119 H   0  0  0  0  0  0  0  0  0  0  0  0
  151.0567  141.4396  159.9438 H   0  0  0  0  0  0  0  0  0  0  0  0
  152.6353  140.7158  159.7605 H   0  0  0  0  0  0  0  0  0  0  0  0
  1  2  1  0  0  0  0
  1 21  1  0  0  0  0
  1 22  1  0  0  0  0
  1 23  1  0  0  0  0
  2 20  1  0  0  0  0
  2  3  2  0  0  0  0
  3  4  1  0  0  0  0
  4  5  1  0  0  0  0
  4  6  2  0  0  0  0
  5 24  1  0  0  0  0
  5 25  1  0  0  0  0
  5 26  1  0  0  0  0
  6  7  1  0  0  0  0
  6 18  1  0  0  0  0
  7  8  1  0  0  0  0
  7 27  1  0  0  0  0
  7 28  1  0  0  0  0
  8  9  2  0  0  0  0
  8 10  1  0  0  0  0
 10 11  1  0  0  0  0
 10 29  1  0  0  0  0
 11 17  1  0  0  0  0
 11 12  1  0  0  0  0
 11 30  1  0  0  0  0
 12 13  1  0  0  0  0
 12 31  1  0  0  0  0
 12 32  1  0  0  0  0
 13 14  1  0  0  0  0
 13 33  1  0  0  0  0
 13 34  1  0  0  0  0
 14 15  1  0  0  0  0
 14 35  1  0  0  0  0
 14 36  1  0  0  0  0
 15 16  1  0  0  0  0
 15 17  1  0  0  0  0
 15 37  1  0  0  0  0
 16 38  1  0  0  0  0
 16 39  1  0  0  0  0
 16 40  1  0  0  0  0
 17 41  1  0  0  0  0
 17 42  1  0  0  0  0
 18 19  2  0  0  0  0
 18 20  1  0  0  0  0
M  CHG  1  20  -1
M  END
> <s_m_source_file>
AV-unprocessed.smi

> <i_m_source_file_index>
2198

> <i_lp_mmshare_version>
43012

> <i_f3d_flags>
0

> <s_epik_input>
W0NIM11jMW5jKFtDSDNdKWMoYyg9TylbbkhdMSlbQ0gyXUMoPU8pW05IXVtDQEBIXTJbQ0gyXVtDSDJdW0NIMl1bQ0BASF0oW0NIM10pW0NIMl0y

> <s_epik_cmdline>
J2VwaWtfcHl0aG9uJywgJy1waCcsICc3LjAnLCAnLXRuJywgJzgnLCAnLW1hJywgJzIwMCcsICctbWV0YWxfYmluZGluZycsICctaW1hZScsICc8aW5maWxlLm1hZT4nLCAnLW9tYWUnLCAnPG91dGZpbGUubWFlPic=

> <r_lp_tautomer_probability>
0.839158

> <r_epik_Ionization_Penalty>
6.67193

> <r_epik_Ionization_Penalty_Charging>
7.66837e-08

> <r_epik_Ionization_Penalty_Neutral>
6.67193

> <r_epik_State_Penalty>
4.51643

> <r_epik_Charging_Adjusted_Penalty>
4.51643

> <i_epik_Tot_Q>
-1

> <i_epik_Tot_abs_Q>
1

> <r_epik_Metal_State_Penalty>
0.851582

> <b_epik_Metal_Only>
1

> <s_lp_Force_Field>
OPLS_2005

> <r_lp_Energy>
13.5939

> <b_lp_Chiralities_Consistent>
1

> <s_lp_Variant>
AV-unprocessed.smi:2198-10

> <Gold.Version>
5.8.1

> <Gold.Id.Protein>
6NUR|6NUR_protein|mol2

> <Gold.PLP.Fitness>
46.4544

> <Gold.PLP.PLP>
-37.1171

> <Gold.PLP.part.hbond>
-3.5391

> <Gold.PLP.part.metal>
0.0000

> <Gold.PLP.part.buried>
-5.8243

> <Gold.PLP.part.nonpolar>
-28.5618

> <Gold.PLP.part.repulsive>
0.0837

> <Gold.PLP.ligand.clash>
0.0000

> <Gold.PLP.ligand.torsion>
0.3588

> <Gold.PLP.Chemscore.Hbond>
3.3504

> <Gold.PLP.Chemscore.CHOScore>
0.0000

> <Gold.PLP.Chemscore.Metal>
0.0000

> <Gold.Chemscore.Hbonds>
donor molecule, donor type, donor heavy atom, donor atom, acceptor molecule, acceptor atom, score
      P1  H  6896  6907       L1    20  2.00
      P1  H  6934  6947       L1     3  0.12
      P1  H  7989  7998       L1     9  0.96

> <Gold.PLP.Chemscore.Internal.Correction>
0.0037

> <Gold.Rescore>
     Score         DG    S(hbond)    S(metal)    S(lipo)     H(rot)  DE(clash)    DE(int)     intcor
     18.88     -19.20       2.22        0.00      85.44       1.45       0.00       0.32       ----

> <Gold.Chemscore.Fitness>
18.8807

> <Gold.Chemscore.DG>
-19.1976

> <Gold.Chemscore.ZeroCoef>
-5.4800

> <Gold.Chemscore.Hbond>
2.2215

> <Gold.Chemscore.Metal>
0.0000

> <Gold.Chemscore.Lipo>
85.4446

> <Gold.Chemscore.Internal_Hbond>
0.0000

> <Gold.Chemscore.DEClash>
0.0000

> <Gold.Chemscore.DEInternal>
0.3169

> <Gold.Chemscore.Rot>
1.4450

> <Gold.Chemscore.Internal.Correction>
   9.000000E+99

> <Gold.Chemscore.Hbonds>
donor molecule, donor type, donor heavy atom, donor atom, acceptor molecule, acceptor atom, score
      P1  H  6896  6907       L1    20  0.78
      P1  H  6934  6947       L1     3  0.09
      P1  H  7989  7998       L1     9  0.92

> <Gold.Chemscore.Hbond.Weighted>
-7.4198

> <Gold.Chemscore.Metal.Weighted>
-0.0000

> <Gold.Chemscore.Lipo.Weighted>
-9.9970

> <Gold.Chemscore.Internal_Hbond.Weighted>
0.0000

> <Gold.Chemscore.DEClash.Weighted>
0.0000

> <Gold.Chemscore.DEInternal.Weighted>
0.3169

> <Gold.Chemscore.Rot.Weighted>
3.6992

> <Gold.Chemscore.Internal.Correction.Weighted>
   9.000000E+99

> <Gold.Protein.RotatedTorsions>
[ 6907 6896 6895 6894 ] final  -54.30 input  -60.11 | X-H torsion
[ 7974 7965 7964 7962 ] final   -7.63 input  175.53 | X-H torsion
[ 8008 7997 7996 7995 ] final   97.27 input   59.86 | X-H torsion
[ 10167 10162 10161 10158 ] final   99.37 input  -65.29 | X-H torsion
[ 10718 10713 10712 10709 ] final -163.23 input   66.30 | X-H torsion
[ 10763 10752 10751 10750 ] final   40.50 input  -60.55 | X-H torsion
[ 11005 11000 10999 10996 ] final   64.55 input  -57.11 | X-H torsion

> <Gold.Protein.ActiveResidues>
 VAL166  LYS551  ARG553  GLY616  TRP617  ASP618  TYR619  PRO620  LYS621  CYS622 
 ASP623  PHE694  ASN695  SER759  ASP760  ASP761  ALA762  ILE779  LEU786  VAL792 
 PHE793  MET794  SER795  GLU796  ALA797  LYS798  CYS799  TRP800  GLU811  SER814 

> <Gold.Protein.RotatedAtoms>
  150.8350  134.7619  159.6884 H   0  0  0  0  0  0  0  0  0  0  0  0  # atno 6907 bound_to 6896
  152.4448  134.5514  159.9877 H   0  0  0  0  0  0  0  0  0  0  0  0  # atno 6908 bound_to 6896
  151.5666  133.3358  159.3017 H   0  0  0  0  0  0  0  0  0  0  0  0  # atno 6909 bound_to 6896
  146.2302  140.2348  142.8341 H   0  0  0  0  0  0  0  0  0  0  0  0  # atno 7974 bound_to 7965
  156.0884  140.3261  155.7783 H   0  0  0  0  0  0  0  0  0  0  0  0  # atno 8008 bound_to 7997
  155.5038  140.0571  157.2952 H   0  0  0  0  0  0  0  0  0  0  0  0  # atno 8009 bound_to 7997
  154.4623  140.1972  156.0228 H   0  0  0  0  0  0  0  0  0  0  0  0  # atno 8010 bound_to 7997
  139.7623  144.6950  151.0274 H   0  0  0  0  0  0  0  0  0  0  0  0  # atno 10167 bound_to 10162
  156.6217  130.8893  151.2959 H   0  0  0  0  0  0  0  0  0  0  0  0  # atno 10718 bound_to 10713
  152.9934  135.6189  154.2636 H   0  0  0  0  0  0  0  0  0  0  0  0  # atno 10763 bound_to 10752
  154.2372  135.2790  155.2869 H   0  0  0  0  0  0  0  0  0  0  0  0  # atno 10764 bound_to 10752
  154.5400  135.5763  153.6889 H   0  0  0  0  0  0  0  0  0  0  0  0  # atno 10765 bound_to 10752
  139.9952  134.6529  156.0023 H   0  0  0  0  0  0  0  0  0  0  0  0  # atno 11005 bound_to 11000
  144.9530  140.8197  143.5560 LP  0  0  0  0  0  0  0  0  0  0  0  0  # atno 17320 bound_to 7965
  145.2311  139.2114  143.5042 LP  0  0  0  0  0  0  0  0  0  0  0  0  # atno 17321 bound_to 7965
  140.7808  143.4682  151.0182 LP  0  0  0  0  0  0  0  0  0  0  0  0  # atno 17342 bound_to 10162
  139.8368  143.7617  152.3180 LP  0  0  0  0  0  0  0  0  0  0  0  0  # atno 17343 bound_to 10162
  157.7226  130.9578  150.1499 LP  0  0  0  0  0  0  0  0  0  0  0  0  # atno 17370 bound_to 10713
  156.2306  130.3682  149.8449 LP  0  0  0  0  0  0  0  0  0  0  0  0  # atno 17371 bound_to 10713
  141.1598  133.6539  156.4281 LP  0  0  0  0  0  0  0  0  0  0  0  0  # atno 17394 bound_to 11000
  140.4833  134.6644  157.5180 LP  0  0  0  0  0  0  0  0  0  0  0  0  # atno 17395 bound_to 11000

$$$$
