AV-unprocessed.smi:1154|AV-procd|sdf|4902|dock3
  -GOLD-   22720 3473D 1   1.00000     0.00000
 Structure written by MMmdl.
 42 43  0  0  0  0  0  0  0  0  2 V2000
  146.9632  130.1324  152.8726 C   0  0  0  0  0  0  0  0  0  0  0  0
  146.4003  131.5351  152.6036 C   0  0  2  0  0  0  0  0  0  0  0  0
  145.6415  131.5854  151.2657 C   0  0  0  0  0  0  0  0  0  0  0  0
  145.1215  133.0049  150.9782 C   0  0  2  0  0  0  0  0  0  0  0  0
  144.3875  133.0708  149.6315 C   0  0  0  0  0  0  0  0  0  0  0  0
  146.2859  134.0162  151.0338 C   0  0  0  0  0  0  0  0  0  0  0  0
  147.0070  133.9701  152.3329 N   0  3  1  0  0  0  0  0  0  0  0  0
  146.2619  134.6179  153.4460 C   0  0  0  0  0  0  0  0  0  0  0  0
  147.0992  134.7290  154.7303 C   0  0  0  0  0  0  0  0  0  0  0  0
  148.4285  135.2410  154.4279 N   0  0  0  0  0  0  0  0  0  0  0  0
  149.3088  135.6544  155.3521 C   0  0  0  0  0  0  0  0  0  0  0  0
  149.0702  135.6522  156.5591 O   0  0  0  0  0  0  0  0  0  0  0  0
  150.6619  136.1529  154.8406 C   0  0  0  0  0  0  0  0  0  0  0  0
  150.7633  137.5977  154.9319 N   0  0  0  0  0  0  0  0  0  0  0  0
  150.3363  138.5601  154.1119 C   0  0  0  0  0  0  0  0  0  0  0  0
  150.6495  139.7640  154.5655 N   0  0  0  0  0  0  0  0  0  0  0  0
  151.3110  139.4911  155.7513 N   0  0  0  0  0  0  0  0  0  0  0  0
  151.3812  138.2074  155.9742 N   0  0  0  0  0  0  0  0  0  0  0  0
  147.5166  132.6027  152.6287 C   0  0  0  0  0  0  0  0  0  0  0  0
  147.6774  129.8361  152.1034 H   0  0  0  0  0  0  0  0  0  0  0  0
  146.1671  129.3875  152.8910 H   0  0  0  0  0  0  0  0  0  0  0  0
  147.4740  130.0908  153.8350 H   0  0  0  0  0  0  0  0  0  0  0  0
  145.6917  131.7509  153.4037 H   0  0  0  0  0  0  0  0  0  0  0  0
  146.3001  131.2648  150.4569 H   0  0  0  0  0  0  0  0  0  0  0  0
  144.8092  130.8805  151.2843 H   0  0  0  0  0  0  0  0  0  0  0  0
  144.3984  133.2657  151.7522 H   0  0  0  0  0  0  0  0  0  0  0  0
  145.0517  132.8198  148.8037 H   0  0  0  0  0  0  0  0  0  0  0  0
  143.9906  134.0699  149.4488 H   0  0  0  0  0  0  0  0  0  0  0  0
  143.5484  132.3749  149.6073 H   0  0  0  0  0  0  0  0  0  0  0  0
  147.0001  133.7948  150.2393 H   0  0  0  0  0  0  0  0  0  0  0  0
  145.9270  135.0282  150.8415 H   0  0  0  0  0  0  0  0  0  0  0  0
  145.9840  135.6282  153.1419 H   0  0  0  0  0  0  0  0  0  0  0  0
  145.3270  134.0936  153.6425 H   0  0  0  0  0  0  0  0  0  0  0  0
  146.6340  135.4014  155.4510 H   0  0  0  0  0  0  0  0  0  0  0  0
  147.1789  133.7496  155.2055 H   0  0  0  0  0  0  0  0  0  0  0  0
  148.6996  135.2809  153.4560 H   0  0  0  0  0  0  0  0  0  0  0  0
  151.4658  135.7029  155.4245 H   0  0  0  0  0  0  0  0  0  0  0  0
  150.8083  135.8506  153.8025 H   0  0  0  0  0  0  0  0  0  0  0  0
  149.8060  138.3807  153.1881 H   0  0  0  0  0  0  0  0  0  0  0  0
  148.0407  132.5845  153.5833 H   0  0  0  0  0  0  0  0  0  0  0  0
  148.2665  132.3567  151.8754 H   0  0  0  0  0  0  0  0  0  0  0  0
  147.8246  134.5487  152.2013 H   0  0  0  0  0  0  0  0  0  0  0  0
  1  2  1  0  0  0  0
  1 20  1  0  0  0  0
  1 21  1  0  0  0  0
  1 22  1  0  0  0  0
  2 19  1  0  0  0  0
  2  3  1  0  0  0  0
  2 23  1  0  0  0  0
  3  4  1  0  0  0  0
  3 24  1  0  0  0  0
  3 25  1  0  0  0  0
  4  5  1  0  0  0  0
  4  6  1  0  0  0  0
  4 26  1  0  0  0  0
  5 27  1  0  0  0  0
  5 28  1  0  0  0  0
  5 29  1  0  0  0  0
  6  7  1  0  0  0  0
  6 30  1  0  0  0  0
  6 31  1  0  0  0  0
  7  8  1  0  0  0  0
  7 19  1  0  0  0  0
  7 42  1  0  0  0  0
  8  9  1  0  0  0  0
  8 32  1  0  0  0  0
  8 33  1  0  0  0  0
  9 10  1  0  0  0  0
  9 34  1  0  0  0  0
  9 35  1  0  0  0  0
 10 11  1  0  0  0  0
 10 36  1  0  0  0  0
 11 12  2  0  0  0  0
 11 13  1  0  0  0  0
 13 14  1  0  0  0  0
 13 37  1  0  0  0  0
 13 38  1  0  0  0  0
 14 18  1  0  0  0  0
 14 15  1  0  0  0  0
 15 16  2  0  0  0  0
 15 39  1  0  0  0  0
 16 17  1  0  0  0  0
 17 18  2  0  0  0  0
 19 40  1  0  0  0  0
 19 41  1  0  0  0  0
M  CHG  1   7   1
M  END
> <s_m_source_file>
AV-unprocessed.smi

> <i_m_source_file_index>
1154

> <i_lp_mmshare_version>
43012

> <i_f3d_flags>
0

> <s_epik_input>
W0NIM11bQ0BASF0xW0NIMl1bQ0BASF0oW0NIM10pW0NIMl1OKFtDSDJdMSlbQ0gyXVtDSDJdW05IXUMoPU8pW0NIMl1uMltjSF1ubm4y

> <s_epik_cmdline>
J2VwaWtfcHl0aG9uJywgJy1waCcsICc3LjAnLCAnLXRuJywgJzgnLCAnLW1hJywgJzIwMCcsICctbWV0YWxfYmluZGluZycsICctaW1hZScsICc8aW5maWxlLm1hZT4nLCAnLW9tYWUnLCAnPG91dGZpbGUubWFlPic=

> <r_lp_tautomer_probability>
1

> <r_epik_Ionization_Penalty>
0.00217773

> <r_epik_Ionization_Penalty_Charging>
0.00217329

> <r_epik_Ionization_Penalty_Neutral>
4.43997e-06

> <r_epik_State_Penalty>
0.00149294

> <r_epik_Charging_Adjusted_Penalty>
0.00366623

> <i_epik_Tot_Q>
1

> <i_epik_Tot_abs_Q>
1

> <r_epik_Metal_State_Penalty>
-0

> <b_epik_Metal_Only>
0

> <s_lp_Force_Field>
OPLS_2005

> <r_lp_Energy>
22.2263

> <b_lp_Chiralities_Consistent>
1

> <s_lp_Variant>
AV-unprocessed.smi:1154-3

> <Gold.Version>
5.8.1

> <Gold.Id.Protein>
6NUR|6NUR_protein|mol2

> <Gold.PLP.Fitness>
45.7644

> <Gold.PLP.PLP>
-29.3076

> <Gold.PLP.part.hbond>
-3.0000

> <Gold.PLP.part.metal>
0.0000

> <Gold.PLP.part.buried>
-3.8831

> <Gold.PLP.part.nonpolar>
-22.3725

> <Gold.PLP.part.repulsive>
0.1692

> <Gold.PLP.ligand.clash>
0.0000

> <Gold.PLP.ligand.torsion>
0.6111

> <Gold.PLP.Chemscore.Hbond>
4.0000

> <Gold.PLP.Chemscore.CHOScore>
1.8632

> <Gold.PLP.Chemscore.Metal>
0.0000

> <Gold.Chemscore.Hbonds>
donor molecule, donor type, donor heavy atom, donor atom, acceptor molecule, acceptor atom, score
      L1  H     7    42       P1  7948  2.00
      L1  H    10    36       P1  7948  1.00
      P1  H  7989  7998       L1    16  1.00
      L1  C    15    39       P1  7948  0.77
      L1  C    15    39       P1  7957  0.75

> <Gold.PLP.Chemscore.Internal.Correction>
0.0892

> <Gold.Rescore>
     Score         DG    S(hbond)    S(metal)    S(lipo)     H(rot)  DE(clash)    DE(int)     intcor
     13.25     -13.85       2.59        0.00      55.93       2.67       0.10       0.50       ----

> <Gold.Chemscore.Fitness>
13.2480

> <Gold.Chemscore.DG>
-13.8459

> <Gold.Chemscore.ZeroCoef>
-5.4800

> <Gold.Chemscore.Hbond>
2.5901

> <Gold.Chemscore.Metal>
0.0000

> <Gold.Chemscore.Lipo>
55.9282

> <Gold.Chemscore.Internal_Hbond>
0.0000

> <Gold.Chemscore.DEClash>
0.0978

> <Gold.Chemscore.DEInternal>
0.5001

> <Gold.Chemscore.Rot>
2.6674

> <Gold.Chemscore.Internal.Correction>
   9.000000E+99

> <Gold.Chemscore.Hbonds>
donor molecule, donor type, donor heavy atom, donor atom, acceptor molecule, acceptor atom, score
      L1  H     7    42       P1  7948  0.43
      L1  H    10    36       P1  7948  0.83
      P1  H  7989  7998       L1    16  0.79

> <Gold.Chemscore.Hbond.Weighted>
-8.6509

> <Gold.Chemscore.Metal.Weighted>
-0.0000

> <Gold.Chemscore.Lipo.Weighted>
-6.5436

> <Gold.Chemscore.Internal_Hbond.Weighted>
0.0000

> <Gold.Chemscore.DEClash.Weighted>
0.0978

> <Gold.Chemscore.DEInternal.Weighted>
0.5001

> <Gold.Chemscore.Rot.Weighted>
6.8286

> <Gold.Chemscore.Internal.Correction.Weighted>
   9.000000E+99

> <Gold.Protein.RotatedTorsions>
[ 6907 6896 6895 6894 ] final -139.48 input  -60.11 | X-H torsion
[ 7974 7965 7964 7962 ] final -149.63 input  175.53 | X-H torsion
[ 8008 7997 7996 7995 ] final  141.88 input   59.86 | X-H torsion
[ 10167 10162 10161 10158 ] final  120.15 input  -65.29 | X-H torsion
[ 10718 10713 10712 10709 ] final   55.23 input   66.30 | X-H torsion
[ 10763 10752 10751 10750 ] final   64.39 input  -60.55 | X-H torsion
[ 11005 11000 10999 10996 ] final   11.68 input  -57.11 | X-H torsion

> <Gold.Protein.ActiveResidues>
 VAL166  LYS551  ARG553  GLY616  TRP617  ASP618  TYR619  PRO620  LYS621  CYS622 
 ASP623  PHE694  ASN695  SER759  ASP760  ASP761  ALA762  ILE779  LEU786  VAL792 
 PHE793  MET794  SER795  GLU796  ALA797  LYS798  CYS799  TRP800  GLU811  SER814 

> <Gold.Protein.RotatedAtoms>
  151.0483  133.5646  159.2644 H   0  0  0  0  0  0  0  0  0  0  0  0  # atno 6907 bound_to 6896
  151.2666  135.0670  159.9128 H   0  0  0  0  0  0  0  0  0  0  0  0  # atno 6908 bound_to 6896
  152.5377  134.0220  159.8040 H   0  0  0  0  0  0  0  0  0  0  0  0  # atno 6909 bound_to 6896
  144.7956  140.5039  143.5742 H   0  0  0  0  0  0  0  0  0  0  0  0  # atno 7974 bound_to 7965
  156.2959  140.2303  156.4636 H   0  0  0  0  0  0  0  0  0  0  0  0  # atno 8008 bound_to 7997
  154.7996  140.0449  157.1284 H   0  0  0  0  0  0  0  0  0  0  0  0  # atno 8009 bound_to 7997
  154.9549  140.3047  155.5061 H   0  0  0  0  0  0  0  0  0  0  0  0  # atno 8010 bound_to 7997
  139.6000  144.7054  151.3084 H   0  0  0  0  0  0  0  0  0  0  0  0  # atno 10167 bound_to 10162
  157.5327  130.8641  149.8709 H   0  0  0  0  0  0  0  0  0  0  0  0  # atno 10718 bound_to 10713
  153.0054  135.5395  154.6502 H   0  0  0  0  0  0  0  0  0  0  0  0  # atno 10763 bound_to 10752
  154.5736  135.2844  155.0805 H   0  0  0  0  0  0  0  0  0  0  0  0  # atno 10764 bound_to 10752
  154.1961  135.6492  153.5126 H   0  0  0  0  0  0  0  0  0  0  0  0  # atno 10765 bound_to 10752
  140.5005  134.0750  155.7792 H   0  0  0  0  0  0  0  0  0  0  0  0  # atno 11005 bound_to 11000
  145.5682  139.1482  143.3303 LP  0  0  0  0  0  0  0  0  0  0  0  0  # atno 17320 bound_to 7965
  146.2223  140.5816  142.9012 LP  0  0  0  0  0  0  0  0  0  0  0  0  # atno 17321 bound_to 7965
  140.7242  143.7049  150.7815 LP  0  0  0  0  0  0  0  0  0  0  0  0  # atno 17342 bound_to 10162
  140.0624  143.5142  152.2621 LP  0  0  0  0  0  0  0  0  0  0  0  0  # atno 17343 bound_to 10162
  156.0434  130.3733  150.1377 LP  0  0  0  0  0  0  0  0  0  0  0  0  # atno 17370 bound_to 10713
  156.9561  130.9790  151.3488 LP  0  0  0  0  0  0  0  0  0  0  0  0  # atno 17371 bound_to 10713
  141.1438  133.9092  157.2264 LP  0  0  0  0  0  0  0  0  0  0  0  0  # atno 17394 bound_to 11000
  139.9716  135.0126  156.9526 LP  0  0  0  0  0  0  0  0  0  0  0  0  # atno 17395 bound_to 11000

$$$$
