AV-unprocessed.smi:1448|AV-procd|sdf|5894|dock3
  -GOLD-   22720 5573D 1   1.00000     0.00000
 Structure written by MMmdl.
 49 50  0  0  0  0  0  0  0  0  2 V2000
  142.5764  132.2255  151.0586 C   0  0  0  0  0  0  0  0  0  0  0  0
  143.7865  133.0224  151.4484 C   0  0  0  0  0  0  0  0  0  0  0  0
  143.9581  134.4366  151.4034 C   0  0  0  0  0  0  0  0  0  0  0  0
  145.2346  134.6001  151.8680 C   0  0  0  0  0  0  0  0  0  0  0  0
  145.9398  135.7490  152.0452 N   0  0  0  0  0  0  0  0  0  0  0  0
  145.4799  136.9801  152.3280 C   0  0  0  0  0  0  0  0  0  0  0  0
  144.2980  137.2808  152.4923 O   0  0  0  0  0  0  0  0  0  0  0  0
  146.4821  137.8683  152.3959 N   0  0  0  0  0  0  0  0  0  0  0  0
  146.3470  139.2964  152.6879 C   0  0  0  0  0  0  0  0  0  0  0  0
  146.5979  139.6532  154.1895 C   0  0  0  0  0  0  0  0  0  0  0  0
  145.3080  139.4336  154.9477 N   0  3  0  0  0  0  0  0  0  0  0  0
  145.1738  140.1305  156.2526 C   0  0  0  0  0  0  0  0  0  0  0  0
  144.8805  138.0157  155.0800 C   0  0  0  0  0  0  0  0  0  0  0  0
  147.7375  138.7594  154.7677 C   0  0  0  0  0  0  0  0  0  0  0  0
  149.1241  139.0287  154.1499 C   0  0  0  0  0  0  0  0  0  0  0  0
  149.5186  140.5081  154.2489 C   0  0  0  0  0  0  0  0  0  0  0  0
  148.4397  141.4130  153.6408 C   0  0  0  0  0  0  0  0  0  0  0  0
  147.0709  141.1425  154.2913 C   0  0  0  0  0  0  0  0  0  0  0  0
  145.7625  133.3629  152.1632 N   0  0  0  0  0  0  0  0  0  0  0  0
  147.0721  133.0203  152.6826 C   0  0  0  0  0  0  0  0  0  0  0  0
  144.8636  132.3900  151.9001 N   0  0  0  0  0  0  0  0  0  0  0  0
  141.7598  132.8762  150.7458 H   0  0  0  0  0  0  0  0  0  0  0  0
  142.2178  131.6218  151.8928 H   0  0  0  0  0  0  0  0  0  0  0  0
  142.7998  131.5525  150.2304 H   0  0  0  0  0  0  0  0  0  0  0  0
  143.2492  135.1848  151.0828 H   0  0  0  0  0  0  0  0  0  0  0  0
  146.9388  135.6600  151.9318 H   0  0  0  0  0  0  0  0  0  0  0  0
  147.4215  137.5283  152.2484 H   0  0  0  0  0  0  0  0  0  0  0  0
  146.9926  139.8762  152.0285 H   0  0  0  0  0  0  0  0  0  0  0  0
  145.3416  139.5750  152.3794 H   0  0  0  0  0  0  0  0  0  0  0  0
  145.9877  139.8684  156.9294 H   0  0  0  0  0  0  0  0  0  0  0  0
  144.2362  139.8606  156.7403 H   0  0  0  0  0  0  0  0  0  0  0  0
  145.1475  141.2129  156.1303 H   0  0  0  0  0  0  0  0  0  0  0  0
  145.4863  137.4841  155.8146 H   0  0  0  0  0  0  0  0  0  0  0  0
  144.9316  137.4707  154.1393 H   0  0  0  0  0  0  0  0  0  0  0  0
  143.8435  137.9676  155.4138 H   0  0  0  0  0  0  0  0  0  0  0  0
  147.8101  138.9132  155.8450 H   0  0  0  0  0  0  0  0  0  0  0  0
  147.5101  137.7025  154.6283 H   0  0  0  0  0  0  0  0  0  0  0  0
  149.8728  138.4189  154.6567 H   0  0  0  0  0  0  0  0  0  0  0  0
  149.1408  138.7121  153.1071 H   0  0  0  0  0  0  0  0  0  0  0  0
  149.6697  140.7741  155.2959 H   0  0  0  0  0  0  0  0  0  0  0  0
  150.4729  140.6743  153.7482 H   0  0  0  0  0  0  0  0  0  0  0  0
  148.7158  142.4568  153.7937 H   0  0  0  0  0  0  0  0  0  0  0  0
  148.3939  141.2743  152.5610 H   0  0  0  0  0  0  0  0  0  0  0  0
  146.3247  141.8182  153.8722 H   0  0  0  0  0  0  0  0  0  0  0  0
  147.1880  141.4358  155.3341 H   0  0  0  0  0  0  0  0  0  0  0  0
  147.8440  133.4425  152.0390 H   0  0  0  0  0  0  0  0  0  0  0  0
  147.1993  131.9376  152.7215 H   0  0  0  0  0  0  0  0  0  0  0  0
  147.1843  133.4262  153.6882 H   0  0  0  0  0  0  0  0  0  0  0  0
  144.6025  139.8597  154.3635 H   0  0  0  0  0  0  0  0  0  0  0  0
  1  2  1  0  0  0  0
  1 22  1  0  0  0  0
  1 23  1  0  0  0  0
  1 24  1  0  0  0  0
  2 21  2  0  0  0  0
  2  3  1  0  0  0  0
  3  4  2  0  0  0  0
  3 25  1  0  0  0  0
  4  5  1  0  0  0  0
  4 19  1  0  0  0  0
  5  6  1  0  0  0  0
  5 26  1  0  0  0  0
  6  7  2  0  0  0  0
  6  8  1  0  0  0  0
  8  9  1  0  0  0  0
  8 27  1  0  0  0  0
  9 10  1  0  0  0  0
  9 28  1  0  0  0  0
  9 29  1  0  0  0  0
 10 18  1  0  0  0  0
 10 11  1  0  0  0  0
 10 14  1  0  0  0  0
 11 12  1  0  0  0  0
 11 13  1  0  0  0  0
 11 49  1  0  0  0  0
 12 30  1  0  0  0  0
 12 31  1  0  0  0  0
 12 32  1  0  0  0  0
 13 33  1  0  0  0  0
 13 34  1  0  0  0  0
 13 35  1  0  0  0  0
 14 15  1  0  0  0  0
 14 36  1  0  0  0  0
 14 37  1  0  0  0  0
 15 16  1  0  0  0  0
 15 38  1  0  0  0  0
 15 39  1  0  0  0  0
 16 17  1  0  0  0  0
 16 40  1  0  0  0  0
 16 41  1  0  0  0  0
 17 18  1  0  0  0  0
 17 42  1  0  0  0  0
 17 43  1  0  0  0  0
 18 44  1  0  0  0  0
 18 45  1  0  0  0  0
 19 20  1  0  0  0  0
 19 21  1  0  0  0  0
 20 46  1  0  0  0  0
 20 47  1  0  0  0  0
 20 48  1  0  0  0  0
M  CHG  1  11   1
M  END
> <s_m_source_file>
AV-unprocessed.smi

> <i_m_source_file_index>
1448

> <i_lp_mmshare_version>
43012

> <i_f3d_flags>
0

> <s_epik_input>
W0NIM11jMVtjSF1jKG4objEpW0NIM10pW05IXUMoPU8pW05IXVtDSDJdQzIoTihbQ0gzXSlbQ0gzXSlbQ0gyXVtDSDJdW0NIMl1bQ0gyXVtDSDJdMg==

> <s_epik_cmdline>
J2VwaWtfcHl0aG9uJywgJy1waCcsICc3LjAnLCAnLXRuJywgJzgnLCAnLW1hJywgJzIwMCcsICctbWV0YWxfYmluZGluZycsICctaW1hZScsICc8aW5maWxlLm1hZT4nLCAnLW9tYWUnLCAnPG91dGZpbGUubWFlPic=

> <r_lp_tautomer_probability>
1

> <r_epik_Ionization_Penalty>
0.00238996

> <r_epik_Ionization_Penalty_Charging>
0.00230992

> <r_epik_Ionization_Penalty_Neutral>
8.00361e-05

> <r_epik_State_Penalty>
0.00159337

> <r_epik_Charging_Adjusted_Penalty>
0.00390329

> <i_epik_Tot_Q>
1

> <i_epik_Tot_abs_Q>
1

> <r_epik_Metal_State_Penalty>
-0

> <b_epik_Metal_Only>
0

> <s_lp_Force_Field>
OPLS_2005

> <r_lp_Energy>
34.408

> <b_lp_Chiralities_Consistent>
1

> <s_lp_Variant>
AV-unprocessed.smi:1448-1

> <Gold.Version>
5.8.1

> <Gold.Id.Protein>
6NUR|6NUR_protein|mol2

> <Gold.PLP.Fitness>
41.5078

> <Gold.PLP.PLP>
-32.2236

> <Gold.PLP.part.hbond>
-2.8166

> <Gold.PLP.part.metal>
0.0000

> <Gold.PLP.part.buried>
-2.4638

> <Gold.PLP.part.nonpolar>
-30.3103

> <Gold.PLP.part.repulsive>
3.0008

> <Gold.PLP.ligand.clash>
0.0000

> <Gold.PLP.ligand.torsion>
1.0766

> <Gold.PLP.Chemscore.Hbond>
3.7578

> <Gold.PLP.Chemscore.CHOScore>
0.0000

> <Gold.PLP.Chemscore.Metal>
0.0000

> <Gold.Chemscore.Hbonds>
donor molecule, donor type, donor heavy atom, donor atom, acceptor molecule, acceptor atom, score
      L1  H     5    26       P1  7948  0.91
      L1  H     8    27       P1  7948  1.00
      L1  H    11    49       P1 10175  1.27

> <Gold.PLP.Chemscore.Internal.Correction>
0.1641

> <Gold.Rescore>
     Score         DG    S(hbond)    S(metal)    S(lipo)     H(rot)  DE(clash)    DE(int)     intcor
     15.74     -20.17       2.90        0.00      74.86       1.47       1.80       2.64       ----

> <Gold.Chemscore.Fitness>
15.7364

> <Gold.Chemscore.DG>
-20.1698

> <Gold.Chemscore.ZeroCoef>
-5.4800

> <Gold.Chemscore.Hbond>
2.9046

> <Gold.Chemscore.Metal>
0.0000

> <Gold.Chemscore.Lipo>
74.8586

> <Gold.Chemscore.Internal_Hbond>
0.0000

> <Gold.Chemscore.DEClash>
1.7967

> <Gold.Chemscore.DEInternal>
2.6368

> <Gold.Chemscore.Rot>
1.4727

> <Gold.Chemscore.Internal.Correction>
   9.000000E+99

> <Gold.Chemscore.Hbonds>
donor molecule, donor type, donor heavy atom, donor atom, acceptor molecule, acceptor atom, score
      L1  H     5    26       P1  7948  0.88
      L1  H     8    27       P1  7948  0.93
      L1  H    11    49       P1 10175  0.62

> <Gold.Chemscore.Hbond.Weighted>
-9.7013

> <Gold.Chemscore.Metal.Weighted>
-0.0000

> <Gold.Chemscore.Lipo.Weighted>
-8.7585

> <Gold.Chemscore.Internal_Hbond.Weighted>
0.0000

> <Gold.Chemscore.DEClash.Weighted>
1.7967

> <Gold.Chemscore.DEInternal.Weighted>
2.6368

> <Gold.Chemscore.Rot.Weighted>
3.7700

> <Gold.Chemscore.Internal.Correction.Weighted>
   9.000000E+99

> <Gold.Protein.RotatedTorsions>
[ 6907 6896 6895 6894 ] final  152.98 input  -60.11 | X-H torsion
[ 7974 7965 7964 7962 ] final  161.67 input  175.53 | X-H torsion
[ 8008 7997 7996 7995 ] final  -86.85 input   59.86 | X-H torsion
[ 10167 10162 10161 10158 ] final   62.50 input  -65.29 | X-H torsion
[ 10718 10713 10712 10709 ] final -148.93 input   66.30 | X-H torsion
[ 10763 10752 10751 10750 ] final -176.78 input  -60.55 | X-H torsion
[ 11005 11000 10999 10996 ] final   85.27 input  -57.11 | X-H torsion

> <Gold.Protein.ActiveResidues>
 VAL166  LYS551  ARG553  GLY616  TRP617  ASP618  TYR619  PRO620  LYS621  CYS622 
 ASP623  PHE694  ASN695  SER759  ASP760  ASP761  ALA762  ILE779  LEU786  VAL792 
 PHE793  MET794  SER795  GLU796  ALA797  LYS798  CYS799  TRP800  GLU811  SER814 

> <Gold.Protein.RotatedAtoms>
  152.0791  133.4144  159.4492 H   0  0  0  0  0  0  0  0  0  0  0  0  # atno 6907 bound_to 6896
  150.6862  134.3003  159.4713 H   0  0  0  0  0  0  0  0  0  0  0  0  # atno 6908 bound_to 6896
  152.0843  134.9450  160.0623 H   0  0  0  0  0  0  0  0  0  0  0  0  # atno 6909 bound_to 6896
  144.7674  139.7930  143.6310 H   0  0  0  0  0  0  0  0  0  0  0  0  # atno 7974 bound_to 7965
  154.6565  140.0573  157.0015 H   0  0  0  0  0  0  0  0  0  0  0  0  # atno 8008 bound_to 7997
  155.1292  140.3255  155.4460 H   0  0  0  0  0  0  0  0  0  0  0  0  # atno 8009 bound_to 7997
  156.2599  140.1984  156.6411 H   0  0  0  0  0  0  0  0  0  0  0  0  # atno 8010 bound_to 7997
  140.1432  144.4533  150.6799 H   0  0  0  0  0  0  0  0  0  0  0  0  # atno 10167 bound_to 10162
  156.4266  130.8055  151.2280 H   0  0  0  0  0  0  0  0  0  0  0  0  # atno 10718 bound_to 10713
  154.5682  135.2825  155.0853 H   0  0  0  0  0  0  0  0  0  0  0  0  # atno 10763 bound_to 10752
  154.2236  135.6387  153.5156 H   0  0  0  0  0  0  0  0  0  0  0  0  # atno 10764 bound_to 10752
  153.0049  135.5520  154.6297 H   0  0  0  0  0  0  0  0  0  0  0  0  # atno 10765 bound_to 10752
  139.8976  134.8275  156.2560 H   0  0  0  0  0  0  0  0  0  0  0  0  # atno 11005 bound_to 11000
  146.1793  139.4979  142.9876 LP  0  0  0  0  0  0  0  0  0  0  0  0  # atno 17320 bound_to 7965
  145.6427  141.0281  143.1803 LP  0  0  0  0  0  0  0  0  0  0  0  0  # atno 17321 bound_to 7965
  140.6748  143.2300  151.5536 LP  0  0  0  0  0  0  0  0  0  0  0  0  # atno 17342 bound_to 10162
  139.5462  144.2516  152.1446 LP  0  0  0  0  0  0  0  0  0  0  0  0  # atno 17343 bound_to 10162
  157.7508  131.0211  150.3737 LP  0  0  0  0  0  0  0  0  0  0  0  0  # atno 17370 bound_to 10713
  156.4066  130.3926  149.6921 LP  0  0  0  0  0  0  0  0  0  0  0  0  # atno 17371 bound_to 10713
  141.0193  133.7050  156.1242 LP  0  0  0  0  0  0  0  0  0  0  0  0  # atno 17394 bound_to 11000
  140.7256  134.4310  157.5571 LP  0  0  0  0  0  0  0  0  0  0  0  0  # atno 17395 bound_to 11000

$$$$
