AV-unprocessed.smi:287|AV-procd|sdf|2189|dock1
  -GOLD-   2262021573D 1   1.00000     0.00000
 Structure written by MMmdl.
 55 58  0  0  0  0  0  0  0  0  1 V2000
  141.5986  134.5713  163.1019 C   0  0  0  0  0  0  0  0  0  0  0  0
  143.0340  134.7344  162.7366 C   0  0  0  0  0  0  0  0  0  0  0  0
  143.8736  135.8071  162.6634 C   0  0  0  0  0  0  0  0  0  0  0  0
  145.1461  135.3248  162.2340 C   0  0  0  0  0  0  0  0  0  0  0  0
  146.3906  136.1720  162.0031 C   0  0  1  0  0  0  0  0  0  0  0  0
  146.1167  137.6257  162.4228 C   0  0  0  0  0  0  0  0  0  0  0  0
  147.4924  135.7564  162.7869 O   0  0  0  0  0  0  0  0  0  0  0  0
  146.8705  136.1248  160.5337 C   0  0  0  0  0  0  0  0  0  0  0  0
  148.3239  136.1754  160.4085 N   0  0  0  0  0  0  0  0  0  0  0  0
  148.8915  136.7765  159.3424 C   0  0  0  0  0  0  0  0  0  0  0  0
  150.1473  136.4499  158.9428 N   0  0  0  0  0  0  0  0  0  0  0  0
  150.6881  137.0612  157.8862 C   0  0  0  0  0  0  0  0  0  0  0  0
  150.1571  138.0071  157.1092 N   0  0  0  0  0  0  0  0  0  0  0  0
  148.8937  138.3441  157.5024 C   0  0  0  0  0  0  0  0  0  0  0  0
  148.1976  137.7698  158.6045 C   0  0  0  0  0  0  0  0  0  0  0  0
  146.9375  138.3377  158.7165 N   0  0  0  0  0  0  0  0  0  0  0  0
  146.8927  139.1951  157.7341 C   0  0  0  0  0  0  0  0  0  0  0  0
  148.0290  139.2809  156.9581 N   0  0  0  0  0  0  0  0  0  0  0  0
  148.2086  140.1735  155.7598 C   0  0  2  0  0  0  0  0  0  0  0  0
  147.2630  139.8188  154.8018 O   0  0  0  0  0  0  0  0  0  0  0  0
  147.8592  138.9613  153.8428 C   0  0  1  0  0  0  0  0  0  0  0  0
  147.0553  138.9791  152.5305 C   0  0  0  0  0  0  0  0  0  0  0  0
  147.5472  138.0421  151.5941 O   0  0  0  0  0  0  0  0  0  0  0  0
  149.3324  139.3965  153.7600 C   0  0  2  0  0  0  0  0  0  0  0  0
  150.1623  138.2660  153.5836 O   0  0  0  0  0  0  0  0  0  0  0  0
  149.6040  140.0661  155.1125 C   0  0  1  0  0  0  0  0  0  0  0  0
  150.1681  141.3470  154.9144 O   0  0  0  0  0  0  0  0  0  0  0  0
  144.9774  133.9678  162.0949 C   0  0  0  0  0  0  0  0  0  0  0  0
  145.8773  132.8453  161.6951 C   0  0  0  0  0  0  0  0  0  0  0  0
  143.6993  133.6029  162.3941 O   0  0  0  0  0  0  0  0  0  0  0  0
  147.9914  141.1700  156.1474 H   0  0  0  0  0  0  0  0  0  0  0  0
  147.7916  137.9548  154.2555 H   0  0  0  0  0  0  0  0  0  0  0  0
  149.4996  140.0963  152.9406 H   0  0  0  0  0  0  0  0  0  0  0  0
  150.2811  139.4974  155.7499 H   0  0  0  0  0  0  0  0  0  0  0  0
  141.1309  135.5392  163.2832 H   0  0  0  0  0  0  0  0  0  0  0  0
  141.4956  133.9710  164.0059 H   0  0  0  0  0  0  0  0  0  0  0  0
  141.0494  134.0764  162.3007 H   0  0  0  0  0  0  0  0  0  0  0  0
  143.6034  136.8293  162.8840 H   0  0  0  0  0  0  0  0  0  0  0  0
  145.2973  138.0559  161.8457 H   0  0  0  0  0  0  0  0  0  0  0  0
  146.9915  138.2586  162.2689 H   0  0  0  0  0  0  0  0  0  0  0  0
  145.8434  137.6898  163.4770 H   0  0  0  0  0  0  0  0  0  0  0  0
  147.7307  134.8797  162.5270 H   0  0  0  0  0  0  0  0  0  0  0  0
  146.5439  135.1805  160.0952 H   0  0  0  0  0  0  0  0  0  0  0  0
  146.4086  136.9182  159.9439 H   0  0  0  0  0  0  0  0  0  0  0  0
  148.8438  135.6310  161.0825 H   0  0  0  0  0  0  0  0  0  0  0  0
  151.6896  136.7501  157.6277 H   0  0  0  0  0  0  0  0  0  0  0  0
  146.0162  139.7988  157.5474 H   0  0  0  0  0  0  0  0  0  0  0  0
  146.0134  138.7333  152.7359 H   0  0  0  0  0  0  0  0  0  0  0  0
  147.0669  139.9755  152.0884 H   0  0  0  0  0  0  0  0  0  0  0  0
  148.0526  137.3915  152.0572 H   0  0  0  0  0  0  0  0  0  0  0  0
  149.6389  137.5660  153.2226 H   0  0  0  0  0  0  0  0  0  0  0  0
  150.6531  141.5832  155.6907 H   0  0  0  0  0  0  0  0  0  0  0  0
  146.7810  132.8380  162.3049 H   0  0  0  0  0  0  0  0  0  0  0  0
  146.1729  132.9413  160.6501 H   0  0  0  0  0  0  0  0  0  0  0  0
  145.3839  131.8805  161.8172 H   0  0  0  0  0  0  0  0  0  0  0  0
  1  2  1  0  0  0  0
  1 35  1  0  0  0  0
  1 36  1  0  0  0  0
  1 37  1  0  0  0  0
  2 30  1  0  0  0  0
  2  3  2  0  0  0  0
  3  4  1  0  0  0  0
  3 38  1  0  0  0  0
  4  5  1  0  0  0  0
  4 28  2  0  0  0  0
  5  6  1  0  0  0  0
  5  7  1  0  0  0  0
  5  8  1  0  0  0  0
  6 39  1  0  0  0  0
  6 40  1  0  0  0  0
  6 41  1  0  0  0  0
  7 42  1  0  0  0  0
  8  9  1  0  0  0  0
  8 43  1  0  0  0  0
  8 44  1  0  0  0  0
  9 10  1  0  0  0  0
  9 45  1  0  0  0  0
 10 15  1  0  0  0  0
 10 11  2  0  0  0  0
 11 12  1  0  0  0  0
 12 13  2  0  0  0  0
 12 46  1  0  0  0  0
 13 14  1  0  0  0  0
 14 18  1  0  0  0  0
 14 15  2  0  0  0  0
 15 16  1  0  0  0  0
 16 17  2  0  0  0  0
 17 18  1  0  0  0  0
 17 47  1  0  0  0  0
 18 19  1  0  0  0  0
 19 31  1  0  0  0  0
 19 26  1  0  0  0  0
 19 20  1  0  0  0  0
 20 21  1  0  0  0  0
 21 32  1  0  0  0  0
 21 22  1  0  0  0  0
 21 24  1  0  0  0  0
 22 23  1  0  0  0  0
 22 48  1  0  0  0  0
 22 49  1  0  0  0  0
 23 50  1  0  0  0  0
 24 33  1  0  0  0  0
 24 25  1  0  0  0  0
 24 26  1  0  0  0  0
 25 51  1  0  0  0  0
 26 34  1  0  0  0  0
 26 27  1  0  0  0  0
 27 52  1  0  0  0  0
 28 29  1  0  0  0  0
 28 30  1  0  0  0  0
 29 53  1  0  0  0  0
 29 54  1  0  0  0  0
 29 55  1  0  0  0  0
M  END
> <s_m_source_file>
AV-unprocessed.smi

> <i_m_source_file_index>
287

> <i_lp_mmshare_version>
43012

> <i_f3d_flags>
0

> <s_epik_input>
W0NIM11jMVtjSF1jKGMobzEpW0NIM10pW0NAQF0oW0NIM10pKFtPSF0pW0NIMl1bTkhdYyhuW2NIXW4yKWMoYzIzKW5bY0hdbjNbQ0BASF00T1tDQEhdKFtDSDJdW09IXSlbQ0BASF0oW09IXSlbQ0BIXTRbT0hd

> <s_epik_cmdline>
J2VwaWtfcHl0aG9uJywgJy1waCcsICc3LjAnLCAnLXRuJywgJzgnLCAnLW1hJywgJzIwMCcsICctbWV0YWxfYmluZGluZycsICctaW1hZScsICc8aW5maWxlLm1hZT4nLCAnLW9tYWUnLCAnPG91dGZpbGUubWFlPic=

> <r_lp_tautomer_probability>
1

> <r_epik_Ionization_Penalty>
0.000992612

> <r_epik_Ionization_Penalty_Charging>
0

> <r_epik_Ionization_Penalty_Neutral>
0.000992612

> <r_epik_State_Penalty>
-0

> <r_epik_Charging_Adjusted_Penalty>
0

> <i_epik_Tot_Q>
0

> <i_epik_Tot_abs_Q>
0

> <r_epik_Metal_State_Penalty>
-0

> <b_epik_Metal_Only>
0

> <s_epik_Chemistry_Notes>
This compound contains an acetal/aminal-like group ( X-CH(R)-Y where X, Y are N, S, or O) that may be acid/base labile, releasing an aldehyde.

> <s_lp_Force_Field>
OPLS_2005

> <r_lp_Energy>
40.6201

> <b_lp_Chiralities_Consistent>
1

> <s_lp_Variant>
AV-unprocessed.smi:287-13

> <Gold.Version>
5.8.1

> <Gold.Id.Protein>
6NUR|6NUR_protein|mol2

> <Gold.PLP.Fitness>
52.2817

> <Gold.PLP.PLP>
-41.0187

> <Gold.PLP.part.hbond>
-7.9420

> <Gold.PLP.part.metal>
0.0000

> <Gold.PLP.part.buried>
-2.6200

> <Gold.PLP.part.nonpolar>
-30.0946

> <Gold.PLP.part.repulsive>
0.3508

> <Gold.PLP.ligand.clash>
0.0000

> <Gold.PLP.ligand.torsion>
1.0948

> <Gold.PLP.Chemscore.Hbond>
4.4298

> <Gold.PLP.Chemscore.CHOScore>
0.0000

> <Gold.PLP.Chemscore.Metal>
0.0000

> <Gold.Chemscore.Hbonds>
donor molecule, donor type, donor heavy atom, donor atom, acceptor molecule, acceptor atom, score
      L1  H    23    50       P1  7948  0.68
      L1  H    25    51       P1  7948  1.00
      P1  H  6896  6907       L1    11  1.00
      P1  H  6934  6947       L1    16  0.11
      P1  H  7954  7966       L1    23  1.00
      P1  H  7989  7998       L1    27  0.46

> <Gold.PLP.Chemscore.Internal.Correction>
0.1632

> <Gold.Rescore>
     Score         DG    S(hbond)    S(metal)    S(lipo)     H(rot)  DE(clash)    DE(int)     intcor
      8.15     -13.07       3.17        0.00      89.66       5.27       1.37       3.56       ----

> <Gold.Chemscore.Fitness>
8.1514

> <Gold.Chemscore.DG>
-13.0750

> <Gold.Chemscore.ZeroCoef>
-5.4800

> <Gold.Chemscore.Hbond>
3.1703

> <Gold.Chemscore.Metal>
0.0000

> <Gold.Chemscore.Lipo>
89.6589

> <Gold.Chemscore.Internal_Hbond>
0.0000

> <Gold.Chemscore.DEClash>
1.3676

> <Gold.Chemscore.DEInternal>
3.5560

> <Gold.Chemscore.Rot>
5.2672

> <Gold.Chemscore.Internal.Correction>
   9.000000E+99

> <Gold.Chemscore.Hbonds>
donor molecule, donor type, donor heavy atom, donor atom, acceptor molecule, acceptor atom, score
      L1  H    23    50       P1  7948  0.65
      L1  H    25    51       P1  7948  0.75
      P1  H  6896  6907       L1    11  0.95
      P1  H  6934  6947       L1    16  0.01
      P1  H  7954  7966       L1    23  0.35
      P1  H  7989  7998       L1    27  0.07

> <Gold.Chemscore.Hbond.Weighted>
-10.5888

> <Gold.Chemscore.Metal.Weighted>
-0.0000

> <Gold.Chemscore.Lipo.Weighted>
-10.4901

> <Gold.Chemscore.Internal_Hbond.Weighted>
0.0000

> <Gold.Chemscore.DEClash.Weighted>
1.3676

> <Gold.Chemscore.DEInternal.Weighted>
3.5560

> <Gold.Chemscore.Rot.Weighted>
13.4839

> <Gold.Chemscore.Internal.Correction.Weighted>
   9.000000E+99

> <Gold.Protein.RotatedTorsions>
[ 6907 6896 6895 6894 ] final  -37.19 input  -60.11 | X-H torsion
[ 7974 7965 7964 7962 ] final  -33.96 input  175.53 | X-H torsion
[ 8008 7997 7996 7995 ] final   13.00 input   59.86 | X-H torsion
[ 10167 10162 10161 10158 ] final  127.49 input  -65.29 | X-H torsion
[ 10718 10713 10712 10709 ] final   66.46 input   66.30 | X-H torsion
[ 10763 10752 10751 10750 ] final   -1.89 input  -60.55 | X-H torsion
[ 11005 11000 10999 10996 ] final   79.73 input  -57.11 | X-H torsion

> <Gold.Protein.ActiveResidues>
 VAL166  LYS551  ARG553  GLY616  TRP617  ASP618  TYR619  PRO620  LYS621  CYS622 
 ASP623  PHE694  ASN695  SER759  ASP760  ASP761  ALA762  ILE779  LEU786  VAL792 
 PHE793  MET794  SER795  GLU796  ALA797  LYS798  CYS799  TRP800  GLU811  SER814 

> <Gold.Protein.RotatedAtoms>
  151.0178  134.9446  159.8042 H   0  0  0  0  0  0  0  0  0  0  0  0  # atno 6907 bound_to 6896
  152.5318  134.2943  159.9065 H   0  0  0  0  0  0  0  0  0  0  0  0  # atno 6908 bound_to 6896
  151.2950  133.4106  159.2670 H   0  0  0  0  0  0  0  0  0  0  0  0  # atno 6909 bound_to 6896
  146.0868  140.5980  142.8882 H   0  0  0  0  0  0  0  0  0  0  0  0  # atno 7974 bound_to 7965
  154.8284  140.2895  155.5739 H   0  0  0  0  0  0  0  0  0  0  0  0  # atno 8008 bound_to 7997
  156.3003  140.2536  156.3136 H   0  0  0  0  0  0  0  0  0  0  0  0  # atno 8009 bound_to 7997
  154.9259  140.0384  157.2012 H   0  0  0  0  0  0  0  0  0  0  0  0  # atno 8010 bound_to 7997
  139.5575  144.6859  151.4139 H   0  0  0  0  0  0  0  0  0  0  0  0  # atno 10167 bound_to 10162
  157.6171  130.9269  150.0112 H   0  0  0  0  0  0  0  0  0  0  0  0  # atno 10718 bound_to 10713
  153.3508  135.6985  153.6790 H   0  0  0  0  0  0  0  0  0  0  0  0  # atno 10763 bound_to 10752
  153.5518  135.3552  155.2763 H   0  0  0  0  0  0  0  0  0  0  0  0  # atno 10764 bound_to 10752
  154.8653  135.4228  154.2743 H   0  0  0  0  0  0  0  0  0  0  0  0  # atno 10765 bound_to 10752
  139.9161  134.7865  156.1816 H   0  0  0  0  0  0  0  0  0  0  0  0  # atno 11005 bound_to 11000
  144.7332  140.4732  143.6923 LP  0  0  0  0  0  0  0  0  0  0  0  0  # atno 17320 bound_to 7965
  145.6114  139.1513  143.3074 LP  0  0  0  0  0  0  0  0  0  0  0  0  # atno 17321 bound_to 7965
  140.6850  143.7994  150.7174 LP  0  0  0  0  0  0  0  0  0  0  0  0  # atno 17342 bound_to 10162
  140.1459  143.4400  152.2163 LP  0  0  0  0  0  0  0  0  0  0  0  0  # atno 17343 bound_to 10162
  156.1298  130.3643  149.9751 LP  0  0  0  0  0  0  0  0  0  0  0  0  # atno 17370 bound_to 10713
  156.7814  130.9223  151.3646 LP  0  0  0  0  0  0  0  0  0  0  0  0  # atno 17371 bound_to 10713
  141.0639  133.6829  156.2005 LP  0  0  0  0  0  0  0  0  0  0  0  0  # atno 17394 bound_to 11000
  140.6617  134.4960  157.5583 LP  0  0  0  0  0  0  0  0  0  0  0  0  # atno 17395 bound_to 11000

$$$$
