AV-unprocessed.smi:2218|AV-procd|sdf|8976|dock3
  -GOLD-   2272012193D 1   1.00000     0.00000
 Structure written by MMmdl.
 32 32  0  0  0  0  0  0  0  0  2 V2000
  153.1602  142.6282  162.3170 C   0  0  0  0  0  0  0  0  0  0  0  0
  152.8104  142.2838  160.9101 C   0  0  0  0  0  0  0  0  0  0  0  0
  151.8114  142.8590  160.2357 N   0  0  0  0  0  0  0  0  0  0  0  0
  151.6815  142.3596  158.9351 C   0  0  0  0  0  0  0  0  0  0  0  0
  150.6072  142.8938  158.0291 C   0  0  0  0  0  0  0  0  0  0  0  0
  150.0152  141.8075  157.1209 C   0  0  0  0  0  0  0  0  0  0  0  0
  150.1694  140.6100  157.3676 O   0  0  0  0  0  0  0  0  0  0  0  0
  149.3389  142.2519  156.0506 N   0  0  0  0  0  0  0  0  0  0  0  0
  148.7306  141.4061  155.0304 C   0  0  0  0  0  0  0  0  0  0  0  0
  149.7809  140.5233  154.3374 C   0  0  0  0  0  0  0  0  0  0  0  0
  149.9111  139.1394  154.9884 C   0  0  0  0  0  0  0  0  0  0  0  0
  151.0038  138.2813  154.3201 C   0  0  0  0  0  0  0  0  0  0  0  0
  152.4268  138.6873  154.7257 C   0  0  0  0  0  0  0  0  0  0  0  0
  153.3563  138.0201  154.2218 O   0  0  0  0  0  0  0  0  0  0  0  0
  152.5769  139.6457  155.5164 O   0  5  0  0  0  0  0  0  0  0  0  0
  152.6122  141.3964  158.6311 C   0  0  0  0  0  0  0  0  0  0  0  0
  153.6750  141.0720  159.9726 S   0  0  0  0  0  0  0  0  0  0  0  0
  152.6941  143.5697  162.6091 H   0  0  0  0  0  0  0  0  0  0  0  0
  154.2408  142.7278  162.4194 H   0  0  0  0  0  0  0  0  0  0  0  0
  152.8147  141.8423  162.9889 H   0  0  0  0  0  0  0  0  0  0  0  0
  149.8021  143.3410  158.6135 H   0  0  0  0  0  0  0  0  0  0  0  0
  151.0087  143.6888  157.3997 H   0  0  0  0  0  0  0  0  0  0  0  0
  149.2562  143.2500  155.9223 H   0  0  0  0  0  0  0  0  0  0  0  0
  147.9405  140.7931  155.4679 H   0  0  0  0  0  0  0  0  0  0  0  0
  148.2498  142.0548  154.2978 H   0  0  0  0  0  0  0  0  0  0  0  0
  149.5163  140.4043  153.2859 H   0  0  0  0  0  0  0  0  0  0  0  0
  150.7511  141.0214  154.3574 H   0  0  0  0  0  0  0  0  0  0  0  0
  150.1355  139.2634  156.0489 H   0  0  0  0  0  0  0  0  0  0  0  0
  148.9504  138.6253  154.9301 H   0  0  0  0  0  0  0  0  0  0  0  0
  150.8592  137.2316  154.5784 H   0  0  0  0  0  0  0  0  0  0  0  0
  150.9215  138.3530  153.2350 H   0  0  0  0  0  0  0  0  0  0  0  0
  152.7309  140.8554  157.7043 H   0  0  0  0  0  0  0  0  0  0  0  0
  1  2  1  0  0  0  0
  1 18  1  0  0  0  0
  1 19  1  0  0  0  0
  1 20  1  0  0  0  0
  2 17  1  0  0  0  0
  2  3  2  0  0  0  0
  3  4  1  0  0  0  0
  4  5  1  0  0  0  0
  4 16  2  0  0  0  0
  5  6  1  0  0  0  0
  5 21  1  0  0  0  0
  5 22  1  0  0  0  0
  6  7  2  0  0  0  0
  6  8  1  0  0  0  0
  8  9  1  0  0  0  0
  8 23  1  0  0  0  0
  9 10  1  0  0  0  0
  9 24  1  0  0  0  0
  9 25  1  0  0  0  0
 10 11  1  0  0  0  0
 10 26  1  0  0  0  0
 10 27  1  0  0  0  0
 11 12  1  0  0  0  0
 11 28  1  0  0  0  0
 11 29  1  0  0  0  0
 12 13  1  0  0  0  0
 12 30  1  0  0  0  0
 12 31  1  0  0  0  0
 13 14  2  0  0  0  0
 13 15  1  0  0  0  0
 16 17  1  0  0  0  0
 16 32  1  0  0  0  0
M  CHG  1  15  -1
M  END
> <s_m_source_file>
AV-unprocessed.smi

> <i_m_source_file_index>
2218

> <i_lp_mmshare_version>
43012

> <i_f3d_flags>
0

> <s_epik_input>
W0NIM11jMW5jKFtjSF1zMSlbQ0gyXUMoPU8pW05IXVtDSDJdW0NIMl1bQ0gyXVtDSDJdQyg9TylbT0hd

> <s_epik_cmdline>
J2VwaWtfcHl0aG9uJywgJy1waCcsICc3LjAnLCAnLXRuJywgJzgnLCAnLW1hJywgJzIwMCcsICctbWV0YWxfYmluZGluZycsICctaW1hZScsICc8aW5maWxlLm1hZT4nLCAnLW9tYWUnLCAnPG91dGZpbGUubWFlPic=

> <r_epik_Ionization_Penalty>
0.0039764

> <r_epik_Ionization_Penalty_Charging>
0.00392012

> <r_epik_Ionization_Penalty_Neutral>
5.62812e-05

> <r_epik_State_Penalty>
0.00280293

> <r_epik_Charging_Adjusted_Penalty>
0.00672305

> <i_epik_Tot_Q>
-1

> <i_epik_Tot_abs_Q>
1

> <r_epik_Metal_State_Penalty>
-0

> <b_epik_Metal_Only>
0

> <s_lp_Force_Field>
OPLS_2005

> <r_lp_Energy>
1.59535

> <b_lp_Chiralities_Consistent>
1

> <s_lp_Variant>
AV-unprocessed.smi:2218-1

> <Gold.Version>
5.8.1

> <Gold.Id.Protein>
6NUR|6NUR_protein|mol2

> <Gold.PLP.Fitness>
45.8202

> <Gold.PLP.PLP>
-37.8947

> <Gold.PLP.part.hbond>
-3.3707

> <Gold.PLP.part.metal>
0.0000

> <Gold.PLP.part.buried>
-4.6193

> <Gold.PLP.part.nonpolar>
-30.4250

> <Gold.PLP.part.repulsive>
0.1948

> <Gold.PLP.ligand.clash>
0.0000

> <Gold.PLP.ligand.torsion>
0.8614

> <Gold.PLP.Chemscore.Hbond>
3.2028

> <Gold.PLP.Chemscore.CHOScore>
0.0000

> <Gold.PLP.Chemscore.Metal>
0.0000

> <Gold.Chemscore.Hbonds>
donor molecule, donor type, donor heavy atom, donor atom, acceptor molecule, acceptor atom, score
      L1  H     8    23       P1  8028  1.00
      P1  H  7997  8009       L1    15  2.00
      P1  H 10752 10764       L1    14  0.12

> <Gold.PLP.Chemscore.Internal.Correction>
0.0399

> <Gold.Rescore>
     Score         DG    S(hbond)    S(metal)    S(lipo)     H(rot)  DE(clash)    DE(int)     intcor
     12.22     -15.51       2.10        0.00      87.72       2.83       0.07       3.23       ----

> <Gold.Chemscore.Fitness>
12.2158

> <Gold.Chemscore.DG>
-15.5147

> <Gold.Chemscore.ZeroCoef>
-5.4800

> <Gold.Chemscore.Hbond>
2.1017

> <Gold.Chemscore.Metal>
0.0000

> <Gold.Chemscore.Lipo>
87.7201

> <Gold.Chemscore.Internal_Hbond>
0.0000

> <Gold.Chemscore.DEClash>
0.0694

> <Gold.Chemscore.DEInternal>
3.2295

> <Gold.Chemscore.Rot>
2.8313

> <Gold.Chemscore.Internal.Correction>
   9.000000E+99

> <Gold.Chemscore.Hbonds>
donor molecule, donor type, donor heavy atom, donor atom, acceptor molecule, acceptor atom, score
      L1  H     8    23       P1  8028  0.94
      P1  H  7997  8009       L1    15  0.90
      P1  H 10752 10764       L1    14  0.06

> <Gold.Chemscore.Hbond.Weighted>
-7.0197

> <Gold.Chemscore.Metal.Weighted>
-0.0000

> <Gold.Chemscore.Lipo.Weighted>
-10.2633

> <Gold.Chemscore.Internal_Hbond.Weighted>
0.0000

> <Gold.Chemscore.DEClash.Weighted>
0.0694

> <Gold.Chemscore.DEInternal.Weighted>
3.2295

> <Gold.Chemscore.Rot.Weighted>
7.2482

> <Gold.Chemscore.Internal.Correction.Weighted>
   9.000000E+99

> <Gold.Protein.RotatedTorsions>
[ 6907 6896 6895 6894 ] final -107.81 input  -60.11 | X-H torsion
[ 7974 7965 7964 7962 ] final  -91.55 input  175.53 | X-H torsion
[ 8008 7997 7996 7995 ] final -167.50 input   59.86 | X-H torsion
[ 10167 10162 10161 10158 ] final -160.91 input  -65.29 | X-H torsion
[ 10718 10713 10712 10709 ] final   81.68 input   66.30 | X-H torsion
[ 10763 10752 10751 10750 ] final  -93.43 input  -60.55 | X-H torsion
[ 11005 11000 10999 10996 ] final  128.27 input  -57.11 | X-H torsion

> <Gold.Protein.ActiveResidues>
 VAL166  LYS551  ARG553  GLY616  TRP617  ASP618  TYR619  PRO620  LYS621  CYS622 
 ASP623  PHE694  ASN695  SER759  ASP760  ASP761  ALA762  ILE779  LEU786  VAL792 
 PHE793  MET794  SER795  GLU796  ALA797  LYS798  CYS799  TRP800  GLU811  SER814 

> <Gold.Protein.RotatedAtoms>
  150.7465  133.9770  159.3563 H   0  0  0  0  0  0  0  0  0  0  0  0  # atno 6907 bound_to 6896
  151.7708  135.0784  160.0369 H   0  0  0  0  0  0  0  0  0  0  0  0  # atno 6908 bound_to 6896
  152.3340  133.5953  159.5865 H   0  0  0  0  0  0  0  0  0  0  0  0  # atno 6909 bound_to 6896
  145.4116  140.9545  143.2231 H   0  0  0  0  0  0  0  0  0  0  0  0  # atno 7974 bound_to 7965
  155.8786  140.1005  157.1501 H   0  0  0  0  0  0  0  0  0  0  0  0  # atno 8008 bound_to 7997
  154.4003  140.1333  156.4231 H   0  0  0  0  0  0  0  0  0  0  0  0  # atno 8009 bound_to 7997
  155.7669  140.3462  155.5229 H   0  0  0  0  0  0  0  0  0  0  0  0  # atno 8010 bound_to 7997
  139.6504  144.0094  152.2157 H   0  0  0  0  0  0  0  0  0  0  0  0  # atno 10167 bound_to 10162
  157.6839  131.0015  150.2263 H   0  0  0  0  0  0  0  0  0  0  0  0  # atno 10718 bound_to 10713
  154.6958  135.5195  153.8456 H   0  0  0  0  0  0  0  0  0  0  0  0  # atno 10763 bound_to 10752
  153.0666  135.6587  154.0350 H   0  0  0  0  0  0  0  0  0  0  0  0  # atno 10764 bound_to 10752
  154.0217  135.2993  155.3360 H   0  0  0  0  0  0  0  0  0  0  0  0  # atno 10765 bound_to 10752
  139.9552  134.9614  156.8977 H   0  0  0  0  0  0  0  0  0  0  0  0  # atno 11005 bound_to 11000
  144.8305  139.5636  143.6946 LP  0  0  0  0  0  0  0  0  0  0  0  0  # atno 17320 bound_to 7965
  146.2702  139.6616  142.9301 LP  0  0  0  0  0  0  0  0  0  0  0  0  # atno 17321 bound_to 7965
  139.9807  144.6430  150.7903 LP  0  0  0  0  0  0  0  0  0  0  0  0  # atno 17342 bound_to 10162
  140.7535  143.3009  151.3082 LP  0  0  0  0  0  0  0  0  0  0  0  0  # atno 17343 bound_to 10162
  156.2904  130.3745  149.7847 LP  0  0  0  0  0  0  0  0  0  0  0  0  # atno 17370 bound_to 10713
  156.5508  130.8341  151.3299 LP  0  0  0  0  0  0  0  0  0  0  0  0  # atno 17371 bound_to 10713
  140.5627  134.0520  155.7404 LP  0  0  0  0  0  0  0  0  0  0  0  0  # atno 17394 bound_to 11000
  141.1222  133.9443  157.2707 LP  0  0  0  0  0  0  0  0  0  0  0  0  # atno 17395 bound_to 11000

$$$$
