AV-unprocessed.smi:2727|AV-procd|sdf|10524|dock9
  -GOLD-   2272014563D 1   1.00000     0.00000
 Structure written by MMmdl.
 39 40  0  0  0  0  0  0  0  0  2 V2000
  149.7755  140.0219  154.0918 O   0  0  0  0  0  0  0  0  0  0  0  0
  149.2753  141.1373  154.2549 C   0  0  0  0  0  0  0  0  0  0  0  0
  149.7357  141.9378  155.2254 N   0  0  0  0  0  0  0  0  0  0  0  0
  150.8179  141.6067  156.1476 C   0  0  0  0  0  0  0  0  0  0  0  0
  150.4173  141.8723  157.6127 C   0  0  0  0  0  0  0  0  0  0  0  0
  151.5748  141.7534  158.6249 C   0  0  0  0  0  0  0  0  0  0  0  0
  151.7519  140.6796  159.2029 O   0  0  0  0  0  0  0  0  0  0  0  0
  152.3688  142.8281  158.8571 N   0  0  0  0  0  0  0  0  0  0  0  0
  153.4238  142.7928  159.8776 C   0  0  0  0  0  0  0  0  0  0  0  0
  152.8690  143.0662  161.2905 C   0  0  0  0  0  0  0  0  0  0  0  0
  151.7061  144.0803  161.3741 C   0  0  0  0  0  0  0  0  0  0  0  0
  151.8457  145.3214  160.4698 C   0  0  0  0  0  0  0  0  0  0  0  0
  151.3585  145.0939  159.0226 C   0  0  0  0  0  0  0  0  0  0  0  0
  152.2368  144.1344  158.1971 C   0  0  0  0  0  0  0  0  0  0  0  0
  148.2665  141.6780  153.5349 N   0  5  0  0  0  0  0  0  0  0  0  0
  147.1578  142.1096  154.1576 C   0  0  0  0  0  0  0  0  0  0  0  0
  146.9054  142.0362  155.4657 N   0  0  0  0  0  0  0  0  0  0  0  0
  145.6486  142.5943  155.6412 C   0  0  0  0  0  0  0  0  0  0  0  0
  145.1854  142.9801  154.4130 C   0  0  0  0  0  0  0  0  0  0  0  0
  146.1266  142.6760  153.4687 O   0  0  0  0  0  0  0  0  0  0  0  0
  149.2977  142.8408  155.3329 H   0  0  0  0  0  0  0  0  0  0  0  0
  151.1126  140.5647  156.0119 H   0  0  0  0  0  0  0  0  0  0  0  0
  151.6903  142.2121  155.8978 H   0  0  0  0  0  0  0  0  0  0  0  0
  150.0004  142.8762  157.6959 H   0  0  0  0  0  0  0  0  0  0  0  0
  149.6170  141.1786  157.8668 H   0  0  0  0  0  0  0  0  0  0  0  0
  153.9535  141.8387  159.8609 H   0  0  0  0  0  0  0  0  0  0  0  0
  154.1916  143.5345  159.6553 H   0  0  0  0  0  0  0  0  0  0  0  0
  152.5314  142.1269  161.7303 H   0  0  0  0  0  0  0  0  0  0  0  0
  153.6906  143.4058  161.9216 H   0  0  0  0  0  0  0  0  0  0  0  0
  150.7641  143.5776  161.1501 H   0  0  0  0  0  0  0  0  0  0  0  0
  151.6185  144.4047  162.4114 H   0  0  0  0  0  0  0  0  0  0  0  0
  151.2396  146.1202  160.8985 H   0  0  0  0  0  0  0  0  0  0  0  0
  152.8723  145.6896  160.4795 H   0  0  0  0  0  0  0  0  0  0  0  0
  150.3295  144.7341  159.0421 H   0  0  0  0  0  0  0  0  0  0  0  0
  151.3241  146.0555  158.5095 H   0  0  0  0  0  0  0  0  0  0  0  0
  153.2188  144.5844  158.0476 H   0  0  0  0  0  0  0  0  0  0  0  0
  151.8372  144.0335  157.1881 H   0  0  0  0  0  0  0  0  0  0  0  0
  145.1882  142.6700  156.6151 H   0  0  0  0  0  0  0  0  0  0  0  0
  144.2776  143.4481  154.0630 H   0  0  0  0  0  0  0  0  0  0  0  0
  1  2  2  0  0  0  0
  2  3  1  0  0  0  0
  2 15  1  0  0  0  0
  3  4  1  0  0  0  0
  3 21  1  0  0  0  0
  4  5  1  0  0  0  0
  4 22  1  0  0  0  0
  4 23  1  0  0  0  0
  5  6  1  0  0  0  0
  5 24  1  0  0  0  0
  5 25  1  0  0  0  0
  6  7  2  0  0  0  0
  6  8  1  0  0  0  0
  8 14  1  0  0  0  0
  8  9  1  0  0  0  0
  9 10  1  0  0  0  0
  9 26  1  0  0  0  0
  9 27  1  0  0  0  0
 10 11  1  0  0  0  0
 10 28  1  0  0  0  0
 10 29  1  0  0  0  0
 11 12  1  0  0  0  0
 11 30  1  0  0  0  0
 11 31  1  0  0  0  0
 12 13  1  0  0  0  0
 12 32  1  0  0  0  0
 12 33  1  0  0  0  0
 13 14  1  0  0  0  0
 13 34  1  0  0  0  0
 13 35  1  0  0  0  0
 14 36  1  0  0  0  0
 14 37  1  0  0  0  0
 15 16  1  0  0  0  0
 16 20  1  0  0  0  0
 16 17  2  0  0  0  0
 17 18  1  0  0  0  0
 18 19  2  0  0  0  0
 18 38  1  0  0  0  0
 19 20  1  0  0  0  0
 19 39  1  0  0  0  0
M  CHG  1  15  -1
M  END
> <s_m_source_file>
AV-unprocessed.smi

> <i_m_source_file_index>
2727

> <i_lp_mmshare_version>
43012

> <i_f3d_flags>
0

> <s_epik_input>
bzFbY0hdW2NIXW5jMVtOSF1DKD1PKVtOSF1bQ0gyXVtDSDJdQyg9TylOMltDSDJdW0NIMl1bQ0gyXVtDSDJdW0NIMl1bQ0gyXTI=

> <s_epik_cmdline>
J2VwaWtfcHl0aG9uJywgJy1waCcsICc3LjAnLCAnLXRuJywgJzgnLCAnLW1hJywgJzIwMCcsICctbWV0YWxfYmluZGluZycsICctaW1hZScsICc8aW5maWxlLm1hZT4nLCAnLW9tYWUnLCAnPG91dGZpbGUubWFlPic=

> <r_lp_tautomer_probability>
0.785861

> <r_epik_Ionization_Penalty>
9.14426

> <r_epik_Ionization_Penalty_Charging>
6.65642

> <r_epik_Ionization_Penalty_Neutral>
2.48784

> <r_epik_State_Penalty>
6.67734

> <r_epik_Charging_Adjusted_Penalty>
13.3338

> <i_epik_Tot_Q>
-1

> <i_epik_Tot_abs_Q>
1

> <r_epik_Metal_State_Penalty>
2.58025

> <b_epik_Metal_Only>
1

> <s_lp_Force_Field>
OPLS_2005

> <r_lp_Energy>
17.6318

> <b_lp_Chiralities_Consistent>
1

> <s_lp_Variant>
AV-unprocessed.smi:2727-4

> <Gold.Version>
5.8.1

> <Gold.Id.Protein>
6NUR|6NUR_protein|mol2

> <Gold.PLP.Fitness>
50.4306

> <Gold.PLP.PLP>
-46.3501

> <Gold.PLP.part.hbond>
-2.9343

> <Gold.PLP.part.metal>
0.0000

> <Gold.PLP.part.buried>
-3.2759

> <Gold.PLP.part.nonpolar>
-41.1873

> <Gold.PLP.part.repulsive>
1.8771

> <Gold.PLP.ligand.clash>
0.0000

> <Gold.PLP.ligand.torsion>
0.9439

> <Gold.PLP.Chemscore.Hbond>
1.4453

> <Gold.PLP.Chemscore.CHOScore>
0.5302

> <Gold.PLP.Chemscore.Metal>
0.0000

> <Gold.Chemscore.Hbonds>
donor molecule, donor type, donor heavy atom, donor atom, acceptor molecule, acceptor atom, score
      L1  H     3    21       P1  8028  1.00
      P1  H  7989  7998       L1     1  0.39
      P1  H  8011  8017       L1    15  0.13
      L1  C    19    39       P1 10174  0.55

> <Gold.PLP.Chemscore.Internal.Correction>
0.0416

> <Gold.Rescore>
     Score         DG    S(hbond)    S(metal)    S(lipo)     H(rot)  DE(clash)    DE(int)     intcor
     12.64     -14.98       1.00        0.00      89.42       1.67       0.00       2.33       ----

> <Gold.Chemscore.Fitness>
12.6424

> <Gold.Chemscore.DG>
-14.9802

> <Gold.Chemscore.ZeroCoef>
-5.4800

> <Gold.Chemscore.Hbond>
0.9954

> <Gold.Chemscore.Metal>
0.0000

> <Gold.Chemscore.Lipo>
89.4203

> <Gold.Chemscore.Internal_Hbond>
0.0000

> <Gold.Chemscore.DEClash>
0.0038

> <Gold.Chemscore.DEInternal>
2.3340

> <Gold.Chemscore.Rot>
1.6745

> <Gold.Chemscore.Internal.Correction>
   9.000000E+99

> <Gold.Chemscore.Hbonds>
donor molecule, donor type, donor heavy atom, donor atom, acceptor molecule, acceptor atom, score
      L1  H     3    21       P1  8028  0.99
      P1  H  7989  7998       L1     1  0.02

> <Gold.Chemscore.Hbond.Weighted>
-3.3247

> <Gold.Chemscore.Metal.Weighted>
-0.0000

> <Gold.Chemscore.Lipo.Weighted>
-10.4622

> <Gold.Chemscore.Internal_Hbond.Weighted>
0.0000

> <Gold.Chemscore.DEClash.Weighted>
0.0038

> <Gold.Chemscore.DEInternal.Weighted>
2.3340

> <Gold.Chemscore.Rot.Weighted>
4.2866

> <Gold.Chemscore.Internal.Correction.Weighted>
   9.000000E+99

> <Gold.Protein.RotatedTorsions>
[ 6907 6896 6895 6894 ] final -178.20 input  -60.11 | X-H torsion
[ 7974 7965 7964 7962 ] final  -54.96 input  175.53 | X-H torsion
[ 8008 7997 7996 7995 ] final   91.32 input   59.86 | X-H torsion
[ 10167 10162 10161 10158 ] final   43.73 input  -65.29 | X-H torsion
[ 10718 10713 10712 10709 ] final  -15.50 input   66.30 | X-H torsion
[ 10763 10752 10751 10750 ] final -141.39 input  -60.55 | X-H torsion
[ 11005 11000 10999 10996 ] final -121.78 input  -57.11 | X-H torsion

> <Gold.Protein.ActiveResidues>
 VAL166  LYS551  ARG553  GLY616  TRP617  ASP618  TYR619  PRO620  LYS621  CYS622 
 ASP623  PHE694  ASN695  SER759  ASP760  ASP761  ALA762  ILE779  LEU786  VAL792 
 PHE793  MET794  SER795  GLU796  ALA797  LYS798  CYS799  TRP800  GLU811  SER814 

> <Gold.Protein.RotatedAtoms>
  151.6334  133.3330  159.3113 H   0  0  0  0  0  0  0  0  0  0  0  0  # atno 6907 bound_to 6896
  150.8045  134.7165  159.6643 H   0  0  0  0  0  0  0  0  0  0  0  0  # atno 6908 bound_to 6896
  152.4139  134.6080  160.0069 H   0  0  0  0  0  0  0  0  0  0  0  0  # atno 6909 bound_to 6896
  145.8796  140.8154  142.9846 H   0  0  0  0  0  0  0  0  0  0  0  0  # atno 7974 bound_to 7965
  156.0223  140.3339  155.7052 H   0  0  0  0  0  0  0  0  0  0  0  0  # atno 8008 bound_to 7997
  155.6004  140.0655  157.2752 H   0  0  0  0  0  0  0  0  0  0  0  0  # atno 8009 bound_to 7997
  154.4321  140.1811  156.1155 H   0  0  0  0  0  0  0  0  0  0  0  0  # atno 8010 bound_to 7997
  140.3415  144.2465  150.6155 H   0  0  0  0  0  0  0  0  0  0  0  0  # atno 10167 bound_to 10162
  156.6009  130.4824  149.6240 H   0  0  0  0  0  0  0  0  0  0  0  0  # atno 10718 bound_to 10713
  154.8546  135.3525  154.5861 H   0  0  0  0  0  0  0  0  0  0  0  0  # atno 10763 bound_to 10752
  153.6471  135.6996  153.5226 H   0  0  0  0  0  0  0  0  0  0  0  0  # atno 10764 bound_to 10752
  153.2924  135.4231  155.1137 H   0  0  0  0  0  0  0  0  0  0  0  0  # atno 10765 bound_to 10752
  141.0045  134.0355  157.3495 H   0  0  0  0  0  0  0  0  0  0  0  0  # atno 11005 bound_to 11000
  144.6727  140.1364  143.7440 LP  0  0  0  0  0  0  0  0  0  0  0  0  # atno 17320 bound_to 7965
  145.9039  139.2447  143.1477 LP  0  0  0  0  0  0  0  0  0  0  0  0  # atno 17321 bound_to 7965
  140.5305  143.2244  151.8246 LP  0  0  0  0  0  0  0  0  0  0  0  0  # atno 17342 bound_to 10162
  139.4840  144.4726  151.9406 LP  0  0  0  0  0  0  0  0  0  0  0  0  # atno 17343 bound_to 10162
  156.2470  130.6885  151.1609 LP  0  0  0  0  0  0  0  0  0  0  0  0  # atno 17370 bound_to 10713
  157.7280  131.0635  150.5841 LP  0  0  0  0  0  0  0  0  0  0  0  0  # atno 17371 bound_to 10713
  139.9056  135.0178  156.7469 LP  0  0  0  0  0  0  0  0  0  0  0  0  # atno 17394 bound_to 11000
  140.6835  133.9453  155.7924 LP  0  0  0  0  0  0  0  0  0  0  0  0  # atno 17395 bound_to 11000

$$$$
