AV-unprocessed.smi:3314|AV-procd|sdf|12744|dock2
  -GOLD-   2272019 83D 1   1.00000     0.00000
 Structure written by MMmdl.
 37 38  0  0  0  0  0  0  0  0  3 V2000
  151.3273  144.4558  159.5267 C   0  0  0  0  0  0  0  0  0  0  0  0
  152.0302  143.1157  159.4816 C   0  0  0  0  0  0  0  0  0  0  0  0
  152.8112  142.6715  160.5654 C   0  0  0  0  0  0  0  0  0  0  0  0
  153.4346  141.4129  160.4612 C   0  0  0  0  0  0  0  0  0  0  0  0
  154.2894  140.8792  161.5911 C   0  0  0  0  0  0  0  0  0  0  0  0
  153.3217  140.6207  159.3729 N   0  0  0  0  0  0  0  0  0  0  0  0
  152.5788  141.0399  158.3209 C   0  0  0  0  0  0  0  0  0  0  0  0
  152.4683  140.2393  157.2514 N   0  5  0  0  0  0  0  0  0  0  0  0
  151.2504  140.0023  156.7062 C   0  0  0  0  0  0  0  0  0  0  0  0
  150.1379  140.1891  157.2035 O   0  0  0  0  0  0  0  0  0  0  0  0
  151.3714  139.4308  155.2752 C   0  0  1  0  0  0  0  0  0  0  0  0
  151.0343  137.9250  155.1595 C   0  0  0  0  0  0  0  0  0  0  0  0
  149.5854  137.6870  155.3625 N   0  3  2  0  0  0  0  0  0  0  0  0
  149.2314  136.2526  155.3327 C   0  0  0  0  0  0  0  0  0  0  0  0
  148.7810  138.4954  154.4187 C   0  0  0  0  0  0  0  0  0  0  0  0
  149.1432  139.9839  154.5467 C   0  0  0  0  0  0  0  0  0  0  0  0
  150.5467  140.1539  154.3524 O   0  0  0  0  0  0  0  0  0  0  0  0
  151.9116  142.2865  158.3484 C   0  0  0  0  0  0  0  0  0  0  0  0
  151.6303  145.0332  160.4005 H   0  0  0  0  0  0  0  0  0  0  0  0
  150.2475  144.3128  159.5678 H   0  0  0  0  0  0  0  0  0  0  0  0
  151.5641  145.0374  158.6355 H   0  0  0  0  0  0  0  0  0  0  0  0
  152.9289  143.2766  161.4523 H   0  0  0  0  0  0  0  0  0  0  0  0
  153.9247  141.2383  162.5540 H   0  0  0  0  0  0  0  0  0  0  0  0
  155.3209  141.2096  161.4695 H   0  0  0  0  0  0  0  0  0  0  0  0
  154.2775  139.7887  161.6109 H   0  0  0  0  0  0  0  0  0  0  0  0
  152.4075  139.5708  154.9638 H   0  0  0  0  0  0  0  0  0  0  0  0
  151.3253  137.5595  154.1735 H   0  0  0  0  0  0  0  0  0  0  0  0
  151.6107  137.3488  155.8851 H   0  0  0  0  0  0  0  0  0  0  0  0
  149.4476  135.8162  154.3566 H   0  0  0  0  0  0  0  0  0  0  0  0
  148.1703  136.1154  155.5423 H   0  0  0  0  0  0  0  0  0  0  0  0
  149.7939  135.7028  156.0879 H   0  0  0  0  0  0  0  0  0  0  0  0
  148.9608  138.1532  153.3983 H   0  0  0  0  0  0  0  0  0  0  0  0
  147.7190  138.3542  154.6225 H   0  0  0  0  0  0  0  0  0  0  0  0
  148.6147  140.5620  153.7887 H   0  0  0  0  0  0  0  0  0  0  0  0
  148.8263  140.3801  155.5123 H   0  0  0  0  0  0  0  0  0  0  0  0
  151.3161  142.6053  157.5048 H   0  0  0  0  0  0  0  0  0  0  0  0
  149.3694  138.0226  156.2912 H   0  0  0  0  0  0  0  0  0  0  0  0
  1  2  1  0  0  0  0
  1 19  1  0  0  0  0
  1 20  1  0  0  0  0
  1 21  1  0  0  0  0
  2 18  2  0  0  0  0
  2  3  1  0  0  0  0
  3  4  2  0  0  0  0
  3 22  1  0  0  0  0
  4  5  1  0  0  0  0
  4  6  1  0  0  0  0
  5 23  1  0  0  0  0
  5 24  1  0  0  0  0
  5 25  1  0  0  0  0
  6  7  2  0  0  0  0
  7  8  1  0  0  0  0
  7 18  1  0  0  0  0
  8  9  1  0  0  0  0
  9 10  2  0  0  0  0
  9 11  1  0  0  0  0
 11 17  1  0  0  0  0
 11 12  1  0  0  0  0
 11 26  1  0  0  0  0
 12 13  1  0  0  0  0
 12 27  1  0  0  0  0
 12 28  1  0  0  0  0
 13 14  1  0  0  0  0
 13 15  1  0  0  0  0
 13 37  1  0  0  0  0
 14 29  1  0  0  0  0
 14 30  1  0  0  0  0
 14 31  1  0  0  0  0
 15 16  1  0  0  0  0
 15 32  1  0  0  0  0
 15 33  1  0  0  0  0
 16 17  1  0  0  0  0
 16 34  1  0  0  0  0
 16 35  1  0  0  0  0
 18 36  1  0  0  0  0
M  CHG  1   8  -1
M  CHG  1  13   1
M  END
> <s_m_source_file>
AV-unprocessed.smi

> <i_m_source_file_index>
3314

> <i_lp_mmshare_version>
43012

> <i_f3d_flags>
0

> <s_epik_input>
W0NIM11jMVtjSF1jKFtDSDNdKW5jKFtjSF0xKVtOSF1DKD1PKVtDQEBIXTJbQ0gyXU4oW0NIM10pW0NIMl1bQ0gyXU8y

> <s_epik_cmdline>
J2VwaWtfcHl0aG9uJywgJy1waCcsICc3LjAnLCAnLXRuJywgJzgnLCAnLW1hJywgJzIwMCcsICctbWV0YWxfYmluZGluZycsICctaW1hZScsICc8aW5maWxlLm1hZT4nLCAnLW9tYWUnLCAnPG91dGZpbGUubWFlPic=

> <r_epik_Ionization_Penalty>
13.8964

> <r_epik_Ionization_Penalty_Charging>
7.88995

> <r_epik_Ionization_Penalty_Neutral>
6.00641

> <r_epik_State_Penalty>
8.39989

> <r_epik_Charging_Adjusted_Penalty>
16.2898

> <i_epik_Tot_Q>
0

> <i_epik_Tot_abs_Q>
2

> <r_epik_Metal_State_Penalty>
4.31145

> <b_epik_Metal_Only>
1

> <s_lp_Force_Field>
OPLS_2005

> <r_lp_Energy>
7.08315

> <b_lp_Chiralities_Consistent>
1

> <s_lp_Variant>
AV-unprocessed.smi:3314-14

> <Gold.Version>
5.8.1

> <Gold.Id.Protein>
6NUR|6NUR_protein|mol2

> <Gold.PLP.Fitness>
42.4522

> <Gold.PLP.PLP>
-34.8297

> <Gold.PLP.part.hbond>
-1.9411

> <Gold.PLP.part.metal>
0.0000

> <Gold.PLP.part.buried>
-5.0430

> <Gold.PLP.part.nonpolar>
-28.7269

> <Gold.PLP.part.repulsive>
0.1170

> <Gold.PLP.ligand.clash>
0.0000

> <Gold.PLP.ligand.torsion>
0.7142

> <Gold.PLP.Chemscore.Hbond>
3.0000

> <Gold.PLP.Chemscore.CHOScore>
0.0000

> <Gold.PLP.Chemscore.Metal>
0.0000

> <Gold.Chemscore.Hbonds>
donor molecule, donor type, donor heavy atom, donor atom, acceptor molecule, acceptor atom, score
      P1  H  7989  7998       L1    17  1.00
      P1  H  7997  8010       L1     8  1.98

> <Gold.PLP.Chemscore.Internal.Correction>
0.0509

> <Gold.Rescore>
     Score         DG    S(hbond)    S(metal)    S(lipo)     H(rot)  DE(clash)    DE(int)     intcor
     17.06     -19.32       1.56        0.00      95.57       1.00       0.17       2.08       ----

> <Gold.Chemscore.Fitness>
17.0627

> <Gold.Chemscore.DG>
-19.3178

> <Gold.Chemscore.ZeroCoef>
-5.4800

> <Gold.Chemscore.Hbond>
1.5617

> <Gold.Chemscore.Metal>
0.0000

> <Gold.Chemscore.Lipo>
95.5705

> <Gold.Chemscore.Internal_Hbond>
0.0000

> <Gold.Chemscore.DEClash>
0.1730

> <Gold.Chemscore.DEInternal>
2.0821

> <Gold.Chemscore.Rot>
1.0000

> <Gold.Chemscore.Internal.Correction>
   9.000000E+99

> <Gold.Chemscore.Hbonds>
donor molecule, donor type, donor heavy atom, donor atom, acceptor molecule, acceptor atom, score
      P1  H  7989  7998       L1    17  0.28
      P1  H  7997  8010       L1     8  0.40

> <Gold.Chemscore.Hbond.Weighted>
-5.2161

> <Gold.Chemscore.Metal.Weighted>
-0.0000

> <Gold.Chemscore.Lipo.Weighted>
-11.1817

> <Gold.Chemscore.Internal_Hbond.Weighted>
0.0000

> <Gold.Chemscore.DEClash.Weighted>
0.1730

> <Gold.Chemscore.DEInternal.Weighted>
2.0821

> <Gold.Chemscore.Rot.Weighted>
2.5600

> <Gold.Chemscore.Internal.Correction.Weighted>
   9.000000E+99

> <Gold.Protein.RotatedTorsions>
[ 6907 6896 6895 6894 ] final  -59.09 input  -60.11 | X-H torsion
[ 7974 7965 7964 7962 ] final  -62.18 input  175.53 | X-H torsion
[ 8008 7997 7996 7995 ] final   66.37 input   59.86 | X-H torsion
[ 10167 10162 10161 10158 ] final  124.54 input  -65.29 | X-H torsion
[ 10718 10713 10712 10709 ] final   61.13 input   66.30 | X-H torsion
[ 10763 10752 10751 10750 ] final  -95.49 input  -60.55 | X-H torsion
[ 11005 11000 10999 10996 ] final  122.53 input  -57.11 | X-H torsion

> <Gold.Protein.ActiveResidues>
 VAL166  LYS551  ARG553  GLY616  TRP617  ASP618  TYR619  PRO620  LYS621  CYS622 
 ASP623  PHE694  ASN695  SER759  ASP760  ASP761  ALA762  ILE779  LEU786  VAL792 
 PHE793  MET794  SER795  GLU796  ALA797  LYS798  CYS799  TRP800  GLU811  SER814 

> <Gold.Protein.RotatedAtoms>
  150.7956  134.7013  159.6551 H   0  0  0  0  0  0  0  0  0  0  0  0  # atno 6907 bound_to 6896
  152.4068  134.6190  160.0055 H   0  0  0  0  0  0  0  0  0  0  0  0  # atno 6908 bound_to 6896
  151.6445  133.3287  159.3174 H   0  0  0  0  0  0  0  0  0  0  0  0  # atno 6909 bound_to 6896
  145.7944  140.8691  143.0264 H   0  0  0  0  0  0  0  0  0  0  0  0  # atno 7974 bound_to 7965
  155.6762  140.3497  155.4837 H   0  0  0  0  0  0  0  0  0  0  0  0  # atno 8008 bound_to 7997
  155.9645  140.1144  157.0889 H   0  0  0  0  0  0  0  0  0  0  0  0  # atno 8009 bound_to 7997
  154.4151  140.1169  156.5210 H   0  0  0  0  0  0  0  0  0  0  0  0  # atno 8010 bound_to 7997
  139.5736  144.6952  151.3713 H   0  0  0  0  0  0  0  0  0  0  0  0  # atno 10167 bound_to 10162
  157.5805  130.8977  149.9423 H   0  0  0  0  0  0  0  0  0  0  0  0  # atno 10718 bound_to 10713
  154.7153  135.5118  153.8729 H   0  0  0  0  0  0  0  0  0  0  0  0  # atno 10763 bound_to 10752
  153.0815  135.6633  154.0044 H   0  0  0  0  0  0  0  0  0  0  0  0  # atno 10764 bound_to 10752
  153.9877  135.3023  155.3394 H   0  0  0  0  0  0  0  0  0  0  0  0  # atno 10765 bound_to 10752
  139.9272  134.9641  156.8124 H   0  0  0  0  0  0  0  0  0  0  0  0  # atno 11005 bound_to 11000
  144.6777  140.0169  143.7484 LP  0  0  0  0  0  0  0  0  0  0  0  0  # atno 17320 bound_to 7965
  145.9943  139.3040  143.0966 LP  0  0  0  0  0  0  0  0  0  0  0  0  # atno 17321 bound_to 7965
  140.7019  143.7609  150.7418 LP  0  0  0  0  0  0  0  0  0  0  0  0  # atno 17342 bound_to 10162
  140.1123  143.4688  152.2363 LP  0  0  0  0  0  0  0  0  0  0  0  0  # atno 17343 bound_to 10162
  156.0851  130.3669  150.0504 LP  0  0  0  0  0  0  0  0  0  0  0  0  # atno 17370 bound_to 10713
  156.8644  130.9502  151.3615 LP  0  0  0  0  0  0  0  0  0  0  0  0  # atno 17371 bound_to 10713
  140.6301  133.9913  155.7658 LP  0  0  0  0  0  0  0  0  0  0  0  0  # atno 17394 bound_to 11000
  141.0838  134.0021  157.3345 LP  0  0  0  0  0  0  0  0  0  0  0  0  # atno 17395 bound_to 11000

$$$$
