AV-unprocessed.smi:2567|AV-procd|sdf|10084|dock8
  -GOLD-   2272014113D 1   1.00000     0.00000
 Structure written by MMmdl.
 33 34  0  0  0  0  0  0  0  0  3 V2000
  150.5799  144.6368  160.0257 C   0  0  0  0  0  0  0  0  0  0  0  0
  151.6570  143.9138  159.1966 C   0  0  0  0  0  0  0  0  0  0  0  0
  152.5175  144.9808  158.4872 C   0  0  0  0  0  0  0  0  0  0  0  0
  152.5766  143.0781  160.1058 C   0  0  0  0  0  0  0  0  0  0  0  0
  150.9846  143.0029  158.1735 C   0  0  0  0  0  0  0  0  0  0  0  0
  149.6590  142.7862  158.0723 N   0  5  0  0  0  0  0  0  0  0  0  0
  149.4093  141.9493  157.0870 N   0  0  0  0  0  0  0  0  0  0  0  0
  150.6070  141.6516  156.5638 C   0  0  0  0  0  0  0  0  0  0  0  0
  150.8256  140.6838  155.4199 C   0  0  2  0  0  0  0  0  0  0  0  0
  149.4876  140.1009  154.9247 C   0  0  0  0  0  0  0  0  0  0  0  0
  149.7220  139.1500  153.8210 N   0  3  0  0  0  0  0  0  0  0  0  0
  150.6800  138.0961  154.2067 C   0  0  0  0  0  0  0  0  0  0  0  0
  151.9806  138.7316  154.7253 C   0  0  0  0  0  0  0  0  0  0  0  0
  151.6844  139.6112  155.8038 O   0  0  0  0  0  0  0  0  0  0  0  0
  151.5852  142.2806  157.2297 N   0  0  0  0  0  0  0  0  0  0  0  0
  151.0265  145.3057  160.7620 H   0  0  0  0  0  0  0  0  0  0  0  0
  149.9529  143.9272  160.5667 H   0  0  0  0  0  0  0  0  0  0  0  0
  149.9262  145.2339  159.3893 H   0  0  0  0  0  0  0  0  0  0  0  0
  151.9143  145.6049  157.8266 H   0  0  0  0  0  0  0  0  0  0  0  0
  153.3016  144.5235  157.8827 H   0  0  0  0  0  0  0  0  0  0  0  0
  153.0034  145.6418  159.2057 H   0  0  0  0  0  0  0  0  0  0  0  0
  153.0792  143.7026  160.8447 H   0  0  0  0  0  0  0  0  0  0  0  0
  153.3460  142.5654  159.5271 H   0  0  0  0  0  0  0  0  0  0  0  0
  152.0139  142.3181  160.6492 H   0  0  0  0  0  0  0  0  0  0  0  0
  151.3036  141.2409  154.6119 H   0  0  0  0  0  0  0  0  0  0  0  0
  148.9733  139.5866  155.7382 H   0  0  0  0  0  0  0  0  0  0  0  0
  148.8265  140.8956  154.5773 H   0  0  0  0  0  0  0  0  0  0  0  0
  148.8456  138.7275  153.5499 H   0  0  0  0  0  0  0  0  0  0  0  0
  150.2325  137.4698  154.9796 H   0  0  0  0  0  0  0  0  0  0  0  0
  150.8800  137.4554  153.3476 H   0  0  0  0  0  0  0  0  0  0  0  0
  152.6630  137.9578  155.0774 H   0  0  0  0  0  0  0  0  0  0  0  0
  152.4954  139.2731  153.9301 H   0  0  0  0  0  0  0  0  0  0  0  0
  150.1004  139.6592  153.0351 H   0  0  0  0  0  0  0  0  0  0  0  0
  1  2  1  0  0  0  0
  1 16  1  0  0  0  0
  1 17  1  0  0  0  0
  1 18  1  0  0  0  0
  2  3  1  0  0  0  0
  2  4  1  0  0  0  0
  2  5  1  0  0  0  0
  3 19  1  0  0  0  0
  3 20  1  0  0  0  0
  3 21  1  0  0  0  0
  4 22  1  0  0  0  0
  4 23  1  0  0  0  0
  4 24  1  0  0  0  0
  5 15  2  0  0  0  0
  5  6  1  0  0  0  0
  6  7  1  0  0  0  0
  7  8  2  0  0  0  0
  8  9  1  0  0  0  0
  8 15  1  0  0  0  0
  9 14  1  0  0  0  0
  9 10  1  0  0  0  0
  9 25  1  0  0  0  0
 10 11  1  0  0  0  0
 10 26  1  0  0  0  0
 10 27  1  0  0  0  0
 11 12  1  0  0  0  0
 11 28  1  0  0  0  0
 11 33  1  0  0  0  0
 12 13  1  0  0  0  0
 12 29  1  0  0  0  0
 12 30  1  0  0  0  0
 13 14  1  0  0  0  0
 13 31  1  0  0  0  0
 13 32  1  0  0  0  0
M  CHG  1   6  -1
M  CHG  1  11   1
M  END
> <s_m_source_file>
AV-unprocessed.smi

> <i_m_source_file_index>
2567

> <i_lp_mmshare_version>
43012

> <i_f3d_flags>
0

> <s_epik_input>
W0NIM11DKFtDSDNdKShbQ0gzXSljMW5bbkhdYyhuMSlbQ0BASF0yW0NIMl1bTkhdW0NIMl1bQ0gyXU8y

> <s_epik_cmdline>
J2VwaWtfcHl0aG9uJywgJy1waCcsICc3LjAnLCAnLXRuJywgJzgnLCAnLW1hJywgJzIwMCcsICctbWV0YWxfYmluZGluZycsICctaW1hZScsICc8aW5maWxlLm1hZT4nLCAnLW9tYWUnLCAnPG91dGZpbGUubWFlPic=

> <r_lp_tautomer_probability>
0.948284

> <r_epik_Ionization_Penalty>
5.01189

> <r_epik_Ionization_Penalty_Charging>
5.01189

> <r_epik_Ionization_Penalty_Neutral>
8.99859e-14

> <r_epik_State_Penalty>
2.75157

> <r_epik_Charging_Adjusted_Penalty>
7.76346

> <i_epik_Tot_Q>
0

> <i_epik_Tot_abs_Q>
2

> <r_epik_Metal_State_Penalty>
0.54282

> <b_epik_Metal_Only>
1

> <s_lp_Force_Field>
OPLS_2005

> <r_lp_Energy>
6.85935

> <b_lp_Chiralities_Consistent>
1

> <s_lp_Variant>
AV-unprocessed.smi:2567-9

> <Gold.Version>
5.8.1

> <Gold.Id.Protein>
6NUR|6NUR_protein|mol2

> <Gold.PLP.Fitness>
33.9303

> <Gold.PLP.PLP>
-31.6156

> <Gold.PLP.part.hbond>
-1.0000

> <Gold.PLP.part.metal>
0.0000

> <Gold.PLP.part.buried>
-2.5239

> <Gold.PLP.part.nonpolar>
-28.2499

> <Gold.PLP.part.repulsive>
0.4523

> <Gold.PLP.ligand.clash>
0.0000

> <Gold.PLP.ligand.torsion>
0.0506

> <Gold.PLP.Chemscore.Hbond>
0.8000

> <Gold.PLP.Chemscore.CHOScore>
0.0000

> <Gold.PLP.Chemscore.Metal>
0.0000

> <Gold.Chemscore.Hbonds>
donor molecule, donor type, donor heavy atom, donor atom, acceptor molecule, acceptor atom, score
      L1  H    11    33       P1  7957  0.77

> <Gold.PLP.Chemscore.Internal.Correction>
0.0159

> <Gold.Rescore>
     Score         DG    S(hbond)    S(metal)    S(lipo)     H(rot)  DE(clash)    DE(int)     intcor
     13.28     -14.36       0.90        0.00      77.53       1.25       1.03       0.05       ----

> <Gold.Chemscore.Fitness>
13.2780

> <Gold.Chemscore.DG>
-14.3557

> <Gold.Chemscore.ZeroCoef>
-5.4800

> <Gold.Chemscore.Hbond>
0.8985

> <Gold.Chemscore.Metal>
0.0000

> <Gold.Chemscore.Lipo>
77.5311

> <Gold.Chemscore.Internal_Hbond>
0.0000

> <Gold.Chemscore.DEClash>
1.0279

> <Gold.Chemscore.DEInternal>
0.0498

> <Gold.Chemscore.Rot>
1.2486

> <Gold.Chemscore.Internal.Correction>
   9.000000E+99

> <Gold.Chemscore.Hbonds>
donor molecule, donor type, donor heavy atom, donor atom, acceptor molecule, acceptor atom, score
      L1  H    11    33       P1  7957  0.74

> <Gold.Chemscore.Hbond.Weighted>
-3.0010

> <Gold.Chemscore.Metal.Weighted>
-0.0000

> <Gold.Chemscore.Lipo.Weighted>
-9.0711

> <Gold.Chemscore.Internal_Hbond.Weighted>
0.0000

> <Gold.Chemscore.DEClash.Weighted>
1.0279

> <Gold.Chemscore.DEInternal.Weighted>
0.0498

> <Gold.Chemscore.Rot.Weighted>
3.1964

> <Gold.Chemscore.Internal.Correction.Weighted>
   9.000000E+99

> <Gold.Protein.RotatedTorsions>
[ 6907 6896 6895 6894 ] final -147.80 input  -60.11 | X-H torsion
[ 7974 7965 7964 7962 ] final -114.16 input  175.53 | X-H torsion
[ 8008 7997 7996 7995 ] final -171.71 input   59.86 | X-H torsion
[ 10167 10162 10161 10158 ] final   96.59 input  -65.29 | X-H torsion
[ 10718 10713 10712 10709 ] final   54.95 input   66.30 | X-H torsion
[ 10763 10752 10751 10750 ] final  -48.05 input  -60.55 | X-H torsion
[ 11005 11000 10999 10996 ] final  156.22 input  -57.11 | X-H torsion

> <Gold.Protein.ActiveResidues>
 VAL166  LYS551  ARG553  GLY616  TRP617  ASP618  TYR619  PRO620  LYS621  CYS622 
 ASP623  PHE694  ASN695  SER759  ASP760  ASP761  ALA762  ILE779  LEU786  VAL792 
 PHE793  MET794  SER795  GLU796  ALA797  LYS798  CYS799  TRP800  GLU811  SER814 

> <Gold.Protein.RotatedAtoms>
  151.1608  133.4846  159.2594 H   0  0  0  0  0  0  0  0  0  0  0  0  # atno 6907 bound_to 6896
  151.1456  135.0201  159.8655 H   0  0  0  0  0  0  0  0  0  0  0  0  # atno 6908 bound_to 6896
  152.5463  134.1498  159.8566 H   0  0  0  0  0  0  0  0  0  0  0  0  # atno 6909 bound_to 6896
  145.1234  140.8683  143.3800 H   0  0  0  0  0  0  0  0  0  0  0  0  # atno 7974 bound_to 7965
  155.9351  140.1098  157.1101 H   0  0  0  0  0  0  0  0  0  0  0  0  # atno 8008 bound_to 7997
  154.4078  140.1230  156.4919 H   0  0  0  0  0  0  0  0  0  0  0  0  # atno 8009 bound_to 7997
  155.7032  140.3471  155.4944 H   0  0  0  0  0  0  0  0  0  0  0  0  # atno 8010 bound_to 7997
  139.7880  144.6863  150.9931 H   0  0  0  0  0  0  0  0  0  0  0  0  # atno 10167 bound_to 10162
  157.5302  130.8625  149.8677 H   0  0  0  0  0  0  0  0  0  0  0  0  # atno 10718 bound_to 10713
  154.0714  135.6604  153.4825 H   0  0  0  0  0  0  0  0  0  0  0  0  # atno 10763 bound_to 10752
  153.0389  135.5158  154.7563 H   0  0  0  0  0  0  0  0  0  0  0  0  # atno 10764 bound_to 10752
  154.6630  135.3018  154.9809 H   0  0  0  0  0  0  0  0  0  0  0  0  # atno 10765 bound_to 10752
  140.1654  134.8580  157.2626 H   0  0  0  0  0  0  0  0  0  0  0  0  # atno 11005 bound_to 11000
  145.0715  139.3028  143.5830 LP  0  0  0  0  0  0  0  0  0  0  0  0  # atno 17320 bound_to 7965
  146.3519  140.0191  142.8660 LP  0  0  0  0  0  0  0  0  0  0  0  0  # atno 17321 bound_to 7965
  140.7820  143.4411  151.0550 LP  0  0  0  0  0  0  0  0  0  0  0  0  # atno 17342 bound_to 10162
  139.8089  143.7979  152.3169 LP  0  0  0  0  0  0  0  0  0  0  0  0  # atno 17343 bound_to 10162
  156.0417  130.3737  150.1420 LP  0  0  0  0  0  0  0  0  0  0  0  0  # atno 17370 bound_to 10713
  156.9605  130.9803  151.3480 LP  0  0  0  0  0  0  0  0  0  0  0  0  # atno 17371 bound_to 10713
  140.2439  134.3762  155.7469 LP  0  0  0  0  0  0  0  0  0  0  0  0  # atno 17394 bound_to 11000
  141.2213  133.7280  156.8832 LP  0  0  0  0  0  0  0  0  0  0  0  0  # atno 17395 bound_to 11000

$$$$
