AV-unprocessed.smi:72|AV-procd|sdf|718|dock9
  -GOLD-   2262017 43D 1   1.00000     0.00000
 Structure written by MMmdl.
 28 29  0  0  0  0  0  0  0  0  2 V2000
  151.2918  134.3898  156.9090 N   0  0  0  0  0  0  0  0  0  0  0  0
  151.2407  135.5848  156.5109 C   0  0  0  0  0  0  0  0  0  0  0  0
  149.9971  136.1326  156.0139 N   0  0  0  0  0  0  0  0  0  0  0  0
  149.9999  137.3635  155.6028 C   0  0  0  0  0  0  0  0  0  0  0  0
  151.2092  138.1756  155.6214 N   0  0  0  0  0  0  0  0  0  0  0  0
  151.1989  139.6145  155.1453 C   0  0  1  0  0  0  0  0  0  0  0  0
  150.0198  139.8605  154.4463 O   0  0  0  0  0  0  0  0  0  0  0  0
  149.7266  141.2449  154.5445 C   0  0  1  0  0  0  0  0  0  0  0  0
  148.2479  141.4948  154.2107 C   0  0  0  0  0  0  0  0  0  0  0  0
  147.9992  142.8806  154.1077 O   0  0  0  0  0  0  0  0  0  0  0  0
  150.0869  141.5612  156.0015 C   0  0  2  0  0  0  0  0  0  0  0  0
  150.4552  142.9207  156.1271 O   0  0  0  0  0  0  0  0  0  0  0  0
  151.2777  140.6488  156.2911 C   0  0  1  0  0  0  0  0  0  0  0  0
  151.1711  140.0925  157.5896 O   0  0  0  0  0  0  0  0  0  0  0  0
  152.4083  137.6221  156.1417 C   0  0  0  0  0  0  0  0  0  0  0  0
  153.4060  138.3416  156.1921 O   0  0  0  0  0  0  0  0  0  0  0  0
  152.3979  136.3296  156.5729 N   0  5  0  0  0  0  0  0  0  0  0  0
  152.0207  139.7117  154.4337 H   0  0  0  0  0  0  0  0  0  0  0  0
  150.3847  141.7961  153.8687 H   0  0  0  0  0  0  0  0  0  0  0  0
  149.2461  141.3286  156.6575 H   0  0  0  0  0  0  0  0  0  0  0  0
  152.2305  141.1727  156.2001 H   0  0  0  0  0  0  0  0  0  0  0  0
  150.4018  133.9197  156.8282 H   0  0  0  0  0  0  0  0  0  0  0  0
  149.1069  137.8646  155.2277 H   0  0  0  0  0  0  0  0  0  0  0  0
  147.9574  140.9850  153.2914 H   0  0  0  0  0  0  0  0  0  0  0  0
  147.6132  141.1092  155.0091 H   0  0  0  0  0  0  0  0  0  0  0  0
  148.5870  143.3355  154.6912 H   0  0  0  0  0  0  0  0  0  0  0  0
  149.7929  143.4493  155.7089 H   0  0  0  0  0  0  0  0  0  0  0  0
  151.1866  139.1502  157.5117 H   0  0  0  0  0  0  0  0  0  0  0  0
  1  2  2  0  0  0  0
  1 22  1  0  0  0  0
  2 17  1  0  0  0  0
  2  3  1  0  0  0  0
  3  4  2  0  0  0  0
  4  5  1  0  0  0  0
  4 23  1  0  0  0  0
  5  6  1  0  0  0  0
  5 15  1  0  0  0  0
  6 18  1  0  0  0  0
  6 13  1  0  0  0  0
  6  7  1  0  0  0  0
  7  8  1  0  0  0  0
  8 19  1  0  0  0  0
  8  9  1  0  0  0  0
  8 11  1  0  0  0  0
  9 10  1  0  0  0  0
  9 24  1  0  0  0  0
  9 25  1  0  0  0  0
 10 26  1  0  0  0  0
 11 20  1  0  0  0  0
 11 12  1  0  0  0  0
 11 13  1  0  0  0  0
 12 27  1  0  0  0  0
 13 21  1  0  0  0  0
 13 14  1  0  0  0  0
 14 28  1  0  0  0  0
 15 16  2  0  0  0  0
 15 17  1  0  0  0  0
M  CHG  1  17  -1
M  END
> <s_m_source_file>
AV-unprocessed.smi

> <i_m_source_file_index>
72

> <i_lp_mmshare_version>
43012

> <i_f3d_flags>
0

> <s_epik_input>
W05IMl1jMW5bY0hdbihjKD1PKW4xKVtDQEBIXTJPW0NASF0oW0NIMl1bT0hdKVtDQEBIXShbT0hdKVtDQEhdMltPSF0=

> <s_epik_cmdline>
J2VwaWtfcHl0aG9uJywgJy1waCcsICc3LjAnLCAnLXRuJywgJzgnLCAnLW1hJywgJzIwMCcsICctbWV0YWxfYmluZGluZycsICctaW1hZScsICc8aW5maWxlLm1hZT4nLCAnLW9tYWUnLCAnPG91dGZpbGUubWFlPic=

> <r_lp_tautomer_probability>
7.17554e-07

> <r_epik_Ionization_Penalty>
12.8705

> <r_epik_Ionization_Penalty_Charging>
5.64144

> <r_epik_Ionization_Penalty_Neutral>
7.22905

> <r_epik_State_Penalty>
3.30104

> <r_epik_Charging_Adjusted_Penalty>
8.94249

> <i_epik_Tot_Q>
-1

> <i_epik_Tot_abs_Q>
1

> <r_epik_Metal_State_Penalty>
0.529074

> <b_epik_Metal_Only>
1

> <s_epik_Chemistry_Notes>
This compound contains an acetal/aminal-like group ( X-CH(R)-Y where X, Y are N, S, or O) that may be acid/base labile, releasing an aldehyde.

> <s_lp_Force_Field>
OPLS_2005

> <r_lp_Energy>
37.5202

> <b_lp_Chiralities_Consistent>
1

> <s_lp_Variant>
AV-unprocessed.smi:72-56

> <Gold.Version>
5.8.1

> <Gold.Id.Protein>
6NUR|6NUR_protein|mol2

> <Gold.PLP.Fitness>
39.1279

> <Gold.PLP.PLP>
-25.3785

> <Gold.PLP.part.hbond>
-7.3412

> <Gold.PLP.part.metal>
0.0000

> <Gold.PLP.part.buried>
0.0295

> <Gold.PLP.part.nonpolar>
-17.1058

> <Gold.PLP.part.repulsive>
0.1747

> <Gold.PLP.ligand.clash>
0.0000

> <Gold.PLP.ligand.torsion>
0.3554

> <Gold.PLP.Chemscore.Hbond>
4.7760

> <Gold.PLP.Chemscore.CHOScore>
0.0000

> <Gold.PLP.Chemscore.Metal>
0.0000

> <Gold.Chemscore.Hbonds>
donor molecule, donor type, donor heavy atom, donor atom, acceptor molecule, acceptor atom, score
      L1  H    10    26       P1  8028  0.93
      L1  H    12    27       P1  8028  1.00
      P1  H  7997  8009       L1    16  0.82
      P1  H 10752 10763       L1    17  2.00

> <Gold.PLP.Chemscore.Internal.Correction>
0.1322

> <Gold.Rescore>
     Score         DG    S(hbond)    S(metal)    S(lipo)     H(rot)  DE(clash)    DE(int)     intcor
      7.00      -7.41       2.70        0.00      27.83       4.04       0.07       0.34       ----

> <Gold.Chemscore.Fitness>
6.9967

> <Gold.Chemscore.DG>
-7.4083

> <Gold.Chemscore.ZeroCoef>
-5.4800

> <Gold.Chemscore.Hbond>
2.6992

> <Gold.Chemscore.Metal>
0.0000

> <Gold.Chemscore.Lipo>
27.8296

> <Gold.Chemscore.Internal_Hbond>
0.0000

> <Gold.Chemscore.DEClash>
0.0727

> <Gold.Chemscore.DEInternal>
0.3389

> <Gold.Chemscore.Rot>
4.0403

> <Gold.Chemscore.Internal.Correction>
   9.000000E+99

> <Gold.Chemscore.Hbonds>
donor molecule, donor type, donor heavy atom, donor atom, acceptor molecule, acceptor atom, score
      L1  H    10    26       P1  8028  0.90
      L1  H    12    27       P1  8028  0.92
      P1  H  7997  8009       L1    16  0.79
      P1  H 10752 10763       L1    17  0.14

> <Gold.Chemscore.Hbond.Weighted>
-9.0153

> <Gold.Chemscore.Metal.Weighted>
-0.0000

> <Gold.Chemscore.Lipo.Weighted>
-3.2561

> <Gold.Chemscore.Internal_Hbond.Weighted>
0.0000

> <Gold.Chemscore.DEClash.Weighted>
0.0727

> <Gold.Chemscore.DEInternal.Weighted>
0.3389

> <Gold.Chemscore.Rot.Weighted>
10.3431

> <Gold.Chemscore.Internal.Correction.Weighted>
   9.000000E+99

> <Gold.Protein.RotatedTorsions>
[ 6907 6896 6895 6894 ] final  162.03 input  -60.11 | X-H torsion
[ 7974 7965 7964 7962 ] final   57.04 input  175.53 | X-H torsion
[ 8008 7997 7996 7995 ] final -170.38 input   59.86 | X-H torsion
[ 10167 10162 10161 10158 ] final   38.83 input  -65.29 | X-H torsion
[ 10718 10713 10712 10709 ] final -165.68 input   66.30 | X-H torsion
[ 10763 10752 10751 10750 ] final  118.01 input  -60.55 | X-H torsion
[ 11005 11000 10999 10996 ] final  166.18 input  -57.11 | X-H torsion

> <Gold.Protein.ActiveResidues>
 VAL166  LYS551  ARG553  GLY616  TRP617  ASP618  TYR619  PRO620  LYS621  CYS622 
 ASP623  PHE694  ASN695  SER759  ASP760  ASP761  ALA762  ILE779  LEU786  VAL792 
 PHE793  MET794  SER795  GLU796  ALA797  LYS798  CYS799  TRP800  GLU811  SER814 

> <Gold.Protein.RotatedAtoms>
  151.9466  133.3653  159.3984 H   0  0  0  0  0  0  0  0  0  0  0  0  # atno 6907 bound_to 6896
  150.6988  134.4384  159.5290 H   0  0  0  0  0  0  0  0  0  0  0  0  # atno 6908 bound_to 6896
  152.2050  134.8554  160.0554 H   0  0  0  0  0  0  0  0  0  0  0  0  # atno 6909 bound_to 6896
  145.9333  139.3826  143.0408 H   0  0  0  0  0  0  0  0  0  0  0  0  # atno 7974 bound_to 7965
  155.9175  140.1068  157.1232 H   0  0  0  0  0  0  0  0  0  0  0  0  # atno 8008 bound_to 7997
  154.4049  140.1262  156.4702 H   0  0  0  0  0  0  0  0  0  0  0  0  # atno 8009 bound_to 7997
  155.7236  140.3469  155.5029 H   0  0  0  0  0  0  0  0  0  0  0  0  # atno 8010 bound_to 7997
  140.3899  144.1867  150.6131 H   0  0  0  0  0  0  0  0  0  0  0  0  # atno 10167 bound_to 10162
  156.6570  130.9030  151.3023 H   0  0  0  0  0  0  0  0  0  0  0  0  # atno 10718 bound_to 10713
  153.5610  135.3521  155.2799 H   0  0  0  0  0  0  0  0  0  0  0  0  # atno 10763 bound_to 10752
  154.8695  135.4136  154.2830 H   0  0  0  0  0  0  0  0  0  0  0  0  # atno 10764 bound_to 10752
  153.3576  135.7058  153.6807 H   0  0  0  0  0  0  0  0  0  0  0  0  # atno 10765 bound_to 10752
  140.2637  134.7881  157.3613 H   0  0  0  0  0  0  0  0  0  0  0  0  # atno 11005 bound_to 11000
  145.8397  140.9587  143.0806 LP  0  0  0  0  0  0  0  0  0  0  0  0  # atno 17320 bound_to 7965
  144.6768  140.0268  143.7483 LP  0  0  0  0  0  0  0  0  0  0  0  0  # atno 17321 bound_to 7965
  140.4851  143.2366  151.8900 LP  0  0  0  0  0  0  0  0  0  0  0  0  # atno 17342 bound_to 10162
  139.4789  144.5227  151.8778 LP  0  0  0  0  0  0  0  0  0  0  0  0  # atno 17343 bound_to 10162
  157.7122  130.9454  150.1130 LP  0  0  0  0  0  0  0  0  0  0  0  0  # atno 17370 bound_to 10713
  156.2040  130.3662  149.8752 LP  0  0  0  0  0  0  0  0  0  0  0  0  # atno 17371 bound_to 10713
  140.1439  134.4936  155.8010 LP  0  0  0  0  0  0  0  0  0  0  0  0  # atno 17394 bound_to 11000
  141.2187  133.6836  156.7260 LP  0  0  0  0  0  0  0  0  0  0  0  0  # atno 17395 bound_to 11000

$$$$
