AV-unprocessed.smi:221|AV-procd|sdf|1697|dock8
  -GOLD-   2262020153D 1   1.00000     0.00000
 Structure written by MMmdl.
 50 53  0  0  0  0  0  0  0  0  1 V2000
  142.1105  134.2851  154.4645 N   0  0  0  0  0  0  0  0  0  0  0  0
  142.8705  135.2417  153.9208 C   0  0  0  0  0  0  0  0  0  0  0  0
  142.6344  136.4333  154.1073 O   0  0  0  0  0  0  0  0  0  0  0  0
  144.0650  134.8306  153.0372 C   0  0  1  0  0  0  0  0  0  0  0  0
  143.5822  134.1666  151.7371 C   0  0  0  0  0  0  0  0  0  0  0  0
  144.7245  134.4087  150.7565 C   0  0  2  0  0  0  0  0  0  0  0  0
  145.6803  133.4989  150.9527 F   0  0  0  0  0  0  0  0  0  0  0  0
  145.2447  135.7879  151.1594 C   0  0  0  0  0  0  0  0  0  0  0  0
  144.9039  135.9436  152.5699 N   0  0  0  0  0  0  0  0  0  0  0  0
  145.7806  136.5887  153.3869 C   0  0  0  0  0  0  0  0  0  0  0  0
  146.0851  136.0542  154.5994 N   0  0  0  0  0  0  0  0  0  0  0  0
  146.9400  136.6718  155.4194 C   0  0  0  0  0  0  0  0  0  0  0  0
  147.5905  137.8213  155.2340 N   0  0  0  0  0  0  0  0  0  0  0  0
  147.2825  138.3715  154.0254 C   0  0  0  0  0  0  0  0  0  0  0  0
  146.3984  137.8283  153.0498 C   0  0  0  0  0  0  0  0  0  0  0  0
  146.3316  138.6807  151.9526 N   0  0  0  0  0  0  0  0  0  0  0  0
  147.1364  139.6615  152.2569 C   0  0  0  0  0  0  0  0  0  0  0  0
  147.7416  139.5608  153.4886 N   0  0  0  0  0  0  0  0  0  0  0  0
  148.6697  140.5053  154.0851 C   0  0  0  0  0  0  0  0  0  0  0  0
  148.9096  140.2406  155.5942 C   0  0  2  0  0  0  0  0  0  0  0  0
  148.7642  141.5369  156.4250 C   0  0  0  0  0  0  0  0  0  0  0  0
  147.5799  142.2304  156.0914 O   0  0  0  0  0  0  0  0  0  0  0  0
  150.2520  139.5145  155.8847 C   0  0  1  0  0  0  0  0  0  0  0  0
  150.6461  138.4231  154.8890 C   0  0  0  0  0  0  0  0  0  0  0  0
  152.1457  138.6395  154.6692 C   0  0  0  0  0  0  0  0  0  0  0  0
  152.5538  139.4701  155.7454 O   0  0  0  0  0  0  0  0  0  0  0  0
  151.5034  140.3947  155.9682 C   0  0  0  0  0  0  0  0  0  0  0  0
  144.6828  134.1164  153.5845 H   0  0  0  0  0  0  0  0  0  0  0  0
  144.4219  134.3487  149.7109 H   0  0  0  0  0  0  0  0  0  0  0  0
  141.3223  134.5384  155.0422 H   0  0  0  0  0  0  0  0  0  0  0  0
  142.3255  133.3140  154.2918 H   0  0  0  0  0  0  0  0  0  0  0  0
  143.3552  133.1075  151.8638 H   0  0  0  0  0  0  0  0  0  0  0  0
  142.6806  134.6557  151.3630 H   0  0  0  0  0  0  0  0  0  0  0  0
  146.3144  135.8760  150.9622 H   0  0  0  0  0  0  0  0  0  0  0  0
  144.7320  136.5673  150.5948 H   0  0  0  0  0  0  0  0  0  0  0  0
  147.1278  136.1740  156.3592 H   0  0  0  0  0  0  0  0  0  0  0  0
  147.3030  140.4960  151.5913 H   0  0  0  0  0  0  0  0  0  0  0  0
  149.5989  140.4508  153.5192 H   0  0  0  0  0  0  0  0  0  0  0  0
  148.2744  141.5091  153.9292 H   0  0  0  0  0  0  0  0  0  0  0  0
  148.1195  139.5652  155.9262 H   0  0  0  0  0  0  0  0  0  0  0  0
  148.7673  141.3177  157.4929 H   0  0  0  0  0  0  0  0  0  0  0  0
  149.5937  142.2179  156.2379 H   0  0  0  0  0  0  0  0  0  0  0  0
  147.7659  143.1568  156.0794 H   0  0  0  0  0  0  0  0  0  0  0  0
  150.1655  139.0103  156.8481 H   0  0  0  0  0  0  0  0  0  0  0  0
  150.4552  137.4391  155.3185 H   0  0  0  0  0  0  0  0  0  0  0  0
  150.1035  138.4708  153.9457 H   0  0  0  0  0  0  0  0  0  0  0  0
  152.7072  137.7053  154.6515 H   0  0  0  0  0  0  0  0  0  0  0  0
  152.3231  139.1616  153.7279 H   0  0  0  0  0  0  0  0  0  0  0  0
  151.5360  141.1540  155.1872 H   0  0  0  0  0  0  0  0  0  0  0  0
  151.6058  140.8907  156.9337 H   0  0  0  0  0  0  0  0  0  0  0  0
  1  2  1  0  0  0  0
  1 30  1  0  0  0  0
  1 31  1  0  0  0  0
  2  3  2  0  0  0  0
  2  4  1  0  0  0  0
  4 28  1  0  0  0  0
  4  9  1  0  0  0  0
  4  5  1  0  0  0  0
  5  6  1  0  0  0  0
  5 32  1  0  0  0  0
  5 33  1  0  0  0  0
  6 29  1  0  0  0  0
  6  7  1  0  0  0  0
  6  8  1  0  0  0  0
  8  9  1  0  0  0  0
  8 34  1  0  0  0  0
  8 35  1  0  0  0  0
  9 10  1  0  0  0  0
 10 15  1  0  0  0  0
 10 11  2  0  0  0  0
 11 12  1  0  0  0  0
 12 13  2  0  0  0  0
 12 36  1  0  0  0  0
 13 14  1  0  0  0  0
 14 18  1  0  0  0  0
 14 15  2  0  0  0  0
 15 16  1  0  0  0  0
 16 17  2  0  0  0  0
 17 18  1  0  0  0  0
 17 37  1  0  0  0  0
 18 19  1  0  0  0  0
 19 20  1  0  0  0  0
 19 38  1  0  0  0  0
 19 39  1  0  0  0  0
 20 21  1  0  0  0  0
 20 23  1  0  0  0  0
 20 40  1  0  0  0  0
 21 22  1  0  0  0  0
 21 41  1  0  0  0  0
 21 42  1  0  0  0  0
 22 43  1  0  0  0  0
 23 27  1  0  0  0  0
 23 24  1  0  0  0  0
 23 44  1  0  0  0  0
 24 25  1  0  0  0  0
 24 45  1  0  0  0  0
 24 46  1  0  0  0  0
 25 26  1  0  0  0  0
 25 47  1  0  0  0  0
 25 48  1  0  0  0  0
 26 27  1  0  0  0  0
 27 49  1  0  0  0  0
 27 50  1  0  0  0  0
M  END
> <s_m_source_file>
AV-unprocessed.smi

> <i_m_source_file_index>
221

> <i_lp_mmshare_version>
43012

> <i_f3d_flags>
0

> <s_epik_input>
W05IMl1DKD1PKVtDQEBIXTFbQ0gyXVtDQEBIXShGKVtDSDJdTjFjKG5bY0hdbjIpYyhjMjMpbltjSF1uM1tDSDJdW0NASF0oW0NIMl1bT0hdKVtDQEBIXTRbQ0gyXVtDSDJdT1tDSDJdNA==

> <s_epik_cmdline>
J2VwaWtfcHl0aG9uJywgJy1waCcsICc3LjAnLCAnLXRuJywgJzgnLCAnLW1hJywgJzIwMCcsICctbWV0YWxfYmluZGluZycsICctaW1hZScsICc8aW5maWxlLm1hZT4nLCAnLW9tYWUnLCAnPG91dGZpbGUubWFlPic=

> <r_lp_tautomer_probability>
1

> <r_epik_Ionization_Penalty>
0.000818822

> <r_epik_Ionization_Penalty_Charging>
0

> <r_epik_Ionization_Penalty_Neutral>
0.000818822

> <r_epik_State_Penalty>
0.000440551

> <r_epik_Charging_Adjusted_Penalty>
0.000440551

> <i_epik_Tot_Q>
0

> <i_epik_Tot_abs_Q>
0

> <r_epik_Metal_State_Penalty>
-0

> <b_epik_Metal_Only>
0

> <s_lp_Force_Field>
OPLS_2005

> <r_lp_Energy>
49.9883

> <b_lp_Chiralities_Consistent>
1

> <s_lp_Variant>
AV-unprocessed.smi:221-12

> <Gold.Version>
5.8.1

> <Gold.Id.Protein>
6NUR|6NUR_protein|mol2

> <Gold.PLP.Fitness>
47.3728

> <Gold.PLP.PLP>
-37.4768

> <Gold.PLP.part.hbond>
-3.9942

> <Gold.PLP.part.metal>
0.0000

> <Gold.PLP.part.buried>
-2.1512

> <Gold.PLP.part.nonpolar>
-33.2915

> <Gold.PLP.part.repulsive>
0.5541

> <Gold.PLP.ligand.clash>
0.0000

> <Gold.PLP.ligand.torsion>
1.6736

> <Gold.PLP.Chemscore.Hbond>
3.9840

> <Gold.PLP.Chemscore.CHOScore>
0.3136

> <Gold.PLP.Chemscore.Metal>
0.0000

> <Gold.Chemscore.Hbonds>
donor molecule, donor type, donor heavy atom, donor atom, acceptor molecule, acceptor atom, score
      L1  H     1    30       P1 11000  0.90
      L1  H     1    31       P1 10957  1.00
      L1  H    22    43       P1  8028  0.95
      P1  H  7997  8010       L1    26  1.00
      L1  C    17    37       P1  7957  0.35

> <Gold.PLP.Chemscore.Internal.Correction>
0.3504

> <Gold.Rescore>
     Score         DG    S(hbond)    S(metal)    S(lipo)     H(rot)  DE(clash)    DE(int)     intcor
     11.99     -17.00       3.60        0.00      67.99       3.31       1.52       3.50       ----

> <Gold.Chemscore.Fitness>
11.9860

> <Gold.Chemscore.DG>
-17.0030

> <Gold.Chemscore.ZeroCoef>
-5.4800

> <Gold.Chemscore.Hbond>
3.6044

> <Gold.Chemscore.Metal>
0.0000

> <Gold.Chemscore.Lipo>
67.9928

> <Gold.Chemscore.Internal_Hbond>
0.0000

> <Gold.Chemscore.DEClash>
1.5169

> <Gold.Chemscore.DEInternal>
3.5001

> <Gold.Chemscore.Rot>
3.3089

> <Gold.Chemscore.Internal.Correction>
   9.000000E+99

> <Gold.Chemscore.Hbonds>
donor molecule, donor type, donor heavy atom, donor atom, acceptor molecule, acceptor atom, score
      L1  H     1    30       P1 11000  0.85
      L1  H     1    31       P1 10957  0.97
      L1  H    22    43       P1  8028  0.21
      P1  H  7997  8010       L1    26  0.86

> <Gold.Chemscore.Hbond.Weighted>
-12.0387

> <Gold.Chemscore.Metal.Weighted>
-0.0000

> <Gold.Chemscore.Lipo.Weighted>
-7.9552

> <Gold.Chemscore.Internal_Hbond.Weighted>
0.0000

> <Gold.Chemscore.DEClash.Weighted>
1.5169

> <Gold.Chemscore.DEInternal.Weighted>
3.5001

> <Gold.Chemscore.Rot.Weighted>
8.4709

> <Gold.Chemscore.Internal.Correction.Weighted>
   9.000000E+99

> <Gold.Protein.RotatedTorsions>
[ 6907 6896 6895 6894 ] final   22.83 input  -60.11 | X-H torsion
[ 7974 7965 7964 7962 ] final  112.01 input  175.53 | X-H torsion
[ 8008 7997 7996 7995 ] final   78.33 input   59.86 | X-H torsion
[ 10167 10162 10161 10158 ] final   49.09 input  -65.29 | X-H torsion
[ 10718 10713 10712 10709 ] final   31.93 input   66.30 | X-H torsion
[ 10763 10752 10751 10750 ] final  167.92 input  -60.55 | X-H torsion
[ 11005 11000 10999 10996 ] final -168.43 input  -57.11 | X-H torsion

> <Gold.Protein.ActiveResidues>
 VAL166  LYS551  ARG553  GLY616  TRP617  ASP618  TYR619  PRO620  LYS621  CYS622 
 ASP623  PHE694  ASN695  SER759  ASP760  ASP761  ALA762  ILE779  LEU786  VAL792 
 PHE793  MET794  SER795  GLU796  ALA797  LYS798  CYS799  TRP800  GLU811  SER814 

> <Gold.Protein.RotatedAtoms>
  151.9331  135.0247  160.0530 H   0  0  0  0  0  0  0  0  0  0  0  0  # atno 6907 bound_to 6896
  152.2101  133.4900  159.5114 H   0  0  0  0  0  0  0  0  0  0  0  0  # atno 6908 bound_to 6896
  150.6974  134.1394  159.4142 H   0  0  0  0  0  0  0  0  0  0  0  0  # atno 6909 bound_to 6896
  145.2350  139.2803  143.4148 H   0  0  0  0  0  0  0  0  0  0  0  0  # atno 7974 bound_to 7965
  155.8542  140.3456  155.5713 H   0  0  0  0  0  0  0  0  0  0  0  0  # atno 8008 bound_to 7997
  155.8004  140.0884  157.1980 H   0  0  0  0  0  0  0  0  0  0  0  0  # atno 8009 bound_to 7997
  154.4009  140.1466  156.3255 H   0  0  0  0  0  0  0  0  0  0  0  0  # atno 8010 bound_to 7997
  140.2865  144.3095  150.6251 H   0  0  0  0  0  0  0  0  0  0  0  0  # atno 10167 bound_to 10162
  157.2787  130.7244  149.6544 H   0  0  0  0  0  0  0  0  0  0  0  0  # atno 10718 bound_to 10713
  154.3609  135.2753  155.2320 H   0  0  0  0  0  0  0  0  0  0  0  0  # atno 10763 bound_to 10752
  154.4509  135.5931  153.6194 H   0  0  0  0  0  0  0  0  0  0  0  0  # atno 10764 bound_to 10752
  152.9843  135.6041  154.3829 H   0  0  0  0  0  0  0  0  0  0  0  0  # atno 10765 bound_to 10752
  140.5420  134.5513  157.5102 H   0  0  0  0  0  0  0  0  0  0  0  0  # atno 11005 bound_to 11000
  146.3343  140.2696  142.8605 LP  0  0  0  0  0  0  0  0  0  0  0  0  # atno 17320 bound_to 7965
  144.9642  140.8305  143.5495 LP  0  0  0  0  0  0  0  0  0  0  0  0  # atno 17321 bound_to 7965
  140.5768  143.2176  151.7501 LP  0  0  0  0  0  0  0  0  0  0  0  0  # atno 17342 bound_to 10162
  139.4949  144.4138  152.0052 LP  0  0  0  0  0  0  0  0  0  0  0  0  # atno 17343 bound_to 10162
  155.9664  130.4345  150.5050 LP  0  0  0  0  0  0  0  0  0  0  0  0  # atno 17370 bound_to 10713
  157.2990  131.0641  151.2082 LP  0  0  0  0  0  0  0  0  0  0  0  0  # atno 17371 bound_to 10713
  139.9499  134.7636  156.0473 LP  0  0  0  0  0  0  0  0  0  0  0  0  # atno 17394 bound_to 11000
  141.1221  133.6609  156.3243 LP  0  0  0  0  0  0  0  0  0  0  0  0  # atno 17395 bound_to 11000

$$$$
