AV-unprocessed.smi:423|AV-procd|sdf|2538|dock10
  -GOLD-   2262022503D 1   1.00000     0.00000
 Structure written by MMmdl.
 47 48  0  0  0  0  0  0  0  0  1 V2000
  152.4052  138.4616  154.9531 C   0  0  0  0  0  0  0  0  0  0  0  0
  151.4207  139.4978  155.4137 C   0  0  0  0  0  0  0  0  0  0  0  0
  150.7322  140.1806  154.5154 N   0  0  0  0  0  0  0  0  0  0  0  0
  149.9619  141.0234  155.2344 N   0  0  0  0  0  0  0  0  0  0  0  0
  149.0760  141.9419  154.5343 C   0  0  0  0  0  0  0  0  0  0  0  0
  147.5971  141.4971  154.5501 C   0  0  0  0  0  0  0  0  0  0  0  0
  147.3828  140.2950  153.6187 C   0  0  0  0  0  0  0  0  0  0  0  0
  146.6211  142.6362  154.2069 C   0  0  0  0  0  0  0  0  0  0  0  0
  150.1561  140.8594  156.5942 C   0  0  0  0  0  0  0  0  0  0  0  0
  149.4278  141.6696  157.6188 C   0  0  0  0  0  0  0  0  0  0  0  0
  151.0984  139.8778  156.7491 C   0  0  0  0  0  0  0  0  0  0  0  0
  151.6766  139.3196  158.0274 C   0  0  0  0  0  0  0  0  0  0  0  0
  152.5892  140.3384  158.7341 C   0  0  0  0  0  0  0  0  0  0  0  0
  153.7495  140.0465  159.0221 O   0  0  0  0  0  0  0  0  0  0  0  0
  152.0966  141.5517  159.0353 N   0  0  0  0  0  0  0  0  0  0  0  0
  152.7941  142.6512  159.6998 C   0  0  0  0  0  0  0  0  0  0  0  0
  152.1252  143.0253  161.0401 C   0  0  0  0  0  0  0  0  0  0  0  0
  151.8874  144.5362  160.9943 C   0  0  0  0  0  0  0  0  0  0  0  0
  151.7356  144.8516  159.5102 C   0  0  0  0  0  0  0  0  0  0  0  0
  152.7382  143.9201  158.8299 C   0  0  0  0  0  0  0  0  0  0  0  0
  153.2841  138.4426  155.5979 H   0  0  0  0  0  0  0  0  0  0  0  0
  152.7491  138.6578  153.9367 H   0  0  0  0  0  0  0  0  0  0  0  0
  151.9594  137.4673  154.9679 H   0  0  0  0  0  0  0  0  0  0  0  0
  149.1707  142.9308  154.9866 H   0  0  0  0  0  0  0  0  0  0  0  0
  149.4295  142.0447  153.5081 H   0  0  0  0  0  0  0  0  0  0  0  0
  147.3591  141.1648  155.5607 H   0  0  0  0  0  0  0  0  0  0  0  0
  147.5997  140.5542  152.5820 H   0  0  0  0  0  0  0  0  0  0  0  0
  146.3530  139.9397  153.6642 H   0  0  0  0  0  0  0  0  0  0  0  0
  148.0296  139.4621  153.8962 H   0  0  0  0  0  0  0  0  0  0  0  0
  146.8291  143.0507  153.2201 H   0  0  0  0  0  0  0  0  0  0  0  0
  146.6819  143.4494  154.9306 H   0  0  0  0  0  0  0  0  0  0  0  0
  145.5899  142.2823  154.2088 H   0  0  0  0  0  0  0  0  0  0  0  0
  149.5459  141.2434  158.6149 H   0  0  0  0  0  0  0  0  0  0  0  0
  148.3604  141.7121  157.4037 H   0  0  0  0  0  0  0  0  0  0  0  0
  149.8114  142.6891  157.6482 H   0  0  0  0  0  0  0  0  0  0  0  0
  150.8769  139.0206  158.7040 H   0  0  0  0  0  0  0  0  0  0  0  0
  152.2575  138.4186  157.8288 H   0  0  0  0  0  0  0  0  0  0  0  0
  151.1374  141.7302  158.7749 H   0  0  0  0  0  0  0  0  0  0  0  0
  153.8412  142.3871  159.8555 H   0  0  0  0  0  0  0  0  0  0  0  0
  151.1659  142.5165  161.1481 H   0  0  0  0  0  0  0  0  0  0  0  0
  152.7367  142.7412  161.8968 H   0  0  0  0  0  0  0  0  0  0  0  0
  151.0206  144.8427  161.5805 H   0  0  0  0  0  0  0  0  0  0  0  0
  152.7593  145.0576  161.3916 H   0  0  0  0  0  0  0  0  0  0  0  0
  150.7237  144.6072  159.1836 H   0  0  0  0  0  0  0  0  0  0  0  0
  151.9167  145.9024  159.2824 H   0  0  0  0  0  0  0  0  0  0  0  0
  153.7201  144.3957  158.8269 H   0  0  0  0  0  0  0  0  0  0  0  0
  152.4771  143.7228  157.7891 H   0  0  0  0  0  0  0  0  0  0  0  0
  1  2  1  0  0  0  0
  1 21  1  0  0  0  0
  1 22  1  0  0  0  0
  1 23  1  0  0  0  0
  2 11  1  0  0  0  0
  2  3  2  0  0  0  0
  3  4  1  0  0  0  0
  4  5  1  0  0  0  0
  4  9  1  0  0  0  0
  5  6  1  0  0  0  0
  5 24  1  0  0  0  0
  5 25  1  0  0  0  0
  6  7  1  0  0  0  0
  6  8  1  0  0  0  0
  6 26  1  0  0  0  0
  7 27  1  0  0  0  0
  7 28  1  0  0  0  0
  7 29  1  0  0  0  0
  8 30  1  0  0  0  0
  8 31  1  0  0  0  0
  8 32  1  0  0  0  0
  9 10  1  0  0  0  0
  9 11  2  0  0  0  0
 10 33  1  0  0  0  0
 10 34  1  0  0  0  0
 10 35  1  0  0  0  0
 11 12  1  0  0  0  0
 12 13  1  0  0  0  0
 12 36  1  0  0  0  0
 12 37  1  0  0  0  0
 13 14  2  0  0  0  0
 13 15  1  0  0  0  0
 15 16  1  0  0  0  0
 15 38  1  0  0  0  0
 16 20  1  0  0  0  0
 16 17  1  0  0  0  0
 16 39  1  0  0  0  0
 17 18  1  0  0  0  0
 17 40  1  0  0  0  0
 17 41  1  0  0  0  0
 18 19  1  0  0  0  0
 18 42  1  0  0  0  0
 18 43  1  0  0  0  0
 19 20  1  0  0  0  0
 19 44  1  0  0  0  0
 19 45  1  0  0  0  0
 20 46  1  0  0  0  0
 20 47  1  0  0  0  0
M  END
> <s_m_source_file>
AV-unprocessed.smi

> <i_m_source_file_index>
423

> <i_lp_mmshare_version>
43012

> <i_f3d_flags>
0

> <s_epik_input>
W0NIM11jMW5uKFtDSDJdW0NIXShbQ0gzXSlbQ0gzXSljKFtDSDNdKWMxW0NIMl1DKD1PKVtOSF1bQ0hdMltDSDJdW0NIMl1bQ0gyXVtDSDJdMg==

> <s_epik_cmdline>
J2VwaWtfcHl0aG9uJywgJy1waCcsICc3LjAnLCAnLXRuJywgJzgnLCAnLW1hJywgJzIwMCcsICctbWV0YWxfYmluZGluZycsICctaW1hZScsICc8aW5maWxlLm1hZT4nLCAnLW9tYWUnLCAnPG91dGZpbGUubWFlPic=

> <r_lp_tautomer_probability>
1

> <r_epik_Ionization_Penalty>
0.00323157

> <r_epik_Ionization_Penalty_Charging>
0

> <r_epik_Ionization_Penalty_Neutral>
0.00323157

> <r_epik_State_Penalty>
0.00228044

> <r_epik_Charging_Adjusted_Penalty>
0.00228044

> <i_epik_Tot_Q>
0

> <i_epik_Tot_abs_Q>
0

> <r_epik_Metal_State_Penalty>
-0

> <b_epik_Metal_Only>
0

> <s_lp_Force_Field>
OPLS_2005

> <r_lp_Energy>
20.2574

> <b_lp_Chiralities_Consistent>
1

> <s_lp_Variant>
AV-unprocessed.smi:423-1

> <Gold.Version>
5.8.1

> <Gold.Id.Protein>
6NUR|6NUR_protein|mol2

> <Gold.PLP.Fitness>
54.4490

> <Gold.PLP.PLP>
-49.5000

> <Gold.PLP.part.hbond>
-2.0000

> <Gold.PLP.part.metal>
0.0000

> <Gold.PLP.part.buried>
-2.4462

> <Gold.PLP.part.nonpolar>
-45.2459

> <Gold.PLP.part.repulsive>
0.2019

> <Gold.PLP.ligand.clash>
0.0000

> <Gold.PLP.ligand.torsion>
0.4773

> <Gold.PLP.Chemscore.Hbond>
1.9600

> <Gold.PLP.Chemscore.CHOScore>
0.0000

> <Gold.PLP.Chemscore.Metal>
0.0000

> <Gold.Chemscore.Hbonds>
donor molecule, donor type, donor heavy atom, donor atom, acceptor molecule, acceptor atom, score
      P1  H  7989  7998       L1     3  0.98
      P1  H  7997  8010       L1    14  0.84

> <Gold.PLP.Chemscore.Internal.Correction>
0.0237

> <Gold.Rescore>
     Score         DG    S(hbond)    S(metal)    S(lipo)     H(rot)  DE(clash)    DE(int)     intcor
     20.55     -21.36       1.66        0.00     119.56       1.43       0.38       0.43       ----

> <Gold.Chemscore.Fitness>
20.5543

> <Gold.Chemscore.DG>
-21.3612

> <Gold.Chemscore.ZeroCoef>
-5.4800

> <Gold.Chemscore.Hbond>
1.6641

> <Gold.Chemscore.Metal>
0.0000

> <Gold.Chemscore.Lipo>
119.5563

> <Gold.Chemscore.Internal_Hbond>
0.0000

> <Gold.Chemscore.DEClash>
0.3777

> <Gold.Chemscore.DEInternal>
0.4292

> <Gold.Chemscore.Rot>
1.4316

> <Gold.Chemscore.Internal.Correction>
   9.000000E+99

> <Gold.Chemscore.Hbonds>
donor molecule, donor type, donor heavy atom, donor atom, acceptor molecule, acceptor atom, score
      P1  H  7989  7998       L1     3  0.69
      P1  H  7997  8010       L1    14  0.47

> <Gold.Chemscore.Hbond.Weighted>
-5.5580

> <Gold.Chemscore.Metal.Weighted>
-0.0000

> <Gold.Chemscore.Lipo.Weighted>
-13.9881

> <Gold.Chemscore.Internal_Hbond.Weighted>
0.0000

> <Gold.Chemscore.DEClash.Weighted>
0.3777

> <Gold.Chemscore.DEInternal.Weighted>
0.4292

> <Gold.Chemscore.Rot.Weighted>
3.6649

> <Gold.Chemscore.Internal.Correction.Weighted>
   9.000000E+99

> <Gold.Protein.RotatedTorsions>
[ 6907 6896 6895 6894 ] final  -42.79 input  -60.11 | X-H torsion
[ 7974 7965 7964 7962 ] final   -1.36 input  175.53 | X-H torsion
[ 8008 7997 7996 7995 ] final   15.23 input   59.86 | X-H torsion
[ 10167 10162 10161 10158 ] final  -76.19 input  -65.29 | X-H torsion
[ 10718 10713 10712 10709 ] final  -62.08 input   66.30 | X-H torsion
[ 10763 10752 10751 10750 ] final -148.27 input  -60.55 | X-H torsion
[ 11005 11000 10999 10996 ] final  112.13 input  -57.11 | X-H torsion

> <Gold.Protein.ActiveResidues>
 VAL166  LYS551  ARG553  GLY616  TRP617  ASP618  TYR619  PRO620  LYS621  CYS622 
 ASP623  PHE694  ASN695  SER759  ASP760  ASP761  ALA762  ILE779  LEU786  VAL792 
 PHE793  MET794  SER795  GLU796  ALA797  LYS798  CYS799  TRP800  GLU811  SER814 

> <Gold.Protein.RotatedAtoms>
  150.9512  134.8912  159.7672 H   0  0  0  0  0  0  0  0  0  0  0  0  # atno 6907 bound_to 6896
  152.5120  134.3803  159.9359 H   0  0  0  0  0  0  0  0  0  0  0  0  # atno 6908 bound_to 6896
  151.3819  133.3778  159.2746 H   0  0  0  0  0  0  0  0  0  0  0  0  # atno 6909 bound_to 6896
  146.2418  140.1409  142.8335 H   0  0  0  0  0  0  0  0  0  0  0  0  # atno 7974 bound_to 7965
  154.8597  140.2942  155.5547 H   0  0  0  0  0  0  0  0  0  0  0  0  # atno 8008 bound_to 7997
  156.3019  140.2480  156.3502 H   0  0  0  0  0  0  0  0  0  0  0  0  # atno 8009 bound_to 7997
  154.8932  140.0394  157.1839 H   0  0  0  0  0  0  0  0  0  0  0  0  # atno 8010 bound_to 7997
  140.4878  143.2387  151.7956 H   0  0  0  0  0  0  0  0  0  0  0  0  # atno 10167 bound_to 10162
  156.0879  130.4205  150.1084 H   0  0  0  0  0  0  0  0  0  0  0  0  # atno 10718 bound_to 10713
  154.8242  135.3339  154.6948 H   0  0  0  0  0  0  0  0  0  0  0  0  # atno 10763 bound_to 10752
  153.7577  135.6935  153.4936 H   0  0  0  0  0  0  0  0  0  0  0  0  # atno 10764 bound_to 10752
  153.2132  135.4475  155.0354 H   0  0  0  0  0  0  0  0  0  0  0  0  # atno 10765 bound_to 10752
  139.8920  134.9523  156.6539 H   0  0  0  0  0  0  0  0  0  0  0  0  # atno 11005 bound_to 11000
  145.0247  140.8822  143.5145 LP  0  0  0  0  0  0  0  0  0  0  0  0  # atno 17320 bound_to 7965
  145.1463  139.2541  143.5464 LP  0  0  0  0  0  0  0  0  0  0  0  0  # atno 17321 bound_to 7965
  139.4845  144.4689  151.9449 LP  0  0  0  0  0  0  0  0  0  0  0  0  # atno 17342 bound_to 10162
  140.3775  144.2777  150.5912 LP  0  0  0  0  0  0  0  0  0  0  0  0  # atno 17343 bound_to 10162
  156.9101  130.9649  151.3564 LP  0  0  0  0  0  0  0  0  0  0  0  0  # atno 17370 bound_to 10713
  157.6019  130.8519  149.8815 LP  0  0  0  0  0  0  0  0  0  0  0  0  # atno 17371 bound_to 10713
  140.7499  133.8906  155.8339 LP  0  0  0  0  0  0  0  0  0  0  0  0  # atno 17394 bound_to 11000
  141.0009  134.1152  157.4318 LP  0  0  0  0  0  0  0  0  0  0  0  0  # atno 17395 bound_to 11000

$$$$
