AV-unprocessed.smi:72|AV-procd|sdf|697|dock2
  -GOLD-   2262017 13D 1   1.00000     0.00000
 Structure written by MMmdl.
 30 31  0  0  0  0  0  0  0  0  2 V2000
  149.7253  145.1449  159.3967 N   0  0  0  0  0  0  0  0  0  0  0  0
  150.3655  143.9614  159.0933 C   0  0  0  0  0  0  0  0  0  0  0  0
  150.2900  143.5058  157.7898 N   0  3  0  0  0  0  0  0  0  0  0  0
  150.8440  142.3740  157.3340 C   0  0  0  0  0  0  0  0  0  0  0  0
  151.5048  141.6000  158.1741 N   0  0  0  0  0  0  0  0  0  0  0  0
  152.1638  140.3139  157.7308 C   0  0  2  0  0  0  0  0  0  0  0  0
  151.9236  140.1527  156.3672 O   0  0  0  0  0  0  0  0  0  0  0  0
  150.7647  139.3458  156.1865 C   0  0  1  0  0  0  0  0  0  0  0  0
  150.6568  138.8364  154.7392 C   0  0  0  0  0  0  0  0  0  0  0  0
  150.2676  139.8955  153.8904 O   0  0  0  0  0  0  0  0  0  0  0  0
  150.9688  138.2743  157.2618 C   0  0  1  0  0  0  0  0  0  0  0  0
  151.8733  137.2821  156.8048 O   0  0  0  0  0  0  0  0  0  0  0  0
  151.5266  139.0904  158.4292 C   0  0  1  0  0  0  0  0  0  0  0  0
  152.4404  138.3562  159.2226 O   0  0  0  0  0  0  0  0  0  0  0  0
  151.6732  142.0090  159.5227 C   0  0  0  0  0  0  0  0  0  0  0  0
  152.3341  141.3236  160.3021 O   0  0  0  0  0  0  0  0  0  0  0  0
  151.0533  143.2072  159.9050 N   0  0  0  0  0  0  0  0  0  0  0  0
  153.2301  140.4525  157.9187 H   0  0  0  0  0  0  0  0  0  0  0  0
  149.8735  139.9212  156.4457 H   0  0  0  0  0  0  0  0  0  0  0  0
  150.0320  137.7833  157.5271 H   0  0  0  0  0  0  0  0  0  0  0  0
  150.6987  139.4184  159.0598 H   0  0  0  0  0  0  0  0  0  0  0  0
  149.7309  145.5554  160.3198 H   0  0  0  0  0  0  0  0  0  0  0  0
  149.2021  145.6922  158.7283 H   0  0  0  0  0  0  0  0  0  0  0  0
  150.7388  142.1325  156.2845 H   0  0  0  0  0  0  0  0  0  0  0  0
  151.5965  138.4023  154.3960 H   0  0  0  0  0  0  0  0  0  0  0  0
  149.8933  138.0612  154.6691 H   0  0  0  0  0  0  0  0  0  0  0  0
  150.1464  139.5512  153.0185 H   0  0  0  0  0  0  0  0  0  0  0  0
  152.4900  137.1009  157.4982 H   0  0  0  0  0  0  0  0  0  0  0  0
  152.0797  138.2635  160.0916 H   0  0  0  0  0  0  0  0  0  0  0  0
  149.7797  144.0759  157.1304 H   0  0  0  0  0  0  0  0  0  0  0  0
  1  2  1  0  0  0  0
  1 22  1  0  0  0  0
  1 23  1  0  0  0  0
  2 17  2  0  0  0  0
  2  3  1  0  0  0  0
  3  4  2  0  0  0  0
  3 30  1  0  0  0  0
  4  5  1  0  0  0  0
  4 24  1  0  0  0  0
  5  6  1  0  0  0  0
  5 15  1  0  0  0  0
  6 18  1  0  0  0  0
  6 13  1  0  0  0  0
  6  7  1  0  0  0  0
  7  8  1  0  0  0  0
  8 19  1  0  0  0  0
  8  9  1  0  0  0  0
  8 11  1  0  0  0  0
  9 10  1  0  0  0  0
  9 25  1  0  0  0  0
  9 26  1  0  0  0  0
 10 27  1  0  0  0  0
 11 20  1  0  0  0  0
 11 12  1  0  0  0  0
 11 13  1  0  0  0  0
 12 28  1  0  0  0  0
 13 21  1  0  0  0  0
 13 14  1  0  0  0  0
 14 29  1  0  0  0  0
 15 16  2  0  0  0  0
 15 17  1  0  0  0  0
M  CHG  1   3   1
M  END
> <s_m_source_file>
AV-unprocessed.smi

> <i_m_source_file_index>
72

> <i_lp_mmshare_version>
43012

> <i_f3d_flags>
0

> <s_epik_input>
W05IMl1jMW5bY0hdbihjKD1PKW4xKVtDQEBIXTJPW0NASF0oW0NIMl1bT0hdKVtDQEBIXShbT0hdKVtDQEhdMltPSF0=

> <s_epik_cmdline>
J2VwaWtfcHl0aG9uJywgJy1waCcsICc3LjAnLCAnLXRuJywgJzgnLCAnLW1hJywgJzIwMCcsICctbWV0YWxfYmluZGluZycsICctaW1hZScsICc8aW5maWxlLm1hZT4nLCAnLW9tYWUnLCAnPG91dGZpbGUubWFlPic=

> <r_lp_tautomer_probability>
4.77166e-05

> <r_epik_Ionization_Penalty>
0.104979

> <r_epik_Ionization_Penalty_Charging>
0.0999619

> <r_epik_Ionization_Penalty_Neutral>
0.00501745

> <r_epik_State_Penalty>
2.51541

> <r_epik_Charging_Adjusted_Penalty>
2.61537

> <i_epik_Tot_Q>
1

> <i_epik_Tot_abs_Q>
1

> <r_epik_Metal_State_Penalty>
3.53763

> <b_epik_Metal_Only>
0

> <s_epik_Chemistry_Notes>
This compound contains an acetal/aminal-like group ( X-CH(R)-Y where X, Y are N, S, or O) that may be acid/base labile, releasing an aldehyde.

> <s_lp_Force_Field>
OPLS_2005

> <r_lp_Energy>
33.8759

> <b_lp_Chiralities_Consistent>
1

> <s_lp_Variant>
AV-unprocessed.smi:72-35

> <Gold.Version>
5.8.1

> <Gold.Id.Protein>
6NUR|6NUR_protein|mol2

> <Gold.PLP.Fitness>
37.0354

> <Gold.PLP.PLP>
-22.9247

> <Gold.PLP.part.hbond>
-4.0135

> <Gold.PLP.part.metal>
0.0000

> <Gold.PLP.part.buried>
-4.7659

> <Gold.PLP.part.nonpolar>
-13.9740

> <Gold.PLP.part.repulsive>
0.2781

> <Gold.PLP.ligand.clash>
0.0000

> <Gold.PLP.ligand.torsion>
0.1009

> <Gold.PLP.Chemscore.Hbond>
4.7600

> <Gold.PLP.Chemscore.CHOScore>
0.0000

> <Gold.PLP.Chemscore.Metal>
0.0000

> <Gold.Chemscore.Hbonds>
donor molecule, donor type, donor heavy atom, donor atom, acceptor molecule, acceptor atom, score
      L1  H     1    23       P1  8029  1.00
      L1  H     3    30       P1  8028  2.00
      L1  H    10    27       P1  7957  0.88
      P1  H  7989  7998       L1    10  0.67

> <Gold.PLP.Chemscore.Internal.Correction>
0.0326

> <Gold.Rescore>
     Score         DG    S(hbond)    S(metal)    S(lipo)     H(rot)  DE(clash)    DE(int)     intcor
      8.26      -8.44       3.29        0.00      20.49       4.08       0.03       0.15       ----

> <Gold.Chemscore.Fitness>
8.2639

> <Gold.Chemscore.DG>
-8.4404

> <Gold.Chemscore.ZeroCoef>
-5.4800

> <Gold.Chemscore.Hbond>
3.2946

> <Gold.Chemscore.Metal>
0.0000

> <Gold.Chemscore.Lipo>
20.4871

> <Gold.Chemscore.Internal_Hbond>
0.0000

> <Gold.Chemscore.DEClash>
0.0310

> <Gold.Chemscore.DEInternal>
0.1455

> <Gold.Chemscore.Rot>
4.0783

> <Gold.Chemscore.Internal.Correction>
   9.000000E+99

> <Gold.Chemscore.Hbonds>
donor molecule, donor type, donor heavy atom, donor atom, acceptor molecule, acceptor atom, score
      L1  H     1    23       P1  8029  0.96
      L1  H     3    30       P1  8028  0.70
      L1  H    10    27       P1  7957  0.82
      P1  H  7989  7998       L1    10  0.05

> <Gold.Chemscore.Hbond.Weighted>
-11.0038

> <Gold.Chemscore.Metal.Weighted>
-0.0000

> <Gold.Chemscore.Lipo.Weighted>
-2.3970

> <Gold.Chemscore.Internal_Hbond.Weighted>
0.0000

> <Gold.Chemscore.DEClash.Weighted>
0.0310

> <Gold.Chemscore.DEInternal.Weighted>
0.1455

> <Gold.Chemscore.Rot.Weighted>
10.4404

> <Gold.Chemscore.Internal.Correction.Weighted>
   9.000000E+99

> <Gold.Protein.RotatedTorsions>
[ 6907 6896 6895 6894 ] final  105.37 input  -60.11 | X-H torsion
[ 7974 7965 7964 7962 ] final   -8.67 input  175.53 | X-H torsion
[ 8008 7997 7996 7995 ] final  179.84 input   59.86 | X-H torsion
[ 10167 10162 10161 10158 ] final  135.18 input  -65.29 | X-H torsion
[ 10718 10713 10712 10709 ] final  108.96 input   66.30 | X-H torsion
[ 10763 10752 10751 10750 ] final   23.95 input  -60.55 | X-H torsion
[ 11005 11000 10999 10996 ] final    3.75 input  -57.11 | X-H torsion

> <Gold.Protein.ActiveResidues>
 VAL166  LYS551  ARG553  GLY616  TRP617  ASP618  TYR619  PRO620  LYS621  CYS622 
 ASP623  PHE694  ASN695  SER759  ASP760  ASP761  ALA762  ILE779  LEU786  VAL792 
 PHE793  MET794  SER795  GLU796  ALA797  LYS798  CYS799  TRP800  GLU811  SER814 

> <Gold.Protein.RotatedAtoms>
  152.5233  133.9538  159.7684 H   0  0  0  0  0  0  0  0  0  0  0  0  # atno 6907 bound_to 6896
  150.9843  133.6205  159.2725 H   0  0  0  0  0  0  0  0  0  0  0  0  # atno 6908 bound_to 6896
  151.3372  135.0861  159.9411 H   0  0  0  0  0  0  0  0  0  0  0  0  # atno 6909 bound_to 6896
  146.2274  140.2502  142.8347 H   0  0  0  0  0  0  0  0  0  0  0  0  # atno 7974 bound_to 7965
  156.0388  140.1299  157.0178 H   0  0  0  0  0  0  0  0  0  0  0  0  # atno 8008 bound_to 7997
  154.4382  140.1034  156.6277 H   0  0  0  0  0  0  0  0  0  0  0  0  # atno 8009 bound_to 7997
  155.5697  140.3466  155.4514 H   0  0  0  0  0  0  0  0  0  0  0  0  # atno 8010 bound_to 7997
  139.5227  144.6530  151.5246 H   0  0  0  0  0  0  0  0  0  0  0  0  # atno 10167 bound_to 10162
  157.6563  131.0904  150.6383 H   0  0  0  0  0  0  0  0  0  0  0  0  # atno 10718 bound_to 10713
  153.0800  135.6616  154.0066 H   0  0  0  0  0  0  0  0  0  0  0  0  # atno 10763 bound_to 10752
  153.9690  135.2966  155.3430 H   0  0  0  0  0  0  0  0  0  0  0  0  # atno 10764 bound_to 10752
  154.7197  135.5170  153.8864 H   0  0  0  0  0  0  0  0  0  0  0  0  # atno 10765 bound_to 10752
  140.5897  133.9936  155.8083 H   0  0  0  0  0  0  0  0  0  0  0  0  # atno 11005 bound_to 11000
  144.9417  140.8085  143.5626 LP  0  0  0  0  0  0  0  0  0  0  0  0  # atno 17320 bound_to 7965
  145.2454  139.2054  143.4970 LP  0  0  0  0  0  0  0  0  0  0  0  0  # atno 17321 bound_to 7965
  140.6343  143.9015  150.6633 LP  0  0  0  0  0  0  0  0  0  0  0  0  # atno 17342 bound_to 10162
  140.2329  143.3722  152.1551 LP  0  0  0  0  0  0  0  0  0  0  0  0  # atno 17343 bound_to 10162
  156.6689  130.4534  149.5663 LP  0  0  0  0  0  0  0  0  0  0  0  0  # atno 17370 bound_to 10713
  156.2012  130.6621  151.1169 LP  0  0  0  0  0  0  0  0  0  0  0  0  # atno 17371 bound_to 10713
  141.0943  133.9868  157.3186 LP  0  0  0  0  0  0  0  0  0  0  0  0  # atno 17394 bound_to 11000
  139.9280  135.0201  156.8301 LP  0  0  0  0  0  0  0  0  0  0  0  0  # atno 17395 bound_to 11000

$$$$
