AV-unprocessed.smi:36|AV-procd|sdf|287|dock4
  -GOLD-   2262016 73D 1   1.00000     0.00000
 Structure written by MMmdl.
 64 67  0  0  0  0  0  0  0  0  1 V2000
  148.0863  133.3027  152.5823 C   0  0  0  0  0  0  0  0  0  0  0  0
  148.1991  132.8534  154.0485 C   0  0  0  0  0  0  0  0  0  0  0  0
  147.1347  131.7827  154.3446 C   0  0  0  0  0  0  0  0  0  0  0  0
  149.6027  132.2859  154.3162 C   0  0  0  0  0  0  0  0  0  0  0  0
  147.8928  134.3561  155.1867 Si  0  0  0  0  0  0  0  0  0  0  0  0
  147.7866  133.8157  157.0077 C   0  0  0  0  0  0  0  0  0  0  0  0
  149.2602  135.6594  154.9908 C   0  0  0  0  0  0  0  0  0  0  0  0
  146.4282  135.0619  154.7114 O   0  0  0  0  0  0  0  0  0  0  0  0
  146.1964  135.6661  153.4553 C   0  0  0  0  0  0  0  0  0  0  0  0
  146.9494  137.0015  153.3950 C   0  0  2  0  0  0  0  0  0  0  0  0
  146.9466  137.6139  154.6795 O   0  0  0  0  0  0  0  0  0  0  0  0
  147.1044  138.9950  154.5454 C   0  0  1  0  0  0  0  0  0  0  0  0
  148.4870  139.3638  154.9831 N   0  0  0  0  0  0  0  0  0  0  0  0
  149.4438  139.9928  154.2716 C   0  0  0  0  0  0  0  0  0  0  0  0
  150.5892  140.2008  154.9162 N   0  0  0  0  0  0  0  0  0  0  0  0
  150.3384  139.6488  156.1680 C   0  0  0  0  0  0  0  0  0  0  0  0
  151.2066  139.5468  157.3611 C   0  0  0  0  0  0  0  0  0  0  0  0
  152.4037  140.0436  157.2803 N   0  0  0  0  0  0  0  0  0  0  0  0
  153.2694  139.9591  158.3635 C   0  0  0  0  0  0  0  0  0  0  0  0
  154.0824  139.0707  158.6343 O   0  0  0  0  0  0  0  0  0  0  0  0
  153.1061  141.0790  159.3406 C   0  0  0  0  0  0  0  0  0  0  0  0
  152.4044  142.2472  158.9730 C   0  0  0  0  0  0  0  0  0  0  0  0
  152.2488  143.2987  159.8973 C   0  0  0  0  0  0  0  0  0  0  0  0
  152.7941  143.1868  161.1908 C   0  0  0  0  0  0  0  0  0  0  0  0
  153.4945  142.0227  161.5610 C   0  0  0  0  0  0  0  0  0  0  0  0
  153.6499  140.9699  160.6384 C   0  0  0  0  0  0  0  0  0  0  0  0
  150.5186  138.8988  158.3954 N   0  0  0  0  0  0  0  0  0  0  0  0
  149.2016  138.4174  158.3333 C   0  0  0  0  0  0  0  0  0  0  0  0
  148.4230  138.5037  157.2878 N   0  0  0  0  0  0  0  0  0  0  0  0
  149.0614  139.1338  156.2290 C   0  0  0  0  0  0  0  0  0  0  0  0
  146.9137  139.3351  153.0619 C   0  0  0  0  0  0  0  0  0  0  0  0
  146.2833  138.0645  152.5237 C   0  0  1  0  0  0  0  0  0  0  0  0
  146.5766  137.8964  151.1520 O   0  0  0  0  0  0  0  0  0  0  0  0
  148.2356  132.4664  151.8984 H   0  0  0  0  0  0  0  0  0  0  0  0
  148.8306  134.0613  152.3396 H   0  0  0  0  0  0  0  0  0  0  0  0
  147.1039  133.7272  152.3732 H   0  0  0  0  0  0  0  0  0  0  0  0
  146.1279  132.1717  154.1888 H   0  0  0  0  0  0  0  0  0  0  0  0
  147.1947  131.4344  155.3759 H   0  0  0  0  0  0  0  0  0  0  0  0
  147.2558  130.9131  153.6981 H   0  0  0  0  0  0  0  0  0  0  0  0
  149.8072  131.4212  153.6841 H   0  0  0  0  0  0  0  0  0  0  0  0
  149.7116  131.9669  155.3532 H   0  0  0  0  0  0  0  0  0  0  0  0
  150.3756  133.0285  154.1169 H   0  0  0  0  0  0  0  0  0  0  0  0
  148.7331  133.4032  157.3556 H   0  0  0  0  0  0  0  0  0  0  0  0
  147.0277  133.0490  157.1592 H   0  0  0  0  0  0  0  0  0  0  0  0
  147.5399  134.6517  157.6615 H   0  0  0  0  0  0  0  0  0  0  0  0
  150.2386  135.2556  155.2492 H   0  0  0  0  0  0  0  0  0  0  0  0
  149.0842  136.5211  155.6344 H   0  0  0  0  0  0  0  0  0  0  0  0
  149.3194  136.0270  153.9667 H   0  0  0  0  0  0  0  0  0  0  0  0
  146.5357  134.9980  152.6633 H   0  0  0  0  0  0  0  0  0  0  0  0
  145.1257  135.8154  153.3139 H   0  0  0  0  0  0  0  0  0  0  0  0
  147.9807  136.8560  153.0736 H   0  0  0  0  0  0  0  0  0  0  0  0
  146.4315  139.5257  155.2196 H   0  0  0  0  0  0  0  0  0  0  0  0
  149.3025  140.3082  153.2486 H   0  0  0  0  0  0  0  0  0  0  0  0
  151.9811  142.3405  157.9832 H   0  0  0  0  0  0  0  0  0  0  0  0
  151.7104  144.1910  159.6140 H   0  0  0  0  0  0  0  0  0  0  0  0
  152.6745  143.9932  161.8991 H   0  0  0  0  0  0  0  0  0  0  0  0
  153.9129  141.9371  162.5530 H   0  0  0  0  0  0  0  0  0  0  0  0
  154.1880  140.0797  160.9309 H   0  0  0  0  0  0  0  0  0  0  0  0
  148.8576  137.9469  159.2555 H   0  0  0  0  0  0  0  0  0  0  0  0
  146.2876  140.2191  152.9378 H   0  0  0  0  0  0  0  0  0  0  0  0
  147.8835  139.5203  152.5952 H   0  0  0  0  0  0  0  0  0  0  0  0
  145.2044  138.0783  152.6848 H   0  0  0  0  0  0  0  0  0  0  0  0
  145.8160  138.1441  150.6489 H   0  0  0  0  0  0  0  0  0  0  0  0
  151.0155  138.7702  159.2650 H   0  0  0  0  0  0  0  0  0  0  0  0
  1  2  1  0  0  0  0
  1 34  1  0  0  0  0
  1 35  1  0  0  0  0
  1 36  1  0  0  0  0
  2  3  1  0  0  0  0
  2  4  1  0  0  0  0
  2  5  1  0  0  0  0
  3 37  1  0  0  0  0
  3 38  1  0  0  0  0
  3 39  1  0  0  0  0
  4 40  1  0  0  0  0
  4 41  1  0  0  0  0
  4 42  1  0  0  0  0
  5  6  1  0  0  0  0
  5  7  1  0  0  0  0
  5  8  1  0  0  0  0
  6 43  1  0  0  0  0
  6 44  1  0  0  0  0
  6 45  1  0  0  0  0
  7 46  1  0  0  0  0
  7 47  1  0  0  0  0
  7 48  1  0  0  0  0
  8  9  1  0  0  0  0
  9 10  1  0  0  0  0
  9 49  1  0  0  0  0
  9 50  1  0  0  0  0
 10 32  1  0  0  0  0
 10 11  1  0  0  0  0
 10 51  1  0  0  0  0
 11 12  1  0  0  0  0
 12 13  1  0  0  0  0
 12 31  1  0  0  0  0
 12 52  1  0  0  0  0
 13 30  1  0  0  0  0
 13 14  1  0  0  0  0
 14 15  2  0  0  0  0
 14 53  1  0  0  0  0
 15 16  1  0  0  0  0
 16 30  2  0  0  0  0
 16 17  1  0  0  0  0
 17 18  2  0  0  0  0
 17 27  1  0  0  0  0
 18 19  1  0  0  0  0
 19 20  2  0  0  0  0
 19 21  1  0  0  0  0
 21 26  1  0  0  0  0
 21 22  2  0  0  0  0
 22 23  1  0  0  0  0
 22 54  1  0  0  0  0
 23 24  2  0  0  0  0
 23 55  1  0  0  0  0
 24 25  1  0  0  0  0
 24 56  1  0  0  0  0
 25 26  2  0  0  0  0
 25 57  1  0  0  0  0
 26 58  1  0  0  0  0
 27 28  1  0  0  0  0
 27 64  1  0  0  0  0
 28 29  2  0  0  0  0
 28 59  1  0  0  0  0
 29 30  1  0  0  0  0
 31 32  1  0  0  0  0
 31 60  1  0  0  0  0
 31 61  1  0  0  0  0
 32 33  1  0  0  0  0
 32 62  1  0  0  0  0
 33 63  1  0  0  0  0
M  END
> <s_m_source_file>
AV-unprocessed.smi

> <i_m_source_file_index>
36

> <i_lp_mmshare_version>
43012

> <i_f3d_flags>
0

> <s_epik_input>
W0NIM11DKFtDSDNdKShbQ0gzXSlbU2ldKFtDSDNdKShbQ0gzXSlPW0NIMl1bQ0BASF0xT1tDQEhdKFtDSDJdW0NASF0xW09IXSluKFtjSF1uMiljKGMyMyluW2NIXW5jM1tOSF1DKD1PKWM0W2NIXVtjSF1bY0hdW2NIXVtjSF00

> <s_epik_cmdline>
J2VwaWtfcHl0aG9uJywgJy1waCcsICc3LjAnLCAnLXRuJywgJzgnLCAnLW1hJywgJzIwMCcsICctbWV0YWxfYmluZGluZycsICctaW1hZScsICc8aW5maWxlLm1hZT4nLCAnLW9tYWUnLCAnPG91dGZpbGUubWFlPic=

> <r_epik_Ionization_Penalty>
0.0850405

> <r_epik_Ionization_Penalty_Charging>
0.0850403

> <r_epik_Ionization_Penalty_Neutral>
1.47497e-07

> <r_epik_State_Penalty>
2.6133

> <r_epik_Charging_Adjusted_Penalty>
2.69834

> <i_epik_Tot_Q>
0

> <i_epik_Tot_abs_Q>
0

> <r_epik_Metal_State_Penalty>
2.92945

> <b_epik_Metal_Only>
0

> <s_epik_Chemistry_Notes>
This compound contains an acetal/aminal-like group ( X-CH(R)-Y where X, Y are N, S, or O) that may be acid/base labile, releasing an aldehyde.

> <s_lp_Force_Field>
OPLS_2005

> <r_lp_Energy>
46.6166

> <b_lp_Chiralities_Consistent>
1

> <s_lp_Variant>
AV-unprocessed.smi:36-9

> <Gold.Version>
5.8.1

> <Gold.Id.Protein>
6NUR|6NUR_protein|mol2

> <Gold.PLP.Fitness>
52.6886

> <Gold.PLP.PLP>
-43.4445

> <Gold.PLP.part.hbond>
-5.8237

> <Gold.PLP.part.metal>
0.0000

> <Gold.PLP.part.buried>
1.6116

> <Gold.PLP.part.nonpolar>
-39.5519

> <Gold.PLP.part.repulsive>
0.3328

> <Gold.PLP.ligand.clash>
0.0000

> <Gold.PLP.ligand.torsion>
1.3542

> <Gold.PLP.Chemscore.Hbond>
2.8613

> <Gold.PLP.Chemscore.CHOScore>
1.0000

> <Gold.PLP.Chemscore.Metal>
0.0000

> <Gold.Chemscore.Hbonds>
donor molecule, donor type, donor heavy atom, donor atom, acceptor molecule, acceptor atom, score
      L1  H    33    63       P1 10171  0.70
      P1  H  7954  7966       L1    33  1.00
      P1  H  7989  7998       L1    15  1.00
      L1  C    14    53       P1  7957  1.00

> <Gold.PLP.Chemscore.Internal.Correction>
0.3688

> <Gold.Rescore>
     Score         DG    S(hbond)    S(metal)    S(lipo)     H(rot)  DE(clash)    DE(int)     intcor
     15.51     -20.20       2.54        0.00     112.58       2.70       3.43       1.25       ----

> <Gold.Chemscore.Fitness>
15.5112

> <Gold.Chemscore.DG>
-20.1982

> <Gold.Chemscore.ZeroCoef>
-5.4800

> <Gold.Chemscore.Hbond>
2.5357

> <Gold.Chemscore.Metal>
0.0000

> <Gold.Chemscore.Lipo>
112.5762

> <Gold.Chemscore.Internal_Hbond>
0.0000

> <Gold.Chemscore.DEClash>
3.4340

> <Gold.Chemscore.DEInternal>
1.2530

> <Gold.Chemscore.Rot>
2.7041

> <Gold.Chemscore.Internal.Correction>
   9.000000E+99

> <Gold.Chemscore.Hbonds>
donor molecule, donor type, donor heavy atom, donor atom, acceptor molecule, acceptor atom, score
      L1  H    33    63       P1 10171  0.69
      P1  H  7954  7966       L1    33  0.56
      P1  H  7989  7998       L1    15  0.25

> <Gold.Chemscore.Hbond.Weighted>
-8.4693

> <Gold.Chemscore.Metal.Weighted>
-0.0000

> <Gold.Chemscore.Lipo.Weighted>
-13.1714

> <Gold.Chemscore.Internal_Hbond.Weighted>
0.0000

> <Gold.Chemscore.DEClash.Weighted>
3.4340

> <Gold.Chemscore.DEInternal.Weighted>
1.2530

> <Gold.Chemscore.Rot.Weighted>
6.9225

> <Gold.Chemscore.Internal.Correction.Weighted>
   9.000000E+99

> <Gold.Protein.RotatedTorsions>
[ 6907 6896 6895 6894 ] final  147.38 input  -60.11 | X-H torsion
[ 7974 7965 7964 7962 ] final  167.02 input  175.53 | X-H torsion
[ 8008 7997 7996 7995 ] final   20.14 input   59.86 | X-H torsion
[ 10167 10162 10161 10158 ] final  -79.58 input  -65.29 | X-H torsion
[ 10718 10713 10712 10709 ] final -140.46 input   66.30 | X-H torsion
[ 10763 10752 10751 10750 ] final  -78.13 input  -60.55 | X-H torsion
[ 11005 11000 10999 10996 ] final  125.45 input  -57.11 | X-H torsion

> <Gold.Protein.ActiveResidues>
 VAL166  LYS551  ARG553  GLY616  TRP617  ASP618  TYR619  PRO620  LYS621  CYS622 
 ASP623  PHE694  ASN695  SER759  ASP760  ASP761  ALA762  ILE779  LEU786  VAL792 
 PHE793  MET794  SER795  GLU796  ALA797  LYS798  CYS799  TRP800  GLU811  SER814 

> <Gold.Protein.RotatedAtoms>
  152.1555  133.4548  159.4834 H   0  0  0  0  0  0  0  0  0  0  0  0  # atno 6907 bound_to 6896
  150.6900  134.2137  159.4378 H   0  0  0  0  0  0  0  0  0  0  0  0  # atno 6908 bound_to 6896
  152.0036  134.9914  160.0616 H   0  0  0  0  0  0  0  0  0  0  0  0  # atno 6909 bound_to 6896
  144.7440  139.8701  143.6388 H   0  0  0  0  0  0  0  0  0  0  0  0  # atno 7974 bound_to 7965
  154.9312  140.3040  155.5167 H   0  0  0  0  0  0  0  0  0  0  0  0  # atno 8008 bound_to 7997
  156.3003  140.2353  156.4309 H   0  0  0  0  0  0  0  0  0  0  0  0  # atno 8009 bound_to 7997
  154.8236  140.0422  157.1416 H   0  0  0  0  0  0  0  0  0  0  0  0  # atno 8010 bound_to 7997
  140.4580  143.2462  151.8391 H   0  0  0  0  0  0  0  0  0  0  0  0  # atno 10167 bound_to 10162
  156.3226  130.7542  151.1643 H   0  0  0  0  0  0  0  0  0  0  0  0  # atno 10718 bound_to 10713
  154.5219  135.5740  153.6688 H   0  0  0  0  0  0  0  0  0  0  0  0  # atno 10763 bound_to 10752
  152.9919  135.6184  154.2743 H   0  0  0  0  0  0  0  0  0  0  0  0  # atno 10764 bound_to 10752
  154.2664  135.2854  155.2736 H   0  0  0  0  0  0  0  0  0  0  0  0  # atno 10765 bound_to 10752
  139.9407  134.9635  156.8560 H   0  0  0  0  0  0  0  0  0  0  0  0  # atno 11005 bound_to 11000
  146.1287  139.4317  143.0183 LP  0  0  0  0  0  0  0  0  0  0  0  0  # atno 17320 bound_to 7965
  145.7196  141.0079  143.1409 LP  0  0  0  0  0  0  0  0  0  0  0  0  # atno 17321 bound_to 7965
  139.4803  144.5042  151.9020 LP  0  0  0  0  0  0  0  0  0  0  0  0  # atno 17342 bound_to 10162
  140.4128  144.2347  150.5888 LP  0  0  0  0  0  0  0  0  0  0  0  0  # atno 17343 bound_to 10162
  157.7415  131.0503  150.5093 LP  0  0  0  0  0  0  0  0  0  0  0  0  # atno 17370 bound_to 10713
  156.5248  130.4170  149.6232 LP  0  0  0  0  0  0  0  0  0  0  0  0  # atno 17371 bound_to 10713
  140.5959  134.0217  155.7518 LP  0  0  0  0  0  0  0  0  0  0  0  0  # atno 17394 bound_to 11000
  141.1040  133.9723  157.3029 LP  0  0  0  0  0  0  0  0  0  0  0  0  # atno 17395 bound_to 11000

$$$$
