AV-unprocessed.smi:2191|AV-procd|sdf|8894|dock8
  -GOLD-   2272012103D 1   1.00000     0.00000
 Structure written by MMmdl.
 37 39  0  0  0  0  0  0  0  0  2 V2000
  150.1073  141.9470  155.0724 O   0  0  0  0  0  0  0  0  0  0  0  0
  150.4802  141.3613  156.3045 C   0  0  2  0  0  0  0  0  0  0  0  0
  151.0611  142.4596  157.2094 C   0  0  0  0  0  0  0  0  0  0  0  0
  151.7316  141.8462  158.3026 O   0  0  0  0  0  0  0  0  0  0  0  0
  152.0572  142.6272  159.3908 C   0  0  0  0  0  0  0  0  0  0  0  0
  152.7219  141.9901  160.4593 C   0  0  0  0  0  0  0  0  0  0  0  0
  153.0940  142.7113  161.6103 C   0  0  0  0  0  0  0  0  0  0  0  0
  152.8012  144.0842  161.7050 C   0  0  0  0  0  0  0  0  0  0  0  0
  152.1369  144.7327  160.6474 C   0  0  0  0  0  0  0  0  0  0  0  0
  151.7666  144.0115  159.4955 C   0  0  0  0  0  0  0  0  0  0  0  0
  151.4977  140.2324  156.0460 C   0  0  0  0  0  0  0  0  0  0  0  0
  150.8751  139.0177  155.4988 N   0  0  0  0  0  0  0  0  0  0  0  0
  150.1000  138.8659  154.3909 C   0  0  0  0  0  0  0  0  0  0  0  0
  149.7649  137.5493  154.2997 N   0  3  0  0  0  0  0  0  0  0  0  0
  150.3345  136.8482  155.3645 C   0  0  0  0  0  0  0  0  0  0  0  0
  150.2798  135.4985  155.6986 C   0  0  0  0  0  0  0  0  0  0  0  0
  150.9808  135.1042  156.8570 C   0  0  0  0  0  0  0  0  0  0  0  0
  151.7001  136.0362  157.6329 C   0  0  0  0  0  0  0  0  0  0  0  0
  151.7483  137.4022  157.2850 C   0  0  0  0  0  0  0  0  0  0  0  0
  151.0510  137.7852  156.1393 C   0  0  0  0  0  0  0  0  0  0  0  0
  149.5562  142.6938  155.2530 H   0  0  0  0  0  0  0  0  0  0  0  0
  149.5926  140.9329  156.7723 H   0  0  0  0  0  0  0  0  0  0  0  0
  151.7899  143.0446  156.6457 H   0  0  0  0  0  0  0  0  0  0  0  0
  150.2760  143.1398  157.5450 H   0  0  0  0  0  0  0  0  0  0  0  0
  152.9505  140.9363  160.3951 H   0  0  0  0  0  0  0  0  0  0  0  0
  153.6040  142.2105  162.4200 H   0  0  0  0  0  0  0  0  0  0  0  0
  153.0857  144.6391  162.5870 H   0  0  0  0  0  0  0  0  0  0  0  0
  151.9110  145.7864  160.7187 H   0  0  0  0  0  0  0  0  0  0  0  0
  151.2592  144.5445  158.7061 H   0  0  0  0  0  0  0  0  0  0  0  0
  152.2974  140.5630  155.3832 H   0  0  0  0  0  0  0  0  0  0  0  0
  151.9785  139.9470  156.9824 H   0  0  0  0  0  0  0  0  0  0  0  0
  149.8053  139.6483  153.7068 H   0  0  0  0  0  0  0  0  0  0  0  0
  149.7308  134.7818  155.1054 H   0  0  0  0  0  0  0  0  0  0  0  0
  150.9683  134.0660  157.1557 H   0  0  0  0  0  0  0  0  0  0  0  0
  152.2272  135.6966  158.5126 H   0  0  0  0  0  0  0  0  0  0  0  0
  152.3082  138.1047  157.8842 H   0  0  0  0  0  0  0  0  0  0  0  0
  149.1907  137.1607  153.5625 H   0  0  0  0  0  0  0  0  0  0  0  0
  1  2  1  0  0  0  0
  1 21  1  0  0  0  0
  2  3  1  0  0  0  0
  2 11  1  0  0  0  0
  2 22  1  0  0  0  0
  3  4  1  0  0  0  0
  3 23  1  0  0  0  0
  3 24  1  0  0  0  0
  4  5  1  0  0  0  0
  5 10  1  0  0  0  0
  5  6  2  0  0  0  0
  6  7  1  0  0  0  0
  6 25  1  0  0  0  0
  7  8  2  0  0  0  0
  7 26  1  0  0  0  0
  8  9  1  0  0  0  0
  8 27  1  0  0  0  0
  9 10  2  0  0  0  0
  9 28  1  0  0  0  0
 10 29  1  0  0  0  0
 11 12  1  0  0  0  0
 11 30  1  0  0  0  0
 11 31  1  0  0  0  0
 12 20  1  0  0  0  0
 12 13  1  0  0  0  0
 13 14  2  0  0  0  0
 13 32  1  0  0  0  0
 14 15  1  0  0  0  0
 14 37  1  0  0  0  0
 15 20  2  0  0  0  0
 15 16  1  0  0  0  0
 16 17  2  0  0  0  0
 16 33  1  0  0  0  0
 17 18  1  0  0  0  0
 17 34  1  0  0  0  0
 18 19  2  0  0  0  0
 18 35  1  0  0  0  0
 19 20  1  0  0  0  0
 19 36  1  0  0  0  0
M  CHG  1  14   1
M  END
> <s_m_source_file>
AV-unprocessed.smi

> <i_m_source_file_index>
2191

> <i_lp_mmshare_version>
43012

> <i_f3d_flags>
0

> <s_epik_input>
W2NIXTFbY0hdW2NIXVtjSF1jKGMxMiluKFtjSF1uMilbQ0gyXVtDQEhdKFtPSF0pW0NIMl1PYzNbY0hdW2NIXVtjSF1bY0hdW2NIXTM=

> <s_epik_cmdline>
J2VwaWtfcHl0aG9uJywgJy1waCcsICc3LjAnLCAnLXRuJywgJzgnLCAnLW1hJywgJzIwMCcsICctbWV0YWxfYmluZGluZycsICctaW1hZScsICc8aW5maWxlLm1hZT4nLCAnLW9tYWUnLCAnPG91dGZpbGUubWFlPic=

> <r_lp_tautomer_probability>
1

> <r_epik_Ionization_Penalty>
1.35015

> <r_epik_Ionization_Penalty_Charging>
1.35015

> <r_epik_Ionization_Penalty_Neutral>
2.3993e-06

> <r_epik_State_Penalty>
1.42814

> <r_epik_Charging_Adjusted_Penalty>
2.77829

> <i_epik_Tot_Q>
1

> <i_epik_Tot_abs_Q>
1

> <r_epik_Metal_State_Penalty>
5.46522

> <b_epik_Metal_Only>
0

> <s_lp_Force_Field>
OPLS_2005

> <r_lp_Energy>
21.7284

> <b_lp_Chiralities_Consistent>
1

> <s_lp_Variant>
AV-unprocessed.smi:2191-3

> <Gold.Version>
5.8.1

> <Gold.Id.Protein>
6NUR|6NUR_protein|mol2

> <Gold.PLP.Fitness>
54.2169

> <Gold.PLP.PLP>
-42.7417

> <Gold.PLP.part.hbond>
-4.0336

> <Gold.PLP.part.metal>
0.0000

> <Gold.PLP.part.buried>
0.0684

> <Gold.PLP.part.nonpolar>
-37.9687

> <Gold.PLP.part.repulsive>
0.0590

> <Gold.PLP.ligand.clash>
0.0000

> <Gold.PLP.ligand.torsion>
0.2926

> <Gold.PLP.Chemscore.Hbond>
3.0000

> <Gold.PLP.Chemscore.CHOScore>
1.0000

> <Gold.PLP.Chemscore.Metal>
0.0000

> <Gold.Chemscore.Hbonds>
donor molecule, donor type, donor heavy atom, donor atom, acceptor molecule, acceptor atom, score
      L1  H     1    21       P1  8028  0.67
      L1  H    14    37       P1  7948  2.00
      P1  H  7989  7998       L1     1  0.01
      L1  C    13    32       P1  7957  0.87

> <Gold.PLP.Chemscore.Internal.Correction>
0.0604

> <Gold.Rescore>
     Score         DG    S(hbond)    S(metal)    S(lipo)     H(rot)  DE(clash)    DE(int)     intcor
     18.12     -19.79       1.94        0.00     117.39       2.31       1.36       0.31       ----

> <Gold.Chemscore.Fitness>
18.1238

> <Gold.Chemscore.DG>
-19.7893

> <Gold.Chemscore.ZeroCoef>
-5.4800

> <Gold.Chemscore.Hbond>
1.9391

> <Gold.Chemscore.Metal>
0.0000

> <Gold.Chemscore.Lipo>
117.3868

> <Gold.Chemscore.Internal_Hbond>
0.0000

> <Gold.Chemscore.DEClash>
1.3566

> <Gold.Chemscore.DEInternal>
0.3090

> <Gold.Chemscore.Rot>
2.3053

> <Gold.Chemscore.Internal.Correction>
   9.000000E+99

> <Gold.Chemscore.Hbonds>
donor molecule, donor type, donor heavy atom, donor atom, acceptor molecule, acceptor atom, score
      L1  H     1    21       P1  8028  0.67
      L1  H    14    37       P1  7948  0.94
      P1  H  7989  7998       L1     1  0.01

> <Gold.Chemscore.Hbond.Weighted>
-6.4766

> <Gold.Chemscore.Metal.Weighted>
-0.0000

> <Gold.Chemscore.Lipo.Weighted>
-13.7343

> <Gold.Chemscore.Internal_Hbond.Weighted>
0.0000

> <Gold.Chemscore.DEClash.Weighted>
1.3566

> <Gold.Chemscore.DEInternal.Weighted>
0.3090

> <Gold.Chemscore.Rot.Weighted>
5.9015

> <Gold.Chemscore.Internal.Correction.Weighted>
   9.000000E+99

> <Gold.Protein.RotatedTorsions>
[ 6907 6896 6895 6894 ] final -115.54 input  -60.11 | X-H torsion
[ 7974 7965 7964 7962 ] final  -43.05 input  175.53 | X-H torsion
[ 8008 7997 7996 7995 ] final  -74.58 input   59.86 | X-H torsion
[ 10167 10162 10161 10158 ] final  175.70 input  -65.29 | X-H torsion
[ 10718 10713 10712 10709 ] final -178.32 input   66.30 | X-H torsion
[ 10763 10752 10751 10750 ] final  -97.25 input  -60.55 | X-H torsion
[ 11005 11000 10999 10996 ] final    0.44 input  -57.11 | X-H torsion

> <Gold.Protein.ActiveResidues>
 VAL166  LYS551  ARG553  GLY616  TRP617  ASP618  TYR619  PRO620  LYS621  CYS622 
 ASP623  PHE694  ASN695  SER759  ASP760  ASP761  ALA762  ILE779  LEU786  VAL792 
 PHE793  MET794  SER795  GLU796  ALA797  LYS798  CYS799  TRP800  GLU811  SER814 

> <Gold.Protein.RotatedAtoms>
  150.7986  133.8644  159.3240 H   0  0  0  0  0  0  0  0  0  0  0  0  # atno 6907 bound_to 6896
  151.6462  135.1005  160.0161 H   0  0  0  0  0  0  0  0  0  0  0  0  # atno 6908 bound_to 6896
  152.4070  133.6865  159.6400 H   0  0  0  0  0  0  0  0  0  0  0  0  # atno 6909 bound_to 6896
  146.0056  140.7024  142.9249 H   0  0  0  0  0  0  0  0  0  0  0  0  # atno 7974 bound_to 7965
  154.5343  140.0759  156.8399 H   0  0  0  0  0  0  0  0  0  0  0  0  # atno 8008 bound_to 7997
  155.3311  140.3402  155.4221 H   0  0  0  0  0  0  0  0  0  0  0  0  # atno 8009 bound_to 7997
  156.1812  140.1653  156.8257 H   0  0  0  0  0  0  0  0  0  0  0  0  # atno 8010 bound_to 7997
  139.5187  144.3001  152.0387 H   0  0  0  0  0  0  0  0  0  0  0  0  # atno 10167 bound_to 10162
  156.8425  130.9691  151.3099 H   0  0  0  0  0  0  0  0  0  0  0  0  # atno 10718 bound_to 10713
  154.7311  135.5053  153.8966 H   0  0  0  0  0  0  0  0  0  0  0  0  # atno 10763 bound_to 10752
  153.0951  135.6670  153.9788 H   0  0  0  0  0  0  0  0  0  0  0  0  # atno 10764 bound_to 10752
  153.9588  135.3050  155.3414 H   0  0  0  0  0  0  0  0  0  0  0  0  # atno 10765 bound_to 10752
  140.6266  133.9613  155.8252 H   0  0  0  0  0  0  0  0  0  0  0  0  # atno 11005 bound_to 11000
  144.6934  140.3309  143.7216 LP  0  0  0  0  0  0  0  0  0  0  0  0  # atno 17320 bound_to 7965
  145.7421  139.1767  143.2370 LP  0  0  0  0  0  0  0  0  0  0  0  0  # atno 17321 bound_to 7965
  140.2448  144.4231  150.6245 LP  0  0  0  0  0  0  0  0  0  0  0  0  # atno 17342 bound_to 10162
  140.6265  143.2182  151.6585 LP  0  0  0  0  0  0  0  0  0  0  0  0  # atno 17343 bound_to 10162
  157.6348  130.8758  149.9338 LP  0  0  0  0  0  0  0  0  0  0  0  0  # atno 17370 bound_to 10713
  156.0873  130.3667  150.0463 LP  0  0  0  0  0  0  0  0  0  0  0  0  # atno 17371 bound_to 10713
  141.0705  134.0212  157.3532 LP  0  0  0  0  0  0  0  0  0  0  0  0  # atno 17394 bound_to 11000
  139.9132  135.0193  156.7778 LP  0  0  0  0  0  0  0  0  0  0  0  0  # atno 17395 bound_to 11000

$$$$
