AV-unprocessed.smi:290|AV-procd|sdf|2216|dock10
  -GOLD-   2262022 53D 1   1.00000     0.00000
 Structure written by MMmdl.
 59 62  0  0  0  0  0  0  0  0  2 V2000
  151.2905  145.0677  158.8980 C   0  0  0  0  0  0  0  0  0  0  0  0
  152.1241  143.8190  158.5676 C   0  0  1  0  0  0  0  0  0  0  0  0
  153.1493  143.6312  159.5323 O   0  0  0  0  0  0  0  0  0  0  0  0
  153.6045  142.2971  159.3981 C   0  0  0  0  0  0  0  0  0  0  0  0
  152.3056  141.5114  159.2645 C   0  0  0  0  0  0  0  0  0  0  0  0
  151.3728  142.4623  158.5077 C   0  0  1  0  0  0  0  0  0  0  0  0
  150.1377  142.5129  159.2033 O   0  0  0  0  0  0  0  0  0  0  0  0
  151.0969  141.9798  157.0620 C   0  0  0  0  0  0  0  0  0  0  0  0
  150.7812  140.5618  156.9730 N   0  0  0  0  0  0  0  0  0  0  0  0
  149.6951  139.9232  157.5291 C   0  0  0  0  0  0  0  0  0  0  0  0
  149.6254  138.6400  157.3019 N   0  0  0  0  0  0  0  0  0  0  0  0
  150.7546  138.3715  156.5382 C   0  0  0  0  0  0  0  0  0  0  0  0
  151.2983  137.1971  155.9466 C   0  0  0  0  0  0  0  0  0  0  0  0
  150.7466  135.9678  156.0284 N   0  0  0  0  0  0  0  0  0  0  0  0
  151.5680  134.8856  155.4890 C   0  0  0  0  0  0  0  0  0  0  0  0
  150.5935  133.8529  154.9181 C   0  0  0  0  0  0  0  0  0  0  0  0
  149.4459  134.7546  154.4577 C   0  0  1  0  0  0  0  0  0  0  0  0
  148.1541  134.1056  154.0719 N   0  3  1  0  0  0  0  0  0  0  0  0
  147.0232  135.0647  154.1358 C   0  0  0  0  0  0  0  0  0  0  0  0
  148.1755  133.3382  152.7946 C   0  0  0  0  0  0  0  0  0  0  0  0
  146.7828  132.8382  152.3700 C   0  0  0  0  0  0  0  0  0  0  0  0
  146.8369  132.2883  151.0710 O   0  0  0  0  0  0  0  0  0  0  0  0
  149.3710  135.8437  155.5468 C   0  0  1  0  0  0  0  0  0  0  0  0
  148.4385  135.5634  156.7365 C   0  0  0  0  0  0  0  0  0  0  0  0
  152.4519  137.3106  155.2456 N   0  0  0  0  0  0  0  0  0  0  0  0
  153.0481  138.5016  155.1324 C   0  0  0  0  0  0  0  0  0  0  0  0
  152.6629  139.6792  155.6298 N   0  0  0  0  0  0  0  0  0  0  0  0
  151.4970  139.5672  156.3289 C   0  0  0  0  0  0  0  0  0  0  0  0
  149.8157  135.2763  153.5732 H   0  0  0  0  0  0  0  0  0  0  0  0
  149.0339  136.7733  155.0852 H   0  0  0  0  0  0  0  0  0  0  0  0
  150.4879  145.2085  158.1737 H   0  0  0  0  0  0  0  0  0  0  0  0
  151.9131  145.9622  158.8782 H   0  0  0  0  0  0  0  0  0  0  0  0
  150.8439  145.0016  159.8904 H   0  0  0  0  0  0  0  0  0  0  0  0
  152.6369  143.9882  157.6203 H   0  0  0  0  0  0  0  0  0  0  0  0
  154.2150  142.2026  158.4986 H   0  0  0  0  0  0  0  0  0  0  0  0
  154.2005  141.9849  160.2557 H   0  0  0  0  0  0  0  0  0  0  0  0
  152.4524  140.5540  158.7633 H   0  0  0  0  0  0  0  0  0  0  0  0
  151.9221  141.2984  160.2640 H   0  0  0  0  0  0  0  0  0  0  0  0
  149.8740  141.6298  159.4114 H   0  0  0  0  0  0  0  0  0  0  0  0
  150.2676  142.5430  156.6317 H   0  0  0  0  0  0  0  0  0  0  0  0
  151.9599  142.1766  156.4245 H   0  0  0  0  0  0  0  0  0  0  0  0
  148.9460  140.4451  158.1066 H   0  0  0  0  0  0  0  0  0  0  0  0
  152.2254  135.2564  154.7009 H   0  0  0  0  0  0  0  0  0  0  0  0
  152.1967  134.4515  156.2670 H   0  0  0  0  0  0  0  0  0  0  0  0
  151.0282  133.2644  154.1098 H   0  0  0  0  0  0  0  0  0  0  0  0
  150.2940  133.1723  155.7144 H   0  0  0  0  0  0  0  0  0  0  0  0
  147.1438  135.8559  153.3949 H   0  0  0  0  0  0  0  0  0  0  0  0
  146.9617  135.5284  155.1212 H   0  0  0  0  0  0  0  0  0  0  0  0
  146.0649  134.5784  153.9619 H   0  0  0  0  0  0  0  0  0  0  0  0
  148.6041  133.9597  152.0070 H   0  0  0  0  0  0  0  0  0  0  0  0
  148.8222  132.4672  152.8775 H   0  0  0  0  0  0  0  0  0  0  0  0
  146.3724  132.1053  153.0626 H   0  0  0  0  0  0  0  0  0  0  0  0
  146.0835  133.6744  152.3543 H   0  0  0  0  0  0  0  0  0  0  0  0
  147.7310  132.0455  150.8821 H   0  0  0  0  0  0  0  0  0  0  0  0
  147.4035  135.4508  156.4165 H   0  0  0  0  0  0  0  0  0  0  0  0
  148.4650  136.3911  157.4457 H   0  0  0  0  0  0  0  0  0  0  0  0
  148.7327  134.6655  157.2802 H   0  0  0  0  0  0  0  0  0  0  0  0
  153.9646  138.5129  154.5612 H   0  0  0  0  0  0  0  0  0  0  0  0
  147.9743  133.4261  154.7978 H   0  0  0  0  0  0  0  0  0  0  0  0
  1  2  1  0  0  0  0
  1 31  1  0  0  0  0
  1 32  1  0  0  0  0
  1 33  1  0  0  0  0
  2  6  1  0  0  0  0
  2  3  1  0  0  0  0
  2 34  1  0  0  0  0
  3  4  1  0  0  0  0
  4  5  1  0  0  0  0
  4 35  1  0  0  0  0
  4 36  1  0  0  0  0
  5  6  1  0  0  0  0
  5 37  1  0  0  0  0
  5 38  1  0  0  0  0
  6  7  1  0  0  0  0
  6  8  1  0  0  0  0
  7 39  1  0  0  0  0
  8  9  1  0  0  0  0
  8 40  1  0  0  0  0
  8 41  1  0  0  0  0
  9 28  1  0  0  0  0
  9 10  1  0  0  0  0
 10 11  2  0  0  0  0
 10 42  1  0  0  0  0
 11 12  1  0  0  0  0
 12 28  2  0  0  0  0
 12 13  1  0  0  0  0
 13 14  1  0  0  0  0
 13 25  2  0  0  0  0
 14 23  1  0  0  0  0
 14 15  1  0  0  0  0
 15 16  1  0  0  0  0
 15 43  1  0  0  0  0
 15 44  1  0  0  0  0
 16 17  1  0  0  0  0
 16 45  1  0  0  0  0
 16 46  1  0  0  0  0
 17 29  1  0  0  0  0
 17 18  1  0  0  0  0
 17 23  1  0  0  0  0
 18 19  1  0  0  0  0
 18 20  1  0  0  0  0
 18 59  1  0  0  0  0
 19 47  1  0  0  0  0
 19 48  1  0  0  0  0
 19 49  1  0  0  0  0
 20 21  1  0  0  0  0
 20 50  1  0  0  0  0
 20 51  1  0  0  0  0
 21 22  1  0  0  0  0
 21 52  1  0  0  0  0
 21 53  1  0  0  0  0
 22 54  1  0  0  0  0
 23 30  1  0  0  0  0
 23 24  1  0  0  0  0
 24 55  1  0  0  0  0
 24 56  1  0  0  0  0
 24 57  1  0  0  0  0
 25 26  1  0  0  0  0
 26 27  2  0  0  0  0
 26 58  1  0  0  0  0
 27 28  1  0  0  0  0
M  CHG  1  18   1
M  END
> <s_m_source_file>
AV-unprocessed.smi

> <i_m_source_file_index>
290

> <i_lp_mmshare_version>
43012

> <i_f3d_flags>
0

> <s_epik_input>
W0NIMl0xW0NIMl1PW0NAQEhdKFtDSDNdKVtDQEBdMShbT0hdKVtDSDJdbihbY0hdbjIpYyhjMjMpbltjSF1uYzNONFtDSDJdW0NIMl1bQ0BIXShbQ0BIXTRbQ0gzXSlOKFtDSDNdKVtDSDJdW0NIMl1bT0hd

> <s_epik_cmdline>
J2VwaWtfcHl0aG9uJywgJy1waCcsICc3LjAnLCAnLXRuJywgJzgnLCAnLW1hJywgJzIwMCcsICctbWV0YWxfYmluZGluZycsICctaW1hZScsICc8aW5maWxlLm1hZT4nLCAnLW9tYWUnLCAnPG91dGZpbGUubWFlPic=

> <r_lp_tautomer_probability>
1

> <r_epik_Ionization_Penalty>
0.0036983

> <r_epik_Ionization_Penalty_Charging>
0.0032725

> <r_epik_Ionization_Penalty_Neutral>
0.000425798

> <r_epik_State_Penalty>
-0

> <r_epik_Charging_Adjusted_Penalty>
0.0032725

> <i_epik_Tot_Q>
1

> <i_epik_Tot_abs_Q>
1

> <r_epik_Metal_State_Penalty>
-0

> <b_epik_Metal_Only>
0

> <s_lp_Force_Field>
OPLS_2005

> <r_lp_Energy>
65.8888

> <b_lp_Chiralities_Consistent>
1

> <s_lp_Variant>
AV-unprocessed.smi:290-2

> <Gold.Version>
5.8.1

> <Gold.Id.Protein>
6NUR|6NUR_protein|mol2

> <Gold.PLP.Fitness>
49.4956

> <Gold.PLP.PLP>
-41.7414

> <Gold.PLP.part.hbond>
-4.1064

> <Gold.PLP.part.metal>
0.0000

> <Gold.PLP.part.buried>
-5.0989

> <Gold.PLP.part.nonpolar>
-32.1546

> <Gold.PLP.part.repulsive>
0.0324

> <Gold.PLP.ligand.clash>
0.0000

> <Gold.PLP.ligand.torsion>
0.6793

> <Gold.PLP.Chemscore.Hbond>
2.9440

> <Gold.PLP.Chemscore.CHOScore>
0.0000

> <Gold.PLP.Chemscore.Metal>
0.0000

> <Gold.Chemscore.Hbonds>
donor molecule, donor type, donor heavy atom, donor atom, acceptor molecule, acceptor atom, score
      L1  H    22    54       P1 10747  1.00
      P1  H  7997  8010       L1    27  0.69
      P1  H 10752 10765       L1    25  0.62

> <Gold.PLP.Chemscore.Internal.Correction>
0.2809

> <Gold.Rescore>
     Score         DG    S(hbond)    S(metal)    S(lipo)     H(rot)  DE(clash)    DE(int)     intcor
     13.11     -15.35       2.31        0.00      98.61       3.67       1.85       0.38       ----

> <Gold.Chemscore.Fitness>
13.1131

> <Gold.Chemscore.DG>
-15.3452

> <Gold.Chemscore.ZeroCoef>
-5.4800

> <Gold.Chemscore.Hbond>
2.3089

> <Gold.Chemscore.Metal>
0.0000

> <Gold.Chemscore.Lipo>
98.6139

> <Gold.Chemscore.Internal_Hbond>
0.0000

> <Gold.Chemscore.DEClash>
1.8534

> <Gold.Chemscore.DEInternal>
0.3787

> <Gold.Chemscore.Rot>
3.6658

> <Gold.Chemscore.Internal.Correction>
   9.000000E+99

> <Gold.Chemscore.Hbonds>
donor molecule, donor type, donor heavy atom, donor atom, acceptor molecule, acceptor atom, score
      L1  H    22    54       P1 10747  0.96
      P1  H  7997  8010       L1    27  0.10
      P1  H 10752 10765       L1    25  0.40

> <Gold.Chemscore.Hbond.Weighted>
-7.7118

> <Gold.Chemscore.Metal.Weighted>
-0.0000

> <Gold.Chemscore.Lipo.Weighted>
-11.5378

> <Gold.Chemscore.Internal_Hbond.Weighted>
0.0000

> <Gold.Chemscore.DEClash.Weighted>
1.8534

> <Gold.Chemscore.DEInternal.Weighted>
0.3787

> <Gold.Chemscore.Rot.Weighted>
9.3844

> <Gold.Chemscore.Internal.Correction.Weighted>
   9.000000E+99

> <Gold.Protein.RotatedTorsions>
[ 6907 6896 6895 6894 ] final  -46.57 input  -60.11 | X-H torsion
[ 7974 7965 7964 7962 ] final  -25.37 input  175.53 | X-H torsion
[ 8008 7997 7996 7995 ] final   64.07 input   59.86 | X-H torsion
[ 10167 10162 10161 10158 ] final  -75.58 input  -65.29 | X-H torsion
[ 10718 10713 10712 10709 ] final  -44.09 input   66.30 | X-H torsion
[ 10763 10752 10751 10750 ] final -161.32 input  -60.55 | X-H torsion
[ 11005 11000 10999 10996 ] final  147.30 input  -57.11 | X-H torsion

> <Gold.Protein.ActiveResidues>
 VAL166  LYS551  ARG553  GLY616  TRP617  ASP618  TYR619  PRO620  LYS621  CYS622 
 ASP623  PHE694  ASN695  SER759  ASP760  ASP761  ALA762  ILE779  LEU786  VAL792 
 PHE793  MET794  SER795  GLU796  ALA797  LYS798  CYS799  TRP800  GLU811  SER814 

> <Gold.Protein.RotatedAtoms>
  150.9099  134.8515  159.7417 H   0  0  0  0  0  0  0  0  0  0  0  0  # atno 6907 bound_to 6896
  152.4938  134.4375  159.9542 H   0  0  0  0  0  0  0  0  0  0  0  0  # atno 6908 bound_to 6896
  151.4418  133.3602  159.2818 H   0  0  0  0  0  0  0  0  0  0  0  0  # atno 6909 bound_to 6896
  146.1495  140.4877  142.8617 H   0  0  0  0  0  0  0  0  0  0  0  0  # atno 7974 bound_to 7965
  155.6402  140.3497  155.4712 H   0  0  0  0  0  0  0  0  0  0  0  0  # atno 8008 bound_to 7997
  155.9932  140.1198  157.0642 H   0  0  0  0  0  0  0  0  0  0  0  0  # atno 8009 bound_to 7997
  154.4225  140.1115  156.5580 H   0  0  0  0  0  0  0  0  0  0  0  0  # atno 8010 bound_to 7997
  140.4930  143.2376  151.7876 H   0  0  0  0  0  0  0  0  0  0  0  0  # atno 10167 bound_to 10162
  156.2422  130.4181  149.8747 H   0  0  0  0  0  0  0  0  0  0  0  0  # atno 10718 bound_to 10713
  154.7313  135.3047  154.8886 H   0  0  0  0  0  0  0  0  0  0  0  0  # atno 10763 bound_to 10752
  153.9728  135.6739  153.4751 H   0  0  0  0  0  0  0  0  0  0  0  0  # atno 10764 bound_to 10752
  153.0921  135.4954  154.8631 H   0  0  0  0  0  0  0  0  0  0  0  0  # atno 10765 bound_to 10752
  140.0864  134.9067  157.1582 H   0  0  0  0  0  0  0  0  0  0  0  0  # atno 11005 bound_to 11000
  144.7887  140.5988  143.6556 LP  0  0  0  0  0  0  0  0  0  0  0  0  # atno 17320 bound_to 7965
  145.4857  139.1492  143.3737 LP  0  0  0  0  0  0  0  0  0  0  0  0  # atno 17321 bound_to 7965
  139.4855  144.4624  151.9525 LP  0  0  0  0  0  0  0  0  0  0  0  0  # atno 17342 bound_to 10162
  140.3711  144.2854  150.5920 LP  0  0  0  0  0  0  0  0  0  0  0  0  # atno 17343 bound_to 10162
  156.6325  130.8671  151.3498 LP  0  0  0  0  0  0  0  0  0  0  0  0  # atno 17370 bound_to 10713
  157.7180  130.9522  150.1328 LP  0  0  0  0  0  0  0  0  0  0  0  0  # atno 17371 bound_to 10713
  140.3414  134.2699  155.7211 LP  0  0  0  0  0  0  0  0  0  0  0  0  # atno 17394 bound_to 11000
  141.2064  133.7835  157.0180 LP  0  0  0  0  0  0  0  0  0  0  0  0  # atno 17395 bound_to 11000

$$$$
