AV-unprocessed.smi:2400|AV-procd|sdf|9501|dock6
  -GOLD-   2272013133D 1   1.00000     0.00000
 Structure written by MMmdl.
 44 45  0  0  0  0  0  0  0  0  1 V2000
  148.1998  139.9739  154.3016 C   0  0  0  0  0  0  0  0  0  0  0  0
  148.9407  139.7667  155.4919 O   0  0  0  0  0  0  0  0  0  0  0  0
  150.2548  139.5422  155.2777 C   0  0  0  0  0  0  0  0  0  0  0  0
  150.9259  138.4803  154.7372 C   0  0  0  0  0  0  0  0  0  0  0  0
  150.4274  137.2543  154.2281 N   0  0  0  0  0  0  0  0  0  0  0  0
  150.6387  136.0254  154.7250 C   0  0  0  0  0  0  0  0  0  0  0  0
  151.2839  135.7784  155.7437 O   0  0  0  0  0  0  0  0  0  0  0  0
  150.0343  135.0890  153.9805 N   0  0  0  0  0  0  0  0  0  0  0  0
  150.0455  133.6519  154.2557 C   0  0  2  0  0  0  0  0  0  0  0  0
  149.1288  132.9080  153.2635 C   0  0  0  0  0  0  0  0  0  0  0  0
  148.0752  132.1854  154.1009 C   0  0  0  0  0  0  0  0  0  0  0  0
  148.7374  131.9979  155.4622 C   0  0  0  0  0  0  0  0  0  0  0  0
  149.5613  133.2776  155.6906 C   0  0  0  0  0  0  0  0  0  0  0  0
  150.7505  133.0046  156.6306 C   0  0  0  0  0  0  0  0  0  0  0  0
  148.6563  134.3544  156.3375 C   0  0  0  0  0  0  0  0  0  0  0  0
  152.3027  138.8227  154.8410 C   0  0  0  0  0  0  0  0  0  0  0  0
  153.5133  138.0320  154.4354 C   0  0  0  0  0  0  0  0  0  0  0  0
  152.4572  140.0335  155.3654 N   0  0  0  0  0  0  0  0  0  0  0  0
  151.2042  140.4800  155.6256 N   0  0  0  0  0  0  0  0  0  0  0  0
  151.0185  141.7859  156.2239 C   0  0  0  0  0  0  0  0  0  0  0  0
  147.1491  140.1256  154.5472 H   0  0  0  0  0  0  0  0  0  0  0  0
  148.2699  139.1083  153.6416 H   0  0  0  0  0  0  0  0  0  0  0  0
  148.5470  140.8536  153.7589 H   0  0  0  0  0  0  0  0  0  0  0  0
  149.7865  137.3267  153.4517 H   0  0  0  0  0  0  0  0  0  0  0  0
  149.5203  135.3891  153.1654 H   0  0  0  0  0  0  0  0  0  0  0  0
  151.0552  133.2668  154.0981 H   0  0  0  0  0  0  0  0  0  0  0  0
  148.6635  133.5677  152.5299 H   0  0  0  0  0  0  0  0  0  0  0  0
  149.7165  132.1780  152.7052 H   0  0  0  0  0  0  0  0  0  0  0  0
  147.1886  132.8122  154.2023 H   0  0  0  0  0  0  0  0  0  0  0  0
  147.7625  131.2414  153.6541 H   0  0  0  0  0  0  0  0  0  0  0  0
  148.0122  131.8057  156.2539 H   0  0  0  0  0  0  0  0  0  0  0  0
  149.3972  131.1301  155.4141 H   0  0  0  0  0  0  0  0  0  0  0  0
  150.4106  132.6736  157.6124 H   0  0  0  0  0  0  0  0  0  0  0  0
  151.3524  133.9021  156.7751 H   0  0  0  0  0  0  0  0  0  0  0  0
  151.4076  132.2303  156.2335 H   0  0  0  0  0  0  0  0  0  0  0  0
  148.2473  134.0055  157.2864 H   0  0  0  0  0  0  0  0  0  0  0  0
  147.8136  134.6168  155.6974 H   0  0  0  0  0  0  0  0  0  0  0  0
  149.2079  135.2711  156.5496 H   0  0  0  0  0  0  0  0  0  0  0  0
  153.2365  137.0699  154.0044 H   0  0  0  0  0  0  0  0  0  0  0  0
  154.1586  137.8367  155.2919 H   0  0  0  0  0  0  0  0  0  0  0  0
  154.1004  138.5695  153.6906 H   0  0  0  0  0  0  0  0  0  0  0  0
  150.0313  142.1746  155.9731 H   0  0  0  0  0  0  0  0  0  0  0  0
  151.7731  142.4807  155.8533 H   0  0  0  0  0  0  0  0  0  0  0  0
  151.1052  141.7065  157.3076 H   0  0  0  0  0  0  0  0  0  0  0  0
  1  2  1  0  0  0  0
  1 21  1  0  0  0  0
  1 22  1  0  0  0  0
  1 23  1  0  0  0  0
  2  3  1  0  0  0  0
  3 19  1  0  0  0  0
  3  4  2  0  0  0  0
  4  5  1  0  0  0  0
  4 16  1  0  0  0  0
  5  6  1  0  0  0  0
  5 24  1  0  0  0  0
  6  7  2  0  0  0  0
  6  8  1  0  0  0  0
  8  9  1  0  0  0  0
  8 25  1  0  0  0  0
  9 13  1  0  0  0  0
  9 10  1  0  0  0  0
  9 26  1  0  0  0  0
 10 11  1  0  0  0  0
 10 27  1  0  0  0  0
 10 28  1  0  0  0  0
 11 12  1  0  0  0  0
 11 29  1  0  0  0  0
 11 30  1  0  0  0  0
 12 13  1  0  0  0  0
 12 31  1  0  0  0  0
 12 32  1  0  0  0  0
 13 14  1  0  0  0  0
 13 15  1  0  0  0  0
 14 33  1  0  0  0  0
 14 34  1  0  0  0  0
 14 35  1  0  0  0  0
 15 36  1  0  0  0  0
 15 37  1  0  0  0  0
 15 38  1  0  0  0  0
 16 17  1  0  0  0  0
 16 18  2  0  0  0  0
 17 39  1  0  0  0  0
 17 40  1  0  0  0  0
 17 41  1  0  0  0  0
 18 19  1  0  0  0  0
 19 20  1  0  0  0  0
 20 42  1  0  0  0  0
 20 43  1  0  0  0  0
 20 44  1  0  0  0  0
M  END
> <s_m_source_file>
AV-unprocessed.smi

> <i_m_source_file_index>
2400

> <i_lp_mmshare_version>
43012

> <i_f3d_flags>
0

> <s_epik_input>
W0NIM11uMW5jKFtDSDNdKWMoYzFPW0NIM10pW05IXUMoPU8pW05IXVtDQEBIXShDMihbQ0gzXSlbQ0gzXSlbQ0gyXVtDSDJdW0NIMl0y

> <s_epik_cmdline>
J2VwaWtfcHl0aG9uJywgJy1waCcsICc3LjAnLCAnLXRuJywgJzgnLCAnLW1hJywgJzIwMCcsICctbWV0YWxfYmluZGluZycsICctaW1hZScsICc8aW5maWxlLm1hZT4nLCAnLW9tYWUnLCAnPG91dGZpbGUubWFlPic=

> <r_lp_tautomer_probability>
1

> <r_epik_Ionization_Penalty>
0.000423583

> <r_epik_Ionization_Penalty_Charging>
0

> <r_epik_Ionization_Penalty_Neutral>
0.000423583

> <r_epik_State_Penalty>
-0

> <r_epik_Charging_Adjusted_Penalty>
0

> <i_epik_Tot_Q>
0

> <i_epik_Tot_abs_Q>
0

> <r_epik_Metal_State_Penalty>
-0

> <b_epik_Metal_Only>
0

> <s_lp_Force_Field>
OPLS_2005

> <r_lp_Energy>
29.9339

> <b_lp_Chiralities_Consistent>
1

> <s_lp_Variant>
AV-unprocessed.smi:2400-1

> <Gold.Version>
5.8.1

> <Gold.Id.Protein>
6NUR|6NUR_protein|mol2

> <Gold.PLP.Fitness>
38.1414

> <Gold.PLP.PLP>
-29.7890

> <Gold.PLP.part.hbond>
-6.7693

> <Gold.PLP.part.metal>
0.0000

> <Gold.PLP.part.buried>
3.6180

> <Gold.PLP.part.nonpolar>
-25.9045

> <Gold.PLP.part.repulsive>
0.2199

> <Gold.PLP.ligand.clash>
0.0000

> <Gold.PLP.ligand.torsion>
0.7352

> <Gold.PLP.Chemscore.Hbond>
3.2709

> <Gold.PLP.Chemscore.CHOScore>
0.0000

> <Gold.PLP.Chemscore.Metal>
0.0000

> <Gold.Chemscore.Hbonds>
donor molecule, donor type, donor heavy atom, donor atom, acceptor molecule, acceptor atom, score
      L1  H     5    24       P1  7948  0.77
      L1  H     8    25       P1  7948  0.50
      P1  H  7997  8008       L1    18  0.96
      P1  H 10752 10765       L1     7  1.00

> <Gold.PLP.Chemscore.Internal.Correction>
0.0101

> <Gold.Rescore>
     Score         DG    S(hbond)    S(metal)    S(lipo)     H(rot)  DE(clash)    DE(int)     intcor
     14.19     -19.05       2.45        0.00      72.60       1.21       3.41       1.44       ----

> <Gold.Chemscore.Fitness>
14.1947

> <Gold.Chemscore.DG>
-19.0457

> <Gold.Chemscore.ZeroCoef>
-5.4800

> <Gold.Chemscore.Hbond>
2.4471

> <Gold.Chemscore.Metal>
0.0000

> <Gold.Chemscore.Lipo>
72.6037

> <Gold.Chemscore.Internal_Hbond>
0.0000

> <Gold.Chemscore.DEClash>
3.4123

> <Gold.Chemscore.DEInternal>
1.4388

> <Gold.Chemscore.Rot>
1.2119

> <Gold.Chemscore.Internal.Correction>
   9.000000E+99

> <Gold.Chemscore.Hbonds>
donor molecule, donor type, donor heavy atom, donor atom, acceptor molecule, acceptor atom, score
      L1  H     5    24       P1  7948  0.48
      L1  H     8    25       P1  7948  0.02
      P1  H  7997  8008       L1    18  0.60
      P1  H 10752 10765       L1     7  0.38

> <Gold.Chemscore.Hbond.Weighted>
-8.1735

> <Gold.Chemscore.Metal.Weighted>
-0.0000

> <Gold.Chemscore.Lipo.Weighted>
-8.4946

> <Gold.Chemscore.Internal_Hbond.Weighted>
0.0000

> <Gold.Chemscore.DEClash.Weighted>
3.4123

> <Gold.Chemscore.DEInternal.Weighted>
1.4388

> <Gold.Chemscore.Rot.Weighted>
3.1024

> <Gold.Chemscore.Internal.Correction.Weighted>
   9.000000E+99

> <Gold.Protein.RotatedTorsions>
[ 6907 6896 6895 6894 ] final  -27.85 input  -60.11 | X-H torsion
[ 7974 7965 7964 7962 ] final   -3.58 input  175.53 | X-H torsion
[ 8008 7997 7996 7995 ] final  -22.22 input   59.86 | X-H torsion
[ 10167 10162 10161 10158 ] final   12.02 input  -65.29 | X-H torsion
[ 10718 10713 10712 10709 ] final   -6.98 input   66.30 | X-H torsion
[ 10763 10752 10751 10750 ] final -149.52 input  -60.55 | X-H torsion
[ 11005 11000 10999 10996 ] final   30.49 input  -57.11 | X-H torsion

> <Gold.Protein.ActiveResidues>
 VAL166  LYS551  ARG553  GLY616  TRP617  ASP618  TYR619  PRO620  LYS621  CYS622 
 ASP623  PHE694  ASN695  SER759  ASP760  ASP761  ALA762  ILE779  LEU786  VAL792 
 PHE793  MET794  SER795  GLU796  ALA797  LYS798  CYS799  TRP800  GLU811  SER814 

> <Gold.Protein.RotatedAtoms>
  151.1411  135.0180  159.8625 H   0  0  0  0  0  0  0  0  0  0  0  0  # atno 6907 bound_to 6896
  152.5452  134.1498  159.8523 H   0  0  0  0  0  0  0  0  0  0  0  0  # atno 6908 bound_to 6896
  151.1573  133.4822  159.2627 H   0  0  0  0  0  0  0  0  0  0  0  0  # atno 6909 bound_to 6896
  146.2387  140.1743  142.8332 H   0  0  0  0  0  0  0  0  0  0  0  0  # atno 7974 bound_to 7965
  154.4657  140.2013  156.0125 H   0  0  0  0  0  0  0  0  0  0  0  0  # atno 8008 bound_to 7997
  156.0922  140.3256  155.7802 H   0  0  0  0  0  0  0  0  0  0  0  0  # atno 8009 bound_to 7997
  155.4937  140.0548  157.2940 H   0  0  0  0  0  0  0  0  0  0  0  0  # atno 8010 bound_to 7997
  140.6095  143.8438  150.7050 H   0  0  0  0  0  0  0  0  0  0  0  0  # atno 10167 bound_to 10162
  156.7240  130.5159  149.5861 H   0  0  0  0  0  0  0  0  0  0  0  0  # atno 10718 bound_to 10713
  154.8172  135.3307  154.7142 H   0  0  0  0  0  0  0  0  0  0  0  0  # atno 10763 bound_to 10752
  153.7781  135.6920  153.4898 H   0  0  0  0  0  0  0  0  0  0  0  0  # atno 10764 bound_to 10752
  153.1999  135.4520  155.0201 H   0  0  0  0  0  0  0  0  0  0  0  0  # atno 10765 bound_to 10752
  140.2938  134.2834  155.7769 H   0  0  0  0  0  0  0  0  0  0  0  0  # atno 11005 bound_to 11000
  144.9986  140.8611  143.5296 LP  0  0  0  0  0  0  0  0  0  0  0  0  # atno 17320 bound_to 7965
  145.1759  139.2378  143.5317 LP  0  0  0  0  0  0  0  0  0  0  0  0  # atno 17321 bound_to 7965
  140.2003  143.3965  152.1797 LP  0  0  0  0  0  0  0  0  0  0  0  0  # atno 17342 bound_to 10162
  139.5350  144.7200  151.4924 LP  0  0  0  0  0  0  0  0  0  0  0  0  # atno 17343 bound_to 10162
  156.1575  130.6351  151.0676 LP  0  0  0  0  0  0  0  0  0  0  0  0  # atno 17370 bound_to 10713
  157.6886  131.0817  150.7171 LP  0  0  0  0  0  0  0  0  0  0  0  0  # atno 17371 bound_to 10713
  141.2141  133.7602  156.9665 LP  0  0  0  0  0  0  0  0  0  0  0  0  # atno 17394 bound_to 11000
  140.1171  134.9440  157.2150 LP  0  0  0  0  0  0  0  0  0  0  0  0  # atno 17395 bound_to 11000

$$$$
