AV-unprocessed.smi:290|AV-procd|sdf|2224|dock9
  -GOLD-   2262022 73D 1   1.00000     0.00000
 Structure written by MMmdl.
 59 62  0  0  0  0  0  0  0  0  2 V2000
  146.4244  127.4746  153.6274 C   0  0  0  0  0  0  0  0  0  0  0  0
  146.8082  128.5120  152.5609 C   0  0  1  0  0  0  0  0  0  0  0  0
  145.7424  128.7217  151.6359 O   0  0  0  0  0  0  0  0  0  0  0  0
  145.5506  130.1123  151.4043 C   0  0  0  0  0  0  0  0  0  0  0  0
  146.8290  130.7830  151.8956 C   0  0  0  0  0  0  0  0  0  0  0  0
  147.2287  129.9081  153.0755 C   0  0  1  0  0  0  0  0  0  0  0  0
  146.4419  130.2792  154.1955 O   0  0  0  0  0  0  0  0  0  0  0  0
  148.7070  130.0459  153.5245 C   0  0  0  0  0  0  0  0  0  0  0  0
  149.1214  131.3960  153.8736 N   0  0  0  0  0  0  0  0  0  0  0  0
  149.0433  132.5188  153.0787 C   0  0  0  0  0  0  0  0  0  0  0  0
  149.4778  133.6220  153.6255 N   0  0  0  0  0  0  0  0  0  0  0  0
  149.8689  133.2316  154.8992 C   0  0  0  0  0  0  0  0  0  0  0  0
  150.4198  133.9157  156.0130 C   0  0  0  0  0  0  0  0  0  0  0  0
  150.6843  135.2404  155.9688 N   0  0  0  0  0  0  0  0  0  0  0  0
  151.6599  135.6877  156.9507 C   0  0  0  0  0  0  0  0  0  0  0  0
  151.5426  137.2165  156.9946 C   0  0  0  0  0  0  0  0  0  0  0  0
  150.1768  137.5332  156.3475 C   0  0  1  0  0  0  0  0  0  0  0  0
  150.2401  138.4151  155.1399 N   0  3  2  0  0  0  0  0  0  0  0  0
  151.2294  138.0191  154.1045 C   0  0  0  0  0  0  0  0  0  0  0  0
  150.3216  139.8620  155.4646 C   0  0  0  0  0  0  0  0  0  0  0  0
  149.3249  140.6977  154.6438 C   0  0  0  0  0  0  0  0  0  0  0  0
  149.8569  140.9589  153.3624 O   0  0  0  0  0  0  0  0  0  0  0  0
  149.5513  136.1483  156.0865 C   0  0  1  0  0  0  0  0  0  0  0  0
  148.5332  136.0471  154.9328 C   0  0  0  0  0  0  0  0  0  0  0  0
  150.6793  133.1981  157.1378 N   0  0  0  0  0  0  0  0  0  0  0  0
  150.4138  131.8882  157.1679 C   0  0  0  0  0  0  0  0  0  0  0  0
  149.9000  131.1181  156.2059 N   0  0  0  0  0  0  0  0  0  0  0  0
  149.6426  131.8390  155.0769 C   0  0  0  0  0  0  0  0  0  0  0  0
  149.5442  138.0258  157.0857 H   0  0  0  0  0  0  0  0  0  0  0  0
  149.0185  135.8777  157.0002 H   0  0  0  0  0  0  0  0  0  0  0  0
  147.2396  127.3214  154.3349 H   0  0  0  0  0  0  0  0  0  0  0  0
  146.2017  126.5126  153.1659 H   0  0  0  0  0  0  0  0  0  0  0  0
  145.5415  127.7801  154.1891 H   0  0  0  0  0  0  0  0  0  0  0  0
  147.6108  128.0932  151.9558 H   0  0  0  0  0  0  0  0  0  0  0  0
  145.3460  130.3177  150.3533 H   0  0  0  0  0  0  0  0  0  0  0  0
  144.6934  130.4495  151.9882 H   0  0  0  0  0  0  0  0  0  0  0  0
  147.5730  130.7315  151.1016 H   0  0  0  0  0  0  0  0  0  0  0  0
  146.6893  131.8332  152.1544 H   0  0  0  0  0  0  0  0  0  0  0  0
  146.8035  129.8708  154.9670 H   0  0  0  0  0  0  0  0  0  0  0  0
  148.8954  129.4044  154.3866 H   0  0  0  0  0  0  0  0  0  0  0  0
  149.3680  129.6877  152.7337 H   0  0  0  0  0  0  0  0  0  0  0  0
  148.6551  132.4922  152.0707 H   0  0  0  0  0  0  0  0  0  0  0  0
  151.4367  135.2658  157.9321 H   0  0  0  0  0  0  0  0  0  0  0  0
  152.6657  135.3725  156.6710 H   0  0  0  0  0  0  0  0  0  0  0  0
  151.5808  137.5692  158.0257 H   0  0  0  0  0  0  0  0  0  0  0  0
  152.3808  137.6828  156.4803 H   0  0  0  0  0  0  0  0  0  0  0  0
  152.2458  138.2958  154.3835 H   0  0  0  0  0  0  0  0  0  0  0  0
  151.0013  138.5259  153.1665 H   0  0  0  0  0  0  0  0  0  0  0  0
  151.2110  136.9489  153.9037 H   0  0  0  0  0  0  0  0  0  0  0  0
  150.1530  140.0071  156.5325 H   0  0  0  0  0  0  0  0  0  0  0  0
  151.3274  140.2360  155.2651 H   0  0  0  0  0  0  0  0  0  0  0  0
  148.3576  140.2064  154.5446 H   0  0  0  0  0  0  0  0  0  0  0  0
  149.1458  141.6518  155.1401 H   0  0  0  0  0  0  0  0  0  0  0  0
  149.6978  140.2079  152.8103 H   0  0  0  0  0  0  0  0  0  0  0  0
  147.7376  136.7830  155.0516 H   0  0  0  0  0  0  0  0  0  0  0  0
  148.0640  135.0631  154.9113 H   0  0  0  0  0  0  0  0  0  0  0  0
  148.9934  136.2057  153.9582 H   0  0  0  0  0  0  0  0  0  0  0  0
  150.6484  131.3838  158.0937 H   0  0  0  0  0  0  0  0  0  0  0  0
  149.3416  138.3074  154.6901 H   0  0  0  0  0  0  0  0  0  0  0  0
  1  2  1  0  0  0  0
  1 31  1  0  0  0  0
  1 32  1  0  0  0  0
  1 33  1  0  0  0  0
  2  6  1  0  0  0  0
  2  3  1  0  0  0  0
  2 34  1  0  0  0  0
  3  4  1  0  0  0  0
  4  5  1  0  0  0  0
  4 35  1  0  0  0  0
  4 36  1  0  0  0  0
  5  6  1  0  0  0  0
  5 37  1  0  0  0  0
  5 38  1  0  0  0  0
  6  7  1  0  0  0  0
  6  8  1  0  0  0  0
  7 39  1  0  0  0  0
  8  9  1  0  0  0  0
  8 40  1  0  0  0  0
  8 41  1  0  0  0  0
  9 28  1  0  0  0  0
  9 10  1  0  0  0  0
 10 11  2  0  0  0  0
 10 42  1  0  0  0  0
 11 12  1  0  0  0  0
 12 28  2  0  0  0  0
 12 13  1  0  0  0  0
 13 14  1  0  0  0  0
 13 25  2  0  0  0  0
 14 23  1  0  0  0  0
 14 15  1  0  0  0  0
 15 16  1  0  0  0  0
 15 43  1  0  0  0  0
 15 44  1  0  0  0  0
 16 17  1  0  0  0  0
 16 45  1  0  0  0  0
 16 46  1  0  0  0  0
 17 29  1  0  0  0  0
 17 18  1  0  0  0  0
 17 23  1  0  0  0  0
 18 19  1  0  0  0  0
 18 20  1  0  0  0  0
 18 59  1  0  0  0  0
 19 47  1  0  0  0  0
 19 48  1  0  0  0  0
 19 49  1  0  0  0  0
 20 21  1  0  0  0  0
 20 50  1  0  0  0  0
 20 51  1  0  0  0  0
 21 22  1  0  0  0  0
 21 52  1  0  0  0  0
 21 53  1  0  0  0  0
 22 54  1  0  0  0  0
 23 30  1  0  0  0  0
 23 24  1  0  0  0  0
 24 55  1  0  0  0  0
 24 56  1  0  0  0  0
 24 57  1  0  0  0  0
 25 26  1  0  0  0  0
 26 27  2  0  0  0  0
 26 58  1  0  0  0  0
 27 28  1  0  0  0  0
M  CHG  1  18   1
M  END
> <s_m_source_file>
AV-unprocessed.smi

> <i_m_source_file_index>
290

> <i_lp_mmshare_version>
43012

> <i_f3d_flags>
0

> <s_epik_input>
W0NIMl0xW0NIMl1PW0NAQEhdKFtDSDNdKVtDQEBdMShbT0hdKVtDSDJdbihbY0hdbjIpYyhjMjMpbltjSF1uYzNONFtDSDJdW0NIMl1bQ0BIXShbQ0BIXTRbQ0gzXSlOKFtDSDNdKVtDSDJdW0NIMl1bT0hd

> <s_epik_cmdline>
J2VwaWtfcHl0aG9uJywgJy1waCcsICc3LjAnLCAnLXRuJywgJzgnLCAnLW1hJywgJzIwMCcsICctbWV0YWxfYmluZGluZycsICctaW1hZScsICc8aW5maWxlLm1hZT4nLCAnLW9tYWUnLCAnPG91dGZpbGUubWFlPic=

> <r_lp_tautomer_probability>
1

> <r_epik_Ionization_Penalty>
0.0036983

> <r_epik_Ionization_Penalty_Charging>
0.0032725

> <r_epik_Ionization_Penalty_Neutral>
0.000425798

> <r_epik_State_Penalty>
-0

> <r_epik_Charging_Adjusted_Penalty>
0.0032725

> <i_epik_Tot_Q>
1

> <i_epik_Tot_abs_Q>
1

> <r_epik_Metal_State_Penalty>
-0

> <b_epik_Metal_Only>
0

> <s_lp_Force_Field>
OPLS_2005

> <r_lp_Energy>
72.0744

> <b_lp_Chiralities_Consistent>
1

> <s_lp_Variant>
AV-unprocessed.smi:290-10

> <Gold.Version>
5.8.1

> <Gold.Id.Protein>
6NUR|6NUR_protein|mol2

> <Gold.PLP.Fitness>
44.1767

> <Gold.PLP.PLP>
-38.7893

> <Gold.PLP.part.hbond>
-4.2391

> <Gold.PLP.part.metal>
0.0000

> <Gold.PLP.part.buried>
-4.5103

> <Gold.PLP.part.nonpolar>
-30.5930

> <Gold.PLP.part.repulsive>
0.3893

> <Gold.PLP.ligand.clash>
0.0000

> <Gold.PLP.ligand.torsion>
1.5103

> <Gold.PLP.Chemscore.Hbond>
2.0587

> <Gold.PLP.Chemscore.CHOScore>
0.6825

> <Gold.PLP.Chemscore.Metal>
0.0000

> <Gold.Chemscore.Hbonds>
donor molecule, donor type, donor heavy atom, donor atom, acceptor molecule, acceptor atom, score
      L1  H    22    54       P1  7957  0.64
      P1  H  6896  6909       L1    25  0.18
      P1  H  7989  7998       L1    22  0.22
      P1  H  8011  8017       L1    22  1.00
      L1  C    10    42       P1 10747  1.00

> <Gold.PLP.Chemscore.Internal.Correction>
0.1846

> <Gold.Rescore>
     Score         DG    S(hbond)    S(metal)    S(lipo)     H(rot)  DE(clash)    DE(int)     intcor
      6.41     -10.19       1.41        0.00      80.26       3.67       0.45       3.33       ----

> <Gold.Chemscore.Fitness>
6.4116

> <Gold.Chemscore.DG>
-10.1859

> <Gold.Chemscore.ZeroCoef>
-5.4800

> <Gold.Chemscore.Hbond>
1.4071

> <Gold.Chemscore.Metal>
0.0000

> <Gold.Chemscore.Lipo>
80.2633

> <Gold.Chemscore.Internal_Hbond>
0.0000

> <Gold.Chemscore.DEClash>
0.4467

> <Gold.Chemscore.DEInternal>
3.3277

> <Gold.Chemscore.Rot>
3.6658

> <Gold.Chemscore.Internal.Correction>
   9.000000E+99

> <Gold.Chemscore.Hbonds>
donor molecule, donor type, donor heavy atom, donor atom, acceptor molecule, acceptor atom, score
      L1  H    22    54       P1  7957  0.64
      P1  H  6896  6909       L1    25  0.03
      P1  H  7989  7998       L1    22  0.04
      P1  H  8011  8017       L1    22  0.64

> <Gold.Chemscore.Hbond.Weighted>
-4.6996

> <Gold.Chemscore.Metal.Weighted>
-0.0000

> <Gold.Chemscore.Lipo.Weighted>
-9.3908

> <Gold.Chemscore.Internal_Hbond.Weighted>
0.0000

> <Gold.Chemscore.DEClash.Weighted>
0.4467

> <Gold.Chemscore.DEInternal.Weighted>
3.3277

> <Gold.Chemscore.Rot.Weighted>
9.3844

> <Gold.Chemscore.Internal.Correction.Weighted>
   9.000000E+99

> <Gold.Protein.RotatedTorsions>
[ 6907 6896 6895 6894 ] final  -54.71 input  -60.11 | X-H torsion
[ 7974 7965 7964 7962 ] final -131.77 input  175.53 | X-H torsion
[ 8008 7997 7996 7995 ] final  -99.82 input   59.86 | X-H torsion
[ 10167 10162 10161 10158 ] final   90.69 input  -65.29 | X-H torsion
[ 10718 10713 10712 10709 ] final   31.89 input   66.30 | X-H torsion
[ 10763 10752 10751 10750 ] final   52.46 input  -60.55 | X-H torsion
[ 11005 11000 10999 10996 ] final  -45.95 input  -57.11 | X-H torsion

> <Gold.Protein.ActiveResidues>
 VAL166  LYS551  ARG553  GLY616  TRP617  ASP618  TYR619  PRO620  LYS621  CYS622 
 ASP623  PHE694  ASN695  SER759  ASP760  ASP761  ALA762  ILE779  LEU786  VAL792 
 PHE793  MET794  SER795  GLU796  ALA797  LYS798  CYS799  TRP800  GLU811  SER814 

> <Gold.Protein.RotatedAtoms>
  150.8314  134.7569  159.6856 H   0  0  0  0  0  0  0  0  0  0  0  0  # atno 6907 bound_to 6896
  152.4418  134.5572  159.9894 H   0  0  0  0  0  0  0  0  0  0  0  0  # atno 6908 bound_to 6896
  151.5733  133.3349  159.3029 H   0  0  0  0  0  0  0  0  0  0  0  0  # atno 6909 bound_to 6896
  144.9348  140.7171  143.4883 H   0  0  0  0  0  0  0  0  0  0  0  0  # atno 7974 bound_to 7965
  154.8201  140.0445  157.1404 H   0  0  0  0  0  0  0  0  0  0  0  0  # atno 8008 bound_to 7997
  154.9270  140.3034  155.5167 H   0  0  0  0  0  0  0  0  0  0  0  0  # atno 8009 bound_to 7997
  156.2979  140.2330  156.4326 H   0  0  0  0  0  0  0  0  0  0  0  0  # atno 8010 bound_to 7997
  139.8448  144.6623  150.9240 H   0  0  0  0  0  0  0  0  0  0  0  0  # atno 10167 bound_to 10162
  157.2783  130.7242  149.6542 H   0  0  0  0  0  0  0  0  0  0  0  0  # atno 10718 bound_to 10713
  152.9789  135.5811  154.4582 H   0  0  0  0  0  0  0  0  0  0  0  0  # atno 10763 bound_to 10752
  154.4162  135.2771  155.2007 H   0  0  0  0  0  0  0  0  0  0  0  0  # atno 10764 bound_to 10752
  154.3776  135.6154  153.5827 H   0  0  0  0  0  0  0  0  0  0  0  0  # atno 10765 bound_to 10752
  141.0548  133.6730  156.3085 H   0  0  0  0  0  0  0  0  0  0  0  0  # atno 11005 bound_to 11000
  145.3084  139.1827  143.4652 LP  0  0  0  0  0  0  0  0  0  0  0  0  # atno 17320 bound_to 7965
  146.3262  140.3085  142.8625 LP  0  0  0  0  0  0  0  0  0  0  0  0  # atno 17321 bound_to 7965
  140.7794  143.3880  151.1359 LP  0  0  0  0  0  0  0  0  0  0  0  0  # atno 17342 bound_to 10162
  139.7523  143.8759  152.3080 LP  0  0  0  0  0  0  0  0  0  0  0  0  # atno 17343 bound_to 10162
  155.9664  130.4346  150.5056 LP  0  0  0  0  0  0  0  0  0  0  0  0  # atno 17370 bound_to 10713
  157.2994  131.0642  151.2078 LP  0  0  0  0  0  0  0  0  0  0  0  0  # atno 17371 bound_to 10713
  140.5985  134.5578  157.5513 LP  0  0  0  0  0  0  0  0  0  0  0  0  # atno 17394 bound_to 11000
  139.9381  134.7838  156.0750 LP  0  0  0  0  0  0  0  0  0  0  0  0  # atno 17395 bound_to 11000

$$$$
