AV-unprocessed.smi:1662|AV-procd|sdf|6664|dock6
  -GOLD-   22720 7373D 1   1.00000     0.00000
 Structure written by MMmdl.
 47 48  0  0  0  0  0  0  0  0  1 V2000
  155.4812  139.5257  163.7150 C   0  0  0  0  0  0  0  0  0  0  0  0
  155.2492  138.2972  162.8775 C   0  0  0  0  0  0  0  0  0  0  0  0
  154.3784  138.3979  161.9276 N   0  0  0  0  0  0  0  0  0  0  0  0
  154.0846  137.3277  161.1049 N   0  0  0  0  0  0  0  0  0  0  0  0
  153.0552  137.6095  160.0943 C   0  0  0  0  0  0  0  0  0  0  0  0
  153.2756  138.9498  159.3795 C   0  0  0  0  0  0  0  0  0  0  0  0
  154.3656  139.2150  158.8711 O   0  0  0  0  0  0  0  0  0  0  0  0
  152.2187  139.7750  159.3348 N   0  0  0  0  0  0  0  0  0  0  0  0
  152.2007  141.1038  158.7273 C   0  0  1  0  0  0  0  0  0  0  0  0
  151.0247  141.1927  157.7342 C   0  0  0  0  0  0  0  0  0  0  0  0
  150.8934  142.5958  157.1257 C   0  0  0  0  0  0  0  0  0  0  0  0
  150.7812  143.6678  158.2211 C   0  0  0  0  0  0  0  0  0  0  0  0
  151.9626  143.6162  159.2114 C   0  0  2  0  0  0  0  0  0  0  0  0
  153.2605  144.1540  158.5743 C   0  0  0  0  0  0  0  0  0  0  0  0
  152.0945  142.1955  159.8231 C   0  0  2  0  0  0  0  0  0  0  0  0
  153.2240  142.1074  160.8691 C   0  0  0  0  0  0  0  0  0  0  0  0
  154.6680  136.0974  161.1924 C   0  0  0  0  0  0  0  0  0  0  0  0
  154.3802  135.1723  160.4309 O   0  0  0  0  0  0  0  0  0  0  0  0
  155.6547  135.9913  162.2694 C   0  0  0  0  0  0  0  0  0  0  0  0
  156.2861  134.7178  162.3989 C   0  0  0  0  0  0  0  0  0  0  0  0
  156.8145  133.6939  162.5097 N   0  0  0  0  0  0  0  0  0  0  0  0
  155.9467  137.0326  163.0884 C   0  0  0  0  0  0  0  0  0  0  0  0
  156.9608  136.9734  164.2228 C   0  0  0  0  0  0  0  0  0  0  0  0
  156.5229  139.8422  163.6587 H   0  0  0  0  0  0  0  0  0  0  0  0
  155.2421  139.3313  164.7606 H   0  0  0  0  0  0  0  0  0  0  0  0
  154.8648  140.3643  163.3871 H   0  0  0  0  0  0  0  0  0  0  0  0
  153.0406  136.8236  159.3371 H   0  0  0  0  0  0  0  0  0  0  0  0
  152.0655  137.5890  160.5555 H   0  0  0  0  0  0  0  0  0  0  0  0
  151.3635  139.4689  159.7755 H   0  0  0  0  0  0  0  0  0  0  0  0
  153.1315  141.2609  158.1800 H   0  0  0  0  0  0  0  0  0  0  0  0
  151.1512  140.4594  156.9368 H   0  0  0  0  0  0  0  0  0  0  0  0
  150.0942  140.9358  158.2427 H   0  0  0  0  0  0  0  0  0  0  0  0
  151.7521  142.8012  156.4861 H   0  0  0  0  0  0  0  0  0  0  0  0
  150.0163  142.6359  156.4794 H   0  0  0  0  0  0  0  0  0  0  0  0
  150.7097  144.6570  157.7682 H   0  0  0  0  0  0  0  0  0  0  0  0
  149.8489  143.5196  158.7677 H   0  0  0  0  0  0  0  0  0  0  0  0
  151.7190  144.2994  160.0263 H   0  0  0  0  0  0  0  0  0  0  0  0
  153.6255  143.5101  157.7748 H   0  0  0  0  0  0  0  0  0  0  0  0
  154.0581  144.2510  159.3106 H   0  0  0  0  0  0  0  0  0  0  0  0
  153.1016  145.1451  158.1488 H   0  0  0  0  0  0  0  0  0  0  0  0
  151.1661  142.0102  160.3662 H   0  0  0  0  0  0  0  0  0  0  0  0
  154.2082  142.1591  160.4030 H   0  0  0  0  0  0  0  0  0  0  0  0
  153.1792  141.1731  161.4291 H   0  0  0  0  0  0  0  0  0  0  0  0
  153.1523  142.9189  161.5935 H   0  0  0  0  0  0  0  0  0  0  0  0
  157.4351  135.9958  164.3025 H   0  0  0  0  0  0  0  0  0  0  0  0
  156.4783  137.1815  165.1783 H   0  0  0  0  0  0  0  0  0  0  0  0
  157.7514  137.7084  164.0689 H   0  0  0  0  0  0  0  0  0  0  0  0
  1  2  1  0  0  0  0
  1 24  1  0  0  0  0
  1 25  1  0  0  0  0
  1 26  1  0  0  0  0
  2 22  1  0  0  0  0
  2  3  2  0  0  0  0
  3  4  1  0  0  0  0
  4  5  1  0  0  0  0
  4 17  1  0  0  0  0
  5  6  1  0  0  0  0
  5 27  1  0  0  0  0
  5 28  1  0  0  0  0
  6  7  2  0  0  0  0
  6  8  1  0  0  0  0
  8  9  1  0  0  0  0
  8 29  1  0  0  0  0
  9 15  1  0  0  0  0
  9 10  1  0  0  0  0
  9 30  1  0  0  0  0
 10 11  1  0  0  0  0
 10 31  1  0  0  0  0
 10 32  1  0  0  0  0
 11 12  1  0  0  0  0
 11 33  1  0  0  0  0
 11 34  1  0  0  0  0
 12 13  1  0  0  0  0
 12 35  1  0  0  0  0
 12 36  1  0  0  0  0
 13 14  1  0  0  0  0
 13 15  1  0  0  0  0
 13 37  1  0  0  0  0
 14 38  1  0  0  0  0
 14 39  1  0  0  0  0
 14 40  1  0  0  0  0
 15 16  1  0  0  0  0
 15 41  1  0  0  0  0
 16 42  1  0  0  0  0
 16 43  1  0  0  0  0
 16 44  1  0  0  0  0
 17 18  2  0  0  0  0
 17 19  1  0  0  0  0
 19 20  1  0  0  0  0
 19 22  2  0  0  0  0
 20 21  3  0  0  0  0
 22 23  1  0  0  0  0
 23 45  1  0  0  0  0
 23 46  1  0  0  0  0
 23 47  1  0  0  0  0
M  END
> <s_m_source_file>
AV-unprocessed.smi

> <i_m_source_file_index>
1662

> <i_lp_mmshare_version>
43012

> <i_f3d_flags>
0

> <s_epik_input>
TiNDYyhjMVtDSDNdKWMoPU8pbihuYzFbQ0gzXSlbQ0gyXUMoPU8pW05IXVtDQEBIXTJbQ0gyXVtDSDJdW0NIMl1bQ0BASF0oW0NIM10pW0NASF0yW0NIM10=

> <s_epik_cmdline>
J2VwaWtfcHl0aG9uJywgJy1waCcsICc3LjAnLCAnLXRuJywgJzgnLCAnLW1hJywgJzIwMCcsICctbWV0YWxfYmluZGluZycsICctaW1hZScsICc8aW5maWxlLm1hZT4nLCAnLW9tYWUnLCAnPG91dGZpbGUubWFlPic=

> <r_lp_tautomer_probability>
1

> <r_epik_Ionization_Penalty>
1.90709e-08

> <r_epik_Ionization_Penalty_Charging>
2.37982e-11

> <r_epik_Ionization_Penalty_Neutral>
1.90471e-08

> <r_epik_State_Penalty>
-0

> <r_epik_Charging_Adjusted_Penalty>
2.37982e-11

> <i_epik_Tot_Q>
0

> <i_epik_Tot_abs_Q>
0

> <r_epik_Metal_State_Penalty>
-0

> <b_epik_Metal_Only>
0

> <s_lp_Force_Field>
OPLS_2005

> <r_lp_Energy>
29.0639

> <b_lp_Chiralities_Consistent>
1

> <s_lp_Variant>
AV-unprocessed.smi:1662-8

> <Gold.Version>
5.8.1

> <Gold.Id.Protein>
6NUR|6NUR_protein|mol2

> <Gold.PLP.Fitness>
39.6339

> <Gold.PLP.PLP>
-34.2697

> <Gold.PLP.part.hbond>
-2.0000

> <Gold.PLP.part.metal>
0.0000

> <Gold.PLP.part.buried>
-4.5425

> <Gold.PLP.part.nonpolar>
-27.4783

> <Gold.PLP.part.repulsive>
0.1349

> <Gold.PLP.ligand.clash>
0.0000

> <Gold.PLP.ligand.torsion>
0.3206

> <Gold.PLP.Chemscore.Hbond>
2.0000

> <Gold.PLP.Chemscore.CHOScore>
0.0000

> <Gold.PLP.Chemscore.Metal>
0.0000

> <Gold.Chemscore.Hbonds>
donor molecule, donor type, donor heavy atom, donor atom, acceptor molecule, acceptor atom, score
      P1  H  6896  6907       L1    18  1.00
      P1  H  7997  8008       L1     7  1.00

> <Gold.PLP.Chemscore.Internal.Correction>
0.0055

> <Gold.Rescore>
     Score         DG    S(hbond)    S(metal)    S(lipo)     H(rot)  DE(clash)    DE(int)     intcor
     20.62     -20.95       2.00        0.00     106.92       1.45       0.06       0.28       ----

> <Gold.Chemscore.Fitness>
20.6176

> <Gold.Chemscore.DG>
-20.9485

> <Gold.Chemscore.ZeroCoef>
-5.4800

> <Gold.Chemscore.Hbond>
1.9974

> <Gold.Chemscore.Metal>
0.0000

> <Gold.Chemscore.Lipo>
106.9245

> <Gold.Chemscore.Internal_Hbond>
0.0000

> <Gold.Chemscore.DEClash>
0.0552

> <Gold.Chemscore.DEInternal>
0.2757

> <Gold.Chemscore.Rot>
1.4504

> <Gold.Chemscore.Internal.Correction>
   9.000000E+99

> <Gold.Chemscore.Hbonds>
donor molecule, donor type, donor heavy atom, donor atom, acceptor molecule, acceptor atom, score
      P1  H  6896  6907       L1    18  0.95
      P1  H  7997  8008       L1     7  0.96

> <Gold.Chemscore.Hbond.Weighted>
-6.6713

> <Gold.Chemscore.Metal.Weighted>
-0.0000

> <Gold.Chemscore.Lipo.Weighted>
-12.5102

> <Gold.Chemscore.Internal_Hbond.Weighted>
0.0000

> <Gold.Chemscore.DEClash.Weighted>
0.0552

> <Gold.Chemscore.DEInternal.Weighted>
0.2757

> <Gold.Chemscore.Rot.Weighted>
3.7129

> <Gold.Chemscore.Internal.Correction.Weighted>
   9.000000E+99

> <Gold.Protein.RotatedTorsions>
[ 6907 6896 6895 6894 ] final   74.53 input  -60.11 | X-H torsion
[ 7974 7965 7964 7962 ] final   33.71 input  175.53 | X-H torsion
[ 8008 7997 7996 7995 ] final  -93.76 input   59.86 | X-H torsion
[ 10167 10162 10161 10158 ] final -156.00 input  -65.29 | X-H torsion
[ 10718 10713 10712 10709 ] final  168.47 input   66.30 | X-H torsion
[ 10763 10752 10751 10750 ] final  179.50 input  -60.55 | X-H torsion
[ 11005 11000 10999 10996 ] final -142.29 input  -57.11 | X-H torsion

> <Gold.Protein.ActiveResidues>
 VAL166  LYS551  ARG553  GLY616  TRP617  ASP618  TYR619  PRO620  LYS621  CYS622 
 ASP623  PHE694  ASN695  SER759  ASP760  ASP761  ALA762  ILE779  LEU786  VAL792 
 PHE793  MET794  SER795  GLU796  ALA797  LYS798  CYS799  TRP800  GLU811  SER814 

> <Gold.Protein.RotatedAtoms>
  152.4980  134.4258  159.9495 H   0  0  0  0  0  0  0  0  0  0  0  0  # atno 6907 bound_to 6896
  151.4233  133.3685  159.2767 H   0  0  0  0  0  0  0  0  0  0  0  0  # atno 6908 bound_to 6896
  150.9207  134.8647  159.7546 H   0  0  0  0  0  0  0  0  0  0  0  0  # atno 6909 bound_to 6896
  146.1402  139.6362  142.9168 H   0  0  0  0  0  0  0  0  0  0  0  0  # atno 7974 bound_to 7965
  154.7398  140.0496  157.0801 H   0  0  0  0  0  0  0  0  0  0  0  0  # atno 8008 bound_to 7997
  155.0193  140.3145  155.4780 H   0  0  0  0  0  0  0  0  0  0  0  0  # atno 8009 bound_to 7997
  156.2861  140.2170  156.5310 H   0  0  0  0  0  0  0  0  0  0  0  0  # atno 8010 bound_to 7997
  139.6885  143.9460  152.2373 H   0  0  0  0  0  0  0  0  0  0  0  0  # atno 10167 bound_to 10162
  157.0367  131.0275  151.2727 H   0  0  0  0  0  0  0  0  0  0  0  0  # atno 10718 bound_to 10713
  154.5215  135.2794  155.1258 H   0  0  0  0  0  0  0  0  0  0  0  0  # atno 10763 bound_to 10752
  154.2814  135.6284  153.5352 H   0  0  0  0  0  0  0  0  0  0  0  0  # atno 10764 bound_to 10752
  152.9938  135.5652  154.5705 H   0  0  0  0  0  0  0  0  0  0  0  0  # atno 10765 bound_to 10752
  140.8240  134.2597  157.4887 H   0  0  0  0  0  0  0  0  0  0  0  0  # atno 11005 bound_to 11000
  145.5064  141.0436  143.2512 LP  0  0  0  0  0  0  0  0  0  0  0  0  # atno 17320 bound_to 7965
  144.7784  139.6579  143.7165 LP  0  0  0  0  0  0  0  0  0  0  0  0  # atno 17321 bound_to 7965
  139.9270  144.6765  150.8402 LP  0  0  0  0  0  0  0  0  0  0  0  0  # atno 17342 bound_to 10162
  140.7675  143.3335  151.2359 LP  0  0  0  0  0  0  0  0  0  0  0  0  # atno 17343 bound_to 10162
  157.5136  130.7954  149.7732 LP  0  0  0  0  0  0  0  0  0  0  0  0  # atno 17370 bound_to 10713
  156.0051  130.3859  150.2459 LP  0  0  0  0  0  0  0  0  0  0  0  0  # atno 17371 bound_to 10713
  139.8707  134.9550  156.4194 LP  0  0  0  0  0  0  0  0  0  0  0  0  # atno 17394 bound_to 11000
  140.9069  133.7739  155.9745 LP  0  0  0  0  0  0  0  0  0  0  0  0  # atno 17395 bound_to 11000

$$$$
