AV-unprocessed.smi:1685|AV-procd|sdf|6757|dock7
  -GOLD-   22720 7513D 1   1.00000     0.00000
 Structure written by MMmdl.
 40 41  0  0  0  0  0  0  0  0  1 V2000
  147.1012  139.0678  152.9160 C   0  0  0  0  0  0  0  0  0  0  0  0
  147.5688  139.0533  154.3754 C   0  0  0  0  0  0  0  0  0  0  0  0
  149.0575  139.1298  154.5025 C   0  0  0  0  0  0  0  0  0  0  0  0
  149.9038  138.1684  154.1558 N   0  0  0  0  0  0  0  0  0  0  0  0
  151.1435  138.6874  154.4781 N   0  0  0  0  0  0  0  0  0  0  0  0
  151.0387  139.8783  154.9929 N   0  0  0  0  0  0  0  0  0  0  0  0
  149.7158  140.1773  155.0199 N   0  0  0  0  0  0  0  0  0  0  0  0
  149.2502  141.4517  155.5434 C   0  0  0  0  0  0  0  0  0  0  0  0
  150.1020  141.9145  156.7269 C   0  0  0  0  0  0  0  0  0  0  0  0
  150.4013  141.1184  157.6162 O   0  0  0  0  0  0  0  0  0  0  0  0
  150.4875  143.2003  156.7230 N   0  0  0  0  0  0  0  0  0  0  0  0
  151.2812  143.8496  157.7606 C   0  0  0  0  0  0  0  0  0  0  0  0
  152.5632  143.0281  158.0161 C   0  0  0  0  0  0  0  0  0  0  0  0
  153.3346  143.5607  159.2364 C   0  0  0  0  0  0  0  0  0  0  0  0
  152.4379  143.5548  160.3986 N   0  0  0  0  0  0  0  0  0  0  0  0
  152.5183  142.7000  161.4467 C   0  0  0  0  0  0  0  0  0  0  0  0
  153.6637  141.6862  161.4993 C   0  0  0  0  0  0  0  0  0  0  0  0
  151.7008  142.6971  162.3672 O   0  0  0  0  0  0  0  0  0  0  0  0
  151.3260  144.4965  160.2257 C   0  0  0  0  0  0  0  0  0  0  0  0
  150.4498  144.0203  159.0529 C   0  0  0  0  0  0  0  0  0  0  0  0
  146.0141  139.0168  152.8558 H   0  0  0  0  0  0  0  0  0  0  0  0
  147.5059  138.2183  152.3653 H   0  0  0  0  0  0  0  0  0  0  0  0
  147.4208  139.9790  152.4092 H   0  0  0  0  0  0  0  0  0  0  0  0
  147.1316  139.8977  154.9092 H   0  0  0  0  0  0  0  0  0  0  0  0
  147.2052  138.1554  154.8753 H   0  0  0  0  0  0  0  0  0  0  0  0
  149.2780  142.1936  154.7446 H   0  0  0  0  0  0  0  0  0  0  0  0
  148.2088  141.3578  155.8552 H   0  0  0  0  0  0  0  0  0  0  0  0
  150.1950  143.7777  155.9476 H   0  0  0  0  0  0  0  0  0  0  0  0
  151.5876  144.8386  157.4146 H   0  0  0  0  0  0  0  0  0  0  0  0
  152.3059  141.9814  158.1869 H   0  0  0  0  0  0  0  0  0  0  0  0
  153.2028  143.0486  157.1329 H   0  0  0  0  0  0  0  0  0  0  0  0
  154.2446  142.9808  159.3833 H   0  0  0  0  0  0  0  0  0  0  0  0
  153.6695  144.5815  159.0473 H   0  0  0  0  0  0  0  0  0  0  0  0
  153.6530  141.0433  160.6185 H   0  0  0  0  0  0  0  0  0  0  0  0
  153.5711  141.0469  162.3780 H   0  0  0  0  0  0  0  0  0  0  0  0
  154.6266  142.1943  161.5568 H   0  0  0  0  0  0  0  0  0  0  0  0
  150.7174  144.6019  161.1248 H   0  0  0  0  0  0  0  0  0  0  0  0
  151.7219  145.4917  160.0183 H   0  0  0  0  0  0  0  0  0  0  0  0
  149.6366  144.7279  158.8873 H   0  0  0  0  0  0  0  0  0  0  0  0
  149.9830  143.0710  159.3204 H   0  0  0  0  0  0  0  0  0  0  0  0
  1  2  1  0  0  0  0
  1 21  1  0  0  0  0
  1 22  1  0  0  0  0
  1 23  1  0  0  0  0
  2  3  1  0  0  0  0
  2 24  1  0  0  0  0
  2 25  1  0  0  0  0
  3  7  1  0  0  0  0
  3  4  2  0  0  0  0
  4  5  1  0  0  0  0
  5  6  2  0  0  0  0
  6  7  1  0  0  0  0
  7  8  1  0  0  0  0
  8  9  1  0  0  0  0
  8 26  1  0  0  0  0
  8 27  1  0  0  0  0
  9 10  2  0  0  0  0
  9 11  1  0  0  0  0
 11 12  1  0  0  0  0
 11 28  1  0  0  0  0
 12 20  1  0  0  0  0
 12 13  1  0  0  0  0
 12 29  1  0  0  0  0
 13 14  1  0  0  0  0
 13 30  1  0  0  0  0
 13 31  1  0  0  0  0
 14 15  1  0  0  0  0
 14 32  1  0  0  0  0
 14 33  1  0  0  0  0
 15 16  1  0  0  0  0
 15 19  1  0  0  0  0
 16 17  1  0  0  0  0
 16 18  2  0  0  0  0
 17 34  1  0  0  0  0
 17 35  1  0  0  0  0
 17 36  1  0  0  0  0
 19 20  1  0  0  0  0
 19 37  1  0  0  0  0
 19 38  1  0  0  0  0
 20 39  1  0  0  0  0
 20 40  1  0  0  0  0
M  END
> <s_m_source_file>
AV-unprocessed.smi

> <i_m_source_file_index>
1685

> <i_lp_mmshare_version>
43012

> <i_f3d_flags>
0

> <s_epik_input>
W0NIM11bQ0gyXWMxbm5ubjFbQ0gyXUMoPU8pW05IXVtDSF0yW0NIMl1bQ0gyXU4oQyg9TylbQ0gzXSlbQ0gyXVtDSDJdMg==

> <s_epik_cmdline>
J2VwaWtfcHl0aG9uJywgJy1waCcsICc3LjAnLCAnLXRuJywgJzgnLCAnLW1hJywgJzIwMCcsICctbWV0YWxfYmluZGluZycsICctaW1hZScsICc8aW5maWxlLm1hZT4nLCAnLW9tYWUnLCAnPG91dGZpbGUubWFlPic=

> <r_lp_tautomer_probability>
1

> <r_epik_Ionization_Penalty>
1.8486e-06

> <r_epik_Ionization_Penalty_Charging>
0

> <r_epik_Ionization_Penalty_Neutral>
1.8486e-06

> <r_epik_State_Penalty>
-0

> <r_epik_Charging_Adjusted_Penalty>
0

> <i_epik_Tot_Q>
0

> <i_epik_Tot_abs_Q>
0

> <r_epik_Metal_State_Penalty>
-0

> <b_epik_Metal_Only>
0

> <s_lp_Force_Field>
OPLS_2005

> <r_lp_Energy>
22.135

> <b_lp_Chiralities_Consistent>
1

> <s_lp_Variant>
AV-unprocessed.smi:1685-1

> <Gold.Version>
5.8.1

> <Gold.Id.Protein>
6NUR|6NUR_protein|mol2

> <Gold.PLP.Fitness>
41.8230

> <Gold.PLP.PLP>
-35.2435

> <Gold.PLP.part.hbond>
-2.8648

> <Gold.PLP.part.metal>
0.0000

> <Gold.PLP.part.buried>
-7.3610

> <Gold.PLP.part.nonpolar>
-29.0711

> <Gold.PLP.part.repulsive>
3.0327

> <Gold.PLP.ligand.clash>
0.0000

> <Gold.PLP.ligand.torsion>
0.6730

> <Gold.PLP.Chemscore.Hbond>
2.6340

> <Gold.PLP.Chemscore.CHOScore>
0.0000

> <Gold.PLP.Chemscore.Metal>
0.0000

> <Gold.Chemscore.Hbonds>
donor molecule, donor type, donor heavy atom, donor atom, acceptor molecule, acceptor atom, score
      L1  H    11    28       P1  8028  0.69
      P1  H  6933  6945       L1    18  1.00
      P1  H  7989  7998       L1     6  0.90

> <Gold.PLP.Chemscore.Internal.Correction>
0.0237

> <Gold.Rescore>
     Score         DG    S(hbond)    S(metal)    S(lipo)     H(rot)  DE(clash)    DE(int)     intcor
     14.53     -18.06       2.47        0.00      77.52       1.85       1.98       1.55       ----

> <Gold.Chemscore.Fitness>
14.5256

> <Gold.Chemscore.DG>
-18.0576

> <Gold.Chemscore.ZeroCoef>
-5.4800

> <Gold.Chemscore.Hbond>
2.4663

> <Gold.Chemscore.Metal>
0.0000

> <Gold.Chemscore.Lipo>
77.5210

> <Gold.Chemscore.Internal_Hbond>
0.0000

> <Gold.Chemscore.DEClash>
1.9803

> <Gold.Chemscore.DEInternal>
1.5517

> <Gold.Chemscore.Rot>
1.8476

> <Gold.Chemscore.Internal.Correction>
   9.000000E+99

> <Gold.Chemscore.Hbonds>
donor molecule, donor type, donor heavy atom, donor atom, acceptor molecule, acceptor atom, score
      L1  H    11    28       P1  8028  0.70
      P1  H  6933  6945       L1    18  0.95
      P1  H  7989  7998       L1     6  0.06

> <Gold.Chemscore.Hbond.Weighted>
-8.2374

> <Gold.Chemscore.Metal.Weighted>
-0.0000

> <Gold.Chemscore.Lipo.Weighted>
-9.0700

> <Gold.Chemscore.Internal_Hbond.Weighted>
0.0000

> <Gold.Chemscore.DEClash.Weighted>
1.9803

> <Gold.Chemscore.DEInternal.Weighted>
1.5517

> <Gold.Chemscore.Rot.Weighted>
4.7298

> <Gold.Chemscore.Internal.Correction.Weighted>
   9.000000E+99

> <Gold.Protein.RotatedTorsions>
[ 6907 6896 6895 6894 ] final   58.86 input  -60.11 | X-H torsion
[ 7974 7965 7964 7962 ] final  136.61 input  175.53 | X-H torsion
[ 8008 7997 7996 7995 ] final   85.70 input   59.86 | X-H torsion
[ 10167 10162 10161 10158 ] final -174.74 input  -65.29 | X-H torsion
[ 10718 10713 10712 10709 ] final   82.31 input   66.30 | X-H torsion
[ 10763 10752 10751 10750 ] final -152.12 input  -60.55 | X-H torsion
[ 11005 11000 10999 10996 ] final   95.12 input  -57.11 | X-H torsion

> <Gold.Protein.ActiveResidues>
 VAL166  LYS551  ARG553  GLY616  TRP617  ASP618  TYR619  PRO620  LYS621  CYS622 
 ASP623  PHE694  ASN695  SER759  ASP760  ASP761  ALA762  ILE779  LEU786  VAL792 
 PHE793  MET794  SER795  GLU796  ALA797  LYS798  CYS799  TRP800  GLU811  SER814 

> <Gold.Protein.RotatedAtoms>
  152.3862  134.6513  160.0124 H   0  0  0  0  0  0  0  0  0  0  0  0  # atno 6907 bound_to 6896
  151.6761  133.3307  159.3216 H   0  0  0  0  0  0  0  0  0  0  0  0  # atno 6908 bound_to 6896
  150.7788  134.6757  159.6461 H   0  0  0  0  0  0  0  0  0  0  0  0  # atno 6909 bound_to 6896
  144.9548  139.4777  143.5508 H   0  0  0  0  0  0  0  0  0  0  0  0  # atno 7974 bound_to 7965
  155.9534  140.3399  155.6427 H   0  0  0  0  0  0  0  0  0  0  0  0  # atno 8008 bound_to 7997
  155.6891  140.0747  157.2473 H   0  0  0  0  0  0  0  0  0  0  0  0  # atno 8009 bound_to 7997
  154.4127  140.1660  156.2053 H   0  0  0  0  0  0  0  0  0  0  0  0  # atno 8010 bound_to 7997
  139.5617  144.1852  152.1250 H   0  0  0  0  0  0  0  0  0  0  0  0  # atno 10167 bound_to 10162
  157.6854  131.0042  150.2355 H   0  0  0  0  0  0  0  0  0  0  0  0  # atno 10718 bound_to 10713
  154.8015  135.3244  154.7539 H   0  0  0  0  0  0  0  0  0  0  0  0  # atno 10763 bound_to 10752
  153.8206  135.6888  153.4832 H   0  0  0  0  0  0  0  0  0  0  0  0  # atno 10764 bound_to 10752
  153.1734  135.4614  154.9876 H   0  0  0  0  0  0  0  0  0  0  0  0  # atno 10765 bound_to 10752
  139.8792  134.8882  156.3964 H   0  0  0  0  0  0  0  0  0  0  0  0  # atno 11005 bound_to 11000
  146.3333  139.8658  142.8848 LP  0  0  0  0  0  0  0  0  0  0  0  0  # atno 17320 bound_to 7965
  145.2789  141.0132  143.3729 LP  0  0  0  0  0  0  0  0  0  0  0  0  # atno 17321 bound_to 7965
  140.1367  144.5239  150.6769 LP  0  0  0  0  0  0  0  0  0  0  0  0  # atno 17342 bound_to 10162
  140.6898  143.2369  151.5162 LP  0  0  0  0  0  0  0  0  0  0  0  0  # atno 17343 bound_to 10162
  156.2980  130.3754  149.7778 LP  0  0  0  0  0  0  0  0  0  0  0  0  # atno 17370 bound_to 10713
  156.5417  130.8303  151.3271 LP  0  0  0  0  0  0  0  0  0  0  0  0  # atno 17371 bound_to 10713
  140.9297  133.7588  156.0009 LP  0  0  0  0  0  0  0  0  0  0  0  0  # atno 17394 bound_to 11000
  140.8345  134.3140  157.5337 LP  0  0  0  0  0  0  0  0  0  0  0  0  # atno 17395 bound_to 11000

$$$$
