AV-unprocessed.smi:2710|AV-procd|sdf|10466|dock2
  -GOLD-   2272014503D 1   1.00000     0.00000
 Structure written by MMmdl.
 53 54  0  0  0  0  0  0  0  0  2 V2000
  146.5665  138.4480  156.2173 C   0  0  0  0  0  0  0  0  0  0  0  0
  145.5765  139.3131  155.4196 C   0  0  0  0  0  0  0  0  0  0  0  0
  145.3439  138.8200  154.0307 N   0  3  2  0  0  0  0  0  0  0  0  0
  144.6993  137.4755  154.0239 C   0  0  0  0  0  0  0  0  0  0  0  0
  144.3267  137.0203  152.6052 C   0  0  0  0  0  0  0  0  0  0  0  0
  145.5479  137.0079  151.6737 C   0  0  2  0  0  0  0  0  0  0  0  0
  146.4954  135.9475  152.0179 N   0  0  0  0  0  0  0  0  0  0  0  0
  146.1914  134.6465  152.1319 C   0  0  0  0  0  0  0  0  0  0  0  0
  145.0551  134.2035  151.9726 O   0  0  0  0  0  0  0  0  0  0  0  0
  147.2800  133.9197  152.4375 N   0  0  0  0  0  0  0  0  0  0  0  0
  147.3934  132.5180  152.6490 C   0  0  0  0  0  0  0  0  0  0  0  0
  148.4247  131.8686  153.3707 C   0  0  0  0  0  0  0  0  0  0  0  0
  148.4493  130.5271  153.5185 N   0  0  0  0  0  0  0  0  0  0  0  0
  147.4797  129.8138  152.9319 C   0  0  0  0  0  0  0  0  0  0  0  0
  147.4398  128.3048  153.2312 C   0  0  0  0  0  0  0  0  0  0  0  0
  146.1135  127.9080  153.9218 C   0  0  0  0  0  0  0  0  0  0  0  0
  148.6251  127.9311  154.1402 C   0  0  0  0  0  0  0  0  0  0  0  0
  147.5058  127.4769  151.9261 C   0  0  0  0  0  0  0  0  0  0  0  0
  146.4395  130.3331  152.2670 N   0  0  0  0  0  0  0  0  0  0  0  0
  146.4026  131.6726  152.1100 C   0  0  0  0  0  0  0  0  0  0  0  0
  146.2287  138.3826  151.7227 C   0  0  0  0  0  0  0  0  0  0  0  0
  146.5654  138.8456  153.1599 C   0  0  1  0  0  0  0  0  0  0  0  0
  147.2316  140.2353  153.0819 C   0  0  0  0  0  0  0  0  0  0  0  0
  146.5768  138.7516  157.2643 H   0  0  0  0  0  0  0  0  0  0  0  0
  147.5895  138.5419  155.8546 H   0  0  0  0  0  0  0  0  0  0  0  0
  146.2873  137.3945  156.1848 H   0  0  0  0  0  0  0  0  0  0  0  0
  144.6506  139.2984  155.9896 H   0  0  0  0  0  0  0  0  0  0  0  0
  145.9097  140.3515  155.3962 H   0  0  0  0  0  0  0  0  0  0  0  0
  145.3663  136.7491  154.4909 H   0  0  0  0  0  0  0  0  0  0  0  0
  143.7853  137.4826  154.6147 H   0  0  0  0  0  0  0  0  0  0  0  0
  143.8584  136.0360  152.6390 H   0  0  0  0  0  0  0  0  0  0  0  0
  143.5725  137.6966  152.2007 H   0  0  0  0  0  0  0  0  0  0  0  0
  145.2092  136.8352  150.6502 H   0  0  0  0  0  0  0  0  0  0  0  0
  147.4565  136.2216  152.1599 H   0  0  0  0  0  0  0  0  0  0  0  0
  148.1430  134.4354  152.5285 H   0  0  0  0  0  0  0  0  0  0  0  0
  149.2380  132.3937  153.8446 H   0  0  0  0  0  0  0  0  0  0  0  0
  146.0604  126.8318  154.0904 H   0  0  0  0  0  0  0  0  0  0  0  0
  145.2509  128.1875  153.3156 H   0  0  0  0  0  0  0  0  0  0  0  0
  146.0013  128.3843  154.8963 H   0  0  0  0  0  0  0  0  0  0  0  0
  148.5848  128.4737  155.0853 H   0  0  0  0  0  0  0  0  0  0  0  0
  149.5778  128.1688  153.6654 H   0  0  0  0  0  0  0  0  0  0  0  0
  148.6294  126.8655  154.3717 H   0  0  0  0  0  0  0  0  0  0  0  0
  147.4324  126.4079  152.1292 H   0  0  0  0  0  0  0  0  0  0  0  0
  148.4437  127.6308  151.3914 H   0  0  0  0  0  0  0  0  0  0  0  0
  146.6922  127.7380  151.2482 H   0  0  0  0  0  0  0  0  0  0  0  0
  145.5680  132.0725  151.5527 H   0  0  0  0  0  0  0  0  0  0  0  0
  147.1320  138.3619  151.1110 H   0  0  0  0  0  0  0  0  0  0  0  0
  145.5698  139.1170  151.2568 H   0  0  0  0  0  0  0  0  0  0  0  0
  147.2925  138.1513  153.5842 H   0  0  0  0  0  0  0  0  0  0  0  0
  148.0072  140.2526  152.3154 H   0  0  0  0  0  0  0  0  0  0  0  0
  147.7257  140.5126  154.0124 H   0  0  0  0  0  0  0  0  0  0  0  0
  146.5081  141.0119  152.8313 H   0  0  0  0  0  0  0  0  0  0  0  0
  144.6854  139.4604  153.6101 H   0  0  0  0  0  0  0  0  0  0  0  0
  1  2  1  0  0  0  0
  1 24  1  0  0  0  0
  1 25  1  0  0  0  0
  1 26  1  0  0  0  0
  2  3  1  0  0  0  0
  2 27  1  0  0  0  0
  2 28  1  0  0  0  0
  3 22  1  0  0  0  0
  3  4  1  0  0  0  0
  3 53  1  0  0  0  0
  4  5  1  0  0  0  0
  4 29  1  0  0  0  0
  4 30  1  0  0  0  0
  5  6  1  0  0  0  0
  5 31  1  0  0  0  0
  5 32  1  0  0  0  0
  6  7  1  0  0  0  0
  6 21  1  0  0  0  0
  6 33  1  0  0  0  0
  7  8  1  0  0  0  0
  7 34  1  0  0  0  0
  8  9  2  0  0  0  0
  8 10  1  0  0  0  0
 10 11  1  0  0  0  0
 10 35  1  0  0  0  0
 11 20  1  0  0  0  0
 11 12  2  0  0  0  0
 12 13  1  0  0  0  0
 12 36  1  0  0  0  0
 13 14  2  0  0  0  0
 14 15  1  0  0  0  0
 14 19  1  0  0  0  0
 15 16  1  0  0  0  0
 15 17  1  0  0  0  0
 15 18  1  0  0  0  0
 16 37  1  0  0  0  0
 16 38  1  0  0  0  0
 16 39  1  0  0  0  0
 17 40  1  0  0  0  0
 17 41  1  0  0  0  0
 17 42  1  0  0  0  0
 18 43  1  0  0  0  0
 18 44  1  0  0  0  0
 18 45  1  0  0  0  0
 19 20  2  0  0  0  0
 20 46  1  0  0  0  0
 21 22  1  0  0  0  0
 21 47  1  0  0  0  0
 21 48  1  0  0  0  0
 22 23  1  0  0  0  0
 22 49  1  0  0  0  0
 23 50  1  0  0  0  0
 23 51  1  0  0  0  0
 23 52  1  0  0  0  0
M  CHG  1   3   1
M  END
> <s_m_source_file>
AV-unprocessed.smi

> <i_m_source_file_index>
2710

> <i_lp_mmshare_version>
43012

> <i_f3d_flags>
0

> <s_epik_input>
W0NIM11bQ0gyXU4xW0NIMl1bQ0gyXVtDQEhdKFtDSDJdW0NASF0xW0NIM10pW05IXUMoPU8pW05IXWMyW2NIXW5jKEMoW0NIM10pKFtDSDNdKVtDSDNdKW5bY0hdMg==

> <s_epik_cmdline>
J2VwaWtfcHl0aG9uJywgJy1waCcsICc3LjAnLCAnLXRuJywgJzgnLCAnLW1hJywgJzIwMCcsICctbWV0YWxfYmluZGluZycsICctaW1hZScsICc8aW5maWxlLm1hZT4nLCAnLW9tYWUnLCAnPG91dGZpbGUubWFlPic=

> <r_lp_tautomer_probability>
1

> <r_epik_Ionization_Penalty>
0.00396003

> <r_epik_Ionization_Penalty_Charging>
0.0039379

> <r_epik_Ionization_Penalty_Neutral>
2.21316e-05

> <r_epik_State_Penalty>
0.00281651

> <r_epik_Charging_Adjusted_Penalty>
0.00675441

> <i_epik_Tot_Q>
1

> <i_epik_Tot_abs_Q>
1

> <r_epik_Metal_State_Penalty>
-0

> <b_epik_Metal_Only>
0

> <s_lp_Force_Field>
OPLS_2005

> <r_lp_Energy>
19.072

> <b_lp_Chiralities_Consistent>
1

> <s_lp_Variant>
AV-unprocessed.smi:2710-3

> <Gold.Version>
5.8.1

> <Gold.Id.Protein>
6NUR|6NUR_protein|mol2

> <Gold.PLP.Fitness>
41.0943

> <Gold.PLP.PLP>
-30.1117

> <Gold.PLP.part.hbond>
-2.7604

> <Gold.PLP.part.metal>
0.0000

> <Gold.PLP.part.buried>
1.6361

> <Gold.PLP.part.nonpolar>
-29.1088

> <Gold.PLP.part.repulsive>
0.4028

> <Gold.PLP.ligand.clash>
0.0000

> <Gold.PLP.ligand.torsion>
0.2093

> <Gold.PLP.Chemscore.Hbond>
3.7454

> <Gold.PLP.Chemscore.CHOScore>
0.0000

> <Gold.PLP.Chemscore.Metal>
0.0000

> <Gold.Chemscore.Hbonds>
donor molecule, donor type, donor heavy atom, donor atom, acceptor molecule, acceptor atom, score
      L1  H     3    53       P1 10175  2.00
      L1  H     7    34       P1  7948  0.94
      L1  H    10    35       P1  7948  0.76

> <Gold.PLP.Chemscore.Internal.Correction>
0.1650

> <Gold.Rescore>
     Score         DG    S(hbond)    S(metal)    S(lipo)     H(rot)  DE(clash)    DE(int)     intcor
     15.37     -18.43       2.16        0.00      77.64       1.31       0.65       2.41       ----

> <Gold.Chemscore.Fitness>
15.3674

> <Gold.Chemscore.DG>
-18.4286

> <Gold.Chemscore.ZeroCoef>
-5.4800

> <Gold.Chemscore.Hbond>
2.1598

> <Gold.Chemscore.Metal>
0.0000

> <Gold.Chemscore.Lipo>
77.6399

> <Gold.Chemscore.Internal_Hbond>
0.0000

> <Gold.Chemscore.DEClash>
0.6545

> <Gold.Chemscore.DEInternal>
2.4068

> <Gold.Chemscore.Rot>
1.3081

> <Gold.Chemscore.Internal.Correction>
   9.000000E+99

> <Gold.Chemscore.Hbonds>
donor molecule, donor type, donor heavy atom, donor atom, acceptor molecule, acceptor atom, score
      L1  H     3    53       P1 10175  1.00
      L1  H     7    34       P1  7948  0.88
      L1  H    10    35       P1  7948  0.22

> <Gold.Chemscore.Hbond.Weighted>
-7.2136

> <Gold.Chemscore.Metal.Weighted>
-0.0000

> <Gold.Chemscore.Lipo.Weighted>
-9.0839

> <Gold.Chemscore.Internal_Hbond.Weighted>
0.0000

> <Gold.Chemscore.DEClash.Weighted>
0.6545

> <Gold.Chemscore.DEInternal.Weighted>
2.4068

> <Gold.Chemscore.Rot.Weighted>
3.3488

> <Gold.Chemscore.Internal.Correction.Weighted>
   9.000000E+99

> <Gold.Protein.RotatedTorsions>
[ 6907 6896 6895 6894 ] final -142.87 input  -60.11 | X-H torsion
[ 7974 7965 7964 7962 ] final  148.83 input  175.53 | X-H torsion
[ 8008 7997 7996 7995 ] final   48.76 input   59.86 | X-H torsion
[ 10167 10162 10161 10158 ] final  152.22 input  -65.29 | X-H torsion
[ 10718 10713 10712 10709 ] final   86.85 input   66.30 | X-H torsion
[ 10763 10752 10751 10750 ] final   23.98 input  -60.55 | X-H torsion
[ 11005 11000 10999 10996 ] final  -89.39 input  -57.11 | X-H torsion

> <Gold.Protein.ActiveResidues>
 VAL166  LYS551  ARG553  GLY616  TRP617  ASP618  TYR619  PRO620  LYS621  CYS622 
 ASP623  PHE694  ASN695  SER759  ASP760  ASP761  ALA762  ILE779  LEU786  VAL792 
 PHE793  MET794  SER795  GLU796  ALA797  LYS798  CYS799  TRP800  GLU811  SER814 

> <Gold.Protein.RotatedAtoms>
  151.0928  133.5303  159.2613 H   0  0  0  0  0  0  0  0  0  0  0  0  # atno 6907 bound_to 6896
  151.2163  135.0500  159.8941 H   0  0  0  0  0  0  0  0  0  0  0  0  # atno 6908 bound_to 6896
  152.5436  134.0737  159.8258 H   0  0  0  0  0  0  0  0  0  0  0  0  # atno 6909 bound_to 6896
  144.8484  139.6203  143.5985 H   0  0  0  0  0  0  0  0  0  0  0  0  # atno 7974 bound_to 7965
  155.3910  140.3433  155.4251 H   0  0  0  0  0  0  0  0  0  0  0  0  # atno 8008 bound_to 7997
  156.1557  140.1585  156.8728 H   0  0  0  0  0  0  0  0  0  0  0  0  # atno 8009 bound_to 7997
  154.5093  140.0794  156.7939 H   0  0  0  0  0  0  0  0  0  0  0  0  # atno 8010 bound_to 7997
  139.4834  144.5376  151.7619 H   0  0  0  0  0  0  0  0  0  0  0  0  # atno 10167 bound_to 10162
  157.6933  131.0232  150.3035 H   0  0  0  0  0  0  0  0  0  0  0  0  # atno 10718 bound_to 10713
  153.0798  135.6615  154.0069 H   0  0  0  0  0  0  0  0  0  0  0  0  # atno 10763 bound_to 10752
  153.9694  135.2966  155.3430 H   0  0  0  0  0  0  0  0  0  0  0  0  # atno 10764 bound_to 10752
  154.7195  135.5171  153.8860 H   0  0  0  0  0  0  0  0  0  0  0  0  # atno 10765 bound_to 10752
  141.1585  133.7627  156.9588 H   0  0  0  0  0  0  0  0  0  0  0  0  # atno 11005 bound_to 11000
  146.2764  139.6763  142.9260 LP  0  0  0  0  0  0  0  0  0  0  0  0  # atno 17320 bound_to 7965
  145.4550  141.0430  143.2783 LP  0  0  0  0  0  0  0  0  0  0  0  0  # atno 17321 bound_to 7965
  140.4910  144.1310  150.5950 LP  0  0  0  0  0  0  0  0  0  0  0  0  # atno 17342 bound_to 10162
  140.4170  143.2629  151.9762 LP  0  0  0  0  0  0  0  0  0  0  0  0  # atno 17343 bound_to 10162
  156.3548  130.3837  149.7300 LP  0  0  0  0  0  0  0  0  0  0  0  0  # atno 17370 bound_to 10713
  156.4765  130.8021  151.3037 LP  0  0  0  0  0  0  0  0  0  0  0  0  # atno 17371 bound_to 10713
  140.1207  134.9419  157.2199 LP  0  0  0  0  0  0  0  0  0  0  0  0  # atno 17394 bound_to 11000
  140.3076  134.3060  155.7274 LP  0  0  0  0  0  0  0  0  0  0  0  0  # atno 17395 bound_to 11000

$$$$
