AV-unprocessed.smi:3351|AV-procd|sdf|12948|dock3
  -GOLD-   2272019383D 1   1.00000     0.00000
 Structure written by MMmdl.
 35 36  0  0  0  0  0  0  0  0  2 V2000
  145.8340  135.1763  153.0044 C   0  0  0  0  0  0  0  0  0  0  0  0
  146.5381  133.8606  152.6348 C   0  0  1  0  0  0  0  0  0  0  0  0
  146.6591  133.6450  151.1105 C   0  0  0  0  0  0  0  0  0  0  0  0
  145.3930  133.2423  150.4907 N   0  0  0  0  0  0  0  0  0  0  0  0
  145.1991  132.2272  149.5893 C   0  0  0  0  0  0  0  0  0  0  0  0
  143.8614  132.2224  149.2880 C   0  0  0  0  0  0  0  0  0  0  0  0
  143.2970  133.2370  150.0137 N   0  3  0  0  0  0  0  0  0  0  0  0
  144.2305  133.8587  150.7416 C   0  0  0  0  0  0  0  0  0  0  0  0
  147.8591  133.8336  153.2561 N   0  0  0  0  0  0  0  0  0  0  0  0
  148.2834  132.9124  154.1352 C   0  0  0  0  0  0  0  0  0  0  0  0
  147.5968  131.9535  154.4907 O   0  0  0  0  0  0  0  0  0  0  0  0
  149.7102  133.0936  154.6683 C   0  0  0  0  0  0  0  0  0  0  0  0
  150.1829  131.9381  155.4332 N   0  0  0  0  0  0  0  0  0  0  0  0
  150.1916  130.6218  154.8069 C   0  0  0  0  0  0  0  0  0  0  0  0
  151.0322  129.6890  155.6815 C   0  0  0  0  0  0  0  0  0  0  0  0
  151.0655  130.3800  157.3472 S   0  0  0  0  0  0  0  0  0  0  0  0
  150.5544  132.0014  156.7699 C   0  0  0  0  0  0  0  0  0  0  0  0
  150.5513  132.9889  157.5028 O   0  0  0  0  0  0  0  0  0  0  0  0
  144.8064  135.1963  152.6408 H   0  0  0  0  0  0  0  0  0  0  0  0
  146.3546  136.0367  152.5829 H   0  0  0  0  0  0  0  0  0  0  0  0
  145.7943  135.3090  154.0863 H   0  0  0  0  0  0  0  0  0  0  0  0
  145.9447  133.0466  153.0555 H   0  0  0  0  0  0  0  0  0  0  0  0
  147.0096  134.5551  150.6206 H   0  0  0  0  0  0  0  0  0  0  0  0
  147.3889  132.8659  150.8863 H   0  0  0  0  0  0  0  0  0  0  0  0
  146.0063  131.5990  149.2407 H   0  0  0  0  0  0  0  0  0  0  0  0
  143.2846  131.5905  148.6283 H   0  0  0  0  0  0  0  0  0  0  0  0
  144.0741  134.6913  151.4042 H   0  0  0  0  0  0  0  0  0  0  0  0
  148.4912  134.5840  153.0169 H   0  0  0  0  0  0  0  0  0  0  0  0
  150.3733  133.2767  153.8221 H   0  0  0  0  0  0  0  0  0  0  0  0
  149.7617  133.9847  155.2967 H   0  0  0  0  0  0  0  0  0  0  0  0
  149.1638  130.2615  154.7503 H   0  0  0  0  0  0  0  0  0  0  0  0
  150.5833  130.6638  153.7900 H   0  0  0  0  0  0  0  0  0  0  0  0
  150.6469  128.6694  155.6858 H   0  0  0  0  0  0  0  0  0  0  0  0
  152.0574  129.6553  155.3121 H   0  0  0  0  0  0  0  0  0  0  0  0
  142.3154  133.4844  150.0016 H   0  0  0  0  0  0  0  0  0  0  0  0
  1  2  1  0  0  0  0
  1 19  1  0  0  0  0
  1 20  1  0  0  0  0
  1 21  1  0  0  0  0
  2  3  1  0  0  0  0
  2  9  1  0  0  0  0
  2 22  1  0  0  0  0
  3  4  1  0  0  0  0
  3 23  1  0  0  0  0
  3 24  1  0  0  0  0
  4  8  1  0  0  0  0
  4  5  1  0  0  0  0
  5  6  2  0  0  0  0
  5 25  1  0  0  0  0
  6  7  1  0  0  0  0
  6 26  1  0  0  0  0
  7  8  2  0  0  0  0
  7 35  1  0  0  0  0
  8 27  1  0  0  0  0
  9 10  1  0  0  0  0
  9 28  1  0  0  0  0
 10 11  2  0  0  0  0
 10 12  1  0  0  0  0
 12 13  1  0  0  0  0
 12 29  1  0  0  0  0
 12 30  1  0  0  0  0
 13 17  1  0  0  0  0
 13 14  1  0  0  0  0
 14 15  1  0  0  0  0
 14 31  1  0  0  0  0
 14 32  1  0  0  0  0
 15 16  1  0  0  0  0
 15 33  1  0  0  0  0
 15 34  1  0  0  0  0
 16 17  1  0  0  0  0
 17 18  2  0  0  0  0
M  CHG  1   7   1
M  END
> <s_m_source_file>
AV-unprocessed.smi

> <i_m_source_file_index>
3351

> <i_lp_mmshare_version>
43012

> <i_f3d_flags>
0

> <s_epik_input>
W2NIXTFuW2NIXVtjSF1uMVtDSDJdW0NAQEhdKFtDSDNdKVtOSF1DKD1PKVtDSDJdTjJbQ0gyXVtDSDJdU0MyPU8=

> <s_epik_cmdline>
J2VwaWtfcHl0aG9uJywgJy1waCcsICc3LjAnLCAnLXRuJywgJzgnLCAnLW1hJywgJzIwMCcsICctbWV0YWxfYmluZGluZycsICctaW1hZScsICc8aW5maWxlLm1hZT4nLCAnLW9tYWUnLCAnPG91dGZpbGUubWFlPic=

> <r_lp_tautomer_probability>
1

> <r_epik_Ionization_Penalty>
0.257312

> <r_epik_Ionization_Penalty_Charging>
0

> <r_epik_Ionization_Penalty_Neutral>
0.257312

> <r_epik_State_Penalty>
0.248897

> <r_epik_Charging_Adjusted_Penalty>
0.248897

> <i_epik_Tot_Q>
1

> <i_epik_Tot_abs_Q>
1

> <r_epik_Metal_State_Penalty>
0.538022

> <b_epik_Metal_Only>
0

> <s_lp_Force_Field>
OPLS_2005

> <r_lp_Energy>
6.1395

> <b_lp_Chiralities_Consistent>
1

> <s_lp_Variant>
AV-unprocessed.smi:3351-2

> <Gold.Version>
5.8.1

> <Gold.Id.Protein>
6NUR|6NUR_protein|mol2

> <Gold.PLP.Fitness>
44.5710

> <Gold.PLP.PLP>
-33.3096

> <Gold.PLP.part.hbond>
-3.0000

> <Gold.PLP.part.metal>
0.0000

> <Gold.PLP.part.buried>
-4.9597

> <Gold.PLP.part.nonpolar>
-25.8807

> <Gold.PLP.part.repulsive>
0.0731

> <Gold.PLP.ligand.clash>
0.0000

> <Gold.PLP.ligand.torsion>
0.3926

> <Gold.PLP.Chemscore.Hbond>
4.0000

> <Gold.PLP.Chemscore.CHOScore>
0.0000

> <Gold.PLP.Chemscore.Metal>
0.0000

> <Gold.Chemscore.Hbonds>
donor molecule, donor type, donor heavy atom, donor atom, acceptor molecule, acceptor atom, score
      L1  H     7    35       P1 10186  2.00
      L1  H     9    28       P1  7948  1.00
      P1  H  6896  6907       L1    18  1.00

> <Gold.PLP.Chemscore.Internal.Correction>
0.0465

> <Gold.Rescore>
     Score         DG    S(hbond)    S(metal)    S(lipo)     H(rot)  DE(clash)    DE(int)     intcor
     13.41     -13.90       2.45        0.00      54.72       2.41       0.01       0.48       ----

> <Gold.Chemscore.Fitness>
13.4118

> <Gold.Chemscore.DG>
-13.8990

> <Gold.Chemscore.ZeroCoef>
-5.4800

> <Gold.Chemscore.Hbond>
2.4541

> <Gold.Chemscore.Metal>
0.0000

> <Gold.Chemscore.Lipo>
54.7199

> <Gold.Chemscore.Internal_Hbond>
0.0000

> <Gold.Chemscore.DEClash>
0.0106

> <Gold.Chemscore.DEInternal>
0.4765

> <Gold.Chemscore.Rot>
2.4141

> <Gold.Chemscore.Internal.Correction>
   9.000000E+99

> <Gold.Chemscore.Hbonds>
donor molecule, donor type, donor heavy atom, donor atom, acceptor molecule, acceptor atom, score
      L1  H     7    35       P1 10186  0.97
      L1  H     9    28       P1  7948  0.31
      P1  H  6896  6907       L1    18  0.97

> <Gold.Chemscore.Hbond.Weighted>
-8.1968

> <Gold.Chemscore.Metal.Weighted>
-0.0000

> <Gold.Chemscore.Lipo.Weighted>
-6.4022

> <Gold.Chemscore.Internal_Hbond.Weighted>
0.0000

> <Gold.Chemscore.DEClash.Weighted>
0.0106

> <Gold.Chemscore.DEInternal.Weighted>
0.4765

> <Gold.Chemscore.Rot.Weighted>
6.1800

> <Gold.Chemscore.Internal.Correction.Weighted>
   9.000000E+99

> <Gold.Protein.RotatedTorsions>
[ 6907 6896 6895 6894 ] final -153.06 input  -60.11 | X-H torsion
[ 7974 7965 7964 7962 ] final  163.39 input  175.53 | X-H torsion
[ 8008 7997 7996 7995 ] final  -39.28 input   59.86 | X-H torsion
[ 10167 10162 10161 10158 ] final   93.14 input  -65.29 | X-H torsion
[ 10718 10713 10712 10709 ] final  141.56 input   66.30 | X-H torsion
[ 10763 10752 10751 10750 ] final   48.89 input  -60.55 | X-H torsion
[ 11005 11000 10999 10996 ] final -113.44 input  -57.11 | X-H torsion

> <Gold.Protein.ActiveResidues>
 VAL166  LYS551  ARG553  GLY616  TRP617  ASP618  TYR619  PRO620  LYS621  CYS622 
 ASP623  PHE694  ASN695  SER759  ASP760  ASP761  ALA762  ILE779  LEU786  VAL792 
 PHE793  MET794  SER795  GLU796  ALA797  LYS798  CYS799  TRP800  GLU811  SER814 

> <Gold.Protein.RotatedAtoms>
  151.2370  133.4420  159.2605 H   0  0  0  0  0  0  0  0  0  0  0  0  # atno 6907 bound_to 6896
  151.0741  134.9817  159.8333 H   0  0  0  0  0  0  0  0  0  0  0  0  # atno 6908 bound_to 6896
  152.5416  134.2313  159.8879 H   0  0  0  0  0  0  0  0  0  0  0  0  # atno 6909 bound_to 6896
  144.7592  139.8176  143.6339 H   0  0  0  0  0  0  0  0  0  0  0  0  # atno 7974 bound_to 7965
  154.4025  140.1556  156.2837 H   0  0  0  0  0  0  0  0  0  0  0  0  # atno 8008 bound_to 7997
  155.8847  140.3442  155.5890 H   0  0  0  0  0  0  0  0  0  0  0  0  # atno 8009 bound_to 7997
  155.7627  140.0820  157.2137 H   0  0  0  0  0  0  0  0  0  0  0  0  # atno 8010 bound_to 7997
  139.8208  144.6732  150.9521 H   0  0  0  0  0  0  0  0  0  0  0  0  # atno 10167 bound_to 10162
  157.3906  131.1004  151.0650 H   0  0  0  0  0  0  0  0  0  0  0  0  # atno 10718 bound_to 10713
  152.9789  135.5929  154.3999 H   0  0  0  0  0  0  0  0  0  0  0  0  # atno 10763 bound_to 10752
  154.3646  135.2767  155.2303 H   0  0  0  0  0  0  0  0  0  0  0  0  # atno 10764 bound_to 10752
  154.4285  135.6042  153.6108 H   0  0  0  0  0  0  0  0  0  0  0  0  # atno 10765 bound_to 10752
  141.0614  133.9529  157.2660 H   0  0  0  0  0  0  0  0  0  0  0  0  # atno 11005 bound_to 11000
  146.1636  139.4760  142.9972 LP  0  0  0  0  0  0  0  0  0  0  0  0  # atno 17320 bound_to 7965
  145.6676  141.0224  143.1675 LP  0  0  0  0  0  0  0  0  0  0  0  0  # atno 17321 bound_to 7965
  140.7813  143.4093  151.1018 LP  0  0  0  0  0  0  0  0  0  0  0  0  # atno 17342 bound_to 10162
  139.7754  143.8433  152.3128 LP  0  0  0  0  0  0  0  0  0  0  0  0  # atno 17343 bound_to 10162
  157.1685  130.6257  149.5633 LP  0  0  0  0  0  0  0  0  0  0  0  0  # atno 17370 bound_to 10713
  155.9797  130.4793  150.6733 LP  0  0  0  0  0  0  0  0  0  0  0  0  # atno 17371 bound_to 10713
  139.9436  135.0187  156.8784 LP  0  0  0  0  0  0  0  0  0  0  0  0  # atno 17394 bound_to 11000
  140.5861  134.0306  155.7482 LP  0  0  0  0  0  0  0  0  0  0  0  0  # atno 17395 bound_to 11000

$$$$
