AV-unprocessed.smi:2525|AV-procd|sdf|9929|dock6
  -GOLD-   2272013573D 1   1.00000     0.00000
 Structure written by MMmdl.
 44 45  0  0  0  0  0  0  0  0  1 V2000
  149.0578  136.0241  157.6413 C   0  0  0  0  0  0  0  0  0  0  0  0
  149.2594  134.7917  156.7435 C   0  0  0  0  0  0  0  0  0  0  0  0
  149.1159  135.0571  155.2240 C   0  0  0  0  0  0  0  0  0  0  0  0
  149.5264  133.7838  154.4451 C   0  0  0  0  0  0  0  0  0  0  0  0
  148.5965  132.5755  154.6380 C   0  0  0  0  0  0  0  0  0  0  0  0
  147.7669  135.7395  154.8466 C   0  0  2  0  0  0  0  0  0  0  0  0
  147.2974  135.4357  153.4950 N   0  0  0  0  0  0  0  0  0  0  0  0
  146.0206  135.1980  153.1593 C   0  0  0  0  0  0  0  0  0  0  0  0
  145.1006  135.1654  153.9758 O   0  0  0  0  0  0  0  0  0  0  0  0
  145.7391  134.9465  151.6759 C   0  0  0  0  0  0  0  0  0  0  0  0
  144.9738  133.7275  151.4752 N   0  0  0  0  0  0  0  0  0  0  0  0
  143.6798  133.5897  151.0147 C   0  0  0  0  0  0  0  0  0  0  0  0
  143.4735  132.2404  151.0464 C   0  0  0  0  0  0  0  0  0  0  0  0
  144.6314  131.6222  151.5148 N   0  0  0  0  0  0  0  0  0  0  0  0
  145.5256  132.5254  151.7687 N   0  0  0  0  0  0  0  0  0  0  0  0
  148.4557  137.1148  154.9106 C   0  0  2  0  0  0  0  0  0  0  0  0
  148.0571  138.2274  153.9429 C   0  0  0  0  0  0  0  0  0  0  0  0
  149.7795  136.3617  154.7146 C   0  0  1  0  0  0  0  0  0  0  0  0
  150.8486  136.7966  155.5423 O   0  0  0  0  0  0  0  0  0  0  0  0
  151.5534  137.9029  155.0073 C   0  0  0  0  0  0  0  0  0  0  0  0
  149.2880  135.7818  158.6787 H   0  0  0  0  0  0  0  0  0  0  0  0
  148.0282  136.3799  157.6170 H   0  0  0  0  0  0  0  0  0  0  0  0
  149.7062  136.8487  157.3454 H   0  0  0  0  0  0  0  0  0  0  0  0
  150.2541  134.3993  156.9557 H   0  0  0  0  0  0  0  0  0  0  0  0
  148.5842  133.9999  157.0667 H   0  0  0  0  0  0  0  0  0  0  0  0
  149.6343  133.9959  153.3816 H   0  0  0  0  0  0  0  0  0  0  0  0
  150.5168  133.4591  154.7640 H   0  0  0  0  0  0  0  0  0  0  0  0
  149.0227  131.6877  154.1705 H   0  0  0  0  0  0  0  0  0  0  0  0
  147.6192  132.7366  154.1841 H   0  0  0  0  0  0  0  0  0  0  0  0
  148.4479  132.3530  155.6948 H   0  0  0  0  0  0  0  0  0  0  0  0
  146.9902  135.6425  155.6067 H   0  0  0  0  0  0  0  0  0  0  0  0
  147.9890  135.4388  152.7594 H   0  0  0  0  0  0  0  0  0  0  0  0
  145.1806  135.7878  151.2639 H   0  0  0  0  0  0  0  0  0  0  0  0
  146.6754  134.8772  151.1195 H   0  0  0  0  0  0  0  0  0  0  0  0
  143.0527  134.4198  150.7248 H   0  0  0  0  0  0  0  0  0  0  0  0
  142.5982  131.6686  150.7753 H   0  0  0  0  0  0  0  0  0  0  0  0
  148.3979  137.4778  155.9381 H   0  0  0  0  0  0  0  0  0  0  0  0
  148.2739  137.9610  152.9081 H   0  0  0  0  0  0  0  0  0  0  0  0
  148.5915  139.1517  154.1599 H   0  0  0  0  0  0  0  0  0  0  0  0
  146.9908  138.4439  154.0116 H   0  0  0  0  0  0  0  0  0  0  0  0
  150.0644  136.2876  153.6625 H   0  0  0  0  0  0  0  0  0  0  0  0
  152.3798  138.1625  155.6690 H   0  0  0  0  0  0  0  0  0  0  0  0
  150.9114  138.7788  154.9180 H   0  0  0  0  0  0  0  0  0  0  0  0
  151.9692  137.6698  154.0264 H   0  0  0  0  0  0  0  0  0  0  0  0
  1  2  1  0  0  0  0
  1 21  1  0  0  0  0
  1 22  1  0  0  0  0
  1 23  1  0  0  0  0
  2  3  1  0  0  0  0
  2 24  1  0  0  0  0
  2 25  1  0  0  0  0
  3 18  1  0  0  0  0
  3  4  1  0  0  0  0
  3  6  1  0  0  0  0
  4  5  1  0  0  0  0
  4 26  1  0  0  0  0
  4 27  1  0  0  0  0
  5 28  1  0  0  0  0
  5 29  1  0  0  0  0
  5 30  1  0  0  0  0
  6  7  1  0  0  0  0
  6 16  1  0  0  0  0
  6 31  1  0  0  0  0
  7  8  1  0  0  0  0
  7 32  1  0  0  0  0
  8  9  2  0  0  0  0
  8 10  1  0  0  0  0
 10 11  1  0  0  0  0
 10 33  1  0  0  0  0
 10 34  1  0  0  0  0
 11 15  1  0  0  0  0
 11 12  1  0  0  0  0
 12 13  2  0  0  0  0
 12 35  1  0  0  0  0
 13 14  1  0  0  0  0
 13 36  1  0  0  0  0
 14 15  2  0  0  0  0
 16 17  1  0  0  0  0
 16 18  1  0  0  0  0
 16 37  1  0  0  0  0
 17 38  1  0  0  0  0
 17 39  1  0  0  0  0
 17 40  1  0  0  0  0
 18 19  1  0  0  0  0
 18 41  1  0  0  0  0
 19 20  1  0  0  0  0
 20 42  1  0  0  0  0
 20 43  1  0  0  0  0
 20 44  1  0  0  0  0
M  END
> <s_m_source_file>
AV-unprocessed.smi

> <i_m_source_file_index>
2525

> <i_lp_mmshare_version>
43012

> <i_f3d_flags>
0

> <s_epik_input>
W0NIM11PW0NAQEhdMVtDQEhdKFtDSDNdKVtDQEBIXShDMShbQ0gyXVtDSDNdKVtDSDJdW0NIM10pW05IXUMoPU8pW0NIMl1uMltjSF1bY0hdbm4y

> <s_epik_cmdline>
J2VwaWtfcHl0aG9uJywgJy1waCcsICc3LjAnLCAnLXRuJywgJzgnLCAnLW1hJywgJzIwMCcsICctbWV0YWxfYmluZGluZycsICctaW1hZScsICc8aW5maWxlLm1hZT4nLCAnLW9tYWUnLCAnPG91dGZpbGUubWFlPic=

> <r_lp_tautomer_probability>
1

> <r_epik_Ionization_Penalty>
1.18045e-06

> <r_epik_Ionization_Penalty_Charging>
0

> <r_epik_Ionization_Penalty_Neutral>
1.18045e-06

> <r_epik_State_Penalty>
-0

> <r_epik_Charging_Adjusted_Penalty>
0

> <i_epik_Tot_Q>
0

> <i_epik_Tot_abs_Q>
0

> <r_epik_Metal_State_Penalty>
-0

> <b_epik_Metal_Only>
0

> <s_lp_Force_Field>
OPLS_2005

> <r_lp_Energy>
27.9477

> <b_lp_Chiralities_Consistent>
1

> <s_lp_Variant>
AV-unprocessed.smi:2525-4

> <Gold.Version>
5.8.1

> <Gold.Id.Protein>
6NUR|6NUR_protein|mol2

> <Gold.PLP.Fitness>
32.9811

> <Gold.PLP.PLP>
-24.6220

> <Gold.PLP.part.hbond>
-0.9385

> <Gold.PLP.part.metal>
0.0000

> <Gold.PLP.part.buried>
-3.7173

> <Gold.PLP.part.nonpolar>
-20.3961

> <Gold.PLP.part.repulsive>
0.3854

> <Gold.PLP.ligand.clash>
0.0000

> <Gold.PLP.ligand.torsion>
0.5971

> <Gold.PLP.Chemscore.Hbond>
1.0000

> <Gold.PLP.Chemscore.CHOScore>
2.0000

> <Gold.PLP.Chemscore.Metal>
0.0000

> <Gold.Chemscore.Hbonds>
donor molecule, donor type, donor heavy atom, donor atom, acceptor molecule, acceptor atom, score
      L1  H     7    32       P1  7948  0.98
      L1  C    12    35       P1 10186  1.00
      L1  C    13    36       P1 10952  1.00

> <Gold.PLP.Chemscore.Internal.Correction>
0.5532

> <Gold.Rescore>
     Score         DG    S(hbond)    S(metal)    S(lipo)     H(rot)  DE(clash)    DE(int)     intcor
      9.19     -10.75       0.98        0.00      60.59       1.98       0.02       1.54       ----

> <Gold.Chemscore.Fitness>
9.1949

> <Gold.Chemscore.DG>
-10.7543

> <Gold.Chemscore.ZeroCoef>
-5.4800

> <Gold.Chemscore.Hbond>
0.9756

> <Gold.Chemscore.Metal>
0.0000

> <Gold.Chemscore.Lipo>
60.5894

> <Gold.Chemscore.Internal_Hbond>
0.0000

> <Gold.Chemscore.DEClash>
0.0208

> <Gold.Chemscore.DEInternal>
1.5386

> <Gold.Chemscore.Rot>
1.9817

> <Gold.Chemscore.Internal.Correction>
   9.000000E+99

> <Gold.Chemscore.Hbonds>
donor molecule, donor type, donor heavy atom, donor atom, acceptor molecule, acceptor atom, score
      L1  H     7    32       P1  7948  0.87

> <Gold.Chemscore.Hbond.Weighted>
-3.2584

> <Gold.Chemscore.Metal.Weighted>
-0.0000

> <Gold.Chemscore.Lipo.Weighted>
-7.0890

> <Gold.Chemscore.Internal_Hbond.Weighted>
0.0000

> <Gold.Chemscore.DEClash.Weighted>
0.0208

> <Gold.Chemscore.DEInternal.Weighted>
1.5386

> <Gold.Chemscore.Rot.Weighted>
5.0731

> <Gold.Chemscore.Internal.Correction.Weighted>
   9.000000E+99

> <Gold.Protein.RotatedTorsions>
[ 6907 6896 6895 6894 ] final   91.74 input  -60.11 | X-H torsion
[ 7974 7965 7964 7962 ] final  112.13 input  175.53 | X-H torsion
[ 8008 7997 7996 7995 ] final  -17.78 input   59.86 | X-H torsion
[ 10167 10162 10161 10158 ] final  -29.75 input  -65.29 | X-H torsion
[ 10718 10713 10712 10709 ] final   20.59 input   66.30 | X-H torsion
[ 10763 10752 10751 10750 ] final  -25.65 input  -60.55 | X-H torsion
[ 11005 11000 10999 10996 ] final  130.37 input  -57.11 | X-H torsion

> <Gold.Protein.ActiveResidues>
 VAL166  LYS551  ARG553  GLY616  TRP617  ASP618  TYR619  PRO620  LYS621  CYS622 
 ASP623  PHE694  ASN695  SER759  ASP760  ASP761  ALA762  ILE779  LEU786  VAL792 
 PHE793  MET794  SER795  GLU796  ALA797  LYS798  CYS799  TRP800  GLU811  SER814 

> <Gold.Protein.RotatedAtoms>
  152.5451  134.1610  159.8557 H   0  0  0  0  0  0  0  0  0  0  0  0  # atno 6907 bound_to 6896
  151.1629  133.4826  159.2601 H   0  0  0  0  0  0  0  0  0  0  0  0  # atno 6908 bound_to 6896
  151.1354  135.0163  159.8657 H   0  0  0  0  0  0  0  0  0  0  0  0  # atno 6909 bound_to 6896
  145.2335  139.2809  143.4155 H   0  0  0  0  0  0  0  0  0  0  0  0  # atno 7974 bound_to 7965
  154.4953  140.2133  155.9460 H   0  0  0  0  0  0  0  0  0  0  0  0  # atno 8008 bound_to 7997
  156.1362  140.3188  155.8392 H   0  0  0  0  0  0  0  0  0  0  0  0  # atno 8009 bound_to 7997
  155.4206  140.0496  157.3016 H   0  0  0  0  0  0  0  0  0  0  0  0  # atno 8010 bound_to 7997
  140.7257  143.3904  151.1441 H   0  0  0  0  0  0  0  0  0  0  0  0  # atno 10167 bound_to 10162
  157.1266  130.6572  149.5939 H   0  0  0  0  0  0  0  0  0  0  0  0  # atno 10718 bound_to 10713
  153.7032  135.6955  153.5057 H   0  0  0  0  0  0  0  0  0  0  0  0  # atno 10763 bound_to 10752
  153.2327  135.4332  155.0612 H   0  0  0  0  0  0  0  0  0  0  0  0  # atno 10764 bound_to 10752
  154.8338  135.3488  154.6571 H   0  0  0  0  0  0  0  0  0  0  0  0  # atno 10765 bound_to 10752
  139.9668  134.9588  156.9284 H   0  0  0  0  0  0  0  0  0  0  0  0  # atno 11005 bound_to 11000
  146.3347  140.2677  142.8604 LP  0  0  0  0  0  0  0  0  0  0  0  0  # atno 17320 bound_to 7965
  144.9654  140.8317  143.5487 LP  0  0  0  0  0  0  0  0  0  0  0  0  # atno 17321 bound_to 7965
  139.7508  143.8782  152.3076 LP  0  0  0  0  0  0  0  0  0  0  0  0  # atno 17342 bound_to 10162
  139.8635  144.7105  150.9072 LP  0  0  0  0  0  0  0  0  0  0  0  0  # atno 17343 bound_to 10162
  155.9817  130.4826  150.6841 LP  0  0  0  0  0  0  0  0  0  0  0  0  # atno 17370 bound_to 10713
  157.4430  131.0863  151.0925 LP  0  0  0  0  0  0  0  0  0  0  0  0  # atno 17371 bound_to 10713
  140.5379  134.0749  155.7333 LP  0  0  0  0  0  0  0  0  0  0  0  0  # atno 17394 bound_to 11000
  141.1348  133.9241  157.2458 LP  0  0  0  0  0  0  0  0  0  0  0  0  # atno 17395 bound_to 11000

$$$$
