AV-unprocessed.smi:1809|AV-procd|sdf|7317|dock2
  -GOLD-   22720 8573D 1   1.00000     0.00000
 Structure written by MMmdl.
 39 41  0  0  0  0  0  0  0  0  1 V2000
  150.0560  131.2223  154.6352 C   0  0  0  0  0  0  0  0  0  0  0  0
  150.1171  132.4341  155.5010 C   0  0  0  0  0  0  0  0  0  0  0  0
  150.1856  132.3668  156.8362 N   0  0  0  0  0  0  0  0  0  0  0  0
  150.2299  133.6230  157.4246 N   0  0  0  0  0  0  0  0  0  0  0  0
  150.1917  134.6041  156.5124 C   0  0  0  0  0  0  0  0  0  0  0  0
  150.2229  135.9861  156.8368 N   0  0  0  0  0  0  0  0  0  0  0  0
  150.8810  136.9753  156.2074 C   0  0  0  0  0  0  0  0  0  0  0  0
  151.5884  136.8370  155.2092 O   0  0  0  0  0  0  0  0  0  0  0  0
  150.6682  138.1557  156.8068 N   0  0  0  0  0  0  0  0  0  0  0  0
  151.2368  139.4299  156.3799 C   0  0  0  0  0  0  0  0  0  0  0  0
  151.2237  140.4693  157.5132 C   0  0  2  0  0  0  0  0  0  0  0  0
  151.3554  141.9087  156.9641 C   0  0  0  0  0  0  0  0  0  0  0  0
  151.4626  142.8514  158.0607 N   0  0  0  0  0  0  0  0  0  0  0  0
  151.6739  144.2372  157.7118 C   0  0  0  0  0  0  0  0  0  0  0  0
  152.1586  144.8885  159.0191 C   0  0  0  0  0  0  0  0  0  0  0  0
  152.6674  143.7060  159.8737 C   0  0  0  0  0  0  0  0  0  0  0  0
  152.5822  142.5274  158.9025 C   0  0  1  0  0  0  0  0  0  0  0  0
  152.4239  141.1212  159.4966 C   0  0  0  0  0  0  0  0  0  0  0  0
  152.3080  140.1980  158.4113 O   0  0  0  0  0  0  0  0  0  0  0  0
  150.0966  134.0662  154.8441 S   0  0  0  0  0  0  0  0  0  0  0  0
  150.5304  130.3745  155.1306 H   0  0  0  0  0  0  0  0  0  0  0  0
  150.5715  131.4073  153.6928 H   0  0  0  0  0  0  0  0  0  0  0  0
  149.0172  130.9690  154.4233 H   0  0  0  0  0  0  0  0  0  0  0  0
  149.6767  136.2535  157.6422 H   0  0  0  0  0  0  0  0  0  0  0  0
  150.0740  138.1756  157.6224 H   0  0  0  0  0  0  0  0  0  0  0  0
  152.2481  139.2977  155.9912 H   0  0  0  0  0  0  0  0  0  0  0  0
  150.6342  139.7914  155.5463 H   0  0  0  0  0  0  0  0  0  0  0  0
  150.2860  140.3849  158.0658 H   0  0  0  0  0  0  0  0  0  0  0  0
  152.2364  141.9807  156.3245 H   0  0  0  0  0  0  0  0  0  0  0  0
  150.4926  142.1565  156.3451 H   0  0  0  0  0  0  0  0  0  0  0  0
  152.4487  144.3191  156.9477 H   0  0  0  0  0  0  0  0  0  0  0  0
  150.7651  144.6977  157.3237 H   0  0  0  0  0  0  0  0  0  0  0  0
  152.9434  145.6200  158.8242 H   0  0  0  0  0  0  0  0  0  0  0  0
  151.3413  145.4007  159.5280 H   0  0  0  0  0  0  0  0  0  0  0  0
  153.6805  143.8599  160.2464 H   0  0  0  0  0  0  0  0  0  0  0  0
  152.0096  143.5508  160.7300 H   0  0  0  0  0  0  0  0  0  0  0  0
  153.4915  142.5342  158.2969 H   0  0  0  0  0  0  0  0  0  0  0  0
  153.2901  140.8583  160.1040 H   0  0  0  0  0  0  0  0  0  0  0  0
  151.5425  141.0581  160.1364 H   0  0  0  0  0  0  0  0  0  0  0  0
  1  2  1  0  0  0  0
  1 21  1  0  0  0  0
  1 22  1  0  0  0  0
  1 23  1  0  0  0  0
  2 20  1  0  0  0  0
  2  3  2  0  0  0  0
  3  4  1  0  0  0  0
  4  5  2  0  0  0  0
  5  6  1  0  0  0  0
  5 20  1  0  0  0  0
  6  7  1  0  0  0  0
  6 24  1  0  0  0  0
  7  8  2  0  0  0  0
  7  9  1  0  0  0  0
  9 10  1  0  0  0  0
  9 25  1  0  0  0  0
 10 11  1  0  0  0  0
 10 26  1  0  0  0  0
 10 27  1  0  0  0  0
 11 19  1  0  0  0  0
 11 12  1  0  0  0  0
 11 28  1  0  0  0  0
 12 13  1  0  0  0  0
 12 29  1  0  0  0  0
 12 30  1  0  0  0  0
 13 17  1  0  0  0  0
 13 14  1  0  0  0  0
 14 15  1  0  0  0  0
 14 31  1  0  0  0  0
 14 32  1  0  0  0  0
 15 16  1  0  0  0  0
 15 33  1  0  0  0  0
 15 34  1  0  0  0  0
 16 17  1  0  0  0  0
 16 35  1  0  0  0  0
 16 36  1  0  0  0  0
 17 18  1  0  0  0  0
 17 37  1  0  0  0  0
 18 19  1  0  0  0  0
 18 38  1  0  0  0  0
 18 39  1  0  0  0  0
M  END
> <s_m_source_file>
AV-unprocessed.smi

> <i_m_source_file_index>
1809

> <i_lp_mmshare_version>
43012

> <i_f3d_flags>
0

> <s_epik_input>
W0NIM11jMW5uYyhzMSlbTkhdQyg9TylbTkhdW0NIMl1bQ0BIXShbQ0gyXTIpT1tDSDJdW0NAQEhdKE4yMylbQ0gyXVtDSDJdW0NIMl0z

> <s_epik_cmdline>
J2VwaWtfcHl0aG9uJywgJy1waCcsICc3LjAnLCAnLXRuJywgJzgnLCAnLW1hJywgJzIwMCcsICctbWV0YWxfYmluZGluZycsICctaW1hZScsICc8aW5maWxlLm1hZT4nLCAnLW9tYWUnLCAnPG91dGZpbGUubWFlPic=

> <r_lp_tautomer_probability>
1

> <r_epik_Ionization_Penalty>
1.05954

> <r_epik_Ionization_Penalty_Charging>
0

> <r_epik_Ionization_Penalty_Neutral>
1.05954

> <r_epik_State_Penalty>
1.4238

> <r_epik_Charging_Adjusted_Penalty>
1.4238

> <i_epik_Tot_Q>
0

> <i_epik_Tot_abs_Q>
0

> <r_epik_Metal_State_Penalty>
1.7901

> <b_epik_Metal_Only>
0

> <s_lp_Force_Field>
OPLS_2005

> <r_lp_Energy>
46.8482

> <b_lp_Chiralities_Consistent>
1

> <s_lp_Variant>
AV-unprocessed.smi:1809-9

> <Gold.Version>
5.8.1

> <Gold.Id.Protein>
6NUR|6NUR_protein|mol2

> <Gold.PLP.Fitness>
40.1682

> <Gold.PLP.PLP>
-35.5387

> <Gold.PLP.part.hbond>
-2.0000

> <Gold.PLP.part.metal>
0.0000

> <Gold.PLP.part.buried>
-5.6873

> <Gold.PLP.part.nonpolar>
-28.2580

> <Gold.PLP.part.repulsive>
0.2518

> <Gold.PLP.ligand.clash>
0.0000

> <Gold.PLP.ligand.torsion>
0.6264

> <Gold.PLP.Chemscore.Hbond>
1.9600

> <Gold.PLP.Chemscore.CHOScore>
0.0000

> <Gold.PLP.Chemscore.Metal>
0.0000

> <Gold.Chemscore.Hbonds>
donor molecule, donor type, donor heavy atom, donor atom, acceptor molecule, acceptor atom, score
      P1  H  6896  6908       L1     4  0.98
      P1  H 10752 10765       L1     8  1.00

> <Gold.PLP.Chemscore.Internal.Correction>
0.0023

> <Gold.Rescore>
     Score         DG    S(hbond)    S(metal)    S(lipo)     H(rot)  DE(clash)    DE(int)     intcor
     18.86     -19.38       1.94        0.00      92.32       1.32       0.01       0.50       ----

> <Gold.Chemscore.Fitness>
18.8650

> <Gold.Chemscore.DG>
-19.3766

> <Gold.Chemscore.ZeroCoef>
-5.4800

> <Gold.Chemscore.Hbond>
1.9380

> <Gold.Chemscore.Metal>
0.0000

> <Gold.Chemscore.Lipo>
92.3237

> <Gold.Chemscore.Internal_Hbond>
0.0000

> <Gold.Chemscore.DEClash>
0.0089

> <Gold.Chemscore.DEInternal>
0.5027

> <Gold.Chemscore.Rot>
1.3196

> <Gold.Chemscore.Internal.Correction>
   9.000000E+99

> <Gold.Chemscore.Hbonds>
donor molecule, donor type, donor heavy atom, donor atom, acceptor molecule, acceptor atom, score
      P1  H  6896  6908       L1     4  0.84
      P1  H 10752 10765       L1     8  0.96

> <Gold.Chemscore.Hbond.Weighted>
-6.4730

> <Gold.Chemscore.Metal.Weighted>
-0.0000

> <Gold.Chemscore.Lipo.Weighted>
-10.8019

> <Gold.Chemscore.Internal_Hbond.Weighted>
0.0000

> <Gold.Chemscore.DEClash.Weighted>
0.0089

> <Gold.Chemscore.DEInternal.Weighted>
0.5027

> <Gold.Chemscore.Rot.Weighted>
3.3783

> <Gold.Chemscore.Internal.Correction.Weighted>
   9.000000E+99

> <Gold.Protein.RotatedTorsions>
[ 6907 6896 6895 6894 ] final  108.79 input  -60.11 | X-H torsion
[ 7974 7965 7964 7962 ] final  144.93 input  175.53 | X-H torsion
[ 8008 7997 7996 7995 ] final  152.84 input   59.86 | X-H torsion
[ 10167 10162 10161 10158 ] final  171.89 input  -65.29 | X-H torsion
[ 10718 10713 10712 10709 ] final   58.37 input   66.30 | X-H torsion
[ 10763 10752 10751 10750 ] final -162.71 input  -60.55 | X-H torsion
[ 11005 11000 10999 10996 ] final  105.29 input  -57.11 | X-H torsion

> <Gold.Protein.ActiveResidues>
 VAL166  LYS551  ARG553  GLY616  TRP617  ASP618  TYR619  PRO620  LYS621  CYS622 
 ASP623  PHE694  ASN695  SER759  ASP760  ASP761  ALA762  ILE779  LEU786  VAL792 
 PHE793  MET794  SER795  GLU796  ALA797  LYS798  CYS799  TRP800  GLU811  SER814 

> <Gold.Protein.RotatedAtoms>
  152.5096  133.9038  159.7453 H   0  0  0  0  0  0  0  0  0  0  0  0  # atno 6907 bound_to 6896
  150.9447  133.6607  159.2790 H   0  0  0  0  0  0  0  0  0  0  0  0  # atno 6908 bound_to 6896
  151.3907  135.0960  159.9578 H   0  0  0  0  0  0  0  0  0  0  0  0  # atno 6909 bound_to 6896
  144.8795  139.5721  143.5849 H   0  0  0  0  0  0  0  0  0  0  0  0  # atno 7974 bound_to 7965
  156.2610  140.2010  156.6397 H   0  0  0  0  0  0  0  0  0  0  0  0  # atno 8008 bound_to 7997
  154.6619  140.0560  157.0096 H   0  0  0  0  0  0  0  0  0  0  0  0  # atno 8009 bound_to 7997
  155.1263  140.3229  155.4487 H   0  0  0  0  0  0  0  0  0  0  0  0  # atno 8010 bound_to 7997
  139.5060  144.3435  151.9994 H   0  0  0  0  0  0  0  0  0  0  0  0  # atno 10167 bound_to 10162
  157.5590  130.8822  149.9081 H   0  0  0  0  0  0  0  0  0  0  0  0  # atno 10718 bound_to 10713
  154.7189  135.3021  154.9079 H   0  0  0  0  0  0  0  0  0  0  0  0  # atno 10763 bound_to 10752
  153.9957  135.6713  153.4760 H   0  0  0  0  0  0  0  0  0  0  0  0  # atno 10764 bound_to 10752
  153.0817  135.5005  154.8433 H   0  0  0  0  0  0  0  0  0  0  0  0  # atno 10765 bound_to 10752
  139.8800  134.9330  156.5492 H   0  0  0  0  0  0  0  0  0  0  0  0  # atno 11005 bound_to 11000
  146.2985  139.7352  142.9109 LP  0  0  0  0  0  0  0  0  0  0  0  0  # atno 17320 bound_to 7965
  145.3981  141.0381  143.3086 LP  0  0  0  0  0  0  0  0  0  0  0  0  # atno 17321 bound_to 7965
  140.2873  144.3793  150.6099 LP  0  0  0  0  0  0  0  0  0  0  0  0  # atno 17342 bound_to 10162
  140.5973  143.2167  151.7140 LP  0  0  0  0  0  0  0  0  0  0  0  0  # atno 17343 bound_to 10162
  156.0645  130.3694  150.0908 LP  0  0  0  0  0  0  0  0  0  0  0  0  # atno 17370 bound_to 10713
  156.9074  130.9640  151.3568 LP  0  0  0  0  0  0  0  0  0  0  0  0  # atno 17371 bound_to 10713
  140.8253  133.8322  155.8933 LP  0  0  0  0  0  0  0  0  0  0  0  0  # atno 17394 bound_to 11000
  140.9380  134.1937  157.4818 LP  0  0  0  0  0  0  0  0  0  0  0  0  # atno 17395 bound_to 11000

$$$$
