AV-unprocessed.smi:1434|AV-procd|sdf|5851|dock8
  -GOLD-   22720 5523D 1   1.00000     0.00000
 Structure written by MMmdl.
 45 46  0  0  0  0  0  0  0  0  2 V2000
  145.3267  136.9628  156.1163 C   0  0  0  0  0  0  0  0  0  0  0  0
  144.3611  137.6444  154.7093 S   0  0  0  0  0  0  0  0  0  0  0  0
  143.8119  136.5218  153.9338 O   0  0  0  0  0  0  0  0  0  0  0  0
  143.4718  138.7052  155.2055 O   0  0  0  0  0  0  0  0  0  0  0  0
  145.5808  138.4001  153.7526 N   0  0  0  0  0  0  0  0  0  0  0  0
  146.3351  139.5118  154.3334 C   0  0  2  0  0  0  0  0  0  0  0  0
  145.3894  140.6863  154.6631 C   0  0  0  0  0  0  0  0  0  0  0  0
  146.1707  141.9443  155.0879 C   0  0  0  0  0  0  0  0  0  0  0  0
  147.2876  142.2686  154.0790 C   0  0  0  0  0  0  0  0  0  0  0  0
  148.1636  141.0912  153.9488 N   0  0  0  0  0  0  0  0  0  0  0  0
  149.3960  140.9453  154.4975 C   0  0  0  0  0  0  0  0  0  0  0  0
  150.1557  140.0175  154.2155 O   0  0  0  0  0  0  0  0  0  0  0  0
  149.7485  141.9157  155.3583 N   0  0  0  0  0  0  0  0  0  0  0  0
  151.0212  141.9865  156.0665 C   0  0  0  0  0  0  0  0  0  0  0  0
  150.8549  141.6598  157.5600 C   0  0  0  0  0  0  0  0  0  0  0  0
  151.1383  142.8583  158.4448 C   0  0  0  0  0  0  0  0  0  0  0  0
  152.0052  142.7804  159.5565 C   0  0  0  0  0  0  0  0  0  0  0  0
  152.2315  143.9337  160.3362 C   0  0  0  0  0  0  0  0  0  0  0  0
  151.5884  145.1395  159.9878 C   0  0  0  0  0  0  0  0  0  0  0  0
  150.7343  145.1614  158.8664 C   0  0  0  0  0  0  0  0  0  0  0  0
  150.5426  144.0352  158.1445 N   0  3  0  0  0  0  0  0  0  0  0  0
  147.4420  139.9571  153.3580 C   0  0  0  0  0  0  0  0  0  0  0  0
  144.6516  136.4589  156.8076 H   0  0  0  0  0  0  0  0  0  0  0  0
  145.8381  137.7727  156.6358 H   0  0  0  0  0  0  0  0  0  0  0  0
  146.0604  136.2489  155.7423 H   0  0  0  0  0  0  0  0  0  0  0  0
  146.2079  137.7066  153.3457 H   0  0  0  0  0  0  0  0  0  0  0  0
  146.8100  139.1661  155.2534 H   0  0  0  0  0  0  0  0  0  0  0  0
  144.7908  140.9261  153.7830 H   0  0  0  0  0  0  0  0  0  0  0  0
  144.6851  140.4035  155.4458 H   0  0  0  0  0  0  0  0  0  0  0  0
  145.4901  142.7911  155.1813 H   0  0  0  0  0  0  0  0  0  0  0  0
  146.6066  141.7866  156.0752 H   0  0  0  0  0  0  0  0  0  0  0  0
  146.8526  142.4998  153.1056 H   0  0  0  0  0  0  0  0  0  0  0  0
  147.8078  143.1768  154.3831 H   0  0  0  0  0  0  0  0  0  0  0  0
  149.0838  142.6555  155.5331 H   0  0  0  0  0  0  0  0  0  0  0  0
  151.7416  141.3087  155.6050 H   0  0  0  0  0  0  0  0  0  0  0  0
  151.4215  142.9933  155.9454 H   0  0  0  0  0  0  0  0  0  0  0  0
  149.8418  141.3053  157.7555 H   0  0  0  0  0  0  0  0  0  0  0  0
  151.5240  140.8471  157.8464 H   0  0  0  0  0  0  0  0  0  0  0  0
  152.4929  141.8499  159.8092 H   0  0  0  0  0  0  0  0  0  0  0  0
  152.8911  143.8935  161.1908 H   0  0  0  0  0  0  0  0  0  0  0  0
  151.7487  146.0341  160.5719 H   0  0  0  0  0  0  0  0  0  0  0  0
  150.2029  146.0387  158.5273 H   0  0  0  0  0  0  0  0  0  0  0  0
  148.1010  139.1189  153.1250 H   0  0  0  0  0  0  0  0  0  0  0  0
  147.0088  140.2637  152.4046 H   0  0  0  0  0  0  0  0  0  0  0  0
  149.9207  144.0747  157.3366 H   0  0  0  0  0  0  0  0  0  0  0  0
  1  2  1  0  0  0  0
  1 23  1  0  0  0  0
  1 24  1  0  0  0  0
  1 25  1  0  0  0  0
  2  3  2  0  0  0  0
  2  4  2  0  0  0  0
  2  5  1  0  0  0  0
  5  6  1  0  0  0  0
  5 26  1  0  0  0  0
  6 22  1  0  0  0  0
  6  7  1  0  0  0  0
  6 27  1  0  0  0  0
  7  8  1  0  0  0  0
  7 28  1  0  0  0  0
  7 29  1  0  0  0  0
  8  9  1  0  0  0  0
  8 30  1  0  0  0  0
  8 31  1  0  0  0  0
  9 10  1  0  0  0  0
  9 32  1  0  0  0  0
  9 33  1  0  0  0  0
 10 11  1  0  0  0  0
 10 22  1  0  0  0  0
 11 12  2  0  0  0  0
 11 13  1  0  0  0  0
 13 14  1  0  0  0  0
 13 34  1  0  0  0  0
 14 15  1  0  0  0  0
 14 35  1  0  0  0  0
 14 36  1  0  0  0  0
 15 16  1  0  0  0  0
 15 37  1  0  0  0  0
 15 38  1  0  0  0  0
 16 21  1  0  0  0  0
 16 17  2  0  0  0  0
 17 18  1  0  0  0  0
 17 39  1  0  0  0  0
 18 19  2  0  0  0  0
 18 40  1  0  0  0  0
 19 20  1  0  0  0  0
 19 41  1  0  0  0  0
 20 21  2  0  0  0  0
 20 42  1  0  0  0  0
 21 45  1  0  0  0  0
 22 43  1  0  0  0  0
 22 44  1  0  0  0  0
M  CHG  1  21   1
M  END
> <s_m_source_file>
AV-unprocessed.smi

> <i_m_source_file_index>
1434

> <i_lp_mmshare_version>
43012

> <i_f3d_flags>
0

> <s_epik_input>
W0NIM11TKD1PKSg9TylbTkhdW0NAQEhdMVtDSDJdW0NIMl1bQ0gyXU4oW0NIMl0xKUMoPU8pW05IXVtDSDJdW0NIMl1jMltjSF1bY0hdW2NIXVtjSF1uMg==

> <s_epik_cmdline>
J2VwaWtfcHl0aG9uJywgJy1waCcsICc3LjAnLCAnLXRuJywgJzgnLCAnLW1hJywgJzIwMCcsICctbWV0YWxfYmluZGluZycsICctaW1hZScsICc8aW5maWxlLm1hZT4nLCAnLW9tYWUnLCAnPG91dGZpbGUubWFlPic=

> <r_epik_Ionization_Penalty>
1.55113

> <r_epik_Ionization_Penalty_Charging>
1.55107

> <r_epik_Ionization_Penalty_Neutral>
6.01346e-05

> <r_epik_State_Penalty>
1.64529

> <r_epik_Charging_Adjusted_Penalty>
3.19637

> <i_epik_Tot_Q>
1

> <i_epik_Tot_abs_Q>
1

> <r_epik_Metal_State_Penalty>
1.69621

> <b_epik_Metal_Only>
0

> <s_lp_Force_Field>
OPLS_2005

> <r_lp_Energy>
27.1225

> <b_lp_Chiralities_Consistent>
1

> <s_lp_Variant>
AV-unprocessed.smi:1434-3

> <Gold.Version>
5.8.1

> <Gold.Id.Protein>
6NUR|6NUR_protein|mol2

> <Gold.PLP.Fitness>
48.6890

> <Gold.PLP.PLP>
-37.9968

> <Gold.PLP.part.hbond>
-3.9964

> <Gold.PLP.part.metal>
0.0000

> <Gold.PLP.part.buried>
-2.7187

> <Gold.PLP.part.nonpolar>
-31.0225

> <Gold.PLP.part.repulsive>
0.5175

> <Gold.PLP.ligand.clash>
0.0000

> <Gold.PLP.ligand.torsion>
0.6996

> <Gold.PLP.Chemscore.Hbond>
3.9760

> <Gold.PLP.Chemscore.CHOScore>
0.0000

> <Gold.PLP.Chemscore.Metal>
0.0000

> <Gold.Chemscore.Hbonds>
donor molecule, donor type, donor heavy atom, donor atom, acceptor molecule, acceptor atom, score
      L1  H    13    34       P1  8028  0.77
      L1  H    21    45       P1  8028  1.92
      P1  H  7989  7998       L1    12  1.00

> <Gold.PLP.Chemscore.Internal.Correction>
0.1635

> <Gold.Rescore>
     Score         DG    S(hbond)    S(metal)    S(lipo)     H(rot)  DE(clash)    DE(int)     intcor
     16.26     -18.06       2.07        0.00      95.05       2.13       0.83       0.97       ----

> <Gold.Chemscore.Fitness>
16.2589

> <Gold.Chemscore.DG>
-18.0615

> <Gold.Chemscore.ZeroCoef>
-5.4800

> <Gold.Chemscore.Hbond>
2.0720

> <Gold.Chemscore.Metal>
0.0000

> <Gold.Chemscore.Lipo>
95.0465

> <Gold.Chemscore.Internal_Hbond>
0.0000

> <Gold.Chemscore.DEClash>
0.8296

> <Gold.Chemscore.DEInternal>
0.9729

> <Gold.Chemscore.Rot>
2.1326

> <Gold.Chemscore.Internal.Correction>
   9.000000E+99

> <Gold.Chemscore.Hbonds>
donor molecule, donor type, donor heavy atom, donor atom, acceptor molecule, acceptor atom, score
      L1  H    13    34       P1  8028  0.75
      L1  H    21    45       P1  8028  0.59
      P1  H  7989  7998       L1    12  0.38

> <Gold.Chemscore.Hbond.Weighted>
-6.9205

> <Gold.Chemscore.Metal.Weighted>
-0.0000

> <Gold.Chemscore.Lipo.Weighted>
-11.1204

> <Gold.Chemscore.Internal_Hbond.Weighted>
0.0000

> <Gold.Chemscore.DEClash.Weighted>
0.8296

> <Gold.Chemscore.DEInternal.Weighted>
0.9729

> <Gold.Chemscore.Rot.Weighted>
5.4595

> <Gold.Chemscore.Internal.Correction.Weighted>
   9.000000E+99

> <Gold.Protein.RotatedTorsions>
[ 6907 6896 6895 6894 ] final  170.95 input  -60.11 | X-H torsion
[ 7974 7965 7964 7962 ] final  148.11 input  175.53 | X-H torsion
[ 8008 7997 7996 7995 ] final   24.02 input   59.86 | X-H torsion
[ 10167 10162 10161 10158 ] final  -57.70 input  -65.29 | X-H torsion
[ 10718 10713 10712 10709 ] final   15.17 input   66.30 | X-H torsion
[ 10763 10752 10751 10750 ] final   27.86 input  -60.55 | X-H torsion
[ 11005 11000 10999 10996 ] final   30.56 input  -57.11 | X-H torsion

> <Gold.Protein.ActiveResidues>
 VAL166  LYS551  ARG553  GLY616  TRP617  ASP618  TYR619  PRO620  LYS621  CYS622 
 ASP623  PHE694  ASN695  SER759  ASP760  ASP761  ALA762  ILE779  LEU786  VAL792 
 PHE793  MET794  SER795  GLU796  ALA797  LYS798  CYS799  TRP800  GLU811  SER814 

> <Gold.Protein.RotatedAtoms>
  151.8079  133.3378  159.3546 H   0  0  0  0  0  0  0  0  0  0  0  0  # atno 6907 bound_to 6896
  150.7336  134.5691  159.5890 H   0  0  0  0  0  0  0  0  0  0  0  0  # atno 6908 bound_to 6896
  152.3096  134.7515  160.0391 H   0  0  0  0  0  0  0  0  0  0  0  0  # atno 6909 bound_to 6896
  144.8539  139.6112  143.5961 H   0  0  0  0  0  0  0  0  0  0  0  0  # atno 7974 bound_to 7965
  154.9899  140.3112  155.4910 H   0  0  0  0  0  0  0  0  0  0  0  0  # atno 8008 bound_to 7997
  156.2941  140.2251  156.4943 H   0  0  0  0  0  0  0  0  0  0  0  0  # atno 8009 bound_to 7997
  154.7713  140.0452  157.1041 H   0  0  0  0  0  0  0  0  0  0  0  0  # atno 8010 bound_to 7997
  140.6242  143.2431  151.5404 H   0  0  0  0  0  0  0  0  0  0  0  0  # atno 10167 bound_to 10162
  157.0497  130.6265  149.5765 H   0  0  0  0  0  0  0  0  0  0  0  0  # atno 10718 bound_to 10713
  153.0528  135.6527  154.0650 H   0  0  0  0  0  0  0  0  0  0  0  0  # atno 10763 bound_to 10752
  154.0335  135.2909  155.3366 H   0  0  0  0  0  0  0  0  0  0  0  0  # atno 10764 bound_to 10752
  154.6827  135.5313  153.8351 H   0  0  0  0  0  0  0  0  0  0  0  0  # atno 10765 bound_to 10752
  140.2931  134.2842  155.7771 H   0  0  0  0  0  0  0  0  0  0  0  0  # atno 11005 bound_to 11000
  146.2807  139.6870  142.9231 LP  0  0  0  0  0  0  0  0  0  0  0  0  # atno 17320 bound_to 7965
  145.4445  141.0424  143.2839 LP  0  0  0  0  0  0  0  0  0  0  0  0  # atno 17321 bound_to 7965
  139.5465  144.2506  152.1452 LP  0  0  0  0  0  0  0  0  0  0  0  0  # atno 17342 bound_to 10162
  140.1734  144.4914  150.6567 LP  0  0  0  0  0  0  0  0  0  0  0  0  # atno 17343 bound_to 10162
  156.0011  130.5091  150.7668 LP  0  0  0  0  0  0  0  0  0  0  0  0  # atno 17370 bound_to 10713
  157.5040  131.0920  151.0280 LP  0  0  0  0  0  0  0  0  0  0  0  0  # atno 17371 bound_to 10713
  141.2142  133.7597  156.9654 LP  0  0  0  0  0  0  0  0  0  0  0  0  # atno 17394 bound_to 11000
  140.1178  134.9436  157.2159 LP  0  0  0  0  0  0  0  0  0  0  0  0  # atno 17395 bound_to 11000

$$$$
