AV-unprocessed.smi:2004|AV-procd|sdf|8122|dock4
  -GOLD-   2272010353D 1   1.00000     0.00000
 Structure written by MMmdl.
 39 41  0  0  0  0  0  0  0  0  1 V2000
  150.1085  140.5492  153.7870 O   0  0  0  0  0  0  0  0  0  0  0  0
  149.0678  140.3941  154.7324 C   0  0  1  0  0  0  0  0  0  0  0  0
  149.2792  141.4172  155.8588 C   0  0  0  0  0  0  0  0  0  0  0  0
  150.6484  141.4167  156.2274 O   0  0  0  0  0  0  0  0  0  0  0  0
  150.8494  141.1528  157.6063 C   0  0  0  0  0  0  0  0  0  0  0  0
  151.2278  142.4082  158.3683 C   0  0  0  0  0  0  0  0  0  0  0  0
  152.4458  142.4650  159.0786 C   0  0  0  0  0  0  0  0  0  0  0  0
  152.7926  143.6249  159.7988 C   0  0  0  0  0  0  0  0  0  0  0  0
  151.9208  144.7308  159.8159 C   0  0  0  0  0  0  0  0  0  0  0  0
  150.7003  144.6750  159.1152 C   0  0  0  0  0  0  0  0  0  0  0  0
  150.3530  143.5151  158.3950 C   0  0  0  0  0  0  0  0  0  0  0  0
  147.7143  140.5900  154.0223 C   0  0  0  0  0  0  0  0  0  0  0  0
  146.6999  141.1394  154.9040 N   0  0  0  0  0  0  0  0  0  0  0  0
  146.3637  140.7002  156.1326 C   0  0  0  0  0  0  0  0  0  0  0  0
  145.3993  141.3567  156.7714 N   0  0  0  0  0  0  0  0  0  0  0  0
  145.0711  142.3367  155.8500 C   0  0  0  0  0  0  0  0  0  0  0  0
  144.1107  143.3716  155.9145 C   0  0  0  0  0  0  0  0  0  0  0  0
  143.9510  144.2663  154.8354 C   0  0  0  0  0  0  0  0  0  0  0  0
  144.7470  144.1408  153.6781 C   0  0  0  0  0  0  0  0  0  0  0  0
  145.7104  143.1175  153.5908 C   0  0  0  0  0  0  0  0  0  0  0  0
  145.8665  142.2271  154.6695 C   0  0  0  0  0  0  0  0  0  0  0  0
  149.7238  140.5833  152.9242 H   0  0  0  0  0  0  0  0  0  0  0  0
  149.1106  139.3847  155.1438 H   0  0  0  0  0  0  0  0  0  0  0  0
  148.9457  142.4119  155.5570 H   0  0  0  0  0  0  0  0  0  0  0  0
  148.6909  141.1296  156.7318 H   0  0  0  0  0  0  0  0  0  0  0  0
  149.9416  140.7233  158.0333 H   0  0  0  0  0  0  0  0  0  0  0  0
  151.6478  140.4204  157.7343 H   0  0  0  0  0  0  0  0  0  0  0  0
  153.1178  141.6190  159.0722 H   0  0  0  0  0  0  0  0  0  0  0  0
  153.7271  143.6655  160.3387 H   0  0  0  0  0  0  0  0  0  0  0  0
  152.1862  145.6202  160.3682 H   0  0  0  0  0  0  0  0  0  0  0  0
  150.0297  145.5215  159.1309 H   0  0  0  0  0  0  0  0  0  0  0  0
  149.4137  143.4801  157.8626 H   0  0  0  0  0  0  0  0  0  0  0  0
  147.8269  141.2671  153.1749 H   0  0  0  0  0  0  0  0  0  0  0  0
  147.3532  139.6425  153.6187 H   0  0  0  0  0  0  0  0  0  0  0  0
  146.8573  139.8522  156.5845 H   0  0  0  0  0  0  0  0  0  0  0  0
  143.4960  143.4773  156.7961 H   0  0  0  0  0  0  0  0  0  0  0  0
  143.2140  145.0535  154.8963 H   0  0  0  0  0  0  0  0  0  0  0  0
  144.6175  144.8312  152.8574 H   0  0  0  0  0  0  0  0  0  0  0  0
  146.3225  143.0182  152.7067 H   0  0  0  0  0  0  0  0  0  0  0  0
  1  2  1  0  0  0  0
  1 22  1  0  0  0  0
  2  3  1  0  0  0  0
  2 12  1  0  0  0  0
  2 23  1  0  0  0  0
  3  4  1  0  0  0  0
  3 24  1  0  0  0  0
  3 25  1  0  0  0  0
  4  5  1  0  0  0  0
  5  6  1  0  0  0  0
  5 26  1  0  0  0  0
  5 27  1  0  0  0  0
  6 11  1  0  0  0  0
  6  7  2  0  0  0  0
  7  8  1  0  0  0  0
  7 28  1  0  0  0  0
  8  9  2  0  0  0  0
  8 29  1  0  0  0  0
  9 10  1  0  0  0  0
  9 30  1  0  0  0  0
 10 11  2  0  0  0  0
 10 31  1  0  0  0  0
 11 32  1  0  0  0  0
 12 13  1  0  0  0  0
 12 33  1  0  0  0  0
 12 34  1  0  0  0  0
 13 21  1  0  0  0  0
 13 14  1  0  0  0  0
 14 15  2  0  0  0  0
 14 35  1  0  0  0  0
 15 16  1  0  0  0  0
 16 21  2  0  0  0  0
 16 17  1  0  0  0  0
 17 18  2  0  0  0  0
 17 36  1  0  0  0  0
 18 19  1  0  0  0  0
 18 37  1  0  0  0  0
 19 20  2  0  0  0  0
 19 38  1  0  0  0  0
 20 21  1  0  0  0  0
 20 39  1  0  0  0  0
M  END
> <s_m_source_file>
AV-unprocessed.smi

> <i_m_source_file_index>
2004

> <i_lp_mmshare_version>
43012

> <i_f3d_flags>
0

> <s_epik_input>
W2NIXTFbY0hdW2NIXVtjSF1jKGMxMiluKFtjSF1uMilbQ0gyXVtDQEhdKFtPSF0pW0NIMl1PW0NIMl1jM1tjSF1bY0hdW2NIXVtjSF1bY0hdMw==

> <s_epik_cmdline>
J2VwaWtfcHl0aG9uJywgJy1waCcsICc3LjAnLCAnLXRuJywgJzgnLCAnLW1hJywgJzIwMCcsICctbWV0YWxfYmluZGluZycsICctaW1hZScsICc8aW5maWxlLm1hZT4nLCAnLW9tYWUnLCAnPG91dGZpbGUubWFlPic=

> <r_epik_Ionization_Penalty>
0.0713119

> <r_epik_Ionization_Penalty_Charging>
0

> <r_epik_Ionization_Penalty_Neutral>
0.0713119

> <r_epik_State_Penalty>
0.06259

> <r_epik_Charging_Adjusted_Penalty>
0.06259

> <i_epik_Tot_Q>
0

> <i_epik_Tot_abs_Q>
0

> <r_epik_Metal_State_Penalty>
6.60119e-05

> <b_epik_Metal_Only>
0

> <s_lp_Force_Field>
OPLS_2005

> <r_lp_Energy>
14.5219

> <b_lp_Chiralities_Consistent>
1

> <s_lp_Variant>
AV-unprocessed.smi:2004-2

> <Gold.Version>
5.8.1

> <Gold.Id.Protein>
6NUR|6NUR_protein|mol2

> <Gold.PLP.Fitness>
48.3134

> <Gold.PLP.PLP>
-45.6083

> <Gold.PLP.part.hbond>
-1.6542

> <Gold.PLP.part.metal>
0.0000

> <Gold.PLP.part.buried>
-8.3116

> <Gold.PLP.part.nonpolar>
-36.5704

> <Gold.PLP.part.repulsive>
0.0860

> <Gold.PLP.ligand.clash>
0.0000

> <Gold.PLP.ligand.torsion>
1.2809

> <Gold.PLP.Chemscore.Hbond>
1.7040

> <Gold.PLP.Chemscore.CHOScore>
0.0000

> <Gold.PLP.Chemscore.Metal>
0.0000

> <Gold.Chemscore.Hbonds>
donor molecule, donor type, donor heavy atom, donor atom, acceptor molecule, acceptor atom, score
      L1  H     1    22       P1  7957  1.00
      P1  H  7989  7998       L1     1  0.64

> <Gold.PLP.Chemscore.Internal.Correction>
0.1550

> <Gold.Rescore>
     Score         DG    S(hbond)    S(metal)    S(lipo)     H(rot)  DE(clash)    DE(int)     intcor
     17.26     -18.65       1.51        0.00     120.57       2.33       0.25       1.14       ----

> <Gold.Chemscore.Fitness>
17.2557

> <Gold.Chemscore.DG>
-18.6530

> <Gold.Chemscore.ZeroCoef>
-5.4800

> <Gold.Chemscore.Hbond>
1.5053

> <Gold.Chemscore.Metal>
0.0000

> <Gold.Chemscore.Lipo>
120.5711

> <Gold.Chemscore.Internal_Hbond>
0.0000

> <Gold.Chemscore.DEClash>
0.2528

> <Gold.Chemscore.DEInternal>
1.1445

> <Gold.Chemscore.Rot>
2.3288

> <Gold.Chemscore.Internal.Correction>
   9.000000E+99

> <Gold.Chemscore.Hbonds>
donor molecule, donor type, donor heavy atom, donor atom, acceptor molecule, acceptor atom, score
      L1  H     1    22       P1  7957  0.96
      P1  H  7989  7998       L1     1  0.18

> <Gold.Chemscore.Hbond.Weighted>
-5.0278

> <Gold.Chemscore.Metal.Weighted>
-0.0000

> <Gold.Chemscore.Lipo.Weighted>
-14.1068

> <Gold.Chemscore.Internal_Hbond.Weighted>
0.0000

> <Gold.Chemscore.DEClash.Weighted>
0.2528

> <Gold.Chemscore.DEInternal.Weighted>
1.1445

> <Gold.Chemscore.Rot.Weighted>
5.9616

> <Gold.Chemscore.Internal.Correction.Weighted>
   9.000000E+99

> <Gold.Protein.RotatedTorsions>
[ 6907 6896 6895 6894 ] final   23.40 input  -60.11 | X-H torsion
[ 7974 7965 7964 7962 ] final  146.24 input  175.53 | X-H torsion
[ 8008 7997 7996 7995 ] final -119.66 input   59.86 | X-H torsion
[ 10167 10162 10161 10158 ] final   39.65 input  -65.29 | X-H torsion
[ 10718 10713 10712 10709 ] final  123.88 input   66.30 | X-H torsion
[ 10763 10752 10751 10750 ] final  -43.54 input  -60.55 | X-H torsion
[ 11005 11000 10999 10996 ] final  -89.42 input  -57.11 | X-H torsion

> <Gold.Protein.ActiveResidues>
 VAL166  LYS551  ARG553  GLY616  TRP617  ASP618  TYR619  PRO620  LYS621  CYS622 
 ASP623  PHE694  ASN695  SER759  ASP760  ASP761  ALA762  ILE779  LEU786  VAL792 
 PHE793  MET794  SER795  GLU796  ALA797  LYS798  CYS799  TRP800  GLU811  SER814 

> <Gold.Protein.RotatedAtoms>
  151.9418  135.0210  160.0536 H   0  0  0  0  0  0  0  0  0  0  0  0  # atno 6907 bound_to 6896
  152.2030  133.4850  159.5077 H   0  0  0  0  0  0  0  0  0  0  0  0  # atno 6908 bound_to 6896
  150.6959  134.1483  159.4173 H   0  0  0  0  0  0  0  0  0  0  0  0  # atno 6909 bound_to 6896
  144.8687  139.5881  143.5897 H   0  0  0  0  0  0  0  0  0  0  0  0  # atno 7974 bound_to 7965
  155.1193  140.0398  157.2745 H   0  0  0  0  0  0  0  0  0  0  0  0  # atno 8008 bound_to 7997
  154.6626  140.2594  155.7067 H   0  0  0  0  0  0  0  0  0  0  0  0  # atno 8009 bound_to 7997
  156.2625  140.2814  156.1104 H   0  0  0  0  0  0  0  0  0  0  0  0  # atno 8010 bound_to 7997
  140.3818  144.1969  150.6130 H   0  0  0  0  0  0  0  0  0  0  0  0  # atno 10167 bound_to 10162
  157.5630  131.1088  150.8505 H   0  0  0  0  0  0  0  0  0  0  0  0  # atno 10718 bound_to 10713
  153.9972  135.6698  153.4757 H   0  0  0  0  0  0  0  0  0  0  0  0  # atno 10763 bound_to 10752
  153.0678  135.4991  154.8236 H   0  0  0  0  0  0  0  0  0  0  0  0  # atno 10764 bound_to 10752
  154.7074  135.3090  154.9212 H   0  0  0  0  0  0  0  0  0  0  0  0  # atno 10765 bound_to 10752
  141.1585  133.7629  156.9592 H   0  0  0  0  0  0  0  0  0  0  0  0  # atno 11005 bound_to 11000
  146.2914  139.7151  142.9158 LP  0  0  0  0  0  0  0  0  0  0  0  0  # atno 17320 bound_to 7965
  145.4172  141.0403  143.2984 LP  0  0  0  0  0  0  0  0  0  0  0  0  # atno 17321 bound_to 7965
  140.4929  143.2341  151.8792 LP  0  0  0  0  0  0  0  0  0  0  0  0  # atno 17342 bound_to 10162
  139.4795  144.5145  151.8886 LP  0  0  0  0  0  0  0  0  0  0  0  0  # atno 17343 bound_to 10162
  156.8998  130.5242  149.5283 LP  0  0  0  0  0  0  0  0  0  0  0  0  # atno 17370 bound_to 10713
  156.0680  130.5719  150.9328 LP  0  0  0  0  0  0  0  0  0  0  0  0  # atno 17371 bound_to 10713
  140.1204  134.9420  157.2195 LP  0  0  0  0  0  0  0  0  0  0  0  0  # atno 17394 bound_to 11000
  140.3079  134.3057  155.7274 LP  0  0  0  0  0  0  0  0  0  0  0  0  # atno 17395 bound_to 11000

$$$$
