AV-unprocessed.smi:2228|AV-procd|sdf|9024|dock6
  -GOLD-   2272012233D 1   1.00000     0.00000
 Structure written by MMmdl.
 40 41  0  0  0  0  0  0  0  0  1 V2000
  151.2201  138.7028  154.3387 C   0  0  0  0  0  0  0  0  0  0  0  0
  149.8557  138.6900  153.9513 O   0  0  0  0  0  0  0  0  0  0  0  0
  148.9769  139.2511  154.9231 C   0  0  1  0  0  0  0  0  0  0  0  0
  149.1840  140.7691  154.9641 C   0  0  0  0  0  0  0  0  0  0  0  0
  148.3596  141.2892  153.7900 C   0  0  0  0  0  0  0  0  0  0  0  0
  147.1202  140.3912  153.7557 C   0  0  0  0  0  0  0  0  0  0  0  0
  147.5076  139.0819  154.4714 C   0  0  1  0  0  0  0  0  0  0  0  0
  147.3024  137.9231  153.6047 N   0  0  0  0  0  0  0  0  0  0  0  0
  146.1475  137.2527  153.4855 C   0  0  0  0  0  0  0  0  0  0  0  0
  145.1202  137.5600  154.0913 O   0  0  0  0  0  0  0  0  0  0  0  0
  146.2706  136.2207  152.6328 N   0  0  0  0  0  0  0  0  0  0  0  0
  145.2888  135.2619  152.2679 C   0  0  0  0  0  0  0  0  0  0  0  0
  145.7324  134.2619  151.3740 C   0  0  0  0  0  0  0  0  0  0  0  0
  144.8357  133.2600  150.9515 C   0  0  0  0  0  0  0  0  0  0  0  0
  145.2922  132.1779  149.9959 C   0  0  0  0  0  0  0  0  0  0  0  0
  143.5147  133.2860  151.4381 C   0  0  0  0  0  0  0  0  0  0  0  0
  143.1540  134.3173  152.3272 C   0  0  0  0  0  0  0  0  0  0  0  0
  141.7527  134.4017  152.8948 C   0  0  0  0  0  0  0  0  0  0  0  0
  144.0141  135.2767  152.7305 N   0  0  0  0  0  0  0  0  0  0  0  0
  151.8275  138.2710  153.5435 H   0  0  0  0  0  0  0  0  0  0  0  0
  151.3763  138.1069  155.2388 H   0  0  0  0  0  0  0  0  0  0  0  0
  151.5803  139.7149  154.5236 H   0  0  0  0  0  0  0  0  0  0  0  0
  149.1317  138.7854  155.8982 H   0  0  0  0  0  0  0  0  0  0  0  0
  148.7781  141.1666  155.8950 H   0  0  0  0  0  0  0  0  0  0  0  0
  150.2297  141.0708  154.9077 H   0  0  0  0  0  0  0  0  0  0  0  0
  148.1090  142.3454  153.8891 H   0  0  0  0  0  0  0  0  0  0  0  0
  148.9258  141.1678  152.8656 H   0  0  0  0  0  0  0  0  0  0  0  0
  146.3007  140.8707  154.2924 H   0  0  0  0  0  0  0  0  0  0  0  0
  146.7811  140.2331  152.7311 H   0  0  0  0  0  0  0  0  0  0  0  0
  146.8733  138.9825  155.3544 H   0  0  0  0  0  0  0  0  0  0  0  0
  148.1003  137.6018  153.0769 H   0  0  0  0  0  0  0  0  0  0  0  0
  147.1750  136.1009  152.2015 H   0  0  0  0  0  0  0  0  0  0  0  0
  146.7512  134.2606  151.0137 H   0  0  0  0  0  0  0  0  0  0  0  0
  144.4668  131.5236  149.7137 H   0  0  0  0  0  0  0  0  0  0  0  0
  146.0681  131.5689  150.4600 H   0  0  0  0  0  0  0  0  0  0  0  0
  145.7004  132.6220  149.0878 H   0  0  0  0  0  0  0  0  0  0  0  0
  142.7979  132.5348  151.1401 H   0  0  0  0  0  0  0  0  0  0  0  0
  141.0854  133.6909  152.4068 H   0  0  0  0  0  0  0  0  0  0  0  0
  141.3433  135.4026  152.7552 H   0  0  0  0  0  0  0  0  0  0  0  0
  141.7654  134.1810  153.9626 H   0  0  0  0  0  0  0  0  0  0  0  0
  1  2  1  0  0  0  0
  1 20  1  0  0  0  0
  1 21  1  0  0  0  0
  1 22  1  0  0  0  0
  2  3  1  0  0  0  0
  3  7  1  0  0  0  0
  3  4  1  0  0  0  0
  3 23  1  0  0  0  0
  4  5  1  0  0  0  0
  4 24  1  0  0  0  0
  4 25  1  0  0  0  0
  5  6  1  0  0  0  0
  5 26  1  0  0  0  0
  5 27  1  0  0  0  0
  6  7  1  0  0  0  0
  6 28  1  0  0  0  0
  6 29  1  0  0  0  0
  7  8  1  0  0  0  0
  7 30  1  0  0  0  0
  8  9  1  0  0  0  0
  8 31  1  0  0  0  0
  9 10  2  0  0  0  0
  9 11  1  0  0  0  0
 11 12  1  0  0  0  0
 11 32  1  0  0  0  0
 12 19  1  0  0  0  0
 12 13  2  0  0  0  0
 13 14  1  0  0  0  0
 13 33  1  0  0  0  0
 14 15  1  0  0  0  0
 14 16  2  0  0  0  0
 15 34  1  0  0  0  0
 15 35  1  0  0  0  0
 15 36  1  0  0  0  0
 16 17  1  0  0  0  0
 16 37  1  0  0  0  0
 17 18  1  0  0  0  0
 17 19  2  0  0  0  0
 18 38  1  0  0  0  0
 18 39  1  0  0  0  0
 18 40  1  0  0  0  0
M  END
> <s_m_source_file>
AV-unprocessed.smi

> <i_m_source_file_index>
2228

> <i_lp_mmshare_version>
43012

> <i_f3d_flags>
0

> <s_epik_input>
W0NIM11PW0NAQEhdMVtDSDJdW0NIMl1bQ0gyXVtDQEhdMVtOSF1DKD1PKVtOSF1jMltjSF1jKFtDSDNdKVtjSF1jKG4yKVtDSDNd

> <s_epik_cmdline>
J2VwaWtfcHl0aG9uJywgJy1waCcsICc3LjAnLCAnLXRuJywgJzgnLCAnLW1hJywgJzIwMCcsICctbWV0YWxfYmluZGluZycsICctaW1hZScsICc8aW5maWxlLm1hZT4nLCAnLW9tYWUnLCAnPG91dGZpbGUubWFlPic=

> <r_lp_tautomer_probability>
1

> <r_epik_Ionization_Penalty>
0.000275391

> <r_epik_Ionization_Penalty_Charging>
0

> <r_epik_Ionization_Penalty_Neutral>
0.000275391

> <r_epik_State_Penalty>
-0

> <r_epik_Charging_Adjusted_Penalty>
0

> <i_epik_Tot_Q>
0

> <i_epik_Tot_abs_Q>
0

> <r_epik_Metal_State_Penalty>
-0

> <b_epik_Metal_Only>
0

> <s_lp_Force_Field>
OPLS_2005

> <r_lp_Energy>
22.5757

> <b_lp_Chiralities_Consistent>
1

> <s_lp_Variant>
AV-unprocessed.smi:2228-2

> <Gold.Version>
5.8.1

> <Gold.Id.Protein>
6NUR|6NUR_protein|mol2

> <Gold.PLP.Fitness>
36.3522

> <Gold.PLP.PLP>
-31.1485

> <Gold.PLP.part.hbond>
-2.0000

> <Gold.PLP.part.metal>
0.0000

> <Gold.PLP.part.buried>
-5.1730

> <Gold.PLP.part.nonpolar>
-24.4158

> <Gold.PLP.part.repulsive>
0.6335

> <Gold.PLP.ligand.clash>
0.0000

> <Gold.PLP.ligand.torsion>
0.4041

> <Gold.PLP.Chemscore.Hbond>
2.0000

> <Gold.PLP.Chemscore.CHOScore>
0.0000

> <Gold.PLP.Chemscore.Metal>
0.0000

> <Gold.Chemscore.Hbonds>
donor molecule, donor type, donor heavy atom, donor atom, acceptor molecule, acceptor atom, score
      L1  H     8    31       P1  7948  1.00
      L1  H    11    32       P1  7948  1.00

> <Gold.PLP.Chemscore.Internal.Correction>
0.0120

> <Gold.Rescore>
     Score         DG    S(hbond)    S(metal)    S(lipo)     H(rot)  DE(clash)    DE(int)     intcor
     16.63     -18.31       1.94        0.00      80.85       1.21       0.03       1.66       ----

> <Gold.Chemscore.Fitness>
16.6263

> <Gold.Chemscore.DG>
-18.3143

> <Gold.Chemscore.ZeroCoef>
-5.4800

> <Gold.Chemscore.Hbond>
1.9395

> <Gold.Chemscore.Metal>
0.0000

> <Gold.Chemscore.Lipo>
80.8455

> <Gold.Chemscore.Internal_Hbond>
0.0000

> <Gold.Chemscore.DEClash>
0.0251

> <Gold.Chemscore.DEInternal>
1.6629

> <Gold.Chemscore.Rot>
1.2119

> <Gold.Chemscore.Internal.Correction>
   9.000000E+99

> <Gold.Chemscore.Hbonds>
donor molecule, donor type, donor heavy atom, donor atom, acceptor molecule, acceptor atom, score
      L1  H     8    31       P1  7948  0.91
      L1  H    11    32       P1  7948  1.00

> <Gold.Chemscore.Hbond.Weighted>
-6.4780

> <Gold.Chemscore.Metal.Weighted>
-0.0000

> <Gold.Chemscore.Lipo.Weighted>
-9.4589

> <Gold.Chemscore.Internal_Hbond.Weighted>
0.0000

> <Gold.Chemscore.DEClash.Weighted>
0.0251

> <Gold.Chemscore.DEInternal.Weighted>
1.6629

> <Gold.Chemscore.Rot.Weighted>
3.1026

> <Gold.Chemscore.Internal.Correction.Weighted>
   9.000000E+99

> <Gold.Protein.RotatedTorsions>
[ 6907 6896 6895 6894 ] final   23.72 input  -60.11 | X-H torsion
[ 7974 7965 7964 7962 ] final -150.57 input  175.53 | X-H torsion
[ 8008 7997 7996 7995 ] final  138.69 input   59.86 | X-H torsion
[ 10167 10162 10161 10158 ] final -130.94 input  -65.29 | X-H torsion
[ 10718 10713 10712 10709 ] final  -37.55 input   66.30 | X-H torsion
[ 10763 10752 10751 10750 ] final  -87.64 input  -60.55 | X-H torsion
[ 11005 11000 10999 10996 ] final  -23.74 input  -57.11 | X-H torsion

> <Gold.Protein.ActiveResidues>
 VAL166  LYS551  ARG553  GLY616  TRP617  ASP618  TYR619  PRO620  LYS621  CYS622 
 ASP623  PHE694  ASN695  SER759  ASP760  ASP761  ALA762  ILE779  LEU786  VAL792 
 PHE793  MET794  SER795  GLU796  ALA797  LYS798  CYS799  TRP800  GLU811  SER814 

> <Gold.Protein.RotatedAtoms>
  151.9467  135.0188  160.0539 H   0  0  0  0  0  0  0  0  0  0  0  0  # atno 6907 bound_to 6896
  152.1989  133.4822  159.5056 H   0  0  0  0  0  0  0  0  0  0  0  0  # atno 6908 bound_to 6896
  150.6950  134.1533  159.4191 H   0  0  0  0  0  0  0  0  0  0  0  0  # atno 6909 bound_to 6896
  144.7900  140.4914  143.5779 H   0  0  0  0  0  0  0  0  0  0  0  0  # atno 7974 bound_to 7965
  156.2995  140.2387  156.4115 H   0  0  0  0  0  0  0  0  0  0  0  0  # atno 8008 bound_to 7997
  154.8436  140.0427  157.1578 H   0  0  0  0  0  0  0  0  0  0  0  0  # atno 8009 bound_to 7997
  154.9075  140.2985  155.5288 H   0  0  0  0  0  0  0  0  0  0  0  0  # atno 8010 bound_to 7997
  139.9241  143.6348  152.2546 H   0  0  0  0  0  0  0  0  0  0  0  0  # atno 10167 bound_to 10162
  156.3140  130.4256  149.8023 H   0  0  0  0  0  0  0  0  0  0  0  0  # atno 10718 bound_to 10713
  154.6359  135.5406  153.7733 H   0  0  0  0  0  0  0  0  0  0  0  0  # atno 10763 bound_to 10752
  153.0308  135.6447  154.1232 H   0  0  0  0  0  0  0  0  0  0  0  0  # atno 10764 bound_to 10752
  154.1159  135.2923  155.3199 H   0  0  0  0  0  0  0  0  0  0  0  0  # atno 10765 bound_to 10752
  140.8780  133.7673  156.0267 H   0  0  0  0  0  0  0  0  0  0  0  0  # atno 11005 bound_to 11000
  145.5820  139.1489  143.3230 LP  0  0  0  0  0  0  0  0  0  0  0  0  # atno 17320 bound_to 7965
  146.2148  140.5949  142.9043 LP  0  0  0  0  0  0  0  0  0  0  0  0  # atno 17321 bound_to 7965
  139.6836  144.7653  151.1563 LP  0  0  0  0  0  0  0  0  0  0  0  0  # atno 17342 bound_to 10162
  140.7654  143.5688  150.9018 LP  0  0  0  0  0  0  0  0  0  0  0  0  # atno 17343 bound_to 10162
  156.5356  130.8277  151.3252 LP  0  0  0  0  0  0  0  0  0  0  0  0  # atno 17370 bound_to 10713
  157.7397  130.9837  150.2332 LP  0  0  0  0  0  0  0  0  0  0  0  0  # atno 17371 bound_to 10713
  140.8495  134.2971  157.5281 LP  0  0  0  0  0  0  0  0  0  0  0  0  # atno 17394 bound_to 11000
  139.8717  134.9460  156.3925 LP  0  0  0  0  0  0  0  0  0  0  0  0  # atno 17395 bound_to 11000

$$$$
