AV-unprocessed.smi:44|AV-procd|sdf|395|dock1
  -GOLD-   2262016253D 1   1.00000     0.00000
 Structure written by MMmdl.
 29 31  0  0  0  0  0  0  0  0  1 V2000
  153.1861  138.6694  157.1149 O   0  0  0  0  0  0  0  0  0  0  0  0
  152.2953  138.7419  156.2710 C   0  0  0  0  0  0  0  0  0  0  0  0
  151.9992  137.7445  155.4024 N   0  0  0  0  0  0  0  0  0  0  0  0
  150.9735  137.8217  154.4270 C   0  0  0  0  0  0  0  0  0  0  0  0
  150.1921  138.8538  154.2405 N   0  0  0  0  0  0  0  0  0  0  0  0
  150.4719  139.8871  155.1123 C   0  0  0  0  0  0  0  0  0  0  0  0
  151.4282  139.9302  156.0919 C   0  0  0  0  0  0  0  0  0  0  0  0
  151.4045  141.1416  156.7711 N   0  0  0  0  0  0  0  0  0  0  0  0
  150.4149  141.7889  156.1594 C   0  0  0  0  0  0  0  0  0  0  0  0
  149.8132  141.1144  155.1603 N   0  0  0  0  0  0  0  0  0  0  0  0
  148.6810  141.6058  154.3169 C   0  0  1  0  0  0  0  0  0  0  0  0
  148.1005  140.4750  153.4569 C   0  0  0  0  0  0  0  0  0  0  0  0
  146.7019  140.3103  154.0210 C   0  0  0  0  0  0  0  0  0  0  0  0
  146.4119  141.6882  154.6121 C   0  0  1  0  0  0  0  0  0  0  0  0
  145.3317  141.6670  155.7034 C   0  0  0  0  0  0  0  0  0  0  0  0
  144.2192  140.9141  155.2698 O   0  0  0  0  0  0  0  0  0  0  0  0
  147.6692  142.0512  155.1666 O   0  0  0  0  0  0  0  0  0  0  0  0
  152.5471  136.8983  155.4599 H   0  0  0  0  0  0  0  0  0  0  0  0
  149.0920  142.4273  153.7285 H   0  0  0  0  0  0  0  0  0  0  0  0
  146.1498  142.3783  153.8074 H   0  0  0  0  0  0  0  0  0  0  0  0
  150.8903  136.9156  153.8253 H   0  0  0  0  0  0  0  0  0  0  0  0
  150.1199  142.7877  156.4455 H   0  0  0  0  0  0  0  0  0  0  0  0
  148.0651  140.8100  152.4196 H   0  0  0  0  0  0  0  0  0  0  0  0
  148.6967  139.5629  153.5129 H   0  0  0  0  0  0  0  0  0  0  0  0
  145.9735  140.0123  153.2665 H   0  0  0  0  0  0  0  0  0  0  0  0
  146.7028  139.5514  154.8040 H   0  0  0  0  0  0  0  0  0  0  0  0
  145.7184  141.1890  156.6038 H   0  0  0  0  0  0  0  0  0  0  0  0
  145.0260  142.6773  155.9780 H   0  0  0  0  0  0  0  0  0  0  0  0
  144.1927  140.9321  154.3255 H   0  0  0  0  0  0  0  0  0  0  0  0
  1  2  2  0  0  0  0
  2  7  1  0  0  0  0
  2  3  1  0  0  0  0
  3 18  1  0  0  0  0
  3  4  1  0  0  0  0
  4  5  2  0  0  0  0
  4 21  1  0  0  0  0
  5  6  1  0  0  0  0
  6 10  1  0  0  0  0
  6  7  2  0  0  0  0
  7  8  1  0  0  0  0
  8  9  2  0  0  0  0
  9 10  1  0  0  0  0
  9 22  1  0  0  0  0
 10 11  1  0  0  0  0
 11 19  1  0  0  0  0
 11 17  1  0  0  0  0
 11 12  1  0  0  0  0
 12 13  1  0  0  0  0
 12 23  1  0  0  0  0
 12 24  1  0  0  0  0
 13 14  1  0  0  0  0
 13 25  1  0  0  0  0
 13 26  1  0  0  0  0
 14 20  1  0  0  0  0
 14 15  1  0  0  0  0
 14 17  1  0  0  0  0
 15 16  1  0  0  0  0
 15 27  1  0  0  0  0
 15 28  1  0  0  0  0
 16 29  1  0  0  0  0
M  END
> <s_m_source_file>
AV-unprocessed.smi

> <i_m_source_file_index>
44

> <i_lp_mmshare_version>
43012

> <i_f3d_flags>
0

> <s_epik_input>
bjFbY0hdW25IXWMoPU8pYyhjMTIpbltjSF1uMltDQEhdM1tDSDJdW0NIMl1bQ0BIXShPMylbQ0gyXVtPSF0=

> <s_epik_cmdline>
J2VwaWtfcHl0aG9uJywgJy1waCcsICc3LjAnLCAnLXRuJywgJzgnLCAnLW1hJywgJzIwMCcsICctbWV0YWxfYmluZGluZycsICctaW1hZScsICc8aW5maWxlLm1hZT4nLCAnLW9tYWUnLCAnPG91dGZpbGUubWFlPic=

> <r_lp_tautomer_probability>
0.85571

> <r_epik_Ionization_Penalty>
0.00801444

> <r_epik_Ionization_Penalty_Charging>
0.00794574

> <r_epik_Ionization_Penalty_Neutral>
6.87072e-05

> <r_epik_State_Penalty>
0.0826172

> <r_epik_Charging_Adjusted_Penalty>
0.090563

> <i_epik_Tot_Q>
0

> <i_epik_Tot_abs_Q>
0

> <r_epik_Metal_State_Penalty>
0.440697

> <b_epik_Metal_Only>
0

> <s_epik_Chemistry_Notes>
This compound contains an acetal/aminal-like group ( X-CH(R)-Y where X, Y are N, S, or O) that may be acid/base labile, releasing an aldehyde.

> <s_lp_Force_Field>
OPLS_2005

> <r_lp_Energy>
43.2881

> <b_lp_Chiralities_Consistent>
1

> <s_lp_Variant>
AV-unprocessed.smi:44-1

> <Gold.Version>
5.8.1

> <Gold.Id.Protein>
6NUR|6NUR_protein|mol2

> <Gold.PLP.Fitness>
38.5790

> <Gold.PLP.PLP>
-26.7850

> <Gold.PLP.part.hbond>
-2.0000

> <Gold.PLP.part.metal>
0.0000

> <Gold.PLP.part.buried>
0.2639

> <Gold.PLP.part.nonpolar>
-26.4579

> <Gold.PLP.part.repulsive>
1.3461

> <Gold.PLP.ligand.clash>
0.0000

> <Gold.PLP.ligand.torsion>
0.2737

> <Gold.PLP.Chemscore.Hbond>
2.0000

> <Gold.PLP.Chemscore.CHOScore>
2.1091

> <Gold.PLP.Chemscore.Metal>
0.0000

> <Gold.Chemscore.Hbonds>
donor molecule, donor type, donor heavy atom, donor atom, acceptor molecule, acceptor atom, score
      L1  H    16    29       P1 10175  1.00
      P1  H  7997  8008       L1     1  1.00
      L1  C     4    21       P1  7948  0.12
      L1  C     4    21       P1  7949  0.94
      L1  C     9    22       P1  8028  1.00

> <Gold.PLP.Chemscore.Internal.Correction>
0.0142

> <Gold.Rescore>
     Score         DG    S(hbond)    S(metal)    S(lipo)     H(rot)  DE(clash)    DE(int)     intcor
      6.94      -8.98       1.94        0.00      24.19       2.27       0.40       1.64       ----

> <Gold.Chemscore.Fitness>
6.9390

> <Gold.Chemscore.DG>
-8.9795

> <Gold.Chemscore.ZeroCoef>
-5.4800

> <Gold.Chemscore.Hbond>
1.9420

> <Gold.Chemscore.Metal>
0.0000

> <Gold.Chemscore.Lipo>
24.1864

> <Gold.Chemscore.Internal_Hbond>
0.0000

> <Gold.Chemscore.DEClash>
0.4024

> <Gold.Chemscore.DEInternal>
1.6382

> <Gold.Chemscore.Rot>
2.2720

> <Gold.Chemscore.Internal.Correction>
   9.000000E+99

> <Gold.Chemscore.Hbonds>
donor molecule, donor type, donor heavy atom, donor atom, acceptor molecule, acceptor atom, score
      L1  H    16    29       P1 10175  0.92
      P1  H  7997  8008       L1     1  0.44

> <Gold.Chemscore.Hbond.Weighted>
-6.4861

> <Gold.Chemscore.Metal.Weighted>
-0.0000

> <Gold.Chemscore.Lipo.Weighted>
-2.8298

> <Gold.Chemscore.Internal_Hbond.Weighted>
0.0000

> <Gold.Chemscore.DEClash.Weighted>
0.4024

> <Gold.Chemscore.DEInternal.Weighted>
1.6382

> <Gold.Chemscore.Rot.Weighted>
5.8164

> <Gold.Chemscore.Internal.Correction.Weighted>
   9.000000E+99

> <Gold.Protein.RotatedTorsions>
[ 6907 6896 6895 6894 ] final  -17.05 input  -60.11 | X-H torsion
[ 7974 7965 7964 7962 ] final  -18.61 input  175.53 | X-H torsion
[ 8008 7997 7996 7995 ] final  -60.50 input   59.86 | X-H torsion
[ 10167 10162 10161 10158 ] final  174.00 input  -65.29 | X-H torsion
[ 10718 10713 10712 10709 ] final -165.63 input   66.30 | X-H torsion
[ 10763 10752 10751 10750 ] final -136.28 input  -60.55 | X-H torsion
[ 11005 11000 10999 10996 ] final   23.32 input  -57.11 | X-H torsion

> <Gold.Protein.ActiveResidues>
 VAL166  LYS551  ARG553  GLY616  TRP617  ASP618  TYR619  PRO620  LYS621  CYS622 
 ASP623  PHE694  ASN695  SER759  ASP760  ASP761  ALA762  ILE779  LEU786  VAL792 
 PHE793  MET794  SER795  GLU796  ALA797  LYS798  CYS799  TRP800  GLU811  SER814 

> <Gold.Protein.RotatedAtoms>
  151.2992  135.0764  159.9232 H   0  0  0  0  0  0  0  0  0  0  0  0  # atno 6907 bound_to 6896
  152.5301  133.9851  159.7835 H   0  0  0  0  0  0  0  0  0  0  0  0  # atno 6908 bound_to 6896
  151.0135  133.5892  159.2710 H   0  0  0  0  0  0  0  0  0  0  0  0  # atno 6909 bound_to 6896
  146.1883  140.3946  142.8468 H   0  0  0  0  0  0  0  0  0  0  0  0  # atno 7974 bound_to 7965
  154.4402  140.1038  156.6284 H   0  0  0  0  0  0  0  0  0  0  0  0  # atno 8008 bound_to 7997
  155.5631  140.3488  155.4478 H   0  0  0  0  0  0  0  0  0  0  0  0  # atno 8009 bound_to 7997
  156.0445  140.1289  157.0109 H   0  0  0  0  0  0  0  0  0  0  0  0  # atno 8010 bound_to 7997
  139.5127  144.3196  152.0215 H   0  0  0  0  0  0  0  0  0  0  0  0  # atno 10167 bound_to 10162
  156.6561  130.9027  151.3021 H   0  0  0  0  0  0  0  0  0  0  0  0  # atno 10718 bound_to 10713
  154.8687  135.3677  154.5035 H   0  0  0  0  0  0  0  0  0  0  0  0  # atno 10763 bound_to 10752
  153.5675  135.7021  153.5524 H   0  0  0  0  0  0  0  0  0  0  0  0  # atno 10764 bound_to 10752
  153.3572  135.4056  155.1654 H   0  0  0  0  0  0  0  0  0  0  0  0  # atno 10765 bound_to 10752
  140.3709  134.2023  155.7667 H   0  0  0  0  0  0  0  0  0  0  0  0  # atno 11005 bound_to 11000
  144.8438  140.6898  143.6212 LP  0  0  0  0  0  0  0  0  0  0  0  0  # atno 17320 bound_to 7965
  145.3871  139.1624  143.4249 LP  0  0  0  0  0  0  0  0  0  0  0  0  # atno 17321 bound_to 7965
  140.2639  144.4038  150.6175 LP  0  0  0  0  0  0  0  0  0  0  0  0  # atno 17342 bound_to 10162
  140.6138  143.2171  151.6834 LP  0  0  0  0  0  0  0  0  0  0  0  0  # atno 17343 bound_to 10162
  157.7125  130.9457  150.1138 LP  0  0  0  0  0  0  0  0  0  0  0  0  # atno 17370 bound_to 10713
  156.2047  130.3662  149.8745 LP  0  0  0  0  0  0  0  0  0  0  0  0  # atno 17371 bound_to 10713
  141.1955  133.8105  157.0714 LP  0  0  0  0  0  0  0  0  0  0  0  0  # atno 17394 bound_to 11000
  140.0552  134.9784  157.1208 LP  0  0  0  0  0  0  0  0  0  0  0  0  # atno 17395 bound_to 11000

$$$$
