AV-unprocessed.smi:1914|AV-procd|sdf|7758|dock2
  -GOLD-   22720 9503D 1   1.00000     0.00000
 Structure written by MMmdl.
 44 45  0  0  0  0  0  0  0  0  2 V2000
  146.8669  133.3003  151.1870 C   0  0  0  0  0  0  0  0  0  0  0  0
  145.6691  133.6291  152.0953 C   0  0  2  0  0  0  0  0  0  0  0  0
  144.5567  134.4003  151.3610 C   0  0  0  0  0  0  0  0  0  0  0  0
  144.9606  135.8611  151.1157 C   0  0  0  0  0  0  0  0  0  0  0  0
  145.3964  136.5395  152.4240 C   0  0  0  0  0  0  0  0  0  0  0  0
  146.4965  135.7853  153.0781 N   0  3  1  0  0  0  0  0  0  0  0  0
  147.0401  136.4991  154.2608 C   0  0  0  0  0  0  0  0  0  0  0  0
  146.3284  136.1011  155.5639 C   0  0  0  0  0  0  0  0  0  0  0  0
  147.2346  136.2275  156.6966 N   0  0  0  0  0  0  0  0  0  0  0  0
  146.9962  135.7245  157.9159 C   0  0  0  0  0  0  0  0  0  0  0  0
  145.9773  135.0904  158.1925 O   0  0  0  0  0  0  0  0  0  0  0  0
  148.0889  135.9593  158.9689 C   0  0  0  0  0  0  0  0  0  0  0  0
  147.7989  135.3164  160.2615 N   0  0  0  0  0  0  0  0  0  0  0  0
  147.8840  133.9109  160.3143 C   0  0  0  0  0  0  0  0  0  0  0  0
  147.6405  133.2270  161.4436 C   0  0  0  0  0  0  0  0  0  0  0  0
  147.2819  133.9705  162.6279 C   0  0  0  0  0  0  0  0  0  0  0  0
  147.1949  135.3150  162.5879 C   0  0  0  0  0  0  0  0  0  0  0  0
  147.4601  136.0664  161.3556 C   0  0  0  0  0  0  0  0  0  0  0  0
  147.3831  137.2946  161.3086 O   0  0  0  0  0  0  0  0  0  0  0  0
  146.0972  134.3817  153.3722 C   0  0  0  0  0  0  0  0  0  0  0  0
  147.3796  134.1997  150.8458 H   0  0  0  0  0  0  0  0  0  0  0  0
  146.5485  132.7454  150.3039 H   0  0  0  0  0  0  0  0  0  0  0  0
  147.5980  132.6854  151.7126 H   0  0  0  0  0  0  0  0  0  0  0  0
  145.2480  132.6717  152.4055 H   0  0  0  0  0  0  0  0  0  0  0  0
  144.3086  133.9114  150.4184 H   0  0  0  0  0  0  0  0  0  0  0  0
  143.6477  134.3793  151.9637 H   0  0  0  0  0  0  0  0  0  0  0  0
  145.7719  135.9077  150.3884 H   0  0  0  0  0  0  0  0  0  0  0  0
  144.1256  136.4070  150.6752 H   0  0  0  0  0  0  0  0  0  0  0  0
  145.7235  137.5561  152.2029 H   0  0  0  0  0  0  0  0  0  0  0  0
  144.5504  136.6204  153.1088 H   0  0  0  0  0  0  0  0  0  0  0  0
  148.0983  136.2570  154.3710 H   0  0  0  0  0  0  0  0  0  0  0  0
  146.9857  137.5769  154.0995 H   0  0  0  0  0  0  0  0  0  0  0  0
  145.4576  136.7312  155.7455 H   0  0  0  0  0  0  0  0  0  0  0  0
  145.9740  135.0711  155.4967 H   0  0  0  0  0  0  0  0  0  0  0  0
  148.0956  136.7344  156.5486 H   0  0  0  0  0  0  0  0  0  0  0  0
  149.0332  135.5952  158.5618 H   0  0  0  0  0  0  0  0  0  0  0  0
  148.2356  137.0317  159.1125 H   0  0  0  0  0  0  0  0  0  0  0  0
  148.1509  133.4294  159.3848 H   0  0  0  0  0  0  0  0  0  0  0  0
  147.7072  132.1492  161.4642 H   0  0  0  0  0  0  0  0  0  0  0  0
  147.0802  133.4457  163.5502 H   0  0  0  0  0  0  0  0  0  0  0  0
  146.9239  135.8545  163.4837 H   0  0  0  0  0  0  0  0  0  0  0  0
  145.2728  134.3897  154.0870 H   0  0  0  0  0  0  0  0  0  0  0  0
  146.9131  133.8410  153.8501 H   0  0  0  0  0  0  0  0  0  0  0  0
  147.2459  135.7424  152.4020 H   0  0  0  0  0  0  0  0  0  0  0  0
  1  2  1  0  0  0  0
  1 21  1  0  0  0  0
  1 22  1  0  0  0  0
  1 23  1  0  0  0  0
  2 20  1  0  0  0  0
  2  3  1  0  0  0  0
  2 24  1  0  0  0  0
  3  4  1  0  0  0  0
  3 25  1  0  0  0  0
  3 26  1  0  0  0  0
  4  5  1  0  0  0  0
  4 27  1  0  0  0  0
  4 28  1  0  0  0  0
  5  6  1  0  0  0  0
  5 29  1  0  0  0  0
  5 30  1  0  0  0  0
  6  7  1  0  0  0  0
  6 20  1  0  0  0  0
  6 44  1  0  0  0  0
  7  8  1  0  0  0  0
  7 31  1  0  0  0  0
  7 32  1  0  0  0  0
  8  9  1  0  0  0  0
  8 33  1  0  0  0  0
  8 34  1  0  0  0  0
  9 10  1  0  0  0  0
  9 35  1  0  0  0  0
 10 11  2  0  0  0  0
 10 12  1  0  0  0  0
 12 13  1  0  0  0  0
 12 36  1  0  0  0  0
 12 37  1  0  0  0  0
 13 18  1  0  0  0  0
 13 14  1  0  0  0  0
 14 15  2  0  0  0  0
 14 38  1  0  0  0  0
 15 16  1  0  0  0  0
 15 39  1  0  0  0  0
 16 17  2  0  0  0  0
 16 40  1  0  0  0  0
 17 18  1  0  0  0  0
 17 41  1  0  0  0  0
 18 19  2  0  0  0  0
 20 42  1  0  0  0  0
 20 43  1  0  0  0  0
M  CHG  1   6   1
M  END
> <s_m_source_file>
AV-unprocessed.smi

> <i_m_source_file_index>
1914

> <i_lp_mmshare_version>
43012

> <i_f3d_flags>
0

> <s_epik_input>
W0NIM11bQ0BASF0xW0NIMl1bQ0gyXVtDSDJdTihbQ0gyXTEpW0NIMl1bQ0gyXVtOSF1DKD1PKVtDSDJdbjJbY0hdW2NIXVtjSF1bY0hdYzI9Tw==

> <s_epik_cmdline>
J2VwaWtfcHl0aG9uJywgJy1waCcsICc3LjAnLCAnLXRuJywgJzgnLCAnLW1hJywgJzIwMCcsICctbWV0YWxfYmluZGluZycsICctaW1hZScsICc8aW5maWxlLm1hZT4nLCAnLW9tYWUnLCAnPG91dGZpbGUubWFlPic=

> <r_lp_tautomer_probability>
1

> <r_epik_Ionization_Penalty>
0.00192477

> <r_epik_Ionization_Penalty_Charging>
0.00192469

> <r_epik_Ionization_Penalty_Neutral>
8.16761e-08

> <r_epik_State_Penalty>
0.00131115

> <r_epik_Charging_Adjusted_Penalty>
0.00323584

> <i_epik_Tot_Q>
1

> <i_epik_Tot_abs_Q>
1

> <r_epik_Metal_State_Penalty>
-0

> <b_epik_Metal_Only>
0

> <s_lp_Force_Field>
OPLS_2005

> <r_lp_Energy>
28.3213

> <b_lp_Chiralities_Consistent>
1

> <s_lp_Variant>
AV-unprocessed.smi:1914-3

> <Gold.Version>
5.8.1

> <Gold.Id.Protein>
6NUR|6NUR_protein|mol2

> <Gold.PLP.Fitness>
41.9150

> <Gold.PLP.PLP>
-31.7702

> <Gold.PLP.part.hbond>
-3.0000

> <Gold.PLP.part.metal>
0.0000

> <Gold.PLP.part.buried>
-2.5972

> <Gold.PLP.part.nonpolar>
-26.2420

> <Gold.PLP.part.repulsive>
0.0000

> <Gold.PLP.ligand.clash>
0.0000

> <Gold.PLP.ligand.torsion>
0.7026

> <Gold.PLP.Chemscore.Hbond>
3.8400

> <Gold.PLP.Chemscore.CHOScore>
0.0000

> <Gold.PLP.Chemscore.Metal>
0.0000

> <Gold.Chemscore.Hbonds>
donor molecule, donor type, donor heavy atom, donor atom, acceptor molecule, acceptor atom, score
      L1  H     6    44       P1  7948  2.00
      P1  H  6931  6943       L1    19  0.83
      P1  H  6934  6947       L1    19  0.96

> <Gold.PLP.Chemscore.Internal.Correction>
0.0299

> <Gold.Rescore>
     Score         DG    S(hbond)    S(metal)    S(lipo)     H(rot)  DE(clash)    DE(int)     intcor
     16.68     -17.33       2.72        0.00      64.28       1.86       0.00       0.64       ----

> <Gold.Chemscore.Fitness>
16.6843

> <Gold.Chemscore.DG>
-17.3263

> <Gold.Chemscore.ZeroCoef>
-5.4800

> <Gold.Chemscore.Hbond>
2.7198

> <Gold.Chemscore.Metal>
0.0000

> <Gold.Chemscore.Lipo>
64.2769

> <Gold.Chemscore.Internal_Hbond>
0.0000

> <Gold.Chemscore.DEClash>
0.0038

> <Gold.Chemscore.DEInternal>
0.6382

> <Gold.Chemscore.Rot>
1.8586

> <Gold.Chemscore.Internal.Correction>
   9.000000E+99

> <Gold.Chemscore.Hbonds>
donor molecule, donor type, donor heavy atom, donor atom, acceptor molecule, acceptor atom, score
      L1  H     6    44       P1  7948  0.95
      P1  H  6931  6943       L1    19  0.73
      P1  H  6934  6947       L1    19  0.92

> <Gold.Chemscore.Hbond.Weighted>
-9.0840

> <Gold.Chemscore.Metal.Weighted>
-0.0000

> <Gold.Chemscore.Lipo.Weighted>
-7.5204

> <Gold.Chemscore.Internal_Hbond.Weighted>
0.0000

> <Gold.Chemscore.DEClash.Weighted>
0.0038

> <Gold.Chemscore.DEInternal.Weighted>
0.6382

> <Gold.Chemscore.Rot.Weighted>
4.7581

> <Gold.Chemscore.Internal.Correction.Weighted>
   9.000000E+99

> <Gold.Protein.RotatedTorsions>
[ 6907 6896 6895 6894 ] final  101.09 input  -60.11 | X-H torsion
[ 7974 7965 7964 7962 ] final   79.72 input  175.53 | X-H torsion
[ 8008 7997 7996 7995 ] final -162.89 input   59.86 | X-H torsion
[ 10167 10162 10161 10158 ] final -119.85 input  -65.29 | X-H torsion
[ 10718 10713 10712 10709 ] final  -69.71 input   66.30 | X-H torsion
[ 10763 10752 10751 10750 ] final   70.33 input  -60.55 | X-H torsion
[ 11005 11000 10999 10996 ] final -120.33 input  -57.11 | X-H torsion

> <Gold.Protein.ActiveResidues>
 VAL166  LYS551  ARG553  GLY616  TRP617  ASP618  TYR619  PRO620  LYS621  CYS622 
 ASP623  PHE694  ASN695  SER759  ASP760  ASP761  ALA762  ILE779  LEU786  VAL792 
 PHE793  MET794  SER795  GLU796  ALA797  LYS798  CYS799  TRP800  GLU811  SER814 

> <Gold.Protein.RotatedAtoms>
  152.5357  134.0178  159.7967 H   0  0  0  0  0  0  0  0  0  0  0  0  # atno 6907 bound_to 6896
  151.0369  133.5732  159.2662 H   0  0  0  0  0  0  0  0  0  0  0  0  # atno 6908 bound_to 6896
  151.2716  135.0693  159.9190 H   0  0  0  0  0  0  0  0  0  0  0  0  # atno 6909 bound_to 6896
  145.6606  139.2470  143.1925 H   0  0  0  0  0  0  0  0  0  0  0  0  # atno 7974 bound_to 7965
  155.8133  140.0909  157.1891 H   0  0  0  0  0  0  0  0  0  0  0  0  # atno 8008 bound_to 7997
  154.3979  140.1450  156.3472 H   0  0  0  0  0  0  0  0  0  0  0  0  # atno 8009 bound_to 7997
  155.8342  140.3441  155.5594 H   0  0  0  0  0  0  0  0  0  0  0  0  # atno 8010 bound_to 7997
  140.0422  143.5142  152.2124 H   0  0  0  0  0  0  0  0  0  0  0  0  # atno 10167 bound_to 10162
  156.0442  130.4317  150.2187 H   0  0  0  0  0  0  0  0  0  0  0  0  # atno 10718 bound_to 10713
  153.0336  135.5178  154.7424 H   0  0  0  0  0  0  0  0  0  0  0  0  # atno 10763 bound_to 10752
  154.6420  135.2913  155.0095 H   0  0  0  0  0  0  0  0  0  0  0  0  # atno 10764 bound_to 10752
  154.1009  135.6636  153.4920 H   0  0  0  0  0  0  0  0  0  0  0  0  # atno 10765 bound_to 10752
  141.0151  134.0207  157.3360 H   0  0  0  0  0  0  0  0  0  0  0  0  # atno 11005 bound_to 11000
  146.1128  140.7407  142.9495 LP  0  0  0  0  0  0  0  0  0  0  0  0  # atno 17320 bound_to 7965
  144.7090  140.3967  143.7095 LP  0  0  0  0  0  0  0  0  0  0  0  0  # atno 17321 bound_to 7965
  139.6006  144.7581  151.3180 LP  0  0  0  0  0  0  0  0  0  0  0  0  # atno 17342 bound_to 10162
  140.7255  143.7016  150.7840 LP  0  0  0  0  0  0  0  0  0  0  0  0  # atno 17343 bound_to 10162
  157.0279  130.9998  151.3321 LP  0  0  0  0  0  0  0  0  0  0  0  0  # atno 17370 bound_to 10713
  157.5298  130.8051  149.7904 LP  0  0  0  0  0  0  0  0  0  0  0  0  # atno 17371 bound_to 10713
  139.9112  135.0190  156.7700 LP  0  0  0  0  0  0  0  0  0  0  0  0  # atno 17394 bound_to 11000
  140.6668  133.9596  155.7834 LP  0  0  0  0  0  0  0  0  0  0  0  0  # atno 17395 bound_to 11000

$$$$
