AV-unprocessed.smi:2943|AV-procd|sdf|11268|dock5
  -GOLD-   2272016163D 1   1.00000     0.00000
 Structure written by MMmdl.
 36 38  0  0  0  0  0  0  0  0  1 V2000
  148.7688  140.5216  154.5470 C   0  0  0  0  0  0  0  0  0  0  0  0
  149.8709  140.3298  155.5467 C   0  0  0  0  0  0  0  0  0  0  0  0
  150.0346  141.0219  156.7248 C   0  0  0  0  0  0  0  0  0  0  0  0
  149.1712  142.1099  157.2871 C   0  0  0  0  0  0  0  0  0  0  0  0
  151.1812  140.5729  157.3836 N   0  0  0  0  0  0  0  0  0  0  0  0
  151.6869  141.0702  158.6559 C   0  0  0  0  0  0  0  0  0  0  0  0
  152.3643  142.4434  158.5124 C   0  0  2  0  0  0  0  0  0  0  0  0
  152.4814  143.2137  159.8271 C   0  0  0  0  0  0  0  0  0  0  0  0
  152.5317  144.6439  159.3408 C   0  0  0  0  0  0  0  0  0  0  0  0
  151.5366  144.6079  158.1856 C   0  0  0  0  0  0  0  0  0  0  0  0
  151.6296  143.2968  157.6366 O   0  0  0  0  0  0  0  0  0  0  0  0
  151.7645  139.5654  156.6295 C   0  0  0  0  0  0  0  0  0  0  0  0
  152.8992  138.8629  156.9267 N   0  0  0  0  0  0  0  0  0  0  0  0
  153.1836  137.9544  155.9905 C   0  0  0  0  0  0  0  0  0  0  0  0
  152.5186  137.6800  154.8649 N   0  0  0  0  0  0  0  0  0  0  0  0
  151.3989  138.3810  154.5766 C   0  0  0  0  0  0  0  0  0  0  0  0
  150.7345  138.0611  153.3947 N   0  0  0  0  0  0  0  0  0  0  0  0
  150.9558  139.3896  155.4725 C   0  0  0  0  0  0  0  0  0  0  0  0
  148.4095  141.5505  154.5350 H   0  0  0  0  0  0  0  0  0  0  0  0
  147.9199  139.8754  154.7711 H   0  0  0  0  0  0  0  0  0  0  0  0
  149.1020  140.2931  153.5351 H   0  0  0  0  0  0  0  0  0  0  0  0
  148.1993  142.1437  156.7956 H   0  0  0  0  0  0  0  0  0  0  0  0
  149.6451  143.0831  157.1585 H   0  0  0  0  0  0  0  0  0  0  0  0
  148.9863  141.9613  158.3504 H   0  0  0  0  0  0  0  0  0  0  0  0
  150.8559  141.1334  159.3595 H   0  0  0  0  0  0  0  0  0  0  0  0
  152.3825  140.3430  159.0750 H   0  0  0  0  0  0  0  0  0  0  0  0
  153.3604  142.3271  158.0837 H   0  0  0  0  0  0  0  0  0  0  0  0
  151.5937  143.0635  160.4434 H   0  0  0  0  0  0  0  0  0  0  0  0
  153.3565  142.9275  160.4111 H   0  0  0  0  0  0  0  0  0  0  0  0
  152.2678  145.3706  160.1097 H   0  0  0  0  0  0  0  0  0  0  0  0
  153.5308  144.8804  158.9722 H   0  0  0  0  0  0  0  0  0  0  0  0
  150.5207  144.7564  158.5535 H   0  0  0  0  0  0  0  0  0  0  0  0
  151.7405  145.3709  157.4342 H   0  0  0  0  0  0  0  0  0  0  0  0
  154.0698  137.3629  156.1662 H   0  0  0  0  0  0  0  0  0  0  0  0
  151.0739  137.3367  152.7788 H   0  0  0  0  0  0  0  0  0  0  0  0
  149.8927  138.5449  153.1172 H   0  0  0  0  0  0  0  0  0  0  0  0
  1  2  1  0  0  0  0
  1 19  1  0  0  0  0
  1 20  1  0  0  0  0
  1 21  1  0  0  0  0
  2 18  1  0  0  0  0
  2  3  2  0  0  0  0
  3  4  1  0  0  0  0
  3  5  1  0  0  0  0
  4 22  1  0  0  0  0
  4 23  1  0  0  0  0
  4 24  1  0  0  0  0
  5  6  1  0  0  0  0
  5 12  1  0  0  0  0
  6  7  1  0  0  0  0
  6 25  1  0  0  0  0
  6 26  1  0  0  0  0
  7 11  1  0  0  0  0
  7  8  1  0  0  0  0
  7 27  1  0  0  0  0
  8  9  1  0  0  0  0
  8 28  1  0  0  0  0
  8 29  1  0  0  0  0
  9 10  1  0  0  0  0
  9 30  1  0  0  0  0
  9 31  1  0  0  0  0
 10 11  1  0  0  0  0
 10 32  1  0  0  0  0
 10 33  1  0  0  0  0
 12 18  1  0  0  0  0
 12 13  2  0  0  0  0
 13 14  1  0  0  0  0
 14 15  2  0  0  0  0
 14 34  1  0  0  0  0
 15 16  1  0  0  0  0
 16 17  1  0  0  0  0
 16 18  2  0  0  0  0
 17 35  1  0  0  0  0
 17 36  1  0  0  0  0
M  END
> <s_m_source_file>
AV-unprocessed.smi

> <i_m_source_file_index>
2943

> <i_lp_mmshare_version>
43012

> <i_f3d_flags>
0

> <s_epik_input>
bjFbY0hdbmMoW05IMl0pYyhjMTIpYyhbQ0gzXSljKFtDSDNdKW4yW0NIMl1bQ0BASF0zW0NIMl1bQ0gyXVtDSDJdTzM=

> <s_epik_cmdline>
J2VwaWtfcHl0aG9uJywgJy1waCcsICc3LjAnLCAnLXRuJywgJzgnLCAnLW1hJywgJzIwMCcsICctbWV0YWxfYmluZGluZycsICctaW1hZScsICc8aW5maWxlLm1hZT4nLCAnLW9tYWUnLCAnPG91dGZpbGUubWFlPic=

> <r_epik_Ionization_Penalty>
0.0115167

> <r_epik_Ionization_Penalty_Charging>
0

> <r_epik_Ionization_Penalty_Neutral>
0.0115167

> <r_epik_State_Penalty>
0.00863248

> <r_epik_Charging_Adjusted_Penalty>
0.00863248

> <i_epik_Tot_Q>
0

> <i_epik_Tot_abs_Q>
0

> <r_epik_Metal_State_Penalty>
0.00847169

> <b_epik_Metal_Only>
0

> <s_lp_Force_Field>
OPLS_2005

> <r_lp_Energy>
17.4576

> <b_lp_Chiralities_Consistent>
1

> <s_lp_Variant>
AV-unprocessed.smi:2943-1

> <Gold.Version>
5.8.1

> <Gold.Id.Protein>
6NUR|6NUR_protein|mol2

> <Gold.PLP.Fitness>
42.1665

> <Gold.PLP.PLP>
-35.5413

> <Gold.PLP.part.hbond>
-5.0000

> <Gold.PLP.part.metal>
0.0000

> <Gold.PLP.part.buried>
-0.4526

> <Gold.PLP.part.nonpolar>
-30.2142

> <Gold.PLP.part.repulsive>
0.2786

> <Gold.PLP.ligand.clash>
0.0000

> <Gold.PLP.ligand.torsion>
0.3670

> <Gold.PLP.Chemscore.Hbond>
2.4529

> <Gold.PLP.Chemscore.CHOScore>
0.0000

> <Gold.PLP.Chemscore.Metal>
0.0000

> <Gold.Chemscore.Hbonds>
donor molecule, donor type, donor heavy atom, donor atom, acceptor molecule, acceptor atom, score
      L1  H    17    35       P1  7949  1.00
      P1  H  7997  8010       L1    13  0.90
      P1  H 10752 10765       L1    15  0.45

> <Gold.PLP.Chemscore.Internal.Correction>
0.0004

> <Gold.Rescore>
     Score         DG    S(hbond)    S(metal)    S(lipo)     H(rot)  DE(clash)    DE(int)     intcor
     13.01     -15.96       1.23        0.00      82.11       1.26       0.06       2.90       ----

> <Gold.Chemscore.Fitness>
13.0050

> <Gold.Chemscore.DG>
-15.9620

> <Gold.Chemscore.ZeroCoef>
-5.4800

> <Gold.Chemscore.Hbond>
1.2281

> <Gold.Chemscore.Metal>
0.0000

> <Gold.Chemscore.Lipo>
82.1147

> <Gold.Chemscore.Internal_Hbond>
0.0000

> <Gold.Chemscore.DEClash>
0.0595

> <Gold.Chemscore.DEInternal>
2.8974

> <Gold.Chemscore.Rot>
1.2607

> <Gold.Chemscore.Internal.Correction>
   9.000000E+99

> <Gold.Chemscore.Hbonds>
donor molecule, donor type, donor heavy atom, donor atom, acceptor molecule, acceptor atom, score
      L1  H    17    35       P1  7949  0.35
      L1  H    17    36       P1  7957  0.01
      P1  H  7997  8010       L1    13  0.10
      P1  H 10752 10765       L1    15  0.22

> <Gold.Chemscore.Hbond.Weighted>
-4.1020

> <Gold.Chemscore.Metal.Weighted>
-0.0000

> <Gold.Chemscore.Lipo.Weighted>
-9.6074

> <Gold.Chemscore.Internal_Hbond.Weighted>
0.0000

> <Gold.Chemscore.DEClash.Weighted>
0.0595

> <Gold.Chemscore.DEInternal.Weighted>
2.8974

> <Gold.Chemscore.Rot.Weighted>
3.2274

> <Gold.Chemscore.Internal.Correction.Weighted>
   9.000000E+99

> <Gold.Protein.RotatedTorsions>
[ 6907 6896 6895 6894 ] final -151.78 input  -60.11 | X-H torsion
[ 7974 7965 7964 7962 ] final -124.44 input  175.53 | X-H torsion
[ 8008 7997 7996 7995 ] final   61.32 input   59.86 | X-H torsion
[ 10167 10162 10161 10158 ] final   77.12 input  -65.29 | X-H torsion
[ 10718 10713 10712 10709 ] final  168.99 input   66.30 | X-H torsion
[ 10763 10752 10751 10750 ] final  170.17 input  -60.55 | X-H torsion
[ 11005 11000 10999 10996 ] final   78.74 input  -57.11 | X-H torsion

> <Gold.Protein.ActiveResidues>
 VAL166  LYS551  ARG553  GLY616  TRP617  ASP618  TYR619  PRO620  LYS621  CYS622 
 ASP623  PHE694  ASN695  SER759  ASP760  ASP761  ALA762  ILE779  LEU786  VAL792 
 PHE793  MET794  SER795  GLU796  ALA797  LYS798  CYS799  TRP800  GLU811  SER814 

> <Gold.Protein.RotatedAtoms>
  151.2182  133.4517  159.2599 H   0  0  0  0  0  0  0  0  0  0  0  0  # atno 6907 bound_to 6896
  151.0911  134.9916  159.8413 H   0  0  0  0  0  0  0  0  0  0  0  0  # atno 6908 bound_to 6896
  152.5434  134.2115  159.8805 H   0  0  0  0  0  0  0  0  0  0  0  0  # atno 6909 bound_to 6896
  145.0080  140.7881  143.4455 H   0  0  0  0  0  0  0  0  0  0  0  0  # atno 7974 bound_to 7965
  155.5965  140.3493  155.4581 H   0  0  0  0  0  0  0  0  0  0  0  0  # atno 8008 bound_to 7997
  156.0261  140.1264  157.0331 H   0  0  0  0  0  0  0  0  0  0  0  0  # atno 8009 bound_to 7997
  154.4334  140.1052  156.6019 H   0  0  0  0  0  0  0  0  0  0  0  0  # atno 8010 bound_to 7997
  139.9849  144.5799  150.7868 H   0  0  0  0  0  0  0  0  0  0  0  0  # atno 10167 bound_to 10162
  157.0292  131.0254  151.2750 H   0  0  0  0  0  0  0  0  0  0  0  0  # atno 10718 bound_to 10713
  154.3937  135.2754  155.2139 H   0  0  0  0  0  0  0  0  0  0  0  0  # atno 10763 bound_to 10752
  154.4194  135.6003  153.6004 H   0  0  0  0  0  0  0  0  0  0  0  0  # atno 10764 bound_to 10752
  152.9831  135.5969  154.4196 H   0  0  0  0  0  0  0  0  0  0  0  0  # atno 10765 bound_to 10752
  139.9200  134.7787  156.1688 H   0  0  0  0  0  0  0  0  0  0  0  0  # atno 11005 bound_to 11000
  145.2061  139.2227  143.5167 LP  0  0  0  0  0  0  0  0  0  0  0  0  # atno 17320 bound_to 7965
  146.3465  140.1889  142.8589 LP  0  0  0  0  0  0  0  0  0  0  0  0  # atno 17321 bound_to 7965
  140.7476  143.2908  151.3335 LP  0  0  0  0  0  0  0  0  0  0  0  0  # atno 17342 bound_to 10162
  139.6382  144.0590  152.2533 LP  0  0  0  0  0  0  0  0  0  0  0  0  # atno 17343 bound_to 10162
  157.5191  130.7986  149.7789 LP  0  0  0  0  0  0  0  0  0  0  0  0  # atno 17370 bound_to 10713
  156.0075  130.3848  150.2378 LP  0  0  0  0  0  0  0  0  0  0  0  0  # atno 17371 bound_to 10713
  141.0713  133.6795  156.2146 LP  0  0  0  0  0  0  0  0  0  0  0  0  # atno 17394 bound_to 11000
  140.6502  134.5075  157.5577 LP  0  0  0  0  0  0  0  0  0  0  0  0  # atno 17395 bound_to 11000

$$$$
