AV-unprocessed.smi:61|AV-procd|sdf|599|dock9
  -GOLD-   2262016493D 1   1.00000     0.00000
 Structure written by MMmdl.
 29 30  0  0  0  0  0  0  0  0  2 V2000
  151.4400  137.9305  153.6009 N   0  0  0  0  0  0  0  0  0  0  0  0
  150.4439  138.7734  154.0297 C   0  0  0  0  0  0  0  0  0  0  0  0
  150.7923  139.9074  154.6463 N   0  0  0  0  0  0  0  0  0  0  0  0
  149.8220  140.7410  155.0698 C   0  0  0  0  0  0  0  0  0  0  0  0
  148.4626  140.4426  154.8787 C   0  0  0  0  0  0  0  0  0  0  0  0
  148.1619  139.2278  154.2241 C   0  0  0  0  0  0  0  0  0  0  0  0
  146.8540  138.7948  153.9621 N   0  0  0  0  0  0  0  0  0  0  0  0
  146.2774  137.9550  155.0077 C   0  0  0  0  0  0  0  0  0  0  0  0
  145.4824  136.8443  154.3045 C   0  0  0  0  0  0  0  0  0  0  0  0
  145.3531  137.3274  152.8618 C   0  0  0  0  0  0  0  0  0  0  0  0
  146.6454  138.1245  152.6840 C   0  0  1  0  0  0  0  0  0  0  0  0
  146.6934  139.0774  151.4719 C   0  0  0  0  0  0  0  0  0  0  0  0
  146.4324  138.3969  150.2617 O   0  0  0  0  0  0  0  0  0  0  0  0
  149.1697  138.4197  153.8108 N   0  3  0  0  0  0  0  0  0  0  0  0
  151.2108  137.0656  153.1322 H   0  0  0  0  0  0  0  0  0  0  0  0
  152.4114  138.1644  153.7463 H   0  0  0  0  0  0  0  0  0  0  0  0
  150.1328  141.6501  155.5628 H   0  0  0  0  0  0  0  0  0  0  0  0
  147.6914  141.1187  155.2175 H   0  0  0  0  0  0  0  0  0  0  0  0
  147.0295  137.5371  155.6783 H   0  0  0  0  0  0  0  0  0  0  0  0
  145.6099  138.5727  155.6092 H   0  0  0  0  0  0  0  0  0  0  0  0
  146.0533  135.9154  154.3298 H   0  0  0  0  0  0  0  0  0  0  0  0
  144.5166  136.6548  154.7740 H   0  0  0  0  0  0  0  0  0  0  0  0
  145.2546  136.5108  152.1461 H   0  0  0  0  0  0  0  0  0  0  0  0
  144.4763  137.9695  152.7687 H   0  0  0  0  0  0  0  0  0  0  0  0
  147.4510  137.4008  152.5536 H   0  0  0  0  0  0  0  0  0  0  0  0
  145.9833  139.8971  151.5863 H   0  0  0  0  0  0  0  0  0  0  0  0
  147.6838  139.5273  151.3987 H   0  0  0  0  0  0  0  0  0  0  0  0
  145.4962  138.3284  150.1495 H   0  0  0  0  0  0  0  0  0  0  0  0
  148.9478  137.5441  153.3365 H   0  0  0  0  0  0  0  0  0  0  0  0
  1  2  1  0  0  0  0
  1 15  1  0  0  0  0
  1 16  1  0  0  0  0
  2 14  1  0  0  0  0
  2  3  2  0  0  0  0
  3  4  1  0  0  0  0
  4  5  2  0  0  0  0
  4 17  1  0  0  0  0
  5  6  1  0  0  0  0
  5 18  1  0  0  0  0
  6  7  1  0  0  0  0
  6 14  2  0  0  0  0
  7 11  1  0  0  0  0
  7  8  1  0  0  0  0
  8  9  1  0  0  0  0
  8 19  1  0  0  0  0
  8 20  1  0  0  0  0
  9 10  1  0  0  0  0
  9 21  1  0  0  0  0
  9 22  1  0  0  0  0
 10 11  1  0  0  0  0
 10 23  1  0  0  0  0
 10 24  1  0  0  0  0
 11 12  1  0  0  0  0
 11 25  1  0  0  0  0
 12 13  1  0  0  0  0
 12 26  1  0  0  0  0
 12 27  1  0  0  0  0
 13 28  1  0  0  0  0
 14 29  1  0  0  0  0
M  CHG  1  14   1
M  END
> <s_m_source_file>
AV-unprocessed.smi

> <i_m_source_file_index>
61

> <i_lp_mmshare_version>
43012

> <i_f3d_flags>
0

> <s_epik_input>
W05IMl1jMW5bY0hdW2NIXWMobjEpTjJbQ0gyXVtDSDJdW0NIMl1bQ0BIXTJbQ0gyXVtPSF0=

> <s_epik_cmdline>
J2VwaWtfcHl0aG9uJywgJy1waCcsICc3LjAnLCAnLXRuJywgJzgnLCAnLW1hJywgJzIwMCcsICctbWV0YWxfYmluZGluZycsICctaW1hZScsICc8aW5maWxlLm1hZT4nLCAnLW9tYWUnLCAnPG91dGZpbGUubWFlPic=

> <r_lp_tautomer_probability>
0.424989

> <r_epik_Ionization_Penalty>
0.696162

> <r_epik_Ionization_Penalty_Charging>
0.696158

> <r_epik_Ionization_Penalty_Neutral>
4.43138e-06

> <r_epik_State_Penalty>
0.906374

> <r_epik_Charging_Adjusted_Penalty>
1.60253

> <i_epik_Tot_Q>
1

> <i_epik_Tot_abs_Q>
1

> <r_epik_Metal_State_Penalty>
1.16703

> <b_epik_Metal_Only>
0

> <s_lp_Force_Field>
OPLS_2005

> <r_lp_Energy>
33.2177

> <b_lp_Chiralities_Consistent>
1

> <s_lp_Variant>
AV-unprocessed.smi:61-5

> <Gold.Version>
5.8.1

> <Gold.Id.Protein>
6NUR|6NUR_protein|mol2

> <Gold.PLP.Fitness>
39.2647

> <Gold.PLP.PLP>
-21.1290

> <Gold.PLP.part.hbond>
-5.6012

> <Gold.PLP.part.metal>
0.0000

> <Gold.PLP.part.buried>
1.8573

> <Gold.PLP.part.nonpolar>
-16.3968

> <Gold.PLP.part.repulsive>
0.4155

> <Gold.PLP.ligand.clash>
0.0000

> <Gold.PLP.ligand.torsion>
0.6942

> <Gold.PLP.Chemscore.Hbond>
6.4928

> <Gold.PLP.Chemscore.CHOScore>
0.0000

> <Gold.PLP.Chemscore.Metal>
0.0000

> <Gold.Chemscore.Hbonds>
donor molecule, donor type, donor heavy atom, donor atom, acceptor molecule, acceptor atom, score
      L1  H     1    15       P1  7949  1.98
      L1  H    13    28       P1 10171  1.00
      L1  H    14    29       P1  7948  2.00
      P1  H  7954  7966       L1    13  0.65
      P1  H  7989  7998       L1     3  1.00

> <Gold.PLP.Chemscore.Internal.Correction>
0.0457

> <Gold.Rescore>
     Score         DG    S(hbond)    S(metal)    S(lipo)     H(rot)  DE(clash)    DE(int)     intcor
     13.35     -14.43       2.95        0.00      35.68       1.98       0.46       0.61       ----

> <Gold.Chemscore.Fitness>
13.3484

> <Gold.Chemscore.DG>
-14.4268

> <Gold.Chemscore.ZeroCoef>
-5.4800

> <Gold.Chemscore.Hbond>
2.9494

> <Gold.Chemscore.Metal>
0.0000

> <Gold.Chemscore.Lipo>
35.6790

> <Gold.Chemscore.Internal_Hbond>
0.0000

> <Gold.Chemscore.DEClash>
0.4637

> <Gold.Chemscore.DEInternal>
0.6146

> <Gold.Chemscore.Rot>
1.9838

> <Gold.Chemscore.Internal.Correction>
   9.000000E+99

> <Gold.Chemscore.Hbonds>
donor molecule, donor type, donor heavy atom, donor atom, acceptor molecule, acceptor atom, score
      L1  H     1    15       P1  7949  0.55
      L1  H    13    28       P1 10171  1.00
      L1  H    14    29       P1  7948  0.97
      P1  H  7954  7966       L1    13  0.15
      P1  H  7989  7998       L1     3  0.24

> <Gold.Chemscore.Hbond.Weighted>
-9.8509

> <Gold.Chemscore.Metal.Weighted>
-0.0000

> <Gold.Chemscore.Lipo.Weighted>
-4.1744

> <Gold.Chemscore.Internal_Hbond.Weighted>
0.0000

> <Gold.Chemscore.DEClash.Weighted>
0.4637

> <Gold.Chemscore.DEInternal.Weighted>
0.6146

> <Gold.Chemscore.Rot.Weighted>
5.0786

> <Gold.Chemscore.Internal.Correction.Weighted>
   9.000000E+99

> <Gold.Protein.RotatedTorsions>
[ 6907 6896 6895 6894 ] final  -41.40 input  -60.11 | X-H torsion
[ 7974 7965 7964 7962 ] final -108.64 input  175.53 | X-H torsion
[ 8008 7997 7996 7995 ] final -174.73 input   59.86 | X-H torsion
[ 10167 10162 10161 10158 ] final -158.65 input  -65.29 | X-H torsion
[ 10718 10713 10712 10709 ] final  -82.01 input   66.30 | X-H torsion
[ 10763 10752 10751 10750 ] final  112.94 input  -60.55 | X-H torsion
[ 11005 11000 10999 10996 ] final -169.92 input  -57.11 | X-H torsion

> <Gold.Protein.ActiveResidues>
 VAL166  LYS551  ARG553  GLY616  TRP617  ASP618  TYR619  PRO620  LYS621  CYS622 
 ASP623  PHE694  ASN695  SER759  ASP760  ASP761  ALA762  ILE779  LEU786  VAL792 
 PHE793  MET794  SER795  GLU796  ALA797  LYS798  CYS799  TRP800  GLU811  SER814 

> <Gold.Protein.RotatedAtoms>
  150.9672  134.9051  159.7765 H   0  0  0  0  0  0  0  0  0  0  0  0  # atno 6907 bound_to 6896
  152.5177  134.3591  159.9288 H   0  0  0  0  0  0  0  0  0  0  0  0  # atno 6908 bound_to 6896
  151.3601  133.3852  159.2723 H   0  0  0  0  0  0  0  0  0  0  0  0  # atno 6909 bound_to 6896
  145.1904  140.9012  143.3428 H   0  0  0  0  0  0  0  0  0  0  0  0  # atno 7974 bound_to 7965
  155.9737  140.1168  157.0789 H   0  0  0  0  0  0  0  0  0  0  0  0  # atno 8008 bound_to 7997
  154.4163  140.1158  156.5409 H   0  0  0  0  0  0  0  0  0  0  0  0  # atno 8009 bound_to 7997
  155.6562  140.3473  155.4768 H   0  0  0  0  0  0  0  0  0  0  0  0  # atno 8010 bound_to 7997
  139.6676  143.9802  152.2264 H   0  0  0  0  0  0  0  0  0  0  0  0  # atno 10167 bound_to 10162
  156.0040  130.4621  150.4040 H   0  0  0  0  0  0  0  0  0  0  0  0  # atno 10718 bound_to 10713
  153.4852  135.3671  155.2463 H   0  0  0  0  0  0  0  0  0  0  0  0  # atno 10763 bound_to 10752
  154.8754  135.3964  154.3654 H   0  0  0  0  0  0  0  0  0  0  0  0  # atno 10764 bound_to 10752
  153.4264  135.7081  153.6325 H   0  0  0  0  0  0  0  0  0  0  0  0  # atno 10765 bound_to 10752
  140.5253  134.5669  157.5059 H   0  0  0  0  0  0  0  0  0  0  0  0  # atno 11005 bound_to 11000
  145.0047  139.3565  143.6150 LP  0  0  0  0  0  0  0  0  0  0  0  0  # atno 17320 bound_to 7965
  146.3437  139.9285  142.8757 LP  0  0  0  0  0  0  0  0  0  0  0  0  # atno 17321 bound_to 7965
  139.9558  144.6590  150.8127 LP  0  0  0  0  0  0  0  0  0  0  0  0  # atno 17342 bound_to 10162
  140.7605  143.3153  151.2747 LP  0  0  0  0  0  0  0  0  0  0  0  0  # atno 17343 bound_to 10162
  157.2107  131.0459  151.2601 LP  0  0  0  0  0  0  0  0  0  0  0  0  # atno 17370 bound_to 10713
  157.3891  130.7272  149.6685 LP  0  0  0  0  0  0  0  0  0  0  0  0  # atno 17371 bound_to 10713
  139.9583  134.7496  156.0292 LP  0  0  0  0  0  0  0  0  0  0  0  0  # atno 17394 bound_to 11000
  141.1312  133.6586  156.3469 LP  0  0  0  0  0  0  0  0  0  0  0  0  # atno 17395 bound_to 11000

$$$$
