AV-unprocessed.smi:21|AV-procd|sdf|141|dock4
  -GOLD-   2262015343D 1   1.00000     0.00000
 Structure written by MMmdl.
 62 65  0  0  0  0  0  0  0  0  2 V2000
  152.5419  142.3908  162.1054 C   0  0  0  0  0  0  0  0  0  0  0  0
  153.5291  141.7788  161.2909 O   0  0  0  0  0  0  0  0  0  0  0  0
  153.3060  141.9546  159.8999 C   0  0  1  0  0  0  0  0  0  0  0  0
  152.0531  141.2454  159.3958 C   0  0  0  0  0  0  0  0  0  0  0  0
  151.6945  142.0141  158.1163 C   0  0  1  0  0  0  0  0  0  0  0  0
  150.2032  141.8994  157.7143 C   0  0  0  0  0  0  0  0  0  0  0  0
  150.0159  141.1529  156.4661 N   0  0  0  0  0  0  0  0  0  0  0  0
  150.8923  140.0139  156.2199 C   0  0  0  0  0  0  0  0  0  0  0  0
  148.9259  141.3661  155.6702 C   0  0  0  0  0  0  0  0  0  0  0  0
  148.9990  140.9954  154.3635 N   0  0  0  0  0  0  0  0  0  0  0  0
  147.9676  141.1763  153.5360 C   0  0  0  0  0  0  0  0  0  0  0  0
  146.7730  141.7021  153.8002 N   0  0  0  0  0  0  0  0  0  0  0  0
  146.6763  142.0774  155.1065 C   0  0  0  0  0  0  0  0  0  0  0  0
  147.6934  141.9534  156.0995 C   0  0  0  0  0  0  0  0  0  0  0  0
  147.2197  142.4679  157.3021 N   0  0  0  0  0  0  0  0  0  0  0  0
  146.0052  142.8616  157.0389 C   0  0  0  0  0  0  0  0  0  0  0  0
  145.5880  142.6485  155.7459 N   0  0  0  0  0  0  0  0  0  0  0  0
  144.2883  142.9847  155.1794 C   0  0  0  0  0  0  0  0  0  0  0  0
  144.0421  144.5076  154.9923 C   0  0  1  0  0  0  0  0  0  0  0  0
  144.7269  145.0556  153.7181 C   0  0  0  0  0  0  0  0  0  0  0  0
  143.9889  144.7115  152.5641 O   0  0  0  0  0  0  0  0  0  0  0  0
  142.5342  144.8729  155.0280 C   0  0  2  0  0  0  0  0  0  0  0  0
  142.2307  146.3623  155.0416 C   0  0  0  0  0  0  0  0  0  0  0  0
  140.7953  146.4057  155.5575 C   0  0  0  0  0  0  0  0  0  0  0  0
  140.6416  145.2574  156.3843 O   0  0  0  0  0  0  0  0  0  0  0  0
  141.8097  144.4487  156.3102 C   0  0  0  0  0  0  0  0  0  0  0  0
  152.2115  143.3998  158.3224 N   0  3  1  0  0  0  0  0  0  0  0  0
  151.2470  144.5203  158.2171 C   0  0  0  0  0  0  0  0  0  0  0  0
  152.9833  143.4138  159.5862 C   0  0  0  0  0  0  0  0  0  0  0  0
  154.1782  141.6448  159.3207 H   0  0  0  0  0  0  0  0  0  0  0  0
  152.2997  141.6068  157.3050 H   0  0  0  0  0  0  0  0  0  0  0  0
  152.7555  142.1834  163.1539 H   0  0  0  0  0  0  0  0  0  0  0  0
  151.5482  141.9998  161.8829 H   0  0  0  0  0  0  0  0  0  0  0  0
  152.5297  143.4734  161.9768 H   0  0  0  0  0  0  0  0  0  0  0  0
  152.2076  140.1809  159.2169 H   0  0  0  0  0  0  0  0  0  0  0  0
  151.2564  141.3504  160.1335 H   0  0  0  0  0  0  0  0  0  0  0  0
  149.6138  141.4836  158.5308 H   0  0  0  0  0  0  0  0  0  0  0  0
  149.7946  142.8960  157.5459 H   0  0  0  0  0  0  0  0  0  0  0  0
  150.3708  139.0771  156.4176 H   0  0  0  0  0  0  0  0  0  0  0  0
  151.7694  140.0478  156.8664 H   0  0  0  0  0  0  0  0  0  0  0  0
  151.2466  140.0130  155.1888 H   0  0  0  0  0  0  0  0  0  0  0  0
  148.1206  140.8514  152.5173 H   0  0  0  0  0  0  0  0  0  0  0  0
  145.3789  143.3176  157.7906 H   0  0  0  0  0  0  0  0  0  0  0  0
  144.1881  142.4633  154.2272 H   0  0  0  0  0  0  0  0  0  0  0  0
  143.5172  142.5582  155.8217 H   0  0  0  0  0  0  0  0  0  0  0  0
  144.5084  145.0079  155.8426 H   0  0  0  0  0  0  0  0  0  0  0  0
  144.8522  146.1374  153.7658 H   0  0  0  0  0  0  0  0  0  0  0  0
  145.7215  144.6300  153.5926 H   0  0  0  0  0  0  0  0  0  0  0  0
  143.5281  143.9035  152.7312 H   0  0  0  0  0  0  0  0  0  0  0  0
  142.0245  144.4348  154.1691 H   0  0  0  0  0  0  0  0  0  0  0  0
  142.8928  146.8795  155.7379 H   0  0  0  0  0  0  0  0  0  0  0  0
  142.3293  146.8335  154.0633 H   0  0  0  0  0  0  0  0  0  0  0  0
  140.5806  147.3229  156.1062 H   0  0  0  0  0  0  0  0  0  0  0  0
  140.0888  146.3327  154.7299 H   0  0  0  0  0  0  0  0  0  0  0  0
  141.5501  143.3910  156.3265 H   0  0  0  0  0  0  0  0  0  0  0  0
  142.4254  144.6549  157.1870 H   0  0  0  0  0  0  0  0  0  0  0  0
  150.4527  144.4358  158.9597 H   0  0  0  0  0  0  0  0  0  0  0  0
  150.7991  144.5638  157.2243 H   0  0  0  0  0  0  0  0  0  0  0  0
  151.7585  145.4692  158.3814 H   0  0  0  0  0  0  0  0  0  0  0  0
  152.3642  143.8251  160.3859 H   0  0  0  0  0  0  0  0  0  0  0  0
  153.8772  144.0331  159.5062 H   0  0  0  0  0  0  0  0  0  0  0  0
  152.8847  143.5431  157.5828 H   0  0  0  0  0  0  0  0  0  0  0  0
  1  2  1  0  0  0  0
  1 32  1  0  0  0  0
  1 33  1  0  0  0  0
  1 34  1  0  0  0  0
  2  3  1  0  0  0  0
  3 30  1  0  0  0  0
  3 29  1  0  0  0  0
  3  4  1  0  0  0  0
  4  5  1  0  0  0  0
  4 35  1  0  0  0  0
  4 36  1  0  0  0  0
  5 31  1  0  0  0  0
  5  6  1  0  0  0  0
  5 27  1  0  0  0  0
  6  7  1  0  0  0  0
  6 37  1  0  0  0  0
  6 38  1  0  0  0  0
  7  8  1  0  0  0  0
  7  9  1  0  0  0  0
  8 39  1  0  0  0  0
  8 40  1  0  0  0  0
  8 41  1  0  0  0  0
  9 14  1  0  0  0  0
  9 10  2  0  0  0  0
 10 11  1  0  0  0  0
 11 12  2  0  0  0  0
 11 42  1  0  0  0  0
 12 13  1  0  0  0  0
 13 17  1  0  0  0  0
 13 14  2  0  0  0  0
 14 15  1  0  0  0  0
 15 16  2  0  0  0  0
 16 17  1  0  0  0  0
 16 43  1  0  0  0  0
 17 18  1  0  0  0  0
 18 19  1  0  0  0  0
 18 44  1  0  0  0  0
 18 45  1  0  0  0  0
 19 20  1  0  0  0  0
 19 22  1  0  0  0  0
 19 46  1  0  0  0  0
 20 21  1  0  0  0  0
 20 47  1  0  0  0  0
 20 48  1  0  0  0  0
 21 49  1  0  0  0  0
 22 26  1  0  0  0  0
 22 23  1  0  0  0  0
 22 50  1  0  0  0  0
 23 24  1  0  0  0  0
 23 51  1  0  0  0  0
 23 52  1  0  0  0  0
 24 25  1  0  0  0  0
 24 53  1  0  0  0  0
 24 54  1  0  0  0  0
 25 26  1  0  0  0  0
 26 55  1  0  0  0  0
 26 56  1  0  0  0  0
 27 28  1  0  0  0  0
 27 29  1  0  0  0  0
 27 62  1  0  0  0  0
 28 57  1  0  0  0  0
 28 58  1  0  0  0  0
 28 59  1  0  0  0  0
 29 60  1  0  0  0  0
 29 61  1  0  0  0  0
M  CHG  1  27   1
M  END
> <s_m_source_file>
AV-unprocessed.smi

> <i_m_source_file_index>
21

> <i_lp_mmshare_version>
43012

> <i_f3d_flags>
0

> <s_epik_input>
W0NIM11PW0NASF0xW0NIMl1bQ0BIXShOKFtDSDNdKVtDSDJdMSlbQ0gyXU4oW0NIM10pYyhuW2NIXW4yKWMoYzIzKW5bY0hdbjNbQ0gyXVtDQEhdKFtDSDJdW09IXSlbQ0BASF00W0NIMl1bQ0gyXU9bQ0gyXTQ=

> <s_epik_cmdline>
J2VwaWtfcHl0aG9uJywgJy1waCcsICc3LjAnLCAnLXRuJywgJzgnLCAnLW1hJywgJzIwMCcsICctbWV0YWxfYmluZGluZycsICctaW1hZScsICc8aW5maWxlLm1hZT4nLCAnLW9tYWUnLCAnPG91dGZpbGUubWFlPic=

> <r_lp_tautomer_probability>
1

> <r_epik_Ionization_Penalty>
0.0157465

> <r_epik_Ionization_Penalty_Charging>
0.015354

> <r_epik_Ionization_Penalty_Neutral>
0.000392529

> <r_epik_State_Penalty>
0.0120612

> <r_epik_Charging_Adjusted_Penalty>
0.0274152

> <i_epik_Tot_Q>
1

> <i_epik_Tot_abs_Q>
1

> <r_epik_Metal_State_Penalty>
0.0121253

> <b_epik_Metal_Only>
0

> <s_lp_Force_Field>
OPLS_2005

> <r_lp_Energy>
60.5885

> <b_lp_Chiralities_Consistent>
1

> <s_lp_Variant>
AV-unprocessed.smi:21-21

> <Gold.Version>
5.8.1

> <Gold.Id.Protein>
6NUR|6NUR_protein|mol2

> <Gold.PLP.Fitness>
53.0996

> <Gold.PLP.PLP>
-50.5137

> <Gold.PLP.part.hbond>
-2.0000

> <Gold.PLP.part.metal>
0.0000

> <Gold.PLP.part.buried>
-7.9615

> <Gold.PLP.part.nonpolar>
-42.2253

> <Gold.PLP.part.repulsive>
0.7509

> <Gold.PLP.ligand.clash>
0.0000

> <Gold.PLP.ligand.torsion>
1.9159

> <Gold.PLP.Chemscore.Hbond>
1.0000

> <Gold.PLP.Chemscore.CHOScore>
1.0000

> <Gold.PLP.Chemscore.Metal>
0.0000

> <Gold.Chemscore.Hbonds>
donor molecule, donor type, donor heavy atom, donor atom, acceptor molecule, acceptor atom, score
      L1  H    21    49       P1 10174  0.98
      L1  C    11    42       P1  7957  1.00

> <Gold.PLP.Chemscore.Internal.Correction>
0.4176

> <Gold.Rescore>
     Score         DG    S(hbond)    S(metal)    S(lipo)     H(rot)  DE(clash)    DE(int)     intcor
      9.81     -13.78       0.85        0.00     113.92       3.08       1.63       2.34       ----

> <Gold.Chemscore.Fitness>
9.8140

> <Gold.Chemscore.DG>
-13.7833

> <Gold.Chemscore.ZeroCoef>
-5.4800

> <Gold.Chemscore.Hbond>
0.8531

> <Gold.Chemscore.Metal>
0.0000

> <Gold.Chemscore.Lipo>
113.9156

> <Gold.Chemscore.Internal_Hbond>
0.0000

> <Gold.Chemscore.DEClash>
1.6250

> <Gold.Chemscore.DEInternal>
2.3443

> <Gold.Chemscore.Rot>
3.0758

> <Gold.Chemscore.Internal.Correction>
   9.000000E+99

> <Gold.Chemscore.Hbonds>
donor molecule, donor type, donor heavy atom, donor atom, acceptor molecule, acceptor atom, score
      L1  H    21    49       P1 10174  0.88

> <Gold.Chemscore.Hbond.Weighted>
-2.8493

> <Gold.Chemscore.Metal.Weighted>
-0.0000

> <Gold.Chemscore.Lipo.Weighted>
-13.3281

> <Gold.Chemscore.Internal_Hbond.Weighted>
0.0000

> <Gold.Chemscore.DEClash.Weighted>
1.6250

> <Gold.Chemscore.DEInternal.Weighted>
2.3443

> <Gold.Chemscore.Rot.Weighted>
7.8741

> <Gold.Chemscore.Internal.Correction.Weighted>
   9.000000E+99

> <Gold.Protein.RotatedTorsions>
[ 6907 6896 6895 6894 ] final   61.28 input  -60.11 | X-H torsion
[ 7974 7965 7964 7962 ] final  150.32 input  175.53 | X-H torsion
[ 8008 7997 7996 7995 ] final  111.25 input   59.86 | X-H torsion
[ 10167 10162 10161 10158 ] final  -28.73 input  -65.29 | X-H torsion
[ 10718 10713 10712 10709 ] final  125.62 input   66.30 | X-H torsion
[ 10763 10752 10751 10750 ] final  -78.75 input  -60.55 | X-H torsion
[ 11005 11000 10999 10996 ] final  -74.60 input  -57.11 | X-H torsion

> <Gold.Protein.ActiveResidues>
 VAL166  LYS551  ARG553  GLY616  TRP617  ASP618  TYR619  PRO620  LYS621  CYS622 
 ASP623  PHE694  ASN695  SER759  ASP760  ASP761  ALA762  ILE779  LEU786  VAL792 
 PHE793  MET794  SER795  GLU796  ALA797  LYS798  CYS799  TRP800  GLU811  SER814 

> <Gold.Protein.RotatedAtoms>
  152.4075  134.6181  160.0043 H   0  0  0  0  0  0  0  0  0  0  0  0  # atno 6907 bound_to 6896
  151.6368  133.3323  159.3129 H   0  0  0  0  0  0  0  0  0  0  0  0  # atno 6908 bound_to 6896
  150.7969  134.7075  159.6630 H   0  0  0  0  0  0  0  0  0  0  0  0  # atno 6909 bound_to 6896
  144.8373  139.6393  143.6032 H   0  0  0  0  0  0  0  0  0  0  0  0  # atno 7974 bound_to 7965
  156.2110  140.3023  155.9733 H   0  0  0  0  0  0  0  0  0  0  0  0  # atno 8008 bound_to 7997
  155.2723  140.0434  157.3025 H   0  0  0  0  0  0  0  0  0  0  0  0  # atno 8009 bound_to 7997
  154.5700  140.2345  155.8214 H   0  0  0  0  0  0  0  0  0  0  0  0  # atno 8010 bound_to 7997
  140.7267  143.3986  151.1304 H   0  0  0  0  0  0  0  0  0  0  0  0  # atno 10167 bound_to 10162
  157.5488  131.1095  150.8737 H   0  0  0  0  0  0  0  0  0  0  0  0  # atno 10718 bound_to 10713
  154.5298  135.5719  153.6749 H   0  0  0  0  0  0  0  0  0  0  0  0  # atno 10763 bound_to 10752
  152.9936  135.6202  154.2644 H   0  0  0  0  0  0  0  0  0  0  0  0  # atno 10764 bound_to 10752
  154.2569  135.2857  155.2773 H   0  0  0  0  0  0  0  0  0  0  0  0  # atno 10765 bound_to 10752
  141.1637  133.6917  156.7390 H   0  0  0  0  0  0  0  0  0  0  0  0  # atno 11005 bound_to 11000
  146.2670  139.6543  142.9322 LP  0  0  0  0  0  0  0  0  0  0  0  0  # atno 17320 bound_to 7965
  145.4768  141.0437  143.2668 LP  0  0  0  0  0  0  0  0  0  0  0  0  # atno 17321 bound_to 7965
  139.7602  143.8646  152.3098 LP  0  0  0  0  0  0  0  0  0  0  0  0  # atno 17342 bound_to 10162
  139.8530  144.7155  150.9191 LP  0  0  0  0  0  0  0  0  0  0  0  0  # atno 17343 bound_to 10162
  156.9268  130.5335  149.5279 LP  0  0  0  0  0  0  0  0  0  0  0  0  # atno 17370 bound_to 10713
  156.0558  130.5620  150.9089 LP  0  0  0  0  0  0  0  0  0  0  0  0  # atno 17371 bound_to 10713
  140.2689  134.8408  157.3828 LP  0  0  0  0  0  0  0  0  0  0  0  0  # atno 17394 bound_to 11000
  140.1540  134.4813  155.7941 LP  0  0  0  0  0  0  0  0  0  0  0  0  # atno 17395 bound_to 11000

$$$$
