AV-unprocessed.smi:1307|AV-procd|sdf|5437|dock3
  -GOLD-   22720 5 03D 1   1.00000     0.00000
 Structure written by MMmdl.
 41 41  0  0  0  0  0  0  0  0  1 V2000
  146.8867  141.9087  154.7625 C   0  0  0  0  0  0  0  0  0  0  0  0
  147.7455  140.7697  154.1766 C   0  0  0  0  0  0  0  0  0  0  0  0
  146.8445  139.8029  153.3873 C   0  0  0  0  0  0  0  0  0  0  0  0
  148.5838  140.0414  155.2611 C   0  0  1  0  0  0  0  0  0  0  0  0
  149.2239  138.7333  154.7584 C   0  0  0  0  0  0  0  0  0  0  0  0
  149.6388  140.9249  155.7518 N   0  0  0  0  0  0  0  0  0  0  0  0
  149.7096  141.4691  156.9790 C   0  0  0  0  0  0  0  0  0  0  0  0
  148.8801  141.2430  157.8587 O   0  0  0  0  0  0  0  0  0  0  0  0
  150.8851  142.4178  157.2836 C   0  0  0  0  0  0  0  0  0  0  0  0
  151.7840  141.9763  158.3829 N   0  0  0  0  0  0  0  0  0  0  0  0
  152.1015  142.8714  159.4525 C   0  0  0  0  0  0  0  0  0  0  0  0
  151.4826  144.2765  159.4698 C   0  0  0  0  0  0  0  0  0  0  0  0
  151.8340  144.9442  160.5698 F   0  0  0  0  0  0  0  0  0  0  0  0
  151.9070  144.9944  158.4296 F   0  0  0  0  0  0  0  0  0  0  0  0
  150.1504  144.2345  159.4617 F   0  0  0  0  0  0  0  0  0  0  0  0
  152.9126  142.4650  160.4466 C   0  0  0  0  0  0  0  0  0  0  0  0
  153.4617  141.1374  160.4352 C   0  0  0  0  0  0  0  0  0  0  0  0
  153.1711  140.2780  159.4323 C   0  0  0  0  0  0  0  0  0  0  0  0
  153.7013  138.8960  159.3841 C   0  0  0  0  0  0  0  0  0  0  0  0
  154.4978  138.5758  160.4118 N   0  0  0  0  0  0  0  0  0  0  0  0
  153.4825  138.0481  158.5193 O   0  0  0  0  0  0  0  0  0  0  0  0
  152.2824  140.6934  158.3167 C   0  0  0  0  0  0  0  0  0  0  0  0
  151.9755  139.9593  157.3725 O   0  0  0  0  0  0  0  0  0  0  0  0
  146.2089  141.5366  155.5314 H   0  0  0  0  0  0  0  0  0  0  0  0
  146.2813  142.3819  153.9890 H   0  0  0  0  0  0  0  0  0  0  0  0
  147.4970  142.6943  155.2080 H   0  0  0  0  0  0  0  0  0  0  0  0
  148.4365  141.2240  153.4648 H   0  0  0  0  0  0  0  0  0  0  0  0
  146.1619  139.2683  154.0488 H   0  0  0  0  0  0  0  0  0  0  0  0
  147.4247  139.0642  152.8352 H   0  0  0  0  0  0  0  0  0  0  0  0
  146.2411  140.3396  152.6546 H   0  0  0  0  0  0  0  0  0  0  0  0
  147.9187  139.8006  156.0927 H   0  0  0  0  0  0  0  0  0  0  0  0
  148.4718  137.9920  154.4906 H   0  0  0  0  0  0  0  0  0  0  0  0
  149.8507  138.2797  155.5270 H   0  0  0  0  0  0  0  0  0  0  0  0
  149.8501  138.9086  153.8832 H   0  0  0  0  0  0  0  0  0  0  0  0
  150.3646  141.1635  155.0921 H   0  0  0  0  0  0  0  0  0  0  0  0
  151.4538  142.5472  156.3609 H   0  0  0  0  0  0  0  0  0  0  0  0
  150.4782  143.4112  157.4449 H   0  0  0  0  0  0  0  0  0  0  0  0
  153.1590  143.1210  161.2683 H   0  0  0  0  0  0  0  0  0  0  0  0
  154.1029  140.8629  161.2598 H   0  0  0  0  0  0  0  0  0  0  0  0
  154.9077  137.6552  160.4675 H   0  0  0  0  0  0  0  0  0  0  0  0
  154.6852  139.2607  161.1300 H   0  0  0  0  0  0  0  0  0  0  0  0
  1  2  1  0  0  0  0
  1 24  1  0  0  0  0
  1 25  1  0  0  0  0
  1 26  1  0  0  0  0
  2  3  1  0  0  0  0
  2  4  1  0  0  0  0
  2 27  1  0  0  0  0
  3 28  1  0  0  0  0
  3 29  1  0  0  0  0
  3 30  1  0  0  0  0
  4  5  1  0  0  0  0
  4  6  1  0  0  0  0
  4 31  1  0  0  0  0
  5 32  1  0  0  0  0
  5 33  1  0  0  0  0
  5 34  1  0  0  0  0
  6  7  1  0  0  0  0
  6 35  1  0  0  0  0
  7  8  2  0  0  0  0
  7  9  1  0  0  0  0
  9 10  1  0  0  0  0
  9 36  1  0  0  0  0
  9 37  1  0  0  0  0
 10 22  1  0  0  0  0
 10 11  1  0  0  0  0
 11 12  1  0  0  0  0
 11 16  2  0  0  0  0
 12 13  1  0  0  0  0
 12 14  1  0  0  0  0
 12 15  1  0  0  0  0
 16 17  1  0  0  0  0
 16 38  1  0  0  0  0
 17 18  2  0  0  0  0
 17 39  1  0  0  0  0
 18 19  1  0  0  0  0
 18 22  1  0  0  0  0
 19 20  1  0  0  0  0
 19 21  2  0  0  0  0
 20 40  1  0  0  0  0
 20 41  1  0  0  0  0
 22 23  2  0  0  0  0
M  END
> <s_m_source_file>
AV-unprocessed.smi

> <i_m_source_file_index>
1307

> <i_lp_mmshare_version>
43012

> <i_f3d_flags>
0

> <s_epik_input>
W0NIM11bQ0hdKFtDSDNdKVtDQEhdKFtDSDNdKVtOSF1DKD1PKVtDSDJdbjFjKEMoRikoRilGKVtjSF1bY0hdYyhjMT1PKUMoPU8pW05IMl0=

> <s_epik_cmdline>
J2VwaWtfcHl0aG9uJywgJy1waCcsICc3LjAnLCAnLXRuJywgJzgnLCAnLW1hJywgJzIwMCcsICctbWV0YWxfYmluZGluZycsICctaW1hZScsICc8aW5maWxlLm1hZT4nLCAnLW9tYWUnLCAnPG91dGZpbGUubWFlPic=

> <r_lp_tautomer_probability>
1

> <r_epik_Ionization_Penalty>
2.05992e-06

> <r_epik_Ionization_Penalty_Charging>
8.21357e-10

> <r_epik_Ionization_Penalty_Neutral>
2.0591e-06

> <r_epik_State_Penalty>
-0

> <r_epik_Charging_Adjusted_Penalty>
8.21357e-10

> <i_epik_Tot_Q>
0

> <i_epik_Tot_abs_Q>
0

> <r_epik_Metal_State_Penalty>
-0

> <b_epik_Metal_Only>
0

> <s_lp_Force_Field>
OPLS_2005

> <r_lp_Energy>
26.9387

> <b_lp_Chiralities_Consistent>
1

> <s_lp_Variant>
AV-unprocessed.smi:1307-2

> <Gold.Version>
5.8.1

> <Gold.Id.Protein>
6NUR|6NUR_protein|mol2

> <Gold.PLP.Fitness>
49.4313

> <Gold.PLP.PLP>
-49.9328

> <Gold.PLP.part.hbond>
0.0000

> <Gold.PLP.part.metal>
0.0000

> <Gold.PLP.part.buried>
-5.9791

> <Gold.PLP.part.nonpolar>
-44.1264

> <Gold.PLP.part.repulsive>
0.2437

> <Gold.PLP.ligand.clash>
3.8955

> <Gold.PLP.ligand.torsion>
0.3033

> <Gold.PLP.Chemscore.Hbond>
0.0000

> <Gold.PLP.Chemscore.CHOScore>
0.0000

> <Gold.PLP.Chemscore.Metal>
0.0000

> <Gold.PLP.Chemscore.Internal.Correction>
4.0005

> <Gold.Rescore>
     Score         DG    S(hbond)    S(metal)    S(lipo)     H(rot)  DE(clash)    DE(int)     intcor
      5.77     -11.24       0.00        0.00      92.37       1.97       0.18       5.28       ----

> <Gold.Chemscore.Fitness>
5.7736

> <Gold.Chemscore.DG>
-11.2380

> <Gold.Chemscore.ZeroCoef>
-5.4800

> <Gold.Chemscore.Hbond>
0.0000

> <Gold.Chemscore.Metal>
0.0000

> <Gold.Chemscore.Lipo>
92.3676

> <Gold.Chemscore.Internal_Hbond>
0.0000

> <Gold.Chemscore.DEClash>
0.1819

> <Gold.Chemscore.DEInternal>
5.2825

> <Gold.Chemscore.Rot>
1.9723

> <Gold.Chemscore.Internal.Correction>
   9.000000E+99

> <Gold.Chemscore.Hbond.Weighted>
-0.0000

> <Gold.Chemscore.Metal.Weighted>
-0.0000

> <Gold.Chemscore.Lipo.Weighted>
-10.8070

> <Gold.Chemscore.Internal_Hbond.Weighted>
0.0000

> <Gold.Chemscore.DEClash.Weighted>
0.1819

> <Gold.Chemscore.DEInternal.Weighted>
5.2825

> <Gold.Chemscore.Rot.Weighted>
5.0490

> <Gold.Chemscore.Internal.Correction.Weighted>
   9.000000E+99

> <Gold.Protein.RotatedTorsions>
[ 6907 6896 6895 6894 ] final   27.37 input  -60.11 | X-H torsion
[ 7974 7965 7964 7962 ] final  -16.42 input  175.53 | X-H torsion
[ 8008 7997 7996 7995 ] final -104.49 input   59.86 | X-H torsion
[ 10167 10162 10161 10158 ] final -110.44 input  -65.29 | X-H torsion
[ 10718 10713 10712 10709 ] final  142.45 input   66.30 | X-H torsion
[ 10763 10752 10751 10750 ] final  -89.15 input  -60.55 | X-H torsion
[ 11005 11000 10999 10996 ] final  103.96 input  -57.11 | X-H torsion

> <Gold.Protein.ActiveResidues>
 VAL166  LYS551  ARG553  GLY616  TRP617  ASP618  TYR619  PRO620  LYS621  CYS622 
 ASP623  PHE694  ASN695  SER759  ASP760  ASP761  ALA762  ILE779  LEU786  VAL792 
 PHE793  MET794  SER795  GLU796  ALA797  LYS798  CYS799  TRP800  GLU811  SER814 

> <Gold.Protein.RotatedAtoms>
  152.0013  134.9927  160.0564 H   0  0  0  0  0  0  0  0  0  0  0  0  # atno 6907 bound_to 6896
  152.1516  133.4521  159.4825 H   0  0  0  0  0  0  0  0  0  0  0  0  # atno 6908 bound_to 6896
  150.6876  134.2099  159.4398 H   0  0  0  0  0  0  0  0  0  0  0  0  # atno 6909 bound_to 6896
  146.1988  140.3634  142.8431 H   0  0  0  0  0  0  0  0  0  0  0  0  # atno 7974 bound_to 7965
  154.8861  140.0417  157.1811 H   0  0  0  0  0  0  0  0  0  0  0  0  # atno 8008 bound_to 7997
  154.8589  140.2941  155.5530 H   0  0  0  0  0  0  0  0  0  0  0  0  # atno 8009 bound_to 7997
  156.2998  140.2450  156.3560 H   0  0  0  0  0  0  0  0  0  0  0  0  # atno 8010 bound_to 7997
  140.1444  143.4251  152.1539 H   0  0  0  0  0  0  0  0  0  0  0  0  # atno 10167 bound_to 10162
  157.3804  131.0991  151.0744 H   0  0  0  0  0  0  0  0  0  0  0  0  # atno 10718 bound_to 10713
  154.6522  135.5351  153.7915 H   0  0  0  0  0  0  0  0  0  0  0  0  # atno 10763 bound_to 10752
  153.0392  135.6485  154.1000 H   0  0  0  0  0  0  0  0  0  0  0  0  # atno 10764 bound_to 10752
  154.0916  135.2939  155.3250 H   0  0  0  0  0  0  0  0  0  0  0  0  # atno 10765 bound_to 10752
  139.8788  134.9283  156.5289 H   0  0  0  0  0  0  0  0  0  0  0  0  # atno 11005 bound_to 11000
  144.8638  140.7177  143.6090 LP  0  0  0  0  0  0  0  0  0  0  0  0  # atno 17320 bound_to 7965
  145.3554  139.1695  143.4412 LP  0  0  0  0  0  0  0  0  0  0  0  0  # atno 17321 bound_to 7965
  139.5456  144.7295  151.4594 LP  0  0  0  0  0  0  0  0  0  0  0  0  # atno 17342 bound_to 10162
  140.6741  143.8230  150.7035 LP  0  0  0  0  0  0  0  0  0  0  0  0  # atno 17343 bound_to 10162
  157.1815  130.6311  149.5673 LP  0  0  0  0  0  0  0  0  0  0  0  0  # atno 17370 bound_to 10713
  155.9774  130.4752  150.6594 LP  0  0  0  0  0  0  0  0  0  0  0  0  # atno 17371 bound_to 10713
  140.8395  133.8216  155.9061 LP  0  0  0  0  0  0  0  0  0  0  0  0  # atno 17394 bound_to 11000
  140.9251  134.2092  157.4901 LP  0  0  0  0  0  0  0  0  0  0  0  0  # atno 17395 bound_to 11000

$$$$
