AV-unprocessed.smi:255|AV-procd|sdf|1953|dock1
  -GOLD-   2262021 93D 1   1.00000     0.00000
 Structure written by MMmdl.
 44 47  0  0  0  0  0  0  0  0  1 V2000
  143.4866  132.9608  150.2505 O   0  0  0  0  0  0  0  0  0  0  0  0
  144.6884  133.6814  150.0771 C   0  0  0  0  0  0  0  0  0  0  0  0
  145.7052  133.3064  151.1719 C   0  0  2  0  0  0  0  0  0  0  0  0
  145.8845  131.7969  151.3341 C   0  0  0  0  0  0  0  0  0  0  0  0
  146.5238  131.7094  152.7150 C   0  0  2  0  0  0  0  0  0  0  0  0
  146.3479  130.5180  153.2856 F   0  0  0  0  0  0  0  0  0  0  0  0
  145.8536  132.8428  153.4975 C   0  0  0  0  0  0  0  0  0  0  0  0
  145.2970  133.7557  152.5012 N   0  0  0  0  0  0  0  0  0  0  0  0
  145.4893  135.0703  152.7470 C   0  0  0  0  0  0  0  0  0  0  0  0
  144.7040  136.0010  152.1433 N   0  0  0  0  0  0  0  0  0  0  0  0
  144.8890  137.2985  152.4052 C   0  0  0  0  0  0  0  0  0  0  0  0
  145.7812  137.8674  153.2197 N   0  0  0  0  0  0  0  0  0  0  0  0
  146.5692  136.9322  153.8249 C   0  0  0  0  0  0  0  0  0  0  0  0
  146.4870  135.5233  153.6480 C   0  0  0  0  0  0  0  0  0  0  0  0
  147.4372  134.8852  154.4336 N   0  0  0  0  0  0  0  0  0  0  0  0
  148.0531  135.8643  155.0387 C   0  0  0  0  0  0  0  0  0  0  0  0
  147.6034  137.1279  154.7240 N   0  0  0  0  0  0  0  0  0  0  0  0
  148.1086  138.3880  155.2487 C   0  0  0  0  0  0  0  0  0  0  0  0
  149.3720  138.9042  154.5176 C   0  0  2  0  0  0  0  0  0  0  0  0
  149.1650  138.8017  153.1202 O   0  0  0  0  0  0  0  0  0  0  0  0
  150.6270  138.1134  154.8933 C   0  0  0  0  0  0  0  0  0  0  0  0
  151.4133  139.0852  155.7645 C   0  0  0  0  0  0  0  0  0  0  0  0
  151.1347  140.3345  155.1585 O   0  0  0  0  0  0  0  0  0  0  0  0
  149.7437  140.3586  154.8729 C   0  0  0  0  0  0  0  0  0  0  0  0
  146.6810  133.7282  150.9220 H   0  0  0  0  0  0  0  0  0  0  0  0
  147.5977  131.8868  152.6430 H   0  0  0  0  0  0  0  0  0  0  0  0
  142.7608  133.5431  150.0855 H   0  0  0  0  0  0  0  0  0  0  0  0
  145.0925  133.5177  149.0774 H   0  0  0  0  0  0  0  0  0  0  0  0
  144.4364  134.7397  150.1506 H   0  0  0  0  0  0  0  0  0  0  0  0
  144.9148  131.2960  151.3353 H   0  0  0  0  0  0  0  0  0  0  0  0
  146.4990  131.3522  150.5507 H   0  0  0  0  0  0  0  0  0  0  0  0
  145.0239  132.4546  154.0892 H   0  0  0  0  0  0  0  0  0  0  0  0
  146.5521  133.3184  154.1875 H   0  0  0  0  0  0  0  0  0  0  0  0
  144.2269  137.9783  151.8895 H   0  0  0  0  0  0  0  0  0  0  0  0
  148.8623  135.6913  155.7333 H   0  0  0  0  0  0  0  0  0  0  0  0
  147.3115  139.1299  155.1842 H   0  0  0  0  0  0  0  0  0  0  0  0
  148.3144  138.2556  156.3119 H   0  0  0  0  0  0  0  0  0  0  0  0
  148.9453  137.9053  152.9164 H   0  0  0  0  0  0  0  0  0  0  0  0
  150.4140  137.1739  155.4049 H   0  0  0  0  0  0  0  0  0  0  0  0
  151.2200  137.8757  154.0083 H   0  0  0  0  0  0  0  0  0  0  0  0
  151.0441  139.0806  156.7915 H   0  0  0  0  0  0  0  0  0  0  0  0
  152.4822  138.8716  155.7782 H   0  0  0  0  0  0  0  0  0  0  0  0
  149.5111  141.0754  154.0845 H   0  0  0  0  0  0  0  0  0  0  0  0
  149.2320  140.6878  155.7772 H   0  0  0  0  0  0  0  0  0  0  0  0
  1  2  1  0  0  0  0
  1 27  1  0  0  0  0
  2  3  1  0  0  0  0
  2 28  1  0  0  0  0
  2 29  1  0  0  0  0
  3 25  1  0  0  0  0
  3  8  1  0  0  0  0
  3  4  1  0  0  0  0
  4  5  1  0  0  0  0
  4 30  1  0  0  0  0
  4 31  1  0  0  0  0
  5 26  1  0  0  0  0
  5  6  1  0  0  0  0
  5  7  1  0  0  0  0
  7  8  1  0  0  0  0
  7 32  1  0  0  0  0
  7 33  1  0  0  0  0
  8  9  1  0  0  0  0
  9 14  1  0  0  0  0
  9 10  2  0  0  0  0
 10 11  1  0  0  0  0
 11 12  2  0  0  0  0
 11 34  1  0  0  0  0
 12 13  1  0  0  0  0
 13 17  1  0  0  0  0
 13 14  2  0  0  0  0
 14 15  1  0  0  0  0
 15 16  2  0  0  0  0
 16 17  1  0  0  0  0
 16 35  1  0  0  0  0
 17 18  1  0  0  0  0
 18 19  1  0  0  0  0
 18 36  1  0  0  0  0
 18 37  1  0  0  0  0
 19 24  1  0  0  0  0
 19 20  1  0  0  0  0
 19 21  1  0  0  0  0
 20 38  1  0  0  0  0
 21 22  1  0  0  0  0
 21 39  1  0  0  0  0
 21 40  1  0  0  0  0
 22 23  1  0  0  0  0
 22 41  1  0  0  0  0
 22 42  1  0  0  0  0
 23 24  1  0  0  0  0
 24 43  1  0  0  0  0
 24 44  1  0  0  0  0
M  END
> <s_m_source_file>
AV-unprocessed.smi

> <i_m_source_file_index>
255

> <i_lp_mmshare_version>
43012

> <i_f3d_flags>
0

> <s_epik_input>
W09IXVtDSDJdW0NAQEhdMVtDSDJdW0NASF0oRilbQ0gyXU4xYyhuW2NIXW4yKWMoYzIzKW5bY0hdbjNbQ0gyXVtDQEBdNChbT0hdKVtDSDJdW0NIMl1PW0NIMl00

> <s_epik_cmdline>
J2VwaWtfcHl0aG9uJywgJy1waCcsICc3LjAnLCAnLXRuJywgJzgnLCAnLW1hJywgJzIwMCcsICctbWV0YWxfYmluZGluZycsICctaW1hZScsICc8aW5maWxlLm1hZT4nLCAnLW9tYWUnLCAnPG91dGZpbGUubWFlPic=

> <r_lp_tautomer_probability>
1

> <r_epik_Ionization_Penalty>
0.0058098

> <r_epik_Ionization_Penalty_Charging>
0

> <r_epik_Ionization_Penalty_Neutral>
0.0058098

> <r_epik_State_Penalty>
0.00411166

> <r_epik_Charging_Adjusted_Penalty>
0.00411166

> <i_epik_Tot_Q>
0

> <i_epik_Tot_abs_Q>
0

> <r_epik_Metal_State_Penalty>
-0

> <b_epik_Metal_Only>
0

> <s_lp_Force_Field>
OPLS_2005

> <r_lp_Energy>
52.96

> <b_lp_Chiralities_Consistent>
1

> <s_lp_Variant>
AV-unprocessed.smi:255-5

> <Gold.Version>
5.8.1

> <Gold.Id.Protein>
6NUR|6NUR_protein|mol2

> <Gold.PLP.Fitness>
43.1328

> <Gold.PLP.PLP>
-30.2076

> <Gold.PLP.part.hbond>
-3.2622

> <Gold.PLP.part.metal>
0.0000

> <Gold.PLP.part.buried>
-3.5267

> <Gold.PLP.part.nonpolar>
-22.4956

> <Gold.PLP.part.repulsive>
0.5572

> <Gold.PLP.ligand.clash>
0.0462

> <Gold.PLP.ligand.torsion>
0.8695

> <Gold.PLP.Chemscore.Hbond>
3.0000

> <Gold.PLP.Chemscore.CHOScore>
1.8738

> <Gold.PLP.Chemscore.Metal>
0.0000

> <Gold.Chemscore.Hbonds>
donor molecule, donor type, donor heavy atom, donor atom, acceptor molecule, acceptor atom, score
      L1  H     1    27       P1 10186  0.99
      L1  H    20    38       P1  7948  1.00
      P1  H  7989  7998       L1    23  0.75
      L1  C    11    34       P1 10171  1.00
      L1  C    11    34       P1 10175  0.87

> <Gold.PLP.Chemscore.Internal.Correction>
0.0892

> <Gold.Rescore>
     Score         DG    S(hbond)    S(metal)    S(lipo)     H(rot)  DE(clash)    DE(int)     intcor
     10.00     -12.61       2.57        0.00      60.50       3.33       0.01       2.60       ----

> <Gold.Chemscore.Fitness>
9.9998

> <Gold.Chemscore.DG>
-12.6112

> <Gold.Chemscore.ZeroCoef>
-5.4800

> <Gold.Chemscore.Hbond>
2.5661

> <Gold.Chemscore.Metal>
0.0000

> <Gold.Chemscore.Lipo>
60.4984

> <Gold.Chemscore.Internal_Hbond>
0.0000

> <Gold.Chemscore.DEClash>
0.0075

> <Gold.Chemscore.DEInternal>
2.6040

> <Gold.Chemscore.Rot>
3.3273

> <Gold.Chemscore.Internal.Correction>
   9.000000E+99

> <Gold.Chemscore.Hbonds>
donor molecule, donor type, donor heavy atom, donor atom, acceptor molecule, acceptor atom, score
      L1  H     1    27       P1 10186  0.92
      L1  H    20    38       P1  7948  0.97
      P1  H  7989  7998       L1    23  0.09

> <Gold.Chemscore.Hbond.Weighted>
-8.5709

> <Gold.Chemscore.Metal.Weighted>
-0.0000

> <Gold.Chemscore.Lipo.Weighted>
-7.0783

> <Gold.Chemscore.Internal_Hbond.Weighted>
0.0000

> <Gold.Chemscore.DEClash.Weighted>
0.0075

> <Gold.Chemscore.DEInternal.Weighted>
2.6040

> <Gold.Chemscore.Rot.Weighted>
8.5179

> <Gold.Chemscore.Internal.Correction.Weighted>
   9.000000E+99

> <Gold.Protein.RotatedTorsions>
[ 6907 6896 6895 6894 ] final   96.68 input  -60.11 | X-H torsion
[ 7974 7965 7964 7962 ] final -142.60 input  175.53 | X-H torsion
[ 8008 7997 7996 7995 ] final -155.45 input   59.86 | X-H torsion
[ 10167 10162 10161 10158 ] final  -67.39 input  -65.29 | X-H torsion
[ 10718 10713 10712 10709 ] final  -89.99 input   66.30 | X-H torsion
[ 10763 10752 10751 10750 ] final  149.30 input  -60.55 | X-H torsion
[ 11005 11000 10999 10996 ] final  -98.96 input  -57.11 | X-H torsion

> <Gold.Protein.ActiveResidues>
 VAL166  LYS551  ARG553  GLY616  TRP617  ASP618  TYR619  PRO620  LYS621  CYS622 
 ASP623  PHE694  ASN695  SER759  ASP760  ASP761  ALA762  ILE779  LEU786  VAL792 
 PHE793  MET794  SER795  GLU796  ALA797  LYS798  CYS799  TRP800  GLU811  SER814 

> <Gold.Protein.RotatedAtoms>
  152.5432  134.0850  159.8251 H   0  0  0  0  0  0  0  0  0  0  0  0  # atno 6907 bound_to 6896
  151.0947  133.5282  159.2620 H   0  0  0  0  0  0  0  0  0  0  0  0  # atno 6908 bound_to 6896
  151.2060  135.0471  159.8946 H   0  0  0  0  0  0  0  0  0  0  0  0  # atno 6909 bound_to 6896
  144.8431  140.5938  143.5439 H   0  0  0  0  0  0  0  0  0  0  0  0  # atno 7974 bound_to 7965
  155.7020  140.0768  157.2406 H   0  0  0  0  0  0  0  0  0  0  0  0  # atno 8008 bound_to 7997
  154.4071  140.1645  156.2254 H   0  0  0  0  0  0  0  0  0  0  0  0  # atno 8009 bound_to 7997
  155.9359  140.3388  155.6290 H   0  0  0  0  0  0  0  0  0  0  0  0  # atno 8010 bound_to 7997
  140.5586  143.2312  151.6771 H   0  0  0  0  0  0  0  0  0  0  0  0  # atno 10167 bound_to 10162
  155.9986  130.4893  150.5255 H   0  0  0  0  0  0  0  0  0  0  0  0  # atno 10718 bound_to 10713
  154.0688  135.2868  155.3312 H   0  0  0  0  0  0  0  0  0  0  0  0  # atno 10763 bound_to 10752
  154.6760  135.5281  153.8203 H   0  0  0  0  0  0  0  0  0  0  0  0  # atno 10764 bound_to 10752
  153.0493  135.6569  154.0871 H   0  0  0  0  0  0  0  0  0  0  0  0  # atno 10765 bound_to 10752
  141.1326  133.8285  157.0909 H   0  0  0  0  0  0  0  0  0  0  0  0  # atno 11005 bound_to 11000
  145.4652  139.1509  143.3844 LP  0  0  0  0  0  0  0  0  0  0  0  0  # atno 17320 bound_to 7965
  146.2720  140.4784  142.8810 LP  0  0  0  0  0  0  0  0  0  0  0  0  # atno 17321 bound_to 7965
  139.5060  144.3699  152.0480 LP  0  0  0  0  0  0  0  0  0  0  0  0  # atno 17342 bound_to 10162
  140.2823  144.3846  150.6115 LP  0  0  0  0  0  0  0  0  0  0  0  0  # atno 17343 bound_to 10162
  157.3211  131.0682  151.1931 LP  0  0  0  0  0  0  0  0  0  0  0  0  # atno 17370 bound_to 10713
  157.2844  130.6765  149.6082 LP  0  0  0  0  0  0  0  0  0  0  0  0  # atno 17371 bound_to 10713
  140.0393  134.9862  157.0931 LP  0  0  0  0  0  0  0  0  0  0  0  0  # atno 17394 bound_to 11000
  140.4161  134.1930  155.7163 LP  0  0  0  0  0  0  0  0  0  0  0  0  # atno 17395 bound_to 11000

$$$$
