AV-unprocessed.smi:3250|AV-procd|sdf|12426|dock7
  -GOLD-   2272018313D 1   1.00000     0.00000
 Structure written by MMmdl.
 39 40  0  0  0  0  0  0  0  0  2 V2000
  146.4960  142.0774  155.9079 C   0  0  0  0  0  0  0  0  0  0  0  0
  147.8582  141.6489  156.4716 C   0  0  0  0  0  0  0  0  0  0  0  0
  148.9842  142.0003  155.5657 N   0  3  2  0  0  0  0  0  0  0  0  0
  148.8730  141.3895  154.2186 C   0  0  0  0  0  0  0  0  0  0  0  0
  149.2916  139.9087  154.2436 C   0  0  0  0  0  0  0  0  0  0  0  0
  150.6143  139.8017  154.7543 O   0  0  0  0  0  0  0  0  0  0  0  0
  150.7226  140.2686  156.0958 C   0  0  1  0  0  0  0  0  0  0  0  0
  152.1679  140.0480  156.5623 C   0  0  0  0  0  0  0  0  0  0  0  0
  152.2384  139.7904  157.9928 N   0  0  0  0  0  0  0  0  0  0  0  0
  152.5883  140.7403  158.9333 C   0  0  0  0  0  0  0  0  0  0  0  0
  153.1539  140.2667  160.0454 N   0  0  0  0  0  0  0  0  0  0  0  0
  153.5092  141.1701  160.9848 C   0  0  0  0  0  0  0  0  0  0  0  0
  153.2946  142.5512  160.8056 C   0  0  0  0  0  0  0  0  0  0  0  0
  152.6897  142.9417  159.5939 C   0  0  0  0  0  0  0  0  0  0  0  0
  152.4518  144.2793  159.3550 O   0  0  0  0  0  0  0  0  0  0  0  0
  151.8223  144.6402  158.1309 C   0  0  0  0  0  0  0  0  0  0  0  0
  152.3372  142.0252  158.6577 N   0  0  0  0  0  0  0  0  0  0  0  0
  150.3383  141.7646  156.1306 C   0  0  0  0  0  0  0  0  0  0  0  0
  145.6885  141.7178  156.5460 H   0  0  0  0  0  0  0  0  0  0  0  0
  146.3349  141.6672  154.9105 H   0  0  0  0  0  0  0  0  0  0  0  0
  146.3993  143.1611  155.8470 H   0  0  0  0  0  0  0  0  0  0  0  0
  148.0085  142.0704  157.4654 H   0  0  0  0  0  0  0  0  0  0  0  0
  147.8334  140.5663  156.6013 H   0  0  0  0  0  0  0  0  0  0  0  0
  147.8625  141.5017  153.8242 H   0  0  0  0  0  0  0  0  0  0  0  0
  149.5283  141.9362  153.5395 H   0  0  0  0  0  0  0  0  0  0  0  0
  148.6037  139.3100  154.8424 H   0  0  0  0  0  0  0  0  0  0  0  0
  149.2713  139.4982  153.2339 H   0  0  0  0  0  0  0  0  0  0  0  0
  150.0541  139.6964  156.7408 H   0  0  0  0  0  0  0  0  0  0  0  0
  152.6206  139.2187  156.0174 H   0  0  0  0  0  0  0  0  0  0  0  0
  152.7623  140.9365  156.3466 H   0  0  0  0  0  0  0  0  0  0  0  0
  152.0866  138.8481  158.3220 H   0  0  0  0  0  0  0  0  0  0  0  0
  153.9677  140.7890  161.8853 H   0  0  0  0  0  0  0  0  0  0  0  0
  153.5792  143.2721  161.5576 H   0  0  0  0  0  0  0  0  0  0  0  0
  151.7068  145.7231  158.0901 H   0  0  0  0  0  0  0  0  0  0  0  0
  150.8286  144.1981  158.0480 H   0  0  0  0  0  0  0  0  0  0  0  0
  152.4210  144.3387  157.2701 H   0  0  0  0  0  0  0  0  0  0  0  0
  151.0530  142.3331  155.5338 H   0  0  0  0  0  0  0  0  0  0  0  0
  150.4137  142.1584  157.1433 H   0  0  0  0  0  0  0  0  0  0  0  0
  148.9021  142.9969  155.4222 H   0  0  0  0  0  0  0  0  0  0  0  0
  1  2  1  0  0  0  0
  1 19  1  0  0  0  0
  1 20  1  0  0  0  0
  1 21  1  0  0  0  0
  2  3  1  0  0  0  0
  2 22  1  0  0  0  0
  2 23  1  0  0  0  0
  3 18  1  0  0  0  0
  3  4  1  0  0  0  0
  3 39  1  0  0  0  0
  4  5  1  0  0  0  0
  4 24  1  0  0  0  0
  4 25  1  0  0  0  0
  5  6  1  0  0  0  0
  5 26  1  0  0  0  0
  5 27  1  0  0  0  0
  6  7  1  0  0  0  0
  7  8  1  0  0  0  0
  7 18  1  0  0  0  0
  7 28  1  0  0  0  0
  8  9  1  0  0  0  0
  8 29  1  0  0  0  0
  8 30  1  0  0  0  0
  9 10  1  0  0  0  0
  9 31  1  0  0  0  0
 10 17  1  0  0  0  0
 10 11  2  0  0  0  0
 11 12  1  0  0  0  0
 12 13  2  0  0  0  0
 12 32  1  0  0  0  0
 13 14  1  0  0  0  0
 13 33  1  0  0  0  0
 14 15  1  0  0  0  0
 14 17  2  0  0  0  0
 15 16  1  0  0  0  0
 16 34  1  0  0  0  0
 16 35  1  0  0  0  0
 16 36  1  0  0  0  0
 18 37  1  0  0  0  0
 18 38  1  0  0  0  0
M  CHG  1   3   1
M  END
> <s_m_source_file>
AV-unprocessed.smi

> <i_m_source_file_index>
3250

> <i_lp_mmshare_version>
43012

> <i_f3d_flags>
0

> <s_epik_input>
W0NIM11bQ0gyXU4xW0NIMl1bQ0gyXU9bQ0BIXShbQ0gyXTEpW0NIMl1bTkhdYzJuW2NIXVtjSF1jKG4yKU9bQ0gzXQ==

> <s_epik_cmdline>
J2VwaWtfcHl0aG9uJywgJy1waCcsICc3LjAnLCAnLXRuJywgJzgnLCAnLW1hJywgJzIwMCcsICctbWV0YWxfYmluZGluZycsICctaW1hZScsICc8aW5maWxlLm1hZT4nLCAnLW9tYWUnLCAnPG91dGZpbGUubWFlPic=

> <r_lp_tautomer_probability>
1

> <r_epik_Ionization_Penalty>
0.19684

> <r_epik_Ionization_Penalty_Charging>
0.178504

> <r_epik_Ionization_Penalty_Neutral>
0.0183356

> <r_epik_State_Penalty>
0.162939

> <r_epik_Charging_Adjusted_Penalty>
0.341443

> <i_epik_Tot_Q>
1

> <i_epik_Tot_abs_Q>
1

> <r_epik_Metal_State_Penalty>
0.1608

> <b_epik_Metal_Only>
0

> <s_lp_Force_Field>
OPLS_2005

> <r_lp_Energy>
11.5983

> <b_lp_Chiralities_Consistent>
1

> <s_lp_Variant>
AV-unprocessed.smi:3250-2

> <Gold.Version>
5.8.1

> <Gold.Id.Protein>
6NUR|6NUR_protein|mol2

> <Gold.PLP.Fitness>
43.2386

> <Gold.PLP.PLP>
-35.6404

> <Gold.PLP.part.hbond>
-2.0000

> <Gold.PLP.part.metal>
0.0000

> <Gold.PLP.part.buried>
-3.3897

> <Gold.PLP.part.nonpolar>
-29.9373

> <Gold.PLP.part.repulsive>
0.2895

> <Gold.PLP.ligand.clash>
0.0000

> <Gold.PLP.ligand.torsion>
0.7145

> <Gold.PLP.Chemscore.Hbond>
3.0000

> <Gold.PLP.Chemscore.CHOScore>
0.0000

> <Gold.PLP.Chemscore.Metal>
0.0000

> <Gold.Chemscore.Hbonds>
donor molecule, donor type, donor heavy atom, donor atom, acceptor molecule, acceptor atom, score
      L1  H     3    39       P1  8028  2.00
      P1  H  7989  7998       L1     6  1.00

> <Gold.PLP.Chemscore.Internal.Correction>
0.0272

> <Gold.Rescore>
     Score         DG    S(hbond)    S(metal)    S(lipo)     H(rot)  DE(clash)    DE(int)     intcor
     14.51     -15.42       1.72        0.00      73.21       1.71       0.15       0.76       ----

> <Gold.Chemscore.Fitness>
14.5138

> <Gold.Chemscore.DG>
-15.4158

> <Gold.Chemscore.ZeroCoef>
-5.4800

> <Gold.Chemscore.Hbond>
1.7232

> <Gold.Chemscore.Metal>
0.0000

> <Gold.Chemscore.Lipo>
73.2055

> <Gold.Chemscore.Internal_Hbond>
0.0000

> <Gold.Chemscore.DEClash>
0.1461

> <Gold.Chemscore.DEInternal>
0.7559

> <Gold.Chemscore.Rot>
1.7127

> <Gold.Chemscore.Internal.Correction>
   9.000000E+99

> <Gold.Chemscore.Hbonds>
donor molecule, donor type, donor heavy atom, donor atom, acceptor molecule, acceptor atom, score
      L1  H     3    39       P1  8028  1.00
      P1  H  7989  7998       L1     6  0.29

> <Gold.Chemscore.Hbond.Weighted>
-5.7553

> <Gold.Chemscore.Metal.Weighted>
-0.0000

> <Gold.Chemscore.Lipo.Weighted>
-8.5650

> <Gold.Chemscore.Internal_Hbond.Weighted>
0.0000

> <Gold.Chemscore.DEClash.Weighted>
0.1461

> <Gold.Chemscore.DEInternal.Weighted>
0.7559

> <Gold.Chemscore.Rot.Weighted>
4.3846

> <Gold.Chemscore.Internal.Correction.Weighted>
   9.000000E+99

> <Gold.Protein.RotatedTorsions>
[ 6907 6896 6895 6894 ] final  146.86 input  -60.11 | X-H torsion
[ 7974 7965 7964 7962 ] final  -55.13 input  175.53 | X-H torsion
[ 8008 7997 7996 7995 ] final   -2.90 input   59.86 | X-H torsion
[ 10167 10162 10161 10158 ] final  118.17 input  -65.29 | X-H torsion
[ 10718 10713 10712 10709 ] final  -77.42 input   66.30 | X-H torsion
[ 10763 10752 10751 10750 ] final  114.11 input  -60.55 | X-H torsion
[ 11005 11000 10999 10996 ] final   37.70 input  -57.11 | X-H torsion

> <Gold.Protein.ActiveResidues>
 VAL166  LYS551  ARG553  GLY616  TRP617  ASP618  TYR619  PRO620  LYS621  CYS622 
 ASP623  PHE694  ASN695  SER759  ASP760  ASP761  ALA762  ILE779  LEU786  VAL792 
 PHE793  MET794  SER795  GLU796  ALA797  LYS798  CYS799  TRP800  GLU811  SER814 

> <Gold.Protein.RotatedAtoms>
  152.1624  133.4590  159.4867 H   0  0  0  0  0  0  0  0  0  0  0  0  # atno 6907 bound_to 6896
  150.6908  134.2055  159.4348 H   0  0  0  0  0  0  0  0  0  0  0  0  # atno 6908 bound_to 6896
  151.9958  134.9954  160.0614 H   0  0  0  0  0  0  0  0  0  0  0  0  # atno 6909 bound_to 6896
  145.8777  140.8168  142.9856 H   0  0  0  0  0  0  0  0  0  0  0  0  # atno 7974 bound_to 7965
  154.6307  140.2523  155.7437 H   0  0  0  0  0  0  0  0  0  0  0  0  # atno 8008 bound_to 7997
  156.2478  140.2907  156.0577 H   0  0  0  0  0  0  0  0  0  0  0  0  # atno 8009 bound_to 7997
  155.1749  140.0387  157.2861 H   0  0  0  0  0  0  0  0  0  0  0  0  # atno 8010 bound_to 7997
  139.6129  144.7086  151.2803 H   0  0  0  0  0  0  0  0  0  0  0  0  # atno 10167 bound_to 10162
  156.0145  130.4491  150.3343 H   0  0  0  0  0  0  0  0  0  0  0  0  # atno 10718 bound_to 10713
  153.5025  135.3635  155.2547 H   0  0  0  0  0  0  0  0  0  0  0  0  # atno 10763 bound_to 10752
  154.8747  135.4003  154.3462 H   0  0  0  0  0  0  0  0  0  0  0  0  # atno 10764 bound_to 10752
  153.4101  135.7077  153.6431 H   0  0  0  0  0  0  0  0  0  0  0  0  # atno 10765 bound_to 10752
  140.2200  134.3653  155.8009 H   0  0  0  0  0  0  0  0  0  0  0  0  # atno 11005 bound_to 11000
  144.6726  140.1335  143.7442 LP  0  0  0  0  0  0  0  0  0  0  0  0  # atno 17320 bound_to 7965
  145.9061  139.2459  143.1465 LP  0  0  0  0  0  0  0  0  0  0  0  0  # atno 17321 bound_to 7965
  140.7332  143.6803  150.8007 LP  0  0  0  0  0  0  0  0  0  0  0  0  # atno 17342 bound_to 10162
  140.0400  143.5355  152.2722 LP  0  0  0  0  0  0  0  0  0  0  0  0  # atno 17343 bound_to 10162
  157.1440  131.0304  151.2915 LP  0  0  0  0  0  0  0  0  0  0  0  0  # atno 17370 bound_to 10713
  157.4448  130.7564  149.7100 LP  0  0  0  0  0  0  0  0  0  0  0  0  # atno 17371 bound_to 10713
  141.2223  133.7188  156.8559 LP  0  0  0  0  0  0  0  0  0  0  0  0  # atno 17394 bound_to 11000
  140.1860  134.8999  157.3005 LP  0  0  0  0  0  0  0  0  0  0  0  0  # atno 17395 bound_to 11000

$$$$
