AV-unprocessed.smi:1127|AV-procd|sdf|4840|dock7
  -GOLD-   22720 3403D 1   1.00000     0.00000
 Structure written by MMmdl.
 42 43  0  0  0  0  0  0  0  0  1 V2000
  144.4195  139.3154  155.7162 C   0  0  0  0  0  0  0  0  0  0  0  0
  145.9134  140.1674  156.4107 S   0  0  2  0  0  0  0  0  0  0  0  0
  145.7680  141.6583  156.1003 O   0  0  0  0  0  0  0  0  0  0  0  0
  147.0569  139.5481  155.1264 C   0  0  0  0  0  0  0  0  0  0  0  0
  146.9602  138.3395  154.5643 N   0  0  0  0  0  0  0  0  0  0  0  0
  148.0127  138.2766  153.6710 N   0  0  0  0  0  0  0  0  0  0  0  0
  148.6284  139.4548  153.7889 C   0  0  0  0  0  0  0  0  0  0  0  0
  148.0814  140.2983  154.6786 N   0  0  0  0  0  0  0  0  0  0  0  0
  148.5088  141.6378  155.0416 C   0  0  0  0  0  0  0  0  0  0  0  0
  149.9283  141.6215  155.6074 C   0  0  0  0  0  0  0  0  0  0  0  0
  150.8011  140.9483  155.0605 O   0  0  0  0  0  0  0  0  0  0  0  0
  150.1372  142.3555  156.7111 N   0  0  0  0  0  0  0  0  0  0  0  0
  151.3984  142.4686  157.4402 C   0  0  0  0  0  0  0  0  0  0  0  0
  151.3061  141.6458  158.7459 C   0  0  0  0  0  0  0  0  0  0  0  0
  152.5809  141.5483  159.6058 C   0  0  0  0  0  0  0  0  0  0  0  0
  153.0802  142.8370  160.2905 C   0  0  0  0  0  0  0  0  0  0  0  0
  151.9893  143.7531  160.8820 C   0  0  0  0  0  0  0  0  0  0  0  0
  151.6352  144.9767  160.0120 C   0  0  0  0  0  0  0  0  0  0  0  0
  150.8842  144.6987  158.6948 C   0  0  0  0  0  0  0  0  0  0  0  0
  151.7187  143.9683  157.6213 C   0  0  0  0  0  0  0  0  0  0  0  0
  144.6916  138.3696  155.2471 H   0  0  0  0  0  0  0  0  0  0  0  0
  143.9378  139.9470  154.9698 H   0  0  0  0  0  0  0  0  0  0  0  0
  143.7019  139.1110  156.5105 H   0  0  0  0  0  0  0  0  0  0  0  0
  149.5047  139.7084  153.2104 H   0  0  0  0  0  0  0  0  0  0  0  0
  148.4761  142.2715  154.1543 H   0  0  0  0  0  0  0  0  0  0  0  0
  147.8057  142.0601  155.7608 H   0  0  0  0  0  0  0  0  0  0  0  0
  149.3563  142.8765  157.0825 H   0  0  0  0  0  0  0  0  0  0  0  0
  152.1888  142.0433  156.8190 H   0  0  0  0  0  0  0  0  0  0  0  0
  150.4726  141.9915  159.3538 H   0  0  0  0  0  0  0  0  0  0  0  0
  151.0360  140.6237  158.4780 H   0  0  0  0  0  0  0  0  0  0  0  0
  152.3807  140.8177  160.3903 H   0  0  0  0  0  0  0  0  0  0  0  0
  153.3898  141.1209  159.0126 H   0  0  0  0  0  0  0  0  0  0  0  0
  153.7405  142.5285  161.1020 H   0  0  0  0  0  0  0  0  0  0  0  0
  153.7297  143.4014  159.6234 H   0  0  0  0  0  0  0  0  0  0  0  0
  151.0961  143.1898  161.1523 H   0  0  0  0  0  0  0  0  0  0  0  0
  152.3692  144.1411  161.8277 H   0  0  0  0  0  0  0  0  0  0  0  0
  151.0116  145.6395  160.6130 H   0  0  0  0  0  0  0  0  0  0  0  0
  152.5404  145.5469  159.8007 H   0  0  0  0  0  0  0  0  0  0  0  0
  149.9429  144.1844  158.8871 H   0  0  0  0  0  0  0  0  0  0  0  0
  150.5947  145.6664  158.2836 H   0  0  0  0  0  0  0  0  0  0  0  0
  152.7823  144.1126  157.8007 H   0  0  0  0  0  0  0  0  0  0  0  0
  151.5520  144.4640  156.6634 H   0  0  0  0  0  0  0  0  0  0  0  0
  1  2  1  0  0  0  0
  1 21  1  0  0  0  0
  1 22  1  0  0  0  0
  1 23  1  0  0  0  0
  2  3  2  0  0  0  0
  2  4  1  0  0  0  0
  4  8  1  0  0  0  0
  4  5  2  0  0  0  0
  5  6  1  0  0  0  0
  6  7  2  0  0  0  0
  7  8  1  0  0  0  0
  7 24  1  0  0  0  0
  8  9  1  0  0  0  0
  9 10  1  0  0  0  0
  9 25  1  0  0  0  0
  9 26  1  0  0  0  0
 10 11  2  0  0  0  0
 10 12  1  0  0  0  0
 12 13  1  0  0  0  0
 12 27  1  0  0  0  0
 13 20  1  0  0  0  0
 13 14  1  0  0  0  0
 13 28  1  0  0  0  0
 14 15  1  0  0  0  0
 14 29  1  0  0  0  0
 14 30  1  0  0  0  0
 15 16  1  0  0  0  0
 15 31  1  0  0  0  0
 15 32  1  0  0  0  0
 16 17  1  0  0  0  0
 16 33  1  0  0  0  0
 16 34  1  0  0  0  0
 17 18  1  0  0  0  0
 17 35  1  0  0  0  0
 17 36  1  0  0  0  0
 18 19  1  0  0  0  0
 18 37  1  0  0  0  0
 18 38  1  0  0  0  0
 19 20  1  0  0  0  0
 19 39  1  0  0  0  0
 19 40  1  0  0  0  0
 20 41  1  0  0  0  0
 20 42  1  0  0  0  0
M  END
> <s_m_source_file>
AV-unprocessed.smi

> <i_m_source_file_index>
1127

> <i_lp_mmshare_version>
43012

> <i_f3d_flags>
0

> <s_epik_input>
W0NIM11bU0BdKD1PKWMxbm5bY0hdbjFbQ0gyXUMoPU8pW05IXVtDSF0yW0NIMl1bQ0gyXVtDSDJdW0NIMl1bQ0gyXVtDSDJdW0NIMl0y

> <s_epik_cmdline>
J2VwaWtfcHl0aG9uJywgJy1waCcsICc3LjAnLCAnLXRuJywgJzgnLCAnLW1hJywgJzIwMCcsICctbWV0YWxfYmluZGluZycsICctaW1hZScsICc8aW5maWxlLm1hZT4nLCAnLW9tYWUnLCAnPG91dGZpbGUubWFlPic=

> <r_lp_tautomer_probability>
1

> <r_epik_Ionization_Penalty>
7.34999e-08

> <r_epik_Ionization_Penalty_Charging>
0

> <r_epik_Ionization_Penalty_Neutral>
7.34999e-08

> <r_epik_State_Penalty>
-0

> <r_epik_Charging_Adjusted_Penalty>
0

> <i_epik_Tot_Q>
0

> <i_epik_Tot_abs_Q>
0

> <r_epik_Metal_State_Penalty>
-0

> <b_epik_Metal_Only>
0

> <s_lp_Force_Field>
OPLS_2005

> <r_lp_Energy>
17.7529

> <b_lp_Chiralities_Consistent>
1

> <s_lp_Variant>
AV-unprocessed.smi:1127-1

> <Gold.Version>
5.8.1

> <Gold.Id.Protein>
6NUR|6NUR_protein|mol2

> <Gold.PLP.Fitness>
41.8209

> <Gold.PLP.PLP>
-36.2089

> <Gold.PLP.part.hbond>
-2.0000

> <Gold.PLP.part.metal>
0.0000

> <Gold.PLP.part.buried>
-4.8263

> <Gold.PLP.part.nonpolar>
-29.8954

> <Gold.PLP.part.repulsive>
0.4264

> <Gold.PLP.ligand.clash>
0.0000

> <Gold.PLP.ligand.torsion>
0.8329

> <Gold.PLP.Chemscore.Hbond>
1.0980

> <Gold.PLP.Chemscore.CHOScore>
0.9814

> <Gold.PLP.Chemscore.Metal>
0.0000

> <Gold.Chemscore.Hbonds>
donor molecule, donor type, donor heavy atom, donor atom, acceptor molecule, acceptor atom, score
      L1  H    12    27       P1  8028  0.03
      P1  H  7989  7998       L1    11  0.75
      L1  C     7    24       P1  7957  0.95

> <Gold.PLP.Chemscore.Internal.Correction>
1.0397

> <Gold.Rescore>
     Score         DG    S(hbond)    S(metal)    S(lipo)     H(rot)  DE(clash)    DE(int)     intcor
     14.71     -17.07       1.38        0.00      96.89       1.70       0.34       2.01       ----

> <Gold.Chemscore.Fitness>
14.7141

> <Gold.Chemscore.DG>
-17.0664

> <Gold.Chemscore.ZeroCoef>
-5.4800

> <Gold.Chemscore.Hbond>
1.3812

> <Gold.Chemscore.Metal>
0.0000

> <Gold.Chemscore.Lipo>
96.8926

> <Gold.Chemscore.Internal_Hbond>
0.0000

> <Gold.Chemscore.DEClash>
0.3390

> <Gold.Chemscore.DEInternal>
2.0133

> <Gold.Chemscore.Rot>
1.7044

> <Gold.Chemscore.Internal.Correction>
   9.000000E+99

> <Gold.Chemscore.Hbonds>
donor molecule, donor type, donor heavy atom, donor atom, acceptor molecule, acceptor atom, score
      L1  H    12    27       P1  8028  0.04
      P1  H  7989  7998       L1    11  0.74

> <Gold.Chemscore.Hbond.Weighted>
-4.6131

> <Gold.Chemscore.Metal.Weighted>
-0.0000

> <Gold.Chemscore.Lipo.Weighted>
-11.3364

> <Gold.Chemscore.Internal_Hbond.Weighted>
0.0000

> <Gold.Chemscore.DEClash.Weighted>
0.3390

> <Gold.Chemscore.DEInternal.Weighted>
2.0133

> <Gold.Chemscore.Rot.Weighted>
4.3631

> <Gold.Chemscore.Internal.Correction.Weighted>
   9.000000E+99

> <Gold.Protein.RotatedTorsions>
[ 6907 6896 6895 6894 ] final  145.49 input  -60.11 | X-H torsion
[ 7974 7965 7964 7962 ] final  -95.62 input  175.53 | X-H torsion
[ 8008 7997 7996 7995 ] final   97.18 input   59.86 | X-H torsion
[ 10167 10162 10161 10158 ] final  159.93 input  -65.29 | X-H torsion
[ 10718 10713 10712 10709 ] final  -21.79 input   66.30 | X-H torsion
[ 10763 10752 10751 10750 ] final  -89.25 input  -60.55 | X-H torsion
[ 11005 11000 10999 10996 ] final  -69.68 input  -57.11 | X-H torsion

> <Gold.Protein.ActiveResidues>
 VAL166  LYS551  ARG553  GLY616  TRP617  ASP618  TYR619  PRO620  LYS621  CYS622 
 ASP623  PHE694  ASN695  SER759  ASP760  ASP761  ALA762  ILE779  LEU786  VAL792 
 PHE793  MET794  SER795  GLU796  ALA797  LYS798  CYS799  TRP800  GLU811  SER814 

> <Gold.Protein.RotatedAtoms>
  152.1802  133.4702  159.4953 H   0  0  0  0  0  0  0  0  0  0  0  0  # atno 6907 bound_to 6896
  150.6933  134.1843  159.4270 H   0  0  0  0  0  0  0  0  0  0  0  0  # atno 6908 bound_to 6896
  151.9754  135.0055  160.0605 H   0  0  0  0  0  0  0  0  0  0  0  0  # atno 6909 bound_to 6896
  145.3577  140.9487  143.2518 H   0  0  0  0  0  0  0  0  0  0  0  0  # atno 7974 bound_to 7965
  156.0874  140.3262  155.7772 H   0  0  0  0  0  0  0  0  0  0  0  0  # atno 8008 bound_to 7997
  155.5053  140.0572  157.2950 H   0  0  0  0  0  0  0  0  0  0  0  0  # atno 8009 bound_to 7997
  154.4617  140.1970  156.0242 H   0  0  0  0  0  0  0  0  0  0  0  0  # atno 8010 bound_to 7997
  139.4836  144.4683  151.8611 H   0  0  0  0  0  0  0  0  0  0  0  0  # atno 10167 bound_to 10162
  156.5133  130.4615  149.6636 H   0  0  0  0  0  0  0  0  0  0  0  0  # atno 10718 bound_to 10713
  154.6532  135.5348  153.7927 H   0  0  0  0  0  0  0  0  0  0  0  0  # atno 10763 bound_to 10752
  153.0398  135.6487  154.0985 H   0  0  0  0  0  0  0  0  0  0  0  0  # atno 10764 bound_to 10752
  154.0900  135.2940  155.3253 H   0  0  0  0  0  0  0  0  0  0  0  0  # atno 10765 bound_to 10752
  141.1559  133.6770  156.6637 H   0  0  0  0  0  0  0  0  0  0  0  0  # atno 11005 bound_to 11000
  144.8670  139.5094  143.6786 LP  0  0  0  0  0  0  0  0  0  0  0  0  # atno 17320 bound_to 7965
  146.2941  139.7225  142.9140 LP  0  0  0  0  0  0  0  0  0  0  0  0  # atno 17321 bound_to 7965
  140.4150  144.2319  150.5888 LP  0  0  0  0  0  0  0  0  0  0  0  0  # atno 17342 bound_to 10162
  140.4929  143.2341  151.8792 LP  0  0  0  0  0  0  0  0  0  0  0  0  # atno 17343 bound_to 10162
  156.3219  130.7285  151.2199 LP  0  0  0  0  0  0  0  0  0  0  0  0  # atno 17370 bound_to 10713
  157.7447  131.0453  150.4837 LP  0  0  0  0  0  0  0  0  0  0  0  0  # atno 17371 bound_to 10713
  140.3228  134.7994  157.4265 LP  0  0  0  0  0  0  0  0  0  0  0  0  # atno 17394 bound_to 11000
  140.1082  134.5380  155.8290 LP  0  0  0  0  0  0  0  0  0  0  0  0  # atno 17395 bound_to 11000

$$$$
