AV-unprocessed.smi:2829|AV-procd|sdf|10905|dock7
  -GOLD-   2272015353D 1   1.00000     0.00000
 Structure written by MMmdl.
 50 53  0  0  0  0  0  0  0  0  1 V2000
  146.5285  132.9760  150.4756 C   0  0  0  0  0  0  0  0  0  0  0  0
  145.0303  132.8716  150.8284 C   0  0  0  0  0  0  0  0  0  0  0  0
  144.2243  132.4642  149.5776 C   0  0  0  0  0  0  0  0  0  0  0  0
  144.8758  131.7393  151.8688 C   0  0  0  0  0  0  0  0  0  0  0  0
  144.5242  134.2270  151.3545 C   0  0  0  0  0  0  0  0  0  0  0  0
  145.3376  135.3803  151.4294 C   0  0  0  0  0  0  0  0  0  0  0  0
  144.7585  136.5578  151.9313 C   0  0  0  0  0  0  0  0  0  0  0  0
  143.4069  136.5256  152.3285 C   0  0  0  0  0  0  0  0  0  0  0  0
  142.8898  137.7511  152.8227 N   0  0  0  0  0  0  0  0  0  0  0  0
  141.7654  137.9552  153.5376 C   0  0  0  0  0  0  0  0  0  0  0  0
  140.9982  137.0690  153.9082 O   0  0  0  0  0  0  0  0  0  0  0  0
  141.5287  139.2476  153.8235 N   0  0  0  0  0  0  0  0  0  0  0  0
  140.3962  139.7971  154.5808 C   0  0  1  0  0  0  0  0  0  0  0  0
  140.5467  141.2778  154.9541 C   0  0  1  0  0  0  0  0  0  0  0  0
  141.6863  142.2101  155.1507 C   0  0  0  0  0  0  0  0  0  0  0  0
  141.0312  143.4506  154.4912 C   0  0  0  0  0  0  0  0  0  0  0  0
  139.8104  142.9714  153.8721 O   0  0  0  0  0  0  0  0  0  0  0  0
  140.0804  141.6194  153.5483 C   0  0  2  0  0  0  0  0  0  0  0  0
  139.2402  140.3356  153.6770 C   0  0  0  0  0  0  0  0  0  0  0  0
  138.7513  139.5813  152.4340 C   0  0  0  0  0  0  0  0  0  0  0  0
  137.3515  140.1438  152.7030 C   0  0  0  0  0  0  0  0  0  0  0  0
  137.7794  140.3971  154.1520 C   0  0  0  0  0  0  0  0  0  0  0  0
  142.6836  135.3827  152.2275 N   0  0  0  0  0  0  0  0  0  0  0  0
  143.2288  134.2590  151.7522 N   0  0  0  0  0  0  0  0  0  0  0  0
  146.9206  132.0227  150.1196 H   0  0  0  0  0  0  0  0  0  0  0  0
  147.1193  133.2710  151.3435 H   0  0  0  0  0  0  0  0  0  0  0  0
  146.7100  133.7103  149.6900 H   0  0  0  0  0  0  0  0  0  0  0  0
  144.3381  133.1870  148.7691 H   0  0  0  0  0  0  0  0  0  0  0  0
  143.1598  132.3861  149.8011 H   0  0  0  0  0  0  0  0  0  0  0  0
  144.5508  131.4978  149.1918 H   0  0  0  0  0  0  0  0  0  0  0  0
  145.2392  130.7891  151.4753 H   0  0  0  0  0  0  0  0  0  0  0  0
  143.8326  131.5890  152.1496 H   0  0  0  0  0  0  0  0  0  0  0  0
  145.4439  131.9453  152.7768 H   0  0  0  0  0  0  0  0  0  0  0  0
  146.3713  135.3885  151.1206 H   0  0  0  0  0  0  0  0  0  0  0  0
  145.3423  137.4637  152.0076 H   0  0  0  0  0  0  0  0  0  0  0  0
  143.4256  138.5745  152.5914 H   0  0  0  0  0  0  0  0  0  0  0  0
  142.1949  139.9202  153.4717 H   0  0  0  0  0  0  0  0  0  0  0  0
  140.0463  139.1616  155.3957 H   0  0  0  0  0  0  0  0  0  0  0  0
  139.7773  141.5014  155.7024 H   0  0  0  0  0  0  0  0  0  0  0  0
  141.9307  142.3684  156.2013 H   0  0  0  0  0  0  0  0  0  0  0  0
  142.5812  141.8901  154.6158 H   0  0  0  0  0  0  0  0  0  0  0  0
  140.7919  144.2232  155.2224 H   0  0  0  0  0  0  0  0  0  0  0  0
  141.6923  143.8859  153.7410 H   0  0  0  0  0  0  0  0  0  0  0  0
  140.8615  141.5391  152.7864 H   0  0  0  0  0  0  0  0  0  0  0  0
  139.2001  139.9065  151.4950 H   0  0  0  0  0  0  0  0  0  0  0  0
  138.8000  138.4978  152.5523 H   0  0  0  0  0  0  0  0  0  0  0  0
  137.1563  141.0669  152.1549 H   0  0  0  0  0  0  0  0  0  0  0  0
  136.5406  139.4242  152.5861 H   0  0  0  0  0  0  0  0  0  0  0  0
  137.5177  139.5742  154.8187 H   0  0  0  0  0  0  0  0  0  0  0  0
  137.4663  141.3603  154.5559 H   0  0  0  0  0  0  0  0  0  0  0  0
  1  2  1  0  0  0  0
  1 25  1  0  0  0  0
  1 26  1  0  0  0  0
  1 27  1  0  0  0  0
  2  3  1  0  0  0  0
  2  4  1  0  0  0  0
  2  5  1  0  0  0  0
  3 28  1  0  0  0  0
  3 29  1  0  0  0  0
  3 30  1  0  0  0  0
  4 31  1  0  0  0  0
  4 32  1  0  0  0  0
  4 33  1  0  0  0  0
  5 24  1  0  0  0  0
  5  6  2  0  0  0  0
  6  7  1  0  0  0  0
  6 34  1  0  0  0  0
  7  8  2  0  0  0  0
  7 35  1  0  0  0  0
  8  9  1  0  0  0  0
  8 23  1  0  0  0  0
  9 10  1  0  0  0  0
  9 36  1  0  0  0  0
 10 11  2  0  0  0  0
 10 12  1  0  0  0  0
 12 13  1  0  0  0  0
 12 37  1  0  0  0  0
 13 19  1  0  0  0  0
 13 14  1  0  0  0  0
 13 38  1  0  0  0  0
 14 18  1  0  0  0  0
 14 15  1  0  0  0  0
 14 39  1  0  0  0  0
 15 16  1  0  0  0  0
 15 40  1  0  0  0  0
 15 41  1  0  0  0  0
 16 17  1  0  0  0  0
 16 42  1  0  0  0  0
 16 43  1  0  0  0  0
 17 18  1  0  0  0  0
 18 19  1  0  0  0  0
 18 44  1  0  0  0  0
 19 22  1  0  0  0  0
 19 20  1  0  0  0  0
 20 21  1  0  0  0  0
 20 45  1  0  0  0  0
 20 46  1  0  0  0  0
 21 22  1  0  0  0  0
 21 47  1  0  0  0  0
 21 48  1  0  0  0  0
 22 49  1  0  0  0  0
 22 50  1  0  0  0  0
 23 24  2  0  0  0  0
M  END
> <s_m_source_file>
AV-unprocessed.smi

> <i_m_source_file_index>
2829

> <i_lp_mmshare_version>
43012

> <i_f3d_flags>
0

> <s_epik_input>
W0NIM11DKFtDSDNdKShbQ0gzXSljMVtjSF1bY0hdYyhubjEpW05IXUMoPU8pW05IXVtDQEBIXTJbQ0BIXShbQ0gyXVtDSDJdTzMpW0NAQEhdM0MyNFtDSDJdW0NIMl1bQ0gyXTQ=

> <s_epik_cmdline>
J2VwaWtfcHl0aG9uJywgJy1waCcsICc3LjAnLCAnLXRuJywgJzgnLCAnLW1hJywgJzIwMCcsICctbWV0YWxfYmluZGluZycsICctaW1hZScsICc8aW5maWxlLm1hZT4nLCAnLW9tYWUnLCAnPG91dGZpbGUubWFlPic=

> <r_lp_tautomer_probability>
1

> <r_epik_Ionization_Penalty>
0.011915

> <r_epik_Ionization_Penalty_Charging>
0

> <r_epik_Ionization_Penalty_Neutral>
0.011915

> <r_epik_State_Penalty>
0.00486223

> <r_epik_Charging_Adjusted_Penalty>
0.00486223

> <i_epik_Tot_Q>
0

> <i_epik_Tot_abs_Q>
0

> <r_epik_Metal_State_Penalty>
-0

> <b_epik_Metal_Only>
0

> <s_lp_Force_Field>
OPLS_2005

> <r_lp_Energy>
85.0365

> <b_lp_Chiralities_Consistent>
1

> <s_lp_Variant>
AV-unprocessed.smi:2829-8

> <Gold.Version>
5.8.1

> <Gold.Id.Protein>
6NUR|6NUR_protein|mol2

> <Gold.PLP.Fitness>
42.4074

> <Gold.PLP.PLP>
-33.9824

> <Gold.PLP.part.hbond>
-3.0000

> <Gold.PLP.part.metal>
0.0000

> <Gold.PLP.part.buried>
-0.2001

> <Gold.PLP.part.nonpolar>
-30.2227

> <Gold.PLP.part.repulsive>
0.6134

> <Gold.PLP.ligand.clash>
0.0000

> <Gold.PLP.ligand.torsion>
0.2860

> <Gold.PLP.Chemscore.Hbond>
2.8938

> <Gold.PLP.Chemscore.CHOScore>
0.0000

> <Gold.PLP.Chemscore.Metal>
0.0000

> <Gold.Chemscore.Hbonds>
donor molecule, donor type, donor heavy atom, donor atom, acceptor molecule, acceptor atom, score
      L1  H     9    36       P1 10175  1.00
      L1  H    12    37       P1 10175  1.00
      P1  H 10162 10167       L1    17  1.00

> <Gold.PLP.Chemscore.Internal.Correction>
0.3157

> <Gold.Rescore>
     Score         DG    S(hbond)    S(metal)    S(lipo)     H(rot)  DE(clash)    DE(int)     intcor
     17.66     -19.56       1.92        0.00      90.92       1.16       0.35       1.55       ----

> <Gold.Chemscore.Fitness>
17.6562

> <Gold.Chemscore.DG>
-19.5601

> <Gold.Chemscore.ZeroCoef>
-5.4800

> <Gold.Chemscore.Hbond>
1.9213

> <Gold.Chemscore.Metal>
0.0000

> <Gold.Chemscore.Lipo>
90.9164

> <Gold.Chemscore.Internal_Hbond>
0.0000

> <Gold.Chemscore.DEClash>
0.3535

> <Gold.Chemscore.DEInternal>
1.5504

> <Gold.Chemscore.Rot>
1.1618

> <Gold.Chemscore.Internal.Correction>
   9.000000E+99

> <Gold.Chemscore.Hbonds>
donor molecule, donor type, donor heavy atom, donor atom, acceptor molecule, acceptor atom, score
      L1  H     9    36       P1 10175  0.96
      L1  H    12    37       P1 10175  0.81
      P1  H 10162 10167       L1    17  0.12

> <Gold.Chemscore.Hbond.Weighted>
-6.4170

> <Gold.Chemscore.Metal.Weighted>
-0.0000

> <Gold.Chemscore.Lipo.Weighted>
-10.6372

> <Gold.Chemscore.Internal_Hbond.Weighted>
0.0000

> <Gold.Chemscore.DEClash.Weighted>
0.3535

> <Gold.Chemscore.DEInternal.Weighted>
1.5504

> <Gold.Chemscore.Rot.Weighted>
2.9741

> <Gold.Chemscore.Internal.Correction.Weighted>
   9.000000E+99

> <Gold.Protein.RotatedTorsions>
[ 6907 6896 6895 6894 ] final -136.06 input  -60.11 | X-H torsion
[ 7974 7965 7964 7962 ] final -110.39 input  175.53 | X-H torsion
[ 8008 7997 7996 7995 ] final  -42.48 input   59.86 | X-H torsion
[ 10167 10162 10161 10158 ] final -138.54 input  -65.29 | X-H torsion
[ 10718 10713 10712 10709 ] final  179.50 input   66.30 | X-H torsion
[ 10763 10752 10751 10750 ] final  -16.97 input  -60.55 | X-H torsion
[ 11005 11000 10999 10996 ] final   24.65 input  -57.11 | X-H torsion

> <Gold.Protein.ActiveResidues>
 VAL166  LYS551  ARG553  GLY616  TRP617  ASP618  TYR619  PRO620  LYS621  CYS622 
 ASP623  PHE694  ASN695  SER759  ASP760  ASP761  ALA762  ILE779  LEU786  VAL792 
 PHE793  MET794  SER795  GLU796  ALA797  LYS798  CYS799  TRP800  GLU811  SER814 

> <Gold.Protein.RotatedAtoms>
  151.0054  133.6015  159.2689 H   0  0  0  0  0  0  0  0  0  0  0  0  # atno 6907 bound_to 6896
  151.3186  135.0812  159.9307 H   0  0  0  0  0  0  0  0  0  0  0  0  # atno 6908 bound_to 6896
  152.5285  133.9706  159.7814 H   0  0  0  0  0  0  0  0  0  0  0  0  # atno 6909 bound_to 6896
  145.1689  140.8916  143.3547 H   0  0  0  0  0  0  0  0  0  0  0  0  # atno 7974 bound_to 7965
  154.3999  140.1472  156.3362 H   0  0  0  0  0  0  0  0  0  0  0  0  # atno 8008 bound_to 7997
  155.8398  140.3462  155.5603 H   0  0  0  0  0  0  0  0  0  0  0  0  # atno 8009 bound_to 7997
  155.8099  140.0882  157.1900 H   0  0  0  0  0  0  0  0  0  0  0  0  # atno 8010 bound_to 7997
  139.8468  143.7250  152.2660 H   0  0  0  0  0  0  0  0  0  0  0  0  # atno 10167 bound_to 10162
  156.8748  130.9796  151.3069 H   0  0  0  0  0  0  0  0  0  0  0  0  # atno 10718 bound_to 10713
  153.5666  135.7008  153.5523 H   0  0  0  0  0  0  0  0  0  0  0  0  # atno 10763 bound_to 10752
  153.3381  135.4028  155.1550 H   0  0  0  0  0  0  0  0  0  0  0  0  # atno 10764 bound_to 10752
  154.8639  135.3735  154.5187 H   0  0  0  0  0  0  0  0  0  0  0  0  # atno 10765 bound_to 10752
  140.3564  134.2173  155.7675 H   0  0  0  0  0  0  0  0  0  0  0  0  # atno 11005 bound_to 11000
  145.0253  139.3388  143.6051 LP  0  0  0  0  0  0  0  0  0  0  0  0  # atno 17320 bound_to 7965
  146.3471  139.9570  142.8722 LP  0  0  0  0  0  0  0  0  0  0  0  0  # atno 17321 bound_to 7965
  139.7504  144.7535  151.0515 LP  0  0  0  0  0  0  0  0  0  0  0  0  # atno 17342 bound_to 10162
  140.7792  143.4866  150.9947 LP  0  0  0  0  0  0  0  0  0  0  0  0  # atno 17343 bound_to 10162
  157.6175  130.8629  149.9052 LP  0  0  0  0  0  0  0  0  0  0  0  0  # atno 17370 bound_to 10713
  156.0708  130.3685  150.0781 LP  0  0  0  0  0  0  0  0  0  0  0  0  # atno 17371 bound_to 10713
  141.1997  133.8005  157.0524 LP  0  0  0  0  0  0  0  0  0  0  0  0  # atno 17394 bound_to 11000
  140.0661  134.9728  157.1389 LP  0  0  0  0  0  0  0  0  0  0  0  0  # atno 17395 bound_to 11000

$$$$
