AV-unprocessed.smi:2207|AV-procd|sdf|8944|dock8
  -GOLD-   2272012163D 1   1.00000     0.00000
 Structure written by MMmdl.
 18 18  0  0  0  0  0  0  0  0  1 V2000
  142.5422  132.5326  149.9543 N   0  0  0  0  0  0  0  0  0  0  0  0
  143.8354  132.5381  150.2889 C   0  0  0  0  0  0  0  0  0  0  0  0
  144.4849  131.5034  150.4239 O   0  0  0  0  0  0  0  0  0  0  0  0
  144.4944  133.9011  150.5076 C   0  0  0  0  0  0  0  0  0  0  0  0
  143.8592  134.6242  151.5951 N   0  0  0  0  0  0  0  0  0  0  0  0
  143.0549  134.1235  152.6017 C   0  0  0  0  0  0  0  0  0  0  0  0
  142.6901  135.1725  153.3974 C   0  0  0  0  0  0  0  0  0  0  0  0
  143.3333  136.2782  152.7792 C   0  0  0  0  0  0  0  0  0  0  0  0
  143.2388  137.5813  153.2601 N   0  0  0  0  0  0  0  0  0  0  0  0
  144.0319  135.9615  151.7044 N   0  0  0  0  0  0  0  0  0  0  0  0
  142.0686  131.6552  149.7950 H   0  0  0  0  0  0  0  0  0  0  0  0
  142.0444  133.4057  149.8564 H   0  0  0  0  0  0  0  0  0  0  0  0
  145.5573  133.7755  150.7207 H   0  0  0  0  0  0  0  0  0  0  0  0
  144.4187  134.5005  149.5993 H   0  0  0  0  0  0  0  0  0  0  0  0
  142.8138  133.0726  152.6666 H   0  0  0  0  0  0  0  0  0  0  0  0
  142.0651  135.1494  154.2778 H   0  0  0  0  0  0  0  0  0  0  0  0
  142.6994  137.8030  154.0844 H   0  0  0  0  0  0  0  0  0  0  0  0
  143.7026  138.3480  152.7945 H   0  0  0  0  0  0  0  0  0  0  0  0
  1  2  1  0  0  0  0
  1 11  1  0  0  0  0
  1 12  1  0  0  0  0
  2  3  2  0  0  0  0
  2  4  1  0  0  0  0
  4  5  1  0  0  0  0
  4 13  1  0  0  0  0
  4 14  1  0  0  0  0
  5 10  1  0  0  0  0
  5  6  1  0  0  0  0
  6  7  2  0  0  0  0
  6 15  1  0  0  0  0
  7  8  1  0  0  0  0
  7 16  1  0  0  0  0
  8  9  1  0  0  0  0
  8 10  2  0  0  0  0
  9 17  1  0  0  0  0
  9 18  1  0  0  0  0
M  END
> <s_m_source_file>
AV-unprocessed.smi

> <i_m_source_file_index>
2207

> <i_lp_mmshare_version>
43012

> <i_f3d_flags>
0

> <s_epik_input>
W05IMl1DKD1PKVtDSDJdbjFbY0hdW2NIXWMobjEpW05IMl0=

> <s_epik_cmdline>
J2VwaWtfcHl0aG9uJywgJy1waCcsICc3LjAnLCAnLXRuJywgJzgnLCAnLW1hJywgJzIwMCcsICctbWV0YWxfYmluZGluZycsICctaW1hZScsICc8aW5maWxlLm1hZT4nLCAnLW9tYWUnLCAnPG91dGZpbGUubWFlPic=

> <r_lp_tautomer_probability>
1

> <r_epik_Ionization_Penalty>
0.000204489

> <r_epik_Ionization_Penalty_Charging>
0

> <r_epik_Ionization_Penalty_Neutral>
0.000204489

> <r_epik_State_Penalty>
-0

> <r_epik_Charging_Adjusted_Penalty>
0

> <i_epik_Tot_Q>
0

> <i_epik_Tot_abs_Q>
0

> <r_epik_Metal_State_Penalty>
-0

> <b_epik_Metal_Only>
0

> <s_lp_Force_Field>
OPLS_2005

> <r_lp_Energy>
0.150193

> <b_lp_Chiralities_Consistent>
1

> <s_lp_Variant>
AV-unprocessed.smi:2207-1

> <Gold.Version>
5.8.1

> <Gold.Id.Protein>
6NUR|6NUR_protein|mol2

> <Gold.PLP.Fitness>
29.7502

> <Gold.PLP.PLP>
-18.7421

> <Gold.PLP.part.hbond>
-3.1001

> <Gold.PLP.part.metal>
0.0000

> <Gold.PLP.part.buried>
-5.5929

> <Gold.PLP.part.nonpolar>
-11.4869

> <Gold.PLP.part.repulsive>
0.5988

> <Gold.PLP.ligand.clash>
0.0000

> <Gold.PLP.ligand.torsion>
0.2565

> <Gold.PLP.Chemscore.Hbond>
2.8480

> <Gold.PLP.Chemscore.CHOScore>
0.9924

> <Gold.PLP.Chemscore.Metal>
0.0000

> <Gold.Chemscore.Hbonds>
donor molecule, donor type, donor heavy atom, donor atom, acceptor molecule, acceptor atom, score
      L1  H     1    11       P1 10952  1.00
      L1  H     1    12       P1 10186  0.88
      L1  H     9    18       P1 10175  0.70
      L1  C     6    15       P1 10957  0.92

> <Gold.PLP.Chemscore.Internal.Correction>
0.0001

> <Gold.Rescore>
     Score         DG    S(hbond)    S(metal)    S(lipo)     H(rot)  DE(clash)    DE(int)     intcor
     12.23     -12.61       2.81        0.00      17.21       1.67       0.07       0.31       ----

> <Gold.Chemscore.Fitness>
12.2298

> <Gold.Chemscore.DG>
-12.6096

> <Gold.Chemscore.ZeroCoef>
-5.4800

> <Gold.Chemscore.Hbond>
2.8129

> <Gold.Chemscore.Metal>
0.0000

> <Gold.Chemscore.Lipo>
17.2135

> <Gold.Chemscore.Internal_Hbond>
0.0000

> <Gold.Chemscore.DEClash>
0.0650

> <Gold.Chemscore.DEInternal>
0.3148

> <Gold.Chemscore.Rot>
1.6716

> <Gold.Chemscore.Internal.Correction>
   9.000000E+99

> <Gold.Chemscore.Hbonds>
donor molecule, donor type, donor heavy atom, donor atom, acceptor molecule, acceptor atom, score
      L1  H     1    11       P1 10952  0.98
      L1  H     1    12       P1 10186  0.85
      L1  H     9    18       P1 10175  0.68

> <Gold.Chemscore.Hbond.Weighted>
-9.3950

> <Gold.Chemscore.Metal.Weighted>
-0.0000

> <Gold.Chemscore.Lipo.Weighted>
-2.0140

> <Gold.Chemscore.Internal_Hbond.Weighted>
0.0000

> <Gold.Chemscore.DEClash.Weighted>
0.0650

> <Gold.Chemscore.DEInternal.Weighted>
0.3148

> <Gold.Chemscore.Rot.Weighted>
4.2794

> <Gold.Chemscore.Internal.Correction.Weighted>
   9.000000E+99

> <Gold.Protein.RotatedTorsions>
[ 6907 6896 6895 6894 ] final  -28.85 input  -60.11 | X-H torsion
[ 7974 7965 7964 7962 ] final  -41.38 input  175.53 | X-H torsion
[ 8008 7997 7996 7995 ] final -114.94 input   59.86 | X-H torsion
[ 10167 10162 10161 10158 ] final   84.24 input  -65.29 | X-H torsion
[ 10718 10713 10712 10709 ] final -120.64 input   66.30 | X-H torsion
[ 10763 10752 10751 10750 ] final   57.45 input  -60.55 | X-H torsion
[ 11005 11000 10999 10996 ] final -133.82 input  -57.11 | X-H torsion

> <Gold.Protein.ActiveResidues>
 VAL166  LYS551  ARG553  GLY616  TRP617  ASP618  TYR619  PRO620  LYS621  CYS622 
 ASP623  PHE694  ASN695  SER759  ASP760  ASP761  ALA762  ILE779  LEU786  VAL792 
 PHE793  MET794  SER795  GLU796  ALA797  LYS798  CYS799  TRP800  GLU811  SER814 

> <Gold.Protein.RotatedAtoms>
  151.1273  135.0111  159.8565 H   0  0  0  0  0  0  0  0  0  0  0  0  # atno 6907 bound_to 6896
  152.5450  134.1652  159.8584 H   0  0  0  0  0  0  0  0  0  0  0  0  # atno 6908 bound_to 6896
  151.1716  133.4736  159.2627 H   0  0  0  0  0  0  0  0  0  0  0  0  # atno 6909 bound_to 6896
  146.0216  140.6842  142.9175 H   0  0  0  0  0  0  0  0  0  0  0  0  # atno 7974 bound_to 7965
  155.0442  140.0392  157.2520 H   0  0  0  0  0  0  0  0  0  0  0  0  # atno 8008 bound_to 7997
  154.7191  140.2708  155.6534 H   0  0  0  0  0  0  0  0  0  0  0  0  # atno 8009 bound_to 7997
  156.2811  140.2706  156.1857 H   0  0  0  0  0  0  0  0  0  0  0  0  # atno 8010 bound_to 7997
  139.9101  144.6277  150.8547 H   0  0  0  0  0  0  0  0  0  0  0  0  # atno 10167 bound_to 10162
  156.1274  130.6369  150.9565 H   0  0  0  0  0  0  0  0  0  0  0  0  # atno 10718 bound_to 10713
  152.9850  135.5641  154.5392 H   0  0  0  0  0  0  0  0  0  0  0  0  # atno 10763 bound_to 10752
  154.4850  135.2790  155.1543 H   0  0  0  0  0  0  0  0  0  0  0  0  # atno 10764 bound_to 10752
  154.3036  135.6302  153.5488 H   0  0  0  0  0  0  0  0  0  0  0  0  # atno 10765 bound_to 10752
  140.9046  134.1647  157.4435 H   0  0  0  0  0  0  0  0  0  0  0  0  # atno 11005 bound_to 11000
  144.6992  140.3577  143.7170 LP  0  0  0  0  0  0  0  0  0  0  0  0  # atno 17320 bound_to 7965
  145.7183  139.1703  143.2499 LP  0  0  0  0  0  0  0  0  0  0  0  0  # atno 17321 bound_to 7965
  140.7687  143.3372  151.2283 LP  0  0  0  0  0  0  0  0  0  0  0  0  # atno 17342 bound_to 10162
  139.6950  143.9628  152.2878 LP  0  0  0  0  0  0  0  0  0  0  0  0  # atno 17343 bound_to 10162
  157.6454  131.0904  150.8164 LP  0  0  0  0  0  0  0  0  0  0  0  0  # atno 17370 bound_to 10713
  156.8252  130.4997  149.5338 LP  0  0  0  0  0  0  0  0  0  0  0  0  # atno 17371 bound_to 10713
  139.8747  134.9912  156.5536 LP  0  0  0  0  0  0  0  0  0  0  0  0  # atno 17394 bound_to 11000
  140.8187  133.8371  155.8876 LP  0  0  0  0  0  0  0  0  0  0  0  0  # atno 17395 bound_to 11000

$$$$
