AV-unprocessed.smi:2495|AV-procd|sdf|9823|dock3
  -GOLD-   2272013453D 1   1.00000     0.00000
 Structure written by MMmdl.
 33 34  0  0  0  0  0  0  0  0  1 V2000
  146.5622  142.9021  154.1499 C   0  0  0  0  0  0  0  0  0  0  0  0
  147.5599  142.1749  154.9193 N   0  0  0  0  0  0  0  0  0  0  0  0
  148.4957  141.3763  154.3843 C   0  0  0  0  0  0  0  0  0  0  0  0
  148.6031  141.1951  153.1707 O   0  0  0  0  0  0  0  0  0  0  0  0
  149.4668  140.7003  155.3639 C   0  0  2  0  0  0  0  0  0  0  0  0
  150.1919  141.7193  156.2731 C   0  0  0  0  0  0  0  0  0  0  0  0
  151.1936  141.0540  157.1039 N   0  0  0  0  0  0  0  0  0  0  0  0
  151.7330  141.8293  158.1535 C   0  0  0  0  0  0  0  0  0  0  0  0
  151.5293  143.2297  158.2048 C   0  0  0  0  0  0  0  0  0  0  0  0
  152.1073  143.9205  159.2904 C   0  0  0  0  0  0  0  0  0  0  0  0
  151.9535  145.4192  159.4418 C   0  0  0  0  0  0  0  0  0  0  0  0
  152.8246  143.2834  160.2400 N   0  0  0  0  0  0  0  0  0  0  0  0
  152.9531  141.9625  160.1040 C   0  0  0  0  0  0  0  0  0  0  0  0
  152.4492  141.2087  159.1242 N   0  0  0  0  0  0  0  0  0  0  0  0
  152.1083  140.2030  156.3465 C   0  0  0  0  0  0  0  0  0  0  0  0
  151.3195  139.2300  155.4571 C   0  0  0  0  0  0  0  0  0  0  0  0
  150.4355  139.9633  154.6177 O   0  0  0  0  0  0  0  0  0  0  0  0
  145.9693  143.5332  154.8117 H   0  0  0  0  0  0  0  0  0  0  0  0
  145.8882  142.2112  153.6424 H   0  0  0  0  0  0  0  0  0  0  0  0
  147.0340  143.5411  153.4023 H   0  0  0  0  0  0  0  0  0  0  0  0
  147.5351  142.2747  155.9242 H   0  0  0  0  0  0  0  0  0  0  0  0
  148.8847  140.0091  155.9762 H   0  0  0  0  0  0  0  0  0  0  0  0
  150.6906  142.4785  155.6687 H   0  0  0  0  0  0  0  0  0  0  0  0
  149.4536  142.2361  156.8844 H   0  0  0  0  0  0  0  0  0  0  0  0
  150.9484  143.7568  157.4628 H   0  0  0  0  0  0  0  0  0  0  0  0
  151.0646  145.7735  158.9191 H   0  0  0  0  0  0  0  0  0  0  0  0
  152.8225  145.9295  159.0264 H   0  0  0  0  0  0  0  0  0  0  0  0
  151.8605  145.6965  160.4924 H   0  0  0  0  0  0  0  0  0  0  0  0
  153.5236  141.4503  160.8645 H   0  0  0  0  0  0  0  0  0  0  0  0
  152.7587  140.8278  155.7326 H   0  0  0  0  0  0  0  0  0  0  0  0
  152.7457  139.6338  157.0242 H   0  0  0  0  0  0  0  0  0  0  0  0
  152.0031  138.6528  154.8345 H   0  0  0  0  0  0  0  0  0  0  0  0
  150.7583  138.5155  156.0614 H   0  0  0  0  0  0  0  0  0  0  0  0
  1  2  1  0  0  0  0
  1 18  1  0  0  0  0
  1 19  1  0  0  0  0
  1 20  1  0  0  0  0
  2  3  1  0  0  0  0
  2 21  1  0  0  0  0
  3  4  2  0  0  0  0
  3  5  1  0  0  0  0
  5 17  1  0  0  0  0
  5  6  1  0  0  0  0
  5 22  1  0  0  0  0
  6  7  1  0  0  0  0
  6 23  1  0  0  0  0
  6 24  1  0  0  0  0
  7  8  1  0  0  0  0
  7 15  1  0  0  0  0
  8 14  1  0  0  0  0
  8  9  2  0  0  0  0
  9 10  1  0  0  0  0
  9 25  1  0  0  0  0
 10 11  1  0  0  0  0
 10 12  2  0  0  0  0
 11 26  1  0  0  0  0
 11 27  1  0  0  0  0
 11 28  1  0  0  0  0
 12 13  1  0  0  0  0
 13 14  2  0  0  0  0
 13 29  1  0  0  0  0
 15 16  1  0  0  0  0
 15 30  1  0  0  0  0
 15 31  1  0  0  0  0
 16 17  1  0  0  0  0
 16 32  1  0  0  0  0
 16 33  1  0  0  0  0
M  END
> <s_m_source_file>
AV-unprocessed.smi

> <i_m_source_file_index>
2495

> <i_lp_mmshare_version>
43012

> <i_f3d_flags>
0

> <s_epik_input>
W0NIM11bTkhdQyg9TylbQ0BASF0xW0NIMl1OKFtDSDJdW0NIMl1PMSljMltjSF1jKFtDSDNdKW5bY0hdbjI=

> <s_epik_cmdline>
J2VwaWtfcHl0aG9uJywgJy1waCcsICc3LjAnLCAnLXRuJywgJzgnLCAnLW1hJywgJzIwMCcsICctbWV0YWxfYmluZGluZycsICctaW1hZScsICc8aW5maWxlLm1hZT4nLCAnLW9tYWUnLCAnPG91dGZpbGUubWFlPic=

> <r_lp_tautomer_probability>
1

> <r_epik_Ionization_Penalty>
0.000466083

> <r_epik_Ionization_Penalty_Charging>
0

> <r_epik_Ionization_Penalty_Neutral>
0.000466083

> <r_epik_State_Penalty>
0.000259726

> <r_epik_Charging_Adjusted_Penalty>
0.000259726

> <i_epik_Tot_Q>
0

> <i_epik_Tot_abs_Q>
0

> <r_epik_Metal_State_Penalty>
-0

> <b_epik_Metal_Only>
0

> <s_lp_Force_Field>
OPLS_2005

> <r_lp_Energy>
12.0364

> <b_lp_Chiralities_Consistent>
1

> <s_lp_Variant>
AV-unprocessed.smi:2495-1

> <Gold.Version>
5.8.1

> <Gold.Id.Protein>
6NUR|6NUR_protein|mol2

> <Gold.PLP.Fitness>
39.5956

> <Gold.PLP.PLP>
-33.8036

> <Gold.PLP.part.hbond>
-3.0000

> <Gold.PLP.part.metal>
0.0000

> <Gold.PLP.part.buried>
-5.4671

> <Gold.PLP.part.nonpolar>
-29.8699

> <Gold.PLP.part.repulsive>
4.0014

> <Gold.PLP.ligand.clash>
0.0000

> <Gold.PLP.ligand.torsion>
0.2171

> <Gold.PLP.Chemscore.Hbond>
1.9600

> <Gold.PLP.Chemscore.CHOScore>
0.0000

> <Gold.PLP.Chemscore.Metal>
0.0000

> <Gold.Chemscore.Hbonds>
donor molecule, donor type, donor heavy atom, donor atom, acceptor molecule, acceptor atom, score
      P1  H  7989  7998       L1    17  1.00
      P1  H  8011  8017       L1     4  0.96

> <Gold.PLP.Chemscore.Internal.Correction>
0.3462

> <Gold.Rescore>
     Score         DG    S(hbond)    S(metal)    S(lipo)     H(rot)  DE(clash)    DE(int)     intcor
     13.64     -15.28       1.68        0.00      65.87       1.37       1.44       0.20       ----

> <Gold.Chemscore.Fitness>
13.6376

> <Gold.Chemscore.DG>
-15.2776

> <Gold.Chemscore.ZeroCoef>
-5.4800

> <Gold.Chemscore.Hbond>
1.6764

> <Gold.Chemscore.Metal>
0.0000

> <Gold.Chemscore.Lipo>
65.8728

> <Gold.Chemscore.Internal_Hbond>
0.0000

> <Gold.Chemscore.DEClash>
1.4370

> <Gold.Chemscore.DEInternal>
0.2030

> <Gold.Chemscore.Rot>
1.3706

> <Gold.Chemscore.Internal.Correction>
   9.000000E+99

> <Gold.Chemscore.Hbonds>
donor molecule, donor type, donor heavy atom, donor atom, acceptor molecule, acceptor atom, score
      P1  H  7989  7998       L1    17  0.34
      P1  H  8011  8017       L1     4  0.81

> <Gold.Chemscore.Hbond.Weighted>
-5.5992

> <Gold.Chemscore.Metal.Weighted>
-0.0000

> <Gold.Chemscore.Lipo.Weighted>
-7.7071

> <Gold.Chemscore.Internal_Hbond.Weighted>
0.0000

> <Gold.Chemscore.DEClash.Weighted>
1.4370

> <Gold.Chemscore.DEInternal.Weighted>
0.2030

> <Gold.Chemscore.Rot.Weighted>
3.5087

> <Gold.Chemscore.Internal.Correction.Weighted>
   9.000000E+99

> <Gold.Protein.RotatedTorsions>
[ 6907 6896 6895 6894 ] final   98.03 input  -60.11 | X-H torsion
[ 7974 7965 7964 7962 ] final  148.23 input  175.53 | X-H torsion
[ 8008 7997 7996 7995 ] final  -86.68 input   59.86 | X-H torsion
[ 10167 10162 10161 10158 ] final   79.56 input  -65.29 | X-H torsion
[ 10718 10713 10712 10709 ] final   72.76 input   66.30 | X-H torsion
[ 10763 10752 10751 10750 ] final   89.94 input  -60.55 | X-H torsion
[ 11005 11000 10999 10996 ] final  -69.37 input  -57.11 | X-H torsion

> <Gold.Protein.ActiveResidues>
 VAL166  LYS551  ARG553  GLY616  TRP617  ASP618  TYR619  PRO620  LYS621  CYS622 
 ASP623  PHE694  ASN695  SER759  ASP760  ASP761  ALA762  ILE779  LEU786  VAL792 
 PHE793  MET794  SER795  GLU796  ALA797  LYS798  CYS799  TRP800  GLU811  SER814 

> <Gold.Protein.RotatedAtoms>
  152.5415  134.0644  159.8165 H   0  0  0  0  0  0  0  0  0  0  0  0  # atno 6907 bound_to 6896
  151.0767  133.5415  159.2630 H   0  0  0  0  0  0  0  0  0  0  0  0  # atno 6908 bound_to 6896
  151.2258  135.0544  159.9022 H   0  0  0  0  0  0  0  0  0  0  0  0  # atno 6909 bound_to 6896
  144.8530  139.6128  143.5965 H   0  0  0  0  0  0  0  0  0  0  0  0  # atno 7974 bound_to 7965
  154.6546  140.0575  156.9994 H   0  0  0  0  0  0  0  0  0  0  0  0  # atno 8008 bound_to 7997
  155.1319  140.3257  155.4453 H   0  0  0  0  0  0  0  0  0  0  0  0  # atno 8009 bound_to 7997
  156.2591  140.1979  156.6438 H   0  0  0  0  0  0  0  0  0  0  0  0  # atno 8010 bound_to 7997
  139.9590  144.5974  150.8090 H   0  0  0  0  0  0  0  0  0  0  0  0  # atno 10167 bound_to 10162
  157.6516  130.9594  150.0973 H   0  0  0  0  0  0  0  0  0  0  0  0  # atno 10718 bound_to 10713
  153.1924  135.4452  155.0165 H   0  0  0  0  0  0  0  0  0  0  0  0  # atno 10763 bound_to 10752
  154.8098  135.3289  154.7338 H   0  0  0  0  0  0  0  0  0  0  0  0  # atno 10764 bound_to 10752
  153.7791  135.6979  153.4947 H   0  0  0  0  0  0  0  0  0  0  0  0  # atno 10765 bound_to 10752
  141.1552  133.6763  156.6589 H   0  0  0  0  0  0  0  0  0  0  0  0  # atno 11005 bound_to 11000
  146.2800  139.6852  142.9236 LP  0  0  0  0  0  0  0  0  0  0  0  0  # atno 17320 bound_to 7965
  145.4463  141.0425  143.2830 LP  0  0  0  0  0  0  0  0  0  0  0  0  # atno 17321 bound_to 7965
  140.7559  143.3055  151.2972 LP  0  0  0  0  0  0  0  0  0  0  0  0  # atno 17342 bound_to 10162
  139.6569  144.0260  152.2666 LP  0  0  0  0  0  0  0  0  0  0  0  0  # atno 17343 bound_to 10162
  156.1906  130.3654  149.8915 LP  0  0  0  0  0  0  0  0  0  0  0  0  # atno 17370 bound_to 10713
  156.6845  130.8871  151.3580 LP  0  0  0  0  0  0  0  0  0  0  0  0  # atno 17371 bound_to 10713
  140.3263  134.7966  157.4291 LP  0  0  0  0  0  0  0  0  0  0  0  0  # atno 17394 bound_to 11000
  140.1054  134.5416  155.8314 LP  0  0  0  0  0  0  0  0  0  0  0  0  # atno 17395 bound_to 11000

$$$$
