AV-unprocessed.smi:290|AV-procd|sdf|2238|dock1
  -GOLD-   2262022113D 1   1.00000     0.00000
 Structure written by MMmdl.
 59 62  0  0  0  0  0  0  0  0  2 V2000
  152.1253  141.2298  159.2107 C   0  0  0  0  0  0  0  0  0  0  0  0
  151.4332  142.6001  159.1468 C   0  0  1  0  0  0  0  0  0  0  0  0
  152.2996  143.5566  159.7505 O   0  0  0  0  0  0  0  0  0  0  0  0
  152.0527  144.8222  159.1653 C   0  0  0  0  0  0  0  0  0  0  0  0
  151.8931  144.4718  157.6937 C   0  0  0  0  0  0  0  0  0  0  0  0
  151.1097  143.1611  157.7323 C   0  0  2  0  0  0  0  0  0  0  0  0
  149.7292  143.4812  157.7057 O   0  0  0  0  0  0  0  0  0  0  0  0
  151.4091  142.2241  156.5319 C   0  0  0  0  0  0  0  0  0  0  0  0
  150.4180  141.1728  156.3556 N   0  0  0  0  0  0  0  0  0  0  0  0
  150.3712  139.9675  157.0196 C   0  0  0  0  0  0  0  0  0  0  0  0
  149.3822  139.1847  156.6847 N   0  0  0  0  0  0  0  0  0  0  0  0
  148.6900  139.9077  155.7211 C   0  0  0  0  0  0  0  0  0  0  0  0
  147.5285  139.6628  154.9355 C   0  0  0  0  0  0  0  0  0  0  0  0
  146.7821  138.5386  154.9860 N   0  0  0  0  0  0  0  0  0  0  0  0
  145.3396  138.7155  154.8482 C   0  0  0  0  0  0  0  0  0  0  0  0
  144.8479  137.5595  153.9749 C   0  0  0  0  0  0  0  0  0  0  0  0
  146.0771  137.2349  153.1192 C   0  0  2  0  0  0  0  0  0  0  0  0
  146.0600  135.9080  152.4346 N   0  3  1  0  0  0  0  0  0  0  0  0
  145.4955  134.8314  153.2885 C   0  0  0  0  0  0  0  0  0  0  0  0
  145.3968  135.9673  151.1018 C   0  0  0  0  0  0  0  0  0  0  0  0
  144.8779  134.6000  150.6185 C   0  0  0  0  0  0  0  0  0  0  0  0
  144.1500  134.7455  149.4181 O   0  0  0  0  0  0  0  0  0  0  0  0
  147.2278  137.4417  154.1311 C   0  0  2  0  0  0  0  0  0  0  0  0
  147.5404  136.2118  155.0043 C   0  0  0  0  0  0  0  0  0  0  0  0
  147.1235  140.6302  154.0779 N   0  0  0  0  0  0  0  0  0  0  0  0
  147.8145  141.7704  153.9832 C   0  0  0  0  0  0  0  0  0  0  0  0
  148.9155  142.1368  154.6436 N   0  0  0  0  0  0  0  0  0  0  0  0
  149.3227  141.1648  155.5095 C   0  0  0  0  0  0  0  0  0  0  0  0
  146.1476  138.0009  152.3456 H   0  0  0  0  0  0  0  0  0  0  0  0
  148.1384  137.7227  153.5990 H   0  0  0  0  0  0  0  0  0  0  0  0
  151.5077  140.4502  158.7647 H   0  0  0  0  0  0  0  0  0  0  0  0
  152.3137  140.9442  160.2458 H   0  0  0  0  0  0  0  0  0  0  0  0
  153.0869  141.2414  158.6972 H   0  0  0  0  0  0  0  0  0  0  0  0
  150.5264  142.5547  159.7533 H   0  0  0  0  0  0  0  0  0  0  0  0
  151.1345  145.2481  159.5731 H   0  0  0  0  0  0  0  0  0  0  0  0
  152.8712  145.5182  159.3483 H   0  0  0  0  0  0  0  0  0  0  0  0
  151.4105  145.2600  157.1141 H   0  0  0  0  0  0  0  0  0  0  0  0
  152.8832  144.3044  157.2674 H   0  0  0  0  0  0  0  0  0  0  0  0
  149.5839  144.1325  157.0365 H   0  0  0  0  0  0  0  0  0  0  0  0
  151.4429  142.7949  155.6038 H   0  0  0  0  0  0  0  0  0  0  0  0
  152.3887  141.7574  156.6435 H   0  0  0  0  0  0  0  0  0  0  0  0
  151.1022  139.6831  157.7624 H   0  0  0  0  0  0  0  0  0  0  0  0
  144.8566  138.7048  155.8255 H   0  0  0  0  0  0  0  0  0  0  0  0
  145.1037  139.6705  154.3766 H   0  0  0  0  0  0  0  0  0  0  0  0
  144.5812  136.7080  154.6025 H   0  0  0  0  0  0  0  0  0  0  0  0
  143.9726  137.8373  153.3870 H   0  0  0  0  0  0  0  0  0  0  0  0
  144.4688  135.0617  153.5762 H   0  0  0  0  0  0  0  0  0  0  0  0
  146.0818  134.6939  154.1966 H   0  0  0  0  0  0  0  0  0  0  0  0
  145.4949  133.8678  152.7823 H   0  0  0  0  0  0  0  0  0  0  0  0
  144.5760  136.6850  151.1416 H   0  0  0  0  0  0  0  0  0  0  0  0
  146.0863  136.3463  150.3477 H   0  0  0  0  0  0  0  0  0  0  0  0
  145.6771  133.8742  150.4774 H   0  0  0  0  0  0  0  0  0  0  0  0
  144.2082  134.1799  151.3693 H   0  0  0  0  0  0  0  0  0  0  0  0
  144.7619  134.8251  148.7015 H   0  0  0  0  0  0  0  0  0  0  0  0
  147.9298  135.3856  154.4119 H   0  0  0  0  0  0  0  0  0  0  0  0
  146.6583  135.8557  155.5368 H   0  0  0  0  0  0  0  0  0  0  0  0
  148.2984  136.4528  155.7502 H   0  0  0  0  0  0  0  0  0  0  0  0
  147.4320  142.4921  153.2764 H   0  0  0  0  0  0  0  0  0  0  0  0
  147.0263  135.6676  152.2627 H   0  0  0  0  0  0  0  0  0  0  0  0
  1  2  1  0  0  0  0
  1 31  1  0  0  0  0
  1 32  1  0  0  0  0
  1 33  1  0  0  0  0
  2  6  1  0  0  0  0
  2  3  1  0  0  0  0
  2 34  1  0  0  0  0
  3  4  1  0  0  0  0
  4  5  1  0  0  0  0
  4 35  1  0  0  0  0
  4 36  1  0  0  0  0
  5  6  1  0  0  0  0
  5 37  1  0  0  0  0
  5 38  1  0  0  0  0
  6  7  1  0  0  0  0
  6  8  1  0  0  0  0
  7 39  1  0  0  0  0
  8  9  1  0  0  0  0
  8 40  1  0  0  0  0
  8 41  1  0  0  0  0
  9 28  1  0  0  0  0
  9 10  1  0  0  0  0
 10 11  2  0  0  0  0
 10 42  1  0  0  0  0
 11 12  1  0  0  0  0
 12 28  2  0  0  0  0
 12 13  1  0  0  0  0
 13 14  1  0  0  0  0
 13 25  2  0  0  0  0
 14 23  1  0  0  0  0
 14 15  1  0  0  0  0
 15 16  1  0  0  0  0
 15 43  1  0  0  0  0
 15 44  1  0  0  0  0
 16 17  1  0  0  0  0
 16 45  1  0  0  0  0
 16 46  1  0  0  0  0
 17 29  1  0  0  0  0
 17 18  1  0  0  0  0
 17 23  1  0  0  0  0
 18 19  1  0  0  0  0
 18 20  1  0  0  0  0
 18 59  1  0  0  0  0
 19 47  1  0  0  0  0
 19 48  1  0  0  0  0
 19 49  1  0  0  0  0
 20 21  1  0  0  0  0
 20 50  1  0  0  0  0
 20 51  1  0  0  0  0
 21 22  1  0  0  0  0
 21 52  1  0  0  0  0
 21 53  1  0  0  0  0
 22 54  1  0  0  0  0
 23 30  1  0  0  0  0
 23 24  1  0  0  0  0
 24 55  1  0  0  0  0
 24 56  1  0  0  0  0
 24 57  1  0  0  0  0
 25 26  1  0  0  0  0
 26 27  2  0  0  0  0
 26 58  1  0  0  0  0
 27 28  1  0  0  0  0
M  CHG  1  18   1
M  END
> <s_m_source_file>
AV-unprocessed.smi

> <i_m_source_file_index>
290

> <i_lp_mmshare_version>
43012

> <i_f3d_flags>
0

> <s_epik_input>
W0NIMl0xW0NIMl1PW0NAQEhdKFtDSDNdKVtDQEBdMShbT0hdKVtDSDJdbihbY0hdbjIpYyhjMjMpbltjSF1uYzNONFtDSDJdW0NIMl1bQ0BIXShbQ0BIXTRbQ0gzXSlOKFtDSDNdKVtDSDJdW0NIMl1bT0hd

> <s_epik_cmdline>
J2VwaWtfcHl0aG9uJywgJy1waCcsICc3LjAnLCAnLXRuJywgJzgnLCAnLW1hJywgJzIwMCcsICctbWV0YWxfYmluZGluZycsICctaW1hZScsICc8aW5maWxlLm1hZT4nLCAnLW9tYWUnLCAnPG91dGZpbGUubWFlPic=

> <r_lp_tautomer_probability>
1

> <r_epik_Ionization_Penalty>
0.0036983

> <r_epik_Ionization_Penalty_Charging>
0.0032725

> <r_epik_Ionization_Penalty_Neutral>
0.000425798

> <r_epik_State_Penalty>
-0

> <r_epik_Charging_Adjusted_Penalty>
0.0032725

> <i_epik_Tot_Q>
1

> <i_epik_Tot_abs_Q>
1

> <r_epik_Metal_State_Penalty>
-0

> <b_epik_Metal_Only>
0

> <s_lp_Force_Field>
OPLS_2005

> <r_lp_Energy>
65.2736

> <b_lp_Chiralities_Consistent>
1

> <s_lp_Variant>
AV-unprocessed.smi:290-24

> <Gold.Version>
5.8.1

> <Gold.Id.Protein>
6NUR|6NUR_protein|mol2

> <Gold.PLP.Fitness>
46.9280

> <Gold.PLP.PLP>
-38.3655

> <Gold.PLP.part.hbond>
-4.9997

> <Gold.PLP.part.metal>
0.0000

> <Gold.PLP.part.buried>
-7.0892

> <Gold.PLP.part.nonpolar>
-29.5257

> <Gold.PLP.part.repulsive>
2.5690

> <Gold.PLP.ligand.clash>
0.0000

> <Gold.PLP.ligand.torsion>
2.0216

> <Gold.PLP.Chemscore.Hbond>
4.0000

> <Gold.PLP.Chemscore.CHOScore>
0.0000

> <Gold.PLP.Chemscore.Metal>
0.0000

> <Gold.Chemscore.Hbonds>
donor molecule, donor type, donor heavy atom, donor atom, acceptor molecule, acceptor atom, score
      L1  H     7    39       P1  8028  1.00
      L1  H    18    59       P1  7948  2.00
      L1  H    22    54       P1  7921  1.00

> <Gold.PLP.Chemscore.Internal.Correction>
0.6057

> <Gold.Rescore>
     Score         DG    S(hbond)    S(metal)    S(lipo)     H(rot)  DE(clash)    DE(int)     intcor
     11.34     -16.16       2.76        0.00      92.56       3.67       2.59       2.23       ----

> <Gold.Chemscore.Fitness>
11.3402

> <Gold.Chemscore.DG>
-16.1599

> <Gold.Chemscore.ZeroCoef>
-5.4800

> <Gold.Chemscore.Hbond>
2.7650

> <Gold.Chemscore.Metal>
0.0000

> <Gold.Chemscore.Lipo>
92.5578

> <Gold.Chemscore.Internal_Hbond>
0.0000

> <Gold.Chemscore.DEClash>
2.5878

> <Gold.Chemscore.DEInternal>
2.2318

> <Gold.Chemscore.Rot>
3.6658

> <Gold.Chemscore.Internal.Correction>
   9.000000E+99

> <Gold.Chemscore.Hbonds>
donor molecule, donor type, donor heavy atom, donor atom, acceptor molecule, acceptor atom, score
      L1  H     7    39       P1  8028  0.59
      L1  H    18    59       P1  7948  0.89
      L1  H    22    54       P1  7921  1.00

> <Gold.Chemscore.Hbond.Weighted>
-9.2350

> <Gold.Chemscore.Metal.Weighted>
-0.0000

> <Gold.Chemscore.Lipo.Weighted>
-10.8293

> <Gold.Chemscore.Internal_Hbond.Weighted>
0.0000

> <Gold.Chemscore.DEClash.Weighted>
2.5878

> <Gold.Chemscore.DEInternal.Weighted>
2.2318

> <Gold.Chemscore.Rot.Weighted>
9.3844

> <Gold.Chemscore.Internal.Correction.Weighted>
   9.000000E+99

> <Gold.Protein.RotatedTorsions>
[ 6907 6896 6895 6894 ] final  -96.82 input  -60.11 | X-H torsion
[ 7974 7965 7964 7962 ] final  106.42 input  175.53 | X-H torsion
[ 8008 7997 7996 7995 ] final  127.92 input   59.86 | X-H torsion
[ 10167 10162 10161 10158 ] final  -18.86 input  -65.29 | X-H torsion
[ 10718 10713 10712 10709 ] final  -37.74 input   66.30 | X-H torsion
[ 10763 10752 10751 10750 ] final -139.19 input  -60.55 | X-H torsion
[ 11005 11000 10999 10996 ] final  107.66 input  -57.11 | X-H torsion

> <Gold.Protein.ActiveResidues>
 VAL166  LYS551  ARG553  GLY616  TRP617  ASP618  TYR619  PRO620  LYS621  CYS622 
 ASP623  PHE694  ASN695  SER759  ASP760  ASP761  ALA762  ILE779  LEU786  VAL792 
 PHE793  MET794  SER795  GLU796  ALA797  LYS798  CYS799  TRP800  GLU811  SER814 

> <Gold.Protein.RotatedAtoms>
  150.6999  134.1443  159.4116 H   0  0  0  0  0  0  0  0  0  0  0  0  # atno 6907 bound_to 6896
  151.9427  135.0203  160.0546 H   0  0  0  0  0  0  0  0  0  0  0  0  # atno 6908 bound_to 6896
  152.2079  133.4854  159.5131 H   0  0  0  0  0  0  0  0  0  0  0  0  # atno 6909 bound_to 6896
  145.3069  139.2552  143.3784 H   0  0  0  0  0  0  0  0  0  0  0  0  # atno 7974 bound_to 7965
  156.2902  140.2657  156.2351 H   0  0  0  0  0  0  0  0  0  0  0  0  # atno 8008 bound_to 7997
  155.0033  140.0387  157.2387 H   0  0  0  0  0  0  0  0  0  0  0  0  # atno 8009 bound_to 7997
  154.7582  140.2756  155.6241 H   0  0  0  0  0  0  0  0  0  0  0  0  # atno 8010 bound_to 7997
  140.7263  143.4875  151.0036 H   0  0  0  0  0  0  0  0  0  0  0  0  # atno 10167 bound_to 10162
  156.3118  130.4253  149.8043 H   0  0  0  0  0  0  0  0  0  0  0  0  # atno 10718 bound_to 10713
  154.8616  135.3590  154.5507 H   0  0  0  0  0  0  0  0  0  0  0  0  # atno 10763 bound_to 10752
  153.6125  135.7009  153.5346 H   0  0  0  0  0  0  0  0  0  0  0  0  # atno 10764 bound_to 10752
  153.3197  135.4155  155.1367 H   0  0  0  0  0  0  0  0  0  0  0  0  # atno 10765 bound_to 10752
  139.8831  134.9407  156.5854 H   0  0  0  0  0  0  0  0  0  0  0  0  # atno 11005 bound_to 11000
  146.3132  140.3596  142.8663 LP  0  0  0  0  0  0  0  0  0  0  0  0  # atno 17320 bound_to 7965
  144.9048  140.7686  143.5844 LP  0  0  0  0  0  0  0  0  0  0  0  0  # atno 17321 bound_to 7965
  139.8577  143.7355  152.3175 LP  0  0  0  0  0  0  0  0  0  0  0  0  # atno 17342 bound_to 10162
  139.7559  144.7521  151.0436 LP  0  0  0  0  0  0  0  0  0  0  0  0  # atno 17343 bound_to 10162
  156.5384  130.8289  151.3261 LP  0  0  0  0  0  0  0  0  0  0  0  0  # atno 17370 bound_to 10713
  157.7392  130.9828  150.2302 LP  0  0  0  0  0  0  0  0  0  0  0  0  # atno 17371 bound_to 10713
  140.7995  133.8516  155.8715 LP  0  0  0  0  0  0  0  0  0  0  0  0  # atno 17394 bound_to 11000
  140.9605  134.1662  157.4658 LP  0  0  0  0  0  0  0  0  0  0  0  0  # atno 17395 bound_to 11000

$$$$
