AV-unprocessed.smi:2391|AV-procd|sdf|9486|dock3
  -GOLD-   2272013113D 1   1.00000     0.00000
 Structure written by MMmdl.
 34 35  0  0  0  0  0  0  0  0  2 V2000
  150.7340  140.4830  158.2557 O   0  0  0  0  0  0  0  0  0  0  0  0
  151.8403  140.8124  157.8228 C   0  0  0  0  0  0  0  0  0  0  0  0
  152.5324  140.1901  156.8401 N   0  5  0  0  0  0  0  0  0  0  0  0
  151.9194  139.3162  156.0275 C   0  0  0  0  0  0  0  0  0  0  0  0
  150.7479  139.6883  155.3307 C   0  0  0  0  0  0  0  0  0  0  0  0
  150.1324  138.7372  154.4998 C   0  0  0  0  0  0  0  0  0  0  0  0
  150.7302  137.4681  154.4247 C   0  0  0  0  0  0  0  0  0  0  0  0
  151.8476  137.1511  155.1133 N   0  0  0  0  0  0  0  0  0  0  0  0
  152.4264  138.0633  155.9024 N   0  0  0  0  0  0  0  0  0  0  0  0
  152.4780  141.8740  158.3376 N   0  0  0  0  0  0  0  0  0  0  0  0
  152.0018  142.7558  159.4066 C   0  0  1  0  0  0  0  0  0  0  0  0
  153.0284  142.7650  160.5698 C   0  0  0  0  0  0  0  0  0  0  0  0
  153.6108  141.3877  160.9136 C   0  0  0  0  0  0  0  0  0  0  0  0
  154.2252  141.5538  162.3049 C   0  0  0  0  0  0  0  0  0  0  0  0
  153.4360  142.6817  162.9829 C   0  0  0  0  0  0  0  0  0  0  0  0
  152.4777  143.2376  161.9218 C   0  0  0  0  0  0  0  0  0  0  0  0
  151.7256  144.1535  158.8067 C   0  0  0  0  0  0  0  0  0  0  0  0
  151.3384  144.9917  159.7691 F   0  0  0  0  0  0  0  0  0  0  0  0
  152.8245  144.6602  158.2489 F   0  0  0  0  0  0  0  0  0  0  0  0
  150.7643  144.0893  157.8844 F   0  0  0  0  0  0  0  0  0  0  0  0
  150.3330  140.6809  155.4291 H   0  0  0  0  0  0  0  0  0  0  0  0
  149.2376  138.9715  153.9428 H   0  0  0  0  0  0  0  0  0  0  0  0
  150.3056  136.6928  153.8043 H   0  0  0  0  0  0  0  0  0  0  0  0
  153.3795  142.0984  157.9429 H   0  0  0  0  0  0  0  0  0  0  0  0
  151.0532  142.3811  159.7945 H   0  0  0  0  0  0  0  0  0  0  0  0
  153.8609  143.4166  160.2989 H   0  0  0  0  0  0  0  0  0  0  0  0
  152.8109  140.6468  160.9544 H   0  0  0  0  0  0  0  0  0  0  0  0
  154.3414  141.0433  160.1809 H   0  0  0  0  0  0  0  0  0  0  0  0
  154.1934  140.6253  162.8755 H   0  0  0  0  0  0  0  0  0  0  0  0
  155.2719  141.8454  162.2126 H   0  0  0  0  0  0  0  0  0  0  0  0
  152.8871  142.3217  163.8536 H   0  0  0  0  0  0  0  0  0  0  0  0
  154.1194  143.4589  163.3269 H   0  0  0  0  0  0  0  0  0  0  0  0
  152.3950  144.3230  161.9830 H   0  0  0  0  0  0  0  0  0  0  0  0
  151.4822  142.8212  162.0822 H   0  0  0  0  0  0  0  0  0  0  0  0
  1  2  2  0  0  0  0
  2  3  1  0  0  0  0
  2 10  1  0  0  0  0
  3  4  1  0  0  0  0
  4  9  1  0  0  0  0
  4  5  2  0  0  0  0
  5  6  1  0  0  0  0
  5 21  1  0  0  0  0
  6  7  2  0  0  0  0
  6 22  1  0  0  0  0
  7  8  1  0  0  0  0
  7 23  1  0  0  0  0
  8  9  2  0  0  0  0
 10 11  1  0  0  0  0
 10 24  1  0  0  0  0
 11 12  1  0  0  0  0
 11 17  1  0  0  0  0
 11 25  1  0  0  0  0
 12 16  1  0  0  0  0
 12 13  1  0  0  0  0
 12 26  1  0  0  0  0
 13 14  1  0  0  0  0
 13 27  1  0  0  0  0
 13 28  1  0  0  0  0
 14 15  1  0  0  0  0
 14 29  1  0  0  0  0
 14 30  1  0  0  0  0
 15 16  1  0  0  0  0
 15 31  1  0  0  0  0
 15 32  1  0  0  0  0
 16 33  1  0  0  0  0
 16 34  1  0  0  0  0
 17 18  1  0  0  0  0
 17 19  1  0  0  0  0
 17 20  1  0  0  0  0
M  CHG  1   3  -1
M  END
> <s_m_source_file>
AV-unprocessed.smi

> <i_m_source_file_index>
2391

> <i_lp_mmshare_version>
43012

> <i_f3d_flags>
0

> <s_epik_input>
W0NIMl0xW0NIMl1bQ0gyXVtDSDJdW0NIXTFbQ0BIXShDKEYpKEYpRilbTkhdQyg9TylbTkhdYzJbY0hdW2NIXVtjSF1ubjI=

> <s_epik_cmdline>
J2VwaWtfcHl0aG9uJywgJy1waCcsICc3LjAnLCAnLXRuJywgJzgnLCAnLW1hJywgJzIwMCcsICctbWV0YWxfYmluZGluZycsICctaW1hZScsICc8aW5maWxlLm1hZT4nLCAnLW9tYWUnLCAnPG91dGZpbGUubWFlPic=

> <r_lp_tautomer_probability>
1

> <r_epik_Ionization_Penalty>
8.90766

> <r_epik_Ionization_Penalty_Charging>
5.82661

> <r_epik_Ionization_Penalty_Neutral>
3.08106

> <r_epik_State_Penalty>
5.83894

> <r_epik_Charging_Adjusted_Penalty>
11.6655

> <i_epik_Tot_Q>
-1

> <i_epik_Tot_abs_Q>
1

> <r_epik_Metal_State_Penalty>
1.80768

> <b_epik_Metal_Only>
1

> <s_lp_Force_Field>
OPLS_2005

> <r_lp_Energy>
28.2955

> <b_lp_Chiralities_Consistent>
1

> <s_lp_Variant>
AV-unprocessed.smi:2391-6

> <Gold.Version>
5.8.1

> <Gold.Id.Protein>
6NUR|6NUR_protein|mol2

> <Gold.PLP.Fitness>
59.7802

> <Gold.PLP.PLP>
-49.2675

> <Gold.PLP.part.hbond>
-2.0000

> <Gold.PLP.part.metal>
0.0000

> <Gold.PLP.part.buried>
1.9357

> <Gold.PLP.part.nonpolar>
-47.8945

> <Gold.PLP.part.repulsive>
0.1725

> <Gold.PLP.ligand.clash>
0.0000

> <Gold.PLP.ligand.torsion>
0.9023

> <Gold.PLP.Chemscore.Hbond>
3.0000

> <Gold.PLP.Chemscore.CHOScore>
0.9730

> <Gold.PLP.Chemscore.Metal>
0.0000

> <Gold.Chemscore.Hbonds>
donor molecule, donor type, donor heavy atom, donor atom, acceptor molecule, acceptor atom, score
      P1  H  7997  8009       L1     3  2.00
      P1  H 10752 10765       L1     8  0.99
      L1  C     7    23       P1  7948  0.73
      L1  C     7    23       P1  7949  0.23

> <Gold.PLP.Chemscore.Internal.Correction>
0.3983

> <Gold.Rescore>
     Score         DG    S(hbond)    S(metal)    S(lipo)     H(rot)  DE(clash)    DE(int)     intcor
     16.61     -19.40       1.70        0.00      99.31       1.32       0.69       2.10       ----

> <Gold.Chemscore.Fitness>
16.6131

> <Gold.Chemscore.DG>
-19.4000

> <Gold.Chemscore.ZeroCoef>
-5.4800

> <Gold.Chemscore.Hbond>
1.6991

> <Gold.Chemscore.Metal>
0.0000

> <Gold.Chemscore.Lipo>
99.3051

> <Gold.Chemscore.Internal_Hbond>
0.0000

> <Gold.Chemscore.DEClash>
0.6862

> <Gold.Chemscore.DEInternal>
2.1007

> <Gold.Chemscore.Rot>
1.3179

> <Gold.Chemscore.Internal.Correction>
   9.000000E+99

> <Gold.Chemscore.Hbonds>
donor molecule, donor type, donor heavy atom, donor atom, acceptor molecule, acceptor atom, score
      P1  H  7997  8009       L1     3  0.52
      P1  H 10752 10765       L1     8  0.86

> <Gold.Chemscore.Hbond.Weighted>
-5.6751

> <Gold.Chemscore.Metal.Weighted>
-0.0000

> <Gold.Chemscore.Lipo.Weighted>
-11.6187

> <Gold.Chemscore.Internal_Hbond.Weighted>
0.0000

> <Gold.Chemscore.DEClash.Weighted>
0.6862

> <Gold.Chemscore.DEInternal.Weighted>
2.1007

> <Gold.Chemscore.Rot.Weighted>
3.3737

> <Gold.Chemscore.Internal.Correction.Weighted>
   9.000000E+99

> <Gold.Protein.RotatedTorsions>
[ 6907 6896 6895 6894 ] final -121.78 input  -60.11 | X-H torsion
[ 7974 7965 7964 7962 ] final   56.66 input  175.53 | X-H torsion
[ 8008 7997 7996 7995 ] final -162.94 input   59.86 | X-H torsion
[ 10167 10162 10161 10158 ] final   82.21 input  -65.29 | X-H torsion
[ 10718 10713 10712 10709 ] final   97.11 input   66.30 | X-H torsion
[ 10763 10752 10751 10750 ] final  173.24 input  -60.55 | X-H torsion
[ 11005 11000 10999 10996 ] final  112.13 input  -57.11 | X-H torsion

> <Gold.Protein.ActiveResidues>
 VAL166  LYS551  ARG553  GLY616  TRP617  ASP618  TYR619  PRO620  LYS621  CYS622 
 ASP623  PHE694  ASN695  SER759  ASP760  ASP761  ALA762  ILE779  LEU786  VAL792 
 PHE793  MET794  SER795  GLU796  ALA797  LYS798  CYS799  TRP800  GLU811  SER814 

> <Gold.Protein.RotatedAtoms>
  150.8515  133.7780  159.3023 H   0  0  0  0  0  0  0  0  0  0  0  0  # atno 6907 bound_to 6896
  151.5450  135.1066  159.9945 H   0  0  0  0  0  0  0  0  0  0  0  0  # atno 6908 bound_to 6896
  152.4556  133.7673  159.6836 H   0  0  0  0  0  0  0  0  0  0  0  0  # atno 6909 bound_to 6896
  145.9374  139.3859  143.0384 H   0  0  0  0  0  0  0  0  0  0  0  0  # atno 7974 bound_to 7965
  155.8141  140.0910  157.1887 H   0  0  0  0  0  0  0  0  0  0  0  0  # atno 8008 bound_to 7997
  154.3979  140.1449  156.3481 H   0  0  0  0  0  0  0  0  0  0  0  0  # atno 8009 bound_to 7997
  155.8334  140.3441  155.5589 H   0  0  0  0  0  0  0  0  0  0  0  0  # atno 8010 bound_to 7997
  139.9311  144.6151  150.8344 H   0  0  0  0  0  0  0  0  0  0  0  0  # atno 10167 bound_to 10162
  157.6917  131.0599  150.4594 H   0  0  0  0  0  0  0  0  0  0  0  0  # atno 10718 bound_to 10713
  154.4373  135.2761  155.1871 H   0  0  0  0  0  0  0  0  0  0  0  0  # atno 10763 bound_to 10752
  154.3752  135.6100  153.5765 H   0  0  0  0  0  0  0  0  0  0  0  0  # atno 10764 bound_to 10752
  152.9839  135.5867  154.4695 H   0  0  0  0  0  0  0  0  0  0  0  0  # atno 10765 bound_to 10752
  139.8920  134.9523  156.6539 H   0  0  0  0  0  0  0  0  0  0  0  0  # atno 11005 bound_to 11000
  145.8345  140.9613  143.0832 LP  0  0  0  0  0  0  0  0  0  0  0  0  # atno 17320 bound_to 7965
  144.6774  140.0205  143.7484 LP  0  0  0  0  0  0  0  0  0  0  0  0  # atno 17321 bound_to 7965
  140.7637  143.3229  151.2580 LP  0  0  0  0  0  0  0  0  0  0  0  0  # atno 17342 bound_to 10162
  139.6781  143.9902  152.2793 LP  0  0  0  0  0  0  0  0  0  0  0  0  # atno 17343 bound_to 10162
  156.4939  130.4101  149.6391 LP  0  0  0  0  0  0  0  0  0  0  0  0  # atno 17370 bound_to 10713
  156.3391  130.7372  151.2314 LP  0  0  0  0  0  0  0  0  0  0  0  0  # atno 17371 bound_to 10713
  140.7499  133.8906  155.8339 LP  0  0  0  0  0  0  0  0  0  0  0  0  # atno 17394 bound_to 11000
  141.0009  134.1152  157.4318 LP  0  0  0  0  0  0  0  0  0  0  0  0  # atno 17395 bound_to 11000

$$$$
