AV-unprocessed.smi:1053|AV-procd|sdf|4618|dock2
  -GOLD-   22720 3123D 1   1.00000     0.00000
 Structure written by MMmdl.
 38 39  0  0  0  0  0  0  0  0  2 V2000
  145.8845  137.9490  151.8022 C   0  0  0  0  0  0  0  0  0  0  0  0
  146.7898  139.0373  152.3965 C   0  0  0  0  0  0  0  0  0  0  0  0
  147.7019  138.5083  153.4454 N   0  3  2  0  0  0  0  0  0  0  0  0
  147.0150  138.1899  154.7208 C   0  0  0  0  0  0  0  0  0  0  0  0
  146.7373  139.4653  155.5360 C   0  0  0  0  0  0  0  0  0  0  0  0
  147.9601  140.1549  155.7627 O   0  0  0  0  0  0  0  0  0  0  0  0
  148.5808  140.5819  154.5536 C   0  0  1  0  0  0  0  0  0  0  0  0
  149.8507  141.3619  154.9191 C   0  0  0  0  0  0  0  0  0  0  0  0
  149.6225  142.2737  156.0300 N   0  0  0  0  0  0  0  0  0  0  0  0
  150.4084  142.3208  157.1653 C   0  0  0  0  0  0  0  0  0  0  0  0
  150.9577  141.1613  157.5328 N   0  0  0  0  0  0  0  0  0  0  0  0
  151.7331  141.1731  158.6390 C   0  0  0  0  0  0  0  0  0  0  0  0
  151.9566  142.3525  159.3767 C   0  0  0  0  0  0  0  0  0  0  0  0
  151.3248  143.5213  158.8962 C   0  0  0  0  0  0  0  0  0  0  0  0
  151.4757  144.8673  159.5886 C   0  0  0  0  0  0  0  0  0  0  0  0
  152.1723  144.7611  160.7207 F   0  0  0  0  0  0  0  0  0  0  0  0
  152.1082  145.7190  158.7814 F   0  0  0  0  0  0  0  0  0  0  0  0
  150.2717  145.3616  159.8773 F   0  0  0  0  0  0  0  0  0  0  0  0
  150.5499  143.4966  157.7869 N   0  0  0  0  0  0  0  0  0  0  0  0
  148.9089  139.3365  153.7006 C   0  0  0  0  0  0  0  0  0  0  0  0
  145.1613  138.3867  151.1136 H   0  0  0  0  0  0  0  0  0  0  0  0
  145.3248  137.4325  152.5825 H   0  0  0  0  0  0  0  0  0  0  0  0
  146.4498  137.2042  151.2429 H   0  0  0  0  0  0  0  0  0  0  0  0
  147.3494  139.5401  151.6080 H   0  0  0  0  0  0  0  0  0  0  0  0
  146.1430  139.7949  152.8406 H   0  0  0  0  0  0  0  0  0  0  0  0
  146.0929  137.6372  154.5374 H   0  0  0  0  0  0  0  0  0  0  0  0
  147.6584  137.5266  155.3005 H   0  0  0  0  0  0  0  0  0  0  0  0
  146.0233  140.1156  155.0287 H   0  0  0  0  0  0  0  0  0  0  0  0
  146.2984  139.2045  156.4992 H   0  0  0  0  0  0  0  0  0  0  0  0
  147.9074  141.2431  154.0059 H   0  0  0  0  0  0  0  0  0  0  0  0
  150.6596  140.6741  155.1688 H   0  0  0  0  0  0  0  0  0  0  0  0
  150.1812  141.9478  154.0605 H   0  0  0  0  0  0  0  0  0  0  0  0
  148.8118  142.8751  156.0031 H   0  0  0  0  0  0  0  0  0  0  0  0
  152.1779  140.2354  158.9375 H   0  0  0  0  0  0  0  0  0  0  0  0
  152.5784  142.3527  160.2596 H   0  0  0  0  0  0  0  0  0  0  0  0
  149.6327  138.7176  154.2330 H   0  0  0  0  0  0  0  0  0  0  0  0
  149.3906  139.6241  152.7669 H   0  0  0  0  0  0  0  0  0  0  0  0
  148.0317  137.6247  153.0833 H   0  0  0  0  0  0  0  0  0  0  0  0
  1  2  1  0  0  0  0
  1 21  1  0  0  0  0
  1 22  1  0  0  0  0
  1 23  1  0  0  0  0
  2  3  1  0  0  0  0
  2 24  1  0  0  0  0
  2 25  1  0  0  0  0
  3 20  1  0  0  0  0
  3  4  1  0  0  0  0
  3 38  1  0  0  0  0
  4  5  1  0  0  0  0
  4 26  1  0  0  0  0
  4 27  1  0  0  0  0
  5  6  1  0  0  0  0
  5 28  1  0  0  0  0
  5 29  1  0  0  0  0
  6  7  1  0  0  0  0
  7  8  1  0  0  0  0
  7 20  1  0  0  0  0
  7 30  1  0  0  0  0
  8  9  1  0  0  0  0
  8 31  1  0  0  0  0
  8 32  1  0  0  0  0
  9 10  1  0  0  0  0
  9 33  1  0  0  0  0
 10 19  1  0  0  0  0
 10 11  2  0  0  0  0
 11 12  1  0  0  0  0
 12 13  2  0  0  0  0
 12 34  1  0  0  0  0
 13 14  1  0  0  0  0
 13 35  1  0  0  0  0
 14 15  1  0  0  0  0
 14 19  2  0  0  0  0
 15 16  1  0  0  0  0
 15 17  1  0  0  0  0
 15 18  1  0  0  0  0
 20 36  1  0  0  0  0
 20 37  1  0  0  0  0
M  CHG  1   3   1
M  END
> <s_m_source_file>
AV-unprocessed.smi

> <i_m_source_file_index>
1053

> <i_lp_mmshare_version>
43012

> <i_f3d_flags>
0

> <s_epik_input>
W0NIM11bQ0gyXU4xW0NIMl1bQ0gyXU9bQ0BIXShbQ0gyXTEpW0NIMl1bTkhdYzJuW2NIXVtjSF1jKG4yKUMoRikoRilG

> <s_epik_cmdline>
J2VwaWtfcHl0aG9uJywgJy1waCcsICc3LjAnLCAnLXRuJywgJzgnLCAnLW1hJywgJzIwMCcsICctbWV0YWxfYmluZGluZycsICctaW1hZScsICc8aW5maWxlLm1hZT4nLCAnLW9tYWUnLCAnPG91dGZpbGUubWFlPic=

> <r_lp_tautomer_probability>
1

> <r_epik_Ionization_Penalty>
0.178506

> <r_epik_Ionization_Penalty_Charging>
0.178504

> <r_epik_Ionization_Penalty_Neutral>
2.47619e-06

> <r_epik_State_Penalty>
0.167974

> <r_epik_Charging_Adjusted_Penalty>
0.346478

> <i_epik_Tot_Q>
1

> <i_epik_Tot_abs_Q>
1

> <r_epik_Metal_State_Penalty>
0.167974

> <b_epik_Metal_Only>
0

> <s_lp_Force_Field>
OPLS_2005

> <r_lp_Energy>
12.5681

> <b_lp_Chiralities_Consistent>
1

> <s_lp_Variant>
AV-unprocessed.smi:1053-2

> <Gold.Version>
5.8.1

> <Gold.Id.Protein>
6NUR|6NUR_protein|mol2

> <Gold.PLP.Fitness>
42.2110

> <Gold.PLP.PLP>
-36.0030

> <Gold.PLP.part.hbond>
-2.0285

> <Gold.PLP.part.metal>
0.0000

> <Gold.PLP.part.buried>
0.7994

> <Gold.PLP.part.nonpolar>
-34.8012

> <Gold.PLP.part.repulsive>
0.2724

> <Gold.PLP.ligand.clash>
0.0000

> <Gold.PLP.ligand.torsion>
0.5945

> <Gold.PLP.Chemscore.Hbond>
2.4306

> <Gold.PLP.Chemscore.CHOScore>
0.0000

> <Gold.PLP.Chemscore.Metal>
0.0000

> <Gold.Chemscore.Hbonds>
donor molecule, donor type, donor heavy atom, donor atom, acceptor molecule, acceptor atom, score
      L1  H     3    38       P1  7948  1.85
      L1  H     9    33       P1  8028  0.50

> <Gold.PLP.Chemscore.Internal.Correction>
0.1053

> <Gold.Rescore>
     Score         DG    S(hbond)    S(metal)    S(lipo)     H(rot)  DE(clash)    DE(int)     intcor
     13.10     -14.57       1.22        0.00      76.77       1.55       0.90       0.56       ----

> <Gold.Chemscore.Fitness>
13.1022

> <Gold.Chemscore.DG>
-14.5705

> <Gold.Chemscore.ZeroCoef>
-5.4800

> <Gold.Chemscore.Hbond>
1.2243

> <Gold.Chemscore.Metal>
0.0000

> <Gold.Chemscore.Lipo>
76.7681

> <Gold.Chemscore.Internal_Hbond>
0.0000

> <Gold.Chemscore.DEClash>
0.9040

> <Gold.Chemscore.DEInternal>
0.5643

> <Gold.Chemscore.Rot>
1.5549

> <Gold.Chemscore.Internal.Correction>
   9.000000E+99

> <Gold.Chemscore.Hbonds>
donor molecule, donor type, donor heavy atom, donor atom, acceptor molecule, acceptor atom, score
      L1  H     3    38       P1  7948  0.88
      L1  H     9    33       P1  8028  0.50

> <Gold.Chemscore.Hbond.Weighted>
-4.0892

> <Gold.Chemscore.Metal.Weighted>
-0.0000

> <Gold.Chemscore.Lipo.Weighted>
-8.9819

> <Gold.Chemscore.Internal_Hbond.Weighted>
0.0000

> <Gold.Chemscore.DEClash.Weighted>
0.9040

> <Gold.Chemscore.DEInternal.Weighted>
0.5643

> <Gold.Chemscore.Rot.Weighted>
3.9806

> <Gold.Chemscore.Internal.Correction.Weighted>
   9.000000E+99

> <Gold.Protein.RotatedTorsions>
[ 6907 6896 6895 6894 ] final  -55.31 input  -60.11 | X-H torsion
[ 7974 7965 7964 7962 ] final  -42.81 input  175.53 | X-H torsion
[ 8008 7997 7996 7995 ] final  -88.11 input   59.86 | X-H torsion
[ 10167 10162 10161 10158 ] final  158.85 input  -65.29 | X-H torsion
[ 10718 10713 10712 10709 ] final    7.22 input   66.30 | X-H torsion
[ 10763 10752 10751 10750 ] final  133.86 input  -60.55 | X-H torsion
[ 11005 11000 10999 10996 ] final -103.28 input  -57.11 | X-H torsion

> <Gold.Protein.ActiveResidues>
 VAL166  LYS551  ARG553  GLY616  TRP617  ASP618  TYR619  PRO620  LYS621  CYS622 
 ASP623  PHE694  ASN695  SER759  ASP760  ASP761  ALA762  ILE779  LEU786  VAL792 
 PHE793  MET794  SER795  GLU796  ALA797  LYS798  CYS799  TRP800  GLU811  SER814 

> <Gold.Protein.RotatedAtoms>
  150.8262  134.7494  159.6814 H   0  0  0  0  0  0  0  0  0  0  0  0  # atno 6907 bound_to 6896
  152.4373  134.5659  159.9917 H   0  0  0  0  0  0  0  0  0  0  0  0  # atno 6908 bound_to 6896
  151.5830  133.3338  159.3048 H   0  0  0  0  0  0  0  0  0  0  0  0  # atno 6909 bound_to 6896
  146.0079  140.6998  142.9238 H   0  0  0  0  0  0  0  0  0  0  0  0  # atno 7974 bound_to 7965
  154.6710  140.0557  157.0166 H   0  0  0  0  0  0  0  0  0  0  0  0  # atno 8008 bound_to 7997
  155.1088  140.3236  155.4508 H   0  0  0  0  0  0  0  0  0  0  0  0  # atno 8009 bound_to 7997
  156.2657  140.2018  156.6213 H   0  0  0  0  0  0  0  0  0  0  0  0  # atno 8010 bound_to 7997
  139.4829  144.4786  151.8476 H   0  0  0  0  0  0  0  0  0  0  0  0  # atno 10167 bound_to 10162
  156.9337  130.5835  149.5650 H   0  0  0  0  0  0  0  0  0  0  0  0  # atno 10718 bound_to 10713
  153.8141  135.3125  155.3404 H   0  0  0  0  0  0  0  0  0  0  0  0  # atno 10763 bound_to 10752
  154.8039  135.4710  154.0347 H   0  0  0  0  0  0  0  0  0  0  0  0  # atno 10764 bound_to 10752
  153.1735  135.6881  153.8664 H   0  0  0  0  0  0  0  0  0  0  0  0  # atno 10765 bound_to 10752
  141.1153  133.8627  157.1466 H   0  0  0  0  0  0  0  0  0  0  0  0  # atno 11005 bound_to 11000
  144.6942  140.3348  143.7209 LP  0  0  0  0  0  0  0  0  0  0  0  0  # atno 17320 bound_to 7965
  145.7387  139.1757  143.2388 LP  0  0  0  0  0  0  0  0  0  0  0  0  # atno 17321 bound_to 7965
  140.4260  144.2180  150.5887 LP  0  0  0  0  0  0  0  0  0  0  0  0  # atno 17342 bound_to 10162
  140.4827  143.2374  151.8933 LP  0  0  0  0  0  0  0  0  0  0  0  0  # atno 17343 bound_to 10162
  156.0435  130.5515  150.8827 LP  0  0  0  0  0  0  0  0  0  0  0  0  # atno 17370 bound_to 10713
  157.5830  131.0946  150.9241 LP  0  0  0  0  0  0  0  0  0  0  0  0  # atno 17371 bound_to 10713
  140.0071  135.0004  157.0315 LP  0  0  0  0  0  0  0  0  0  0  0  0  # atno 17394 bound_to 11000
  140.4664  134.1431  155.7197 LP  0  0  0  0  0  0  0  0  0  0  0  0  # atno 17395 bound_to 11000

$$$$
