AV-unprocessed.smi:249|AV-procd|sdf|1910|dock8
  -GOLD-   2262021 03D 1   1.00000     0.00000
 Structure written by MMmdl.
 64 67  0  0  0  0  0  0  0  0  2 V2000
  145.3222  135.7795  150.9069 C   0  0  0  0  0  0  0  0  0  0  0  0
  144.3506  136.8278  151.4733 C   0  0  0  0  0  0  0  0  0  0  0  0
  145.0207  137.8945  152.2729 N   0  3  2  0  0  0  0  0  0  0  0  0
  146.3157  138.3142  151.6636 C   0  0  0  0  0  0  0  0  0  0  0  0
  146.9523  139.4956  152.4082 C   0  0  0  0  0  0  0  0  0  0  0  0
  147.1769  139.1463  153.8882 C   0  0  1  0  0  0  0  0  0  0  0  0
  147.8621  140.2057  154.6414 N   0  0  0  0  0  0  0  0  0  0  0  0
  147.2371  141.5240  154.6514 C   0  0  0  0  0  0  0  0  0  0  0  0
  148.4313  139.8643  155.8228 C   0  0  0  0  0  0  0  0  0  0  0  0
  147.6653  139.3411  156.8162 N   0  0  0  0  0  0  0  0  0  0  0  0
  148.2237  138.9957  157.9803 C   0  0  0  0  0  0  0  0  0  0  0  0
  149.5015  139.0912  158.3540 N   0  0  0  0  0  0  0  0  0  0  0  0
  150.2699  139.6282  157.3633 C   0  0  0  0  0  0  0  0  0  0  0  0
  149.8185  140.0365  156.0773 C   0  0  0  0  0  0  0  0  0  0  0  0
  150.8826  140.5279  155.3320 N   0  0  0  0  0  0  0  0  0  0  0  0
  151.9088  140.4097  156.1297 C   0  0  0  0  0  0  0  0  0  0  0  0
  151.6274  139.8983  157.3773 N   0  0  0  0  0  0  0  0  0  0  0  0
  152.5783  139.6585  158.4489 C   0  0  0  0  0  0  0  0  0  0  0  0
  152.5236  140.6846  159.6116 C   0  0  1  0  0  0  0  0  0  0  0  0
  153.5770  140.3006  160.6764 C   0  0  0  0  0  0  0  0  0  0  0  0
  154.8936  140.4578  160.1867 O   0  0  0  0  0  0  0  0  0  0  0  0
  152.6423  142.1739  159.1722 C   0  0  1  0  0  0  0  0  0  0  0  0
  151.5466  142.6876  158.2496 C   0  0  0  0  0  0  0  0  0  0  0  0
  151.6311  144.2019  158.4190 C   0  0  0  0  0  0  0  0  0  0  0  0
  152.1703  144.4255  159.7156 O   0  0  0  0  0  0  0  0  0  0  0  0
  152.5000  143.1816  160.3189 C   0  0  0  0  0  0  0  0  0  0  0  0
  145.8292  138.7201  154.4966 C   0  0  0  0  0  0  0  0  0  0  0  0
  145.1845  137.5501  153.7236 C   0  0  1  0  0  0  0  0  0  0  0  0
  143.8570  137.1778  154.4168 C   0  0  0  0  0  0  0  0  0  0  0  0
  144.8072  135.1303  150.1981 H   0  0  0  0  0  0  0  0  0  0  0  0
  145.7345  135.1325  151.6805 H   0  0  0  0  0  0  0  0  0  0  0  0
  146.1502  136.2514  150.3770 H   0  0  0  0  0  0  0  0  0  0  0  0
  143.8507  137.2608  150.6100 H   0  0  0  0  0  0  0  0  0  0  0  0
  143.5766  136.3449  152.0715 H   0  0  0  0  0  0  0  0  0  0  0  0
  147.0030  137.4667  151.6505 H   0  0  0  0  0  0  0  0  0  0  0  0
  146.1737  138.6193  150.6284 H   0  0  0  0  0  0  0  0  0  0  0  0
  147.8967  139.7532  151.9287 H   0  0  0  0  0  0  0  0  0  0  0  0
  146.3065  140.3694  152.3143 H   0  0  0  0  0  0  0  0  0  0  0  0
  147.8373  138.2787  153.9277 H   0  0  0  0  0  0  0  0  0  0  0  0
  147.9222  142.2721  155.0524 H   0  0  0  0  0  0  0  0  0  0  0  0
  146.3303  141.5321  155.2567 H   0  0  0  0  0  0  0  0  0  0  0  0
  146.9714  141.8263  153.6382 H   0  0  0  0  0  0  0  0  0  0  0  0
  147.5509  138.5837  158.7181 H   0  0  0  0  0  0  0  0  0  0  0  0
  152.9039  140.7084  155.8328 H   0  0  0  0  0  0  0  0  0  0  0  0
  152.3824  138.6557  158.8303 H   0  0  0  0  0  0  0  0  0  0  0  0
  153.5812  139.6310  158.0210 H   0  0  0  0  0  0  0  0  0  0  0  0
  151.5572  140.5717  160.1038 H   0  0  0  0  0  0  0  0  0  0  0  0
  153.4630  140.9016  161.5783 H   0  0  0  0  0  0  0  0  0  0  0  0
  153.4431  139.2640  160.9869 H   0  0  0  0  0  0  0  0  0  0  0  0
  155.3379  139.6257  160.2453 H   0  0  0  0  0  0  0  0  0  0  0  0
  153.6075  142.3359  158.6897 H   0  0  0  0  0  0  0  0  0  0  0  0
  151.6799  142.4006  157.2082 H   0  0  0  0  0  0  0  0  0  0  0  0
  150.5707  142.3295  158.5807 H   0  0  0  0  0  0  0  0  0  0  0  0
  152.3110  144.6333  157.6836 H   0  0  0  0  0  0  0  0  0  0  0  0
  150.6595  144.6829  158.3048 H   0  0  0  0  0  0  0  0  0  0  0  0
  151.6832  142.8961  160.9836 H   0  0  0  0  0  0  0  0  0  0  0  0
  153.4071  143.2715  160.9171 H   0  0  0  0  0  0  0  0  0  0  0  0
  145.9835  138.4271  155.5357 H   0  0  0  0  0  0  0  0  0  0  0  0
  145.1335  139.5605  154.5083 H   0  0  0  0  0  0  0  0  0  0  0  0
  145.8519  136.6892  153.7904 H   0  0  0  0  0  0  0  0  0  0  0  0
  143.9916  137.0953  155.4960 H   0  0  0  0  0  0  0  0  0  0  0  0
  143.4730  136.2123  154.0889 H   0  0  0  0  0  0  0  0  0  0  0  0
  143.0890  137.9316  154.2408 H   0  0  0  0  0  0  0  0  0  0  0  0
  144.4113  138.6996  152.2411 H   0  0  0  0  0  0  0  0  0  0  0  0
  1  2  1  0  0  0  0
  1 30  1  0  0  0  0
  1 31  1  0  0  0  0
  1 32  1  0  0  0  0
  2  3  1  0  0  0  0
  2 33  1  0  0  0  0
  2 34  1  0  0  0  0
  3 28  1  0  0  0  0
  3  4  1  0  0  0  0
  3 64  1  0  0  0  0
  4  5  1  0  0  0  0
  4 35  1  0  0  0  0
  4 36  1  0  0  0  0
  5  6  1  0  0  0  0
  5 37  1  0  0  0  0
  5 38  1  0  0  0  0
  6  7  1  0  0  0  0
  6 27  1  0  0  0  0
  6 39  1  0  0  0  0
  7  8  1  0  0  0  0
  7  9  1  0  0  0  0
  8 40  1  0  0  0  0
  8 41  1  0  0  0  0
  8 42  1  0  0  0  0
  9 14  1  0  0  0  0
  9 10  2  0  0  0  0
 10 11  1  0  0  0  0
 11 12  2  0  0  0  0
 11 43  1  0  0  0  0
 12 13  1  0  0  0  0
 13 17  1  0  0  0  0
 13 14  2  0  0  0  0
 14 15  1  0  0  0  0
 15 16  2  0  0  0  0
 16 17  1  0  0  0  0
 16 44  1  0  0  0  0
 17 18  1  0  0  0  0
 18 19  1  0  0  0  0
 18 45  1  0  0  0  0
 18 46  1  0  0  0  0
 19 20  1  0  0  0  0
 19 22  1  0  0  0  0
 19 47  1  0  0  0  0
 20 21  1  0  0  0  0
 20 48  1  0  0  0  0
 20 49  1  0  0  0  0
 21 50  1  0  0  0  0
 22 26  1  0  0  0  0
 22 23  1  0  0  0  0
 22 51  1  0  0  0  0
 23 24  1  0  0  0  0
 23 52  1  0  0  0  0
 23 53  1  0  0  0  0
 24 25  1  0  0  0  0
 24 54  1  0  0  0  0
 24 55  1  0  0  0  0
 25 26  1  0  0  0  0
 26 56  1  0  0  0  0
 26 57  1  0  0  0  0
 27 28  1  0  0  0  0
 27 58  1  0  0  0  0
 27 59  1  0  0  0  0
 28 29  1  0  0  0  0
 28 60  1  0  0  0  0
 29 61  1  0  0  0  0
 29 62  1  0  0  0  0
 29 63  1  0  0  0  0
M  CHG  1   3   1
M  END
> <s_m_source_file>
AV-unprocessed.smi

> <i_m_source_file_index>
249

> <i_lp_mmshare_version>
43012

> <i_f3d_flags>
0

> <s_epik_input>
W0NIM11bQ0gyXU4xW0NIMl1bQ0gyXVtDQEhdKFtDSDJdW0NASF0xW0NIM10pTihbQ0gzXSljKG5bY0hdbjIpYyhjMjMpbltjSF1uM1tDSDJdW0NASF0oW0NIMl1bT0hdKVtDQEBIXTRbQ0gyXVtDSDJdT1tDSDJdNA==

> <s_epik_cmdline>
J2VwaWtfcHl0aG9uJywgJy1waCcsICc3LjAnLCAnLXRuJywgJzgnLCAnLW1hJywgJzIwMCcsICctbWV0YWxfYmluZGluZycsICctaW1hZScsICc8aW5maWxlLm1hZT4nLCAnLW9tYWUnLCAnPG91dGZpbGUubWFlPic=

> <r_lp_tautomer_probability>
1

> <r_epik_Ionization_Penalty>
0.00294688

> <r_epik_Ionization_Penalty_Charging>
0.00169971

> <r_epik_Ionization_Penalty_Neutral>
0.00124717

> <r_epik_State_Penalty>
-0

> <r_epik_Charging_Adjusted_Penalty>
0.00169971

> <i_epik_Tot_Q>
1

> <i_epik_Tot_abs_Q>
1

> <r_epik_Metal_State_Penalty>
-0

> <b_epik_Metal_Only>
0

> <s_lp_Force_Field>
OPLS_2005

> <r_lp_Energy>
54.6385

> <b_lp_Chiralities_Consistent>
1

> <s_lp_Variant>
AV-unprocessed.smi:249-13

> <Gold.Version>
5.8.1

> <Gold.Id.Protein>
6NUR|6NUR_protein|mol2

> <Gold.PLP.Fitness>
51.6838

> <Gold.PLP.PLP>
-43.7243

> <Gold.PLP.part.hbond>
-3.0000

> <Gold.PLP.part.metal>
0.0000

> <Gold.PLP.part.buried>
-0.8914

> <Gold.PLP.part.nonpolar>
-40.4292

> <Gold.PLP.part.repulsive>
0.1863

> <Gold.PLP.ligand.clash>
0.0000

> <Gold.PLP.ligand.torsion>
0.9800

> <Gold.PLP.Chemscore.Hbond>
3.0000

> <Gold.PLP.Chemscore.CHOScore>
0.0000

> <Gold.PLP.Chemscore.Metal>
0.0000

> <Gold.Chemscore.Hbonds>
donor molecule, donor type, donor heavy atom, donor atom, acceptor molecule, acceptor atom, score
      L1  H     3    64       P1 10175  2.00
      P1  H  7989  7998       L1    15  0.96

> <Gold.PLP.Chemscore.Internal.Correction>
0.9197

> <Gold.Rescore>
     Score         DG    S(hbond)    S(metal)    S(lipo)     H(rot)  DE(clash)    DE(int)     intcor
     13.37     -16.47       1.55        0.00     113.18       2.90       1.42       1.68       ----

> <Gold.Chemscore.Fitness>
13.3746

> <Gold.Chemscore.DG>
-16.4722

> <Gold.Chemscore.ZeroCoef>
-5.4800

> <Gold.Chemscore.Hbond>
1.5496

> <Gold.Chemscore.Metal>
0.0000

> <Gold.Chemscore.Lipo>
113.1818

> <Gold.Chemscore.Internal_Hbond>
0.0000

> <Gold.Chemscore.DEClash>
1.4190

> <Gold.Chemscore.DEInternal>
1.6786

> <Gold.Chemscore.Rot>
2.9006

> <Gold.Chemscore.Internal.Correction>
   9.000000E+99

> <Gold.Chemscore.Hbonds>
donor molecule, donor type, donor heavy atom, donor atom, acceptor molecule, acceptor atom, score
      L1  H     3    64       P1 10175  1.00
      P1  H  7989  7998       L1    15  0.49

> <Gold.Chemscore.Hbond.Weighted>
-5.1756

> <Gold.Chemscore.Metal.Weighted>
-0.0000

> <Gold.Chemscore.Lipo.Weighted>
-13.2423

> <Gold.Chemscore.Internal_Hbond.Weighted>
0.0000

> <Gold.Chemscore.DEClash.Weighted>
1.4190

> <Gold.Chemscore.DEInternal.Weighted>
1.6786

> <Gold.Chemscore.Rot.Weighted>
7.4256

> <Gold.Chemscore.Internal.Correction.Weighted>
   9.000000E+99

> <Gold.Protein.RotatedTorsions>
[ 6907 6896 6895 6894 ] final  -57.27 input  -60.11 | X-H torsion
[ 7974 7965 7964 7962 ] final  127.39 input  175.53 | X-H torsion
[ 8008 7997 7996 7995 ] final  -49.39 input   59.86 | X-H torsion
[ 10167 10162 10161 10158 ] final  -88.09 input  -65.29 | X-H torsion
[ 10718 10713 10712 10709 ] final  130.31 input   66.30 | X-H torsion
[ 10763 10752 10751 10750 ] final  148.98 input  -60.55 | X-H torsion
[ 11005 11000 10999 10996 ] final   71.52 input  -57.11 | X-H torsion

> <Gold.Protein.ActiveResidues>
 VAL166  LYS551  ARG553  GLY616  TRP617  ASP618  TYR619  PRO620  LYS621  CYS622 
 ASP623  PHE694  ASN695  SER759  ASP760  ASP761  ALA762  ILE779  LEU786  VAL792 
 PHE793  MET794  SER795  GLU796  ALA797  LYS798  CYS799  TRP800  GLU811  SER814 

> <Gold.Protein.RotatedAtoms>
  150.8100  134.7248  159.6678 H   0  0  0  0  0  0  0  0  0  0  0  0  # atno 6907 bound_to 6896
  152.4219  134.5935  159.9990 H   0  0  0  0  0  0  0  0  0  0  0  0  # atno 6908 bound_to 6896
  151.6148  133.3307  159.3111 H   0  0  0  0  0  0  0  0  0  0  0  0  # atno 6909 bound_to 6896
  145.0511  139.3882  143.5053 H   0  0  0  0  0  0  0  0  0  0  0  0  # atno 7974 bound_to 7965
  154.4043  140.1298  156.4496 H   0  0  0  0  0  0  0  0  0  0  0  0  # atno 8008 bound_to 7997
  155.7380  140.3490  155.5070 H   0  0  0  0  0  0  0  0  0  0  0  0  # atno 8009 bound_to 7997
  155.9066  140.1028  157.1301 H   0  0  0  0  0  0  0  0  0  0  0  0  # atno 8010 bound_to 7997
  140.3781  143.2762  151.9418 H   0  0  0  0  0  0  0  0  0  0  0  0  # atno 10167 bound_to 10162
  157.5073  131.1096  150.9342 H   0  0  0  0  0  0  0  0  0  0  0  0  # atno 10718 bound_to 10713
  154.0636  135.2872  155.3320 H   0  0  0  0  0  0  0  0  0  0  0  0  # atno 10763 bound_to 10752
  154.6792  135.5270  153.8244 H   0  0  0  0  0  0  0  0  0  0  0  0  # atno 10764 bound_to 10752
  153.0513  135.6577  154.0823 H   0  0  0  0  0  0  0  0  0  0  0  0  # atno 10765 bound_to 10752
  139.9539  134.7178  156.0798 H   0  0  0  0  0  0  0  0  0  0  0  0  # atno 11005 bound_to 11000
  146.3518  140.0161  142.8662 LP  0  0  0  0  0  0  0  0  0  0  0  0  # atno 17320 bound_to 7965
  145.1526  140.9631  143.4424 LP  0  0  0  0  0  0  0  0  0  0  0  0  # atno 17321 bound_to 7965
  139.4797  144.5844  151.7878 LP  0  0  0  0  0  0  0  0  0  0  0  0  # atno 17342 bound_to 10162
  140.4965  144.1232  150.5961 LP  0  0  0  0  0  0  0  0  0  0  0  0  # atno 17343 bound_to 10162
  156.9994  130.5594  149.5310 LP  0  0  0  0  0  0  0  0  0  0  0  0  # atno 17370 bound_to 10713
  156.0267  130.5360  150.8424 LP  0  0  0  0  0  0  0  0  0  0  0  0  # atno 17371 bound_to 10713
  141.1207  133.6614  156.3208 LP  0  0  0  0  0  0  0  0  0  0  0  0  # atno 17394 bound_to 11000
  140.5654  134.5893  157.5444 LP  0  0  0  0  0  0  0  0  0  0  0  0  # atno 17395 bound_to 11000

$$$$
