AV-unprocessed.smi:910|AV-procd|sdf|4133|dock3
  -GOLD-   22720 2 33D 1   1.00000     0.00000
 Structure written by MMmdl.
 45 46  0  0  0  0  0  0  0  0  2 V2000
  147.2542  137.1185  163.4533 C   0  0  0  0  0  0  0  0  0  0  0  0
  147.5839  136.3063  162.2412 C   0  0  0  0  0  0  0  0  0  0  0  0
  148.3472  136.8114  161.2005 N   0  0  0  0  0  0  0  0  0  0  0  0
  148.4459  135.8233  160.3087 C   0  0  0  0  0  0  0  0  0  0  0  0
  149.1156  135.8693  159.1460 N   0  5  0  0  0  0  0  0  0  0  0  0
  148.4271  135.8416  157.9827 C   0  0  0  0  0  0  0  0  0  0  0  0
  147.2040  135.7356  157.8634 O   0  0  0  0  0  0  0  0  0  0  0  0
  149.2032  135.9149  156.8914 N   0  0  0  0  0  0  0  0  0  0  0  0
  148.7503  135.7699  155.5107 C   0  0  0  0  0  0  0  0  0  0  0  0
  147.8718  136.9588  155.0906 C   0  0  0  0  0  0  0  0  0  0  0  0
  148.5487  138.1630  155.4174 O   0  0  0  0  0  0  0  0  0  0  0  0
  148.8927  139.0001  154.3209 C   0  0  1  0  0  0  0  0  0  0  0  0
  148.1507  140.3530  154.4058 C   0  0  0  0  0  0  0  0  0  0  0  0
  148.5578  141.1495  155.6568 C   0  0  0  0  0  0  0  0  0  0  0  0
  150.0784  141.3548  155.7184 C   0  0  0  0  0  0  0  0  0  0  0  0
  150.8300  140.0176  155.6209 C   0  0  0  0  0  0  0  0  0  0  0  0
  150.4213  139.2243  154.3616 C   0  0  1  0  0  0  0  0  0  0  0  0
  151.2020  137.9063  154.2395 C   0  0  0  0  0  0  0  0  0  0  0  0
  147.7717  134.7063  160.7039 O   0  0  0  0  0  0  0  0  0  0  0  0
  147.2364  135.0209  161.9230 C   0  0  0  0  0  0  0  0  0  0  0  0
  146.4355  133.9776  162.6249 C   0  0  0  0  0  0  0  0  0  0  0  0
  146.3469  137.7021  163.2976 H   0  0  0  0  0  0  0  0  0  0  0  0
  148.0587  137.8135  163.6953 H   0  0  0  0  0  0  0  0  0  0  0  0
  147.0947  136.4833  164.3247 H   0  0  0  0  0  0  0  0  0  0  0  0
  150.1973  136.0091  157.0376 H   0  0  0  0  0  0  0  0  0  0  0  0
  149.5946  135.6513  154.8297 H   0  0  0  0  0  0  0  0  0  0  0  0
  148.1709  134.8489  155.4473 H   0  0  0  0  0  0  0  0  0  0  0  0
  147.6886  136.9307  154.0159 H   0  0  0  0  0  0  0  0  0  0  0  0
  146.9039  136.8908  155.5862 H   0  0  0  0  0  0  0  0  0  0  0  0
  148.6346  138.4983  153.3868 H   0  0  0  0  0  0  0  0  0  0  0  0
  148.3831  140.9428  153.5184 H   0  0  0  0  0  0  0  0  0  0  0  0
  147.0708  140.2127  154.3920 H   0  0  0  0  0  0  0  0  0  0  0  0
  148.0530  142.1155  155.6639 H   0  0  0  0  0  0  0  0  0  0  0  0
  148.2242  140.6239  156.5513 H   0  0  0  0  0  0  0  0  0  0  0  0
  150.3911  142.0090  154.9037 H   0  0  0  0  0  0  0  0  0  0  0  0
  150.3451  141.8637  156.6451 H   0  0  0  0  0  0  0  0  0  0  0  0
  151.9039  140.2051  155.6114 H   0  0  0  0  0  0  0  0  0  0  0  0
  150.6312  139.4247  156.5147 H   0  0  0  0  0  0  0  0  0  0  0  0
  150.6863  139.8295  153.4933 H   0  0  0  0  0  0  0  0  0  0  0  0
  151.0135  137.2502  155.0899 H   0  0  0  0  0  0  0  0  0  0  0  0
  152.2756  138.0902  154.1958 H   0  0  0  0  0  0  0  0  0  0  0  0
  150.9225  137.3675  153.3340 H   0  0  0  0  0  0  0  0  0  0  0  0
  146.9516  133.6348  163.5216 H   0  0  0  0  0  0  0  0  0  0  0  0
  146.2659  133.1145  161.9809 H   0  0  0  0  0  0  0  0  0  0  0  0
  145.4644  134.3731  162.9229 H   0  0  0  0  0  0  0  0  0  0  0  0
  1 22  1  0  0  0  0
  1 23  1  0  0  0  0
  1 24  1  0  0  0  0
  1  2  1  0  0  0  0
  2  3  1  0  0  0  0
  2 20  2  0  0  0  0
  3  4  2  0  0  0  0
  4 19  1  0  0  0  0
  4  5  1  0  0  0  0
  5  6  1  0  0  0  0
  6  8  1  0  0  0  0
  6  7  2  0  0  0  0
  8  9  1  0  0  0  0
  8 25  1  0  0  0  0
  9 10  1  0  0  0  0
  9 26  1  0  0  0  0
  9 27  1  0  0  0  0
 10 11  1  0  0  0  0
 10 28  1  0  0  0  0
 10 29  1  0  0  0  0
 11 12  1  0  0  0  0
 12 17  1  0  0  0  0
 12 13  1  0  0  0  0
 12 30  1  0  0  0  0
 13 14  1  0  0  0  0
 13 31  1  0  0  0  0
 13 32  1  0  0  0  0
 14 15  1  0  0  0  0
 14 33  1  0  0  0  0
 14 34  1  0  0  0  0
 15 16  1  0  0  0  0
 15 35  1  0  0  0  0
 15 36  1  0  0  0  0
 16 17  1  0  0  0  0
 16 37  1  0  0  0  0
 16 38  1  0  0  0  0
 17 18  1  0  0  0  0
 17 39  1  0  0  0  0
 18 40  1  0  0  0  0
 18 41  1  0  0  0  0
 18 42  1  0  0  0  0
 19 20  1  0  0  0  0
 20 21  1  0  0  0  0
 21 43  1  0  0  0  0
 21 44  1  0  0  0  0
 21 45  1  0  0  0  0
M  CHG  1   5  -1
M  END
> <s_m_source_file>
AV-unprocessed.smi

> <i_m_source_file_index>
910

> <i_lp_mmshare_version>
43012

> <i_f3d_flags>
0

> <s_epik_input>
W0NIM11jMW5jKG9jMVtDSDNdKVtOSF1DKD1PKVtOSF1bQ0gyXVtDSDJdT1tDQEBIXTJbQ0gyXVtDSDJdW0NIMl1bQ0gyXVtDQEhdMltDSDNd

> <s_epik_cmdline>
J2VwaWtfcHl0aG9uJywgJy1waCcsICc3LjAnLCAnLXRuJywgJzgnLCAnLW1hJywgJzIwMCcsICctbWV0YWxfYmluZGluZycsICctaW1hZScsICc8aW5maWxlLm1hZT4nLCAnLW9tYWUnLCAnPG91dGZpbGUubWFlPic=

> <r_lp_tautomer_probability>
0.107061

> <r_epik_Ionization_Penalty>
10.1763

> <r_epik_Ionization_Penalty_Charging>
7.13067

> <r_epik_Ionization_Penalty_Neutral>
3.04564

> <r_epik_State_Penalty>
5.57927

> <r_epik_Charging_Adjusted_Penalty>
12.7099

> <i_epik_Tot_Q>
-1

> <i_epik_Tot_abs_Q>
1

> <r_epik_Metal_State_Penalty>
1.52303

> <b_epik_Metal_Only>
1

> <s_lp_Force_Field>
OPLS_2005

> <r_lp_Energy>
4.58121

> <b_lp_Chiralities_Consistent>
1

> <s_lp_Variant>
AV-unprocessed.smi:910-18

> <Gold.Version>
5.8.1

> <Gold.Id.Protein>
6NUR|6NUR_protein|mol2

> <Gold.PLP.Fitness>
43.3917

> <Gold.PLP.PLP>
-37.3537

> <Gold.PLP.part.hbond>
-2.9957

> <Gold.PLP.part.metal>
0.0000

> <Gold.PLP.part.buried>
-0.5479

> <Gold.PLP.part.nonpolar>
-32.5946

> <Gold.PLP.part.repulsive>
0.1238

> <Gold.PLP.ligand.clash>
0.0000

> <Gold.PLP.ligand.torsion>
1.8229

> <Gold.PLP.Chemscore.Hbond>
3.1825

> <Gold.PLP.Chemscore.CHOScore>
0.0000

> <Gold.PLP.Chemscore.Metal>
0.0000

> <Gold.Chemscore.Hbonds>
donor molecule, donor type, donor heavy atom, donor atom, acceptor molecule, acceptor atom, score
      P1  H  6896  6908       L1     5  1.95
      P1  H  6931  6943       L1     3  1.00

> <Gold.PLP.Chemscore.Internal.Correction>
0.1362

> <Gold.Rescore>
     Score         DG    S(hbond)    S(metal)    S(lipo)     H(rot)  DE(clash)    DE(int)     intcor
     14.92     -16.98       1.64        0.00      86.94       1.62       0.18       1.88       ----

> <Gold.Chemscore.Fitness>
14.9201

> <Gold.Chemscore.DG>
-16.9798

> <Gold.Chemscore.ZeroCoef>
-5.4800

> <Gold.Chemscore.Hbond>
1.6368

> <Gold.Chemscore.Metal>
0.0000

> <Gold.Chemscore.Lipo>
86.9423

> <Gold.Chemscore.Internal_Hbond>
0.0000

> <Gold.Chemscore.DEClash>
0.1752

> <Gold.Chemscore.DEInternal>
1.8845

> <Gold.Chemscore.Rot>
1.6169

> <Gold.Chemscore.Internal.Correction>
   9.000000E+99

> <Gold.Chemscore.Hbonds>
donor molecule, donor type, donor heavy atom, donor atom, acceptor molecule, acceptor atom, score
      P1  H  6896  6908       L1     5  0.23
      P1  H  6931  6943       L1     3  0.40

> <Gold.Chemscore.Hbond.Weighted>
-5.4668

> <Gold.Chemscore.Metal.Weighted>
-0.0000

> <Gold.Chemscore.Lipo.Weighted>
-10.1722

> <Gold.Chemscore.Internal_Hbond.Weighted>
0.0000

> <Gold.Chemscore.DEClash.Weighted>
0.1752

> <Gold.Chemscore.DEInternal.Weighted>
1.8845

> <Gold.Chemscore.Rot.Weighted>
4.1393

> <Gold.Chemscore.Internal.Correction.Weighted>
   9.000000E+99

> <Gold.Protein.RotatedTorsions>
[ 6907 6896 6895 6894 ] final  175.26 input  -60.11 | X-H torsion
[ 7974 7965 7964 7962 ] final -173.22 input  175.53 | X-H torsion
[ 8008 7997 7996 7995 ] final   73.68 input   59.86 | X-H torsion
[ 10167 10162 10161 10158 ] final  152.71 input  -65.29 | X-H torsion
[ 10718 10713 10712 10709 ] final -161.93 input   66.30 | X-H torsion
[ 10763 10752 10751 10750 ] final   84.08 input  -60.55 | X-H torsion
[ 11005 11000 10999 10996 ] final   41.45 input  -57.11 | X-H torsion

> <Gold.Protein.ActiveResidues>
 VAL166  LYS551  ARG553  GLY616  TRP617  ASP618  TYR619  PRO620  LYS621  CYS622 
 ASP623  PHE694  ASN695  SER759  ASP760  ASP761  ALA762  ILE779  LEU786  VAL792 
 PHE793  MET794  SER795  GLU796  ALA797  LYS798  CYS799  TRP800  GLU811  SER814 

> <Gold.Protein.RotatedAtoms>
  151.7391  133.3321  159.3360 H   0  0  0  0  0  0  0  0  0  0  0  0  # atno 6907 bound_to 6896
  150.7580  134.6294  159.6187 H   0  0  0  0  0  0  0  0  0  0  0  0  # atno 6908 bound_to 6896
  152.3542  134.6966  160.0279 H   0  0  0  0  0  0  0  0  0  0  0  0  # atno 6909 bound_to 6896
  144.7139  140.1655  143.6372 H   0  0  0  0  0  0  0  0  0  0  0  0  # atno 7974 bound_to 7965
  155.7873  140.3480  155.5330 H   0  0  0  0  0  0  0  0  0  0  0  0  # atno 8008 bound_to 7997
  155.8669  140.0980  157.1597 H   0  0  0  0  0  0  0  0  0  0  0  0  # atno 8009 bound_to 7997
  154.4015  140.1348  156.4017 H   0  0  0  0  0  0  0  0  0  0  0  0  # atno 8010 bound_to 7997
  139.4831  144.5335  151.7684 H   0  0  0  0  0  0  0  0  0  0  0  0  # atno 10167 bound_to 10162
  156.6032  130.8819  151.2919 H   0  0  0  0  0  0  0  0  0  0  0  0  # atno 10718 bound_to 10713
  153.1349  135.4667  154.9407 H   0  0  0  0  0  0  0  0  0  0  0  0  # atno 10763 bound_to 10752
  154.7697  135.3155  154.8217 H   0  0  0  0  0  0  0  0  0  0  0  0  # atno 10764 bound_to 10752
  153.8751  135.6899  153.4825 H   0  0  0  0  0  0  0  0  0  0  0  0  # atno 10765 bound_to 10752
  140.1833  134.4077  155.8188 H   0  0  0  0  0  0  0  0  0  0  0  0  # atno 11005 bound_to 11000
  145.8991  139.2420  143.1504 LP  0  0  0  0  0  0  0  0  0  0  0  0  # atno 17320 bound_to 7965
  145.9828  140.8668  143.0106 LP  0  0  0  0  0  0  0  0  0  0  0  0  # atno 17321 bound_to 7965
  140.4864  144.1374  150.5942 LP  0  0  0  0  0  0  0  0  0  0  0  0  # atno 17342 bound_to 10162
  140.4220  143.2607  151.9703 LP  0  0  0  0  0  0  0  0  0  0  0  0  # atno 17343 bound_to 10162
  157.7274  130.9642  150.1697 LP  0  0  0  0  0  0  0  0  0  0  0  0  # atno 17370 bound_to 10713
  156.2452  130.3695  149.8293 LP  0  0  0  0  0  0  0  0  0  0  0  0  # atno 17371 bound_to 10713
  141.2224  133.7011  156.7968 LP  0  0  0  0  0  0  0  0  0  0  0  0  # atno 17394 bound_to 11000
  140.2243  134.8734  157.3410 LP  0  0  0  0  0  0  0  0  0  0  0  0  # atno 17395 bound_to 11000

$$$$
