AV-unprocessed.smi:1644|AV-procd|sdf|6587|dock5
  -GOLD-   22720 7283D 1   1.00000     0.00000
 Structure written by MMmdl.
 49 51  0  0  0  0  0  0  0  0  1 V2000
  143.8786  146.7349  155.5124 C   0  0  0  0  0  0  0  0  0  0  0  0
  143.5434  145.7074  154.4265 C   0  0  0  0  0  0  0  0  0  0  0  0
  143.7306  144.2559  154.9132 C   0  0  0  0  0  0  0  0  0  0  0  0
  145.1734  143.8571  155.2981 C   0  0  1  0  0  0  0  0  0  0  0  0
  145.2311  142.8219  156.3090 N   0  0  0  0  0  0  0  0  0  0  0  0
  145.9157  141.7454  155.9018 C   0  0  0  0  0  0  0  0  0  0  0  0
  146.0968  140.7306  156.5726 O   0  0  0  0  0  0  0  0  0  0  0  0
  146.3622  141.9697  154.6504 N   0  0  0  0  0  0  0  0  0  0  0  0
  147.1586  141.0150  153.8655 C   0  0  0  0  0  0  0  0  0  0  0  0
  148.5677  140.7297  154.4467 C   0  0  1  0  0  0  0  0  0  0  0  0
  149.5187  141.1253  153.4808 O   0  0  0  0  0  0  0  0  0  0  0  0
  148.9238  141.4510  155.7673 C   0  0  0  0  0  0  0  0  0  0  0  0
  150.0804  140.9061  156.4571 N   0  0  0  0  0  0  0  0  0  0  0  0
  150.6800  139.7253  156.2091 C   0  0  0  0  0  0  0  0  0  0  0  0
  151.7384  139.4107  156.9498 N   0  0  0  0  0  0  0  0  0  0  0  0
  151.8227  140.5046  157.7925 C   0  0  0  0  0  0  0  0  0  0  0  0
  152.7478  140.7987  158.8174 C   0  0  0  0  0  0  0  0  0  0  0  0
  152.6481  141.9949  159.5622 C   0  0  0  0  0  0  0  0  0  0  0  0
  153.6703  142.2758  160.6493 C   0  0  0  0  0  0  0  0  0  0  0  0
  151.6030  142.9140  159.2922 C   0  0  0  0  0  0  0  0  0  0  0  0
  151.4752  144.2067  160.0783 C   0  0  0  0  0  0  0  0  0  0  0  0
  150.6668  142.6325  158.2759 C   0  0  0  0  0  0  0  0  0  0  0  0
  150.7872  141.4483  157.5271 C   0  0  0  0  0  0  0  0  0  0  0  0
  145.9473  143.1601  154.1947 C   0  0  0  0  0  0  0  0  0  0  0  0
  146.1434  143.6461  153.0810 O   0  0  0  0  0  0  0  0  0  0  0  0
  143.7246  147.7500  155.1462 H   0  0  0  0  0  0  0  0  0  0  0  0
  144.9186  146.6492  155.8281 H   0  0  0  0  0  0  0  0  0  0  0  0
  143.2480  146.5992  156.3914 H   0  0  0  0  0  0  0  0  0  0  0  0
  142.5140  145.8616  154.1019 H   0  0  0  0  0  0  0  0  0  0  0  0
  144.1732  145.8973  153.5569 H   0  0  0  0  0  0  0  0  0  0  0  0
  143.0757  144.0772  155.7671 H   0  0  0  0  0  0  0  0  0  0  0  0
  143.3845  143.5783  154.1318 H   0  0  0  0  0  0  0  0  0  0  0  0
  145.7355  144.7281  155.6374 H   0  0  0  0  0  0  0  0  0  0  0  0
  144.7935  142.9124  157.2144 H   0  0  0  0  0  0  0  0  0  0  0  0
  146.5860  140.0863  153.8348 H   0  0  0  0  0  0  0  0  0  0  0  0
  147.2493  141.3307  152.8249 H   0  0  0  0  0  0  0  0  0  0  0  0
  148.7087  139.6577  154.5707 H   0  0  0  0  0  0  0  0  0  0  0  0
  149.2650  140.7651  152.6447 H   0  0  0  0  0  0  0  0  0  0  0  0
  149.1213  142.5062  155.5734 H   0  0  0  0  0  0  0  0  0  0  0  0
  148.0710  141.4164  156.4472 H   0  0  0  0  0  0  0  0  0  0  0  0
  150.3330  139.0676  155.4256 H   0  0  0  0  0  0  0  0  0  0  0  0
  153.5409  140.0957  159.0250 H   0  0  0  0  0  0  0  0  0  0  0  0
  153.1794  142.3858  161.6163 H   0  0  0  0  0  0  0  0  0  0  0  0
  154.2168  143.1935  160.4312 H   0  0  0  0  0  0  0  0  0  0  0  0
  154.3962  141.4664  160.7326 H   0  0  0  0  0  0  0  0  0  0  0  0
  150.6366  144.8063  159.7238 H   0  0  0  0  0  0  0  0  0  0  0  0
  152.3799  144.8065  159.9777 H   0  0  0  0  0  0  0  0  0  0  0  0
  151.3136  143.9961  161.1354 H   0  0  0  0  0  0  0  0  0  0  0  0
  149.8695  143.3282  158.0629 H   0  0  0  0  0  0  0  0  0  0  0  0
  1  2  1  0  0  0  0
  1 26  1  0  0  0  0
  1 27  1  0  0  0  0
  1 28  1  0  0  0  0
  2  3  1  0  0  0  0
  2 29  1  0  0  0  0
  2 30  1  0  0  0  0
  3  4  1  0  0  0  0
  3 31  1  0  0  0  0
  3 32  1  0  0  0  0
  4 24  1  0  0  0  0
  4  5  1  0  0  0  0
  4 33  1  0  0  0  0
  5  6  1  0  0  0  0
  5 34  1  0  0  0  0
  6  7  2  0  0  0  0
  6  8  1  0  0  0  0
  8  9  1  0  0  0  0
  8 24  1  0  0  0  0
  9 10  1  0  0  0  0
  9 35  1  0  0  0  0
  9 36  1  0  0  0  0
 10 11  1  0  0  0  0
 10 12  1  0  0  0  0
 10 37  1  0  0  0  0
 11 38  1  0  0  0  0
 12 13  1  0  0  0  0
 12 39  1  0  0  0  0
 12 40  1  0  0  0  0
 13 23  1  0  0  0  0
 13 14  1  0  0  0  0
 14 15  2  0  0  0  0
 14 41  1  0  0  0  0
 15 16  1  0  0  0  0
 16 23  2  0  0  0  0
 16 17  1  0  0  0  0
 17 18  2  0  0  0  0
 17 42  1  0  0  0  0
 18 19  1  0  0  0  0
 18 20  1  0  0  0  0
 19 43  1  0  0  0  0
 19 44  1  0  0  0  0
 19 45  1  0  0  0  0
 20 21  1  0  0  0  0
 20 22  2  0  0  0  0
 21 46  1  0  0  0  0
 21 47  1  0  0  0  0
 21 48  1  0  0  0  0
 22 23  1  0  0  0  0
 22 49  1  0  0  0  0
 24 25  2  0  0  0  0
M  END
> <s_m_source_file>
AV-unprocessed.smi

> <i_m_source_file_index>
1644

> <i_lp_mmshare_version>
43012

> <i_f3d_flags>
0

> <s_epik_input>
W0NIM11bQ0gyXVtDSDJdW0NAQEhdMVtOSF1DKD1PKU4oQzE9TylbQ0gyXVtDQEhdKFtPSF0pW0NIMl1uKFtjSF1uMiljKGMyMylbY0hdYyhbQ0gzXSljKFtjSF0zKVtDSDNd

> <s_epik_cmdline>
J2VwaWtfcHl0aG9uJywgJy1waCcsICc3LjAnLCAnLXRuJywgJzgnLCAnLW1hJywgJzIwMCcsICctbWV0YWxfYmluZGluZycsICctaW1hZScsICc8aW5maWxlLm1hZT4nLCAnLW9tYWUnLCAnPG91dGZpbGUubWFlPic=

> <r_lp_tautomer_probability>
1

> <r_epik_Ionization_Penalty>
0.10693

> <r_epik_Ionization_Penalty_Charging>
0

> <r_epik_Ionization_Penalty_Neutral>
0.10693

> <r_epik_State_Penalty>
0.096713

> <r_epik_Charging_Adjusted_Penalty>
0.096713

> <i_epik_Tot_Q>
0

> <i_epik_Tot_abs_Q>
0

> <r_epik_Metal_State_Penalty>
0.102757

> <b_epik_Metal_Only>
0

> <s_lp_Force_Field>
OPLS_2005

> <r_lp_Energy>
20.3603

> <b_lp_Chiralities_Consistent>
1

> <s_lp_Variant>
AV-unprocessed.smi:1644-4

> <Gold.Version>
5.8.1

> <Gold.Id.Protein>
6NUR|6NUR_protein|mol2

> <Gold.PLP.Fitness>
47.3386

> <Gold.PLP.PLP>
-46.6394

> <Gold.PLP.part.hbond>
-4.0000

> <Gold.PLP.part.metal>
0.0000

> <Gold.PLP.part.buried>
-4.4815

> <Gold.PLP.part.nonpolar>
-38.7373

> <Gold.PLP.part.repulsive>
0.2294

> <Gold.PLP.ligand.clash>
0.0000

> <Gold.PLP.ligand.torsion>
1.4478

> <Gold.PLP.Chemscore.Hbond>
1.1560

> <Gold.PLP.Chemscore.CHOScore>
0.0000

> <Gold.PLP.Chemscore.Metal>
0.0000

> <Gold.Chemscore.Hbonds>
donor molecule, donor type, donor heavy atom, donor atom, acceptor molecule, acceptor atom, score
      L1  H    11    38       P1  7957  1.00
      P1  H  7989  7998       L1    11  0.18

> <Gold.PLP.Chemscore.Internal.Correction>
0.1269

> <Gold.Rescore>
     Score         DG    S(hbond)    S(metal)    S(lipo)     H(rot)  DE(clash)    DE(int)     intcor
     12.24     -14.20       1.02        0.00     104.94       2.72       0.11       1.85       ----

> <Gold.Chemscore.Fitness>
12.2352

> <Gold.Chemscore.DG>
-14.1961

> <Gold.Chemscore.ZeroCoef>
-5.4800

> <Gold.Chemscore.Hbond>
1.0192

> <Gold.Chemscore.Metal>
0.0000

> <Gold.Chemscore.Lipo>
104.9431

> <Gold.Chemscore.Internal_Hbond>
0.0000

> <Gold.Chemscore.DEClash>
0.1105

> <Gold.Chemscore.DEInternal>
1.8504

> <Gold.Chemscore.Rot>
2.7212

> <Gold.Chemscore.Internal.Correction>
   9.000000E+99

> <Gold.Chemscore.Hbonds>
donor molecule, donor type, donor heavy atom, donor atom, acceptor molecule, acceptor atom, score
      L1  H    11    38       P1  7957  0.97
      P1  H  7989  7998       L1    11  0.06

> <Gold.Chemscore.Hbond.Weighted>
-3.4040

> <Gold.Chemscore.Metal.Weighted>
-0.0000

> <Gold.Chemscore.Lipo.Weighted>
-12.2783

> <Gold.Chemscore.Internal_Hbond.Weighted>
0.0000

> <Gold.Chemscore.DEClash.Weighted>
0.1105

> <Gold.Chemscore.DEInternal.Weighted>
1.8504

> <Gold.Chemscore.Rot.Weighted>
6.9663

> <Gold.Chemscore.Internal.Correction.Weighted>
   9.000000E+99

> <Gold.Protein.RotatedTorsions>
[ 6907 6896 6895 6894 ] final  -44.42 input  -60.11 | X-H torsion
[ 7974 7965 7964 7962 ] final  -27.06 input  175.53 | X-H torsion
[ 8008 7997 7996 7995 ] final   35.05 input   59.86 | X-H torsion
[ 10167 10162 10161 10158 ] final -146.15 input  -65.29 | X-H torsion
[ 10718 10713 10712 10709 ] final   34.64 input   66.30 | X-H torsion
[ 10763 10752 10751 10750 ] final   -7.62 input  -60.55 | X-H torsion
[ 11005 11000 10999 10996 ] final -121.83 input  -57.11 | X-H torsion

> <Gold.Protein.ActiveResidues>
 VAL166  LYS551  ARG553  GLY616  TRP617  ASP618  TYR619  PRO620  LYS621  CYS622 
 ASP623  PHE694  ASN695  SER759  ASP760  ASP761  ALA762  ILE779  LEU786  VAL792 
 PHE793  MET794  SER795  GLU796  ALA797  LYS798  CYS799  TRP800  GLU811  SER814 

> <Gold.Protein.RotatedAtoms>
  150.9331  134.8745  159.7563 H   0  0  0  0  0  0  0  0  0  0  0  0  # atno 6907 bound_to 6896
  152.5047  134.4050  159.9439 H   0  0  0  0  0  0  0  0  0  0  0  0  # atno 6908 bound_to 6896
  151.4076  133.3697  159.2775 H   0  0  0  0  0  0  0  0  0  0  0  0  # atno 6909 bound_to 6896
  146.1383  140.5102  142.8663 H   0  0  0  0  0  0  0  0  0  0  0  0  # atno 7974 bound_to 7965
  155.1647  140.3286  155.4404 H   0  0  0  0  0  0  0  0  0  0  0  0  # atno 8008 bound_to 7997
  156.2530  140.1954  156.6704 H   0  0  0  0  0  0  0  0  0  0  0  0  # atno 8009 bound_to 7997
  154.6380  140.0574  156.9798 H   0  0  0  0  0  0  0  0  0  0  0  0  # atno 8010 bound_to 7997
  139.7739  143.8197  152.2629 H   0  0  0  0  0  0  0  0  0  0  0  0  # atno 10167 bound_to 10162
  157.3128  130.7408  149.6735 H   0  0  0  0  0  0  0  0  0  0  0  0  # atno 10718 bound_to 10713
  153.4289  135.7011  153.6244 H   0  0  0  0  0  0  0  0  0  0  0  0  # atno 10763 bound_to 10752
  153.4667  135.3724  155.2368 H   0  0  0  0  0  0  0  0  0  0  0  0  # atno 10764 bound_to 10752
  154.8725  135.4033  154.3669 H   0  0  0  0  0  0  0  0  0  0  0  0  # atno 10765 bound_to 10752
  141.0041  134.0360  157.3500 H   0  0  0  0  0  0  0  0  0  0  0  0  # atno 11005 bound_to 11000
  144.7764  140.5749  143.6635 LP  0  0  0  0  0  0  0  0  0  0  0  0  # atno 17320 bound_to 7965
  145.5105  139.1479  143.3607 LP  0  0  0  0  0  0  0  0  0  0  0  0  # atno 17321 bound_to 7965
  139.8240  144.7283  150.9536 LP  0  0  0  0  0  0  0  0  0  0  0  0  # atno 17342 bound_to 10162
  140.7815  143.4132  151.0959 LP  0  0  0  0  0  0  0  0  0  0  0  0  # atno 17343 bound_to 10162
  155.9679  130.4246  150.4617 LP  0  0  0  0  0  0  0  0  0  0  0  0  # atno 17370 bound_to 10713
  157.2618  131.0568  151.2315 LP  0  0  0  0  0  0  0  0  0  0  0  0  # atno 17371 bound_to 10713
  139.9054  135.0178  156.7461 LP  0  0  0  0  0  0  0  0  0  0  0  0  # atno 17394 bound_to 11000
  140.6841  133.9448  155.7927 LP  0  0  0  0  0  0  0  0  0  0  0  0  # atno 17395 bound_to 11000

$$$$
