AV-unprocessed.smi:1918|AV-procd|sdf|7772|dock3
  -GOLD-   22720 9513D 1   1.00000     0.00000
 Structure written by MMmdl.
 36 38  0  0  0  0  0  0  0  0  2 V2000
  151.8559  137.5236  154.9207 C   0  0  0  0  0  0  0  0  0  0  0  0
  150.7196  138.4540  154.6599 C   0  0  0  0  0  0  0  0  0  0  0  0
  149.6012  138.1710  153.9340 N   0  3  0  0  0  0  0  0  0  0  0  0
  148.7614  139.2858  153.9067 C   0  0  0  0  0  0  0  0  0  0  0  0
  147.5237  139.4814  153.3016 C   0  0  0  0  0  0  0  0  0  0  0  0
  146.9310  140.7502  153.4694 C   0  0  0  0  0  0  0  0  0  0  0  0
  147.5661  141.7653  154.2147 C   0  0  0  0  0  0  0  0  0  0  0  0
  148.8209  141.5555  154.8236 C   0  0  0  0  0  0  0  0  0  0  0  0
  149.3993  140.2983  154.6522 C   0  0  0  0  0  0  0  0  0  0  0  0
  150.6015  139.7399  155.0981 N   0  0  0  0  0  0  0  0  0  0  0  0
  151.5093  140.5549  155.9190 C   0  0  0  0  0  0  0  0  0  0  0  0
  151.7805  139.9405  157.3067 C   0  0  1  0  0  0  0  0  0  0  0  0
  152.9603  139.1597  157.2623 O   0  0  0  0  0  0  0  0  0  0  0  0
  151.8275  141.0173  158.3824 C   0  0  0  0  0  0  0  0  0  0  0  0
  151.3271  142.3140  158.1255 C   0  0  0  0  0  0  0  0  0  0  0  0
  151.3647  143.3029  159.1275 C   0  0  0  0  0  0  0  0  0  0  0  0
  151.8988  143.0019  160.3946 C   0  0  0  0  0  0  0  0  0  0  0  0
  151.9341  143.9525  161.3582 F   0  0  0  0  0  0  0  0  0  0  0  0
  152.3921  141.7105  160.6602 C   0  0  0  0  0  0  0  0  0  0  0  0
  152.3544  140.7195  159.6599 C   0  0  0  0  0  0  0  0  0  0  0  0
  152.8231  139.4780  159.9352 F   0  0  0  0  0  0  0  0  0  0  0  0
  151.6325  136.5280  154.5363 H   0  0  0  0  0  0  0  0  0  0  0  0
  152.0432  137.4472  155.9918 H   0  0  0  0  0  0  0  0  0  0  0  0
  152.7598  137.8900  154.4336 H   0  0  0  0  0  0  0  0  0  0  0  0
  147.0353  138.7054  152.7306 H   0  0  0  0  0  0  0  0  0  0  0  0
  145.9701  140.9490  153.0174 H   0  0  0  0  0  0  0  0  0  0  0  0
  147.0813  142.7249  154.3216 H   0  0  0  0  0  0  0  0  0  0  0  0
  149.2997  142.3387  155.3930 H   0  0  0  0  0  0  0  0  0  0  0  0
  152.4426  140.6735  155.3673 H   0  0  0  0  0  0  0  0  0  0  0  0
  151.0805  141.5536  156.0123 H   0  0  0  0  0  0  0  0  0  0  0  0
  150.9749  139.2485  157.5531 H   0  0  0  0  0  0  0  0  0  0  0  0
  152.7248  138.2742  157.0301 H   0  0  0  0  0  0  0  0  0  0  0  0
  150.9077  142.5569  157.1600 H   0  0  0  0  0  0  0  0  0  0  0  0
  150.9820  144.2924  158.9242 H   0  0  0  0  0  0  0  0  0  0  0  0
  152.7979  141.4784  161.6339 H   0  0  0  0  0  0  0  0  0  0  0  0
  149.4275  137.2783  153.4904 H   0  0  0  0  0  0  0  0  0  0  0  0
  1  2  1  0  0  0  0
  1 22  1  0  0  0  0
  1 23  1  0  0  0  0
  1 24  1  0  0  0  0
  2 10  1  0  0  0  0
  2  3  2  0  0  0  0
  3  4  1  0  0  0  0
  3 36  1  0  0  0  0
  4  9  2  0  0  0  0
  4  5  1  0  0  0  0
  5  6  2  0  0  0  0
  5 25  1  0  0  0  0
  6  7  1  0  0  0  0
  6 26  1  0  0  0  0
  7  8  2  0  0  0  0
  7 27  1  0  0  0  0
  8  9  1  0  0  0  0
  8 28  1  0  0  0  0
  9 10  1  0  0  0  0
 10 11  1  0  0  0  0
 11 12  1  0  0  0  0
 11 29  1  0  0  0  0
 11 30  1  0  0  0  0
 12 13  1  0  0  0  0
 12 14  1  0  0  0  0
 12 31  1  0  0  0  0
 13 32  1  0  0  0  0
 14 20  1  0  0  0  0
 14 15  2  0  0  0  0
 15 16  1  0  0  0  0
 15 33  1  0  0  0  0
 16 17  2  0  0  0  0
 16 34  1  0  0  0  0
 17 18  1  0  0  0  0
 17 19  1  0  0  0  0
 19 20  2  0  0  0  0
 19 35  1  0  0  0  0
 20 21  1  0  0  0  0
M  CHG  1   3   1
M  END
> <s_m_source_file>
AV-unprocessed.smi

> <i_m_source_file_index>
1918

> <i_lp_mmshare_version>
43012

> <i_f3d_flags>
0

> <s_epik_input>
W2NIXTFbY0hdW2NIXVtjSF1jKGMxMiluKGMobjIpW0NIM10pW0NIMl1bQ0BIXShbT0hdKWMzW2NIXVtjSF1jKEYpW2NIXWMzRg==

> <s_epik_cmdline>
J2VwaWtfcHl0aG9uJywgJy1waCcsICc3LjAnLCAnLXRuJywgJzgnLCAnLW1hJywgJzIwMCcsICctbWV0YWxfYmluZGluZycsICctaW1hZScsICc8aW5maWxlLm1hZT4nLCAnLW9tYWUnLCAnPG91dGZpbGUubWFlPic=

> <r_epik_Ionization_Penalty>
0.963869

> <r_epik_Ionization_Penalty_Charging>
0.963868

> <r_epik_Ionization_Penalty_Neutral>
1.79538e-06

> <r_epik_State_Penalty>
1.00924

> <r_epik_Charging_Adjusted_Penalty>
1.9731

> <i_epik_Tot_Q>
1

> <i_epik_Tot_abs_Q>
1

> <r_epik_Metal_State_Penalty>
4.98304

> <b_epik_Metal_Only>
0

> <s_lp_Force_Field>
OPLS_2005

> <r_lp_Energy>
14.6769

> <b_lp_Chiralities_Consistent>
1

> <s_lp_Variant>
AV-unprocessed.smi:1918-4

> <Gold.Version>
5.8.1

> <Gold.Id.Protein>
6NUR|6NUR_protein|mol2

> <Gold.PLP.Fitness>
55.3986

> <Gold.PLP.PLP>
-48.2407

> <Gold.PLP.part.hbond>
-2.6748

> <Gold.PLP.part.metal>
0.0000

> <Gold.PLP.part.buried>
1.5897

> <Gold.PLP.part.nonpolar>
-46.3918

> <Gold.PLP.part.repulsive>
0.0480

> <Gold.PLP.ligand.clash>
0.0000

> <Gold.PLP.ligand.torsion>
0.9336

> <Gold.PLP.Chemscore.Hbond>
3.0000

> <Gold.PLP.Chemscore.CHOScore>
0.0000

> <Gold.PLP.Chemscore.Metal>
0.0000

> <Gold.Chemscore.Hbonds>
donor molecule, donor type, donor heavy atom, donor atom, acceptor molecule, acceptor atom, score
      L1  H     3    36       P1  7948  1.98
      P1  H  7997  8010       L1    13  1.00

> <Gold.PLP.Chemscore.Internal.Correction>
0.0250

> <Gold.Rescore>
     Score         DG    S(hbond)    S(metal)    S(lipo)     H(rot)  DE(clash)    DE(int)     intcor
     16.02     -19.68       1.60        0.00     118.05       1.94       1.39       2.27       ----

> <Gold.Chemscore.Fitness>
16.0199

> <Gold.Chemscore.DG>
-19.6836

> <Gold.Chemscore.ZeroCoef>
-5.4800

> <Gold.Chemscore.Hbond>
1.6022

> <Gold.Chemscore.Metal>
0.0000

> <Gold.Chemscore.Lipo>
118.0535

> <Gold.Chemscore.Internal_Hbond>
0.0000

> <Gold.Chemscore.DEClash>
1.3917

> <Gold.Chemscore.DEInternal>
2.2720

> <Gold.Chemscore.Rot>
1.9375

> <Gold.Chemscore.Internal.Correction>
   9.000000E+99

> <Gold.Chemscore.Hbonds>
donor molecule, donor type, donor heavy atom, donor atom, acceptor molecule, acceptor atom, score
      L1  H     3    36       P1  7948  0.87
      P1  H  7997  8010       L1    13  0.91

> <Gold.Chemscore.Hbond.Weighted>
-5.3512

> <Gold.Chemscore.Metal.Weighted>
-0.0000

> <Gold.Chemscore.Lipo.Weighted>
-13.8123

> <Gold.Chemscore.Internal_Hbond.Weighted>
0.0000

> <Gold.Chemscore.DEClash.Weighted>
1.3917

> <Gold.Chemscore.DEInternal.Weighted>
2.2720

> <Gold.Chemscore.Rot.Weighted>
4.9599

> <Gold.Chemscore.Internal.Correction.Weighted>
   9.000000E+99

> <Gold.Protein.RotatedTorsions>
[ 6907 6896 6895 6894 ] final  144.61 input  -60.11 | X-H torsion
[ 7974 7965 7964 7962 ] final   47.21 input  175.53 | X-H torsion
[ 8008 7997 7996 7995 ] final   50.95 input   59.86 | X-H torsion
[ 10167 10162 10161 10158 ] final   55.60 input  -65.29 | X-H torsion
[ 10718 10713 10712 10709 ] final  140.59 input   66.30 | X-H torsion
[ 10763 10752 10751 10750 ] final  -97.14 input  -60.55 | X-H torsion
[ 11005 11000 10999 10996 ] final   67.05 input  -57.11 | X-H torsion

> <Gold.Protein.ActiveResidues>
 VAL166  LYS551  ARG553  GLY616  TRP617  ASP618  TYR619  PRO620  LYS621  CYS622 
 ASP623  PHE694  ASN695  SER759  ASP760  ASP761  ALA762  ILE779  LEU786  VAL792 
 PHE793  MET794  SER795  GLU796  ALA797  LYS798  CYS799  TRP800  GLU811  SER814 

> <Gold.Protein.RotatedAtoms>
  152.1914  133.4776  159.5009 H   0  0  0  0  0  0  0  0  0  0  0  0  # atno 6907 bound_to 6896
  150.6952  134.1707  159.4220 H   0  0  0  0  0  0  0  0  0  0  0  0  # atno 6908 bound_to 6896
  151.9622  135.0118  160.0599 H   0  0  0  0  0  0  0  0  0  0  0  0  # atno 6909 bound_to 6896
  146.0319  139.4773  142.9832 H   0  0  0  0  0  0  0  0  0  0  0  0  # atno 7974 bound_to 7965
  155.4273  140.3449  155.4277 H   0  0  0  0  0  0  0  0  0  0  0  0  # atno 8008 bound_to 7997
  156.1357  140.1527  156.9028 H   0  0  0  0  0  0  0  0  0  0  0  0  # atno 8009 bound_to 7997
  154.4930  140.0835  156.7616 H   0  0  0  0  0  0  0  0  0  0  0  0  # atno 8010 bound_to 7997
  140.2177  144.3822  150.6463 H   0  0  0  0  0  0  0  0  0  0  0  0  # atno 10167 bound_to 10162
  157.4016  131.1017  151.0546 H   0  0  0  0  0  0  0  0  0  0  0  0  # atno 10718 bound_to 10713
  154.7302  135.5057  153.8951 H   0  0  0  0  0  0  0  0  0  0  0  0  # atno 10763 bound_to 10752
  153.0942  135.6668  153.9803 H   0  0  0  0  0  0  0  0  0  0  0  0  # atno 10764 bound_to 10752
  153.9606  135.3048  155.3413 H   0  0  0  0  0  0  0  0  0  0  0  0  # atno 10765 bound_to 10752
  139.9794  134.6768  156.0291 H   0  0  0  0  0  0  0  0  0  0  0  0  # atno 11005 bound_to 11000
  145.7027  141.0131  143.1495 LP  0  0  0  0  0  0  0  0  0  0  0  0  # atno 17320 bound_to 7965
  144.7034  139.8664  143.7437 LP  0  0  0  0  0  0  0  0  0  0  0  0  # atno 17321 bound_to 7965
  140.6278  143.2183  151.6560 LP  0  0  0  0  0  0  0  0  0  0  0  0  # atno 17342 bound_to 10162
  139.5156  144.3374  152.0772 LP  0  0  0  0  0  0  0  0  0  0  0  0  # atno 17343 bound_to 10162
  157.1543  130.6197  149.5591 LP  0  0  0  0  0  0  0  0  0  0  0  0  # atno 17370 bound_to 10713
  155.9825  130.4838  150.6883 LP  0  0  0  0  0  0  0  0  0  0  0  0  # atno 17371 bound_to 10713
  141.1468  133.6554  156.3891 LP  0  0  0  0  0  0  0  0  0  0  0  0  # atno 17394 bound_to 11000
  140.5127  134.6379  157.5290 LP  0  0  0  0  0  0  0  0  0  0  0  0  # atno 17395 bound_to 11000

$$$$
