AV-unprocessed.smi:145|AV-procd|sdf|1197|dock9
  -GOLD-   2262018353D 1   1.00000     0.00000
 Structure written by MMmdl.
 40 42  0  0  0  0  0  0  0  0  1 V2000
  154.0901  138.9648  160.4465 O   0  0  0  0  0  0  0  0  0  0  0  0
  153.6371  139.4044  159.3889 C   0  0  0  0  0  0  0  0  0  0  0  0
  153.6021  138.5254  158.1283 C   0  0  0  0  0  0  0  0  0  0  0  0
  152.2346  138.2321  157.6445 N   0  0  0  0  0  0  0  0  0  0  0  0
  151.3873  137.4286  158.4475 C   0  0  0  0  0  0  0  0  0  0  0  0
  151.7766  136.9619  159.5189 O   0  0  0  0  0  0  0  0  0  0  0  0
  150.0433  137.2122  157.9239 C   0  0  0  0  0  0  0  0  0  0  0  0
  149.1654  136.4756  158.6257 F   0  0  0  0  0  0  0  0  0  0  0  0
  149.6639  137.7454  156.7445 C   0  0  0  0  0  0  0  0  0  0  0  0
  150.5062  138.5087  155.9604 N   0  0  0  0  0  0  0  0  0  0  0  0
  149.9787  139.1075  154.6771 C   0  0  2  0  0  0  0  0  0  0  0  0
  149.9439  140.6476  154.6828 C   0  0  0  0  0  0  0  0  0  0  0  0
  148.4777  140.9553  154.4262 C   0  0  0  0  0  0  0  0  0  0  0  0
  147.9677  139.6698  153.7839 C   0  0  0  0  0  0  0  0  0  0  0  0
  148.6753  138.6543  154.4778 O   0  0  0  0  0  0  0  0  0  0  0  0
  151.8135  138.7967  156.4164 C   0  0  0  0  0  0  0  0  0  0  0  0
  152.5661  139.5258  155.7683 O   0  0  0  0  0  0  0  0  0  0  0  0
  153.1704  140.6552  159.2222 N   0  0  0  0  0  0  0  0  0  0  0  0
  153.0645  141.6986  160.1816 C   0  0  0  0  0  0  0  0  0  0  0  0
  153.5764  141.6047  161.4989 C   0  0  0  0  0  0  0  0  0  0  0  0
  153.4151  142.6753  162.4000 C   0  0  0  0  0  0  0  0  0  0  0  0
  152.7357  143.8410  161.9993 C   0  0  0  0  0  0  0  0  0  0  0  0
  152.2101  143.9337  160.6970 C   0  0  0  0  0  0  0  0  0  0  0  0
  151.1896  145.6586  160.1010 I   0  0  0  0  0  0  0  0  0  0  0  0
  152.3699  142.8640  159.7949 C   0  0  0  0  0  0  0  0  0  0  0  0
  154.1917  139.0118  157.3494 H   0  0  0  0  0  0  0  0  0  0  0  0
  154.1497  137.6047  158.3354 H   0  0  0  0  0  0  0  0  0  0  0  0
  148.6552  137.5599  156.4049 H   0  0  0  0  0  0  0  0  0  0  0  0
  150.6171  138.7229  153.8805 H   0  0  0  0  0  0  0  0  0  0  0  0
  150.3116  141.0727  155.6170 H   0  0  0  0  0  0  0  0  0  0  0  0
  150.5704  141.0118  153.8679 H   0  0  0  0  0  0  0  0  0  0  0  0
  147.9598  141.1301  155.3695 H   0  0  0  0  0  0  0  0  0  0  0  0
  148.3313  141.8318  153.7947 H   0  0  0  0  0  0  0  0  0  0  0  0
  146.8890  139.5475  153.8825 H   0  0  0  0  0  0  0  0  0  0  0  0
  148.2247  139.6352  152.7238 H   0  0  0  0  0  0  0  0  0  0  0  0
  152.9202  140.9091  158.2777 H   0  0  0  0  0  0  0  0  0  0  0  0
  154.0832  140.7171  161.8449 H   0  0  0  0  0  0  0  0  0  0  0  0
  153.8091  142.5986  163.4026 H   0  0  0  0  0  0  0  0  0  0  0  0
  152.6132  144.6596  162.6931 H   0  0  0  0  0  0  0  0  0  0  0  0
  151.9604  142.9446  158.7984 H   0  0  0  0  0  0  0  0  0  0  0  0
  1  2  2  0  0  0  0
  2  3  1  0  0  0  0
  2 18  1  0  0  0  0
  3  4  1  0  0  0  0
  3 26  1  0  0  0  0
  3 27  1  0  0  0  0
  4 16  1  0  0  0  0
  4  5  1  0  0  0  0
  5  6  2  0  0  0  0
  5  7  1  0  0  0  0
  7  8  1  0  0  0  0
  7  9  2  0  0  0  0
  9 10  1  0  0  0  0
  9 28  1  0  0  0  0
 10 11  1  0  0  0  0
 10 16  1  0  0  0  0
 11 15  1  0  0  0  0
 11 12  1  0  0  0  0
 11 29  1  0  0  0  0
 12 13  1  0  0  0  0
 12 30  1  0  0  0  0
 12 31  1  0  0  0  0
 13 14  1  0  0  0  0
 13 32  1  0  0  0  0
 13 33  1  0  0  0  0
 14 15  1  0  0  0  0
 14 34  1  0  0  0  0
 14 35  1  0  0  0  0
 16 17  2  0  0  0  0
 18 19  1  0  0  0  0
 18 36  1  0  0  0  0
 19 25  1  0  0  0  0
 19 20  2  0  0  0  0
 20 21  1  0  0  0  0
 20 37  1  0  0  0  0
 21 22  2  0  0  0  0
 21 38  1  0  0  0  0
 22 23  1  0  0  0  0
 22 39  1  0  0  0  0
 23 24  1  0  0  0  0
 23 25  2  0  0  0  0
 25 40  1  0  0  0  0
M  END
> <s_m_source_file>
AV-unprocessed.smi

> <i_m_source_file_index>
145

> <i_lp_mmshare_version>
43012

> <i_f3d_flags>
0

> <s_epik_input>
SWMoW2NIXTEpW2NIXVtjSF1bY0hdYzFbTkhdQyg9TylbQ0gyXW4yYyg9TyljKEYpW2NIXW4oYzI9TylbQ0BASF0zW0NIMl1bQ0gyXVtDSDJdTzM=

> <s_epik_cmdline>
J2VwaWtfcHl0aG9uJywgJy1waCcsICc3LjAnLCAnLXRuJywgJzgnLCAnLW1hJywgJzIwMCcsICctbWV0YWxfYmluZGluZycsICctaW1hZScsICc8aW5maWxlLm1hZT4nLCAnLW9tYWUnLCAnPG91dGZpbGUubWFlPic=

> <r_lp_tautomer_probability>
1

> <r_epik_Ionization_Penalty>
9.72367e-07

> <r_epik_Ionization_Penalty_Charging>
3.88729e-08

> <r_epik_Ionization_Penalty_Neutral>
9.33494e-07

> <r_epik_State_Penalty>
-0

> <r_epik_Charging_Adjusted_Penalty>
3.88729e-08

> <i_epik_Tot_Q>
0

> <i_epik_Tot_abs_Q>
0

> <r_epik_Metal_State_Penalty>
-0

> <b_epik_Metal_Only>
0

> <s_epik_Chemistry_Notes>
This compound contains an acetal/aminal-like group ( X-CH(R)-Y where X, Y are N, S, or O) that may be acid/base labile, releasing an aldehyde.

> <s_lp_Force_Field>
OPLS_2005

> <r_lp_Energy>
28.2642

> <b_lp_Chiralities_Consistent>
1

> <s_lp_Variant>
AV-unprocessed.smi:145-1

> <Gold.Version>
5.8.1

> <Gold.Id.Protein>
6NUR|6NUR_protein|mol2

> <Gold.PLP.Fitness>
51.1090

> <Gold.PLP.PLP>
-45.3031

> <Gold.PLP.part.hbond>
-2.0000

> <Gold.PLP.part.metal>
0.0000

> <Gold.PLP.part.buried>
-3.6318

> <Gold.PLP.part.nonpolar>
-38.9463

> <Gold.PLP.part.repulsive>
0.2515

> <Gold.PLP.ligand.clash>
0.0000

> <Gold.PLP.ligand.torsion>
0.1099

> <Gold.PLP.Chemscore.Hbond>
2.0000

> <Gold.PLP.Chemscore.CHOScore>
0.0000

> <Gold.PLP.Chemscore.Metal>
0.0000

> <Gold.Chemscore.Hbonds>
donor molecule, donor type, donor heavy atom, donor atom, acceptor molecule, acceptor atom, score
      P1  H  6896  6909       L1     6  1.00
      P1  H  7997  8008       L1    17  1.00

> <Gold.PLP.Chemscore.Internal.Correction>
0.0258

> <Gold.Rescore>
     Score         DG    S(hbond)    S(metal)    S(lipo)     H(rot)  DE(clash)    DE(int)     intcor
     18.67     -20.35       1.98        0.00     107.04       1.66       0.12       1.56       ----

> <Gold.Chemscore.Fitness>
18.6739

> <Gold.Chemscore.DG>
-20.3521

> <Gold.Chemscore.ZeroCoef>
-5.4800

> <Gold.Chemscore.Hbond>
1.9770

> <Gold.Chemscore.Metal>
0.0000

> <Gold.Chemscore.Lipo>
107.0414

> <Gold.Chemscore.Internal_Hbond>
0.0000

> <Gold.Chemscore.DEClash>
0.1214

> <Gold.Chemscore.DEInternal>
1.5567

> <Gold.Chemscore.Rot>
1.6621

> <Gold.Chemscore.Internal.Correction>
   9.000000E+99

> <Gold.Chemscore.Hbonds>
donor molecule, donor type, donor heavy atom, donor atom, acceptor molecule, acceptor atom, score
      P1  H  6896  6909       L1     6  0.97
      P1  H  7997  8008       L1    17  0.99

> <Gold.Chemscore.Hbond.Weighted>
-6.6032

> <Gold.Chemscore.Metal.Weighted>
-0.0000

> <Gold.Chemscore.Lipo.Weighted>
-12.5238

> <Gold.Chemscore.Internal_Hbond.Weighted>
0.0000

> <Gold.Chemscore.DEClash.Weighted>
0.1214

> <Gold.Chemscore.DEInternal.Weighted>
1.5567

> <Gold.Chemscore.Rot.Weighted>
4.2550

> <Gold.Chemscore.Internal.Correction.Weighted>
   9.000000E+99

> <Gold.Protein.RotatedTorsions>
[ 6907 6896 6895 6894 ] final  109.09 input  -60.11 | X-H torsion
[ 7974 7965 7964 7962 ] final -104.35 input  175.53 | X-H torsion
[ 8008 7997 7996 7995 ] final  -37.61 input   59.86 | X-H torsion
[ 10167 10162 10161 10158 ] final  -36.56 input  -65.29 | X-H torsion
[ 10718 10713 10712 10709 ] final   10.43 input   66.30 | X-H torsion
[ 10763 10752 10751 10750 ] final  135.96 input  -60.55 | X-H torsion
[ 11005 11000 10999 10996 ] final -170.42 input  -57.11 | X-H torsion

> <Gold.Protein.ActiveResidues>
 VAL166  LYS551  ARG553  GLY616  TRP617  ASP618  TYR619  PRO620  LYS621  CYS622 
 ASP623  PHE694  ASN695  SER759  ASP760  ASP761  ALA762  ILE779  LEU786  VAL792 
 PHE793  MET794  SER795  GLU796  ALA797  LYS798  CYS799  TRP800  GLU811  SER814 

> <Gold.Protein.RotatedAtoms>
  152.5083  133.8994  159.7433 H   0  0  0  0  0  0  0  0  0  0  0  0  # atno 6907 bound_to 6896
  150.9413  133.6644  159.2797 H   0  0  0  0  0  0  0  0  0  0  0  0  # atno 6908 bound_to 6896
  151.3955  135.0967  159.9592 H   0  0  0  0  0  0  0  0  0  0  0  0  # atno 6909 bound_to 6896
  145.2442  140.9216  143.3132 H   0  0  0  0  0  0  0  0  0  0  0  0  # atno 7974 bound_to 7965
  154.4050  140.1599  156.2565 H   0  0  0  0  0  0  0  0  0  0  0  0  # atno 8008 bound_to 7997
  155.9073  140.3429  155.6049 H   0  0  0  0  0  0  0  0  0  0  0  0  # atno 8009 bound_to 7997
  155.7377  140.0788  157.2251 H   0  0  0  0  0  0  0  0  0  0  0  0  # atno 8010 bound_to 7997
  140.7140  143.3401  151.2377 H   0  0  0  0  0  0  0  0  0  0  0  0  # atno 10167 bound_to 10162
  156.9808  130.6005  149.5676 H   0  0  0  0  0  0  0  0  0  0  0  0  # atno 10718 bound_to 10713
  153.8487  135.3082  155.3431 H   0  0  0  0  0  0  0  0  0  0  0  0  # atno 10763 bound_to 10752
  154.7901  135.4787  154.0036 H   0  0  0  0  0  0  0  0  0  0  0  0  # atno 10764 bound_to 10752
  153.1531  135.6847  153.8945 H   0  0  0  0  0  0  0  0  0  0  0  0  # atno 10765 bound_to 10752
  140.5196  134.5722  157.5044 H   0  0  0  0  0  0  0  0  0  0  0  0  # atno 11005 bound_to 11000
  144.9561  139.4030  143.6379 LP  0  0  0  0  0  0  0  0  0  0  0  0  # atno 17320 bound_to 7965
  146.3320  139.8592  142.8859 LP  0  0  0  0  0  0  0  0  0  0  0  0  # atno 17321 bound_to 7965
  139.6906  143.9699  152.2857 LP  0  0  0  0  0  0  0  0  0  0  0  0  # atno 17342 bound_to 10162
  139.9359  144.6712  150.8315 LP  0  0  0  0  0  0  0  0  0  0  0  0  # atno 17343 bound_to 10162
  156.0245  130.5339  150.8368 LP  0  0  0  0  0  0  0  0  0  0  0  0  # atno 17370 bound_to 10713
  157.5527  131.0944  150.9672 LP  0  0  0  0  0  0  0  0  0  0  0  0  # atno 17371 bound_to 10713
  139.9613  134.7448  156.0231 LP  0  0  0  0  0  0  0  0  0  0  0  0  # atno 17394 bound_to 11000
  141.1341  133.6579  156.3545 LP  0  0  0  0  0  0  0  0  0  0  0  0  # atno 17395 bound_to 11000

$$$$
