AV-unprocessed.smi:101|AV-procd|sdf|929|dock3
  -GOLD-   2262017443D 1   1.00000     0.00000
 Structure written by MMmdl.
 43 45  0  0  0  0  0  0  0  0  2 V2000
  144.4184  144.3756  154.9971 C   0  0  0  0  0  0  0  0  0  0  0  0
  145.0756  143.3029  155.8483 C   0  0  0  0  0  0  0  0  0  0  0  0
  145.8342  142.3206  155.3137 C   0  0  0  0  0  0  0  0  0  0  0  0
  146.4371  141.3395  156.0884 N   0  0  0  0  0  0  0  0  0  0  0  0
  147.3688  140.2901  155.4895 C   0  0  2  0  0  0  0  0  0  0  0  0
  148.5605  140.3196  156.2090 O   0  0  0  0  0  0  0  0  0  0  0  0
  149.4521  141.2220  155.5698 C   0  0  1  0  0  0  0  0  0  0  0  0
  150.8860  141.0242  156.0822 C   0  0  0  0  0  0  0  0  0  0  0  0
  151.0574  141.7945  157.2602 O   0  0  0  0  0  0  0  0  0  0  0  0
  152.0730  141.5288  158.1022 C   0  0  0  0  0  0  0  0  0  0  0  0
  152.8748  140.6073  157.9355 O   0  0  0  0  0  0  0  0  0  0  0  0
  152.1279  142.4704  159.2576 C   0  0  0  0  0  0  0  0  0  0  0  0
  152.7803  142.0715  160.4476 C   0  0  0  0  0  0  0  0  0  0  0  0
  152.8488  142.9406  161.5541 C   0  0  0  0  0  0  0  0  0  0  0  0
  152.2659  144.2193  161.4841 C   0  0  0  0  0  0  0  0  0  0  0  0
  151.6134  144.6278  160.3064 C   0  0  0  0  0  0  0  0  0  0  0  0
  151.5431  143.7600  159.1991 C   0  0  0  0  0  0  0  0  0  0  0  0
  149.2139  140.9396  154.0754 C   0  0  1  0  0  0  0  0  0  0  0  0
  150.0961  139.9332  153.6021 O   0  0  0  0  0  0  0  0  0  0  0  0
  147.7342  140.5216  154.0068 C   0  0  1  0  0  0  0  0  0  0  0  0
  147.5203  139.3668  153.2164 O   0  0  0  0  0  0  0  0  0  0  0  0
  146.3392  141.4312  157.5049 C   0  0  0  0  0  0  0  0  0  0  0  0
  146.9657  140.6212  158.1884 O   0  0  0  0  0  0  0  0  0  0  0  0
  145.5600  142.4067  158.0528 N   0  5  0  0  0  0  0  0  0  0  0  0
  144.9051  143.3378  157.3038 C   0  0  0  0  0  0  0  0  0  0  0  0
  144.1896  144.2013  157.8107 O   0  0  0  0  0  0  0  0  0  0  0  0
  144.6391  144.2342  153.9389 H   0  0  0  0  0  0  0  0  0  0  0  0
  144.7752  145.3640  155.2881 H   0  0  0  0  0  0  0  0  0  0  0  0
  143.3356  144.3497  155.1223 H   0  0  0  0  0  0  0  0  0  0  0  0
  145.9799  142.3305  154.2454 H   0  0  0  0  0  0  0  0  0  0  0  0
  146.8623  139.3332  155.6224 H   0  0  0  0  0  0  0  0  0  0  0  0
  149.1406  142.2443  155.7868 H   0  0  0  0  0  0  0  0  0  0  0  0
  151.0850  139.9695  156.2776 H   0  0  0  0  0  0  0  0  0  0  0  0
  151.6008  141.3656  155.3320 H   0  0  0  0  0  0  0  0  0  0  0  0
  153.2354  141.0946  160.5248 H   0  0  0  0  0  0  0  0  0  0  0  0
  153.3497  142.6247  162.4572 H   0  0  0  0  0  0  0  0  0  0  0  0
  152.3189  144.8858  162.3325 H   0  0  0  0  0  0  0  0  0  0  0  0
  151.1648  145.6090  160.2509 H   0  0  0  0  0  0  0  0  0  0  0  0
  151.0333  144.1052  158.3112 H   0  0  0  0  0  0  0  0  0  0  0  0
  149.3928  141.8367  153.4819 H   0  0  0  0  0  0  0  0  0  0  0  0
  149.8672  139.7281  152.7087 H   0  0  0  0  0  0  0  0  0  0  0  0
  147.1137  141.2985  153.5649 H   0  0  0  0  0  0  0  0  0  0  0  0
  148.1639  139.3609  152.5241 H   0  0  0  0  0  0  0  0  0  0  0  0
  1  2  1  0  0  0  0
  1 27  1  0  0  0  0
  1 28  1  0  0  0  0
  1 29  1  0  0  0  0
  2 25  1  0  0  0  0
  2  3  2  0  0  0  0
  3  4  1  0  0  0  0
  3 30  1  0  0  0  0
  4  5  1  0  0  0  0
  4 22  1  0  0  0  0
  5 20  1  0  0  0  0
  5  6  1  0  0  0  0
  5 31  1  0  0  0  0
  6  7  1  0  0  0  0
  7  8  1  0  0  0  0
  7 18  1  0  0  0  0
  7 32  1  0  0  0  0
  8  9  1  0  0  0  0
  8 33  1  0  0  0  0
  8 34  1  0  0  0  0
  9 10  1  0  0  0  0
 10 11  2  0  0  0  0
 10 12  1  0  0  0  0
 12 17  1  0  0  0  0
 12 13  2  0  0  0  0
 13 14  1  0  0  0  0
 13 35  1  0  0  0  0
 14 15  2  0  0  0  0
 14 36  1  0  0  0  0
 15 16  1  0  0  0  0
 15 37  1  0  0  0  0
 16 17  2  0  0  0  0
 16 38  1  0  0  0  0
 17 39  1  0  0  0  0
 18 19  1  0  0  0  0
 18 20  1  0  0  0  0
 18 40  1  0  0  0  0
 19 41  1  0  0  0  0
 20 21  1  0  0  0  0
 20 42  1  0  0  0  0
 21 43  1  0  0  0  0
 22 23  2  0  0  0  0
 22 24  1  0  0  0  0
 24 25  1  0  0  0  0
 25 26  2  0  0  0  0
M  CHG  1  24  -1
M  END
> <s_m_source_file>
AV-unprocessed.smi

> <i_m_source_file_index>
101

> <i_lp_mmshare_version>
43012

> <i_f3d_flags>
0

> <s_epik_input>
Tz1jMVtuSF1jKD1PKW4oW2NIXWMxW0NIM10pW0NAQEhdMk9bQ0BIXShbQ0BASF0oW09IXSlbQ0BIXTJbT0hdKVtDSDJdT0MoPU8pYzNbY0hdW2NIXVtjSF1bY0hdW2NIXTM=

> <s_epik_cmdline>
J2VwaWtfcHl0aG9uJywgJy1waCcsICc3LjAnLCAnLXRuJywgJzgnLCAnLW1hJywgJzIwMCcsICctbWV0YWxfYmluZGluZycsICctaW1hZScsICc8aW5maWxlLm1hZT4nLCAnLW9tYWUnLCAnPG91dGZpbGUubWFlPic=

> <r_lp_tautomer_probability>
0.999537

> <r_epik_Ionization_Penalty>
3.21006

> <r_epik_Ionization_Penalty_Charging>
5.75142e-08

> <r_epik_Ionization_Penalty_Neutral>
3.21006

> <r_epik_State_Penalty>
3.20925

> <r_epik_Charging_Adjusted_Penalty>
3.20925

> <i_epik_Tot_Q>
-1

> <i_epik_Tot_abs_Q>
1

> <r_epik_Metal_State_Penalty>
0.119957

> <b_epik_Metal_Only>
1

> <s_epik_Chemistry_Notes>
This compound has an ester and may undergo hydrolysis at high or low pH. This compound contains an acetal/aminal-like group ( X-CH(R)-Y where X, Y are N, S, or O) that may be acid/base labile, releasing an aldehyde.

> <s_lp_Force_Field>
OPLS_2005

> <r_lp_Energy>
45.1107

> <b_lp_Chiralities_Consistent>
1

> <s_lp_Variant>
AV-unprocessed.smi:101-17

> <Gold.Version>
5.8.1

> <Gold.Id.Protein>
6NUR|6NUR_protein|mol2

> <Gold.PLP.Fitness>
54.5850

> <Gold.PLP.PLP>
-45.4979

> <Gold.PLP.part.hbond>
-4.8626

> <Gold.PLP.part.metal>
0.0000

> <Gold.PLP.part.buried>
-2.8962

> <Gold.PLP.part.nonpolar>
-36.3582

> <Gold.PLP.part.repulsive>
0.1866

> <Gold.PLP.ligand.clash>
0.0000

> <Gold.PLP.ligand.torsion>
0.8495

> <Gold.PLP.Chemscore.Hbond>
3.5434

> <Gold.PLP.Chemscore.CHOScore>
0.0000

> <Gold.PLP.Chemscore.Metal>
0.0000

> <Gold.Chemscore.Hbonds>
donor molecule, donor type, donor heavy atom, donor atom, acceptor molecule, acceptor atom, score
      L1  H    19    41       P1  7957  1.00
      L1  H    21    43       P1  7957  0.86
      P1  H  7989  7998       L1    19  0.77
      P1  H  7997  8009       L1    11  0.77

> <Gold.PLP.Chemscore.Internal.Correction>
0.1557

> <Gold.Rescore>
     Score         DG    S(hbond)    S(metal)    S(lipo)     H(rot)  DE(clash)    DE(int)     intcor
     15.88     -19.05       2.77        0.00     108.27       3.27       1.00       2.16       ----

> <Gold.Chemscore.Fitness>
15.8833

> <Gold.Chemscore.DG>
-19.0454

> <Gold.Chemscore.ZeroCoef>
-5.4800

> <Gold.Chemscore.Hbond>
2.7718

> <Gold.Chemscore.Metal>
0.0000

> <Gold.Chemscore.Lipo>
108.2677

> <Gold.Chemscore.Internal_Hbond>
0.0000

> <Gold.Chemscore.DEClash>
1.0018

> <Gold.Chemscore.DEInternal>
2.1603

> <Gold.Chemscore.Rot>
3.2656

> <Gold.Chemscore.Internal.Correction>
   9.000000E+99

> <Gold.Chemscore.Hbonds>
donor molecule, donor type, donor heavy atom, donor atom, acceptor molecule, acceptor atom, score
      L1  H    19    41       P1  7957  0.97
      L1  H    21    43       P1  7957  0.84
      P1  H  7989  7998       L1    19  0.10
      P1  H  7997  8009       L1    11  0.74

> <Gold.Chemscore.Hbond.Weighted>
-9.2579

> <Gold.Chemscore.Metal.Weighted>
-0.0000

> <Gold.Chemscore.Lipo.Weighted>
-12.6673

> <Gold.Chemscore.Internal_Hbond.Weighted>
0.0000

> <Gold.Chemscore.DEClash.Weighted>
1.0018

> <Gold.Chemscore.DEInternal.Weighted>
2.1603

> <Gold.Chemscore.Rot.Weighted>
8.3598

> <Gold.Chemscore.Internal.Correction.Weighted>
   9.000000E+99

> <Gold.Protein.RotatedTorsions>
[ 6907 6896 6895 6894 ] final   54.67 input  -60.11 | X-H torsion
[ 7974 7965 7964 7962 ] final -111.16 input  175.53 | X-H torsion
[ 8008 7997 7996 7995 ] final  166.46 input   59.86 | X-H torsion
[ 10167 10162 10161 10158 ] final  -53.86 input  -65.29 | X-H torsion
[ 10718 10713 10712 10709 ] final  -96.34 input   66.30 | X-H torsion
[ 10763 10752 10751 10750 ] final  -72.48 input  -60.55 | X-H torsion
[ 11005 11000 10999 10996 ] final -141.29 input  -57.11 | X-H torsion

> <Gold.Protein.ActiveResidues>
 VAL166  LYS551  ARG553  GLY616  TRP617  ASP618  TYR619  PRO620  LYS621  CYS622 
 ASP623  PHE694  ASN695  SER759  ASP760  ASP761  ALA762  ILE779  LEU786  VAL792 
 PHE793  MET794  SER795  GLU796  ALA797  LYS798  CYS799  TRP800  GLU811  SER814 

> <Gold.Protein.RotatedAtoms>
  152.3462  134.7068  160.0249 H   0  0  0  0  0  0  0  0  0  0  0  0  # atno 6907 bound_to 6896
  151.7437  133.3318  159.3381 H   0  0  0  0  0  0  0  0  0  0  0  0  # atno 6908 bound_to 6896
  150.7510  134.6188  159.6169 H   0  0  0  0  0  0  0  0  0  0  0  0  # atno 6909 bound_to 6896
  145.1595  140.8871  143.3599 H   0  0  0  0  0  0  0  0  0  0  0  0  # atno 7974 bound_to 7965
  156.1716  140.1643  156.8437 H   0  0  0  0  0  0  0  0  0  0  0  0  # atno 8008 bound_to 7997
  154.5263  140.0767  156.8298 H   0  0  0  0  0  0  0  0  0  0  0  0  # atno 8009 bound_to 7997
  155.3500  140.3389  155.4241 H   0  0  0  0  0  0  0  0  0  0  0  0  # atno 8010 bound_to 7997
  140.6462  143.2537  151.4853 H   0  0  0  0  0  0  0  0  0  0  0  0  # atno 10167 bound_to 10162
  156.0060  130.5147  150.6210 H   0  0  0  0  0  0  0  0  0  0  0  0  # atno 10718 bound_to 10713
  154.4463  135.5928  153.6162 H   0  0  0  0  0  0  0  0  0  0  0  0  # atno 10763 bound_to 10752
  152.9809  135.6010  154.3660 H   0  0  0  0  0  0  0  0  0  0  0  0  # atno 10764 bound_to 10752
  154.3516  135.2841  155.2348 H   0  0  0  0  0  0  0  0  0  0  0  0  # atno 10765 bound_to 10752
  140.8339  134.2484  157.4843 H   0  0  0  0  0  0  0  0  0  0  0  0  # atno 11005 bound_to 11000
  145.0346  139.3311  143.6007 LP  0  0  0  0  0  0  0  0  0  0  0  0  # atno 17320 bound_to 7965
  146.3484  139.9696  142.8708 LP  0  0  0  0  0  0  0  0  0  0  0  0  # atno 17321 bound_to 7965
  139.5673  144.2012  152.1784 LP  0  0  0  0  0  0  0  0  0  0  0  0  # atno 17342 bound_to 10162
  140.1298  144.5299  150.6810 LP  0  0  0  0  0  0  0  0  0  0  0  0  # atno 17343 bound_to 10162
  157.4026  131.0812  151.1295 LP  0  0  0  0  0  0  0  0  0  0  0  0  # atno 17370 bound_to 10713
  157.1951  130.6369  149.5718 LP  0  0  0  0  0  0  0  0  0  0  0  0  # atno 17371 bound_to 10713
  139.8704  134.9600  156.4351 LP  0  0  0  0  0  0  0  0  0  0  0  0  # atno 17394 bound_to 11000
  140.8969  133.7808  155.9635 LP  0  0  0  0  0  0  0  0  0  0  0  0  # atno 17395 bound_to 11000

$$$$
