AV-unprocessed.smi:3281|AV-procd|sdf|12559|dock4
  -GOLD-   2272018483D 1   1.00000     0.00000
 Structure written by MMmdl.
 36 37  0  0  0  0  0  0  0  0  1 V2000
  150.5007  135.1981  155.8863 C   0  0  0  0  0  0  0  0  0  0  0  0
  150.4314  135.9947  154.5790 C   0  0  0  0  0  0  0  0  0  0  0  0
  150.3566  137.4708  154.7917 C   0  0  0  0  0  0  0  0  0  0  0  0
  150.2595  138.4504  153.8347 C   0  0  0  0  0  0  0  0  0  0  0  0
  150.1997  139.7452  154.3547 N   0  0  0  0  0  0  0  0  0  0  0  0
  150.2628  139.7632  155.6882 C   0  0  0  0  0  0  0  0  0  0  0  0
  150.1795  141.0171  156.4983 C   0  0  0  0  0  0  0  0  0  0  0  0
  151.3616  141.9714  156.2640 C   0  0  0  0  0  0  0  0  0  0  0  0
  151.0638  143.2916  156.8037 N   0  0  0  0  0  0  0  0  0  0  0  0
  150.9432  143.2778  158.2557 C   0  0  1  0  0  0  0  0  0  0  0  0
  152.2371  142.7196  158.8898 C   0  0  0  0  0  0  0  0  0  0  0  0
  152.1774  142.6902  160.4257 C   0  0  0  0  0  0  0  0  0  0  0  0
  151.9845  144.0863  161.0329 C   0  0  0  0  0  0  0  0  0  0  0  0
  150.4132  144.8179  160.5028 S   0  0  0  0  0  0  0  0  0  0  0  0
  150.6683  144.7226  158.7100 C   0  0  0  0  0  0  0  0  0  0  0  0
  150.3847  138.1558  156.3964 S   0  0  0  0  0  0  0  0  0  0  0  0
  150.5600  134.1283  155.6858 H   0  0  0  0  0  0  0  0  0  0  0  0
  149.6188  135.3723  156.5032 H   0  0  0  0  0  0  0  0  0  0  0  0
  151.3787  135.4768  156.4697 H   0  0  0  0  0  0  0  0  0  0  0  0
  151.3038  135.7586  153.9687 H   0  0  0  0  0  0  0  0  0  0  0  0
  149.5646  135.6693  154.0032 H   0  0  0  0  0  0  0  0  0  0  0  0
  150.2224  138.3157  152.7636 H   0  0  0  0  0  0  0  0  0  0  0  0
  149.2368  141.5187  156.2758 H   0  0  0  0  0  0  0  0  0  0  0  0
  150.1382  140.7427  157.5530 H   0  0  0  0  0  0  0  0  0  0  0  0
  152.2526  141.5817  156.7575 H   0  0  0  0  0  0  0  0  0  0  0  0
  151.5811  142.0243  155.1980 H   0  0  0  0  0  0  0  0  0  0  0  0
  150.1986  143.6195  156.3983 H   0  0  0  0  0  0  0  0  0  0  0  0
  150.0900  142.6602  158.5404 H   0  0  0  0  0  0  0  0  0  0  0  0
  152.4276  141.7062  158.5371 H   0  0  0  0  0  0  0  0  0  0  0  0
  153.0938  143.3160  158.5716 H   0  0  0  0  0  0  0  0  0  0  0  0
  151.3710  142.0321  160.7515 H   0  0  0  0  0  0  0  0  0  0  0  0
  153.1002  142.2562  160.8115 H   0  0  0  0  0  0  0  0  0  0  0  0
  151.9942  144.0294  162.1215 H   0  0  0  0  0  0  0  0  0  0  0  0
  152.8020  144.7455  160.7393 H   0  0  0  0  0  0  0  0  0  0  0  0
  151.4971  145.3778  158.4374 H   0  0  0  0  0  0  0  0  0  0  0  0
  149.7759  145.1144  158.2202 H   0  0  0  0  0  0  0  0  0  0  0  0
  1  2  1  0  0  0  0
  1 17  1  0  0  0  0
  1 18  1  0  0  0  0
  1 19  1  0  0  0  0
  2  3  1  0  0  0  0
  2 20  1  0  0  0  0
  2 21  1  0  0  0  0
  3 16  1  0  0  0  0
  3  4  2  0  0  0  0
  4  5  1  0  0  0  0
  4 22  1  0  0  0  0
  5  6  2  0  0  0  0
  6  7  1  0  0  0  0
  6 16  1  0  0  0  0
  7  8  1  0  0  0  0
  7 23  1  0  0  0  0
  7 24  1  0  0  0  0
  8  9  1  0  0  0  0
  8 25  1  0  0  0  0
  8 26  1  0  0  0  0
  9 10  1  0  0  0  0
  9 27  1  0  0  0  0
 10 15  1  0  0  0  0
 10 11  1  0  0  0  0
 10 28  1  0  0  0  0
 11 12  1  0  0  0  0
 11 29  1  0  0  0  0
 11 30  1  0  0  0  0
 12 13  1  0  0  0  0
 12 31  1  0  0  0  0
 12 32  1  0  0  0  0
 13 14  1  0  0  0  0
 13 33  1  0  0  0  0
 13 34  1  0  0  0  0
 14 15  1  0  0  0  0
 15 35  1  0  0  0  0
 15 36  1  0  0  0  0
M  END
> <s_m_source_file>
AV-unprocessed.smi

> <i_m_source_file_index>
3281

> <i_lp_mmshare_version>
43012

> <i_f3d_flags>
0

> <s_epik_input>
W0NIM11bQ0gyXWMxW2NIXW5jKHMxKVtDSDJdW0NIMl1bTkhdW0NAQEhdMltDSDJdW0NIMl1bQ0gyXVNbQ0gyXTI=

> <s_epik_cmdline>
J2VwaWtfcHl0aG9uJywgJy1waCcsICc3LjAnLCAnLXRuJywgJzgnLCAnLW1hJywgJzIwMCcsICctbWV0YWxfYmluZGluZycsICctaW1hZScsICc8aW5maWxlLm1hZT4nLCAnLW9tYWUnLCAnPG91dGZpbGUubWFlPic=

> <r_epik_Ionization_Penalty>
2.53829

> <r_epik_Ionization_Penalty_Charging>
0

> <r_epik_Ionization_Penalty_Neutral>
2.53829

> <r_epik_State_Penalty>
2.70274

> <r_epik_Charging_Adjusted_Penalty>
2.70274

> <i_epik_Tot_Q>
0

> <i_epik_Tot_abs_Q>
0

> <r_epik_Metal_State_Penalty>
2.69977

> <b_epik_Metal_Only>
0

> <s_lp_Force_Field>
OPLS_2005

> <r_lp_Energy>
0.42492

> <b_lp_Chiralities_Consistent>
1

> <s_lp_Variant>
AV-unprocessed.smi:3281-4

> <Gold.Version>
5.8.1

> <Gold.Id.Protein>
6NUR|6NUR_protein|mol2

> <Gold.PLP.Fitness>
41.3765

> <Gold.PLP.PLP>
-30.4824

> <Gold.PLP.part.hbond>
-2.0000

> <Gold.PLP.part.metal>
0.0000

> <Gold.PLP.part.buried>
-4.1385

> <Gold.PLP.part.nonpolar>
-24.6661

> <Gold.PLP.part.repulsive>
0.1152

> <Gold.PLP.ligand.clash>
0.0000

> <Gold.PLP.ligand.torsion>
0.0781

> <Gold.PLP.Chemscore.Hbond>
1.9913

> <Gold.PLP.Chemscore.CHOScore>
1.6832

> <Gold.PLP.Chemscore.Metal>
0.0000

> <Gold.Chemscore.Hbonds>
donor molecule, donor type, donor heavy atom, donor atom, acceptor molecule, acceptor atom, score
      L1  H     9    27       P1  8028  1.00
      P1  H  7989  7998       L1     5  1.00
      L1  C     4    22       P1  7948  0.63
      L1  C     4    22       P1  7949  0.07
      L1  C     4    22       P1  7957  0.81

> <Gold.PLP.Chemscore.Internal.Correction>
0.0269

> <Gold.Rescore>
     Score         DG    S(hbond)    S(metal)    S(lipo)     H(rot)  DE(clash)    DE(int)     intcor
     20.19     -21.85       1.90        0.00     114.16       1.30       1.50       0.17       ----

> <Gold.Chemscore.Fitness>
20.1897

> <Gold.Chemscore.DG>
-21.8528

> <Gold.Chemscore.ZeroCoef>
-5.4800

> <Gold.Chemscore.Hbond>
1.8973

> <Gold.Chemscore.Metal>
0.0000

> <Gold.Chemscore.Lipo>
114.1580

> <Gold.Chemscore.Internal_Hbond>
0.0000

> <Gold.Chemscore.DEClash>
1.4952

> <Gold.Chemscore.DEInternal>
0.1679

> <Gold.Chemscore.Rot>
1.2972

> <Gold.Chemscore.Internal.Correction>
   9.000000E+99

> <Gold.Chemscore.Hbonds>
donor molecule, donor type, donor heavy atom, donor atom, acceptor molecule, acceptor atom, score
      L1  H     9    27       P1  8028  1.00
      P1  H  7989  7998       L1     5  0.57

> <Gold.Chemscore.Hbond.Weighted>
-6.3371

> <Gold.Chemscore.Metal.Weighted>
-0.0000

> <Gold.Chemscore.Lipo.Weighted>
-13.3565

> <Gold.Chemscore.Internal_Hbond.Weighted>
0.0000

> <Gold.Chemscore.DEClash.Weighted>
1.4952

> <Gold.Chemscore.DEInternal.Weighted>
0.1679

> <Gold.Chemscore.Rot.Weighted>
3.3208

> <Gold.Chemscore.Internal.Correction.Weighted>
   9.000000E+99

> <Gold.Protein.RotatedTorsions>
[ 6907 6896 6895 6894 ] final  -58.81 input  -60.11 | X-H torsion
[ 7974 7965 7964 7962 ] final  -53.69 input  175.53 | X-H torsion
[ 8008 7997 7996 7995 ] final  159.43 input   59.86 | X-H torsion
[ 10167 10162 10161 10158 ] final -144.72 input  -65.29 | X-H torsion
[ 10718 10713 10712 10709 ] final -144.66 input   66.30 | X-H torsion
[ 10763 10752 10751 10750 ] final -109.56 input  -60.55 | X-H torsion
[ 11005 11000 10999 10996 ] final -172.04 input  -57.11 | X-H torsion

> <Gold.Protein.ActiveResidues>
 VAL166  LYS551  ARG553  GLY616  TRP617  ASP618  TYR619  PRO620  LYS621  CYS622 
 ASP623  PHE694  ASN695  SER759  ASP760  ASP761  ALA762  ILE779  LEU786  VAL792 
 PHE793  MET794  SER795  GLU796  ALA797  LYS798  CYS799  TRP800  GLU811  SER814 

> <Gold.Protein.RotatedAtoms>
  150.7978  134.7051  159.6571 H   0  0  0  0  0  0  0  0  0  0  0  0  # atno 6907 bound_to 6896
  152.4092  134.6150  160.0045 H   0  0  0  0  0  0  0  0  0  0  0  0  # atno 6908 bound_to 6896
  151.6398  133.3290  159.3163 H   0  0  0  0  0  0  0  0  0  0  0  0  # atno 6909 bound_to 6896
  145.8940  140.8048  142.9777 H   0  0  0  0  0  0  0  0  0  0  0  0  # atno 7974 bound_to 7965
  156.2239  140.1831  156.7411 H   0  0  0  0  0  0  0  0  0  0  0  0  # atno 8008 bound_to 7997
  154.5909  140.0651  156.9265 H   0  0  0  0  0  0  0  0  0  0  0  0  # atno 8009 bound_to 7997
  155.2338  140.3317  155.4302 H   0  0  0  0  0  0  0  0  0  0  0  0  # atno 8010 bound_to 7997
  139.7873  143.8016  152.2646 H   0  0  0  0  0  0  0  0  0  0  0  0  # atno 10167 bound_to 10162
  156.3729  130.7797  151.1980 H   0  0  0  0  0  0  0  0  0  0  0  0  # atno 10718 bound_to 10713
  154.8200  135.4596  154.0751 H   0  0  0  0  0  0  0  0  0  0  0  0  # atno 10763 bound_to 10752
  153.2113  135.6882  153.8117 H   0  0  0  0  0  0  0  0  0  0  0  0  # atno 10764 bound_to 10752
  153.7567  135.3290  155.3307 H   0  0  0  0  0  0  0  0  0  0  0  0  # atno 10765 bound_to 10752
  140.5015  134.5889  157.4989 H   0  0  0  0  0  0  0  0  0  0  0  0  # atno 11005 bound_to 11000
  144.6732  140.1574  143.7425 LP  0  0  0  0  0  0  0  0  0  0  0  0  # atno 17320 bound_to 7965
  145.8873  139.2356  143.1570 LP  0  0  0  0  0  0  0  0  0  0  0  0  # atno 17321 bound_to 7965
  139.8097  144.7341  150.9714 LP  0  0  0  0  0  0  0  0  0  0  0  0  # atno 17342 bound_to 10162
  140.7820  143.4263  151.0763 LP  0  0  0  0  0  0  0  0  0  0  0  0  # atno 17343 bound_to 10162
  157.7485  131.0367  150.4421 LP  0  0  0  0  0  0  0  0  0  0  0  0  # atno 17370 bound_to 10713
  156.4651  130.4040  149.6552 LP  0  0  0  0  0  0  0  0  0  0  0  0  # atno 17371 bound_to 10713
  139.9711  134.7292  156.0041 LP  0  0  0  0  0  0  0  0  0  0  0  0  # atno 17394 bound_to 11000
  141.1433  133.6560  156.3793 LP  0  0  0  0  0  0  0  0  0  0  0  0  # atno 17395 bound_to 11000

$$$$
