AV-unprocessed.smi:676|AV-procd|sdf|3309|dock10
  -GOLD-   22720 0273D 1   1.00000     0.00000
 Structure written by MMmdl.
 42 43  0  0  0  0  0  0  0  0  1 V2000
  147.9361  132.1596  157.7137 C   0  0  0  0  0  0  0  0  0  0  0  0
  147.8693  132.5310  156.3424 O   0  0  0  0  0  0  0  0  0  0  0  0
  147.4547  133.8710  156.0424 C   0  0  1  0  0  0  0  0  0  0  0  0
  146.0048  134.0984  156.4881 C   0  0  0  0  0  0  0  0  0  0  0  0
  148.5436  134.8733  156.4716 C   0  0  0  0  0  0  0  0  0  0  0  0
  149.2368  134.5751  155.1437 C   0  0  2  0  0  0  0  0  0  0  0  0
  149.8496  135.7584  154.5498 N   0  0  0  0  0  0  0  0  0  0  0  0
  150.8504  136.4538  155.1083 C   0  0  0  0  0  0  0  0  0  0  0  0
  151.3612  136.1491  156.1870 O   0  0  0  0  0  0  0  0  0  0  0  0
  151.3584  137.6605  154.3065 C   0  0  0  0  0  0  0  0  0  0  0  0
  150.6628  138.9157  154.6354 N   0  0  0  0  0  0  0  0  0  0  0  0
  149.3799  139.1017  154.0829 C   0  0  0  0  0  0  0  0  0  0  0  0
  148.6604  140.2107  154.3163 C   0  0  0  0  0  0  0  0  0  0  0  0
  149.2342  141.2314  155.1608 C   0  0  0  0  0  0  0  0  0  0  0  0
  150.4620  141.0651  155.6915 C   0  0  0  0  0  0  0  0  0  0  0  0
  151.2530  139.8555  155.4371 C   0  0  0  0  0  0  0  0  0  0  0  0
  152.3762  139.6965  155.9158 O   0  0  0  0  0  0  0  0  0  0  0  0
  147.8510  134.1914  154.5635 C   0  0  0  0  0  0  0  0  0  0  0  0
  147.8382  133.0158  153.5802 C   0  0  0  0  0  0  0  0  0  0  0  0
  147.0510  135.3164  153.8796 C   0  0  0  0  0  0  0  0  0  0  0  0
  148.4155  131.1843  157.7943 H   0  0  0  0  0  0  0  0  0  0  0  0
  146.9432  132.0661  158.1530 H   0  0  0  0  0  0  0  0  0  0  0  0
  148.5177  132.8632  158.3082 H   0  0  0  0  0  0  0  0  0  0  0  0
  145.6357  135.0769  156.1830 H   0  0  0  0  0  0  0  0  0  0  0  0
  145.8999  134.0619  157.5720 H   0  0  0  0  0  0  0  0  0  0  0  0
  145.3377  133.3495  156.0607 H   0  0  0  0  0  0  0  0  0  0  0  0
  148.1705  135.8959  156.5503 H   0  0  0  0  0  0  0  0  0  0  0  0
  149.1275  134.6028  157.3505 H   0  0  0  0  0  0  0  0  0  0  0  0
  149.9142  133.7217  155.2272 H   0  0  0  0  0  0  0  0  0  0  0  0
  149.4872  136.0683  153.6599 H   0  0  0  0  0  0  0  0  0  0  0  0
  152.4297  137.7594  154.4866 H   0  0  0  0  0  0  0  0  0  0  0  0
  151.2672  137.4501  153.2392 H   0  0  0  0  0  0  0  0  0  0  0  0
  149.0265  138.2952  153.4569 H   0  0  0  0  0  0  0  0  0  0  0  0
  147.6804  140.3381  153.8805 H   0  0  0  0  0  0  0  0  0  0  0  0
  148.6767  142.1332  155.3674 H   0  0  0  0  0  0  0  0  0  0  0  0
  150.8756  141.8400  156.3200 H   0  0  0  0  0  0  0  0  0  0  0  0
  148.1989  133.3125  152.5947 H   0  0  0  0  0  0  0  0  0  0  0  0
  146.8333  132.6111  153.4564 H   0  0  0  0  0  0  0  0  0  0  0  0
  148.4788  132.1985  153.9120 H   0  0  0  0  0  0  0  0  0  0  0  0
  147.4932  135.6019  152.9244 H   0  0  0  0  0  0  0  0  0  0  0  0
  147.0036  136.2186  154.4895 H   0  0  0  0  0  0  0  0  0  0  0  0
  146.0239  135.0103  153.6784 H   0  0  0  0  0  0  0  0  0  0  0  0
  1  2  1  0  0  0  0
  1 21  1  0  0  0  0
  1 22  1  0  0  0  0
  1 23  1  0  0  0  0
  2  3  1  0  0  0  0
  3 18  1  0  0  0  0
  3  4  1  0  0  0  0
  3  5  1  0  0  0  0
  4 24  1  0  0  0  0
  4 25  1  0  0  0  0
  4 26  1  0  0  0  0
  5  6  1  0  0  0  0
  5 27  1  0  0  0  0
  5 28  1  0  0  0  0
  6  7  1  0  0  0  0
  6 18  1  0  0  0  0
  6 29  1  0  0  0  0
  7  8  1  0  0  0  0
  7 30  1  0  0  0  0
  8  9  2  0  0  0  0
  8 10  1  0  0  0  0
 10 11  1  0  0  0  0
 10 31  1  0  0  0  0
 10 32  1  0  0  0  0
 11 16  1  0  0  0  0
 11 12  1  0  0  0  0
 12 13  2  0  0  0  0
 12 33  1  0  0  0  0
 13 14  1  0  0  0  0
 13 34  1  0  0  0  0
 14 15  2  0  0  0  0
 14 35  1  0  0  0  0
 15 16  1  0  0  0  0
 15 36  1  0  0  0  0
 16 17  2  0  0  0  0
 18 19  1  0  0  0  0
 18 20  1  0  0  0  0
 19 37  1  0  0  0  0
 19 38  1  0  0  0  0
 19 39  1  0  0  0  0
 20 40  1  0  0  0  0
 20 41  1  0  0  0  0
 20 42  1  0  0  0  0
M  END
> <s_m_source_file>
AV-unprocessed.smi

> <i_m_source_file_index>
676

> <i_lp_mmshare_version>
43012

> <i_f3d_flags>
0

> <s_epik_input>
W0NIM11PW0NAQF0xKFtDSDNdKVtDSDJdW0NASF0oQzEoW0NIM10pW0NIM10pW05IXUMoPU8pW0NIMl1uMltjSF1bY0hdW2NIXVtjSF1jMj1P

> <s_epik_cmdline>
J2VwaWtfcHl0aG9uJywgJy1waCcsICc3LjAnLCAnLXRuJywgJzgnLCAnLW1hJywgJzIwMCcsICctbWV0YWxfYmluZGluZycsICctaW1hZScsICc8aW5maWxlLm1hZT4nLCAnLW9tYWUnLCAnPG91dGZpbGUubWFlPic=

> <r_lp_tautomer_probability>
1

> <r_epik_Ionization_Penalty>
4.09771e-07

> <r_epik_Ionization_Penalty_Charging>
3.90712e-07

> <r_epik_Ionization_Penalty_Neutral>
1.90591e-08

> <r_epik_State_Penalty>
-0

> <r_epik_Charging_Adjusted_Penalty>
3.90712e-07

> <i_epik_Tot_Q>
0

> <i_epik_Tot_abs_Q>
0

> <r_epik_Metal_State_Penalty>
-0

> <b_epik_Metal_Only>
0

> <s_lp_Force_Field>
OPLS_2005

> <r_lp_Energy>
31.664

> <b_lp_Chiralities_Consistent>
1

> <s_lp_Variant>
AV-unprocessed.smi:676-3

> <Gold.Version>
5.8.1

> <Gold.Id.Protein>
6NUR|6NUR_protein|mol2

> <Gold.PLP.Fitness>
38.4844

> <Gold.PLP.PLP>
-27.7919

> <Gold.PLP.part.hbond>
-3.8608

> <Gold.PLP.part.metal>
0.0000

> <Gold.PLP.part.buried>
4.4433

> <Gold.PLP.part.nonpolar>
-27.3286

> <Gold.PLP.part.repulsive>
0.0942

> <Gold.PLP.ligand.clash>
0.0000

> <Gold.PLP.ligand.torsion>
0.8323

> <Gold.PLP.Chemscore.Hbond>
3.0000

> <Gold.PLP.Chemscore.CHOScore>
0.9940

> <Gold.PLP.Chemscore.Metal>
0.0000

> <Gold.Chemscore.Hbonds>
donor molecule, donor type, donor heavy atom, donor atom, acceptor molecule, acceptor atom, score
      L1  H     7    30       P1  7948  1.00
      P1  H  7997  8009       L1    17  0.98
      P1  H 10752 10763       L1     9  0.24
      L1  C    12    33       P1  7948  0.87

> <Gold.PLP.Chemscore.Internal.Correction>
0.3751

> <Gold.Rescore>
     Score         DG    S(hbond)    S(metal)    S(lipo)     H(rot)  DE(clash)    DE(int)     intcor
     15.69     -16.69       2.63        0.00      56.01       1.62       0.09       0.92       ----

> <Gold.Chemscore.Fitness>
15.6856

> <Gold.Chemscore.DG>
-16.6911

> <Gold.Chemscore.ZeroCoef>
-5.4800

> <Gold.Chemscore.Hbond>
2.6342

> <Gold.Chemscore.Metal>
0.0000

> <Gold.Chemscore.Lipo>
56.0148

> <Gold.Chemscore.Internal_Hbond>
0.0000

> <Gold.Chemscore.DEClash>
0.0861

> <Gold.Chemscore.DEInternal>
0.9194

> <Gold.Chemscore.Rot>
1.6175

> <Gold.Chemscore.Internal.Correction>
   9.000000E+99

> <Gold.Chemscore.Hbonds>
donor molecule, donor type, donor heavy atom, donor atom, acceptor molecule, acceptor atom, score
      L1  H     7    30       P1  7948  0.55
      P1  H  7997  8009       L1    17  0.92
      P1  H 10752 10763       L1     9  0.02

> <Gold.Chemscore.Hbond.Weighted>
-8.7981

> <Gold.Chemscore.Metal.Weighted>
-0.0000

> <Gold.Chemscore.Lipo.Weighted>
-6.5537

> <Gold.Chemscore.Internal_Hbond.Weighted>
0.0000

> <Gold.Chemscore.DEClash.Weighted>
0.0861

> <Gold.Chemscore.DEInternal.Weighted>
0.9194

> <Gold.Chemscore.Rot.Weighted>
4.1408

> <Gold.Chemscore.Internal.Correction.Weighted>
   9.000000E+99

> <Gold.Protein.RotatedTorsions>
[ 6907 6896 6895 6894 ] final  -43.90 input  -60.11 | X-H torsion
[ 7974 7965 7964 7962 ] final  -74.37 input  175.53 | X-H torsion
[ 8008 7997 7996 7995 ] final -154.85 input   59.86 | X-H torsion
[ 10167 10162 10161 10158 ] final   50.62 input  -65.29 | X-H torsion
[ 10718 10713 10712 10709 ] final  146.51 input   66.30 | X-H torsion
[ 10763 10752 10751 10750 ] final   99.89 input  -60.55 | X-H torsion
[ 11005 11000 10999 10996 ] final -136.15 input  -57.11 | X-H torsion

> <Gold.Protein.ActiveResidues>
 VAL166  LYS551  ARG553  GLY616  TRP617  ASP618  TYR619  PRO620  LYS621  CYS622 
 ASP623  PHE694  ASN695  SER759  ASP760  ASP761  ALA762  ILE779  LEU786  VAL792 
 PHE793  MET794  SER795  GLU796  ALA797  LYS798  CYS799  TRP800  GLU811  SER814 

> <Gold.Protein.RotatedAtoms>
  150.9387  134.8798  159.7598 H   0  0  0  0  0  0  0  0  0  0  0  0  # atno 6907 bound_to 6896
  152.5071  134.3973  159.9414 H   0  0  0  0  0  0  0  0  0  0  0  0  # atno 6908 bound_to 6896
  151.3995  133.3722  159.2765 H   0  0  0  0  0  0  0  0  0  0  0  0  # atno 6909 bound_to 6896
  145.6400  140.9314  143.1041 H   0  0  0  0  0  0  0  0  0  0  0  0  # atno 7974 bound_to 7965
  155.6928  140.0757  157.2441 H   0  0  0  0  0  0  0  0  0  0  0  0  # atno 8008 bound_to 7997
  154.4086  140.1661  156.2157 H   0  0  0  0  0  0  0  0  0  0  0  0  # atno 8009 bound_to 7997
  155.9437  140.3382  155.6352 H   0  0  0  0  0  0  0  0  0  0  0  0  # atno 8010 bound_to 7997
  140.2705  144.3270  150.6291 H   0  0  0  0  0  0  0  0  0  0  0  0  # atno 10167 bound_to 10162
  157.3323  131.0922  151.1152 H   0  0  0  0  0  0  0  0  0  0  0  0  # atno 10718 bound_to 10713
  153.3071  135.4098  155.1303 H   0  0  0  0  0  0  0  0  0  0  0  0  # atno 10763 bound_to 10752
  154.8565  135.3555  154.5774 H   0  0  0  0  0  0  0  0  0  0  0  0  # atno 10764 bound_to 10752
  153.6201  135.7065  153.5372 H   0  0  0  0  0  0  0  0  0  0  0  0  # atno 10765 bound_to 10752
  140.8832  134.1906  157.4577 H   0  0  0  0  0  0  0  0  0  0  0  0  # atno 11005 bound_to 11000
  144.7161  139.8192  143.7398 LP  0  0  0  0  0  0  0  0  0  0  0  0  # atno 17320 bound_to 7965
  146.1289  139.4320  143.0181 LP  0  0  0  0  0  0  0  0  0  0  0  0  # atno 17321 bound_to 7965
  140.5893  143.2168  151.7283 LP  0  0  0  0  0  0  0  0  0  0  0  0  # atno 17342 bound_to 10162
  139.4990  144.3963  152.0228 LP  0  0  0  0  0  0  0  0  0  0  0  0  # atno 17343 bound_to 10162
  157.2396  130.6563  149.5884 LP  0  0  0  0  0  0  0  0  0  0  0  0  # atno 17370 bound_to 10713
  155.9697  130.4572  150.5955 LP  0  0  0  0  0  0  0  0  0  0  0  0  # atno 17371 bound_to 10713
  139.8721  134.9826  156.5164 LP  0  0  0  0  0  0  0  0  0  0  0  0  # atno 17394 bound_to 11000
  140.8437  133.8185  155.9100 LP  0  0  0  0  0  0  0  0  0  0  0  0  # atno 17395 bound_to 11000

$$$$
