AV-unprocessed.smi:3306|AV-procd|sdf|12704|dock8
  -GOLD-   2272019 43D 1   1.00000     0.00000
 Structure written by MMmdl.
 44 45  0  0  0  0  0  0  0  0  2 V2000
  147.8951  132.7654  152.8610 C   0  0  0  0  0  0  0  0  0  0  0  0
  146.6376  133.4737  152.3128 C   0  0  0  0  0  0  0  0  0  0  0  0
  146.5001  133.1267  150.8153 C   0  0  0  0  0  0  0  0  0  0  0  0
  146.6459  134.9561  152.5447 N   0  3  2  0  0  0  0  0  0  0  0  0
  146.6679  135.3480  153.9847 C   0  0  0  0  0  0  0  0  0  0  0  0
  146.7832  136.8706  154.1650 C   0  0  0  0  0  0  0  0  0  0  0  0
  145.6439  137.6087  153.4514 C   0  0  1  0  0  0  0  0  0  0  0  0
  145.8726  139.0411  153.5868 N   0  0  0  0  0  0  0  0  0  0  0  0
  147.2108  139.4275  153.1589 C   0  0  0  0  0  0  0  0  0  0  0  0
  147.9152  140.2647  154.2407 C   0  0  0  0  0  0  0  0  0  0  0  0
  149.3312  139.7983  154.5371 C   0  0  0  0  0  0  0  0  0  0  0  0
  150.1562  140.5314  155.4170 C   0  0  0  0  0  0  0  0  0  0  0  0
  151.4670  140.0714  155.6489 C   0  0  0  0  0  0  0  0  0  0  0  0
  151.9012  138.9024  154.9949 C   0  0  0  0  0  0  0  0  0  0  0  0
  151.0013  138.2427  154.1345 C   0  0  0  0  0  0  0  0  0  0  0  0
  149.7430  138.6758  153.9047 N   0  0  0  0  0  0  0  0  0  0  0  0
  145.6385  137.1879  151.9725 C   0  0  0  0  0  0  0  0  0  0  0  0
  145.5422  135.6604  151.8288 C   0  0  0  0  0  0  0  0  0  0  0  0
  147.9116  131.7145  152.5702 H   0  0  0  0  0  0  0  0  0  0  0  0
  147.9316  132.7736  153.9503 H   0  0  0  0  0  0  0  0  0  0  0  0
  148.8094  133.2236  152.4819 H   0  0  0  0  0  0  0  0  0  0  0  0
  145.7758  133.0567  152.8366 H   0  0  0  0  0  0  0  0  0  0  0  0
  146.6082  132.0543  150.6504 H   0  0  0  0  0  0  0  0  0  0  0  0
  147.2646  133.6274  150.2201 H   0  0  0  0  0  0  0  0  0  0  0  0
  145.5252  133.3928  150.4099 H   0  0  0  0  0  0  0  0  0  0  0  0
  145.7702  134.9747  154.4798 H   0  0  0  0  0  0  0  0  0  0  0  0
  147.5231  134.9092  154.4957 H   0  0  0  0  0  0  0  0  0  0  0  0
  146.7773  137.1131  155.2285 H   0  0  0  0  0  0  0  0  0  0  0  0
  147.7473  137.2056  153.7779 H   0  0  0  0  0  0  0  0  0  0  0  0
  144.6986  137.3400  153.9256 H   0  0  0  0  0  0  0  0  0  0  0  0
  145.1957  139.5484  153.0343 H   0  0  0  0  0  0  0  0  0  0  0  0
  147.8140  138.5493  152.9307 H   0  0  0  0  0  0  0  0  0  0  0  0
  147.1324  140.0128  152.2420 H   0  0  0  0  0  0  0  0  0  0  0  0
  147.9553  141.3060  153.9191 H   0  0  0  0  0  0  0  0  0  0  0  0
  147.3298  140.2593  155.1614 H   0  0  0  0  0  0  0  0  0  0  0  0
  149.7953  141.4269  155.9010 H   0  0  0  0  0  0  0  0  0  0  0  0
  152.1276  140.6062  156.3152 H   0  0  0  0  0  0  0  0  0  0  0  0
  152.8996  138.5205  155.1487 H   0  0  0  0  0  0  0  0  0  0  0  0
  151.3006  137.3439  153.6157 H   0  0  0  0  0  0  0  0  0  0  0  0
  144.8033  137.6450  151.4424 H   0  0  0  0  0  0  0  0  0  0  0  0
  146.5460  137.5420  151.4806 H   0  0  0  0  0  0  0  0  0  0  0  0
  145.5616  135.4376  150.7642 H   0  0  0  0  0  0  0  0  0  0  0  0
  144.5807  135.3100  152.2076 H   0  0  0  0  0  0  0  0  0  0  0  0
  147.5100  135.2988  152.1493 H   0  0  0  0  0  0  0  0  0  0  0  0
  1  2  1  0  0  0  0
  1 19  1  0  0  0  0
  1 20  1  0  0  0  0
  1 21  1  0  0  0  0
  2  3  1  0  0  0  0
  2  4  1  0  0  0  0
  2 22  1  0  0  0  0
  3 23  1  0  0  0  0
  3 24  1  0  0  0  0
  3 25  1  0  0  0  0
  4 18  1  0  0  0  0
  4  5  1  0  0  0  0
  4 44  1  0  0  0  0
  5  6  1  0  0  0  0
  5 26  1  0  0  0  0
  5 27  1  0  0  0  0
  6  7  1  0  0  0  0
  6 28  1  0  0  0  0
  6 29  1  0  0  0  0
  7  8  1  0  0  0  0
  7 17  1  0  0  0  0
  7 30  1  0  0  0  0
  8  9  1  0  0  0  0
  8 31  1  0  0  0  0
  9 10  1  0  0  0  0
  9 32  1  0  0  0  0
  9 33  1  0  0  0  0
 10 11  1  0  0  0  0
 10 34  1  0  0  0  0
 10 35  1  0  0  0  0
 11 16  1  0  0  0  0
 11 12  2  0  0  0  0
 12 13  1  0  0  0  0
 12 36  1  0  0  0  0
 13 14  2  0  0  0  0
 13 37  1  0  0  0  0
 14 15  1  0  0  0  0
 14 38  1  0  0  0  0
 15 16  2  0  0  0  0
 15 39  1  0  0  0  0
 17 18  1  0  0  0  0
 17 40  1  0  0  0  0
 17 41  1  0  0  0  0
 18 42  1  0  0  0  0
 18 43  1  0  0  0  0
M  CHG  1   4   1
M  END
> <s_m_source_file>
AV-unprocessed.smi

> <i_m_source_file_index>
3306

> <i_lp_mmshare_version>
43012

> <i_f3d_flags>
0

> <s_epik_input>
W0NIM11bQ0hdKFtDSDNdKU4xW0NIMl1bQ0gyXVtDSF0oW0NIMl1bQ0gyXTEpW05IXVtDSDJdW0NIMl1jMltjSF1bY0hdW2NIXVtjSF1uMg==

> <s_epik_cmdline>
J2VwaWtfcHl0aG9uJywgJy1waCcsICc3LjAnLCAnLXRuJywgJzgnLCAnLW1hJywgJzIwMCcsICctbWV0YWxfYmluZGluZycsICctaW1hZScsICc8aW5maWxlLm1hZT4nLCAnLW9tYWUnLCAnPG91dGZpbGUubWFlPic=

> <r_epik_Ionization_Penalty>
2.29993

> <r_epik_Ionization_Penalty_Charging>
0.000386008

> <r_epik_Ionization_Penalty_Neutral>
2.29954

> <r_epik_State_Penalty>
2.40593

> <r_epik_Charging_Adjusted_Penalty>
2.40631

> <i_epik_Tot_Q>
1

> <i_epik_Tot_abs_Q>
1

> <r_epik_Metal_State_Penalty>
2.31593

> <b_epik_Metal_Only>
0

> <s_lp_Force_Field>
OPLS_2005

> <r_lp_Energy>
25.7367

> <b_lp_Chiralities_Consistent>
1

> <s_lp_Variant>
AV-unprocessed.smi:3306-4

> <Gold.Version>
5.8.1

> <Gold.Id.Protein>
6NUR|6NUR_protein|mol2

> <Gold.PLP.Fitness>
43.3359

> <Gold.PLP.PLP>
-32.9085

> <Gold.PLP.part.hbond>
-2.0000

> <Gold.PLP.part.metal>
0.0000

> <Gold.PLP.part.buried>
-1.2564

> <Gold.PLP.part.nonpolar>
-29.7448

> <Gold.PLP.part.repulsive>
0.9373

> <Gold.PLP.ligand.clash>
0.0000

> <Gold.PLP.ligand.torsion>
0.8109

> <Gold.PLP.Chemscore.Hbond>
3.0000

> <Gold.PLP.Chemscore.CHOScore>
1.0000

> <Gold.PLP.Chemscore.Metal>
0.0000

> <Gold.Chemscore.Hbonds>
donor molecule, donor type, donor heavy atom, donor atom, acceptor molecule, acceptor atom, score
      L1  H     4    44       P1  7948  2.00
      L1  H     8    31       P1 10175  1.00
      L1  C    15    39       P1  7949  1.00

> <Gold.PLP.Chemscore.Internal.Correction>
0.0492

> <Gold.Rescore>
     Score         DG    S(hbond)    S(metal)    S(lipo)     H(rot)  DE(clash)    DE(int)     intcor
     17.54     -18.35       2.00        0.00      83.78       1.41       0.02       0.79       ----

> <Gold.Chemscore.Fitness>
17.5424

> <Gold.Chemscore.DG>
-18.3493

> <Gold.Chemscore.ZeroCoef>
-5.4800

> <Gold.Chemscore.Hbond>
1.9973

> <Gold.Chemscore.Metal>
0.0000

> <Gold.Chemscore.Lipo>
83.7814

> <Gold.Chemscore.Internal_Hbond>
0.0000

> <Gold.Chemscore.DEClash>
0.0212

> <Gold.Chemscore.DEInternal>
0.7857

> <Gold.Chemscore.Rot>
1.4078

> <Gold.Chemscore.Internal.Correction>
   9.000000E+99

> <Gold.Chemscore.Hbonds>
donor molecule, donor type, donor heavy atom, donor atom, acceptor molecule, acceptor atom, score
      L1  H     4    44       P1  7948  0.99
      L1  H     8    31       P1 10175  1.00

> <Gold.Chemscore.Hbond.Weighted>
-6.6710

> <Gold.Chemscore.Metal.Weighted>
-0.0000

> <Gold.Chemscore.Lipo.Weighted>
-9.8024

> <Gold.Chemscore.Internal_Hbond.Weighted>
0.0000

> <Gold.Chemscore.DEClash.Weighted>
0.0212

> <Gold.Chemscore.DEInternal.Weighted>
0.7857

> <Gold.Chemscore.Rot.Weighted>
3.6041

> <Gold.Chemscore.Internal.Correction.Weighted>
   9.000000E+99

> <Gold.Protein.RotatedTorsions>
[ 6907 6896 6895 6894 ] final  112.45 input  -60.11 | X-H torsion
[ 7974 7965 7964 7962 ] final   43.10 input  175.53 | X-H torsion
[ 8008 7997 7996 7995 ] final -106.36 input   59.86 | X-H torsion
[ 10167 10162 10161 10158 ] final   41.99 input  -65.29 | X-H torsion
[ 10718 10713 10712 10709 ] final  120.50 input   66.30 | X-H torsion
[ 10763 10752 10751 10750 ] final   35.19 input  -60.55 | X-H torsion
[ 11005 11000 10999 10996 ] final   76.50 input  -57.11 | X-H torsion

> <Gold.Protein.ActiveResidues>
 VAL166  LYS551  ARG553  GLY616  TRP617  ASP618  TYR619  PRO620  LYS621  CYS622 
 ASP623  PHE694  ASN695  SER759  ASP760  ASP761  ALA762  ILE779  LEU786  VAL792 
 PHE793  MET794  SER795  GLU796  ALA797  LYS798  CYS799  TRP800  GLU811  SER814 

> <Gold.Protein.RotatedAtoms>
  152.4915  133.8514  159.7203 H   0  0  0  0  0  0  0  0  0  0  0  0  # atno 6907 bound_to 6896
  150.9050  133.7060  159.2876 H   0  0  0  0  0  0  0  0  0  0  0  0  # atno 6908 bound_to 6896
  151.4489  135.1032  159.9744 H   0  0  0  0  0  0  0  0  0  0  0  0  # atno 6909 bound_to 6896
  146.0684  139.5225  142.9613 H   0  0  0  0  0  0  0  0  0  0  0  0  # atno 7974 bound_to 7965
  154.9133  140.0409  157.1958 H   0  0  0  0  0  0  0  0  0  0  0  0  # atno 8008 bound_to 7997
  154.8326  140.2901  155.5691 H   0  0  0  0  0  0  0  0  0  0  0  0  # atno 8009 bound_to 7997
  156.2987  140.2498  156.3254 H   0  0  0  0  0  0  0  0  0  0  0  0  # atno 8010 bound_to 7997
  140.3588  144.2255  150.6139 H   0  0  0  0  0  0  0  0  0  0  0  0  # atno 10167 bound_to 10162
  157.5886  131.1067  150.8044 H   0  0  0  0  0  0  0  0  0  0  0  0  # atno 10718 bound_to 10713
  153.0130  135.6340  154.1788 H   0  0  0  0  0  0  0  0  0  0  0  0  # atno 10763 bound_to 10752
  154.1529  135.2828  155.3132 H   0  0  0  0  0  0  0  0  0  0  0  0  # atno 10764 bound_to 10752
  154.6040  135.5578  153.7464 H   0  0  0  0  0  0  0  0  0  0  0  0  # atno 10765 bound_to 10752
  139.9295  134.7606  156.1403 H   0  0  0  0  0  0  0  0  0  0  0  0  # atno 11005 bound_to 11000
  145.6435  141.0279  143.1799 LP  0  0  0  0  0  0  0  0  0  0  0  0  # atno 17320 bound_to 7965
  144.7217  139.8009  143.7379 LP  0  0  0  0  0  0  0  0  0  0  0  0  # atno 17321 bound_to 7965
  140.5147  143.2281  151.8481 LP  0  0  0  0  0  0  0  0  0  0  0  0  # atno 17342 bound_to 10162
  139.4816  144.4908  151.9187 LP  0  0  0  0  0  0  0  0  0  0  0  0  # atno 17343 bound_to 10162
  156.8472  130.5068  149.5315 LP  0  0  0  0  0  0  0  0  0  0  0  0  # atno 17370 bound_to 10713
  156.0938  130.5916  150.9778 LP  0  0  0  0  0  0  0  0  0  0  0  0  # atno 17371 bound_to 10713
  141.0875  133.6728  156.2469 LP  0  0  0  0  0  0  0  0  0  0  0  0  # atno 17394 bound_to 11000
  140.6240  134.5332  157.5551 LP  0  0  0  0  0  0  0  0  0  0  0  0  # atno 17395 bound_to 11000

$$$$
