AV-unprocessed.smi:2436|AV-procd|sdf|9593|dock5
  -GOLD-   2272013223D 1   1.00000     0.00000
 Structure written by MMmdl.
 36 37  0  0  0  0  0  0  0  0  1 V2000
  153.2878  142.1596  159.7727 C   0  0  0  0  0  0  0  0  0  0  0  0
  153.2051  143.3636  158.8218 C   0  0  0  0  0  0  0  0  0  0  0  0
  151.8345  144.0663  158.8051 C   0  0  0  0  0  0  0  0  0  0  0  0
  151.0328  143.6094  157.6655 N   0  0  0  0  0  0  0  0  0  0  0  0
  151.0129  142.3707  157.1477 C   0  0  0  0  0  0  0  0  0  0  0  0
  151.6840  141.4369  157.5881 O   0  0  0  0  0  0  0  0  0  0  0  0
  150.1732  142.2974  156.1002 N   0  0  0  0  0  0  0  0  0  0  0  0
  149.8782  141.1678  155.2919 C   0  0  0  0  0  0  0  0  0  0  0  0
  148.6242  141.1898  154.6409 C   0  0  0  0  0  0  0  0  0  0  0  0
  148.2910  140.0851  153.8305 C   0  0  0  0  0  0  0  0  0  0  0  0
  147.0749  140.0667  153.1796 O   0  0  0  0  0  0  0  0  0  0  0  0
  146.8294  139.0219  152.2449 C   0  0  0  0  0  0  0  0  0  0  0  0
  149.1424  139.0419  153.6797 N   0  0  0  0  0  0  0  0  0  0  0  0
  150.3023  139.1143  154.3335 C   0  0  0  0  0  0  0  0  0  0  0  0
  150.7099  140.1103  155.1224 N   0  0  0  0  0  0  0  0  0  0  0  0
  151.0110  144.0932  160.1116 C   0  0  0  0  0  0  0  0  0  0  0  0
  151.6045  145.4753  160.3952 C   0  0  0  0  0  0  0  0  0  0  0  0
  151.8048  145.6063  158.8831 C   0  0  0  0  0  0  0  0  0  0  0  0
  154.2659  141.6835  159.7043 H   0  0  0  0  0  0  0  0  0  0  0  0
  152.5379  141.4071  159.5294 H   0  0  0  0  0  0  0  0  0  0  0  0
  153.1420  142.4566  160.8115 H   0  0  0  0  0  0  0  0  0  0  0  0
  153.9901  144.0737  159.0830 H   0  0  0  0  0  0  0  0  0  0  0  0
  153.4551  143.0212  157.8172 H   0  0  0  0  0  0  0  0  0  0  0  0
  150.4440  144.3050  157.2313 H   0  0  0  0  0  0  0  0  0  0  0  0
  149.6876  143.1470  155.8533 H   0  0  0  0  0  0  0  0  0  0  0  0
  147.9399  142.0178  154.7564 H   0  0  0  0  0  0  0  0  0  0  0  0
  145.8306  139.1401  151.8253 H   0  0  0  0  0  0  0  0  0  0  0  0
  146.8734  138.0417  152.7219 H   0  0  0  0  0  0  0  0  0  0  0  0
  147.5411  139.0506  151.4186 H   0  0  0  0  0  0  0  0  0  0  0  0
  150.9799  138.2824  154.2125 H   0  0  0  0  0  0  0  0  0  0  0  0
  149.9309  144.1303  159.9558 H   0  0  0  0  0  0  0  0  0  0  0  0
  151.2818  143.3271  160.8389 H   0  0  0  0  0  0  0  0  0  0  0  0
  150.9067  146.1920  160.8288 H   0  0  0  0  0  0  0  0  0  0  0  0
  152.5435  145.4341  160.9497 H   0  0  0  0  0  0  0  0  0  0  0  0
  152.7307  146.1045  158.5952 H   0  0  0  0  0  0  0  0  0  0  0  0
  150.9417  146.0571  158.3890 H   0  0  0  0  0  0  0  0  0  0  0  0
  1  2  1  0  0  0  0
  1 19  1  0  0  0  0
  1 20  1  0  0  0  0
  1 21  1  0  0  0  0
  2  3  1  0  0  0  0
  2 22  1  0  0  0  0
  2 23  1  0  0  0  0
  3 18  1  0  0  0  0
  3  4  1  0  0  0  0
  3 16  1  0  0  0  0
  4  5  1  0  0  0  0
  4 24  1  0  0  0  0
  5  6  2  0  0  0  0
  5  7  1  0  0  0  0
  7  8  1  0  0  0  0
  7 25  1  0  0  0  0
  8 15  1  0  0  0  0
  8  9  2  0  0  0  0
  9 10  1  0  0  0  0
  9 26  1  0  0  0  0
 10 11  1  0  0  0  0
 10 13  2  0  0  0  0
 11 12  1  0  0  0  0
 12 27  1  0  0  0  0
 12 28  1  0  0  0  0
 12 29  1  0  0  0  0
 13 14  1  0  0  0  0
 14 15  2  0  0  0  0
 14 30  1  0  0  0  0
 16 17  1  0  0  0  0
 16 31  1  0  0  0  0
 16 32  1  0  0  0  0
 17 18  1  0  0  0  0
 17 33  1  0  0  0  0
 17 34  1  0  0  0  0
 18 35  1  0  0  0  0
 18 36  1  0  0  0  0
M  END
> <s_m_source_file>
AV-unprocessed.smi

> <i_m_source_file_index>
2436

> <i_lp_mmshare_version>
43012

> <i_f3d_flags>
0

> <s_epik_input>
W0NIMl0xW0NIMl1bQ0gyXUMxKFtDSDJdW0NIM10pW05IXUMoPU8pW05IXWMyW2NIXWMoT1tDSDNdKW5bY0hdbjI=

> <s_epik_cmdline>
J2VwaWtfcHl0aG9uJywgJy1waCcsICc3LjAnLCAnLXRuJywgJzgnLCAnLW1hJywgJzIwMCcsICctbWV0YWxfYmluZGluZycsICctaW1hZScsICc8aW5maWxlLm1hZT4nLCAnLW9tYWUnLCAnPG91dGZpbGUubWFlPic=

> <r_lp_tautomer_probability>
1

> <r_epik_Ionization_Penalty>
2.8431e-05

> <r_epik_Ionization_Penalty_Charging>
0

> <r_epik_Ionization_Penalty_Neutral>
2.8431e-05

> <r_epik_State_Penalty>
-0

> <r_epik_Charging_Adjusted_Penalty>
0

> <i_epik_Tot_Q>
0

> <i_epik_Tot_abs_Q>
0

> <r_epik_Metal_State_Penalty>
-0

> <b_epik_Metal_Only>
0

> <s_lp_Force_Field>
OPLS_2005

> <r_lp_Energy>
14.8333

> <b_lp_Chiralities_Consistent>
1

> <s_lp_Variant>
AV-unprocessed.smi:2436-1

> <Gold.Version>
5.8.1

> <Gold.Id.Protein>
6NUR|6NUR_protein|mol2

> <Gold.PLP.Fitness>
42.4515

> <Gold.PLP.PLP>
-39.4289

> <Gold.PLP.part.hbond>
-2.6913

> <Gold.PLP.part.metal>
0.0000

> <Gold.PLP.part.buried>
-3.3042

> <Gold.PLP.part.nonpolar>
-35.1882

> <Gold.PLP.part.repulsive>
2.6338

> <Gold.PLP.ligand.clash>
0.0987

> <Gold.PLP.ligand.torsion>
1.3294

> <Gold.PLP.Chemscore.Hbond>
1.7927

> <Gold.PLP.Chemscore.CHOScore>
0.0000

> <Gold.PLP.Chemscore.Metal>
0.0000

> <Gold.Chemscore.Hbonds>
donor molecule, donor type, donor heavy atom, donor atom, acceptor molecule, acceptor atom, score
      L1  H     4    24       P1  8028  0.50
      L1  H     7    25       P1  8028  1.00
      P1  H  7989  7998       L1    15  0.26

> <Gold.PLP.Chemscore.Internal.Correction>
0.4020

> <Gold.Rescore>
     Score         DG    S(hbond)    S(metal)    S(lipo)     H(rot)  DE(clash)    DE(int)     intcor
     12.30     -16.58       1.55        0.00      85.15       1.57       0.08       4.20       ----

> <Gold.Chemscore.Fitness>
12.2963

> <Gold.Chemscore.DG>
-16.5817

> <Gold.Chemscore.ZeroCoef>
-5.4800

> <Gold.Chemscore.Hbond>
1.5469

> <Gold.Chemscore.Metal>
0.0000

> <Gold.Chemscore.Lipo>
85.1487

> <Gold.Chemscore.Internal_Hbond>
0.0000

> <Gold.Chemscore.DEClash>
0.0845

> <Gold.Chemscore.DEInternal>
4.2009

> <Gold.Chemscore.Rot>
1.5732

> <Gold.Chemscore.Internal.Correction>
   9.000000E+99

> <Gold.Chemscore.Hbonds>
donor molecule, donor type, donor heavy atom, donor atom, acceptor molecule, acceptor atom, score
      L1  H     4    24       P1  8028  0.39
      L1  H     7    25       P1  8028  1.00

> <Gold.Chemscore.Hbond.Weighted>
-5.1667

> <Gold.Chemscore.Metal.Weighted>
-0.0000

> <Gold.Chemscore.Lipo.Weighted>
-9.9624

> <Gold.Chemscore.Internal_Hbond.Weighted>
0.0000

> <Gold.Chemscore.DEClash.Weighted>
0.0845

> <Gold.Chemscore.DEInternal.Weighted>
4.2009

> <Gold.Chemscore.Rot.Weighted>
4.0274

> <Gold.Chemscore.Internal.Correction.Weighted>
   9.000000E+99

> <Gold.Protein.RotatedTorsions>
[ 6907 6896 6895 6894 ] final  -79.86 input  -60.11 | X-H torsion
[ 7974 7965 7964 7962 ] final  -51.58 input  175.53 | X-H torsion
[ 8008 7997 7996 7995 ] final -118.89 input   59.86 | X-H torsion
[ 10167 10162 10161 10158 ] final   67.42 input  -65.29 | X-H torsion
[ 10718 10713 10712 10709 ] final  175.93 input   66.30 | X-H torsion
[ 10763 10752 10751 10750 ] final -166.58 input  -60.55 | X-H torsion
[ 11005 11000 10999 10996 ] final  -23.52 input  -57.11 | X-H torsion

> <Gold.Protein.ActiveResidues>
 VAL166  LYS551  ARG553  GLY616  TRP617  ASP618  TYR619  PRO620  LYS621  CYS622 
 ASP623  PHE694  ASN695  SER759  ASP760  ASP761  ALA762  ILE779  LEU786  VAL792 
 PHE793  MET794  SER795  GLU796  ALA797  LYS798  CYS799  TRP800  GLU811  SER814 

> <Gold.Protein.RotatedAtoms>
  150.6941  134.4057  159.5138 H   0  0  0  0  0  0  0  0  0  0  0  0  # atno 6907 bound_to 6896
  152.1823  134.8740  160.0534 H   0  0  0  0  0  0  0  0  0  0  0  0  # atno 6908 bound_to 6896
  151.9726  133.3696  159.4114 H   0  0  0  0  0  0  0  0  0  0  0  0  # atno 6909 bound_to 6896
  145.9173  140.7864  142.9665 H   0  0  0  0  0  0  0  0  0  0  0  0  # atno 7974 bound_to 7965
  155.1069  140.0396  157.2713 H   0  0  0  0  0  0  0  0  0  0  0  0  # atno 8008 bound_to 7997
  154.6715  140.2613  155.6977 H   0  0  0  0  0  0  0  0  0  0  0  0  # atno 8009 bound_to 7997
  156.2660  140.2797  156.1226 H   0  0  0  0  0  0  0  0  0  0  0  0  # atno 8010 bound_to 7997
  140.0897  144.4999  150.7107 H   0  0  0  0  0  0  0  0  0  0  0  0  # atno 10167 bound_to 10162
  156.9276  130.9961  151.2993 H   0  0  0  0  0  0  0  0  0  0  0  0  # atno 10718 bound_to 10713
  154.6818  135.2956  154.9602 H   0  0  0  0  0  0  0  0  0  0  0  0  # atno 10763 bound_to 10752
  154.0594  135.6633  153.4814 H   0  0  0  0  0  0  0  0  0  0  0  0  # atno 10764 bound_to 10752
  153.0553  135.5149  154.7865 H   0  0  0  0  0  0  0  0  0  0  0  0  # atno 10765 bound_to 10752
  140.8759  133.7687  156.0243 H   0  0  0  0  0  0  0  0  0  0  0  0  # atno 11005 bound_to 11000
  144.6749  140.1921  143.7395 LP  0  0  0  0  0  0  0  0  0  0  0  0  # atno 17320 bound_to 7965
  145.8594  139.2215  143.1725 LP  0  0  0  0  0  0  0  0  0  0  0  0  # atno 17321 bound_to 7965
  140.7035  143.2451  151.4795 LP  0  0  0  0  0  0  0  0  0  0  0  0  # atno 17342 bound_to 10162
  139.5732  144.1880  152.1866 LP  0  0  0  0  0  0  0  0  0  0  0  0  # atno 17343 bound_to 10162
  157.5867  130.8415  149.8600 LP  0  0  0  0  0  0  0  0  0  0  0  0  # atno 17370 bound_to 10713
  156.0462  130.3727  150.1313 LP  0  0  0  0  0  0  0  0  0  0  0  0  # atno 17371 bound_to 10713
  140.8518  134.2945  157.5272 LP  0  0  0  0  0  0  0  0  0  0  0  0  # atno 17394 bound_to 11000
  139.8715  134.9472  156.3959 LP  0  0  0  0  0  0  0  0  0  0  0  0  # atno 17395 bound_to 11000

$$$$
