AV-unprocessed.smi:850|AV-procd|sdf|3947|dock10
  -GOLD-   22720 1413D 1   1.00000     0.00000
 Structure written by MMmdl.
 40 42  0  0  0  0  0  0  0  0  1 V2000
  151.1952  142.6231  156.9582 C   0  0  0  0  0  0  0  0  0  0  0  0
  151.8742  142.1424  158.1554 N   0  0  0  0  0  0  0  0  0  0  0  0
  152.4865  140.9469  158.3226 C   0  0  0  0  0  0  0  0  0  0  0  0
  152.5738  140.0525  157.4815 O   0  0  0  0  0  0  0  0  0  0  0  0
  152.9841  140.9033  159.5816 N   0  0  0  0  0  0  0  0  0  0  0  0
  153.7254  139.7974  160.1852 C   0  0  0  0  0  0  0  0  0  0  0  0
  155.0114  140.2838  160.8835 C   0  0  2  0  0  0  0  0  0  0  0  0
  155.8860  140.8079  159.9046 O   0  0  0  0  0  0  0  0  0  0  0  0
  155.7522  139.1394  161.5915 C   0  0  0  0  0  0  0  0  0  0  0  0
  154.9578  138.6850  162.6795 O   0  0  0  0  0  0  0  0  0  0  0  0
  154.8657  137.3281  162.9006 C   0  0  0  0  0  0  0  0  0  0  0  0
  154.1510  136.9141  164.0437 C   0  0  0  0  0  0  0  0  0  0  0  0
  154.0038  135.5467  164.3460 C   0  0  0  0  0  0  0  0  0  0  0  0
  154.5739  134.5750  163.5033 C   0  0  0  0  0  0  0  0  0  0  0  0
  155.2908  134.9736  162.3600 C   0  0  0  0  0  0  0  0  0  0  0  0
  155.4385  136.3415  162.0579 C   0  0  0  0  0  0  0  0  0  0  0  0
  152.6750  142.1025  160.2397 C   0  0  0  0  0  0  0  0  0  0  0  0
  152.9535  142.5432  161.5457 C   0  0  0  0  0  0  0  0  0  0  0  0
  152.4920  143.8314  161.9051 C   0  0  0  0  0  0  0  0  0  0  0  0
  151.7788  144.6342  160.9772 C   0  0  0  0  0  0  0  0  0  0  0  0
  151.5098  144.1650  159.6700 C   0  0  0  0  0  0  0  0  0  0  0  0
  151.9788  142.8819  159.3400 C   0  0  0  0  0  0  0  0  0  0  0  0
  151.2066  141.8857  156.1544 H   0  0  0  0  0  0  0  0  0  0  0  0
  151.6776  143.5292  156.5906 H   0  0  0  0  0  0  0  0  0  0  0  0
  150.1550  142.8577  157.1847 H   0  0  0  0  0  0  0  0  0  0  0  0
  153.0676  139.3238  160.9159 H   0  0  0  0  0  0  0  0  0  0  0  0
  153.9445  139.0222  159.4502 H   0  0  0  0  0  0  0  0  0  0  0  0
  154.7912  141.0665  161.6108 H   0  0  0  0  0  0  0  0  0  0  0  0
  155.5235  140.6254  159.0512 H   0  0  0  0  0  0  0  0  0  0  0  0
  155.9491  138.3293  160.8869 H   0  0  0  0  0  0  0  0  0  0  0  0
  156.7099  139.4984  161.9729 H   0  0  0  0  0  0  0  0  0  0  0  0
  153.7094  137.6538  164.6953 H   0  0  0  0  0  0  0  0  0  0  0  0
  153.4533  135.2440  165.2246 H   0  0  0  0  0  0  0  0  0  0  0  0
  154.4616  133.5257  163.7340 H   0  0  0  0  0  0  0  0  0  0  0  0
  155.7294  134.2288  161.7124 H   0  0  0  0  0  0  0  0  0  0  0  0
  155.9964  136.6082  161.1732 H   0  0  0  0  0  0  0  0  0  0  0  0
  153.4948  141.9286  162.2494 H   0  0  0  0  0  0  0  0  0  0  0  0
  152.6851  144.2086  162.8986 H   0  0  0  0  0  0  0  0  0  0  0  0
  151.4364  145.6151  161.2729 H   0  0  0  0  0  0  0  0  0  0  0  0
  150.9666  144.7686  158.9580 H   0  0  0  0  0  0  0  0  0  0  0  0
  1  2  1  0  0  0  0
  1 23  1  0  0  0  0
  1 24  1  0  0  0  0
  1 25  1  0  0  0  0
  2 22  1  0  0  0  0
  2  3  1  0  0  0  0
  3  4  2  0  0  0  0
  3  5  1  0  0  0  0
  5  6  1  0  0  0  0
  5 17  1  0  0  0  0
  6  7  1  0  0  0  0
  6 26  1  0  0  0  0
  6 27  1  0  0  0  0
  7  8  1  0  0  0  0
  7  9  1  0  0  0  0
  7 28  1  0  0  0  0
  8 29  1  0  0  0  0
  9 10  1  0  0  0  0
  9 30  1  0  0  0  0
  9 31  1  0  0  0  0
 10 11  1  0  0  0  0
 11 16  1  0  0  0  0
 11 12  2  0  0  0  0
 12 13  1  0  0  0  0
 12 32  1  0  0  0  0
 13 14  2  0  0  0  0
 13 33  1  0  0  0  0
 14 15  1  0  0  0  0
 14 34  1  0  0  0  0
 15 16  2  0  0  0  0
 15 35  1  0  0  0  0
 16 36  1  0  0  0  0
 17 22  2  0  0  0  0
 17 18  1  0  0  0  0
 18 19  2  0  0  0  0
 18 37  1  0  0  0  0
 19 20  1  0  0  0  0
 19 38  1  0  0  0  0
 20 21  2  0  0  0  0
 20 39  1  0  0  0  0
 21 22  1  0  0  0  0
 21 40  1  0  0  0  0
M  END
> <s_m_source_file>
AV-unprocessed.smi

> <i_m_source_file_index>
850

> <i_lp_mmshare_version>
43012

> <i_f3d_flags>
0

> <s_epik_input>
W2NIXTFbY0hdW2NIXVtjSF1jKGMxMiluKFtDSDNdKWMoPU8pbjJbQ0gyXVtDQEhdKFtPSF0pW0NIMl1PYzNbY0hdW2NIXVtjSF1bY0hdW2NIXTM=

> <s_epik_cmdline>
J2VwaWtfcHl0aG9uJywgJy1waCcsICc3LjAnLCAnLXRuJywgJzgnLCAnLW1hJywgJzIwMCcsICctbWV0YWxfYmluZGluZycsICctaW1hZScsICc8aW5maWxlLm1hZT4nLCAnLW9tYWUnLCAnPG91dGZpbGUubWFlPic=

> <r_lp_tautomer_probability>
1

> <r_epik_Ionization_Penalty>
2.40205e-06

> <r_epik_Ionization_Penalty_Charging>
2.75209e-09

> <r_epik_Ionization_Penalty_Neutral>
2.3993e-06

> <r_epik_State_Penalty>
-0

> <r_epik_Charging_Adjusted_Penalty>
2.75209e-09

> <i_epik_Tot_Q>
0

> <i_epik_Tot_abs_Q>
0

> <r_epik_Metal_State_Penalty>
-0

> <b_epik_Metal_Only>
0

> <s_lp_Force_Field>
OPLS_2005

> <r_lp_Energy>
46.059

> <b_lp_Chiralities_Consistent>
1

> <s_lp_Variant>
AV-unprocessed.smi:850-1

> <Gold.Version>
5.8.1

> <Gold.Id.Protein>
6NUR|6NUR_protein|mol2

> <Gold.PLP.Fitness>
52.5275

> <Gold.PLP.PLP>
-50.4130

> <Gold.PLP.part.hbond>
-1.2116

> <Gold.PLP.part.metal>
0.0000

> <Gold.PLP.part.buried>
-5.5714

> <Gold.PLP.part.nonpolar>
-42.8816

> <Gold.PLP.part.repulsive>
0.0000

> <Gold.PLP.ligand.clash>
0.0000

> <Gold.PLP.ligand.torsion>
0.4723

> <Gold.PLP.Chemscore.Hbond>
1.0000

> <Gold.PLP.Chemscore.CHOScore>
0.0000

> <Gold.PLP.Chemscore.Metal>
0.0000

> <Gold.Chemscore.Hbonds>
donor molecule, donor type, donor heavy atom, donor atom, acceptor molecule, acceptor atom, score
      P1  H  7997  8010       L1     4  1.00

> <Gold.PLP.Chemscore.Internal.Correction>
0.0591

> <Gold.Rescore>
     Score         DG    S(hbond)    S(metal)    S(lipo)     H(rot)  DE(clash)    DE(int)     intcor
     18.78     -19.28       0.83        0.00     140.48       2.12       0.06       0.44       ----

> <Gold.Chemscore.Fitness>
18.7779

> <Gold.Chemscore.DG>
-19.2806

> <Gold.Chemscore.ZeroCoef>
-5.4800

> <Gold.Chemscore.Hbond>
0.8346

> <Gold.Chemscore.Metal>
0.0000

> <Gold.Chemscore.Lipo>
140.4804

> <Gold.Chemscore.Internal_Hbond>
0.0000

> <Gold.Chemscore.DEClash>
0.0601

> <Gold.Chemscore.DEInternal>
0.4426

> <Gold.Chemscore.Rot>
2.1184

> <Gold.Chemscore.Internal.Correction>
   9.000000E+99

> <Gold.Chemscore.Hbonds>
donor molecule, donor type, donor heavy atom, donor atom, acceptor molecule, acceptor atom, score
      P1  H  7997  8010       L1     4  0.52

> <Gold.Chemscore.Hbond.Weighted>
-2.7875

> <Gold.Chemscore.Metal.Weighted>
-0.0000

> <Gold.Chemscore.Lipo.Weighted>
-16.4362

> <Gold.Chemscore.Internal_Hbond.Weighted>
0.0000

> <Gold.Chemscore.DEClash.Weighted>
0.0601

> <Gold.Chemscore.DEInternal.Weighted>
0.4426

> <Gold.Chemscore.Rot.Weighted>
5.4231

> <Gold.Chemscore.Internal.Correction.Weighted>
   9.000000E+99

> <Gold.Protein.RotatedTorsions>
[ 6907 6896 6895 6894 ] final -131.90 input  -60.11 | X-H torsion
[ 7974 7965 7964 7962 ] final -130.68 input  175.53 | X-H torsion
[ 8008 7997 7996 7995 ] final   46.59 input   59.86 | X-H torsion
[ 10167 10162 10161 10158 ] final   -3.58 input  -65.29 | X-H torsion
[ 10718 10713 10712 10709 ] final -150.59 input   66.30 | X-H torsion
[ 10763 10752 10751 10750 ] final  158.72 input  -60.55 | X-H torsion
[ 11005 11000 10999 10996 ] final  -38.74 input  -57.11 | X-H torsion

> <Gold.Protein.ActiveResidues>
 VAL166  LYS551  ARG553  GLY616  TRP617  ASP618  TYR619  PRO620  LYS621  CYS622 
 ASP623  PHE694  ASN695  SER759  ASP760  ASP761  ALA762  ILE779  LEU786  VAL792 
 PHE793  MET794  SER795  GLU796  ALA797  LYS798  CYS799  TRP800  GLU811  SER814 

> <Gold.Protein.RotatedAtoms>
  150.9562  133.6495  159.2762 H   0  0  0  0  0  0  0  0  0  0  0  0  # atno 6907 bound_to 6896
  151.3834  135.0942  159.9513 H   0  0  0  0  0  0  0  0  0  0  0  0  # atno 6908 bound_to 6896
  152.5130  133.9092  159.7534 H   0  0  0  0  0  0  0  0  0  0  0  0  # atno 6909 bound_to 6896
  144.9452  140.7283  143.4822 H   0  0  0  0  0  0  0  0  0  0  0  0  # atno 7974 bound_to 7965
  155.3551  140.3415  155.4240 H   0  0  0  0  0  0  0  0  0  0  0  0  # atno 8008 bound_to 7997
  156.1743  140.1642  156.8425 H   0  0  0  0  0  0  0  0  0  0  0  0  # atno 8009 bound_to 7997
  154.5266  140.0754  156.8252 H   0  0  0  0  0  0  0  0  0  0  0  0  # atno 8010 bound_to 7997
  140.6895  143.6523  150.8339 H   0  0  0  0  0  0  0  0  0  0  0  0  # atno 10167 bound_to 10162
  156.4481  130.8154  151.2385 H   0  0  0  0  0  0  0  0  0  0  0  0  # atno 10718 bound_to 10713
  154.2205  135.2782  155.2926 H   0  0  0  0  0  0  0  0  0  0  0  0  # atno 10763 bound_to 10752
  154.5705  135.5620  153.7094 H   0  0  0  0  0  0  0  0  0  0  0  0  # atno 10764 bound_to 10752
  153.0043  135.6320  154.2345 H   0  0  0  0  0  0  0  0  0  0  0  0  # atno 10765 bound_to 10752
  141.0050  133.6936  156.2094 H   0  0  0  0  0  0  0  0  0  0  0  0  # atno 11005 bound_to 11000
  145.2929  139.1877  143.4730 LP  0  0  0  0  0  0  0  0  0  0  0  0  # atno 17320 bound_to 7965
  146.3301  140.2909  142.8615 LP  0  0  0  0  0  0  0  0  0  0  0  0  # atno 17321 bound_to 7965
  140.0234  143.5518  152.2791 LP  0  0  0  0  0  0  0  0  0  0  0  0  # atno 17342 bound_to 10162
  139.6285  144.7641  151.2587 LP  0  0  0  0  0  0  0  0  0  0  0  0  # atno 17343 bound_to 10162
  157.7504  131.0147  150.3473 LP  0  0  0  0  0  0  0  0  0  0  0  0  # atno 17370 bound_to 10713
  156.3845  130.3886  149.7076 LP  0  0  0  0  0  0  0  0  0  0  0  0  # atno 17371 bound_to 10713
  140.6827  134.4750  157.5589 LP  0  0  0  0  0  0  0  0  0  0  0  0  # atno 17394 bound_to 11000
  139.9059  134.8451  156.1710 LP  0  0  0  0  0  0  0  0  0  0  0  0  # atno 17395 bound_to 11000

$$$$
