AV-unprocessed.smi:3140|AV-procd|sdf|11958|dock9
  -GOLD-   2272017353D 1   1.00000     0.00000
 Structure written by MMmdl.
 38 39  0  0  0  0  0  0  0  0  2 V2000
  146.5249  138.8484  151.3969 C   0  0  0  0  0  0  0  0  0  0  0  0
  146.4324  138.2963  152.8293 C   0  0  2  0  0  0  0  0  0  0  0  0
  147.6805  138.6858  153.6461 C   0  0  0  0  0  0  0  0  0  0  0  0
  147.7148  140.1029  153.9635 N   0  0  0  0  0  0  0  0  0  0  0  0
  146.8379  141.0908  153.5673 C   0  0  0  0  0  0  0  0  0  0  0  0
  147.2714  142.2630  154.1177 C   0  0  0  0  0  0  0  0  0  0  0  0
  148.4371  141.8867  154.8415 C   0  0  0  0  0  0  0  0  0  0  0  0
  148.6986  140.5927  154.7493 N   0  0  0  0  0  0  0  0  0  0  0  0
  146.2654  136.8245  152.8220 N   0  3  0  0  0  0  0  0  0  0  0  0
  145.0142  136.3289  152.2141 C   0  0  0  0  0  0  0  0  0  0  0  0
  145.2865  135.7201  150.8303 C   0  0  0  0  0  0  0  0  0  0  0  0
  145.1556  134.2659  150.8486 N   0  0  0  0  0  0  0  0  0  0  0  0
  144.1573  133.5958  150.0322 C   0  0  0  0  0  0  0  0  0  0  0  0
  144.4693  132.0989  150.1739 C   0  0  0  0  0  0  0  0  0  0  0  0
  145.4190  131.9830  151.3713 C   0  0  0  0  0  0  0  0  0  0  0  0
  145.8573  133.4180  151.6097 C   0  0  0  0  0  0  0  0  0  0  0  0
  146.7435  133.7242  152.4059 O   0  0  0  0  0  0  0  0  0  0  0  0
  146.6802  139.9275  151.4040 H   0  0  0  0  0  0  0  0  0  0  0  0
  145.6123  138.6622  150.8308 H   0  0  0  0  0  0  0  0  0  0  0  0
  147.3550  138.3987  150.8510 H   0  0  0  0  0  0  0  0  0  0  0  0
  145.5625  138.7405  153.3156 H   0  0  0  0  0  0  0  0  0  0  0  0
  147.7335  138.1117  154.5729 H   0  0  0  0  0  0  0  0  0  0  0  0
  148.5851  138.4492  153.0841 H   0  0  0  0  0  0  0  0  0  0  0  0
  145.9877  140.8805  152.9350 H   0  0  0  0  0  0  0  0  0  0  0  0
  146.8250  143.2413  154.0167 H   0  0  0  0  0  0  0  0  0  0  0  0
  149.0957  142.5103  155.4282 H   0  0  0  0  0  0  0  0  0  0  0  0
  147.0551  136.4057  152.3516 H   0  0  0  0  0  0  0  0  0  0  0  0
  144.5683  135.5755  152.8650 H   0  0  0  0  0  0  0  0  0  0  0  0
  144.3004  137.1484  152.1304 H   0  0  0  0  0  0  0  0  0  0  0  0
  144.5963  136.1337  150.0928 H   0  0  0  0  0  0  0  0  0  0  0  0
  146.2898  135.9876  150.4958 H   0  0  0  0  0  0  0  0  0  0  0  0
  143.1629  133.8261  150.4169 H   0  0  0  0  0  0  0  0  0  0  0  0
  144.2066  133.9225  148.9927 H   0  0  0  0  0  0  0  0  0  0  0  0
  143.5629  131.5081  150.3117 H   0  0  0  0  0  0  0  0  0  0  0  0
  144.9651  131.7332  149.2736 H   0  0  0  0  0  0  0  0  0  0  0  0
  144.9016  131.6106  152.2560 H   0  0  0  0  0  0  0  0  0  0  0  0
  146.2697  131.3335  151.1624 H   0  0  0  0  0  0  0  0  0  0  0  0
  146.2728  136.5193  153.7855 H   0  0  0  0  0  0  0  0  0  0  0  0
  1  2  1  0  0  0  0
  1 18  1  0  0  0  0
  1 19  1  0  0  0  0
  1 20  1  0  0  0  0
  2  3  1  0  0  0  0
  2  9  1  0  0  0  0
  2 21  1  0  0  0  0
  3  4  1  0  0  0  0
  3 22  1  0  0  0  0
  3 23  1  0  0  0  0
  4  8  1  0  0  0  0
  4  5  1  0  0  0  0
  5  6  2  0  0  0  0
  5 24  1  0  0  0  0
  6  7  1  0  0  0  0
  6 25  1  0  0  0  0
  7  8  2  0  0  0  0
  7 26  1  0  0  0  0
  9 10  1  0  0  0  0
  9 27  1  0  0  0  0
  9 38  1  0  0  0  0
 10 11  1  0  0  0  0
 10 28  1  0  0  0  0
 10 29  1  0  0  0  0
 11 12  1  0  0  0  0
 11 30  1  0  0  0  0
 11 31  1  0  0  0  0
 12 16  1  0  0  0  0
 12 13  1  0  0  0  0
 13 14  1  0  0  0  0
 13 32  1  0  0  0  0
 13 33  1  0  0  0  0
 14 15  1  0  0  0  0
 14 34  1  0  0  0  0
 14 35  1  0  0  0  0
 15 16  1  0  0  0  0
 15 36  1  0  0  0  0
 15 37  1  0  0  0  0
 16 17  2  0  0  0  0
M  CHG  1   9   1
M  END
> <s_m_source_file>
AV-unprocessed.smi

> <i_m_source_file_index>
3140

> <i_lp_mmshare_version>
43012

> <i_f3d_flags>
0

> <s_epik_input>
bjFbY0hdW2NIXVtjSF1uMVtDSDJdW0NAQEhdKFtDSDNdKVtOSF1bQ0gyXVtDSDJdTjJbQ0gyXVtDSDJdW0NIMl1DMj1P

> <s_epik_cmdline>
J2VwaWtfcHl0aG9uJywgJy1waCcsICc3LjAnLCAnLXRuJywgJzgnLCAnLW1hJywgJzIwMCcsICctbWV0YWxfYmluZGluZycsICctaW1hZScsICc8aW5maWxlLm1hZT4nLCAnLW9tYWUnLCAnPG91dGZpbGUubWFlPic=

> <r_lp_tautomer_probability>
1

> <r_epik_Ionization_Penalty>
0.00826299

> <r_epik_Ionization_Penalty_Charging>
0.00825899

> <r_epik_Ionization_Penalty_Neutral>
3.99893e-06

> <r_epik_State_Penalty>
0.00621436

> <r_epik_Charging_Adjusted_Penalty>
0.0144734

> <i_epik_Tot_Q>
1

> <i_epik_Tot_abs_Q>
1

> <r_epik_Metal_State_Penalty>
0.00621472

> <b_epik_Metal_Only>
0

> <s_lp_Force_Field>
OPLS_2005

> <r_lp_Energy>
18.6849

> <b_lp_Chiralities_Consistent>
1

> <s_lp_Variant>
AV-unprocessed.smi:3140-1

> <Gold.Version>
5.8.1

> <Gold.Id.Protein>
6NUR|6NUR_protein|mol2

> <Gold.PLP.Fitness>
44.9664

> <Gold.PLP.PLP>
-34.5551

> <Gold.PLP.part.hbond>
-1.0000

> <Gold.PLP.part.metal>
0.0000

> <Gold.PLP.part.buried>
-1.2251

> <Gold.PLP.part.nonpolar>
-34.0757

> <Gold.PLP.part.repulsive>
0.4913

> <Gold.PLP.ligand.clash>
0.0000

> <Gold.PLP.ligand.torsion>
0.7788

> <Gold.PLP.Chemscore.Hbond>
2.0000

> <Gold.PLP.Chemscore.CHOScore>
1.9638

> <Gold.PLP.Chemscore.Metal>
0.0000

> <Gold.Chemscore.Hbonds>
donor molecule, donor type, donor heavy atom, donor atom, acceptor molecule, acceptor atom, score
      L1  H     9    27       P1  7948  2.00
      L1  C     5    24       P1 10175  1.00
      L1  C     7    26       P1  8028  0.88

> <Gold.PLP.Chemscore.Internal.Correction>
0.0773

> <Gold.Rescore>
     Score         DG    S(hbond)    S(metal)    S(lipo)     H(rot)  DE(clash)    DE(int)     intcor
     11.22     -13.32       1.00        0.00      83.46       2.06       1.28       0.82       ----

> <Gold.Chemscore.Fitness>
11.2157

> <Gold.Chemscore.DG>
-13.3151

> <Gold.Chemscore.ZeroCoef>
-5.4800

> <Gold.Chemscore.Hbond>
0.9978

> <Gold.Chemscore.Metal>
0.0000

> <Gold.Chemscore.Lipo>
83.4622

> <Gold.Chemscore.Internal_Hbond>
0.0000

> <Gold.Chemscore.DEClash>
1.2842

> <Gold.Chemscore.DEInternal>
0.8152

> <Gold.Chemscore.Rot>
2.0557

> <Gold.Chemscore.Internal.Correction>
   9.000000E+99

> <Gold.Chemscore.Hbonds>
donor molecule, donor type, donor heavy atom, donor atom, acceptor molecule, acceptor atom, score
      L1  H     9    27       P1  7948  0.97

> <Gold.Chemscore.Hbond.Weighted>
-3.3327

> <Gold.Chemscore.Metal.Weighted>
-0.0000

> <Gold.Chemscore.Lipo.Weighted>
-9.7651

> <Gold.Chemscore.Internal_Hbond.Weighted>
0.0000

> <Gold.Chemscore.DEClash.Weighted>
1.2842

> <Gold.Chemscore.DEInternal.Weighted>
0.8152

> <Gold.Chemscore.Rot.Weighted>
5.2627

> <Gold.Chemscore.Internal.Correction.Weighted>
   9.000000E+99

> <Gold.Protein.RotatedTorsions>
[ 6907 6896 6895 6894 ] final -168.34 input  -60.11 | X-H torsion
[ 7974 7965 7964 7962 ] final -149.33 input  175.53 | X-H torsion
[ 8008 7997 7996 7995 ] final  -14.94 input   59.86 | X-H torsion
[ 10167 10162 10161 10158 ] final   -9.42 input  -65.29 | X-H torsion
[ 10718 10713 10712 10709 ] final  159.05 input   66.30 | X-H torsion
[ 10763 10752 10751 10750 ] final -111.16 input  -60.55 | X-H torsion
[ 11005 11000 10999 10996 ] final  155.45 input  -57.11 | X-H torsion

> <Gold.Protein.ActiveResidues>
 VAL166  LYS551  ARG553  GLY616  TRP617  ASP618  TYR619  PRO620  LYS621  CYS622 
 ASP623  PHE694  ASN695  SER759  ASP760  ASP761  ALA762  ILE779  LEU786  VAL792 
 PHE793  MET794  SER795  GLU796  ALA797  LYS798  CYS799  TRP800  GLU811  SER814 

> <Gold.Protein.RotatedAtoms>
  151.4740  133.3562  159.2827 H   0  0  0  0  0  0  0  0  0  0  0  0  # atno 6907 bound_to 6896
  150.8942  134.8350  159.7325 H   0  0  0  0  0  0  0  0  0  0  0  0  # atno 6908 bound_to 6896
  152.4841  134.4653  159.9670 H   0  0  0  0  0  0  0  0  0  0  0  0  # atno 6909 bound_to 6896
  144.7974  140.5078  143.5731 H   0  0  0  0  0  0  0  0  0  0  0  0  # atno 7974 bound_to 7965
  154.5170  140.2209  155.9048 H   0  0  0  0  0  0  0  0  0  0  0  0  # atno 8008 bound_to 7997
  156.1618  140.3140  155.8786 H   0  0  0  0  0  0  0  0  0  0  0  0  # atno 8009 bound_to 7997
  155.3735  140.0468  157.3036 H   0  0  0  0  0  0  0  0  0  0  0  0  # atno 8010 bound_to 7997
  140.7087  143.5860  150.8943 H   0  0  0  0  0  0  0  0  0  0  0  0  # atno 10167 bound_to 10162
  157.1694  131.0606  151.2190 H   0  0  0  0  0  0  0  0  0  0  0  0  # atno 10718 bound_to 10713
  154.8286  135.4537  154.0997 H   0  0  0  0  0  0  0  0  0  0  0  0  # atno 10763 bound_to 10752
  153.2290  135.6903  153.7919 H   0  0  0  0  0  0  0  0  0  0  0  0  # atno 10764 bound_to 10752
  153.7308  135.3327  155.3262 H   0  0  0  0  0  0  0  0  0  0  0  0  # atno 10765 bound_to 10752
  140.1583  134.8627  157.2541 H   0  0  0  0  0  0  0  0  0  0  0  0  # atno 11005 bound_to 11000
  145.5639  139.1480  143.3326 LP  0  0  0  0  0  0  0  0  0  0  0  0  # atno 17320 bound_to 7965
  146.2246  140.5775  142.9002 LP  0  0  0  0  0  0  0  0  0  0  0  0  # atno 17321 bound_to 7965
  139.9586  143.6190  152.3009 LP  0  0  0  0  0  0  0  0  0  0  0  0  # atno 17342 bound_to 10162
  139.6734  144.7660  151.1740 LP  0  0  0  0  0  0  0  0  0  0  0  0  # atno 17343 bound_to 10162
  157.4057  130.7357  149.6801 LP  0  0  0  0  0  0  0  0  0  0  0  0  # atno 17370 bound_to 10713
  155.9741  130.4109  150.3952 LP  0  0  0  0  0  0  0  0  0  0  0  0  # atno 17371 bound_to 10713
  140.2521  134.3671  155.7438 LP  0  0  0  0  0  0  0  0  0  0  0  0  # atno 17394 bound_to 11000
  141.2207  133.7322  156.8951 LP  0  0  0  0  0  0  0  0  0  0  0  0  # atno 17395 bound_to 11000

$$$$
