AV-unprocessed.smi:2251|AV-procd|sdf|9102|dock10
  -GOLD-   2272012303D 1   1.00000     0.00000
 Structure written by MMmdl.
 45 46  0  0  0  0  0  0  0  0  2 V2000
  147.2834  134.2996  162.4309 C   0  0  0  0  0  0  0  0  0  0  0  0
  147.5193  135.6058  161.6809 C   0  0  0  0  0  0  0  0  0  0  0  0
  147.8997  136.6070  162.2873 O   0  0  0  0  0  0  0  0  0  0  0  0
  147.2915  135.5819  160.3583 N   0  0  0  0  0  0  0  0  0  0  0  0
  147.4740  136.7157  159.4561 C   0  0  0  0  0  0  0  0  0  0  0  0
  148.5400  136.4505  158.3871 C   0  0  0  0  0  0  0  0  0  0  0  0
  149.4312  135.6229  158.5805 O   0  0  0  0  0  0  0  0  0  0  0  0
  148.4216  137.1462  157.2481 N   0  0  0  0  0  0  0  0  0  0  0  0
  149.3357  137.0372  156.1153 C   0  0  0  0  0  0  0  0  0  0  0  0
  149.6726  138.4207  155.4880 C   0  0  0  0  0  0  0  0  0  0  0  0
  148.4314  138.9254  154.7165 C   0  0  0  0  0  0  0  0  0  0  0  0
  148.4715  140.1863  154.0685 C   0  0  0  0  0  0  0  0  0  0  0  0
  147.3508  140.6511  153.3523 C   0  0  0  0  0  0  0  0  0  0  0  0
  146.2385  139.8920  153.2799 N   0  3  0  0  0  0  0  0  0  0  0  0
  146.1451  138.6827  153.8700 C   0  0  0  0  0  0  0  0  0  0  0  0
  147.2360  138.1672  154.5990 C   0  0  0  0  0  0  0  0  0  0  0  0
  150.1136  139.4248  156.5998 C   0  0  0  0  0  0  0  0  0  0  0  0
  151.4537  139.0780  157.2733 C   0  0  0  0  0  0  0  0  0  0  0  0
  152.5765  138.9499  156.2377 C   0  0  0  0  0  0  0  0  0  0  0  0
  152.2062  137.9334  155.1520 C   0  0  0  0  0  0  0  0  0  0  0  0
  150.8589  138.2780  154.4898 C   0  0  0  0  0  0  0  0  0  0  0  0
  146.2845  133.9141  162.2247 H   0  0  0  0  0  0  0  0  0  0  0  0
  147.3757  134.4489  163.5072 H   0  0  0  0  0  0  0  0  0  0  0  0
  148.0143  133.5501  162.1259 H   0  0  0  0  0  0  0  0  0  0  0  0
  146.9878  134.7127  159.9435 H   0  0  0  0  0  0  0  0  0  0  0  0
  146.5257  136.9134  158.9565 H   0  0  0  0  0  0  0  0  0  0  0  0
  147.7208  137.6133  160.0266 H   0  0  0  0  0  0  0  0  0  0  0  0
  147.6618  137.8061  157.1676 H   0  0  0  0  0  0  0  0  0  0  0  0
  150.2334  136.5169  156.4474 H   0  0  0  0  0  0  0  0  0  0  0  0
  148.8802  136.3881  155.3659 H   0  0  0  0  0  0  0  0  0  0  0  0
  149.3578  140.8019  154.1087 H   0  0  0  0  0  0  0  0  0  0  0  0
  147.3133  141.5995  152.8364 H   0  0  0  0  0  0  0  0  0  0  0  0
  145.2066  138.1634  153.7402 H   0  0  0  0  0  0  0  0  0  0  0  0
  147.1261  137.1933  155.0497 H   0  0  0  0  0  0  0  0  0  0  0  0
  150.2292  140.4178  156.1628 H   0  0  0  0  0  0  0  0  0  0  0  0
  149.3460  139.5168  157.3690 H   0  0  0  0  0  0  0  0  0  0  0  0
  151.7112  139.8546  157.9941 H   0  0  0  0  0  0  0  0  0  0  0  0
  151.3668  138.1557  157.8471 H   0  0  0  0  0  0  0  0  0  0  0  0
  152.7640  139.9217  155.7791 H   0  0  0  0  0  0  0  0  0  0  0  0
  153.5051  138.6538  156.7267 H   0  0  0  0  0  0  0  0  0  0  0  0
  152.9899  137.9075  154.3943 H   0  0  0  0  0  0  0  0  0  0  0  0
  152.1712  136.9317  155.5805 H   0  0  0  0  0  0  0  0  0  0  0  0
  150.6445  137.5206  153.7360 H   0  0  0  0  0  0  0  0  0  0  0  0
  150.9786  139.2155  153.9444 H   0  0  0  0  0  0  0  0  0  0  0  0
  145.4373  140.2456  152.7560 H   0  0  0  0  0  0  0  0  0  0  0  0
  1  2  1  0  0  0  0
  1 22  1  0  0  0  0
  1 23  1  0  0  0  0
  1 24  1  0  0  0  0
  2  3  2  0  0  0  0
  2  4  1  0  0  0  0
  4  5  1  0  0  0  0
  4 25  1  0  0  0  0
  5  6  1  0  0  0  0
  5 26  1  0  0  0  0
  5 27  1  0  0  0  0
  6  7  2  0  0  0  0
  6  8  1  0  0  0  0
  8  9  1  0  0  0  0
  8 28  1  0  0  0  0
  9 10  1  0  0  0  0
  9 29  1  0  0  0  0
  9 30  1  0  0  0  0
 10 21  1  0  0  0  0
 10 11  1  0  0  0  0
 10 17  1  0  0  0  0
 11 16  1  0  0  0  0
 11 12  2  0  0  0  0
 12 13  1  0  0  0  0
 12 31  1  0  0  0  0
 13 14  2  0  0  0  0
 13 32  1  0  0  0  0
 14 15  1  0  0  0  0
 14 45  1  0  0  0  0
 15 16  2  0  0  0  0
 15 33  1  0  0  0  0
 16 34  1  0  0  0  0
 17 18  1  0  0  0  0
 17 35  1  0  0  0  0
 17 36  1  0  0  0  0
 18 19  1  0  0  0  0
 18 37  1  0  0  0  0
 18 38  1  0  0  0  0
 19 20  1  0  0  0  0
 19 39  1  0  0  0  0
 19 40  1  0  0  0  0
 20 21  1  0  0  0  0
 20 41  1  0  0  0  0
 20 42  1  0  0  0  0
 21 43  1  0  0  0  0
 21 44  1  0  0  0  0
M  CHG  1  14   1
M  END
> <s_m_source_file>
AV-unprocessed.smi

> <i_m_source_file_index>
2251

> <i_lp_mmshare_version>
43012

> <i_f3d_flags>
0

> <s_epik_input>
W0NIM11DKD1PKVtOSF1bQ0gyXUMoPU8pW05IXVtDSDJdQzEoW0NIMl1bQ0gyXVtDSDJdW0NIMl1bQ0gyXTEpYzJbY0hdW2NIXW5bY0hdW2NIXTI=

> <s_epik_cmdline>
J2VwaWtfcHl0aG9uJywgJy1waCcsICc3LjAnLCAnLXRuJywgJzgnLCAnLW1hJywgJzIwMCcsICctbWV0YWxfYmluZGluZycsICctaW1hZScsICc8aW5maWxlLm1hZT4nLCAnLW9tYWUnLCAnPG91dGZpbGUubWFlPic=

> <r_epik_Ionization_Penalty>
1.36815

> <r_epik_Ionization_Penalty_Charging>
1.36815

> <r_epik_Ionization_Penalty_Neutral>
3.04412e-07

> <r_epik_State_Penalty>
1.44763

> <r_epik_Charging_Adjusted_Penalty>
2.81578

> <i_epik_Tot_Q>
1

> <i_epik_Tot_abs_Q>
1

> <r_epik_Metal_State_Penalty>
1.50443

> <b_epik_Metal_Only>
0

> <s_lp_Force_Field>
OPLS_2005

> <r_lp_Energy>
22.2864

> <b_lp_Chiralities_Consistent>
1

> <s_lp_Variant>
AV-unprocessed.smi:2251-2

> <Gold.Version>
5.8.1

> <Gold.Id.Protein>
6NUR|6NUR_protein|mol2

> <Gold.PLP.Fitness>
40.8735

> <Gold.PLP.PLP>
-30.0386

> <Gold.PLP.part.hbond>
-3.2580

> <Gold.PLP.part.metal>
0.0000

> <Gold.PLP.part.buried>
-3.9076

> <Gold.PLP.part.nonpolar>
-23.7466

> <Gold.PLP.part.repulsive>
0.1288

> <Gold.PLP.ligand.clash>
0.0000

> <Gold.PLP.ligand.torsion>
0.5932

> <Gold.PLP.Chemscore.Hbond>
4.0000

> <Gold.PLP.Chemscore.CHOScore>
0.0000

> <Gold.PLP.Chemscore.Metal>
0.0000

> <Gold.Chemscore.Hbonds>
donor molecule, donor type, donor heavy atom, donor atom, acceptor molecule, acceptor atom, score
      L1  H    14    45       P1 10175  2.00
      P1  H  6896  6909       L1     7  1.00
      P1  H  6931  6943       L1     3  1.00

> <Gold.PLP.Chemscore.Internal.Correction>
0.0213

> <Gold.Rescore>
     Score         DG    S(hbond)    S(metal)    S(lipo)     H(rot)  DE(clash)    DE(int)     intcor
     17.39     -18.21       2.94        0.00      70.82       2.10       0.14       0.68       ----

> <Gold.Chemscore.Fitness>
17.3891

> <Gold.Chemscore.DG>
-18.2092

> <Gold.Chemscore.ZeroCoef>
-5.4800

> <Gold.Chemscore.Hbond>
2.9360

> <Gold.Chemscore.Metal>
0.0000

> <Gold.Chemscore.Lipo>
70.8247

> <Gold.Chemscore.Internal_Hbond>
0.0000

> <Gold.Chemscore.DEClash>
0.1440

> <Gold.Chemscore.DEInternal>
0.6761

> <Gold.Chemscore.Rot>
2.0952

> <Gold.Chemscore.Internal.Correction>
   9.000000E+99

> <Gold.Chemscore.Hbonds>
donor molecule, donor type, donor heavy atom, donor atom, acceptor molecule, acceptor atom, score
      L1  H    14    45       P1 10175  0.90
      P1  H  6896  6909       L1     7  1.00
      P1  H  6931  6943       L1     3  0.94

> <Gold.Chemscore.Hbond.Weighted>
-9.8064

> <Gold.Chemscore.Metal.Weighted>
-0.0000

> <Gold.Chemscore.Lipo.Weighted>
-8.2865

> <Gold.Chemscore.Internal_Hbond.Weighted>
0.0000

> <Gold.Chemscore.DEClash.Weighted>
0.1440

> <Gold.Chemscore.DEInternal.Weighted>
0.6761

> <Gold.Chemscore.Rot.Weighted>
5.3636

> <Gold.Chemscore.Internal.Correction.Weighted>
   9.000000E+99

> <Gold.Protein.RotatedTorsions>
[ 6907 6896 6895 6894 ] final   56.80 input  -60.11 | X-H torsion
[ 7974 7965 7964 7962 ] final -153.17 input  175.53 | X-H torsion
[ 8008 7997 7996 7995 ] final  116.18 input   59.86 | X-H torsion
[ 10167 10162 10161 10158 ] final  -44.31 input  -65.29 | X-H torsion
[ 10718 10713 10712 10709 ] final   29.10 input   66.30 | X-H torsion
[ 10763 10752 10751 10750 ] final -152.32 input  -60.55 | X-H torsion
[ 11005 11000 10999 10996 ] final   86.89 input  -57.11 | X-H torsion

> <Gold.Protein.ActiveResidues>
 VAL166  LYS551  ARG553  GLY616  TRP617  ASP618  TYR619  PRO620  LYS621  CYS622 
 ASP623  PHE694  ASN695  SER759  ASP760  ASP761  ALA762  ILE779  LEU786  VAL792 
 PHE793  MET794  SER795  GLU796  ALA797  LYS798  CYS799  TRP800  GLU811  SER814 

> <Gold.Protein.RotatedAtoms>
  152.3671  134.6788  160.0188 H   0  0  0  0  0  0  0  0  0  0  0  0  # atno 6907 bound_to 6896
  151.7093  133.3306  159.3294 H   0  0  0  0  0  0  0  0  0  0  0  0  # atno 6908 bound_to 6896
  150.7646  134.6481  159.6318 H   0  0  0  0  0  0  0  0  0  0  0  0  # atno 6909 bound_to 6896
  144.7755  140.4562  143.5876 H   0  0  0  0  0  0  0  0  0  0  0  0  # atno 7974 bound_to 7965
  156.2425  140.2923  156.0484 H   0  0  0  0  0  0  0  0  0  0  0  0  # atno 8008 bound_to 7997
  155.1909  140.0407  157.2917 H   0  0  0  0  0  0  0  0  0  0  0  0  # atno 8009 bound_to 7997
  154.6195  140.2472  155.7574 H   0  0  0  0  0  0  0  0  0  0  0  0  # atno 8010 bound_to 7997
  140.6901  143.2936  151.3478 H   0  0  0  0  0  0  0  0  0  0  0  0  # atno 10167 bound_to 10162
  157.2422  130.7074  149.6364 H   0  0  0  0  0  0  0  0  0  0  0  0  # atno 10718 bound_to 10713
  154.8002  135.3239  154.7570 H   0  0  0  0  0  0  0  0  0  0  0  0  # atno 10763 bound_to 10752
  153.8239  135.6885  153.4828 H   0  0  0  0  0  0  0  0  0  0  0  0  # atno 10764 bound_to 10752
  153.1714  135.4622  154.9850 H   0  0  0  0  0  0  0  0  0  0  0  0  # atno 10765 bound_to 10752
  139.8933  134.8386  156.2784 H   0  0  0  0  0  0  0  0  0  0  0  0  # atno 11005 bound_to 11000
  145.6199  139.1523  143.3028 LP  0  0  0  0  0  0  0  0  0  0  0  0  # atno 17320 bound_to 7965
  146.1931  140.6310  142.9136 LP  0  0  0  0  0  0  0  0  0  0  0  0  # atno 17321 bound_to 7965
  139.6296  144.0746  152.2465 LP  0  0  0  0  0  0  0  0  0  0  0  0  # atno 17342 bound_to 10162
  140.0217  144.6148  150.7561 LP  0  0  0  0  0  0  0  0  0  0  0  0  # atno 17343 bound_to 10162
  155.9669  130.4454  150.5501 LP  0  0  0  0  0  0  0  0  0  0  0  0  # atno 17370 bound_to 10713
  157.3367  131.0709  151.1820 LP  0  0  0  0  0  0  0  0  0  0  0  0  # atno 17371 bound_to 10713
  141.0055  133.7126  156.1027 LP  0  0  0  0  0  0  0  0  0  0  0  0  # atno 17394 bound_to 11000
  140.7440  134.4119  157.5551 LP  0  0  0  0  0  0  0  0  0  0  0  0  # atno 17395 bound_to 11000

$$$$
