AV-unprocessed.smi:3032|AV-procd|sdf|11572|dock1
  -GOLD-   2272016533D 1   1.00000     0.00000
 Structure written by MMmdl.
 36 37  0  0  0  0  0  0  0  0  2 V2000
  153.4362  142.1353  161.4089 C   0  0  0  0  0  0  0  0  0  0  0  0
  152.3920  142.8358  160.5277 C   0  0  1  0  0  0  0  0  0  0  0  0
  152.2898  144.3350  160.8634 C   0  0  0  0  0  0  0  0  0  0  0  0
  151.2447  145.0403  159.9864 C   0  0  0  0  0  0  0  0  0  0  0  0
  151.5450  144.8453  158.4889 C   0  0  0  0  0  0  0  0  0  0  0  0
  151.7172  143.3635  158.0800 C   0  0  2  0  0  0  0  0  0  0  0  0
  150.3753  142.6191  157.9411 C   0  0  0  0  0  0  0  0  0  0  0  0
  149.6224  142.4851  158.9055 O   0  0  0  0  0  0  0  0  0  0  0  0
  150.0896  142.1352  156.7222 N   0  0  0  0  0  0  0  0  0  0  0  0
  148.8889  141.3839  156.3746 C   0  0  0  0  0  0  0  0  0  0  0  0
  148.8949  140.9617  154.8972 C   0  0  0  0  0  0  0  0  0  0  0  0
  149.9124  139.8761  154.6228 C   0  0  0  0  0  0  0  0  0  0  0  0
  151.2411  139.9692  154.8363 N   0  5  0  0  0  0  0  0  0  0  0  0
  151.8315  138.8322  154.5233 N   0  0  0  0  0  0  0  0  0  0  0  0
  150.8286  138.0420  154.1231 C   0  0  0  0  0  0  0  0  0  0  0  0
  149.6396  138.6513  154.1796 N   0  0  0  0  0  0  0  0  0  0  0  0
  152.7029  142.6391  159.0276 C   0  0  0  0  0  0  0  0  0  0  0  0
  154.4330  142.5465  161.2467 H   0  0  0  0  0  0  0  0  0  0  0  0
  153.4769  141.0673  161.1940 H   0  0  0  0  0  0  0  0  0  0  0  0
  153.1971  142.2487  162.4669 H   0  0  0  0  0  0  0  0  0  0  0  0
  151.4294  142.3741  160.7486 H   0  0  0  0  0  0  0  0  0  0  0  0
  152.0302  144.4655  161.9145 H   0  0  0  0  0  0  0  0  0  0  0  0
  153.2613  144.8115  160.7244 H   0  0  0  0  0  0  0  0  0  0  0  0
  150.2500  144.6651  160.2261 H   0  0  0  0  0  0  0  0  0  0  0  0
  151.2278  146.1051  160.2202 H   0  0  0  0  0  0  0  0  0  0  0  0
  150.7590  145.3125  157.8938 H   0  0  0  0  0  0  0  0  0  0  0  0
  152.4611  145.3837  158.2431 H   0  0  0  0  0  0  0  0  0  0  0  0
  152.1735  143.3626  157.0885 H   0  0  0  0  0  0  0  0  0  0  0  0
  150.7591  142.2877  155.9821 H   0  0  0  0  0  0  0  0  0  0  0  0
  148.7859  140.5110  157.0214 H   0  0  0  0  0  0  0  0  0  0  0  0
  148.0255  142.0198  156.5724 H   0  0  0  0  0  0  0  0  0  0  0  0
  147.9092  140.5970  154.6054 H   0  0  0  0  0  0  0  0  0  0  0  0
  149.1165  141.8168  154.2573 H   0  0  0  0  0  0  0  0  0  0  0  0
  150.9648  137.0197  153.7929 H   0  0  0  0  0  0  0  0  0  0  0  0
  153.7100  143.0052  158.8233 H   0  0  0  0  0  0  0  0  0  0  0  0
  152.7245  141.5734  158.7941 H   0  0  0  0  0  0  0  0  0  0  0  0
  1  2  1  0  0  0  0
  1 18  1  0  0  0  0
  1 19  1  0  0  0  0
  1 20  1  0  0  0  0
  2 17  1  0  0  0  0
  2  3  1  0  0  0  0
  2 21  1  0  0  0  0
  3  4  1  0  0  0  0
  3 22  1  0  0  0  0
  3 23  1  0  0  0  0
  4  5  1  0  0  0  0
  4 24  1  0  0  0  0
  4 25  1  0  0  0  0
  5  6  1  0  0  0  0
  5 26  1  0  0  0  0
  5 27  1  0  0  0  0
  6  7  1  0  0  0  0
  6 17  1  0  0  0  0
  6 28  1  0  0  0  0
  7  8  2  0  0  0  0
  7  9  1  0  0  0  0
  9 10  1  0  0  0  0
  9 29  1  0  0  0  0
 10 11  1  0  0  0  0
 10 30  1  0  0  0  0
 10 31  1  0  0  0  0
 11 32  1  0  0  0  0
 11 33  1  0  0  0  0
 11 12  1  0  0  0  0
 12 16  2  0  0  0  0
 12 13  1  0  0  0  0
 13 14  1  0  0  0  0
 14 15  2  0  0  0  0
 15 16  1  0  0  0  0
 15 34  1  0  0  0  0
 17 35  1  0  0  0  0
 17 36  1  0  0  0  0
M  CHG  1  13  -1
M  END
> <s_m_source_file>
AV-unprocessed.smi

> <i_m_source_file_index>
3032

> <i_lp_mmshare_version>
43012

> <i_f3d_flags>
0

> <s_epik_input>
W0NIM11bQ0BASF0xW0NIMl1bQ0gyXVtDSDJdW0NASF0oW0NIMl0xKUMoPU8pW05IXVtDSDJdW0NIMl1jMm5uW2NIXVtuSF0y

> <s_epik_cmdline>
J2VwaWtfcHl0aG9uJywgJy1waCcsICc3LjAnLCAnLXRuJywgJzgnLCAnLW1hJywgJzIwMCcsICctbWV0YWxfYmluZGluZycsICctaW1hZScsICc8aW5maWxlLm1hZT4nLCAnLW9tYWUnLCAnPG91dGZpbGUubWFlPic=

> <r_lp_tautomer_probability>
0.948284

> <r_epik_Ionization_Penalty>
12.042

> <r_epik_Ionization_Penalty_Charging>
12.042

> <r_epik_Ionization_Penalty_Neutral>
4.36781e-08

> <r_epik_State_Penalty>
4.67286

> <r_epik_Charging_Adjusted_Penalty>
16.7149

> <i_epik_Tot_Q>
-1

> <i_epik_Tot_abs_Q>
1

> <r_epik_Metal_State_Penalty>
0.981637

> <b_epik_Metal_Only>
1

> <s_lp_Force_Field>
OPLS_2005

> <r_lp_Energy>
8.14017

> <b_lp_Chiralities_Consistent>
1

> <s_lp_Variant>
AV-unprocessed.smi:3032-16

> <Gold.Version>
5.8.1

> <Gold.Id.Protein>
6NUR|6NUR_protein|mol2

> <Gold.PLP.Fitness>
47.0727

> <Gold.PLP.PLP>
-40.9424

> <Gold.PLP.part.hbond>
-3.3614

> <Gold.PLP.part.metal>
0.0000

> <Gold.PLP.part.buried>
-5.8761

> <Gold.PLP.part.nonpolar>
-32.4586

> <Gold.PLP.part.repulsive>
0.5578

> <Gold.PLP.ligand.clash>
0.0000

> <Gold.PLP.ligand.torsion>
0.0600

> <Gold.PLP.Chemscore.Hbond>
1.0000

> <Gold.PLP.Chemscore.CHOScore>
1.0568

> <Gold.PLP.Chemscore.Metal>
0.0000

> <Gold.Chemscore.Hbonds>
donor molecule, donor type, donor heavy atom, donor atom, acceptor molecule, acceptor atom, score
      P1  H  7989  7998       L1    13  0.95
      L1  C    15    34       P1  7948  0.04
      L1  C    15    34       P1  7949  1.00

> <Gold.PLP.Chemscore.Internal.Correction>
0.0800

> <Gold.Rescore>
     Score         DG    S(hbond)    S(metal)    S(lipo)     H(rot)  DE(clash)    DE(int)     intcor
     13.51     -13.98       0.99        0.00      92.77       2.21       0.10       0.37       ----

> <Gold.Chemscore.Fitness>
13.5103

> <Gold.Chemscore.DG>
-13.9768

> <Gold.Chemscore.ZeroCoef>
-5.4800

> <Gold.Chemscore.Hbond>
0.9920

> <Gold.Chemscore.Metal>
0.0000

> <Gold.Chemscore.Lipo>
92.7662

> <Gold.Chemscore.Internal_Hbond>
0.0000

> <Gold.Chemscore.DEClash>
0.0970

> <Gold.Chemscore.DEInternal>
0.3695

> <Gold.Chemscore.Rot>
2.2149

> <Gold.Chemscore.Internal.Correction>
   9.000000E+99

> <Gold.Chemscore.Hbonds>
donor molecule, donor type, donor heavy atom, donor atom, acceptor molecule, acceptor atom, score
      P1  H  7989  7998       L1    13  0.06

> <Gold.Chemscore.Hbond.Weighted>
-3.3133

> <Gold.Chemscore.Metal.Weighted>
-0.0000

> <Gold.Chemscore.Lipo.Weighted>
-10.8536

> <Gold.Chemscore.Internal_Hbond.Weighted>
0.0000

> <Gold.Chemscore.DEClash.Weighted>
0.0970

> <Gold.Chemscore.DEInternal.Weighted>
0.3695

> <Gold.Chemscore.Rot.Weighted>
5.6702

> <Gold.Chemscore.Internal.Correction.Weighted>
   9.000000E+99

> <Gold.Protein.RotatedTorsions>
[ 6907 6896 6895 6894 ] final -147.48 input  -60.11 | X-H torsion
[ 7974 7965 7964 7962 ] final   68.62 input  175.53 | X-H torsion
[ 8008 7997 7996 7995 ] final  101.48 input   59.86 | X-H torsion
[ 10167 10162 10161 10158 ] final   56.22 input  -65.29 | X-H torsion
[ 10718 10713 10712 10709 ] final  103.67 input   66.30 | X-H torsion
[ 10763 10752 10751 10750 ] final  147.83 input  -60.55 | X-H torsion
[ 11005 11000 10999 10996 ] final  140.22 input  -57.11 | X-H torsion

> <Gold.Protein.ActiveResidues>
 VAL166  LYS551  ARG553  GLY616  TRP617  ASP618  TYR619  PRO620  LYS621  CYS622 
 ASP623  PHE694  ASN695  SER759  ASP760  ASP761  ALA762  ILE779  LEU786  VAL792 
 PHE793  MET794  SER795  GLU796  ALA797  LYS798  CYS799  TRP800  GLU811  SER814 

> <Gold.Protein.RotatedAtoms>
  151.1563  133.4874  159.2594 H   0  0  0  0  0  0  0  0  0  0  0  0  # atno 6907 bound_to 6896
  151.1501  135.0223  159.8674 H   0  0  0  0  0  0  0  0  0  0  0  0  # atno 6908 bound_to 6896
  152.5463  134.1447  159.8547 H   0  0  0  0  0  0  0  0  0  0  0  0  # atno 6909 bound_to 6896
  145.8004  139.2979  143.1158 H   0  0  0  0  0  0  0  0  0  0  0  0  # atno 7974 bound_to 7965
  156.1303  140.3197  155.8339 H   0  0  0  0  0  0  0  0  0  0  0  0  # atno 8008 bound_to 7997
  155.4344  140.0521  157.3033 H   0  0  0  0  0  0  0  0  0  0  0  0  # atno 8009 bound_to 7997
  154.4894  140.2086  155.9595 H   0  0  0  0  0  0  0  0  0  0  0  0  # atno 8010 bound_to 7997
  140.2111  144.3888  150.6488 H   0  0  0  0  0  0  0  0  0  0  0  0  # atno 10167 bound_to 10162
  157.6765  131.0785  150.5591 H   0  0  0  0  0  0  0  0  0  0  0  0  # atno 10718 bound_to 10713
  154.0447  135.2886  155.3349 H   0  0  0  0  0  0  0  0  0  0  0  0  # atno 10763 bound_to 10752
  154.6907  135.5227  153.8391 H   0  0  0  0  0  0  0  0  0  0  0  0  # atno 10764 bound_to 10752
  153.0585  135.6604  154.0648 H   0  0  0  0  0  0  0  0  0  0  0  0  # atno 10765 bound_to 10752
  140.0312  134.9351  157.0665 H   0  0  0  0  0  0  0  0  0  0  0  0  # atno 11005 bound_to 11000
  145.9884  140.8624  143.0079 LP  0  0  0  0  0  0  0  0  0  0  0  0  # atno 17320 bound_to 7965
  144.6769  140.2180  143.7369 LP  0  0  0  0  0  0  0  0  0  0  0  0  # atno 17321 bound_to 7965
  140.6323  143.2189  151.6470 LP  0  0  0  0  0  0  0  0  0  0  0  0  # atno 17342 bound_to 10162
  139.5179  144.3299  152.0835 LP  0  0  0  0  0  0  0  0  0  0  0  0  # atno 17343 bound_to 10162
  156.5894  130.4325  149.5943 LP  0  0  0  0  0  0  0  0  0  0  0  0  # atno 17370 bound_to 10713
  156.2596  130.6954  151.1719 LP  0  0  0  0  0  0  0  0  0  0  0  0  # atno 17371 bound_to 10713
  140.4223  134.1867  155.7165 LP  0  0  0  0  0  0  0  0  0  0  0  0  # atno 17394 bound_to 11000
  141.1832  133.8370  157.1184 LP  0  0  0  0  0  0  0  0  0  0  0  0  # atno 17395 bound_to 11000

$$$$
