AV-unprocessed.smi:2243|AV-procd|sdf|9066|dock7
  -GOLD-   2272012273D 1   1.00000     0.00000
 Structure written by MMmdl.
 34 35  0  0  0  0  0  0  0  0  1 V2000
  152.1263  145.2992  159.5878 C   0  0  0  0  0  0  0  0  0  0  0  0
  151.1979  144.4884  158.6676 C   0  0  2  0  0  0  0  0  0  0  0  0
  149.8170  144.8558  158.9853 N   0  0  0  0  0  0  0  0  0  0  0  0
  149.1949  144.6873  160.1631 C   0  0  0  0  0  0  0  0  0  0  0  0
  149.7676  144.1832  161.1342 O   0  0  0  0  0  0  0  0  0  0  0  0
  147.8930  145.1589  160.0775 N   0  0  0  0  0  0  0  0  0  0  0  0
  146.9404  144.5380  160.7019 C   0  0  0  0  0  0  0  0  0  0  0  0
  145.5943  144.8658  160.7298 N   0  0  0  0  0  0  0  0  0  0  0  0
  144.9479  143.9454  161.5078 C   0  0  0  0  0  0  0  0  0  0  0  0
  145.8483  143.0731  161.9515 C   0  0  0  0  0  0  0  0  0  0  0  0
  147.0798  143.4084  161.4754 O   0  0  0  0  0  0  0  0  0  0  0  0
  151.3945  142.9540  158.7944 C   0  0  0  0  0  0  0  0  0  0  0  0
  152.8331  142.5726  159.1986 C   0  0  0  0  0  0  0  0  0  0  0  0
  153.0131  141.0466  159.2472 C   0  0  0  0  0  0  0  0  0  0  0  0
  152.6832  140.4767  157.9870 O   0  0  0  0  0  0  0  0  0  0  0  0
  151.3245  140.6937  157.6274 C   0  0  0  0  0  0  0  0  0  0  0  0
  151.0485  142.1998  157.4921 C   0  0  0  0  0  0  0  0  0  0  0  0
  153.1734  145.1839  159.3100 H   0  0  0  0  0  0  0  0  0  0  0  0
  152.0189  144.9945  160.6293 H   0  0  0  0  0  0  0  0  0  0  0  0
  151.9001  146.3645  159.5290 H   0  0  0  0  0  0  0  0  0  0  0  0
  151.4310  144.7733  157.6404 H   0  0  0  0  0  0  0  0  0  0  0  0
  149.2833  145.2752  158.2376 H   0  0  0  0  0  0  0  0  0  0  0  0
  145.1283  145.6365  160.2734 H   0  0  0  0  0  0  0  0  0  0  0  0
  143.8818  144.0154  161.6651 H   0  0  0  0  0  0  0  0  0  0  0  0
  145.7760  142.2008  162.5836 H   0  0  0  0  0  0  0  0  0  0  0  0
  150.7223  142.5914  159.5739 H   0  0  0  0  0  0  0  0  0  0  0  0
  153.5425  142.9980  158.4874 H   0  0  0  0  0  0  0  0  0  0  0  0
  153.0838  142.9852  160.1753 H   0  0  0  0  0  0  0  0  0  0  0  0
  154.0483  140.8001  159.4831 H   0  0  0  0  0  0  0  0  0  0  0  0
  152.3953  140.6065  160.0316 H   0  0  0  0  0  0  0  0  0  0  0  0
  151.1285  140.1925  156.6796 H   0  0  0  0  0  0  0  0  0  0  0  0
  150.6633  140.2416  158.3683 H   0  0  0  0  0  0  0  0  0  0  0  0
  150.0009  142.3432  157.2268 H   0  0  0  0  0  0  0  0  0  0  0  0
  151.6358  142.6020  156.6655 H   0  0  0  0  0  0  0  0  0  0  0  0
  1  2  1  0  0  0  0
  1 18  1  0  0  0  0
  1 19  1  0  0  0  0
  1 20  1  0  0  0  0
  2  3  1  0  0  0  0
  2 12  1  0  0  0  0
  2 21  1  0  0  0  0
  3 22  1  0  0  0  0
  3  4  1  0  0  0  0
  4  6  1  0  0  0  0
  4  5  2  0  0  0  0
  6  7  2  0  0  0  0
  7 11  1  0  0  0  0
  7  8  1  0  0  0  0
  8 23  1  0  0  0  0
  8  9  1  0  0  0  0
  9 24  1  0  0  0  0
  9 10  2  0  0  0  0
 10 25  1  0  0  0  0
 10 11  1  0  0  0  0
 12 17  1  0  0  0  0
 12 13  1  0  0  0  0
 12 26  1  0  0  0  0
 13 14  1  0  0  0  0
 13 27  1  0  0  0  0
 13 28  1  0  0  0  0
 14 15  1  0  0  0  0
 14 29  1  0  0  0  0
 14 30  1  0  0  0  0
 15 16  1  0  0  0  0
 16 17  1  0  0  0  0
 16 31  1  0  0  0  0
 16 32  1  0  0  0  0
 17 33  1  0  0  0  0
 17 34  1  0  0  0  0
M  END
> <s_m_source_file>
AV-unprocessed.smi

> <i_m_source_file_index>
2243

> <i_lp_mmshare_version>
43012

> <i_f3d_flags>
0

> <s_epik_input>
W0NIMl0xW0NIMl1PW0NIMl1bQ0gyXVtDSF0xW0NASF0oW0NIM10pW05IXUMoPU8pW05IXWMybltjSF1bY0hdbzI=

> <s_epik_cmdline>
J2VwaWtfcHl0aG9uJywgJy1waCcsICc3LjAnLCAnLXRuJywgJzgnLCAnLW1hJywgJzIwMCcsICctbWV0YWxfYmluZGluZycsICctaW1hZScsICc8aW5maWxlLm1hZT4nLCAnLW9tYWUnLCAnPG91dGZpbGUubWFlPic=

> <r_lp_tautomer_probability>
0.107061

> <r_epik_Ionization_Penalty>
1.44639

> <r_epik_Ionization_Penalty_Charging>
1.44602

> <r_epik_Ionization_Penalty_Neutral>
0.000368208

> <r_epik_State_Penalty>
2.61815

> <r_epik_Charging_Adjusted_Penalty>
4.06418

> <i_epik_Tot_Q>
0

> <i_epik_Tot_abs_Q>
0

> <r_epik_Metal_State_Penalty>
3.54171

> <b_epik_Metal_Only>
0

> <s_lp_Force_Field>
OPLS_2005

> <r_lp_Energy>
34.6671

> <b_lp_Chiralities_Consistent>
1

> <s_lp_Variant>
AV-unprocessed.smi:2243-5

> <Gold.Version>
5.8.1

> <Gold.Id.Protein>
6NUR|6NUR_protein|mol2

> <Gold.PLP.Fitness>
41.6398

> <Gold.PLP.PLP>
-35.6131

> <Gold.PLP.part.hbond>
-4.0000

> <Gold.PLP.part.metal>
0.0000

> <Gold.PLP.part.buried>
-6.4681

> <Gold.PLP.part.nonpolar>
-26.1826

> <Gold.PLP.part.repulsive>
1.9699

> <Gold.PLP.ligand.clash>
0.0000

> <Gold.PLP.ligand.torsion>
0.9889

> <Gold.PLP.Chemscore.Hbond>
2.6630

> <Gold.PLP.Chemscore.CHOScore>
0.0000

> <Gold.PLP.Chemscore.Metal>
0.0000

> <Gold.Chemscore.Hbonds>
donor molecule, donor type, donor heavy atom, donor atom, acceptor molecule, acceptor atom, score
      L1  H     3    22       P1  8029  1.00
      P1  H  6933  6944       L1    11  1.00
      P1  H  7997  8010       L1    15  0.61

> <Gold.PLP.Chemscore.Internal.Correction>
0.0156

> <Gold.Rescore>
     Score         DG    S(hbond)    S(metal)    S(lipo)     H(rot)  DE(clash)    DE(int)     intcor
     15.63     -19.10       2.28        0.00      80.18       1.32       0.07       3.40       ----

> <Gold.Chemscore.Fitness>
15.6343

> <Gold.Chemscore.DG>
-19.1038

> <Gold.Chemscore.ZeroCoef>
-5.4800

> <Gold.Chemscore.Hbond>
2.2821

> <Gold.Chemscore.Metal>
0.0000

> <Gold.Chemscore.Lipo>
80.1797

> <Gold.Chemscore.Internal_Hbond>
0.0000

> <Gold.Chemscore.DEClash>
0.0652

> <Gold.Chemscore.DEInternal>
3.4044

> <Gold.Chemscore.Rot>
1.3201

> <Gold.Chemscore.Internal.Correction>
   9.000000E+99

> <Gold.Chemscore.Hbonds>
donor molecule, donor type, donor heavy atom, donor atom, acceptor molecule, acceptor atom, score
      L1  H     3    22       P1  8029  0.65
      P1  H  6933  6944       L1    11  0.98
      P1  H  7997  8010       L1    15  0.47

> <Gold.Chemscore.Hbond.Weighted>
-7.6222

> <Gold.Chemscore.Metal.Weighted>
-0.0000

> <Gold.Chemscore.Lipo.Weighted>
-9.3810

> <Gold.Chemscore.Internal_Hbond.Weighted>
0.0000

> <Gold.Chemscore.DEClash.Weighted>
0.0652

> <Gold.Chemscore.DEInternal.Weighted>
3.4044

> <Gold.Chemscore.Rot.Weighted>
3.3794

> <Gold.Chemscore.Internal.Correction.Weighted>
   9.000000E+99

> <Gold.Protein.RotatedTorsions>
[ 6907 6896 6895 6894 ] final  -13.49 input  -60.11 | X-H torsion
[ 7974 7965 7964 7962 ] final   22.74 input  175.53 | X-H torsion
[ 8008 7997 7996 7995 ] final   47.76 input   59.86 | X-H torsion
[ 10167 10162 10161 10158 ] final   52.85 input  -65.29 | X-H torsion
[ 10718 10713 10712 10709 ] final  -14.78 input   66.30 | X-H torsion
[ 10763 10752 10751 10750 ] final    3.16 input  -60.55 | X-H torsion
[ 11005 11000 10999 10996 ] final -105.35 input  -57.11 | X-H torsion

> <Gold.Protein.ActiveResidues>
 VAL166  LYS551  ARG553  GLY616  TRP617  ASP618  TYR619  PRO620  LYS621  CYS622 
 ASP623  PHE694  ASN695  SER759  ASP760  ASP761  ALA762  ILE779  LEU786  VAL792 
 PHE793  MET794  SER795  GLU796  ALA797  LYS798  CYS799  TRP800  GLU811  SER814 

> <Gold.Protein.RotatedAtoms>
  151.3541  135.0890  159.9412 H   0  0  0  0  0  0  0  0  0  0  0  0  # atno 6907 bound_to 6896
  152.5179  133.9323  159.7597 H   0  0  0  0  0  0  0  0  0  0  0  0  # atno 6908 bound_to 6896
  150.9705  133.6295  159.2768 H   0  0  0  0  0  0  0  0  0  0  0  0  # atno 6909 bound_to 6896
  146.2015  139.7843  142.8757 H   0  0  0  0  0  0  0  0  0  0  0  0  # atno 7974 bound_to 7965
  155.3743  140.3425  155.4244 H   0  0  0  0  0  0  0  0  0  0  0  0  # atno 8008 bound_to 7997
  156.1645  140.1611  156.8589 H   0  0  0  0  0  0  0  0  0  0  0  0  # atno 8009 bound_to 7997
  154.5172  140.0775  156.8085 H   0  0  0  0  0  0  0  0  0  0  0  0  # atno 8010 bound_to 7997
  140.2470  144.3521  150.6361 H   0  0  0  0  0  0  0  0  0  0  0  0  # atno 10167 bound_to 10162
  156.6110  130.4849  149.6201 H   0  0  0  0  0  0  0  0  0  0  0  0  # atno 10718 bound_to 10713
  153.2867  135.6945  153.7333 H   0  0  0  0  0  0  0  0  0  0  0  0  # atno 10763 bound_to 10752
  153.6299  135.3412  155.3039 H   0  0  0  0  0  0  0  0  0  0  0  0  # atno 10764 bound_to 10752
  154.8512  135.4406  154.1937 H   0  0  0  0  0  0  0  0  0  0  0  0  # atno 10765 bound_to 10752
  141.1058  133.8800  157.1723 H   0  0  0  0  0  0  0  0  0  0  0  0  # atno 11005 bound_to 11000
  145.3466  141.0299  143.3362 LP  0  0  0  0  0  0  0  0  0  0  0  0  # atno 17320 bound_to 7965
  144.8695  139.5058  143.6774 LP  0  0  0  0  0  0  0  0  0  0  0  0  # atno 17321 bound_to 7965
  140.6070  143.2168  151.6961 LP  0  0  0  0  0  0  0  0  0  0  0  0  # atno 17342 bound_to 10162
  139.5058  144.3702  152.0477 LP  0  0  0  0  0  0  0  0  0  0  0  0  # atno 17343 bound_to 10162
  156.2389  130.6839  151.1537 LP  0  0  0  0  0  0  0  0  0  0  0  0  # atno 17370 bound_to 10713
  157.7254  131.0653  150.5954 LP  0  0  0  0  0  0  0  0  0  0  0  0  # atno 17371 bound_to 10713
  139.9927  135.0058  157.0012 LP  0  0  0  0  0  0  0  0  0  0  0  0  # atno 17394 bound_to 11000
  140.4907  134.1196  155.7232 LP  0  0  0  0  0  0  0  0  0  0  0  0  # atno 17395 bound_to 11000

$$$$
