AV-unprocessed.smi:82|AV-procd|sdf|794|dock1
  -GOLD-   2262017173D 1   1.00000     0.00000
 Structure written by MMmdl.
 59 62  0  0  0  0  0  0  0  0  2 V2000
  152.7943  138.8659  154.9426 C   0  0  0  0  0  0  0  0  0  0  0  0
  151.8460  139.9010  155.1360 O   0  0  0  0  0  0  0  0  0  0  0  0
  151.0447  139.6969  156.2881 C   0  0  0  0  0  0  0  0  0  0  0  0
  150.0670  140.8741  156.4244 C   0  0  0  0  0  0  0  0  0  0  0  0
  148.6437  140.4350  156.3708 N   0  3  2  0  0  0  0  0  0  0  0  0
  148.4281  139.2112  157.1951 C   0  0  0  0  0  0  0  0  0  0  0  0
  146.9587  138.7684  157.2022 C   0  0  0  0  0  0  0  0  0  0  0  0
  146.4867  138.5740  155.8389 N   0  0  0  0  0  0  0  0  0  0  0  0
  146.6911  137.3430  155.2984 C   0  0  0  0  0  0  0  0  0  0  0  0
  147.3710  136.3988  156.0021 N   0  0  0  0  0  0  0  0  0  0  0  0
  147.5686  135.1817  155.4881 C   0  0  0  0  0  0  0  0  0  0  0  0
  147.1814  134.7043  154.3046 N   0  0  0  0  0  0  0  0  0  0  0  0
  146.5089  135.6476  153.5848 C   0  0  0  0  0  0  0  0  0  0  0  0
  146.2233  136.9789  154.0028 C   0  0  0  0  0  0  0  0  0  0  0  0
  145.5371  137.6507  152.9981 N   0  0  0  0  0  0  0  0  0  0  0  0
  145.4181  136.7673  152.0451 C   0  0  0  0  0  0  0  0  0  0  0  0
  145.9675  135.5338  152.3149 N   0  0  0  0  0  0  0  0  0  0  0  0
  145.9915  134.3955  151.4399 C   0  0  0  0  0  0  0  0  0  0  0  0
  144.9744  134.2658  150.3038 C   0  0  0  0  0  0  0  0  0  0  0  0
  144.8902  132.7400  150.5368 C   0  0  0  0  0  0  0  0  0  0  0  0
  143.4581  132.1846  150.5783 C   0  0  0  0  0  0  0  0  0  0  0  0
  142.8716  132.1696  149.2926 O   0  0  0  0  0  0  0  0  0  0  0  0
  145.6936  131.8558  149.5573 C   0  0  0  0  0  0  0  0  0  0  0  0
  147.0675  132.1832  149.5083 O   0  0  0  0  0  0  0  0  0  0  0  0
  145.5262  133.0173  151.9179 C   0  0  0  0  0  0  0  0  0  0  0  0
  146.6407  139.7597  155.0019 C   0  0  0  0  0  0  0  0  0  0  0  0
  148.0936  140.2976  154.9833 C   0  0  1  0  0  0  0  0  0  0  0  0
  148.0969  141.6291  154.2045 C   0  0  0  0  0  0  0  0  0  0  0  0
  153.3887  139.0746  154.0531 H   0  0  0  0  0  0  0  0  0  0  0  0
  152.3032  137.9023  154.8003 H   0  0  0  0  0  0  0  0  0  0  0  0
  153.4748  138.7908  155.7918 H   0  0  0  0  0  0  0  0  0  0  0  0
  150.4780  138.7713  156.1759 H   0  0  0  0  0  0  0  0  0  0  0  0
  151.6669  139.5818  157.1756 H   0  0  0  0  0  0  0  0  0  0  0  0
  150.3051  141.3760  157.3583 H   0  0  0  0  0  0  0  0  0  0  0  0
  150.2517  141.6128  155.6429 H   0  0  0  0  0  0  0  0  0  0  0  0
  149.0489  138.4015  156.8076 H   0  0  0  0  0  0  0  0  0  0  0  0
  148.7446  139.3829  158.2230 H   0  0  0  0  0  0  0  0  0  0  0  0
  146.8495  137.8677  157.8048 H   0  0  0  0  0  0  0  0  0  0  0  0
  146.3416  139.5312  157.6784 H   0  0  0  0  0  0  0  0  0  0  0  0
  148.1142  134.4914  156.1148 H   0  0  0  0  0  0  0  0  0  0  0  0
  144.9260  136.9957  151.1108 H   0  0  0  0  0  0  0  0  0  0  0  0
  147.0056  134.3253  151.0451 H   0  0  0  0  0  0  0  0  0  0  0  0
  144.0390  134.7833  150.5224 H   0  0  0  0  0  0  0  0  0  0  0  0
  145.3574  134.5605  149.3261 H   0  0  0  0  0  0  0  0  0  0  0  0
  143.4481  131.1615  150.9567 H   0  0  0  0  0  0  0  0  0  0  0  0
  142.8262  132.7672  151.2497 H   0  0  0  0  0  0  0  0  0  0  0  0
  142.3619  132.9581  149.1844 H   0  0  0  0  0  0  0  0  0  0  0  0
  145.6211  130.8031  149.8309 H   0  0  0  0  0  0  0  0  0  0  0  0
  145.2972  131.9435  148.5452 H   0  0  0  0  0  0  0  0  0  0  0  0
  147.5584  131.4880  149.9192 H   0  0  0  0  0  0  0  0  0  0  0  0
  146.3378  132.3411  152.1889 H   0  0  0  0  0  0  0  0  0  0  0  0
  144.7868  133.0721  152.7183 H   0  0  0  0  0  0  0  0  0  0  0  0
  146.2891  139.5594  153.9887 H   0  0  0  0  0  0  0  0  0  0  0  0
  145.9747  140.5267  155.3994 H   0  0  0  0  0  0  0  0  0  0  0  0
  148.7225  139.5852  154.4481 H   0  0  0  0  0  0  0  0  0  0  0  0
  147.5448  141.5297  153.2694 H   0  0  0  0  0  0  0  0  0  0  0  0
  149.0964  141.9584  153.9271 H   0  0  0  0  0  0  0  0  0  0  0  0
  147.6242  142.4262  154.7795 H   0  0  0  0  0  0  0  0  0  0  0  0
  148.1035  141.1718  156.8016 H   0  0  0  0  0  0  0  0  0  0  0  0
  1  2  1  0  0  0  0
  1 29  1  0  0  0  0
  1 30  1  0  0  0  0
  1 31  1  0  0  0  0
  2  3  1  0  0  0  0
  3  4  1  0  0  0  0
  3 32  1  0  0  0  0
  3 33  1  0  0  0  0
  4  5  1  0  0  0  0
  4 34  1  0  0  0  0
  4 35  1  0  0  0  0
  5 27  1  0  0  0  0
  5  6  1  0  0  0  0
  5 59  1  0  0  0  0
  6  7  1  0  0  0  0
  6 36  1  0  0  0  0
  6 37  1  0  0  0  0
  7  8  1  0  0  0  0
  7 38  1  0  0  0  0
  7 39  1  0  0  0  0
  8  9  1  0  0  0  0
  8 26  1  0  0  0  0
  9 14  1  0  0  0  0
  9 10  2  0  0  0  0
 10 11  1  0  0  0  0
 11 12  2  0  0  0  0
 11 40  1  0  0  0  0
 12 13  1  0  0  0  0
 13 17  1  0  0  0  0
 13 14  2  0  0  0  0
 14 15  1  0  0  0  0
 15 16  2  0  0  0  0
 16 17  1  0  0  0  0
 16 41  1  0  0  0  0
 17 18  1  0  0  0  0
 18 25  1  0  0  0  0
 18 19  1  0  0  0  0
 18 42  1  0  0  0  0
 19 20  1  0  0  0  0
 19 43  1  0  0  0  0
 19 44  1  0  0  0  0
 20 21  1  0  0  0  0
 20 23  1  0  0  0  0
 20 25  1  0  0  0  0
 21 22  1  0  0  0  0
 21 45  1  0  0  0  0
 21 46  1  0  0  0  0
 22 47  1  0  0  0  0
 23 24  1  0  0  0  0
 23 48  1  0  0  0  0
 23 49  1  0  0  0  0
 24 50  1  0  0  0  0
 25 51  1  0  0  0  0
 25 52  1  0  0  0  0
 26 27  1  0  0  0  0
 26 53  1  0  0  0  0
 26 54  1  0  0  0  0
 27 28  1  0  0  0  0
 27 55  1  0  0  0  0
 28 56  1  0  0  0  0
 28 57  1  0  0  0  0
 28 58  1  0  0  0  0
M  CHG  1   5   1
M  END
> <s_m_source_file>
AV-unprocessed.smi

> <i_m_source_file_index>
82

> <i_lp_mmshare_version>
43012

> <i_f3d_flags>
0

> <s_epik_input>
W0NIM11PW0NIMl1bQ0gyXU4xW0NIMl1bQ0gyXU4oW0NIMl1bQ0BIXTFbQ0gzXSljKG5bY0hdbjIpYyhjMjMpbltjSF1uM1tDSF0oW0NIMl00KVtDSDJdQzQoW0NIMl1bT0hdKVtDSDJdW09IXQ==

> <s_epik_cmdline>
J2VwaWtfcHl0aG9uJywgJy1waCcsICc3LjAnLCAnLXRuJywgJzgnLCAnLW1hJywgJzIwMCcsICctbWV0YWxfYmluZGluZycsICctaW1hZScsICc8aW5maWxlLm1hZT4nLCAnLW9tYWUnLCAnPG91dGZpbGUubWFlPic=

> <r_lp_tautomer_probability>
1

> <r_epik_Ionization_Penalty>
0.304275

> <r_epik_Ionization_Penalty_Charging>
0.304214

> <r_epik_Ionization_Penalty_Neutral>
6.13137e-05

> <r_epik_State_Penalty>
0.300354

> <r_epik_Charging_Adjusted_Penalty>
0.604567

> <i_epik_Tot_Q>
1

> <i_epik_Tot_abs_Q>
1

> <r_epik_Metal_State_Penalty>
0.301147

> <b_epik_Metal_Only>
0

> <s_lp_Force_Field>
OPLS_2005

> <r_lp_Energy>
58.1086

> <b_lp_Chiralities_Consistent>
1

> <s_lp_Variant>
AV-unprocessed.smi:82-1

> <Gold.Version>
5.8.1

> <Gold.Id.Protein>
6NUR|6NUR_protein|mol2

> <Gold.PLP.Fitness>
49.9891

> <Gold.PLP.PLP>
-37.0869

> <Gold.PLP.part.hbond>
-5.8023

> <Gold.PLP.part.metal>
0.0000

> <Gold.PLP.part.buried>
-1.5136

> <Gold.PLP.part.nonpolar>
-29.9767

> <Gold.PLP.part.repulsive>
0.4011

> <Gold.PLP.ligand.clash>
0.0000

> <Gold.PLP.ligand.torsion>
1.3621

> <Gold.PLP.Chemscore.Hbond>
3.8613

> <Gold.PLP.Chemscore.CHOScore>
1.0000

> <Gold.PLP.Chemscore.Metal>
0.0000

> <Gold.Chemscore.Hbonds>
donor molecule, donor type, donor heavy atom, donor atom, acceptor molecule, acceptor atom, score
      L1  H    22    47       P1 10186  1.00
      L1  H    24    50       P1 10747  0.94
      P1  H  7989  7998       L1     2  0.94
      P1  H 10785 10796       L1    22  0.76
      L1  C    16    41       P1 10171  1.00

> <Gold.PLP.Chemscore.Internal.Correction>
1.0426

> <Gold.Rescore>
     Score         DG    S(hbond)    S(metal)    S(lipo)     H(rot)  DE(clash)    DE(int)     intcor
     14.02     -15.82       3.10        0.00      85.31       3.91       0.13       1.67       ----

> <Gold.Chemscore.Fitness>
14.0224

> <Gold.Chemscore.DG>
-15.8201

> <Gold.Chemscore.ZeroCoef>
-5.4800

> <Gold.Chemscore.Hbond>
3.1010

> <Gold.Chemscore.Metal>
0.0000

> <Gold.Chemscore.Lipo>
85.3055

> <Gold.Chemscore.Internal_Hbond>
0.0000

> <Gold.Chemscore.DEClash>
0.1283

> <Gold.Chemscore.DEInternal>
1.6694

> <Gold.Chemscore.Rot>
3.9055

> <Gold.Chemscore.Internal.Correction>
   9.000000E+99

> <Gold.Chemscore.Hbonds>
donor molecule, donor type, donor heavy atom, donor atom, acceptor molecule, acceptor atom, score
      L1  H    22    47       P1 10186  0.94
      L1  H    24    50       P1 10747  0.90
      P1  H  7989  7998       L1     2  0.59
      P1  H 10785 10796       L1    22  0.22

> <Gold.Chemscore.Hbond.Weighted>
-10.3574

> <Gold.Chemscore.Metal.Weighted>
-0.0000

> <Gold.Chemscore.Lipo.Weighted>
-9.9807

> <Gold.Chemscore.Internal_Hbond.Weighted>
0.0000

> <Gold.Chemscore.DEClash.Weighted>
0.1283

> <Gold.Chemscore.DEInternal.Weighted>
1.6694

> <Gold.Chemscore.Rot.Weighted>
9.9980

> <Gold.Chemscore.Internal.Correction.Weighted>
   9.000000E+99

> <Gold.Protein.RotatedTorsions>
[ 6907 6896 6895 6894 ] final -173.39 input  -60.11 | X-H torsion
[ 7974 7965 7964 7962 ] final  -69.59 input  175.53 | X-H torsion
[ 8008 7997 7996 7995 ] final   37.21 input   59.86 | X-H torsion
[ 10167 10162 10161 10158 ] final  104.83 input  -65.29 | X-H torsion
[ 10718 10713 10712 10709 ] final  -97.35 input   66.30 | X-H torsion
[ 10763 10752 10751 10750 ] final   -6.40 input  -60.55 | X-H torsion
[ 11005 11000 10999 10996 ] final  157.80 input  -57.11 | X-H torsion

> <Gold.Protein.ActiveResidues>
 VAL166  LYS551  ARG553  GLY616  TRP617  ASP618  TYR619  PRO620  LYS621  CYS622 
 ASP623  PHE694  ASN695  SER759  ASP760  ASP761  ALA762  ILE779  LEU786  VAL792 
 PHE793  MET794  SER795  GLU796  ALA797  LYS798  CYS799  TRP800  GLU811  SER814 

> <Gold.Protein.RotatedAtoms>
  151.5554  133.3411  159.2960 H   0  0  0  0  0  0  0  0  0  0  0  0  # atno 6907 bound_to 6896
  150.8454  134.7763  159.6977 H   0  0  0  0  0  0  0  0  0  0  0  0  # atno 6908 bound_to 6896
  152.4512  134.5396  159.9887 H   0  0  0  0  0  0  0  0  0  0  0  0  # atno 6909 bound_to 6896
  145.7018  140.9113  143.0727 H   0  0  0  0  0  0  0  0  0  0  0  0  # atno 7974 bound_to 7965
  155.2001  140.3315  155.4344 H   0  0  0  0  0  0  0  0  0  0  0  0  # atno 8008 bound_to 7997
  156.2410  140.1895  156.7038 H   0  0  0  0  0  0  0  0  0  0  0  0  # atno 8009 bound_to 7997
  154.6147  140.0604  156.9525 H   0  0  0  0  0  0  0  0  0  0  0  0  # atno 8010 bound_to 7997
  139.7144  144.7071  151.0974 H   0  0  0  0  0  0  0  0  0  0  0  0  # atno 10167 bound_to 10162
  156.0082  130.5191  150.6362 H   0  0  0  0  0  0  0  0  0  0  0  0  # atno 10718 bound_to 10713
  153.4118  135.7008  153.6354 H   0  0  0  0  0  0  0  0  0  0  0  0  # atno 10763 bound_to 10752
  153.4844  135.3686  155.2459 H   0  0  0  0  0  0  0  0  0  0  0  0  # atno 10764 bound_to 10752
  154.8717  135.4074  154.3472 H   0  0  0  0  0  0  0  0  0  0  0  0  # atno 10765 bound_to 10752
  140.1804  134.8479  157.2796 H   0  0  0  0  0  0  0  0  0  0  0  0  # atno 11005 bound_to 11000
  144.6966  139.8958  143.7456 LP  0  0  0  0  0  0  0  0  0  0  0  0  # atno 17320 bound_to 7965
  146.0791  139.3778  143.0476 LP  0  0  0  0  0  0  0  0  0  0  0  0  # atno 17321 bound_to 7965
  140.7740  143.5250  150.9491 LP  0  0  0  0  0  0  0  0  0  0  0  0  # atno 17342 bound_to 10162
  139.8935  143.6923  152.3142 LP  0  0  0  0  0  0  0  0  0  0  0  0  # atno 17343 bound_to 10162
  157.4151  131.0829  151.1184 LP  0  0  0  0  0  0  0  0  0  0  0  0  # atno 17370 bound_to 10713
  157.1804  130.6307  149.5670 LP  0  0  0  0  0  0  0  0  0  0  0  0  # atno 17371 bound_to 10713
  140.2274  134.3950  155.7537 LP  0  0  0  0  0  0  0  0  0  0  0  0  # atno 17394 bound_to 11000
  141.2222  133.7197  156.8586 LP  0  0  0  0  0  0  0  0  0  0  0  0  # atno 17395 bound_to 11000

$$$$
