AV-unprocessed.smi:447|AV-procd|sdf|2600|dock4
  -GOLD-   2262022593D 1   1.00000     0.00000
 Structure written by MMmdl.
 45 47  0  0  0  0  0  0  0  0  1 V2000
  151.1238  135.4201  156.5725 C   0  0  0  0  0  0  0  0  0  0  0  0
  151.3846  136.6228  155.6725 C   0  0  0  0  0  0  0  0  0  0  0  0
  151.3362  136.4989  154.4491 O   0  0  0  0  0  0  0  0  0  0  0  0
  151.6603  137.7786  156.2953 N   0  0  0  0  0  0  0  0  0  0  0  0
  151.9686  139.0483  155.6397 C   0  0  1  0  0  0  0  0  0  0  0  0
  153.0148  138.8484  154.5340 C   0  0  0  0  0  0  0  0  0  0  0  0
  150.6788  139.6207  155.1077 C   0  0  0  0  0  0  0  0  0  0  0  0
  149.8958  138.9399  154.2647 N   0  0  0  0  0  0  0  0  0  0  0  0
  148.8504  139.8124  154.0391 C   0  0  0  0  0  0  0  0  0  0  0  0
  147.6928  139.6728  153.2403 C   0  0  0  0  0  0  0  0  0  0  0  0
  146.7481  140.7174  153.1638 C   0  0  0  0  0  0  0  0  0  0  0  0
  146.9469  141.9134  153.8838 C   0  0  0  0  0  0  0  0  0  0  0  0
  148.0937  142.0722  154.6852 C   0  0  0  0  0  0  0  0  0  0  0  0
  149.0338  141.0266  154.7572 C   0  0  0  0  0  0  0  0  0  0  0  0
  150.2385  140.8653  155.4338 N   0  0  0  0  0  0  0  0  0  0  0  0
  150.8547  141.8583  156.3052 C   0  0  0  0  0  0  0  0  0  0  0  0
  150.0247  142.1299  157.5768 C   0  0  1  0  0  0  0  0  0  0  0  0
  149.5576  140.9162  158.1339 O   0  0  0  0  0  0  0  0  0  0  0  0
  150.8121  142.9549  158.5823 C   0  0  0  0  0  0  0  0  0  0  0  0
  151.9793  142.4241  159.1725 C   0  0  0  0  0  0  0  0  0  0  0  0
  152.7088  143.1818  160.1094 C   0  0  0  0  0  0  0  0  0  0  0  0
  152.2735  144.4733  160.4636 C   0  0  0  0  0  0  0  0  0  0  0  0
  151.1075  145.0067  159.8814 C   0  0  0  0  0  0  0  0  0  0  0  0
  150.3780  144.2497  158.9441 C   0  0  0  0  0  0  0  0  0  0  0  0
  152.0247  135.1605  157.1290 H   0  0  0  0  0  0  0  0  0  0  0  0
  150.8245  134.5528  155.9833 H   0  0  0  0  0  0  0  0  0  0  0  0
  150.3277  135.6399  157.2842 H   0  0  0  0  0  0  0  0  0  0  0  0
  151.6822  137.7797  157.3050 H   0  0  0  0  0  0  0  0  0  0  0  0
  152.3855  139.7250  156.3835 H   0  0  0  0  0  0  0  0  0  0  0  0
  153.2522  139.7952  154.0477 H   0  0  0  0  0  0  0  0  0  0  0  0
  152.6584  138.1600  153.7671 H   0  0  0  0  0  0  0  0  0  0  0  0
  153.9427  138.4447  154.9401 H   0  0  0  0  0  0  0  0  0  0  0  0
  147.5316  138.7603  152.6856 H   0  0  0  0  0  0  0  0  0  0  0  0
  145.8667  140.6007  152.5504 H   0  0  0  0  0  0  0  0  0  0  0  0
  146.2184  142.7085  153.8204 H   0  0  0  0  0  0  0  0  0  0  0  0
  148.2490  142.9869  155.2380 H   0  0  0  0  0  0  0  0  0  0  0  0
  151.8711  141.5526  156.5508 H   0  0  0  0  0  0  0  0  0  0  0  0
  150.9618  142.7831  155.7367 H   0  0  0  0  0  0  0  0  0  0  0  0
  149.1362  142.6961  157.2939 H   0  0  0  0  0  0  0  0  0  0  0  0
  148.8072  140.6276  157.6371 H   0  0  0  0  0  0  0  0  0  0  0  0
  152.3197  141.4332  158.9097 H   0  0  0  0  0  0  0  0  0  0  0  0
  153.6022  142.7720  160.5576 H   0  0  0  0  0  0  0  0  0  0  0  0
  152.8323  145.0539  161.1828 H   0  0  0  0  0  0  0  0  0  0  0  0
  150.7718  145.9963  160.1544 H   0  0  0  0  0  0  0  0  0  0  0  0
  149.4824  144.6654  158.5050 H   0  0  0  0  0  0  0  0  0  0  0  0
  1  2  1  0  0  0  0
  1 25  1  0  0  0  0
  1 26  1  0  0  0  0
  1 27  1  0  0  0  0
  2  3  2  0  0  0  0
  2  4  1  0  0  0  0
  4  5  1  0  0  0  0
  4 28  1  0  0  0  0
  5  6  1  0  0  0  0
  5  7  1  0  0  0  0
  5 29  1  0  0  0  0
  6 30  1  0  0  0  0
  6 31  1  0  0  0  0
  6 32  1  0  0  0  0
  7 15  1  0  0  0  0
  7  8  2  0  0  0  0
  8  9  1  0  0  0  0
  9 14  2  0  0  0  0
  9 10  1  0  0  0  0
 10 11  2  0  0  0  0
 10 33  1  0  0  0  0
 11 12  1  0  0  0  0
 11 34  1  0  0  0  0
 12 13  2  0  0  0  0
 12 35  1  0  0  0  0
 13 14  1  0  0  0  0
 13 36  1  0  0  0  0
 14 15  1  0  0  0  0
 15 16  1  0  0  0  0
 16 17  1  0  0  0  0
 16 37  1  0  0  0  0
 16 38  1  0  0  0  0
 17 18  1  0  0  0  0
 17 19  1  0  0  0  0
 17 39  1  0  0  0  0
 18 40  1  0  0  0  0
 19 24  1  0  0  0  0
 19 20  2  0  0  0  0
 20 21  1  0  0  0  0
 20 41  1  0  0  0  0
 21 22  2  0  0  0  0
 21 42  1  0  0  0  0
 22 23  1  0  0  0  0
 22 43  1  0  0  0  0
 23 24  2  0  0  0  0
 23 44  1  0  0  0  0
 24 45  1  0  0  0  0
M  END
> <s_m_source_file>
AV-unprocessed.smi

> <i_m_source_file_index>
447

> <i_lp_mmshare_version>
43012

> <i_f3d_flags>
0

> <s_epik_input>
W0NIM11DKD1PKVtOSF1bQ0BIXShbQ0gzXSljKG4xKW4oYyhjMTIpW2NIXVtjSF1bY0hdW2NIXTIpW0NIMl1bQ0BIXShbT0hdKWMzW2NIXVtjSF1bY0hdW2NIXVtjSF0z

> <s_epik_cmdline>
J2VwaWtfcHl0aG9uJywgJy1waCcsICc3LjAnLCAnLXRuJywgJzgnLCAnLW1hJywgJzIwMCcsICctbWV0YWxfYmluZGluZycsICctaW1hZScsICc8aW5maWxlLm1hZT4nLCAnLW9tYWUnLCAnPG91dGZpbGUubWFlPic=

> <r_epik_Ionization_Penalty>
0.13301

> <r_epik_Ionization_Penalty_Charging>
0

> <r_epik_Ionization_Penalty_Neutral>
0.13301

> <r_epik_State_Penalty>
0.122384

> <r_epik_Charging_Adjusted_Penalty>
0.122384

> <i_epik_Tot_Q>
0

> <i_epik_Tot_abs_Q>
0

> <r_epik_Metal_State_Penalty>
0.0997374

> <b_epik_Metal_Only>
0

> <s_lp_Force_Field>
OPLS_2005

> <r_lp_Energy>
8.36794

> <b_lp_Chiralities_Consistent>
1

> <s_lp_Variant>
AV-unprocessed.smi:447-4

> <Gold.Version>
5.8.1

> <Gold.Id.Protein>
6NUR|6NUR_protein|mol2

> <Gold.PLP.Fitness>
50.2716

> <Gold.PLP.PLP>
-47.9238

> <Gold.PLP.part.hbond>
-1.0000

> <Gold.PLP.part.metal>
0.0000

> <Gold.PLP.part.buried>
-0.8781

> <Gold.PLP.part.nonpolar>
-47.5374

> <Gold.PLP.part.repulsive>
0.4293

> <Gold.PLP.ligand.clash>
0.0000

> <Gold.PLP.ligand.torsion>
0.3725

> <Gold.PLP.Chemscore.Hbond>
1.0000

> <Gold.PLP.Chemscore.CHOScore>
0.0000

> <Gold.PLP.Chemscore.Metal>
0.0000

> <Gold.Chemscore.Hbonds>
donor molecule, donor type, donor heavy atom, donor atom, acceptor molecule, acceptor atom, score
      P1  H 10752 10765       L1     3  0.60

> <Gold.PLP.Chemscore.Internal.Correction>
0.0928

> <Gold.Rescore>
     Score         DG    S(hbond)    S(metal)    S(lipo)     H(rot)  DE(clash)    DE(int)     intcor
     15.87     -18.77       0.98        0.00     137.05       2.35       0.99       1.92       ----

> <Gold.Chemscore.Fitness>
15.8684

> <Gold.Chemscore.DG>
-18.7731

> <Gold.Chemscore.ZeroCoef>
-5.4800

> <Gold.Chemscore.Hbond>
0.9824

> <Gold.Chemscore.Metal>
0.0000

> <Gold.Chemscore.Lipo>
137.0524

> <Gold.Chemscore.Internal_Hbond>
0.0000

> <Gold.Chemscore.DEClash>
0.9894

> <Gold.Chemscore.DEInternal>
1.9153

> <Gold.Chemscore.Rot>
2.3528

> <Gold.Chemscore.Internal.Correction>
   9.000000E+99

> <Gold.Chemscore.Hbonds>
donor molecule, donor type, donor heavy atom, donor atom, acceptor molecule, acceptor atom, score
      P1  H 10752 10765       L1     3  0.04

> <Gold.Chemscore.Hbond.Weighted>
-3.2811

> <Gold.Chemscore.Metal.Weighted>
-0.0000

> <Gold.Chemscore.Lipo.Weighted>
-16.0351

> <Gold.Chemscore.Internal_Hbond.Weighted>
0.0000

> <Gold.Chemscore.DEClash.Weighted>
0.9894

> <Gold.Chemscore.DEInternal.Weighted>
1.9153

> <Gold.Chemscore.Rot.Weighted>
6.0231

> <Gold.Chemscore.Internal.Correction.Weighted>
   9.000000E+99

> <Gold.Protein.RotatedTorsions>
[ 6907 6896 6895 6894 ] final -122.00 input  -60.11 | X-H torsion
[ 7974 7965 7964 7962 ] final   63.54 input  175.53 | X-H torsion
[ 8008 7997 7996 7995 ] final -155.47 input   59.86 | X-H torsion
[ 10167 10162 10161 10158 ] final -128.44 input  -65.29 | X-H torsion
[ 10718 10713 10712 10709 ] final   57.28 input   66.30 | X-H torsion
[ 10763 10752 10751 10750 ] final  168.76 input  -60.55 | X-H torsion
[ 11005 11000 10999 10996 ] final   54.25 input  -57.11 | X-H torsion

> <Gold.Protein.ActiveResidues>
 VAL166  LYS551  ARG553  GLY616  TRP617  ASP618  TYR619  PRO620  LYS621  CYS622 
 ASP623  PHE694  ASN695  SER759  ASP760  ASP761  ALA762  ILE779  LEU786  VAL792 
 PHE793  MET794  SER795  GLU796  ALA797  LYS798  CYS799  TRP800  GLU811  SER814 

> <Gold.Protein.RotatedAtoms>
  150.8535  133.7750  159.3016 H   0  0  0  0  0  0  0  0  0  0  0  0  # atno 6907 bound_to 6896
  151.5415  135.1067  159.9937 H   0  0  0  0  0  0  0  0  0  0  0  0  # atno 6908 bound_to 6896
  152.4571  133.7703  159.6851 H   0  0  0  0  0  0  0  0  0  0  0  0  # atno 6909 bound_to 6896
  145.8607  139.3313  143.0821 H   0  0  0  0  0  0  0  0  0  0  0  0  # atno 7974 bound_to 7965
  155.7024  140.0768  157.2405 H   0  0  0  0  0  0  0  0  0  0  0  0  # atno 8008 bound_to 7997
  154.4071  140.1645  156.2258 H   0  0  0  0  0  0  0  0  0  0  0  0  # atno 8009 bound_to 7997
  155.9356  140.3388  155.6288 H   0  0  0  0  0  0  0  0  0  0  0  0  # atno 8010 bound_to 7997
  139.9503  143.6063  152.2477 H   0  0  0  0  0  0  0  0  0  0  0  0  # atno 10167 bound_to 10162
  157.5501  130.8759  149.8951 H   0  0  0  0  0  0  0  0  0  0  0  0  # atno 10718 bound_to 10713
  154.3732  135.2753  155.2254 H   0  0  0  0  0  0  0  0  0  0  0  0  # atno 10763 bound_to 10752
  154.4392  135.5958  153.6122 H   0  0  0  0  0  0  0  0  0  0  0  0  # atno 10764 bound_to 10752
  152.9837  135.6014  154.3966 H   0  0  0  0  0  0  0  0  0  0  0  0  # atno 10765 bound_to 10752
  140.0701  134.5481  155.9055 H   0  0  0  0  0  0  0  0  0  0  0  0  # atno 11005 bound_to 11000
  145.9251  140.9088  143.0385 LP  0  0  0  0  0  0  0  0  0  0  0  0  # atno 17320 bound_to 7965
  144.6726  140.1342  143.7441 LP  0  0  0  0  0  0  0  0  0  0  0  0  # atno 17321 bound_to 7965
  139.6634  144.7662  151.1920 LP  0  0  0  0  0  0  0  0  0  0  0  0  # atno 17342 bound_to 10162
  140.7585  143.5976  150.8733 LP  0  0  0  0  0  0  0  0  0  0  0  0  # atno 17343 bound_to 10162
  156.0569  130.3707  150.1070 LP  0  0  0  0  0  0  0  0  0  0  0  0  # atno 17370 bound_to 10713
  156.9243  130.9693  151.3543 LP  0  0  0  0  0  0  0  0  0  0  0  0  # atno 17371 bound_to 10713
  141.2008  133.6615  156.5919 LP  0  0  0  0  0  0  0  0  0  0  0  0  # atno 17394 bound_to 11000
  140.3639  134.7664  157.4553 LP  0  0  0  0  0  0  0  0  0  0  0  0  # atno 17395 bound_to 11000

$$$$
