AV-unprocessed.smi:1055|AV-procd|sdf|4624|dock3
  -GOLD-   22720 3123D 1   1.00000     0.00000
 Structure written by MMmdl.
 52 53  0  0  0  0  0  0  0  0  3 V2000
  146.2613  133.4931  150.7162 C   0  0  0  0  0  0  0  0  0  0  0  0
  145.1170  134.1547  150.9570 C   0  0  0  0  0  0  0  0  0  0  0  0
  143.8034  133.4306  151.1858 C   0  0  0  0  0  0  0  0  0  0  0  0
  145.0580  135.6732  151.0109 C   0  0  0  0  0  0  0  0  0  0  0  0
  146.0312  136.2272  151.9850 N   0  3  2  0  0  0  0  0  0  0  0  0
  145.9176  135.5875  153.3198 C   0  0  0  0  0  0  0  0  0  0  0  0
  147.0381  136.0639  154.2591 C   0  0  0  0  0  0  0  0  0  0  0  0
  147.0389  137.5985  154.3941 C   0  0  1  0  0  0  0  0  0  0  0  0
  148.1706  138.0517  155.1983 N   0  0  0  0  0  0  0  0  0  0  0  0
  148.3383  139.2984  155.6627 C   0  0  0  0  0  0  0  0  0  0  0  0
  147.5352  140.2084  155.4607 O   0  0  0  0  0  0  0  0  0  0  0  0
  149.4734  139.4024  156.3762 N   0  0  0  0  0  0  0  0  0  0  0  0
  150.0152  140.5407  157.0346 C   0  0  0  0  0  0  0  0  0  0  0  0
  150.9418  140.3149  158.0741 C   0  0  0  0  0  0  0  0  0  0  0  0
  151.5183  141.4078  158.7532 C   0  0  0  0  0  0  0  0  0  0  0  0
  151.1683  142.7300  158.3854 C   0  0  0  0  0  0  0  0  0  0  0  0
  151.7022  143.8749  159.0156 N   0  0  0  0  0  0  0  0  0  0  0  0
  151.2652  145.2023  158.5973 C   0  0  0  0  0  0  0  0  0  0  0  0
  152.5940  143.7228  160.1581 C   0  0  0  0  0  0  0  0  0  0  0  0
  150.2805  142.8973  157.3749 N   0  3  0  0  0  0  0  0  0  0  0  0
  149.7046  141.8802  156.6983 C   0  0  0  0  0  0  0  0  0  0  0  0
  147.1055  138.2379  152.9972 C   0  0  0  0  0  0  0  0  0  0  0  0
  145.9857  137.7102  152.0844 C   0  0  0  0  0  0  0  0  0  0  0  0
  146.2876  132.4137  150.6784 H   0  0  0  0  0  0  0  0  0  0  0  0
  147.1904  134.0194  150.5529 H   0  0  0  0  0  0  0  0  0  0  0  0
  143.0632  133.7479  150.4508 H   0  0  0  0  0  0  0  0  0  0  0  0
  143.4139  133.6461  152.1811 H   0  0  0  0  0  0  0  0  0  0  0  0
  143.9243  132.3502  151.0986 H   0  0  0  0  0  0  0  0  0  0  0  0
  145.2363  136.1041  150.0242 H   0  0  0  0  0  0  0  0  0  0  0  0
  144.0429  135.9529  151.2964 H   0  0  0  0  0  0  0  0  0  0  0  0
  144.9412  135.8129  153.7520 H   0  0  0  0  0  0  0  0  0  0  0  0
  145.9758  134.5034  153.2151 H   0  0  0  0  0  0  0  0  0  0  0  0
  146.9153  135.5974  155.2372 H   0  0  0  0  0  0  0  0  0  0  0  0
  148.0012  135.7247  153.8744 H   0  0  0  0  0  0  0  0  0  0  0  0
  146.1110  137.9163  154.8738 H   0  0  0  0  0  0  0  0  0  0  0  0
  148.8794  137.3654  155.4130 H   0  0  0  0  0  0  0  0  0  0  0  0
  149.9999  138.5488  156.4916 H   0  0  0  0  0  0  0  0  0  0  0  0
  151.2119  139.3077  158.3563 H   0  0  0  0  0  0  0  0  0  0  0  0
  152.2236  141.2113  159.5467 H   0  0  0  0  0  0  0  0  0  0  0  0
  151.4319  145.3449  157.5291 H   0  0  0  0  0  0  0  0  0  0  0  0
  151.8129  145.9839  159.1239 H   0  0  0  0  0  0  0  0  0  0  0  0
  150.2033  145.3377  158.8047 H   0  0  0  0  0  0  0  0  0  0  0  0
  153.5089  143.2081  159.8635 H   0  0  0  0  0  0  0  0  0  0  0  0
  152.1103  143.1504  160.9504 H   0  0  0  0  0  0  0  0  0  0  0  0
  152.8752  144.6913  160.5723 H   0  0  0  0  0  0  0  0  0  0  0  0
  149.0308  142.1896  155.9144 H   0  0  0  0  0  0  0  0  0  0  0  0
  147.0317  139.3231  153.0786 H   0  0  0  0  0  0  0  0  0  0  0  0
  148.0725  138.0273  152.5377 H   0  0  0  0  0  0  0  0  0  0  0  0
  146.0952  138.1584  151.0966 H   0  0  0  0  0  0  0  0  0  0  0  0
  145.0118  138.0214  152.4655 H   0  0  0  0  0  0  0  0  0  0  0  0
  146.9470  135.9855  151.6342 H   0  0  0  0  0  0  0  0  0  0  0  0
  150.0327  143.8497  157.1059 H   0  0  0  0  0  0  0  0  0  0  0  0
  1  2  2  0  0  0  0
  1 24  1  0  0  0  0
  1 25  1  0  0  0  0
  2  3  1  0  0  0  0
  2  4  1  0  0  0  0
  3 26  1  0  0  0  0
  3 27  1  0  0  0  0
  3 28  1  0  0  0  0
  4  5  1  0  0  0  0
  4 29  1  0  0  0  0
  4 30  1  0  0  0  0
  5 23  1  0  0  0  0
  5  6  1  0  0  0  0
  5 51  1  0  0  0  0
  6  7  1  0  0  0  0
  6 31  1  0  0  0  0
  6 32  1  0  0  0  0
  7  8  1  0  0  0  0
  7 33  1  0  0  0  0
  7 34  1  0  0  0  0
  8  9  1  0  0  0  0
  8 22  1  0  0  0  0
  8 35  1  0  0  0  0
  9 10  1  0  0  0  0
  9 36  1  0  0  0  0
 10 11  2  0  0  0  0
 10 12  1  0  0  0  0
 12 13  1  0  0  0  0
 12 37  1  0  0  0  0
 13 21  1  0  0  0  0
 13 14  2  0  0  0  0
 14 15  1  0  0  0  0
 14 38  1  0  0  0  0
 15 16  2  0  0  0  0
 15 39  1  0  0  0  0
 16 17  1  0  0  0  0
 16 20  1  0  0  0  0
 17 18  1  0  0  0  0
 17 19  1  0  0  0  0
 18 40  1  0  0  0  0
 18 41  1  0  0  0  0
 18 42  1  0  0  0  0
 19 43  1  0  0  0  0
 19 44  1  0  0  0  0
 19 45  1  0  0  0  0
 20 21  2  0  0  0  0
 20 52  1  0  0  0  0
 21 46  1  0  0  0  0
 22 23  1  0  0  0  0
 22 47  1  0  0  0  0
 22 48  1  0  0  0  0
 23 49  1  0  0  0  0
 23 50  1  0  0  0  0
M  CHG  1   5   1
M  CHG  1  20   1
M  END
> <s_m_source_file>
AV-unprocessed.smi

> <i_m_source_file_index>
1055

> <i_lp_mmshare_version>
43012

> <i_f3d_flags>
0

> <s_epik_input>
W0NIMl09QyhbQ0gzXSlbQ0gyXU4xW0NIMl1bQ0gyXVtDSF0oW0NIMl1bQ0gyXTEpW05IXUMoPU8pW05IXWMyW2NIXVtjSF1jKE4oW0NIM10pW0NIM10pbltjSF0y

> <s_epik_cmdline>
J2VwaWtfcHl0aG9uJywgJy1waCcsICc3LjAnLCAnLXRuJywgJzgnLCAnLW1hJywgJzIwMCcsICctbWV0YWxfYmluZGluZycsICctaW1hZScsICc8aW5maWxlLm1hZT4nLCAnLW9tYWUnLCAnPG91dGZpbGUubWFlPic=

> <r_lp_tautomer_probability>
0.999994

> <r_epik_Ionization_Penalty>
0.344238

> <r_epik_Ionization_Penalty_Charging>
0.344219

> <r_epik_Ionization_Penalty_Neutral>
1.87459e-05

> <r_epik_State_Penalty>
0.320654

> <r_epik_Charging_Adjusted_Penalty>
0.664873

> <i_epik_Tot_Q>
2

> <i_epik_Tot_abs_Q>
2

> <r_epik_Metal_State_Penalty>
0.58246

> <b_epik_Metal_Only>
0

> <s_lp_Force_Field>
OPLS_2005

> <r_lp_Energy>
26.1172

> <b_lp_Chiralities_Consistent>
1

> <s_lp_Variant>
AV-unprocessed.smi:1055-1

> <Gold.Version>
5.8.1

> <Gold.Id.Protein>
6NUR|6NUR_protein|mol2

> <Gold.PLP.Fitness>
44.2588

> <Gold.PLP.PLP>
-34.4951

> <Gold.PLP.part.hbond>
-2.0000

> <Gold.PLP.part.metal>
0.0000

> <Gold.PLP.part.buried>
-1.5695

> <Gold.PLP.part.nonpolar>
-31.4111

> <Gold.PLP.part.repulsive>
0.0691

> <Gold.PLP.ligand.clash>
0.0000

> <Gold.PLP.ligand.torsion>
0.2498

> <Gold.PLP.Chemscore.Hbond>
3.3920

> <Gold.PLP.Chemscore.CHOScore>
0.0000

> <Gold.PLP.Chemscore.Metal>
0.0000

> <Gold.Chemscore.Hbonds>
donor molecule, donor type, donor heavy atom, donor atom, acceptor molecule, acceptor atom, score
      L1  H     5    51       P1  7948  1.89
      L1  H    20    52       P1  8028  1.50

> <Gold.PLP.Chemscore.Internal.Correction>
0.0873

> <Gold.Rescore>
     Score         DG    S(hbond)    S(metal)    S(lipo)     H(rot)  DE(clash)    DE(int)     intcor
     15.58     -17.97       1.57        0.00      91.37       1.35       1.16       1.23       ----

> <Gold.Chemscore.Fitness>
15.5828

> <Gold.Chemscore.DG>
-17.9714

> <Gold.Chemscore.ZeroCoef>
-5.4800

> <Gold.Chemscore.Hbond>
1.5714

> <Gold.Chemscore.Metal>
0.0000

> <Gold.Chemscore.Lipo>
91.3684

> <Gold.Chemscore.Internal_Hbond>
0.0000

> <Gold.Chemscore.DEClash>
1.1598

> <Gold.Chemscore.DEInternal>
1.2289

> <Gold.Chemscore.Rot>
1.3465

> <Gold.Chemscore.Internal.Correction>
   9.000000E+99

> <Gold.Chemscore.Hbonds>
donor molecule, donor type, donor heavy atom, donor atom, acceptor molecule, acceptor atom, score
      L1  H     5    51       P1  7948  0.87
      L1  H    20    52       P1  8028  0.65

> <Gold.Chemscore.Hbond.Weighted>
-5.2484

> <Gold.Chemscore.Metal.Weighted>
-0.0000

> <Gold.Chemscore.Lipo.Weighted>
-10.6901

> <Gold.Chemscore.Internal_Hbond.Weighted>
0.0000

> <Gold.Chemscore.DEClash.Weighted>
1.1598

> <Gold.Chemscore.DEInternal.Weighted>
1.2289

> <Gold.Chemscore.Rot.Weighted>
3.4470

> <Gold.Chemscore.Internal.Correction.Weighted>
   9.000000E+99

> <Gold.Protein.RotatedTorsions>
[ 6907 6896 6895 6894 ] final -161.06 input  -60.11 | X-H torsion
[ 7974 7965 7964 7962 ] final  -10.64 input  175.53 | X-H torsion
[ 8008 7997 7996 7995 ] final  154.45 input   59.86 | X-H torsion
[ 10167 10162 10161 10158 ] final    6.26 input  -65.29 | X-H torsion
[ 10718 10713 10712 10709 ] final  128.27 input   66.30 | X-H torsion
[ 10763 10752 10751 10750 ] final  165.50 input  -60.55 | X-H torsion
[ 11005 11000 10999 10996 ] final  161.42 input  -57.11 | X-H torsion

> <Gold.Protein.ActiveResidues>
 VAL166  LYS551  ARG553  GLY616  TRP617  ASP618  TYR619  PRO620  LYS621  CYS622 
 ASP623  PHE694  ASN695  SER759  ASP760  ASP761  ALA762  ILE779  LEU786  VAL792 
 PHE793  MET794  SER795  GLU796  ALA797  LYS798  CYS799  TRP800  GLU811  SER814 

> <Gold.Protein.RotatedAtoms>
  151.3588  133.3897  159.2687 H   0  0  0  0  0  0  0  0  0  0  0  0  # atno 6907 bound_to 6896
  150.9742  134.9111  159.7817 H   0  0  0  0  0  0  0  0  0  0  0  0  # atno 6908 bound_to 6896
  152.5195  134.3550  159.9317 H   0  0  0  0  0  0  0  0  0  0  0  0  # atno 6909 bound_to 6896
  146.2214  140.2794  142.8361 H   0  0  0  0  0  0  0  0  0  0  0  0  # atno 7974 bound_to 7965
  156.2530  140.1966  156.6648 H   0  0  0  0  0  0  0  0  0  0  0  0  # atno 8008 bound_to 7997
  154.6437  140.0580  156.9901 H   0  0  0  0  0  0  0  0  0  0  0  0  # atno 8009 bound_to 7997
  155.1523  140.3252  155.4431 H   0  0  0  0  0  0  0  0  0  0  0  0  # atno 8010 bound_to 7997
  140.6437  143.7712  150.7467 H   0  0  0  0  0  0  0  0  0  0  0  0  # atno 10167 bound_to 10162
  157.5259  131.1098  150.9083 H   0  0  0  0  0  0  0  0  0  0  0  0  # atno 10718 bound_to 10713
  154.3250  135.2755  155.2500 H   0  0  0  0  0  0  0  0  0  0  0  0  # atno 10763 bound_to 10752
  154.4837  135.5851  153.6412 H   0  0  0  0  0  0  0  0  0  0  0  0  # atno 10764 bound_to 10752
  152.9872  135.6117  154.3438 H   0  0  0  0  0  0  0  0  0  0  0  0  # atno 10765 bound_to 10752
  140.2156  134.8235  157.3166 H   0  0  0  0  0  0  0  0  0  0  0  0  # atno 11005 bound_to 11000
  144.9208  140.7866  143.5749 LP  0  0  0  0  0  0  0  0  0  0  0  0  # atno 17320 bound_to 7965
  145.2730  139.1947  143.4831 LP  0  0  0  0  0  0  0  0  0  0  0  0  # atno 17321 bound_to 7965
  140.1349  143.4493  152.2231 LP  0  0  0  0  0  0  0  0  0  0  0  0  # atno 17342 bound_to 10162
  139.5647  144.7428  151.4055 LP  0  0  0  0  0  0  0  0  0  0  0  0  # atno 17343 bound_to 10162
  156.9680  130.5480  149.5289 LP  0  0  0  0  0  0  0  0  0  0  0  0  # atno 17370 bound_to 10713
  156.0386  130.5471  150.8716 LP  0  0  0  0  0  0  0  0  0  0  0  0  # atno 17371 bound_to 10713
  140.1904  134.4378  155.7719 LP  0  0  0  0  0  0  0  0  0  0  0  0  # atno 17394 bound_to 11000
  141.2225  133.7024  156.8018 LP  0  0  0  0  0  0  0  0  0  0  0  0  # atno 17395 bound_to 11000

$$$$
