AV-unprocessed.smi:1291|AV-procd|sdf|5391|dock6
  -GOLD-   22720 4543D 1   1.00000     0.00000
 Structure written by MMmdl.
 43 45  0  0  0  0  0  0  0  0  1 V2000
  152.0395  137.2401  153.8601 O   0  0  0  0  0  0  0  0  0  0  0  0
  150.7807  137.7266  154.2716 C   0  0  0  0  0  0  0  0  0  0  0  0
  150.8900  138.9503  155.1283 C   0  0  0  0  0  0  0  0  0  0  0  0
  150.5723  140.1599  154.6651 N   0  0  0  0  0  0  0  0  0  0  0  0
  150.8406  140.9796  155.7436 C   0  0  0  0  0  0  0  0  0  0  0  0
  150.7138  142.3799  155.8867 C   0  0  0  0  0  0  0  0  0  0  0  0
  151.0592  143.0074  157.1015 C   0  0  0  0  0  0  0  0  0  0  0  0
  151.5358  142.2458  158.1881 C   0  0  0  0  0  0  0  0  0  0  0  0
  151.6686  140.8492  158.0670 C   0  0  0  0  0  0  0  0  0  0  0  0
  151.3205  140.2272  156.8527 C   0  0  0  0  0  0  0  0  0  0  0  0
  151.3299  138.9073  156.4120 N   0  0  0  0  0  0  0  0  0  0  0  0
  151.7449  137.7510  157.1932 C   0  0  0  0  0  0  0  0  0  0  0  0
  150.8696  137.5508  158.4521 C   0  0  2  0  0  0  0  0  0  0  0  0
  151.6376  136.8659  159.4220 O   0  0  0  0  0  0  0  0  0  0  0  0
  149.6042  136.7275  158.1624 C   0  0  0  0  0  0  0  0  0  0  0  0
  149.3257  135.8905  159.2759 O   0  0  0  0  0  0  0  0  0  0  0  0
  148.4757  136.4893  160.2447 C   0  0  0  0  0  0  0  0  0  0  0  0
  147.6324  135.4790  161.0069 C   0  0  0  0  0  0  0  0  0  0  0  0
  147.7344  134.1081  160.6898 C   0  0  0  0  0  0  0  0  0  0  0  0
  146.9639  133.1582  161.3880 C   0  0  0  0  0  0  0  0  0  0  0  0
  146.0897  133.5750  162.4100 C   0  0  0  0  0  0  0  0  0  0  0  0
  145.9889  134.9414  162.7346 C   0  0  0  0  0  0  0  0  0  0  0  0
  146.7586  135.8933  162.0372 C   0  0  0  0  0  0  0  0  0  0  0  0
  146.6476  137.2042  162.3607 F   0  0  0  0  0  0  0  0  0  0  0  0
  151.9918  137.0205  152.9424 H   0  0  0  0  0  0  0  0  0  0  0  0
  150.1952  137.9641  153.3826 H   0  0  0  0  0  0  0  0  0  0  0  0
  150.2385  136.9413  154.7969 H   0  0  0  0  0  0  0  0  0  0  0  0
  150.3516  142.9723  155.0594 H   0  0  0  0  0  0  0  0  0  0  0  0
  150.9590  144.0784  157.1997 H   0  0  0  0  0  0  0  0  0  0  0  0
  151.7995  142.7345  159.1147 H   0  0  0  0  0  0  0  0  0  0  0  0
  152.0352  140.2650  158.8978 H   0  0  0  0  0  0  0  0  0  0  0  0
  151.6968  136.8742  156.5469 H   0  0  0  0  0  0  0  0  0  0  0  0
  152.8015  137.8499  157.4428 H   0  0  0  0  0  0  0  0  0  0  0  0
  150.5810  138.5194  158.8640 H   0  0  0  0  0  0  0  0  0  0  0  0
  151.6294  137.3693  160.2215 H   0  0  0  0  0  0  0  0  0  0  0  0
  148.7561  137.4008  158.0279 H   0  0  0  0  0  0  0  0  0  0  0  0
  149.7128  136.1557  157.2394 H   0  0  0  0  0  0  0  0  0  0  0  0
  149.1059  137.0091  160.9664 H   0  0  0  0  0  0  0  0  0  0  0  0
  147.8564  137.2545  159.7752 H   0  0  0  0  0  0  0  0  0  0  0  0
  148.4033  133.7833  159.9061 H   0  0  0  0  0  0  0  0  0  0  0  0
  147.0436  132.1102  161.1395 H   0  0  0  0  0  0  0  0  0  0  0  0
  145.4974  132.8474  162.9451 H   0  0  0  0  0  0  0  0  0  0  0  0
  145.3196  135.2609  163.5197 H   0  0  0  0  0  0  0  0  0  0  0  0
  1  2  1  0  0  0  0
  1 25  1  0  0  0  0
  2  3  1  0  0  0  0
  2 26  1  0  0  0  0
  2 27  1  0  0  0  0
  3 11  1  0  0  0  0
  3  4  2  0  0  0  0
  4  5  1  0  0  0  0
  5 10  2  0  0  0  0
  5  6  1  0  0  0  0
  6  7  2  0  0  0  0
  6 28  1  0  0  0  0
  7  8  1  0  0  0  0
  7 29  1  0  0  0  0
  8  9  2  0  0  0  0
  8 30  1  0  0  0  0
  9 10  1  0  0  0  0
  9 31  1  0  0  0  0
 10 11  1  0  0  0  0
 11 12  1  0  0  0  0
 12 13  1  0  0  0  0
 12 32  1  0  0  0  0
 12 33  1  0  0  0  0
 13 14  1  0  0  0  0
 13 15  1  0  0  0  0
 13 34  1  0  0  0  0
 14 35  1  0  0  0  0
 15 16  1  0  0  0  0
 15 36  1  0  0  0  0
 15 37  1  0  0  0  0
 16 17  1  0  0  0  0
 17 18  1  0  0  0  0
 17 38  1  0  0  0  0
 17 39  1  0  0  0  0
 18 23  1  0  0  0  0
 18 19  2  0  0  0  0
 19 20  1  0  0  0  0
 19 40  1  0  0  0  0
 20 21  2  0  0  0  0
 20 41  1  0  0  0  0
 21 22  1  0  0  0  0
 21 42  1  0  0  0  0
 22 23  2  0  0  0  0
 22 43  1  0  0  0  0
 23 24  1  0  0  0  0
M  END
> <s_m_source_file>
AV-unprocessed.smi

> <i_m_source_file_index>
1291

> <i_lp_mmshare_version>
43012

> <i_f3d_flags>
0

> <s_epik_input>
W2NIXTFbY0hdW2NIXVtjSF1jKGMxMiluKGMobjIpW0NIMl1bT0hdKVtDSDJdW0NASF0oW09IXSlbQ0gyXU9bQ0gyXWMzW2NIXVtjSF1bY0hdW2NIXWMzRg==

> <s_epik_cmdline>
J2VwaWtfcHl0aG9uJywgJy1waCcsICc3LjAnLCAnLXRuJywgJzgnLCAnLW1hJywgJzIwMCcsICctbWV0YWxfYmluZGluZycsICctaW1hZScsICc8aW5maWxlLm1hZT4nLCAnLW9tYWUnLCAnPG91dGZpbGUubWFlPic=

> <r_epik_Ionization_Penalty>
0.0649918

> <r_epik_Ionization_Penalty_Charging>
0

> <r_epik_Ionization_Penalty_Neutral>
0.0649918

> <r_epik_State_Penalty>
0.0565791

> <r_epik_Charging_Adjusted_Penalty>
0.0565791

> <i_epik_Tot_Q>
0

> <i_epik_Tot_abs_Q>
0

> <r_epik_Metal_State_Penalty>
5.93658e-05

> <b_epik_Metal_Only>
0

> <s_lp_Force_Field>
OPLS_2005

> <r_lp_Energy>
20.1032

> <b_lp_Chiralities_Consistent>
1

> <s_lp_Variant>
AV-unprocessed.smi:1291-1

> <Gold.Version>
5.8.1

> <Gold.Id.Protein>
6NUR|6NUR_protein|mol2

> <Gold.PLP.Fitness>
57.6546

> <Gold.PLP.PLP>
-47.9837

> <Gold.PLP.part.hbond>
-5.0000

> <Gold.PLP.part.metal>
0.0000

> <Gold.PLP.part.buried>
-4.3904

> <Gold.PLP.part.nonpolar>
-37.6330

> <Gold.PLP.part.repulsive>
0.0731

> <Gold.PLP.ligand.clash>
0.0000

> <Gold.PLP.ligand.torsion>
1.3292

> <Gold.PLP.Chemscore.Hbond>
4.0788

> <Gold.PLP.Chemscore.CHOScore>
0.0000

> <Gold.PLP.Chemscore.Metal>
0.0000

> <Gold.Chemscore.Hbonds>
donor molecule, donor type, donor heavy atom, donor atom, acceptor molecule, acceptor atom, score
      L1  H     1    25       P1  7949  1.00
      P1  H  6896  6907       L1    14  0.64
      P1  H  6896  6909       L1    16  0.65
      P1  H  7989  7998       L1     4  1.00
      P1  H 10752 10765       L1     1  0.62

> <Gold.PLP.Chemscore.Internal.Correction>
0.0929

> <Gold.Rescore>
     Score         DG    S(hbond)    S(metal)    S(lipo)     H(rot)  DE(clash)    DE(int)     intcor
     17.91     -19.48       2.64        0.00     117.27       3.33       0.16       1.41       ----

> <Gold.Chemscore.Fitness>
17.9067

> <Gold.Chemscore.DG>
-19.4801

> <Gold.Chemscore.ZeroCoef>
-5.4800

> <Gold.Chemscore.Hbond>
2.6372

> <Gold.Chemscore.Metal>
0.0000

> <Gold.Chemscore.Lipo>
117.2706

> <Gold.Chemscore.Internal_Hbond>
0.0000

> <Gold.Chemscore.DEClash>
0.1616

> <Gold.Chemscore.DEInternal>
1.4118

> <Gold.Chemscore.Rot>
3.3316

> <Gold.Chemscore.Internal.Correction>
   9.000000E+99

> <Gold.Chemscore.Hbonds>
donor molecule, donor type, donor heavy atom, donor atom, acceptor molecule, acceptor atom, score
      L1  H     1    25       P1  7949  0.93
      P1  H  6896  6907       L1    14  0.28
      P1  H  6896  6909       L1    16  0.53
      P1  H  7989  7998       L1     4  0.24
      P1  H 10752 10765       L1     1  0.08

> <Gold.Chemscore.Hbond.Weighted>
-8.8082

> <Gold.Chemscore.Metal.Weighted>
-0.0000

> <Gold.Chemscore.Lipo.Weighted>
-13.7207

> <Gold.Chemscore.Internal_Hbond.Weighted>
0.0000

> <Gold.Chemscore.DEClash.Weighted>
0.1616

> <Gold.Chemscore.DEInternal.Weighted>
1.4118

> <Gold.Chemscore.Rot.Weighted>
8.5288

> <Gold.Chemscore.Internal.Correction.Weighted>
   9.000000E+99

> <Gold.Protein.RotatedTorsions>
[ 6907 6896 6895 6894 ] final   30.60 input  -60.11 | X-H torsion
[ 7974 7965 7964 7962 ] final  159.46 input  175.53 | X-H torsion
[ 8008 7997 7996 7995 ] final -120.67 input   59.86 | X-H torsion
[ 10167 10162 10161 10158 ] final -171.26 input  -65.29 | X-H torsion
[ 10718 10713 10712 10709 ] final  166.55 input   66.30 | X-H torsion
[ 10763 10752 10751 10750 ] final  168.52 input  -60.55 | X-H torsion
[ 11005 11000 10999 10996 ] final   85.76 input  -57.11 | X-H torsion

> <Gold.Protein.ActiveResidues>
 VAL166  LYS551  ARG553  GLY616  TRP617  ASP618  TYR619  PRO620  LYS621  CYS622 
 ASP623  PHE694  ASN695  SER759  ASP760  ASP761  ALA762  ILE779  LEU786  VAL792 
 PHE793  MET794  SER795  GLU796  ALA797  LYS798  CYS799  TRP800  GLU811  SER814 

> <Gold.Protein.RotatedAtoms>
  152.0482  134.9669  160.0574 H   0  0  0  0  0  0  0  0  0  0  0  0  # atno 6907 bound_to 6896
  152.1081  133.4281  159.4626 H   0  0  0  0  0  0  0  0  0  0  0  0  # atno 6908 bound_to 6896
  150.6842  134.2600  159.4589 H   0  0  0  0  0  0  0  0  0  0  0  0  # atno 6909 bound_to 6896
  144.7789  139.7620  143.6267 H   0  0  0  0  0  0  0  0  0  0  0  0  # atno 7974 bound_to 7965
  155.1355  140.0401  157.2785 H   0  0  0  0  0  0  0  0  0  0  0  0  # atno 8008 bound_to 7997
  154.6511  140.2569  155.7186 H   0  0  0  0  0  0  0  0  0  0  0  0  # atno 8009 bound_to 7997
  156.2577  140.2836  156.0945 H   0  0  0  0  0  0  0  0  0  0  0  0  # atno 8010 bound_to 7997
  139.5813  144.1418  152.1518 H   0  0  0  0  0  0  0  0  0  0  0  0  # atno 10167 bound_to 10162
  157.0643  131.0348  151.2635 H   0  0  0  0  0  0  0  0  0  0  0  0  # atno 10718 bound_to 10713
  154.3698  135.2753  155.2273 H   0  0  0  0  0  0  0  0  0  0  0  0  # atno 10763 bound_to 10752
  154.4425  135.5950  153.6142 H   0  0  0  0  0  0  0  0  0  0  0  0  # atno 10764 bound_to 10752
  152.9839  135.6022  154.3927 H   0  0  0  0  0  0  0  0  0  0  0  0  # atno 10765 bound_to 10752
  139.8963  134.8308  156.2626 H   0  0  0  0  0  0  0  0  0  0  0  0  # atno 11005 bound_to 11000
  146.1985  139.5266  142.9758 LP  0  0  0  0  0  0  0  0  0  0  0  0  # atno 17320 bound_to 7965
  145.6106  141.0340  143.1968 LP  0  0  0  0  0  0  0  0  0  0  0  0  # atno 17321 bound_to 7965
  140.0972  144.5571  150.7014 LP  0  0  0  0  0  0  0  0  0  0  0  0  # atno 17342 bound_to 10162
  140.7090  143.2490  151.4638 LP  0  0  0  0  0  0  0  0  0  0  0  0  # atno 17343 bound_to 10162
  157.4930  130.7833  149.7526 LP  0  0  0  0  0  0  0  0  0  0  0  0  # atno 17370 bound_to 10713
  155.9969  130.3903  150.2760 LP  0  0  0  0  0  0  0  0  0  0  0  0  # atno 17371 bound_to 10713
  141.0152  133.7072  156.1177 LP  0  0  0  0  0  0  0  0  0  0  0  0  # atno 17394 bound_to 11000
  140.7311  134.4254  157.5566 LP  0  0  0  0  0  0  0  0  0  0  0  0  # atno 17395 bound_to 11000

$$$$
