AV-unprocessed.smi:527|AV-procd|sdf|2815|dock2
  -GOLD-   2262023293D 1   1.00000     0.00000
 Structure written by MMmdl.
 42 43  0  0  0  0  0  0  0  0  1 V2000
  143.2413  134.0452  162.0870 C   0  0  0  0  0  0  0  0  0  0  0  0
  144.6885  134.5238  161.8733 C   0  0  2  0  0  0  0  0  0  0  0  0
  145.6679  133.5297  162.5309 C   0  0  0  0  0  0  0  0  0  0  0  0
  147.1322  133.9463  162.3403 C   0  0  0  0  0  0  0  0  0  0  0  0
  147.3725  135.3651  162.8747 C   0  0  0  0  0  0  0  0  0  0  0  0
  146.4180  136.3896  162.2285 C   0  0  1  0  0  0  0  0  0  0  0  0
  146.7494  136.5957  160.8176 N   0  0  0  0  0  0  0  0  0  0  0  0
  147.9836  136.7556  160.3189 C   0  0  0  0  0  0  0  0  0  0  0  0
  148.9871  136.8956  161.0215 O   0  0  0  0  0  0  0  0  0  0  0  0
  147.9625  136.7352  158.9730 N   0  0  0  0  0  0  0  0  0  0  0  0
  149.0104  136.5975  158.1341 C   0  0  0  0  0  0  0  0  0  0  0  0
  150.1871  136.4823  158.4812 O   0  0  0  0  0  0  0  0  0  0  0  0
  148.6713  136.5976  156.6409 C   0  0  0  0  0  0  0  0  0  0  0  0
  149.3594  137.6640  155.9353 N   0  0  0  0  0  0  0  0  0  0  0  0
  149.1742  138.0518  154.6140 C   0  0  0  0  0  0  0  0  0  0  0  0
  150.0446  139.0932  154.3842 C   0  0  0  0  0  0  0  0  0  0  0  0
  150.7698  139.3624  155.5425 N   0  0  0  0  0  0  0  0  0  0  0  0
  150.3089  138.4785  156.4179 C   0  0  0  0  0  0  0  0  0  0  0  0
  144.9350  135.9665  162.3978 C   0  0  1  0  0  0  0  0  0  0  0  0
  143.9826  137.0066  161.7733 C   0  0  0  0  0  0  0  0  0  0  0  0
  142.9579  134.0953  163.1386 H   0  0  0  0  0  0  0  0  0  0  0  0
  143.1196  133.0118  161.7608 H   0  0  0  0  0  0  0  0  0  0  0  0
  142.5287  134.6413  161.5175 H   0  0  0  0  0  0  0  0  0  0  0  0
  144.8769  134.5129  160.7989 H   0  0  0  0  0  0  0  0  0  0  0  0
  145.4514  133.4522  163.5973 H   0  0  0  0  0  0  0  0  0  0  0  0
  145.5213  132.5319  162.1156 H   0  0  0  0  0  0  0  0  0  0  0  0
  147.7873  133.2421  162.8539 H   0  0  0  0  0  0  0  0  0  0  0  0
  147.3956  133.8962  161.2830 H   0  0  0  0  0  0  0  0  0  0  0  0
  147.2232  135.3694  163.9551 H   0  0  0  0  0  0  0  0  0  0  0  0
  148.4121  135.6535  162.7139 H   0  0  0  0  0  0  0  0  0  0  0  0
  146.5501  137.3419  162.7456 H   0  0  0  0  0  0  0  0  0  0  0  0
  145.9727  136.6112  160.1730 H   0  0  0  0  0  0  0  0  0  0  0  0
  147.0552  136.8189  158.5391 H   0  0  0  0  0  0  0  0  0  0  0  0
  148.9491  135.6388  156.2013 H   0  0  0  0  0  0  0  0  0  0  0  0
  147.5966  136.7197  156.4978 H   0  0  0  0  0  0  0  0  0  0  0  0
  148.4603  137.5676  153.9640 H   0  0  0  0  0  0  0  0  0  0  0  0
  150.2034  139.6648  153.4816 H   0  0  0  0  0  0  0  0  0  0  0  0
  150.6734  138.4182  157.4331 H   0  0  0  0  0  0  0  0  0  0  0  0
  144.7313  135.9609  163.4698 H   0  0  0  0  0  0  0  0  0  0  0  0
  144.0203  136.9851  160.6838 H   0  0  0  0  0  0  0  0  0  0  0  0
  144.2412  138.0157  162.0948 H   0  0  0  0  0  0  0  0  0  0  0  0
  142.9494  136.8355  162.0734 H   0  0  0  0  0  0  0  0  0  0  0  0
  1  2  1  0  0  0  0
  1 21  1  0  0  0  0
  1 22  1  0  0  0  0
  1 23  1  0  0  0  0
  2 19  1  0  0  0  0
  2  3  1  0  0  0  0
  2 24  1  0  0  0  0
  3  4  1  0  0  0  0
  3 25  1  0  0  0  0
  3 26  1  0  0  0  0
  4  5  1  0  0  0  0
  4 27  1  0  0  0  0
  4 28  1  0  0  0  0
  5  6  1  0  0  0  0
  5 29  1  0  0  0  0
  5 30  1  0  0  0  0
  6  7  1  0  0  0  0
  6 19  1  0  0  0  0
  6 31  1  0  0  0  0
  7  8  1  0  0  0  0
  7 32  1  0  0  0  0
  8  9  2  0  0  0  0
  8 10  1  0  0  0  0
 10 11  1  0  0  0  0
 10 33  1  0  0  0  0
 11 12  2  0  0  0  0
 11 13  1  0  0  0  0
 13 14  1  0  0  0  0
 13 34  1  0  0  0  0
 13 35  1  0  0  0  0
 14 18  1  0  0  0  0
 14 15  1  0  0  0  0
 15 16  2  0  0  0  0
 15 36  1  0  0  0  0
 16 17  1  0  0  0  0
 16 37  1  0  0  0  0
 17 18  2  0  0  0  0
 18 38  1  0  0  0  0
 19 20  1  0  0  0  0
 19 39  1  0  0  0  0
 20 40  1  0  0  0  0
 20 41  1  0  0  0  0
 20 42  1  0  0  0  0
M  END
> <s_m_source_file>
AV-unprocessed.smi

> <i_m_source_file_index>
527

> <i_lp_mmshare_version>
43012

> <i_f3d_flags>
0

> <s_epik_input>
W0NIM11bQ0BASF0xW0NIMl1bQ0gyXVtDSDJdW0NASF0oW0NASF0xW0NIM10pW05IXUMoPU8pW05IXUMoPU8pW0NIMl1uMltjSF1bY0hdbltjSF0y

> <s_epik_cmdline>
J2VwaWtfcHl0aG9uJywgJy1waCcsICc3LjAnLCAnLXRuJywgJzgnLCAnLW1hJywgJzIwMCcsICctbWV0YWxfYmluZGluZycsICctaW1hZScsICc8aW5maWxlLm1hZT4nLCAnLW9tYWUnLCAnPG91dGZpbGUubWFlPic=

> <r_lp_tautomer_probability>
1

> <r_epik_Ionization_Penalty>
0.172132

> <r_epik_Ionization_Penalty_Charging>
0.172105

> <r_epik_Ionization_Penalty_Neutral>
2.71747e-05

> <r_epik_State_Penalty>
0.161503

> <r_epik_Charging_Adjusted_Penalty>
0.333607

> <i_epik_Tot_Q>
0

> <i_epik_Tot_abs_Q>
0

> <r_epik_Metal_State_Penalty>
0.124763

> <b_epik_Metal_Only>
0

> <s_lp_Force_Field>
OPLS_2005

> <r_lp_Energy>
14.2901

> <b_lp_Chiralities_Consistent>
1

> <s_lp_Variant>
AV-unprocessed.smi:527-1

> <Gold.Version>
5.8.1

> <Gold.Id.Protein>
6NUR|6NUR_protein|mol2

> <Gold.PLP.Fitness>
41.2185

> <Gold.PLP.PLP>
-29.8827

> <Gold.PLP.part.hbond>
-1.9781

> <Gold.PLP.part.metal>
0.0000

> <Gold.PLP.part.buried>
-4.3017

> <Gold.PLP.part.nonpolar>
-24.7807

> <Gold.PLP.part.repulsive>
0.2849

> <Gold.PLP.ligand.clash>
0.0000

> <Gold.PLP.ligand.torsion>
0.2833

> <Gold.PLP.Chemscore.Hbond>
1.9600

> <Gold.PLP.Chemscore.CHOScore>
2.0000

> <Gold.PLP.Chemscore.Metal>
0.0000

> <Gold.Chemscore.Hbonds>
donor molecule, donor type, donor heavy atom, donor atom, acceptor molecule, acceptor atom, score
      P1  H  6896  6907       L1    12  0.80
      P1  H  6931  6943       L1     9  0.96
      L1  C    15    36       P1  7948  0.93
      L1  C    16    37       P1  7957  1.00

> <Gold.PLP.Chemscore.Internal.Correction>
0.0224

> <Gold.Rescore>
     Score         DG    S(hbond)    S(metal)    S(lipo)     H(rot)  DE(clash)    DE(int)     intcor
     12.12     -15.77       1.95        0.00      68.79       1.66       0.07       3.57       ----

> <Gold.Chemscore.Fitness>
12.1237

> <Gold.Chemscore.DG>
-15.7684

> <Gold.Chemscore.ZeroCoef>
-5.4800

> <Gold.Chemscore.Hbond>
1.9453

> <Gold.Chemscore.Metal>
0.0000

> <Gold.Chemscore.Lipo>
68.7868

> <Gold.Chemscore.Internal_Hbond>
0.0000

> <Gold.Chemscore.DEClash>
0.0724

> <Gold.Chemscore.DEInternal>
3.5724

> <Gold.Chemscore.Rot>
1.6629

> <Gold.Chemscore.Internal.Correction>
   9.000000E+99

> <Gold.Chemscore.Hbonds>
donor molecule, donor type, donor heavy atom, donor atom, acceptor molecule, acceptor atom, score
      P1  H  6896  6907       L1    12  0.76
      P1  H  6931  6943       L1     9  0.86

> <Gold.Chemscore.Hbond.Weighted>
-6.4973

> <Gold.Chemscore.Metal.Weighted>
-0.0000

> <Gold.Chemscore.Lipo.Weighted>
-8.0481

> <Gold.Chemscore.Internal_Hbond.Weighted>
0.0000

> <Gold.Chemscore.DEClash.Weighted>
0.0724

> <Gold.Chemscore.DEInternal.Weighted>
3.5724

> <Gold.Chemscore.Rot.Weighted>
4.2569

> <Gold.Chemscore.Internal.Correction.Weighted>
   9.000000E+99

> <Gold.Protein.RotatedTorsions>
[ 6907 6896 6895 6894 ] final  -43.80 input  -60.11 | X-H torsion
[ 7974 7965 7964 7962 ] final   66.17 input  175.53 | X-H torsion
[ 8008 7997 7996 7995 ] final  -43.56 input   59.86 | X-H torsion
[ 10167 10162 10161 10158 ] final   10.28 input  -65.29 | X-H torsion
[ 10718 10713 10712 10709 ] final -179.50 input   66.30 | X-H torsion
[ 10763 10752 10751 10750 ] final   58.23 input  -60.55 | X-H torsion
[ 11005 11000 10999 10996 ] final  144.43 input  -57.11 | X-H torsion

> <Gold.Protein.ActiveResidues>
 VAL166  LYS551  ARG553  GLY616  TRP617  ASP618  TYR619  PRO620  LYS621  CYS622 
 ASP623  PHE694  ASN695  SER759  ASP760  ASP761  ALA762  ILE779  LEU786  VAL792 
 PHE793  MET794  SER795  GLU796  ALA797  LYS798  CYS799  TRP800  GLU811  SER814 

> <Gold.Protein.RotatedAtoms>
  150.9399  134.8809  159.7605 H   0  0  0  0  0  0  0  0  0  0  0  0  # atno 6907 bound_to 6896
  152.5075  134.3956  159.9409 H   0  0  0  0  0  0  0  0  0  0  0  0  # atno 6908 bound_to 6896
  151.3978  133.3727  159.2763 H   0  0  0  0  0  0  0  0  0  0  0  0  # atno 6909 bound_to 6896
  145.8298  139.3132  143.0994 H   0  0  0  0  0  0  0  0  0  0  0  0  # atno 7974 bound_to 7965
  154.3997  140.1444  156.3539 H   0  0  0  0  0  0  0  0  0  0  0  0  # atno 8008 bound_to 7997
  155.8243  140.3468  155.5512 H   0  0  0  0  0  0  0  0  0  0  0  0  # atno 8009 bound_to 7997
  155.8255  140.0904  157.1814 H   0  0  0  0  0  0  0  0  0  0  0  0  # atno 8010 bound_to 7997
  140.6204  143.8217  150.7168 H   0  0  0  0  0  0  0  0  0  0  0  0  # atno 10167 bound_to 10162
  156.8600  130.9748  151.3084 H   0  0  0  0  0  0  0  0  0  0  0  0  # atno 10718 bound_to 10713
  152.9866  135.5614  154.5518 H   0  0  0  0  0  0  0  0  0  0  0  0  # atno 10763 bound_to 10752
  154.4954  135.2794  155.1466 H   0  0  0  0  0  0  0  0  0  0  0  0  # atno 10764 bound_to 10752
  154.2918  135.6325  153.5441 H   0  0  0  0  0  0  0  0  0  0  0  0  # atno 10765 bound_to 10752
  140.0632  134.9193  157.1219 H   0  0  0  0  0  0  0  0  0  0  0  0  # atno 11005 bound_to 11000
  145.9583  140.8855  143.0223 LP  0  0  0  0  0  0  0  0  0  0  0  0  # atno 17320 bound_to 7965
  144.6740  140.1777  143.7408 LP  0  0  0  0  0  0  0  0  0  0  0  0  # atno 17321 bound_to 7965
  140.1806  143.4118  152.1936 LP  0  0  0  0  0  0  0  0  0  0  0  0  # atno 17342 bound_to 10162
  139.5434  144.7277  151.4662 LP  0  0  0  0  0  0  0  0  0  0  0  0  # atno 17343 bound_to 10162
  157.6255  130.8688  149.9183 LP  0  0  0  0  0  0  0  0  0  0  0  0  # atno 17370 bound_to 10713
  156.0782  130.3676  150.0634 LP  0  0  0  0  0  0  0  0  0  0  0  0  # atno 17371 bound_to 10713
  140.3739  134.2360  155.7176 LP  0  0  0  0  0  0  0  0  0  0  0  0  # atno 17394 bound_to 11000
  141.1982  133.8042  157.0595 LP  0  0  0  0  0  0  0  0  0  0  0  0  # atno 17395 bound_to 11000

$$$$
