AV-unprocessed.smi:1579|AV-procd|sdf|6356|dock3
  -GOLD-   22720 6573D 1   1.00000     0.00000
 Structure written by MMmdl.
 47 48  0  0  0  0  0  0  0  0  2 V2000
  148.5485  135.1782  155.7213 C   0  0  0  0  0  0  0  0  0  0  0  0
  149.0917  136.5087  155.2749 C   0  0  0  0  0  0  0  0  0  0  0  0
  148.2737  137.2905  154.6499 N   0  0  0  0  0  0  0  0  0  0  0  0
  148.6696  138.5332  154.1952 N   0  0  0  0  0  0  0  0  0  0  0  0
  147.6075  139.2761  153.5033 C   0  0  0  0  0  0  0  0  0  0  0  0
  146.9453  138.4531  152.3764 C   0  0  2  0  0  0  0  0  0  0  0  0
  146.2957  139.3667  151.5141 O   0  0  0  0  0  0  0  0  0  0  0  0
  145.9128  137.4262  152.8940 C   0  0  0  0  0  0  0  0  0  0  0  0
  146.0146  136.1025  152.2266 N   0  3  2  0  0  0  0  0  0  0  0  0
  145.0705  135.9825  151.0856 C   0  0  0  0  0  0  0  0  0  0  0  0
  145.2789  134.6626  150.3218 C   0  0  0  0  0  0  0  0  0  0  0  0
  145.1688  133.4340  151.2422 C   0  0  2  0  0  0  0  0  0  0  0  0
  143.7188  133.1296  151.6583 C   0  0  0  0  0  0  0  0  0  0  0  0
  146.1094  133.6148  152.4472 C   0  0  0  0  0  0  0  0  0  0  0  0
  145.8840  134.9568  153.1667 C   0  0  0  0  0  0  0  0  0  0  0  0
  149.9193  139.0557  154.3569 C   0  0  0  0  0  0  0  0  0  0  0  0
  150.2265  140.1784  153.9539 O   0  0  0  0  0  0  0  0  0  0  0  0
  150.8414  138.1649  155.0647 C   0  0  0  0  0  0  0  0  0  0  0  0
  152.1607  138.6749  155.2556 C   0  0  0  0  0  0  0  0  0  0  0  0
  153.2259  139.0927  155.4299 N   0  0  0  0  0  0  0  0  0  0  0  0
  150.4648  136.9413  155.5126 C   0  0  0  0  0  0  0  0  0  0  0  0
  151.3836  135.9803  156.2544 C   0  0  0  0  0  0  0  0  0  0  0  0
  149.1174  134.3598  155.2798 H   0  0  0  0  0  0  0  0  0  0  0  0
  147.5050  135.0462  155.4315 H   0  0  0  0  0  0  0  0  0  0  0  0
  148.6031  135.0818  156.8057 H   0  0  0  0  0  0  0  0  0  0  0  0
  146.8496  139.6408  154.1991 H   0  0  0  0  0  0  0  0  0  0  0  0
  148.0509  140.1785  153.0771 H   0  0  0  0  0  0  0  0  0  0  0  0
  147.7301  137.9608  151.8033 H   0  0  0  0  0  0  0  0  0  0  0  0
  145.4936  139.6566  151.9203 H   0  0  0  0  0  0  0  0  0  0  0  0
  146.0184  137.2744  153.9684 H   0  0  0  0  0  0  0  0  0  0  0  0
  144.9144  137.8402  152.7436 H   0  0  0  0  0  0  0  0  0  0  0  0
  144.0445  136.0592  151.4485 H   0  0  0  0  0  0  0  0  0  0  0  0
  145.2216  136.8150  150.3972 H   0  0  0  0  0  0  0  0  0  0  0  0
  144.5632  134.5869  149.5025 H   0  0  0  0  0  0  0  0  0  0  0  0
  146.2668  134.6747  149.8590 H   0  0  0  0  0  0  0  0  0  0  0  0
  145.5168  132.5669  150.6788 H   0  0  0  0  0  0  0  0  0  0  0  0
  143.2732  133.9440  152.2289 H   0  0  0  0  0  0  0  0  0  0  0  0
  143.6701  132.2315  152.2746 H   0  0  0  0  0  0  0  0  0  0  0  0
  143.0900  132.9588  150.7840 H   0  0  0  0  0  0  0  0  0  0  0  0
  145.9879  132.7885  153.1486 H   0  0  0  0  0  0  0  0  0  0  0  0
  147.1436  133.5675  152.1030 H   0  0  0  0  0  0  0  0  0  0  0  0
  146.6109  135.0423  153.9730 H   0  0  0  0  0  0  0  0  0  0  0  0
  144.8990  134.9763  153.6348 H   0  0  0  0  0  0  0  0  0  0  0  0
  152.3859  136.3867  156.3868 H   0  0  0  0  0  0  0  0  0  0  0  0
  151.4812  135.0435  155.7051 H   0  0  0  0  0  0  0  0  0  0  0  0
  150.9874  135.7583  157.2458 H   0  0  0  0  0  0  0  0  0  0  0  0
  146.9408  136.0547  151.8269 H   0  0  0  0  0  0  0  0  0  0  0  0
  1  2  1  0  0  0  0
  1 23  1  0  0  0  0
  1 24  1  0  0  0  0
  1 25  1  0  0  0  0
  2 21  1  0  0  0  0
  2  3  2  0  0  0  0
  3  4  1  0  0  0  0
  4  5  1  0  0  0  0
  4 16  1  0  0  0  0
  5  6  1  0  0  0  0
  5 26  1  0  0  0  0
  5 27  1  0  0  0  0
  6  7  1  0  0  0  0
  6  8  1  0  0  0  0
  6 28  1  0  0  0  0
  7 29  1  0  0  0  0
  8  9  1  0  0  0  0
  8 30  1  0  0  0  0
  8 31  1  0  0  0  0
  9 15  1  0  0  0  0
  9 10  1  0  0  0  0
  9 47  1  0  0  0  0
 10 11  1  0  0  0  0
 10 32  1  0  0  0  0
 10 33  1  0  0  0  0
 11 12  1  0  0  0  0
 11 34  1  0  0  0  0
 11 35  1  0  0  0  0
 12 13  1  0  0  0  0
 12 14  1  0  0  0  0
 12 36  1  0  0  0  0
 13 37  1  0  0  0  0
 13 38  1  0  0  0  0
 13 39  1  0  0  0  0
 14 15  1  0  0  0  0
 14 40  1  0  0  0  0
 14 41  1  0  0  0  0
 15 42  1  0  0  0  0
 15 43  1  0  0  0  0
 16 17  2  0  0  0  0
 16 18  1  0  0  0  0
 18 19  1  0  0  0  0
 18 21  2  0  0  0  0
 19 20  3  0  0  0  0
 21 22  1  0  0  0  0
 22 44  1  0  0  0  0
 22 45  1  0  0  0  0
 22 46  1  0  0  0  0
M  CHG  1   9   1
M  END
> <s_m_source_file>
AV-unprocessed.smi

> <i_m_source_file_index>
1579

> <i_lp_mmshare_version>
43012

> <i_f3d_flags>
0

> <s_epik_input>
TiNDYyhjMVtDSDNdKWMoPU8pbihuYzFbQ0gzXSlbQ0gyXVtDQEhdKFtPSF0pW0NIMl1OMltDSDJdW0NIMl1bQ0hdKFtDSDNdKVtDSDJdW0NIMl0y

> <s_epik_cmdline>
J2VwaWtfcHl0aG9uJywgJy1waCcsICc3LjAnLCAnLXRuJywgJzgnLCAnLW1hJywgJzIwMCcsICctbWV0YWxfYmluZGluZycsICctaW1hZScsICc8aW5maWxlLm1hZT4nLCAnLW9tYWUnLCAnPG91dGZpbGUubWFlPic=

> <r_epik_Ionization_Penalty>
0.00136816

> <r_epik_Ionization_Penalty_Charging>
0.00136813

> <r_epik_Ionization_Penalty_Neutral>
3.19884e-08

> <r_epik_State_Penalty>
0.000910892

> <r_epik_Charging_Adjusted_Penalty>
0.00227902

> <i_epik_Tot_Q>
1

> <i_epik_Tot_abs_Q>
1

> <r_epik_Metal_State_Penalty>
-0

> <b_epik_Metal_Only>
0

> <s_lp_Force_Field>
OPLS_2005

> <r_lp_Energy>
38.3008

> <b_lp_Chiralities_Consistent>
1

> <s_lp_Variant>
AV-unprocessed.smi:1579-3

> <Gold.Version>
5.8.1

> <Gold.Id.Protein>
6NUR|6NUR_protein|mol2

> <Gold.PLP.Fitness>
44.6904

> <Gold.PLP.PLP>
-32.6070

> <Gold.PLP.part.hbond>
-4.8809

> <Gold.PLP.part.metal>
0.0000

> <Gold.PLP.part.buried>
-3.2119

> <Gold.PLP.part.nonpolar>
-26.8986

> <Gold.PLP.part.repulsive>
1.2872

> <Gold.PLP.ligand.clash>
0.0000

> <Gold.PLP.ligand.torsion>
1.3832

> <Gold.PLP.Chemscore.Hbond>
4.9440

> <Gold.PLP.Chemscore.CHOScore>
0.0000

> <Gold.PLP.Chemscore.Metal>
0.0000

> <Gold.Chemscore.Hbonds>
donor molecule, donor type, donor heavy atom, donor atom, acceptor molecule, acceptor atom, score
      L1  H     7    29       P1 10175  0.96
      L1  H     9    47       P1  7948  2.00
      P1  H  7989  7998       L1    17  0.90
      P1  H  7997  8009       L1    20  1.00

> <Gold.PLP.Chemscore.Internal.Correction>
0.0178

> <Gold.Rescore>
     Score         DG    S(hbond)    S(metal)    S(lipo)     H(rot)  DE(clash)    DE(int)     intcor
     17.27     -20.92       3.90        0.00      68.21       2.17       1.35       2.30       ----

> <Gold.Chemscore.Fitness>
17.2686

> <Gold.Chemscore.DG>
-20.9243

> <Gold.Chemscore.ZeroCoef>
-5.4800

> <Gold.Chemscore.Hbond>
3.8989

> <Gold.Chemscore.Metal>
0.0000

> <Gold.Chemscore.Lipo>
68.2145

> <Gold.Chemscore.Internal_Hbond>
0.0000

> <Gold.Chemscore.DEClash>
1.3528

> <Gold.Chemscore.DEInternal>
2.3029

> <Gold.Chemscore.Rot>
2.1715

> <Gold.Chemscore.Internal.Correction>
   9.000000E+99

> <Gold.Chemscore.Hbonds>
donor molecule, donor type, donor heavy atom, donor atom, acceptor molecule, acceptor atom, score
      L1  H     7    29       P1 10175  0.75
      L1  H     9    47       P1  7948  0.95
      P1  H  7989  7998       L1    17  0.87
      P1  H  7997  8009       L1    20  0.99

> <Gold.Chemscore.Hbond.Weighted>
-13.0223

> <Gold.Chemscore.Metal.Weighted>
-0.0000

> <Gold.Chemscore.Lipo.Weighted>
-7.9811

> <Gold.Chemscore.Internal_Hbond.Weighted>
0.0000

> <Gold.Chemscore.DEClash.Weighted>
1.3528

> <Gold.Chemscore.DEInternal.Weighted>
2.3029

> <Gold.Chemscore.Rot.Weighted>
5.5591

> <Gold.Chemscore.Internal.Correction.Weighted>
   9.000000E+99

> <Gold.Protein.RotatedTorsions>
[ 6907 6896 6895 6894 ] final  -54.43 input  -60.11 | X-H torsion
[ 7974 7965 7964 7962 ] final -178.67 input  175.53 | X-H torsion
[ 8008 7997 7996 7995 ] final -141.09 input   59.86 | X-H torsion
[ 10167 10162 10161 10158 ] final -130.25 input  -65.29 | X-H torsion
[ 10718 10713 10712 10709 ] final  -35.96 input   66.30 | X-H torsion
[ 10763 10752 10751 10750 ] final   96.69 input  -60.55 | X-H torsion
[ 11005 11000 10999 10996 ] final -170.07 input  -57.11 | X-H torsion

> <Gold.Protein.ActiveResidues>
 VAL166  LYS551  ARG553  GLY616  TRP617  ASP618  TYR619  PRO620  LYS621  CYS622 
 ASP623  PHE694  ASN695  SER759  ASP760  ASP761  ALA762  ILE779  LEU786  VAL792 
 PHE793  MET794  SER795  GLU796  ALA797  LYS798  CYS799  TRP800  GLU811  SER814 

> <Gold.Protein.RotatedAtoms>
  150.8339  134.7603  159.6875 H   0  0  0  0  0  0  0  0  0  0  0  0  # atno 6907 bound_to 6896
  152.4439  134.5532  159.9882 H   0  0  0  0  0  0  0  0  0  0  0  0  # atno 6908 bound_to 6896
  151.5687  133.3355  159.3021 H   0  0  0  0  0  0  0  0  0  0  0  0  # atno 6909 bound_to 6896
  144.7132  140.0834  143.6424 H   0  0  0  0  0  0  0  0  0  0  0  0  # atno 7974 bound_to 7965
  155.4721  140.0554  157.2978 H   0  0  0  0  0  0  0  0  0  0  0  0  # atno 8008 bound_to 7997
  154.4694  140.2033  155.9987 H   0  0  0  0  0  0  0  0  0  0  0  0  # atno 8009 bound_to 7997
  156.1030  140.3216  155.7972 H   0  0  0  0  0  0  0  0  0  0  0  0  # atno 8010 bound_to 7997
  139.9313  143.6269  152.2529 H   0  0  0  0  0  0  0  0  0  0  0  0  # atno 10167 bound_to 10162
  156.3324  130.4281  149.7860 H   0  0  0  0  0  0  0  0  0  0  0  0  # atno 10718 bound_to 10713
  153.2679  135.4209  155.0959 H   0  0  0  0  0  0  0  0  0  0  0  0  # atno 10763 bound_to 10752
  154.8445  135.3465  154.6285 H   0  0  0  0  0  0  0  0  0  0  0  0  # atno 10764 bound_to 10752
  153.6705  135.7044  153.5206 H   0  0  0  0  0  0  0  0  0  0  0  0  # atno 10765 bound_to 10752
  140.5236  134.5685  157.5055 H   0  0  0  0  0  0  0  0  0  0  0  0  # atno 11005 bound_to 11000
  145.9682  139.2850  143.1114 LP  0  0  0  0  0  0  0  0  0  0  0  0  # atno 17320 bound_to 7965
  145.9145  140.9157  143.0437 LP  0  0  0  0  0  0  0  0  0  0  0  0  # atno 17321 bound_to 7965
  139.6780  144.7657  151.1660 LP  0  0  0  0  0  0  0  0  0  0  0  0  # atno 17342 bound_to 10162
  140.7636  143.5766  150.8939 LP  0  0  0  0  0  0  0  0  0  0  0  0  # atno 17343 bound_to 10162
  156.5128  130.8179  151.3175 LP  0  0  0  0  0  0  0  0  0  0  0  0  # atno 17370 bound_to 10713
  157.7433  130.9908  150.2579 LP  0  0  0  0  0  0  0  0  0  0  0  0  # atno 17371 bound_to 10713
  139.9592  134.7481  156.0273 LP  0  0  0  0  0  0  0  0  0  0  0  0  # atno 17394 bound_to 11000
  141.1320  133.6584  156.3492 LP  0  0  0  0  0  0  0  0  0  0  0  0  # atno 17395 bound_to 11000

$$$$
