AV-unprocessed.smi:265|AV-procd|sdf|2018|dock8
  -GOLD-   2262021223D 1   1.00000     0.00000
 Structure written by MMmdl.
 52 56  0  0  0  0  0  0  0  0  1 V2000
  152.5303  141.8852  159.6863 C   0  0  0  0  0  0  0  0  0  0  0  0
  151.7547  143.2088  159.5981 C   0  0  1  0  0  0  0  0  0  0  0  0
  152.6376  144.2509  160.0073 O   0  0  0  0  0  0  0  0  0  0  0  0
  152.3182  145.4349  159.2980 C   0  0  0  0  0  0  0  0  0  0  0  0
  152.0033  144.9090  157.9065 C   0  0  0  0  0  0  0  0  0  0  0  0
  151.2344  143.6223  158.1923 C   0  0  2  0  0  0  0  0  0  0  0  0
  149.8620  143.9551  158.3243 O   0  0  0  0  0  0  0  0  0  0  0  0
  151.3617  142.5591  157.0699 C   0  0  0  0  0  0  0  0  0  0  0  0
  150.6298  141.3325  157.3482 N   0  0  0  0  0  0  0  0  0  0  0  0
  149.2622  141.1768  157.3580 C   0  0  0  0  0  0  0  0  0  0  0  0
  148.8409  139.9738  157.6366 N   0  0  0  0  0  0  0  0  0  0  0  0
  150.0062  139.2453  157.8442 C   0  0  0  0  0  0  0  0  0  0  0  0
  150.2802  137.8883  158.1758 C   0  0  0  0  0  0  0  0  0  0  0  0
  149.3000  136.9757  158.3940 N   0  0  0  0  0  0  0  0  0  0  0  0
  149.1888  135.8542  157.4547 C   0  0  0  0  0  0  0  0  0  0  0  0
  147.8453  135.1182  157.6189 C   0  0  0  0  0  0  0  0  0  0  0  0
  147.6504  134.7069  159.0842 C   0  0  2  0  0  0  0  0  0  0  0  0
  146.3801  134.1141  159.3086 O   0  0  0  0  0  0  0  0  0  0  0  0
  146.2291  133.5781  160.6279 C   0  0  0  0  0  0  0  0  0  0  0  0
  146.6962  134.5550  161.7283 C   0  0  0  0  0  0  0  0  0  0  0  0
  146.4041  134.3397  162.9022 O   0  0  0  0  0  0  0  0  0  0  0  0
  147.4544  135.6026  161.3661 N   0  0  0  0  0  0  0  0  0  0  0  0
  147.7170  135.9552  159.9776 C   0  0  1  0  0  0  0  0  0  0  0  0
  149.0754  136.6505  159.8043 C   0  0  0  0  0  0  0  0  0  0  0  0
  151.5856  137.5201  158.2766 N   0  0  0  0  0  0  0  0  0  0  0  0
  152.5567  138.4174  158.0828 C   0  0  0  0  0  0  0  0  0  0  0  0
  152.4476  139.7125  157.7810 N   0  0  0  0  0  0  0  0  0  0  0  0
  151.1411  140.0855  157.6640 C   0  0  0  0  0  0  0  0  0  0  0  0
  148.4342  133.9960  159.3558 H   0  0  0  0  0  0  0  0  0  0  0  0
  146.9314  136.6512  159.6773 H   0  0  0  0  0  0  0  0  0  0  0  0
  151.9073  141.0375  159.4009 H   0  0  0  0  0  0  0  0  0  0  0  0
  152.8715  141.7080  160.7063 H   0  0  0  0  0  0  0  0  0  0  0  0
  153.4115  141.8940  159.0443 H   0  0  0  0  0  0  0  0  0  0  0  0
  150.9311  143.1719  160.3137 H   0  0  0  0  0  0  0  0  0  0  0  0
  151.4462  145.9129  159.7470 H   0  0  0  0  0  0  0  0  0  0  0  0
  153.1459  146.1443  159.3045 H   0  0  0  0  0  0  0  0  0  0  0  0
  151.4588  145.6234  157.2875 H   0  0  0  0  0  0  0  0  0  0  0  0
  152.9427  144.6800  157.4025 H   0  0  0  0  0  0  0  0  0  0  0  0
  149.5609  144.3113  157.5024 H   0  0  0  0  0  0  0  0  0  0  0  0
  150.9964  142.9552  156.1222 H   0  0  0  0  0  0  0  0  0  0  0  0
  152.4090  142.2977  156.9130 H   0  0  0  0  0  0  0  0  0  0  0  0
  148.5826  141.9889  157.1440 H   0  0  0  0  0  0  0  0  0  0  0  0
  149.2807  136.2153  156.4293 H   0  0  0  0  0  0  0  0  0  0  0  0
  150.0127  135.1601  157.6269 H   0  0  0  0  0  0  0  0  0  0  0  0
  147.0284  135.7688  157.3039 H   0  0  0  0  0  0  0  0  0  0  0  0
  147.8150  134.2412  156.9720 H   0  0  0  0  0  0  0  0  0  0  0  0
  145.1832  133.3147  160.7876 H   0  0  0  0  0  0  0  0  0  0  0  0
  146.8091  132.6583  160.7100 H   0  0  0  0  0  0  0  0  0  0  0  0
  147.7935  136.2280  162.0828 H   0  0  0  0  0  0  0  0  0  0  0  0
  149.8796  135.9976  160.1468 H   0  0  0  0  0  0  0  0  0  0  0  0
  149.1078  137.5421  160.4296 H   0  0  0  0  0  0  0  0  0  0  0  0
  153.5649  138.0444  158.1864 H   0  0  0  0  0  0  0  0  0  0  0  0
  1  2  1  0  0  0  0
  1 31  1  0  0  0  0
  1 32  1  0  0  0  0
  1 33  1  0  0  0  0
  2  6  1  0  0  0  0
  2  3  1  0  0  0  0
  2 34  1  0  0  0  0
  3  4  1  0  0  0  0
  4  5  1  0  0  0  0
  4 35  1  0  0  0  0
  4 36  1  0  0  0  0
  5  6  1  0  0  0  0
  5 37  1  0  0  0  0
  5 38  1  0  0  0  0
  6  7  1  0  0  0  0
  6  8  1  0  0  0  0
  7 39  1  0  0  0  0
  8  9  1  0  0  0  0
  8 40  1  0  0  0  0
  8 41  1  0  0  0  0
  9 28  1  0  0  0  0
  9 10  1  0  0  0  0
 10 11  2  0  0  0  0
 10 42  1  0  0  0  0
 11 12  1  0  0  0  0
 12 28  2  0  0  0  0
 12 13  1  0  0  0  0
 13 14  1  0  0  0  0
 13 25  2  0  0  0  0
 14 24  1  0  0  0  0
 14 15  1  0  0  0  0
 15 16  1  0  0  0  0
 15 43  1  0  0  0  0
 15 44  1  0  0  0  0
 16 17  1  0  0  0  0
 16 45  1  0  0  0  0
 16 46  1  0  0  0  0
 17 29  1  0  0  0  0
 17 23  1  0  0  0  0
 17 18  1  0  0  0  0
 18 19  1  0  0  0  0
 19 20  1  0  0  0  0
 19 47  1  0  0  0  0
 19 48  1  0  0  0  0
 20 21  2  0  0  0  0
 20 22  1  0  0  0  0
 22 23  1  0  0  0  0
 22 49  1  0  0  0  0
 23 30  1  0  0  0  0
 23 24  1  0  0  0  0
 24 50  1  0  0  0  0
 24 51  1  0  0  0  0
 25 26  1  0  0  0  0
 26 27  2  0  0  0  0
 26 52  1  0  0  0  0
 27 28  1  0  0  0  0
M  END
> <s_m_source_file>
AV-unprocessed.smi

> <i_m_source_file_index>
265

> <i_lp_mmshare_version>
43012

> <i_f3d_flags>
0

> <s_epik_input>
W0NIMl0xW0NIMl1PW0NAQEhdKFtDSDNdKVtDQEBdMShbT0hdKVtDSDJdbihbY0hdbjIpYyhjMjMpbltjSF1uYzNOKFtDSDJdW0NIMl00KVtDSDJdW0NAQEhdKFtDQEhdNDUpW05IXUMoPU8pW0NIMl1PNQ==

> <s_epik_cmdline>
J2VwaWtfcHl0aG9uJywgJy1waCcsICc3LjAnLCAnLXRuJywgJzgnLCAnLW1hJywgJzIwMCcsICctbWV0YWxfYmluZGluZycsICctaW1hZScsICc8aW5maWxlLm1hZT4nLCAnLW9tYWUnLCAnPG91dGZpbGUubWFlPic=

> <r_lp_tautomer_probability>
1

> <r_epik_Ionization_Penalty>
0.00221504

> <r_epik_Ionization_Penalty_Charging>
0

> <r_epik_Ionization_Penalty_Neutral>
0.00221504

> <r_epik_State_Penalty>
-0

> <r_epik_Charging_Adjusted_Penalty>
0

> <i_epik_Tot_Q>
0

> <i_epik_Tot_abs_Q>
0

> <r_epik_Metal_State_Penalty>
-0

> <b_epik_Metal_Only>
0

> <s_lp_Force_Field>
OPLS_2005

> <r_lp_Energy>
44.0648

> <b_lp_Chiralities_Consistent>
1

> <s_lp_Variant>
AV-unprocessed.smi:265-4

> <Gold.Version>
5.8.1

> <Gold.Id.Protein>
6NUR|6NUR_protein|mol2

> <Gold.PLP.Fitness>
45.9600

> <Gold.PLP.PLP>
-41.6073

> <Gold.PLP.part.hbond>
-3.4423

> <Gold.PLP.part.metal>
0.0000

> <Gold.PLP.part.buried>
-7.0502

> <Gold.PLP.part.nonpolar>
-30.3277

> <Gold.PLP.part.repulsive>
0.1346

> <Gold.PLP.ligand.clash>
0.0000

> <Gold.PLP.ligand.torsion>
0.3408

> <Gold.PLP.Chemscore.Hbond>
1.5363

> <Gold.PLP.Chemscore.CHOScore>
0.0000

> <Gold.PLP.Chemscore.Metal>
0.0000

> <Gold.Chemscore.Hbonds>
donor molecule, donor type, donor heavy atom, donor atom, acceptor molecule, acceptor atom, score
      L1  H     7    39       P1  8028  0.80
      P1  H  7997  8009       L1    27  0.46

> <Gold.PLP.Chemscore.Internal.Correction>
0.4256

> <Gold.Rescore>
     Score         DG    S(hbond)    S(metal)    S(lipo)     H(rot)  DE(clash)    DE(int)     intcor
     11.92     -16.45       1.61        0.00      96.91       2.25       1.83       2.71       ----

> <Gold.Chemscore.Fitness>
11.9201

> <Gold.Chemscore.DG>
-16.4550

> <Gold.Chemscore.ZeroCoef>
-5.4800

> <Gold.Chemscore.Hbond>
1.6120

> <Gold.Chemscore.Metal>
0.0000

> <Gold.Chemscore.Lipo>
96.9115

> <Gold.Chemscore.Internal_Hbond>
0.0000

> <Gold.Chemscore.DEClash>
1.8277

> <Gold.Chemscore.DEInternal>
2.7072

> <Gold.Chemscore.Rot>
2.2453

> <Gold.Chemscore.Internal.Correction>
   9.000000E+99

> <Gold.Chemscore.Hbonds>
donor molecule, donor type, donor heavy atom, donor atom, acceptor molecule, acceptor atom, score
      L1  H     7    39       P1  8028  0.12
      P1  H  7997  8009       L1    27  0.12

> <Gold.Chemscore.Hbond.Weighted>
-5.3842

> <Gold.Chemscore.Metal.Weighted>
-0.0000

> <Gold.Chemscore.Lipo.Weighted>
-11.3386

> <Gold.Chemscore.Internal_Hbond.Weighted>
0.0000

> <Gold.Chemscore.DEClash.Weighted>
1.8277

> <Gold.Chemscore.DEInternal.Weighted>
2.7072

> <Gold.Chemscore.Rot.Weighted>
5.7479

> <Gold.Chemscore.Internal.Correction.Weighted>
   9.000000E+99

> <Gold.Protein.RotatedTorsions>
[ 6907 6896 6895 6894 ] final -158.20 input  -60.11 | X-H torsion
[ 7974 7965 7964 7962 ] final  -94.31 input  175.53 | X-H torsion
[ 8008 7997 7996 7995 ] final  165.85 input   59.86 | X-H torsion
[ 10167 10162 10161 10158 ] final  -96.67 input  -65.29 | X-H torsion
[ 10718 10713 10712 10709 ] final  -53.33 input   66.30 | X-H torsion
[ 10763 10752 10751 10750 ] final -123.17 input  -60.55 | X-H torsion
[ 11005 11000 10999 10996 ] final  -28.59 input  -57.11 | X-H torsion

> <Gold.Protein.ActiveResidues>
 VAL166  LYS551  ARG553  GLY616  TRP617  ASP618  TYR619  PRO620  LYS621  CYS622 
 ASP623  PHE694  ASN695  SER759  ASP760  ASP761  ALA762  ILE779  LEU786  VAL792 
 PHE793  MET794  SER795  GLU796  ALA797  LYS798  CYS799  TRP800  GLU811  SER814 

> <Gold.Protein.RotatedAtoms>
  151.3145  133.4066  159.2649 H   0  0  0  0  0  0  0  0  0  0  0  0  # atno 6907 bound_to 6896
  151.0086  134.9379  159.8004 H   0  0  0  0  0  0  0  0  0  0  0  0  # atno 6908 bound_to 6896
  152.5294  134.3110  159.9166 H   0  0  0  0  0  0  0  0  0  0  0  0  # atno 6909 bound_to 6896
  145.3749  140.9510  143.2426 H   0  0  0  0  0  0  0  0  0  0  0  0  # atno 7974 bound_to 7965
  156.1766  140.1659  156.8350 H   0  0  0  0  0  0  0  0  0  0  0  0  # atno 8008 bound_to 7997
  154.5314  140.0756  156.8385 H   0  0  0  0  0  0  0  0  0  0  0  0  # atno 8009 bound_to 7997
  155.3399  140.3384  155.4241 H   0  0  0  0  0  0  0  0  0  0  0  0  # atno 8010 bound_to 7997
  140.2913  143.3219  152.0342 H   0  0  0  0  0  0  0  0  0  0  0  0  # atno 10167 bound_to 10162
  156.1544  130.4150  149.9892 H   0  0  0  0  0  0  0  0  0  0  0  0  # atno 10718 bound_to 10713
  154.8703  135.4107  154.2900 H   0  0  0  0  0  0  0  0  0  0  0  0  # atno 10763 bound_to 10752
  153.3778  135.7010  153.6594 H   0  0  0  0  0  0  0  0  0  0  0  0  # atno 10764 bound_to 10752
  153.5429  135.3644  155.2698 H   0  0  0  0  0  0  0  0  0  0  0  0  # atno 10765 bound_to 10752
  140.9222  133.7391  156.0817 H   0  0  0  0  0  0  0  0  0  0  0  0  # atno 11005 bound_to 11000
  144.8549  139.5264  143.6839 LP  0  0  0  0  0  0  0  0  0  0  0  0  # atno 17320 bound_to 7965
  146.2868  139.7027  142.9189 LP  0  0  0  0  0  0  0  0  0  0  0  0  # atno 17321 bound_to 7965
  139.4937  144.6522  151.6650 LP  0  0  0  0  0  0  0  0  0  0  0  0  # atno 17342 bound_to 10162
  140.5729  144.0078  150.6226 LP  0  0  0  0  0  0  0  0  0  0  0  0  # atno 17343 bound_to 10162
  156.7740  130.9197  151.3645 LP  0  0  0  0  0  0  0  0  0  0  0  0  # atno 17370 bound_to 10713
  157.6683  130.9028  149.9983 LP  0  0  0  0  0  0  0  0  0  0  0  0  # atno 17371 bound_to 10713
  140.7973  134.3549  157.5449 LP  0  0  0  0  0  0  0  0  0  0  0  0  # atno 17394 bound_to 11000
  139.8778  134.9176  156.3183 LP  0  0  0  0  0  0  0  0  0  0  0  0  # atno 17395 bound_to 11000

$$$$
