AV-unprocessed.smi:2623|AV-procd|sdf|10230|dock9
  -GOLD-   2272014233D 1   1.00000     0.00000
 Structure written by MMmdl.
 40 42  0  0  0  0  0  0  0  0  1 V2000
  151.7089  137.2862  153.9947 O   0  0  0  0  0  0  0  0  0  0  0  0
  150.5533  137.6725  154.7113 C   0  0  0  0  0  0  0  0  0  0  0  0
  150.7257  138.9271  155.5206 C   0  0  0  0  0  0  0  0  0  0  0  0
  150.9843  140.1179  154.9743 N   0  0  0  0  0  0  0  0  0  0  0  0
  151.0455  140.9528  156.0722 C   0  0  0  0  0  0  0  0  0  0  0  0
  151.2874  142.3429  156.1567 C   0  0  0  0  0  0  0  0  0  0  0  0
  151.3003  142.9905  157.4094 C   0  0  0  0  0  0  0  0  0  0  0  0
  151.0724  142.2590  158.5929 C   0  0  0  0  0  0  0  0  0  0  0  0
  150.8291  140.8733  158.5310 C   0  0  0  0  0  0  0  0  0  0  0  0
  150.8171  140.2315  157.2778 C   0  0  0  0  0  0  0  0  0  0  0  0
  150.6150  138.9150  156.8730 N   0  0  0  0  0  0  0  0  0  0  0  0
  150.3373  137.7772  157.7401 C   0  0  0  0  0  0  0  0  0  0  0  0
  148.9811  137.8931  158.4667 C   0  0  1  0  0  0  0  0  0  0  0  0
  147.9208  137.7777  157.5384 O   0  0  0  0  0  0  0  0  0  0  0  0
  148.7986  136.8156  159.5454 C   0  0  0  0  0  0  0  0  0  0  0  0
  147.8585  137.2775  160.5064 O   0  0  0  0  0  0  0  0  0  0  0  0
  147.1036  136.3428  161.1819 C   0  0  0  0  0  0  0  0  0  0  0  0
  147.6647  135.0582  161.3364 C   0  0  0  0  0  0  0  0  0  0  0  0
  146.9652  134.0424  162.0162 C   0  0  0  0  0  0  0  0  0  0  0  0
  145.6905  134.3034  162.5513 C   0  0  0  0  0  0  0  0  0  0  0  0
  145.1174  135.5800  162.4037 C   0  0  0  0  0  0  0  0  0  0  0  0
  145.8171  136.5957  161.7230 C   0  0  0  0  0  0  0  0  0  0  0  0
  151.4716  137.1527  153.0901 H   0  0  0  0  0  0  0  0  0  0  0  0
  149.7388  137.8163  154.0009 H   0  0  0  0  0  0  0  0  0  0  0  0
  150.2716  136.8522  155.3706 H   0  0  0  0  0  0  0  0  0  0  0  0
  151.4634  142.9116  155.2557 H   0  0  0  0  0  0  0  0  0  0  0  0
  151.4867  144.0533  157.4623 H   0  0  0  0  0  0  0  0  0  0  0  0
  151.0850  142.7624  159.5485 H   0  0  0  0  0  0  0  0  0  0  0  0
  150.6554  140.3109  159.4361 H   0  0  0  0  0  0  0  0  0  0  0  0
  150.3662  136.8684  157.1379 H   0  0  0  0  0  0  0  0  0  0  0  0
  151.1487  137.6804  158.4617 H   0  0  0  0  0  0  0  0  0  0  0  0
  148.8953  138.8743  158.9337 H   0  0  0  0  0  0  0  0  0  0  0  0
  147.5108  138.6236  157.4431 H   0  0  0  0  0  0  0  0  0  0  0  0
  148.4250  135.8990  159.0850 H   0  0  0  0  0  0  0  0  0  0  0  0
  149.7563  136.5915  160.0187 H   0  0  0  0  0  0  0  0  0  0  0  0
  148.6431  134.8489  160.9293 H   0  0  0  0  0  0  0  0  0  0  0  0
  147.4076  133.0634  162.1276 H   0  0  0  0  0  0  0  0  0  0  0  0
  145.1533  133.5260  163.0744 H   0  0  0  0  0  0  0  0  0  0  0  0
  144.1389  135.7818  162.8142 H   0  0  0  0  0  0  0  0  0  0  0  0
  145.3444  137.5615  161.6317 H   0  0  0  0  0  0  0  0  0  0  0  0
  1  2  1  0  0  0  0
  1 23  1  0  0  0  0
  2  3  1  0  0  0  0
  2 24  1  0  0  0  0
  2 25  1  0  0  0  0
  3 11  1  0  0  0  0
  3  4  2  0  0  0  0
  4  5  1  0  0  0  0
  5 10  2  0  0  0  0
  5  6  1  0  0  0  0
  6  7  2  0  0  0  0
  6 26  1  0  0  0  0
  7  8  1  0  0  0  0
  7 27  1  0  0  0  0
  8  9  2  0  0  0  0
  8 28  1  0  0  0  0
  9 10  1  0  0  0  0
  9 29  1  0  0  0  0
 10 11  1  0  0  0  0
 11 12  1  0  0  0  0
 12 13  1  0  0  0  0
 12 30  1  0  0  0  0
 12 31  1  0  0  0  0
 13 14  1  0  0  0  0
 13 15  1  0  0  0  0
 13 32  1  0  0  0  0
 14 33  1  0  0  0  0
 15 16  1  0  0  0  0
 15 34  1  0  0  0  0
 15 35  1  0  0  0  0
 16 17  1  0  0  0  0
 17 22  1  0  0  0  0
 17 18  2  0  0  0  0
 18 19  1  0  0  0  0
 18 36  1  0  0  0  0
 19 20  2  0  0  0  0
 19 37  1  0  0  0  0
 20 21  1  0  0  0  0
 20 38  1  0  0  0  0
 21 22  2  0  0  0  0
 21 39  1  0  0  0  0
 22 40  1  0  0  0  0
M  END
> <s_m_source_file>
AV-unprocessed.smi

> <i_m_source_file_index>
2623

> <i_lp_mmshare_version>
43012

> <i_f3d_flags>
0

> <s_epik_input>
W2NIXTFbY0hdW2NIXVtjSF1jKGMxMiluKGMobjIpW0NIMl1bT0hdKVtDSDJdW0NASF0oW09IXSlbQ0gyXU9jM1tjSF1bY0hdW2NIXVtjSF1bY0hdMw==

> <s_epik_cmdline>
J2VwaWtfcHl0aG9uJywgJy1waCcsICc3LjAnLCAnLXRuJywgJzgnLCAnLW1hJywgJzIwMCcsICctbWV0YWxfYmluZGluZycsICctaW1hZScsICc8aW5maWxlLm1hZT4nLCAnLW9tYWUnLCAnPG91dGZpbGUubWFlPic=

> <r_lp_tautomer_probability>
1

> <r_epik_Ionization_Penalty>
0.0583159

> <r_epik_Ionization_Penalty_Charging>
0

> <r_epik_Ionization_Penalty_Neutral>
0.0583159

> <r_epik_State_Penalty>
0.0503525

> <r_epik_Charging_Adjusted_Penalty>
0.0503525

> <i_epik_Tot_Q>
0

> <i_epik_Tot_abs_Q>
0

> <r_epik_Metal_State_Penalty>
5.25517e-05

> <b_epik_Metal_Only>
0

> <s_lp_Force_Field>
OPLS_2005

> <r_lp_Energy>
15.201

> <b_lp_Chiralities_Consistent>
1

> <s_lp_Variant>
AV-unprocessed.smi:2623-2

> <Gold.Version>
5.8.1

> <Gold.Id.Protein>
6NUR|6NUR_protein|mol2

> <Gold.PLP.Fitness>
50.7986

> <Gold.PLP.PLP>
-38.7637

> <Gold.PLP.part.hbond>
-5.0000

> <Gold.PLP.part.metal>
0.0000

> <Gold.PLP.part.buried>
-7.4472

> <Gold.PLP.part.nonpolar>
-26.3305

> <Gold.PLP.part.repulsive>
0.0486

> <Gold.PLP.ligand.clash>
0.0000

> <Gold.PLP.ligand.torsion>
0.8568

> <Gold.PLP.Chemscore.Hbond>
4.5520

> <Gold.PLP.Chemscore.CHOScore>
0.0000

> <Gold.PLP.Chemscore.Metal>
0.0000

> <Gold.Chemscore.Hbonds>
donor molecule, donor type, donor heavy atom, donor atom, acceptor molecule, acceptor atom, score
      L1  H     1    23       P1  7949  1.00
      P1  H  6931  6943       L1    16  0.67
      P1  H  6934  6947       L1    16  0.82
      P1  H  7989  7998       L1     4  1.00
      P1  H 10752 10765       L1     1  0.91

> <Gold.PLP.Chemscore.Internal.Correction>
0.0925

> <Gold.Rescore>
     Score         DG    S(hbond)    S(metal)    S(lipo)     H(rot)  DE(clash)    DE(int)     intcor
     17.06     -18.17       2.59        0.00     101.06       3.04       0.24       0.88       ----

> <Gold.Chemscore.Fitness>
17.0570

> <Gold.Chemscore.DG>
-18.1742

> <Gold.Chemscore.ZeroCoef>
-5.4800

> <Gold.Chemscore.Hbond>
2.5872

> <Gold.Chemscore.Metal>
0.0000

> <Gold.Chemscore.Lipo>
101.0631

> <Gold.Chemscore.Internal_Hbond>
0.0000

> <Gold.Chemscore.DEClash>
0.2415

> <Gold.Chemscore.DEInternal>
0.8757

> <Gold.Chemscore.Rot>
3.0358

> <Gold.Chemscore.Internal.Correction>
   9.000000E+99

> <Gold.Chemscore.Hbonds>
donor molecule, donor type, donor heavy atom, donor atom, acceptor molecule, acceptor atom, score
      L1  H     1    23       P1  7949  0.82
      P1  H  6931  6943       L1    16  0.16
      P1  H  6934  6947       L1    16  0.57
      P1  H  7989  7998       L1     4  0.85
      P1  H 10752 10765       L1     1  0.25

> <Gold.Chemscore.Hbond.Weighted>
-8.6414

> <Gold.Chemscore.Metal.Weighted>
-0.0000

> <Gold.Chemscore.Lipo.Weighted>
-11.8244

> <Gold.Chemscore.Internal_Hbond.Weighted>
0.0000

> <Gold.Chemscore.DEClash.Weighted>
0.2415

> <Gold.Chemscore.DEInternal.Weighted>
0.8757

> <Gold.Chemscore.Rot.Weighted>
7.7716

> <Gold.Chemscore.Internal.Correction.Weighted>
   9.000000E+99

> <Gold.Protein.RotatedTorsions>
[ 6907 6896 6895 6894 ] final   25.72 input  -60.11 | X-H torsion
[ 7974 7965 7964 7962 ] final   97.63 input  175.53 | X-H torsion
[ 8008 7997 7996 7995 ] final -150.28 input   59.86 | X-H torsion
[ 10167 10162 10161 10158 ] final -178.25 input  -65.29 | X-H torsion
[ 10718 10713 10712 10709 ] final  175.04 input   66.30 | X-H torsion
[ 10763 10752 10751 10750 ] final  166.00 input  -60.55 | X-H torsion
[ 11005 11000 10999 10996 ] final   65.46 input  -57.11 | X-H torsion

> <Gold.Protein.ActiveResidues>
 VAL166  LYS551  ARG553  GLY616  TRP617  ASP618  TYR619  PRO620  LYS621  CYS622 
 ASP623  PHE694  ASN695  SER759  ASP760  ASP761  ALA762  ILE779  LEU786  VAL792 
 PHE793  MET794  SER795  GLU796  ALA797  LYS798  CYS799  TRP800  GLU811  SER814 

> <Gold.Protein.RotatedAtoms>
  151.9768  135.0049  160.0555 H   0  0  0  0  0  0  0  0  0  0  0  0  # atno 6907 bound_to 6896
  152.1733  133.4653  159.4928 H   0  0  0  0  0  0  0  0  0  0  0  0  # atno 6908 bound_to 6896
  150.6905  134.1843  159.4303 H   0  0  0  0  0  0  0  0  0  0  0  0  # atno 6909 bound_to 6896
  145.4229  139.2319  143.3186 H   0  0  0  0  0  0  0  0  0  0  0  0  # atno 7974 bound_to 7965
  155.6210  140.0681  157.2678 H   0  0  0  0  0  0  0  0  0  0  0  0  # atno 8008 bound_to 7997
  154.4229  140.1784  156.1420 H   0  0  0  0  0  0  0  0  0  0  0  0  # atno 8009 bound_to 7997
  156.0009  140.3336  155.6848 H   0  0  0  0  0  0  0  0  0  0  0  0  # atno 8010 bound_to 7997
  139.5441  144.2282  152.0954 H   0  0  0  0  0  0  0  0  0  0  0  0  # atno 10167 bound_to 10162
  156.9407  131.0000  151.2969 H   0  0  0  0  0  0  0  0  0  0  0  0  # atno 10718 bound_to 10713
  154.3325  135.2754  155.2464 H   0  0  0  0  0  0  0  0  0  0  0  0  # atno 10763 bound_to 10752
  154.4770  135.5868  153.6366 H   0  0  0  0  0  0  0  0  0  0  0  0  # atno 10764 bound_to 10752
  152.9865  135.6102  154.3518 H   0  0  0  0  0  0  0  0  0  0  0  0  # atno 10765 bound_to 10752
  139.9893  134.6617  156.0120 H   0  0  0  0  0  0  0  0  0  0  0  0  # atno 11005 bound_to 11000
  146.2647  140.4956  142.8839 LP  0  0  0  0  0  0  0  0  0  0  0  0  # atno 17320 bound_to 7965
  144.8233  140.6587  143.6338 LP  0  0  0  0  0  0  0  0  0  0  0  0  # atno 17321 bound_to 7965
  140.1766  144.4885  150.6551 LP  0  0  0  0  0  0  0  0  0  0  0  0  # atno 17342 bound_to 10162
  140.6683  143.2276  151.5688 LP  0  0  0  0  0  0  0  0  0  0  0  0  # atno 17343 bound_to 10162
  157.5787  130.8361  149.8491 LP  0  0  0  0  0  0  0  0  0  0  0  0  # atno 17370 bound_to 10713
  156.0406  130.3740  150.1446 LP  0  0  0  0  0  0  0  0  0  0  0  0  # atno 17371 bound_to 10713
  141.1552  133.6543  156.4138 LP  0  0  0  0  0  0  0  0  0  0  0  0  # atno 17394 bound_to 11000
  140.4940  134.6548  157.5222 LP  0  0  0  0  0  0  0  0  0  0  0  0  # atno 17395 bound_to 11000

$$$$
