AV-unprocessed.smi:794|AV-procd|sdf|3761|dock6
  -GOLD-   22720 1193D 1   1.00000     0.00000
 Structure written by MMmdl.
 41 43  0  0  0  0  0  0  0  0  1 V2000
  147.6993  136.7728  163.0475 C   0  0  0  0  0  0  0  0  0  0  0  0
  147.6537  136.3043  161.6254 C   0  0  0  0  0  0  0  0  0  0  0  0
  147.9159  137.2088  160.5925 N   0  0  0  0  0  0  0  0  0  0  0  0
  147.8338  136.6386  159.3864 C   0  0  0  0  0  0  0  0  0  0  0  0
  148.0473  137.3218  158.1605 N   0  0  0  0  0  0  0  0  0  0  0  0
  147.1949  138.1217  157.4961 C   0  0  0  0  0  0  0  0  0  0  0  0
  146.0572  138.4142  157.8658 O   0  0  0  0  0  0  0  0  0  0  0  0
  147.7398  138.5733  156.3579 N   0  0  0  0  0  0  0  0  0  0  0  0
  147.0678  139.4547  155.4055 C   0  0  1  0  0  0  0  0  0  0  0  0
  147.1155  140.9493  155.8105 C   0  0  1  0  0  0  0  0  0  0  0  0
  148.5578  141.4084  156.1158 C   0  0  0  0  0  0  0  0  0  0  0  0
  149.2167  141.3967  154.7238 C   0  0  0  0  0  0  0  0  0  0  0  0
  148.0616  140.9567  153.8036 C   0  0  2  0  0  0  0  0  0  0  0  0
  146.8687  141.6320  154.4715 C   0  0  0  0  0  0  0  0  0  0  0  0
  147.7756  139.4516  154.0258 C   0  0  2  0  0  0  0  0  0  0  0  0
  146.9133  138.8141  152.9188 C   0  0  0  0  0  0  0  0  0  0  0  0
  147.6723  138.6401  151.7407 O   0  0  0  0  0  0  0  0  0  0  0  0
  147.4267  134.9321  159.4411 S   0  0  0  0  0  0  0  0  0  0  0  0
  147.3676  135.0330  161.1836 C   0  0  0  0  0  0  0  0  0  0  0  0
  147.0390  133.8346  162.0105 C   0  0  0  0  0  0  0  0  0  0  0  0
  148.2747  136.0878  163.6701 H   0  0  0  0  0  0  0  0  0  0  0  0
  146.6960  136.8404  163.4686 H   0  0  0  0  0  0  0  0  0  0  0  0
  148.1603  137.7575  163.1332 H   0  0  0  0  0  0  0  0  0  0  0  0
  148.9497  137.1737  157.7336 H   0  0  0  0  0  0  0  0  0  0  0  0
  148.6816  138.2894  156.1314 H   0  0  0  0  0  0  0  0  0  0  0  0
  146.0269  139.1438  155.2919 H   0  0  0  0  0  0  0  0  0  0  0  0
  146.4020  141.2110  156.5925 H   0  0  0  0  0  0  0  0  0  0  0  0
  148.5569  142.4201  156.5235 H   0  0  0  0  0  0  0  0  0  0  0  0
  149.0764  140.7711  156.8323 H   0  0  0  0  0  0  0  0  0  0  0  0
  149.5657  142.3953  154.4578 H   0  0  0  0  0  0  0  0  0  0  0  0
  150.0711  140.7209  154.6718 H   0  0  0  0  0  0  0  0  0  0  0  0
  148.2185  141.2306  152.7599 H   0  0  0  0  0  0  0  0  0  0  0  0
  145.9086  141.3719  154.0236 H   0  0  0  0  0  0  0  0  0  0  0  0
  146.9551  142.7193  154.5159 H   0  0  0  0  0  0  0  0  0  0  0  0
  148.7181  138.9028  154.0761 H   0  0  0  0  0  0  0  0  0  0  0  0
  146.5538  137.8361  153.2403 H   0  0  0  0  0  0  0  0  0  0  0  0
  146.0360  139.4211  152.6952 H   0  0  0  0  0  0  0  0  0  0  0  0
  148.2796  139.3604  151.6651 H   0  0  0  0  0  0  0  0  0  0  0  0
  146.2472  134.0621  162.7244 H   0  0  0  0  0  0  0  0  0  0  0  0
  147.9129  133.5012  162.5704 H   0  0  0  0  0  0  0  0  0  0  0  0
  146.7001  133.0053  161.3892 H   0  0  0  0  0  0  0  0  0  0  0  0
  1  2  1  0  0  0  0
  1 21  1  0  0  0  0
  1 22  1  0  0  0  0
  1 23  1  0  0  0  0
  2 19  2  0  0  0  0
  2  3  1  0  0  0  0
  3  4  2  0  0  0  0
  4  5  1  0  0  0  0
  4 18  1  0  0  0  0
  5  6  1  0  0  0  0
  5 24  1  0  0  0  0
  6  7  2  0  0  0  0
  6  8  1  0  0  0  0
  8  9  1  0  0  0  0
  8 25  1  0  0  0  0
  9 15  1  0  0  0  0
  9 10  1  0  0  0  0
  9 26  1  0  0  0  0
 10 14  1  0  0  0  0
 10 11  1  0  0  0  0
 10 27  1  0  0  0  0
 11 12  1  0  0  0  0
 11 28  1  0  0  0  0
 11 29  1  0  0  0  0
 12 13  1  0  0  0  0
 12 30  1  0  0  0  0
 12 31  1  0  0  0  0
 13 14  1  0  0  0  0
 13 15  1  0  0  0  0
 13 32  1  0  0  0  0
 14 33  1  0  0  0  0
 14 34  1  0  0  0  0
 15 16  1  0  0  0  0
 15 35  1  0  0  0  0
 16 17  1  0  0  0  0
 16 36  1  0  0  0  0
 16 37  1  0  0  0  0
 17 38  1  0  0  0  0
 18 19  1  0  0  0  0
 19 20  1  0  0  0  0
 20 39  1  0  0  0  0
 20 40  1  0  0  0  0
 20 41  1  0  0  0  0
M  END
> <s_m_source_file>
AV-unprocessed.smi

> <i_m_source_file_index>
794

> <i_lp_mmshare_version>
43012

> <i_f3d_flags>
0

> <s_epik_input>
W0NIM11jMW5jKHNjMVtDSDNdKVtOSF1DKD1PKVtOSF1bQ0BIXShbQ0BASF0yMylbQ0BIXShbQ0gyXVtPSF0pW0NAQEhdKFtDSDJdMylbQ0gyXVtDSDJdMg==

> <s_epik_cmdline>
J2VwaWtfcHl0aG9uJywgJy1waCcsICc3LjAnLCAnLXRuJywgJzgnLCAnLW1hJywgJzIwMCcsICctbWV0YWxfYmluZGluZycsICctaW1hZScsICc8aW5maWxlLm1hZT4nLCAnLW9tYWUnLCAnPG91dGZpbGUubWFlPic=

> <r_lp_tautomer_probability>
0.999

> <r_epik_Ionization_Penalty>
0.000713029

> <r_epik_Ionization_Penalty_Charging>
0

> <r_epik_Ionization_Penalty_Neutral>
0.000713029

> <r_epik_State_Penalty>
0.000177984

> <r_epik_Charging_Adjusted_Penalty>
0.000177984

> <i_epik_Tot_Q>
0

> <i_epik_Tot_abs_Q>
0

> <r_epik_Metal_State_Penalty>
-0

> <b_epik_Metal_Only>
0

> <s_lp_Force_Field>
OPLS_2005

> <r_lp_Energy>
47.7468

> <b_lp_Chiralities_Consistent>
1

> <s_lp_Variant>
AV-unprocessed.smi:794-6

> <Gold.Version>
5.8.1

> <Gold.Id.Protein>
6NUR|6NUR_protein|mol2

> <Gold.PLP.Fitness>
40.9995

> <Gold.PLP.PLP>
-34.8622

> <Gold.PLP.part.hbond>
-4.6160

> <Gold.PLP.part.metal>
0.0000

> <Gold.PLP.part.buried>
-2.5612

> <Gold.PLP.part.nonpolar>
-27.1685

> <Gold.PLP.part.repulsive>
0.0827

> <Gold.PLP.ligand.clash>
0.0000

> <Gold.PLP.ligand.torsion>
1.0605

> <Gold.PLP.Chemscore.Hbond>
2.7471

> <Gold.PLP.Chemscore.CHOScore>
0.0000

> <Gold.PLP.Chemscore.Metal>
0.0000

> <Gold.Chemscore.Hbonds>
donor molecule, donor type, donor heavy atom, donor atom, acceptor molecule, acceptor atom, score
      L1  H    17    38       P1  7957  1.00
      P1  H  6931  6943       L1     3  0.31
      P1  H  6934  6947       L1     3  0.80
      P1  H  7954  7966       L1    17  0.53

> <Gold.PLP.Chemscore.Internal.Correction>
0.0169

> <Gold.Rescore>
     Score         DG    S(hbond)    S(metal)    S(lipo)     H(rot)  DE(clash)    DE(int)     intcor
     15.27     -16.37       1.88        0.00      78.22       1.78       0.01       1.08       ----

> <Gold.Chemscore.Fitness>
15.2739

> <Gold.Chemscore.DG>
-16.3656

> <Gold.Chemscore.ZeroCoef>
-5.4800

> <Gold.Chemscore.Hbond>
1.8832

> <Gold.Chemscore.Metal>
0.0000

> <Gold.Chemscore.Lipo>
78.2208

> <Gold.Chemscore.Internal_Hbond>
0.0000

> <Gold.Chemscore.DEClash>
0.0103

> <Gold.Chemscore.DEInternal>
1.0814

> <Gold.Chemscore.Rot>
1.7798

> <Gold.Chemscore.Internal.Correction>
   9.000000E+99

> <Gold.Chemscore.Hbonds>
donor molecule, donor type, donor heavy atom, donor atom, acceptor molecule, acceptor atom, score
      L1  H    17    38       P1  7957  0.90
      P1  H  6931  6943       L1     3  0.01
      P1  H  6934  6947       L1     3  0.68
      P1  H  7954  7966       L1    17  0.03

> <Gold.Chemscore.Hbond.Weighted>
-6.2900

> <Gold.Chemscore.Metal.Weighted>
-0.0000

> <Gold.Chemscore.Lipo.Weighted>
-9.1518

> <Gold.Chemscore.Internal_Hbond.Weighted>
0.0000

> <Gold.Chemscore.DEClash.Weighted>
0.0103

> <Gold.Chemscore.DEInternal.Weighted>
1.0814

> <Gold.Chemscore.Rot.Weighted>
4.5562

> <Gold.Chemscore.Internal.Correction.Weighted>
   9.000000E+99

> <Gold.Protein.RotatedTorsions>
[ 6907 6896 6895 6894 ] final  162.99 input  -60.11 | X-H torsion
[ 7974 7965 7964 7962 ] final   42.32 input  175.53 | X-H torsion
[ 8008 7997 7996 7995 ] final -118.00 input   59.86 | X-H torsion
[ 10167 10162 10161 10158 ] final  164.54 input  -65.29 | X-H torsion
[ 10718 10713 10712 10709 ] final -119.77 input   66.30 | X-H torsion
[ 10763 10752 10751 10750 ] final  115.07 input  -60.55 | X-H torsion
[ 11005 11000 10999 10996 ] final  -19.46 input  -57.11 | X-H torsion

> <Gold.Protein.ActiveResidues>
 VAL166  LYS551  ARG553  GLY616  TRP617  ASP618  TYR619  PRO620  LYS621  CYS622 
 ASP623  PHE694  ASN695  SER759  ASP760  ASP761  ALA762  ILE779  LEU786  VAL792 
 PHE793  MET794  SER795  GLU796  ALA797  LYS798  CYS799  TRP800  GLU811  SER814 

> <Gold.Protein.RotatedAtoms>
  151.9320  133.3614  159.3933 H   0  0  0  0  0  0  0  0  0  0  0  0  # atno 6907 bound_to 6896
  150.7015  134.4528  159.5353 H   0  0  0  0  0  0  0  0  0  0  0  0  # atno 6908 bound_to 6896
  152.2170  134.8449  160.0541 H   0  0  0  0  0  0  0  0  0  0  0  0  # atno 6909 bound_to 6896
  146.0750  139.5314  142.9573 H   0  0  0  0  0  0  0  0  0  0  0  0  # atno 7974 bound_to 7965
  155.0926  140.0395  157.2673 H   0  0  0  0  0  0  0  0  0  0  0  0  # atno 8008 bound_to 7997
  154.6820  140.2635  155.6874 H   0  0  0  0  0  0  0  0  0  0  0  0  # atno 8009 bound_to 7997
  156.2698  140.2776  156.1367 H   0  0  0  0  0  0  0  0  0  0  0  0  # atno 8010 bound_to 7997
  139.4890  144.4225  151.9169 H   0  0  0  0  0  0  0  0  0  0  0  0  # atno 10167 bound_to 10162
  156.1207  130.6321  150.9458 H   0  0  0  0  0  0  0  0  0  0  0  0  # atno 10718 bound_to 10713
  153.5167  135.3606  155.2612 H   0  0  0  0  0  0  0  0  0  0  0  0  # atno 10763 bound_to 10752
  154.8738  135.4035  154.3307 H   0  0  0  0  0  0  0  0  0  0  0  0  # atno 10764 bound_to 10752
  153.3970  135.7073  153.6520 H   0  0  0  0  0  0  0  0  0  0  0  0  # atno 10765 bound_to 10752
  140.8369  133.7955  155.9818 H   0  0  0  0  0  0  0  0  0  0  0  0  # atno 11005 bound_to 11000
  145.6322  141.0302  143.1857 LP  0  0  0  0  0  0  0  0  0  0  0  0  # atno 17320 bound_to 7965
  144.7256  139.7888  143.7366 LP  0  0  0  0  0  0  0  0  0  0  0  0  # atno 17321 bound_to 7965
  140.3670  144.2903  150.5925 LP  0  0  0  0  0  0  0  0  0  0  0  0  # atno 17342 bound_to 10162
  140.5353  143.2234  151.8173 LP  0  0  0  0  0  0  0  0  0  0  0  0  # atno 17343 bound_to 10162
  157.6390  131.0912  150.8290 LP  0  0  0  0  0  0  0  0  0  0  0  0  # atno 17370 bound_to 10713
  156.8387  130.5040  149.5323 LP  0  0  0  0  0  0  0  0  0  0  0  0  # atno 17371 bound_to 10713
  140.8937  134.2463  157.5080 LP  0  0  0  0  0  0  0  0  0  0  0  0  # atno 17394 bound_to 11000
  139.8704  134.9674  156.4595 LP  0  0  0  0  0  0  0  0  0  0  0  0  # atno 17395 bound_to 11000

$$$$
