AV-unprocessed.smi:2822|AV-procd|sdf|10873|dock7
  -GOLD-   2272015313D 1   1.00000     0.00000
 Structure written by MMmdl.
 40 42  0  0  0  0  0  0  0  0  2 V2000
  151.5303  144.2201  160.7767 Cl  0  0  0  0  0  0  0  0  0  0  0  0
  152.6422  142.9236  161.0472 C   0  0  0  0  0  0  0  0  0  0  0  0
  153.3198  142.8300  162.2803 C   0  0  0  0  0  0  0  0  0  0  0  0
  154.2018  141.8513  162.5722 N   0  0  0  0  0  0  0  0  0  0  0  0
  154.4406  140.9189  161.6269 C   0  0  0  0  0  0  0  0  0  0  0  0
  153.8181  140.9181  160.3625 C   0  0  0  0  0  0  0  0  0  0  0  0
  152.8929  141.9445  160.0581 C   0  0  0  0  0  0  0  0  0  0  0  0
  152.2299  142.0212  158.8235 N   0  0  0  0  0  0  0  0  0  0  0  0
  152.1552  140.8626  157.9469 C   0  0  0  0  0  0  0  0  0  0  0  0
  150.8357  140.8291  157.1631 C   0  0  1  0  0  0  0  0  0  0  0  0
  150.3355  142.2554  156.8417 C   0  0  0  0  0  0  0  0  0  0  0  0
  149.1324  142.2305  155.9751 N   0  3  2  0  0  0  0  0  0  0  0  0
  147.8817  141.8911  156.7070 C   0  0  0  0  0  0  0  0  0  0  0  0
  146.6594  141.9487  155.7791 C   0  0  0  0  0  0  0  0  0  0  0  0
  146.8480  141.0148  154.5786 C   0  0  0  0  0  0  0  0  0  0  0  0
  148.1392  141.3796  153.8336 C   0  0  0  0  0  0  0  0  0  0  0  0
  149.3717  141.3999  154.7625 C   0  0  2  0  0  0  0  0  0  0  0  0
  149.8834  139.9979  155.1554 C   0  0  0  0  0  0  0  0  0  0  0  0
  151.0629  140.1348  155.9396 O   0  0  0  0  0  0  0  0  0  0  0  0
  153.1495  143.5625  163.0556 H   0  0  0  0  0  0  0  0  0  0  0  0
  155.1520  140.1483  161.8845 H   0  0  0  0  0  0  0  0  0  0  0  0
  154.0623  140.1396  159.6558 H   0  0  0  0  0  0  0  0  0  0  0  0
  151.5929  142.7887  158.6622 H   0  0  0  0  0  0  0  0  0  0  0  0
  152.9895  140.9074  157.2458 H   0  0  0  0  0  0  0  0  0  0  0  0
  152.2689  139.9484  158.5309 H   0  0  0  0  0  0  0  0  0  0  0  0
  150.0892  140.2966  157.7547 H   0  0  0  0  0  0  0  0  0  0  0  0
  150.1272  142.8104  157.7572 H   0  0  0  0  0  0  0  0  0  0  0  0
  151.1185  142.8068  156.3190 H   0  0  0  0  0  0  0  0  0  0  0  0
  147.9538  140.8990  157.1524 H   0  0  0  0  0  0  0  0  0  0  0  0
  147.7448  142.5930  157.5303 H   0  0  0  0  0  0  0  0  0  0  0  0
  145.7598  141.6720  156.3296 H   0  0  0  0  0  0  0  0  0  0  0  0
  146.5082  142.9717  155.4315 H   0  0  0  0  0  0  0  0  0  0  0  0
  146.8873  139.9782  154.9148 H   0  0  0  0  0  0  0  0  0  0  0  0
  145.9932  141.0913  153.9059 H   0  0  0  0  0  0  0  0  0  0  0  0
  148.3020  140.6912  153.0036 H   0  0  0  0  0  0  0  0  0  0  0  0
  148.0175  142.3670  153.3859 H   0  0  0  0  0  0  0  0  0  0  0  0
  150.1766  141.8826  154.2055 H   0  0  0  0  0  0  0  0  0  0  0  0
  149.1326  139.4255  155.7013 H   0  0  0  0  0  0  0  0  0  0  0  0
  150.1284  139.4233  154.2620 H   0  0  0  0  0  0  0  0  0  0  0  0
  148.9991  143.1767  155.6471 H   0  0  0  0  0  0  0  0  0  0  0  0
  1  2  1  0  0  0  0
  2  7  1  0  0  0  0
  2  3  2  0  0  0  0
  3  4  1  0  0  0  0
  3 20  1  0  0  0  0
  4  5  2  0  0  0  0
  5  6  1  0  0  0  0
  5 21  1  0  0  0  0
  6  7  2  0  0  0  0
  6 22  1  0  0  0  0
  7  8  1  0  0  0  0
  8  9  1  0  0  0  0
  8 23  1  0  0  0  0
  9 10  1  0  0  0  0
  9 24  1  0  0  0  0
  9 25  1  0  0  0  0
 10 19  1  0  0  0  0
 10 11  1  0  0  0  0
 10 26  1  0  0  0  0
 11 12  1  0  0  0  0
 11 27  1  0  0  0  0
 11 28  1  0  0  0  0
 12 17  1  0  0  0  0
 12 13  1  0  0  0  0
 12 40  1  0  0  0  0
 13 14  1  0  0  0  0
 13 29  1  0  0  0  0
 13 30  1  0  0  0  0
 14 15  1  0  0  0  0
 14 31  1  0  0  0  0
 14 32  1  0  0  0  0
 15 16  1  0  0  0  0
 15 33  1  0  0  0  0
 15 34  1  0  0  0  0
 16 17  1  0  0  0  0
 16 35  1  0  0  0  0
 16 36  1  0  0  0  0
 17 18  1  0  0  0  0
 17 37  1  0  0  0  0
 18 19  1  0  0  0  0
 18 38  1  0  0  0  0
 18 39  1  0  0  0  0
M  CHG  1  12   1
M  END
> <s_m_source_file>
AV-unprocessed.smi

> <i_m_source_file_index>
2822

> <i_lp_mmshare_version>
43012

> <i_f3d_flags>
0

> <s_epik_input>
Q2xjMVtjSF1uW2NIXVtjSF1jMVtOSF1bQ0gyXVtDQEhdKFtDSDJdMilPW0NIMl1bQ0BASF0oTjIzKVtDSDJdW0NIMl1bQ0gyXVtDSDJdMw==

> <s_epik_cmdline>
J2VwaWtfcHl0aG9uJywgJy1waCcsICc3LjAnLCAnLXRuJywgJzgnLCAnLW1hJywgJzIwMCcsICctbWV0YWxfYmluZGluZycsICctaW1hZScsICc8aW5maWxlLm1hZT4nLCAnLW9tYWUnLCAnPG91dGZpbGUubWFlPic=

> <r_lp_tautomer_probability>
0.999999

> <r_epik_Ionization_Penalty>
0.88937

> <r_epik_Ionization_Penalty_Charging>
0.0803403

> <r_epik_Ionization_Penalty_Neutral>
0.80903

> <r_epik_State_Penalty>
0.931884

> <r_epik_Charging_Adjusted_Penalty>
1.01222

> <i_epik_Tot_Q>
1

> <i_epik_Tot_abs_Q>
1

> <r_epik_Metal_State_Penalty>
0.0782275

> <b_epik_Metal_Only>
0

> <s_lp_Force_Field>
OPLS_2005

> <r_lp_Energy>
32.5478

> <b_lp_Chiralities_Consistent>
1

> <s_lp_Variant>
AV-unprocessed.smi:2822-14

> <Gold.Version>
5.8.1

> <Gold.Id.Protein>
6NUR|6NUR_protein|mol2

> <Gold.PLP.Fitness>
46.4598

> <Gold.PLP.PLP>
-41.6117

> <Gold.PLP.part.hbond>
-2.0000

> <Gold.PLP.part.metal>
0.0000

> <Gold.PLP.part.buried>
-3.3809

> <Gold.PLP.part.nonpolar>
-34.2275

> <Gold.PLP.part.repulsive>
0.1888

> <Gold.PLP.ligand.clash>
0.0000

> <Gold.PLP.ligand.torsion>
0.5762

> <Gold.PLP.Chemscore.Hbond>
2.0000

> <Gold.PLP.Chemscore.CHOScore>
0.0000

> <Gold.PLP.Chemscore.Metal>
0.0000

> <Gold.Chemscore.Hbonds>
donor molecule, donor type, donor heavy atom, donor atom, acceptor molecule, acceptor atom, score
      L1  H    12    40       P1  8028  2.00

> <Gold.PLP.Chemscore.Internal.Correction>
0.0006

> <Gold.Rescore>
     Score         DG    S(hbond)    S(metal)    S(lipo)     H(rot)  DE(clash)    DE(int)     intcor
     18.65     -19.29       1.00        0.00     115.13       1.17       0.04       0.60       ----

> <Gold.Chemscore.Fitness>
18.6480

> <Gold.Chemscore.DG>
-19.2928

> <Gold.Chemscore.ZeroCoef>
-5.4800

> <Gold.Chemscore.Hbond>
0.9987

> <Gold.Chemscore.Metal>
0.0000

> <Gold.Chemscore.Lipo>
115.1330

> <Gold.Chemscore.Internal_Hbond>
0.0000

> <Gold.Chemscore.DEClash>
0.0435

> <Gold.Chemscore.DEInternal>
0.6013

> <Gold.Chemscore.Rot>
1.1693

> <Gold.Chemscore.Internal.Correction>
   9.000000E+99

> <Gold.Chemscore.Hbonds>
donor molecule, donor type, donor heavy atom, donor atom, acceptor molecule, acceptor atom, score
      L1  H    12    40       P1  8028  0.94

> <Gold.Chemscore.Hbond.Weighted>
-3.3356

> <Gold.Chemscore.Metal.Weighted>
-0.0000

> <Gold.Chemscore.Lipo.Weighted>
-13.4706

> <Gold.Chemscore.Internal_Hbond.Weighted>
0.0000

> <Gold.Chemscore.DEClash.Weighted>
0.0435

> <Gold.Chemscore.DEInternal.Weighted>
0.6013

> <Gold.Chemscore.Rot.Weighted>
2.9934

> <Gold.Chemscore.Internal.Correction.Weighted>
   9.000000E+99

> <Gold.Protein.RotatedTorsions>
[ 6907 6896 6895 6894 ] final    2.01 input  -60.11 | X-H torsion
[ 7974 7965 7964 7962 ] final  -20.50 input  175.53 | X-H torsion
[ 8008 7997 7996 7995 ] final  -48.95 input   59.86 | X-H torsion
[ 10167 10162 10161 10158 ] final  -73.35 input  -65.29 | X-H torsion
[ 10718 10713 10712 10709 ] final   30.32 input   66.30 | X-H torsion
[ 10763 10752 10751 10750 ] final   14.15 input  -60.55 | X-H torsion
[ 11005 11000 10999 10996 ] final   75.89 input  -57.11 | X-H torsion

> <Gold.Protein.ActiveResidues>
 VAL166  LYS551  ARG553  GLY616  TRP617  ASP618  TYR619  PRO620  LYS621  CYS622 
 ASP623  PHE694  ASN695  SER759  ASP760  ASP761  ALA762  ILE779  LEU786  VAL792 
 PHE793  MET794  SER795  GLU796  ALA797  LYS798  CYS799  TRP800  GLU811  SER814 

> <Gold.Protein.RotatedAtoms>
  151.6020  135.1046  160.0062 H   0  0  0  0  0  0  0  0  0  0  0  0  # atno 6907 bound_to 6896
  152.4253  133.7180  159.6528 H   0  0  0  0  0  0  0  0  0  0  0  0  # atno 6908 bound_to 6896
  150.8142  133.8295  159.3190 H   0  0  0  0  0  0  0  0  0  0  0  0  # atno 6909 bound_to 6896
  146.1784  140.4211  142.8504 H   0  0  0  0  0  0  0  0  0  0  0  0  # atno 7974 bound_to 7965
  154.4036  140.1309  156.4423 H   0  0  0  0  0  0  0  0  0  0  0  0  # atno 8008 bound_to 7997
  155.7447  140.3489  155.5101 H   0  0  0  0  0  0  0  0  0  0  0  0  # atno 8009 bound_to 7997
  155.9006  140.1018  157.1343 H   0  0  0  0  0  0  0  0  0  0  0  0  # atno 8010 bound_to 7997
  140.5117  143.2344  151.7581 H   0  0  0  0  0  0  0  0  0  0  0  0  # atno 10167 bound_to 10162
  157.2580  130.7147  149.6439 H   0  0  0  0  0  0  0  0  0  0  0  0  # atno 10718 bound_to 10713
  153.1650  135.6802  153.8688 H   0  0  0  0  0  0  0  0  0  0  0  0  # atno 10763 bound_to 10752
  153.8071  135.3148  155.3398 H   0  0  0  0  0  0  0  0  0  0  0  0  # atno 10764 bound_to 10752
  154.7959  135.4807  154.0250 H   0  0  0  0  0  0  0  0  0  0  0  0  # atno 10765 bound_to 10752
  139.9323  134.7555  156.1327 H   0  0  0  0  0  0  0  0  0  0  0  0  # atno 11005 bound_to 11000
  144.8274  140.6652  143.6313 LP  0  0  0  0  0  0  0  0  0  0  0  0  # atno 17320 bound_to 7965
  145.4145  139.1574  143.4107 LP  0  0  0  0  0  0  0  0  0  0  0  0  # atno 17321 bound_to 7965
  139.4898  144.4381  151.9796 LP  0  0  0  0  0  0  0  0  0  0  0  0  # atno 17342 bound_to 10162
  140.3473  144.3131  150.5955 LP  0  0  0  0  0  0  0  0  0  0  0  0  # atno 17343 bound_to 10162
  155.9664  130.4406  150.5307 LP  0  0  0  0  0  0  0  0  0  0  0  0  # atno 17370 bound_to 10713
  157.3206  131.0681  151.1935 LP  0  0  0  0  0  0  0  0  0  0  0  0  # atno 17371 bound_to 10713
  141.0918  133.6711  156.2558 LP  0  0  0  0  0  0  0  0  0  0  0  0  # atno 17394 bound_to 11000
  140.6169  134.5401  157.5542 LP  0  0  0  0  0  0  0  0  0  0  0  0  # atno 17395 bound_to 11000

$$$$
