AV-unprocessed.smi:707|AV-procd|sdf|3453|dock8
  -GOLD-   22720 0443D 1   1.00000     0.00000
 Structure written by MMmdl.
 44 45  0  0  0  0  0  0  0  0  1 V2000
  161.3127  142.3706  162.1202 C   0  0  0  0  0  0  0  0  0  0  0  0
  160.7206  142.3813  160.7483 C   0  0  0  0  0  0  0  0  0  0  0  0
  161.1489  143.1739  159.7586 N   0  0  0  0  0  0  0  0  0  0  0  0
  160.3494  142.8764  158.6724 N   0  0  0  0  0  0  0  0  0  0  0  0
  159.5180  141.9341  159.1160 C   0  0  0  0  0  0  0  0  0  0  0  0
  159.6943  141.5799  160.3981 N   0  0  0  0  0  0  0  0  0  0  0  0
  158.9658  140.5921  161.1722 C   0  0  0  0  0  0  0  0  0  0  0  0
  157.8505  139.9391  160.3447 C   0  0  0  0  0  0  0  0  0  0  0  0
  156.5833  140.6222  160.5625 N   0  0  0  0  0  0  0  0  0  0  0  0
  155.4630  140.3764  159.8683 C   0  0  0  0  0  0  0  0  0  0  0  0
  155.3926  139.5398  158.9684 O   0  0  0  0  0  0  0  0  0  0  0  0
  154.2305  141.1910  160.2500 C   0  0  0  0  0  0  0  0  0  0  0  0
  153.2468  141.0020  159.2441 O   0  0  0  0  0  0  0  0  0  0  0  0
  151.9334  141.4122  159.6083 C   0  0  2  0  0  0  0  0  0  0  0  0
  151.0115  141.1516  158.4036 C   0  0  0  0  0  0  0  0  0  0  0  0
  151.3431  142.0751  157.2192 C   0  0  0  0  0  0  0  0  0  0  0  0
  151.3093  143.5543  157.6339 C   0  0  0  0  0  0  0  0  0  0  0  0
  152.2455  143.8291  158.8259 C   0  0  1  0  0  0  0  0  0  0  0  0
  152.2107  145.3073  159.2389 C   0  0  0  0  0  0  0  0  0  0  0  0
  151.8928  142.9039  160.0075 C   0  0  0  0  0  0  0  0  0  0  0  0
  162.1632  143.0509  162.1737 H   0  0  0  0  0  0  0  0  0  0  0  0
  161.6561  141.3681  162.3760 H   0  0  0  0  0  0  0  0  0  0  0  0
  160.5698  142.6869  162.8528 H   0  0  0  0  0  0  0  0  0  0  0  0
  158.7605  141.4893  158.4871 H   0  0  0  0  0  0  0  0  0  0  0  0
  159.6674  139.8406  161.5357 H   0  0  0  0  0  0  0  0  0  0  0  0
  158.5475  141.0839  162.0516 H   0  0  0  0  0  0  0  0  0  0  0  0
  158.1065  139.9703  159.2843 H   0  0  0  0  0  0  0  0  0  0  0  0
  157.7393  138.8890  160.6185 H   0  0  0  0  0  0  0  0  0  0  0  0
  156.5517  141.3202  161.2916 H   0  0  0  0  0  0  0  0  0  0  0  0
  153.8513  140.8703  161.2219 H   0  0  0  0  0  0  0  0  0  0  0  0
  154.5176  142.2388  160.3358 H   0  0  0  0  0  0  0  0  0  0  0  0
  151.5853  140.7995  160.4415 H   0  0  0  0  0  0  0  0  0  0  0  0
  151.0856  140.1083  158.0951 H   0  0  0  0  0  0  0  0  0  0  0  0
  149.9744  141.3098  158.7021 H   0  0  0  0  0  0  0  0  0  0  0  0
  152.3306  141.8289  156.8271 H   0  0  0  0  0  0  0  0  0  0  0  0
  150.6377  141.9025  156.4060 H   0  0  0  0  0  0  0  0  0  0  0  0
  151.5921  144.1775  156.7848 H   0  0  0  0  0  0  0  0  0  0  0  0
  150.2877  143.8342  157.8951 H   0  0  0  0  0  0  0  0  0  0  0  0
  153.2659  143.6027  158.5126 H   0  0  0  0  0  0  0  0  0  0  0  0
  151.2139  145.6044  159.5663 H   0  0  0  0  0  0  0  0  0  0  0  0
  152.4953  145.9533  158.4081 H   0  0  0  0  0  0  0  0  0  0  0  0
  152.9029  145.5020  160.0585 H   0  0  0  0  0  0  0  0  0  0  0  0
  150.8906  143.1453  160.3643 H   0  0  0  0  0  0  0  0  0  0  0  0
  152.5575  143.0984  160.8484 H   0  0  0  0  0  0  0  0  0  0  0  0
  1  2  1  0  0  0  0
  1 21  1  0  0  0  0
  1 22  1  0  0  0  0
  1 23  1  0  0  0  0
  2  6  1  0  0  0  0
  2  3  2  0  0  0  0
  3  4  1  0  0  0  0
  4  5  2  0  0  0  0
  5  6  1  0  0  0  0
  5 24  1  0  0  0  0
  6  7  1  0  0  0  0
  7  8  1  0  0  0  0
  7 25  1  0  0  0  0
  7 26  1  0  0  0  0
  8  9  1  0  0  0  0
  8 27  1  0  0  0  0
  8 28  1  0  0  0  0
  9 10  1  0  0  0  0
  9 29  1  0  0  0  0
 10 11  2  0  0  0  0
 10 12  1  0  0  0  0
 12 13  1  0  0  0  0
 12 30  1  0  0  0  0
 12 31  1  0  0  0  0
 13 14  1  0  0  0  0
 14 20  1  0  0  0  0
 14 15  1  0  0  0  0
 14 32  1  0  0  0  0
 15 16  1  0  0  0  0
 15 33  1  0  0  0  0
 15 34  1  0  0  0  0
 16 17  1  0  0  0  0
 16 35  1  0  0  0  0
 16 36  1  0  0  0  0
 17 18  1  0  0  0  0
 17 37  1  0  0  0  0
 17 38  1  0  0  0  0
 18 19  1  0  0  0  0
 18 20  1  0  0  0  0
 18 39  1  0  0  0  0
 19 40  1  0  0  0  0
 19 41  1  0  0  0  0
 19 42  1  0  0  0  0
 20 43  1  0  0  0  0
 20 44  1  0  0  0  0
M  END
> <s_m_source_file>
AV-unprocessed.smi

> <i_m_source_file_index>
707

> <i_lp_mmshare_version>
43012

> <i_f3d_flags>
0

> <s_epik_input>
W0NIM11jMW5uW2NIXW4xW0NIMl1bQ0gyXVtOSF1DKD1PKVtDSDJdT1tDQEBIXTJbQ0gyXVtDSDJdW0NIMl1bQ0BASF0oW0NIM10pW0NIMl0y

> <s_epik_cmdline>
J2VwaWtfcHl0aG9uJywgJy1waCcsICc3LjAnLCAnLXRuJywgJzgnLCAnLW1hJywgJzIwMCcsICctbWV0YWxfYmluZGluZycsICctaW1hZScsICc8aW5maWxlLm1hZT4nLCAnLW9tYWUnLCAnPG91dGZpbGUubWFlPic=

> <r_lp_tautomer_probability>
1

> <r_epik_Ionization_Penalty>
0.000271783

> <r_epik_Ionization_Penalty_Charging>
0

> <r_epik_Ionization_Penalty_Neutral>
0.000271783

> <r_epik_State_Penalty>
-0

> <r_epik_Charging_Adjusted_Penalty>
0

> <i_epik_Tot_Q>
0

> <i_epik_Tot_abs_Q>
0

> <r_epik_Metal_State_Penalty>
-0

> <b_epik_Metal_Only>
0

> <s_lp_Force_Field>
OPLS_2005

> <r_lp_Energy>
13.9065

> <b_lp_Chiralities_Consistent>
1

> <s_lp_Variant>
AV-unprocessed.smi:707-1

> <Gold.Version>
5.8.1

> <Gold.Id.Protein>
6NUR|6NUR_protein|mol2

> <Gold.PLP.Fitness>
45.4727

> <Gold.PLP.PLP>
-43.3034

> <Gold.PLP.part.hbond>
-4.9621

> <Gold.PLP.part.metal>
0.0000

> <Gold.PLP.part.buried>
-5.1286

> <Gold.PLP.part.nonpolar>
-32.2926

> <Gold.PLP.part.repulsive>
0.1987

> <Gold.PLP.ligand.clash>
0.0000

> <Gold.PLP.ligand.torsion>
0.4518

> <Gold.PLP.Chemscore.Hbond>
1.0000

> <Gold.PLP.Chemscore.CHOScore>
0.0000

> <Gold.PLP.Chemscore.Metal>
0.0000

> <Gold.Chemscore.Hbonds>
donor molecule, donor type, donor heavy atom, donor atom, acceptor molecule, acceptor atom, score
      P1  H  7997  8009       L1    11  1.00

> <Gold.PLP.Chemscore.Internal.Correction>
0.0729

> <Gold.Rescore>
     Score         DG    S(hbond)    S(metal)    S(lipo)     H(rot)  DE(clash)    DE(int)     intcor
     12.09     -12.97       0.97        0.00      89.17       2.42       0.49       0.39       ----

> <Gold.Chemscore.Fitness>
12.0931

> <Gold.Chemscore.DG>
-12.9737

> <Gold.Chemscore.ZeroCoef>
-5.4800

> <Gold.Chemscore.Hbond>
0.9742

> <Gold.Chemscore.Metal>
0.0000

> <Gold.Chemscore.Lipo>
89.1698

> <Gold.Chemscore.Internal_Hbond>
0.0000

> <Gold.Chemscore.DEClash>
0.4908

> <Gold.Chemscore.DEInternal>
0.3898

> <Gold.Chemscore.Rot>
2.4191

> <Gold.Chemscore.Internal.Correction>
   9.000000E+99

> <Gold.Chemscore.Hbonds>
donor molecule, donor type, donor heavy atom, donor atom, acceptor molecule, acceptor atom, score
      P1  H  7997  8009       L1    11  0.98

> <Gold.Chemscore.Hbond.Weighted>
-3.2537

> <Gold.Chemscore.Metal.Weighted>
-0.0000

> <Gold.Chemscore.Lipo.Weighted>
-10.4329

> <Gold.Chemscore.Internal_Hbond.Weighted>
0.0000

> <Gold.Chemscore.DEClash.Weighted>
0.4908

> <Gold.Chemscore.DEInternal.Weighted>
0.3898

> <Gold.Chemscore.Rot.Weighted>
6.1929

> <Gold.Chemscore.Internal.Correction.Weighted>
   9.000000E+99

> <Gold.Protein.RotatedTorsions>
[ 6907 6896 6895 6894 ] final    6.34 input  -60.11 | X-H torsion
[ 7974 7965 7964 7962 ] final  -64.56 input  175.53 | X-H torsion
[ 8008 7997 7996 7995 ] final   97.61 input   59.86 | X-H torsion
[ 10167 10162 10161 10158 ] final   -9.14 input  -65.29 | X-H torsion
[ 10718 10713 10712 10709 ] final -160.42 input   66.30 | X-H torsion
[ 10763 10752 10751 10750 ] final  107.24 input  -60.55 | X-H torsion
[ 11005 11000 10999 10996 ] final -121.46 input  -57.11 | X-H torsion

> <Gold.Protein.ActiveResidues>
 VAL166  LYS551  ARG553  GLY616  TRP617  ASP618  TYR619  PRO620  LYS621  CYS622 
 ASP623  PHE694  ASN695  SER759  ASP760  ASP761  ALA762  ILE779  LEU786  VAL792 
 PHE793  MET794  SER795  GLU796  ALA797  LYS798  CYS799  TRP800  GLU811  SER814 

> <Gold.Protein.RotatedAtoms>
  151.6721  135.0974  160.0199 H   0  0  0  0  0  0  0  0  0  0  0  0  # atno 6907 bound_to 6896
  152.3885  133.6641  159.6227 H   0  0  0  0  0  0  0  0  0  0  0  0  # atno 6908 bound_to 6896
  150.7806  133.8910  159.3354 H   0  0  0  0  0  0  0  0  0  0  0  0  # atno 6909 bound_to 6896
  145.7651  140.8841  143.0409 H   0  0  0  0  0  0  0  0  0  0  0  0  # atno 7974 bound_to 7965
  156.0919  140.3256  155.7827 H   0  0  0  0  0  0  0  0  0  0  0  0  # atno 8008 bound_to 7997
  155.4983  140.0567  157.2960 H   0  0  0  0  0  0  0  0  0  0  0  0  # atno 8009 bound_to 7997
  154.4643  140.1981  156.0177 H   0  0  0  0  0  0  0  0  0  0  0  0  # atno 8010 bound_to 7997
  140.7079  143.5890  150.8913 H   0  0  0  0  0  0  0  0  0  0  0  0  # atno 10167 bound_to 10162
  156.5819  130.8733  151.2867 H   0  0  0  0  0  0  0  0  0  0  0  0  # atno 10718 bound_to 10713
  153.4040  135.3851  155.2006 H   0  0  0  0  0  0  0  0  0  0  0  0  # atno 10763 bound_to 10752
  154.8732  135.3778  154.4583 H   0  0  0  0  0  0  0  0  0  0  0  0  # atno 10764 bound_to 10752
  153.5084  135.7087  153.5856 H   0  0  0  0  0  0  0  0  0  0  0  0  # atno 10765 bound_to 10752
  141.0068  134.0323  157.3466 H   0  0  0  0  0  0  0  0  0  0  0  0  # atno 11005 bound_to 11000
  144.6823  139.9777  143.7483 LP  0  0  0  0  0  0  0  0  0  0  0  0  # atno 17320 bound_to 7965
  146.0225  139.3264  143.0804 LP  0  0  0  0  0  0  0  0  0  0  0  0  # atno 17321 bound_to 7965
  139.9616  143.6157  152.3000 LP  0  0  0  0  0  0  0  0  0  0  0  0  # atno 17342 bound_to 10162
  139.6712  144.7661  151.1780 LP  0  0  0  0  0  0  0  0  0  0  0  0  # atno 17343 bound_to 10162
  157.7324  130.9715  150.1929 LP  0  0  0  0  0  0  0  0  0  0  0  0  # atno 17370 bound_to 10713
  156.2624  130.3712  149.8116 LP  0  0  0  0  0  0  0  0  0  0  0  0  # atno 17371 bound_to 10713
  139.9068  135.0181  156.7519 LP  0  0  0  0  0  0  0  0  0  0  0  0  # atno 17394 bound_to 11000
  140.6799  133.9483  155.7904 LP  0  0  0  0  0  0  0  0  0  0  0  0  # atno 17395 bound_to 11000

$$$$
