AV-unprocessed.smi:2966|AV-procd|sdf|11324|dock4
  -GOLD-   2272016233D 1   1.00000     0.00000
 Structure written by MMmdl.
 40 42  0  0  0  0  0  0  0  0  1 V2000
  146.7479  141.4589  154.0546 C   0  0  0  0  0  0  0  0  0  0  0  0
  147.5731  140.3973  154.4993 O   0  0  0  0  0  0  0  0  0  0  0  0
  148.4706  140.7956  155.5223 C   0  0  0  0  0  0  0  0  0  0  0  0
  149.8304  141.1606  154.9105 C   0  0  0  0  0  0  0  0  0  0  0  0
  150.9290  140.9197  155.8348 N   0  0  0  0  0  0  0  0  0  0  0  0
  151.9512  140.0367  155.7140 C   0  0  0  0  0  0  0  0  0  0  0  0
  152.1194  138.9743  154.3208 S   0  0  0  0  0  0  0  0  0  0  0  0
  150.5646  138.0585  154.5329 C   0  0  0  0  0  0  0  0  0  0  0  0
  150.7360  136.6524  155.1119 C   0  0  0  0  0  0  0  0  0  0  0  0
  151.2762  136.4774  156.2049 O   0  0  0  0  0  0  0  0  0  0  0  0
  150.2678  135.6500  154.3539 N   0  0  0  0  0  0  0  0  0  0  0  0
  150.3236  134.2631  154.6878 C   0  0  0  0  0  0  0  0  0  0  0  0
  151.6880  133.6479  154.9126 C   0  0  0  0  0  0  0  0  0  0  0  0
  150.9152  133.3161  153.6661 C   0  0  0  0  0  0  0  0  0  0  0  0
  152.8268  140.0235  156.7185 N   0  0  0  0  0  0  0  0  0  0  0  0
  152.3320  140.9947  157.5667 C   0  0  0  0  0  0  0  0  0  0  0  0
  152.8156  141.4629  158.8096 C   0  0  0  0  0  0  0  0  0  0  0  0
  152.1315  142.4826  159.5035 C   0  0  0  0  0  0  0  0  0  0  0  0
  150.9559  143.0467  158.9667 C   0  0  0  0  0  0  0  0  0  0  0  0
  150.4561  142.5937  157.7306 C   0  0  0  0  0  0  0  0  0  0  0  0
  151.1433  141.5762  157.0420 C   0  0  0  0  0  0  0  0  0  0  0  0
  146.0835  141.1005  153.2685 H   0  0  0  0  0  0  0  0  0  0  0  0
  147.3431  142.2765  153.6461 H   0  0  0  0  0  0  0  0  0  0  0  0
  146.1309  141.8456  154.8668 H   0  0  0  0  0  0  0  0  0  0  0  0
  148.0634  141.6524  156.0617 H   0  0  0  0  0  0  0  0  0  0  0  0
  148.5974  139.9870  156.2434 H   0  0  0  0  0  0  0  0  0  0  0  0
  150.0017  140.5709  154.0094 H   0  0  0  0  0  0  0  0  0  0  0  0
  149.8384  142.2038  154.5953 H   0  0  0  0  0  0  0  0  0  0  0  0
  149.9062  138.6358  155.1829 H   0  0  0  0  0  0  0  0  0  0  0  0
  150.0711  137.9786  153.5637 H   0  0  0  0  0  0  0  0  0  0  0  0
  149.8394  135.8873  153.4710 H   0  0  0  0  0  0  0  0  0  0  0  0
  149.5135  133.8618  155.2953 H   0  0  0  0  0  0  0  0  0  0  0  0
  152.5605  134.2899  154.8062 H   0  0  0  0  0  0  0  0  0  0  0  0
  151.7694  132.8754  155.6746 H   0  0  0  0  0  0  0  0  0  0  0  0
  150.4801  132.3212  153.5944 H   0  0  0  0  0  0  0  0  0  0  0  0
  151.2717  133.7362  152.7276 H   0  0  0  0  0  0  0  0  0  0  0  0
  153.7156  141.0381  159.2290 H   0  0  0  0  0  0  0  0  0  0  0  0
  152.5114  142.8345  160.4515 H   0  0  0  0  0  0  0  0  0  0  0  0
  150.4387  143.8281  159.5040 H   0  0  0  0  0  0  0  0  0  0  0  0
  149.5567  143.0245  157.3162 H   0  0  0  0  0  0  0  0  0  0  0  0
  1  2  1  0  0  0  0
  1 22  1  0  0  0  0
  1 23  1  0  0  0  0
  1 24  1  0  0  0  0
  2  3  1  0  0  0  0
  3  4  1  0  0  0  0
  3 25  1  0  0  0  0
  3 26  1  0  0  0  0
  4  5  1  0  0  0  0
  4 27  1  0  0  0  0
  4 28  1  0  0  0  0
  5 21  1  0  0  0  0
  5  6  1  0  0  0  0
  6  7  1  0  0  0  0
  6 15  2  0  0  0  0
  7  8  1  0  0  0  0
  8  9  1  0  0  0  0
  8 29  1  0  0  0  0
  8 30  1  0  0  0  0
  9 10  2  0  0  0  0
  9 11  1  0  0  0  0
 11 12  1  0  0  0  0
 11 31  1  0  0  0  0
 12 14  1  0  0  0  0
 12 13  1  0  0  0  0
 12 32  1  0  0  0  0
 13 14  1  0  0  0  0
 13 33  1  0  0  0  0
 13 34  1  0  0  0  0
 14 35  1  0  0  0  0
 14 36  1  0  0  0  0
 15 16  1  0  0  0  0
 16 21  2  0  0  0  0
 16 17  1  0  0  0  0
 17 18  2  0  0  0  0
 17 37  1  0  0  0  0
 18 19  1  0  0  0  0
 18 38  1  0  0  0  0
 19 20  2  0  0  0  0
 19 39  1  0  0  0  0
 20 21  1  0  0  0  0
 20 40  1  0  0  0  0
M  END
> <s_m_source_file>
AV-unprocessed.smi

> <i_m_source_file_index>
2966

> <i_lp_mmshare_version>
43012

> <i_f3d_flags>
0

> <s_epik_input>
W2NIXTFbY0hdW2NIXVtjSF1jKGMxMiluKFtDSDJdW0NIMl1PW0NIM10pYyhuMilTW0NIMl1DKD1PKVtOSF1bQ0hdM1tDSDJdW0NIMl0z

> <s_epik_cmdline>
J2VwaWtfcHl0aG9uJywgJy1waCcsICc3LjAnLCAnLXRuJywgJzgnLCAnLW1hJywgJzIwMCcsICctbWV0YWxfYmluZGluZycsICctaW1hZScsICc8aW5maWxlLm1hZT4nLCAnLW9tYWUnLCAnPG91dGZpbGUubWFlPic=

> <r_epik_Ionization_Penalty>
0.0369383

> <r_epik_Ionization_Penalty_Charging>
0

> <r_epik_Ionization_Penalty_Neutral>
0.0369383

> <r_epik_State_Penalty>
0.0308874

> <r_epik_Charging_Adjusted_Penalty>
0.0308874

> <i_epik_Tot_Q>
0

> <i_epik_Tot_abs_Q>
0

> <r_epik_Metal_State_Penalty>
0.0290633

> <b_epik_Metal_Only>
0

> <s_lp_Force_Field>
OPLS_2005

> <r_lp_Energy>
20.8616

> <b_lp_Chiralities_Consistent>
1

> <s_lp_Variant>
AV-unprocessed.smi:2966-1

> <Gold.Version>
5.8.1

> <Gold.Id.Protein>
6NUR|6NUR_protein|mol2

> <Gold.PLP.Fitness>
46.2533

> <Gold.PLP.PLP>
-41.6866

> <Gold.PLP.part.hbond>
-2.0000

> <Gold.PLP.part.metal>
0.0000

> <Gold.PLP.part.buried>
-4.4360

> <Gold.PLP.part.nonpolar>
-34.6756

> <Gold.PLP.part.repulsive>
0.1469

> <Gold.PLP.ligand.clash>
0.0000

> <Gold.PLP.ligand.torsion>
0.7862

> <Gold.PLP.Chemscore.Hbond>
2.0000

> <Gold.PLP.Chemscore.CHOScore>
0.0000

> <Gold.PLP.Chemscore.Metal>
0.0000

> <Gold.Chemscore.Hbonds>
donor molecule, donor type, donor heavy atom, donor atom, acceptor molecule, acceptor atom, score
      L1  H    11    31       P1  7948  0.65
      P1  H  7997  8009       L1    15  1.00

> <Gold.PLP.Chemscore.Internal.Correction>
0.1392

> <Gold.Rescore>
     Score         DG    S(hbond)    S(metal)    S(lipo)     H(rot)  DE(clash)    DE(int)     intcor
     16.73     -17.65       1.74        0.00     101.00       2.13       0.08       0.84       ----

> <Gold.Chemscore.Fitness>
16.7262

> <Gold.Chemscore.DG>
-17.6490

> <Gold.Chemscore.ZeroCoef>
-5.4800

> <Gold.Chemscore.Hbond>
1.7410

> <Gold.Chemscore.Metal>
0.0000

> <Gold.Chemscore.Lipo>
100.9973

> <Gold.Chemscore.Internal_Hbond>
0.0000

> <Gold.Chemscore.DEClash>
0.0834

> <Gold.Chemscore.DEInternal>
0.8393

> <Gold.Chemscore.Rot>
2.1338

> <Gold.Chemscore.Internal.Correction>
   9.000000E+99

> <Gold.Chemscore.Hbonds>
donor molecule, donor type, donor heavy atom, donor atom, acceptor molecule, acceptor atom, score
      L1  H    11    31       P1  7948  0.06
      P1  H  7997  8009       L1    15  0.82

> <Gold.Chemscore.Hbond.Weighted>
-5.8148

> <Gold.Chemscore.Metal.Weighted>
-0.0000

> <Gold.Chemscore.Lipo.Weighted>
-11.8167

> <Gold.Chemscore.Internal_Hbond.Weighted>
0.0000

> <Gold.Chemscore.DEClash.Weighted>
0.0834

> <Gold.Chemscore.DEInternal.Weighted>
0.8393

> <Gold.Chemscore.Rot.Weighted>
5.4626

> <Gold.Chemscore.Internal.Correction.Weighted>
   9.000000E+99

> <Gold.Protein.RotatedTorsions>
[ 6907 6896 6895 6894 ] final   92.83 input  -60.11 | X-H torsion
[ 7974 7965 7964 7962 ] final  126.25 input  175.53 | X-H torsion
[ 8008 7997 7996 7995 ] final -164.65 input   59.86 | X-H torsion
[ 10167 10162 10161 10158 ] final -109.16 input  -65.29 | X-H torsion
[ 10718 10713 10712 10709 ] final -176.22 input   66.30 | X-H torsion
[ 10763 10752 10751 10750 ] final  167.94 input  -60.55 | X-H torsion
[ 11005 11000 10999 10996 ] final -117.36 input  -57.11 | X-H torsion

> <Gold.Protein.ActiveResidues>
 VAL166  LYS551  ARG553  GLY616  TRP617  ASP618  TYR619  PRO620  LYS621  CYS622 
 ASP623  PHE694  ASN695  SER759  ASP760  ASP761  ALA762  ILE779  LEU786  VAL792 
 PHE793  MET794  SER795  GLU796  ALA797  LYS798  CYS799  TRP800  GLU811  SER814 

> <Gold.Protein.RotatedAtoms>
  152.5453  134.1442  159.8491 H   0  0  0  0  0  0  0  0  0  0  0  0  # atno 6907 bound_to 6896
  151.1475  133.4923  159.2603 H   0  0  0  0  0  0  0  0  0  0  0  0  # atno 6908 bound_to 6896
  151.1508  135.0236  159.8722 H   0  0  0  0  0  0  0  0  0  0  0  0  # atno 6909 bound_to 6896
  145.0638  139.3784  143.4992 H   0  0  0  0  0  0  0  0  0  0  0  0  # atno 7974 bound_to 7965
  155.8386  140.0945  157.1749 H   0  0  0  0  0  0  0  0  0  0  0  0  # atno 8008 bound_to 7997
  154.3981  140.1405  156.3762 H   0  0  0  0  0  0  0  0  0  0  0  0  # atno 8009 bound_to 7997
  155.8089  140.3450  155.5448 H   0  0  0  0  0  0  0  0  0  0  0  0  # atno 8010 bound_to 7997
  140.1583  143.4141  152.1444 H   0  0  0  0  0  0  0  0  0  0  0  0  # atno 10167 bound_to 10162
  156.8115  130.9588  151.3115 H   0  0  0  0  0  0  0  0  0  0  0  0  # atno 10718 bound_to 10713
  154.3612  135.2753  155.2318 H   0  0  0  0  0  0  0  0  0  0  0  0  # atno 10763 bound_to 10752
  154.4506  135.5932  153.6192 H   0  0  0  0  0  0  0  0  0  0  0  0  # atno 10764 bound_to 10752
  152.9843  135.6041  154.3833 H   0  0  0  0  0  0  0  0  0  0  0  0  # atno 10765 bound_to 10752
  141.0360  133.9909  157.3070 H   0  0  0  0  0  0  0  0  0  0  0  0  # atno 11005 bound_to 11000
  146.3526  140.0350  142.8647 LP  0  0  0  0  0  0  0  0  0  0  0  0  # atno 17320 bound_to 7965
  145.1376  140.9553  143.4508 LP  0  0  0  0  0  0  0  0  0  0  0  0  # atno 17321 bound_to 7965
  139.5393  144.7241  151.4787 LP  0  0  0  0  0  0  0  0  0  0  0  0  # atno 17342 bound_to 10162
  140.6659  143.8399  150.6941 LP  0  0  0  0  0  0  0  0  0  0  0  0  # atno 17343 bound_to 10162
  157.6503  130.8879  149.9621 LP  0  0  0  0  0  0  0  0  0  0  0  0  # atno 17370 bound_to 10713
  156.1042  130.3654  150.0164 LP  0  0  0  0  0  0  0  0  0  0  0  0  # atno 17371 bound_to 10713
  139.9241  135.0201  156.8171 LP  0  0  0  0  0  0  0  0  0  0  0  0  # atno 17394 bound_to 11000
  140.6321  133.9896  155.7667 LP  0  0  0  0  0  0  0  0  0  0  0  0  # atno 17395 bound_to 11000

$$$$
