AV-unprocessed.smi:2093|AV-procd|sdf|8549|dock3
  -GOLD-   2272011273D 1   1.00000     0.00000
 Structure written by MMmdl.
 30 31  0  0  0  0  0  0  0  0  2 V2000
  148.9809  140.2695  154.1597 C   0  0  0  0  0  0  0  0  0  0  0  0
  148.3267  141.0121  155.3342 C   0  0  1  0  0  0  0  0  0  0  0  0
  149.2439  142.0534  155.7976 N   0  0  0  0  0  0  0  0  0  0  0  0
  150.4176  141.8720  156.4212 C   0  0  0  0  0  0  0  0  0  0  0  0
  150.8224  140.7319  156.6598 O   0  0  0  0  0  0  0  0  0  0  0  0
  151.0467  143.0267  156.7377 N   0  5  0  0  0  0  0  0  0  0  0  0
  151.6487  143.1584  157.9309 C   0  0  0  0  0  0  0  0  0  0  0  0
  151.8397  142.1336  158.7700 N   0  0  0  0  0  0  0  0  0  0  0  0
  152.4888  142.4969  159.9514 C   0  0  0  0  0  0  0  0  0  0  0  0
  152.8092  143.8273  160.0088 C   0  0  0  0  0  0  0  0  0  0  0  0
  152.3010  144.6689  158.5724 S   0  0  0  0  0  0  0  0  0  0  0  0
  146.9676  141.6248  154.9354 C   0  0  2  0  0  0  0  0  0  0  0  0
  147.0073  142.5777  153.7415 C   0  0  0  0  0  0  0  0  0  0  0  0
  145.7211  143.3584  153.9127 C   0  0  0  0  0  0  0  0  0  0  0  0
  145.5127  143.3680  155.4291 C   0  0  0  0  0  0  0  0  0  0  0  0
  146.4679  142.4601  155.9714 O   0  0  0  0  0  0  0  0  0  0  0  0
  148.3472  139.4565  153.8046 H   0  0  0  0  0  0  0  0  0  0  0  0
  149.9361  139.8339  154.4546 H   0  0  0  0  0  0  0  0  0  0  0  0
  149.1654  140.9394  153.3192 H   0  0  0  0  0  0  0  0  0  0  0  0
  148.1617  140.2833  156.1294 H   0  0  0  0  0  0  0  0  0  0  0  0
  148.9617  143.0078  155.6293 H   0  0  0  0  0  0  0  0  0  0  0  0
  152.6838  141.7416  160.6980 H   0  0  0  0  0  0  0  0  0  0  0  0
  153.3102  144.3607  160.8021 H   0  0  0  0  0  0  0  0  0  0  0  0
  146.2379  140.8350  154.7462 H   0  0  0  0  0  0  0  0  0  0  0  0
  147.8629  143.2499  153.8203 H   0  0  0  0  0  0  0  0  0  0  0  0
  147.0657  142.0617  152.7827 H   0  0  0  0  0  0  0  0  0  0  0  0
  145.7799  144.3606  153.4870 H   0  0  0  0  0  0  0  0  0  0  0  0
  144.8987  142.8319  153.4269 H   0  0  0  0  0  0  0  0  0  0  0  0
  145.6757  144.3594  155.8527 H   0  0  0  0  0  0  0  0  0  0  0  0
  144.5016  143.0518  155.6868 H   0  0  0  0  0  0  0  0  0  0  0  0
  1  2  1  0  0  0  0
  1 17  1  0  0  0  0
  1 18  1  0  0  0  0
  1 19  1  0  0  0  0
  2  3  1  0  0  0  0
  2 12  1  0  0  0  0
  2 20  1  0  0  0  0
  3  4  1  0  0  0  0
  3 21  1  0  0  0  0
  4  5  2  0  0  0  0
  4  6  1  0  0  0  0
  6  7  1  0  0  0  0
  7 11  1  0  0  0  0
  7  8  2  0  0  0  0
  8  9  1  0  0  0  0
  9 10  2  0  0  0  0
  9 22  1  0  0  0  0
 10 11  1  0  0  0  0
 10 23  1  0  0  0  0
 12 16  1  0  0  0  0
 12 13  1  0  0  0  0
 12 24  1  0  0  0  0
 13 14  1  0  0  0  0
 13 25  1  0  0  0  0
 13 26  1  0  0  0  0
 14 15  1  0  0  0  0
 14 27  1  0  0  0  0
 14 28  1  0  0  0  0
 15 16  1  0  0  0  0
 15 29  1  0  0  0  0
 15 30  1  0  0  0  0
M  CHG  1   6  -1
M  END
> <s_m_source_file>
AV-unprocessed.smi

> <i_m_source_file_index>
2093

> <i_lp_mmshare_version>
43012

> <i_f3d_flags>
0

> <s_epik_input>
TzFbQ0gyXVtDSDJdW0NIMl1bQ0BIXTFbQ0BIXShbQ0gzXSlbTkhdQyg9TylbTkhdYzJuW2NIXVtjSF1zMg==

> <s_epik_cmdline>
J2VwaWtfcHl0aG9uJywgJy1waCcsICc3LjAnLCAnLXRuJywgJzgnLCAnLW1hJywgJzIwMCcsICctbWV0YWxfYmluZGluZycsICctaW1hZScsICc8aW5maWxlLm1hZT4nLCAnLW9tYWUnLCAnPG91dGZpbGUubWFlPic=

> <r_lp_tautomer_probability>
0.999

> <r_epik_Ionization_Penalty>
8.26346

> <r_epik_Ionization_Penalty_Charging>
6.6559

> <r_epik_Ionization_Penalty_Neutral>
1.60756

> <r_epik_State_Penalty>
6.65607

> <r_epik_Charging_Adjusted_Penalty>
13.312

> <i_epik_Tot_Q>
-1

> <i_epik_Tot_abs_Q>
1

> <r_epik_Metal_State_Penalty>
2.5789

> <b_epik_Metal_Only>
1

> <s_lp_Force_Field>
OPLS_2005

> <r_lp_Energy>
13.6903

> <b_lp_Chiralities_Consistent>
1

> <s_lp_Variant>
AV-unprocessed.smi:2093-6

> <Gold.Version>
5.8.1

> <Gold.Id.Protein>
6NUR|6NUR_protein|mol2

> <Gold.PLP.Fitness>
34.5914

> <Gold.PLP.PLP>
-32.5324

> <Gold.PLP.part.hbond>
-1.0000

> <Gold.PLP.part.metal>
0.0000

> <Gold.PLP.part.buried>
-5.0644

> <Gold.PLP.part.nonpolar>
-28.3894

> <Gold.PLP.part.repulsive>
1.8039

> <Gold.PLP.ligand.clash>
0.0000

> <Gold.PLP.ligand.torsion>
0.4982

> <Gold.PLP.Chemscore.Hbond>
1.0000

> <Gold.PLP.Chemscore.CHOScore>
0.0000

> <Gold.PLP.Chemscore.Metal>
0.0000

> <Gold.Chemscore.Hbonds>
donor molecule, donor type, donor heavy atom, donor atom, acceptor molecule, acceptor atom, score
      L1  H     3    21       P1  8028  1.00

> <Gold.PLP.Chemscore.Internal.Correction>
0.0554

> <Gold.Rescore>
     Score         DG    S(hbond)    S(metal)    S(lipo)     H(rot)  DE(clash)    DE(int)     intcor
     10.51     -14.11       0.99        0.00      73.40       1.28       1.54       2.07       ----

> <Gold.Chemscore.Fitness>
10.5056

> <Gold.Chemscore.DG>
-14.1139

> <Gold.Chemscore.ZeroCoef>
-5.4800

> <Gold.Chemscore.Hbond>
0.9930

> <Gold.Chemscore.Metal>
0.0000

> <Gold.Chemscore.Lipo>
73.4043

> <Gold.Chemscore.Internal_Hbond>
0.0000

> <Gold.Chemscore.DEClash>
1.5417

> <Gold.Chemscore.DEInternal>
2.0666

> <Gold.Chemscore.Rot>
1.2778

> <Gold.Chemscore.Internal.Correction>
   9.000000E+99

> <Gold.Chemscore.Hbonds>
donor molecule, donor type, donor heavy atom, donor atom, acceptor molecule, acceptor atom, score
      L1  H     3    21       P1  8028  1.00

> <Gold.Chemscore.Hbond.Weighted>
-3.3167

> <Gold.Chemscore.Metal.Weighted>
-0.0000

> <Gold.Chemscore.Lipo.Weighted>
-8.5883

> <Gold.Chemscore.Internal_Hbond.Weighted>
0.0000

> <Gold.Chemscore.DEClash.Weighted>
1.5417

> <Gold.Chemscore.DEInternal.Weighted>
2.0666

> <Gold.Chemscore.Rot.Weighted>
3.2711

> <Gold.Chemscore.Internal.Correction.Weighted>
   9.000000E+99

> <Gold.Protein.RotatedTorsions>
[ 6907 6896 6895 6894 ] final  121.81 input  -60.11 | X-H torsion
[ 7974 7965 7964 7962 ] final  104.38 input  175.53 | X-H torsion
[ 8008 7997 7996 7995 ] final   92.61 input   59.86 | X-H torsion
[ 10167 10162 10161 10158 ] final  118.53 input  -65.29 | X-H torsion
[ 10718 10713 10712 10709 ] final  139.00 input   66.30 | X-H torsion
[ 10763 10752 10751 10750 ] final  138.87 input  -60.55 | X-H torsion
[ 11005 11000 10999 10996 ] final   41.28 input  -57.11 | X-H torsion

> <Gold.Protein.ActiveResidues>
 VAL166  LYS551  ARG553  GLY616  TRP617  ASP618  TYR619  PRO620  LYS621  CYS622 
 ASP623  PHE694  ASN695  SER759  ASP760  ASP761  ALA762  ILE779  LEU786  VAL792 
 PHE793  MET794  SER795  GLU796  ALA797  LYS798  CYS799  TRP800  GLU811  SER814 

> <Gold.Protein.RotatedAtoms>
  152.4292  133.7249  159.6553 H   0  0  0  0  0  0  0  0  0  0  0  0  # atno 6907 bound_to 6896
  150.8170  133.8308  159.3162 H   0  0  0  0  0  0  0  0  0  0  0  0  # atno 6908 bound_to 6896
  151.6001  135.1050  160.0110 H   0  0  0  0  0  0  0  0  0  0  0  0  # atno 6909 bound_to 6896
  145.3336  139.2480  143.3647 H   0  0  0  0  0  0  0  0  0  0  0  0  # atno 7974 bound_to 7965
  156.0373  140.3323  155.7205 H   0  0  0  0  0  0  0  0  0  0  0  0  # atno 8008 bound_to 7997
  155.5796  140.0635  157.2804 H   0  0  0  0  0  0  0  0  0  0  0  0  # atno 8009 bound_to 7997
  154.4378  140.1846  156.0951 H   0  0  0  0  0  0  0  0  0  0  0  0  # atno 8010 bound_to 7997
  139.6105  144.7080  151.2854 H   0  0  0  0  0  0  0  0  0  0  0  0  # atno 10167 bound_to 10162
  157.4192  131.1036  151.0372 H   0  0  0  0  0  0  0  0  0  0  0  0  # atno 10718 bound_to 10713
  153.8967  135.3026  155.3448 H   0  0  0  0  0  0  0  0  0  0  0  0  # atno 10763 bound_to 10752
  154.7690  135.4896  153.9614 H   0  0  0  0  0  0  0  0  0  0  0  0  # atno 10764 bound_to 10752
  153.1267  135.6794  153.9345 H   0  0  0  0  0  0  0  0  0  0  0  0  # atno 10765 bound_to 10752
  140.1850  134.4057  155.8178 H   0  0  0  0  0  0  0  0  0  0  0  0  # atno 11005 bound_to 11000
  146.3036  140.3919  142.8695 LP  0  0  0  0  0  0  0  0  0  0  0  0  # atno 17320 bound_to 7965
  144.8845  140.7444  143.5966 LP  0  0  0  0  0  0  0  0  0  0  0  0  # atno 17321 bound_to 7965
  140.7316  143.6848  150.7971 LP  0  0  0  0  0  0  0  0  0  0  0  0  # atno 17342 bound_to 10162
  140.0441  143.5316  152.2704 LP  0  0  0  0  0  0  0  0  0  0  0  0  # atno 17343 bound_to 10162
  157.1308  130.6101  149.5529 LP  0  0  0  0  0  0  0  0  0  0  0  0  # atno 17370 bound_to 10713
  155.9875  130.4914  150.7128 LP  0  0  0  0  0  0  0  0  0  0  0  0  # atno 17371 bound_to 10713
  141.2224  133.7018  156.7996 LP  0  0  0  0  0  0  0  0  0  0  0  0  # atno 17394 bound_to 11000
  140.2224  134.8747  157.3391 LP  0  0  0  0  0  0  0  0  0  0  0  0  # atno 17395 bound_to 11000

$$$$
