AV-unprocessed.smi:44|AV-procd|sdf|399|dock5
  -GOLD-   2262016253D 1   1.00000     0.00000
 Structure written by MMmdl.
 29 31  0  0  0  0  0  0  0  0  3 V2000
  150.7861  139.2129  154.1716 O   0  0  0  0  0  0  0  0  0  0  0  0
  151.4609  139.1948  155.1990 C   0  0  0  0  0  0  0  0  0  0  0  0
  152.4344  138.2952  155.5530 N   0  5  0  0  0  0  0  0  0  0  0  0
  153.1194  138.3950  156.7590 C   0  0  0  0  0  0  0  0  0  0  0  0
  152.9661  139.2855  157.6738 N   0  0  0  0  0  0  0  0  0  0  0  0
  151.9921  140.2578  157.4005 C   0  0  0  0  0  0  0  0  0  0  0  0
  151.2517  140.2540  156.2413 C   0  0  0  0  0  0  0  0  0  0  0  0
  150.3743  141.3043  156.2538 N   0  3  0  0  0  0  0  0  0  0  0  0
  150.6236  141.8986  157.4207 C   0  0  0  0  0  0  0  0  0  0  0  0
  151.6098  141.3246  158.1750 N   0  0  0  0  0  0  0  0  0  0  0  0
  152.0963  141.7465  159.5274 C   0  0  1  0  0  0  0  0  0  0  0  0
  153.4855  142.3740  159.4050 C   0  0  0  0  0  0  0  0  0  0  0  0
  153.1316  143.8106  159.0937 C   0  0  0  0  0  0  0  0  0  0  0  0
  151.9116  144.0213  159.9908 C   0  0  1  0  0  0  0  0  0  0  0  0
  150.9727  145.1290  159.4898 C   0  0  0  0  0  0  0  0  0  0  0  0
  150.4545  144.7856  158.2232 O   0  0  0  0  0  0  0  0  0  0  0  0
  151.2489  142.7537  160.0024 O   0  0  0  0  0  0  0  0  0  0  0  0
  149.6933  141.5621  155.5512 H   0  0  0  0  0  0  0  0  0  0  0  0
  152.0570  140.8390  160.1308 H   0  0  0  0  0  0  0  0  0  0  0  0
  152.2596  144.2388  161.0024 H   0  0  0  0  0  0  0  0  0  0  0  0
  153.8553  137.5956  156.8769 H   0  0  0  0  0  0  0  0  0  0  0  0
  150.0822  142.7675  157.7470 H   0  0  0  0  0  0  0  0  0  0  0  0
  153.9912  142.3000  160.3688 H   0  0  0  0  0  0  0  0  0  0  0  0
  154.0995  141.8911  158.6444 H   0  0  0  0  0  0  0  0  0  0  0  0
  153.9428  144.5063  159.3101 H   0  0  0  0  0  0  0  0  0  0  0  0
  152.8648  143.9137  158.0407 H   0  0  0  0  0  0  0  0  0  0  0  0
  150.1269  145.2360  160.1696 H   0  0  0  0  0  0  0  0  0  0  0  0
  151.4754  146.0948  159.4467 H   0  0  0  0  0  0  0  0  0  0  0  0
  149.6342  145.2383  158.0990 H   0  0  0  0  0  0  0  0  0  0  0  0
  1  2  2  0  0  0  0
  2  7  1  0  0  0  0
  2  3  1  0  0  0  0
  3  4  1  0  0  0  0
  4 21  1  0  0  0  0
  4  5  2  0  0  0  0
  5  6  1  0  0  0  0
  6 10  1  0  0  0  0
  6  7  2  0  0  0  0
  7  8  1  0  0  0  0
  8  9  2  0  0  0  0
  8 18  1  0  0  0  0
  9 10  1  0  0  0  0
  9 22  1  0  0  0  0
 10 11  1  0  0  0  0
 11 19  1  0  0  0  0
 11 17  1  0  0  0  0
 11 12  1  0  0  0  0
 12 13  1  0  0  0  0
 12 23  1  0  0  0  0
 12 24  1  0  0  0  0
 13 14  1  0  0  0  0
 13 25  1  0  0  0  0
 13 26  1  0  0  0  0
 14 20  1  0  0  0  0
 14 15  1  0  0  0  0
 14 17  1  0  0  0  0
 15 16  1  0  0  0  0
 15 27  1  0  0  0  0
 15 28  1  0  0  0  0
 16 29  1  0  0  0  0
M  CHG  1   3  -1
M  CHG  1   8   1
M  END
> <s_m_source_file>
AV-unprocessed.smi

> <i_m_source_file_index>
44

> <i_lp_mmshare_version>
43012

> <i_f3d_flags>
0

> <s_epik_input>
bjFbY0hdW25IXWMoPU8pYyhjMTIpbltjSF1uMltDQEhdM1tDSDJdW0NIMl1bQ0BIXShPMylbQ0gyXVtPSF0=

> <s_epik_cmdline>
J2VwaWtfcHl0aG9uJywgJy1waCcsICc3LjAnLCAnLXRuJywgJzgnLCAnLW1hJywgJzIwMCcsICctbWV0YWxfYmluZGluZycsICctaW1hZScsICc8aW5maWxlLm1hZT4nLCAnLW9tYWUnLCAnPG91dGZpbGUubWFlPic=

> <r_lp_tautomer_probability>
0.144281

> <r_epik_Ionization_Penalty>
5.63685

> <r_epik_Ionization_Penalty_Charging>
5.58669

> <r_epik_Ionization_Penalty_Neutral>
0.0501585

> <r_epik_State_Penalty>
1.20809

> <r_epik_Charging_Adjusted_Penalty>
6.79478

> <i_epik_Tot_Q>
0

> <i_epik_Tot_abs_Q>
2

> <r_epik_Metal_State_Penalty>
1.52487

> <b_epik_Metal_Only>
0

> <s_epik_Chemistry_Notes>
This compound contains an acetal/aminal-like group ( X-CH(R)-Y where X, Y are N, S, or O) that may be acid/base labile, releasing an aldehyde.

> <s_lp_Force_Field>
OPLS_2005

> <r_lp_Energy>
45.4458

> <b_lp_Chiralities_Consistent>
1

> <s_lp_Variant>
AV-unprocessed.smi:44-5

> <Gold.Version>
5.8.1

> <Gold.Id.Protein>
6NUR|6NUR_protein|mol2

> <Gold.PLP.Fitness>
39.8655

> <Gold.PLP.PLP>
-34.1581

> <Gold.PLP.part.hbond>
-5.0000

> <Gold.PLP.part.metal>
0.0000

> <Gold.PLP.part.buried>
-3.4840

> <Gold.PLP.part.nonpolar>
-25.9788

> <Gold.PLP.part.repulsive>
0.3073

> <Gold.PLP.ligand.clash>
0.0000

> <Gold.PLP.ligand.torsion>
0.2349

> <Gold.PLP.Chemscore.Hbond>
2.0500

> <Gold.PLP.Chemscore.CHOScore>
0.0000

> <Gold.PLP.Chemscore.Metal>
0.0000

> <Gold.Chemscore.Hbonds>
donor molecule, donor type, donor heavy atom, donor atom, acceptor molecule, acceptor atom, score
      L1  H    16    29       P1  8029  0.99
      P1  H  7989  7998       L1     1  0.70
      P1  H  7997  8010       L1     5  0.35

> <Gold.PLP.Chemscore.Internal.Correction>
0.0271

> <Gold.Rescore>
     Score         DG    S(hbond)    S(metal)    S(lipo)     H(rot)  DE(clash)    DE(int)     intcor
      9.61     -11.03       1.67        0.00      49.37       2.27       0.02       1.40       ----

> <Gold.Chemscore.Fitness>
9.6062

> <Gold.Chemscore.DG>
-11.0252

> <Gold.Chemscore.ZeroCoef>
-5.4800

> <Gold.Chemscore.Hbond>
1.6723

> <Gold.Chemscore.Metal>
0.0000

> <Gold.Chemscore.Lipo>
49.3695

> <Gold.Chemscore.Internal_Hbond>
0.0000

> <Gold.Chemscore.DEClash>
0.0174

> <Gold.Chemscore.DEInternal>
1.4016

> <Gold.Chemscore.Rot>
2.2720

> <Gold.Chemscore.Internal.Correction>
   9.000000E+99

> <Gold.Chemscore.Hbonds>
donor molecule, donor type, donor heavy atom, donor atom, acceptor molecule, acceptor atom, score
      L1  H    16    29       P1  8029  0.24
      P1  H  7989  7998       L1     1  0.07

> <Gold.Chemscore.Hbond.Weighted>
-5.5854

> <Gold.Chemscore.Metal.Weighted>
-0.0000

> <Gold.Chemscore.Lipo.Weighted>
-5.7762

> <Gold.Chemscore.Internal_Hbond.Weighted>
0.0000

> <Gold.Chemscore.DEClash.Weighted>
0.0174

> <Gold.Chemscore.DEInternal.Weighted>
1.4016

> <Gold.Chemscore.Rot.Weighted>
5.8164

> <Gold.Chemscore.Internal.Correction.Weighted>
   9.000000E+99

> <Gold.Protein.RotatedTorsions>
[ 6907 6896 6895 6894 ] final  163.89 input  -60.11 | X-H torsion
[ 7974 7965 7964 7962 ] final   70.29 input  175.53 | X-H torsion
[ 8008 7997 7996 7995 ] final   28.53 input   59.86 | X-H torsion
[ 10167 10162 10161 10158 ] final  169.98 input  -65.29 | X-H torsion
[ 10718 10713 10712 10709 ] final  -12.62 input   66.30 | X-H torsion
[ 10763 10752 10751 10750 ] final  157.65 input  -60.55 | X-H torsion
[ 11005 11000 10999 10996 ] final -142.57 input  -57.11 | X-H torsion

> <Gold.Protein.ActiveResidues>
 VAL166  LYS551  ARG553  GLY616  TRP617  ASP618  TYR619  PRO620  LYS621  CYS622 
 ASP623  PHE694  ASN695  SER759  ASP760  ASP761  ALA762  ILE779  LEU786  VAL792 
 PHE793  MET794  SER795  GLU796  ALA797  LYS798  CYS799  TRP800  GLU811  SER814 

> <Gold.Protein.RotatedAtoms>
  151.9183  133.3579  159.3887 H   0  0  0  0  0  0  0  0  0  0  0  0  # atno 6907 bound_to 6896
  150.7043  134.4662  159.5413 H   0  0  0  0  0  0  0  0  0  0  0  0  # atno 6908 bound_to 6896
  152.2280  134.8349  160.0528 H   0  0  0  0  0  0  0  0  0  0  0  0  # atno 6909 bound_to 6896
  145.7800  139.2883  143.1271 H   0  0  0  0  0  0  0  0  0  0  0  0  # atno 7974 bound_to 7965
  155.0602  140.3189  155.4663 H   0  0  0  0  0  0  0  0  0  0  0  0  # atno 8008 bound_to 7997
  156.2815  140.2130  156.5673 H   0  0  0  0  0  0  0  0  0  0  0  0  # atno 8009 bound_to 7997
  154.7138  140.0495  157.0563 H   0  0  0  0  0  0  0  0  0  0  0  0  # atno 8010 bound_to 7997
  139.5006  144.3647  151.9788 H   0  0  0  0  0  0  0  0  0  0  0  0  # atno 10167 bound_to 10162
  156.6420  130.4930  149.6091 H   0  0  0  0  0  0  0  0  0  0  0  0  # atno 10718 bound_to 10713
  154.2036  135.2789  155.2982 H   0  0  0  0  0  0  0  0  0  0  0  0  # atno 10763 bound_to 10752
  154.5835  135.5582  153.7211 H   0  0  0  0  0  0  0  0  0  0  0  0  # atno 10764 bound_to 10752
  153.0081  135.6350  154.2175 H   0  0  0  0  0  0  0  0  0  0  0  0  # atno 10765 bound_to 10752
  140.8212  134.2629  157.4899 H   0  0  0  0  0  0  0  0  0  0  0  0  # atno 11005 bound_to 11000
  146.0084  140.8458  142.9983 LP  0  0  0  0  0  0  0  0  0  0  0  0  # atno 17320 bound_to 7965
  144.6798  140.2454  143.7338 LP  0  0  0  0  0  0  0  0  0  0  0  0  # atno 17321 bound_to 7965
  140.3083  144.3568  150.6041 LP  0  0  0  0  0  0  0  0  0  0  0  0  # atno 17342 bound_to 10162
  140.5819  143.2172  151.7412 LP  0  0  0  0  0  0  0  0  0  0  0  0  # atno 17343 bound_to 10162
  156.2151  130.6703  151.1311 LP  0  0  0  0  0  0  0  0  0  0  0  0  # atno 17370 bound_to 10713
  157.7168  131.0705  150.6295 LP  0  0  0  0  0  0  0  0  0  0  0  0  # atno 17371 bound_to 10713
  139.8708  134.9536  156.4150 LP  0  0  0  0  0  0  0  0  0  0  0  0  # atno 17394 bound_to 11000
  140.9097  133.7720  155.9777 LP  0  0  0  0  0  0  0  0  0  0  0  0  # atno 17395 bound_to 11000

$$$$
