AV-unprocessed.smi:113|AV-procd|sdf|1095|dock4
  -GOLD-   2262018203D 1   1.00000     0.00000
 Structure written by MMmdl.
 52 55  0  0  0  0  0  0  0  0  1 V2000
  154.2558  138.9549  159.9506 C   0  0  0  0  0  0  0  0  0  0  0  0
  153.7186  140.3391  160.2492 C   0  0  0  0  0  0  0  0  0  0  0  0
  153.0993  141.1014  159.2430 C   0  0  0  0  0  0  0  0  0  0  0  0
  152.6166  142.3920  159.5590 C   0  0  0  0  0  0  0  0  0  0  0  0
  151.9336  143.2642  158.4995 C   0  0  0  0  0  0  0  0  0  0  0  0
  150.7046  142.7466  157.9144 N   0  0  0  0  0  0  0  0  0  0  0  0
  149.5023  142.9153  158.6438 C   0  0  0  0  0  0  0  0  0  0  0  0
  149.4882  143.4672  159.7463 O   0  0  0  0  0  0  0  0  0  0  0  0
  148.2971  142.4105  157.9816 C   0  0  0  0  0  0  0  0  0  0  0  0
  146.9658  142.5677  158.6996 C   0  0  0  0  0  0  0  0  0  0  0  0
  148.3926  141.8330  156.7598 C   0  0  0  0  0  0  0  0  0  0  0  0
  149.5826  141.6707  156.0721 N   0  0  0  0  0  0  0  0  0  0  0  0
  149.5671  141.0665  154.6845 C   0  0  2  0  0  0  0  0  0  0  0  0
  148.1627  140.6594  154.2072 C   0  0  0  0  0  0  0  0  0  0  0  0
  148.2985  139.1627  153.9682 C   0  0  1  0  0  0  0  0  0  0  0  0
  147.5793  138.7729  152.8160 O   0  0  0  0  0  0  0  0  0  0  0  0
  149.8098  138.9683  153.8009 C   0  0  2  0  0  0  0  0  0  0  0  0
  150.3231  137.5700  154.1775 C   0  0  0  0  0  0  0  0  0  0  0  0
  151.7107  137.4699  153.9366 O   0  0  0  0  0  0  0  0  0  0  0  0
  150.3662  139.9251  154.6915 O   0  0  0  0  0  0  0  0  0  0  0  0
  150.7830  142.1622  156.6303 C   0  0  0  0  0  0  0  0  0  0  0  0
  151.8481  142.0990  156.0129 O   0  0  0  0  0  0  0  0  0  0  0  0
  152.7840  142.8568  160.8917 C   0  0  0  0  0  0  0  0  0  0  0  0
  152.3281  144.1363  161.2916 C   0  0  0  0  0  0  0  0  0  0  0  0
  152.5027  144.5770  162.6157 C   0  0  0  0  0  0  0  0  0  0  0  0
  153.1352  143.7444  163.5537 C   0  0  0  0  0  0  0  0  0  0  0  0
  153.5919  142.4726  163.1645 C   0  0  0  0  0  0  0  0  0  0  0  0
  153.4268  142.0089  161.8415 C   0  0  0  0  0  0  0  0  0  0  0  0
  153.8800  140.7793  161.5122 N   0  0  0  0  0  0  0  0  0  0  0  0
  153.7614  138.5239  159.0795 H   0  0  0  0  0  0  0  0  0  0  0  0
  154.0950  138.2843  160.7955 H   0  0  0  0  0  0  0  0  0  0  0  0
  155.3261  139.0035  159.7484 H   0  0  0  0  0  0  0  0  0  0  0  0
  153.0047  140.6889  158.2497 H   0  0  0  0  0  0  0  0  0  0  0  0
  151.7061  144.2484  158.9122 H   0  0  0  0  0  0  0  0  0  0  0  0
  152.6232  143.4694  157.6792 H   0  0  0  0  0  0  0  0  0  0  0  0
  146.1404  142.1518  158.1214 H   0  0  0  0  0  0  0  0  0  0  0  0
  146.7509  143.6224  158.8762 H   0  0  0  0  0  0  0  0  0  0  0  0
  146.9887  142.0566  159.6627 H   0  0  0  0  0  0  0  0  0  0  0  0
  147.4821  141.4790  156.2976 H   0  0  0  0  0  0  0  0  0  0  0  0
  150.0150  141.8085  154.0226 H   0  0  0  0  0  0  0  0  0  0  0  0
  147.3859  140.9074  154.9314 H   0  0  0  0  0  0  0  0  0  0  0  0
  147.9523  141.1991  153.2828 H   0  0  0  0  0  0  0  0  0  0  0  0
  147.9321  138.6103  154.8338 H   0  0  0  0  0  0  0  0  0  0  0  0
  148.0445  139.0857  152.0547 H   0  0  0  0  0  0  0  0  0  0  0  0
  150.1225  139.2373  152.7898 H   0  0  0  0  0  0  0  0  0  0  0  0
  150.1456  137.3798  155.2364 H   0  0  0  0  0  0  0  0  0  0  0  0
  149.7957  136.7961  153.6185 H   0  0  0  0  0  0  0  0  0  0  0  0
  151.8525  136.8244  153.2610 H   0  0  0  0  0  0  0  0  0  0  0  0
  151.8385  144.8008  160.5961 H   0  0  0  0  0  0  0  0  0  0  0  0
  152.1509  145.5546  162.9114 H   0  0  0  0  0  0  0  0  0  0  0  0
  153.2705  144.0799  164.5714 H   0  0  0  0  0  0  0  0  0  0  0  0
  154.0769  141.8414  163.8948 H   0  0  0  0  0  0  0  0  0  0  0  0
  1  2  1  0  0  0  0
  1 30  1  0  0  0  0
  1 31  1  0  0  0  0
  1 32  1  0  0  0  0
  2 29  1  0  0  0  0
  2  3  2  0  0  0  0
  3  4  1  0  0  0  0
  3 33  1  0  0  0  0
  4  5  1  0  0  0  0
  4 23  2  0  0  0  0
  5  6  1  0  0  0  0
  5 34  1  0  0  0  0
  5 35  1  0  0  0  0
  6 21  1  0  0  0  0
  6  7  1  0  0  0  0
  7  8  2  0  0  0  0
  7  9  1  0  0  0  0
  9 10  1  0  0  0  0
  9 11  2  0  0  0  0
 10 36  1  0  0  0  0
 10 37  1  0  0  0  0
 10 38  1  0  0  0  0
 11 12  1  0  0  0  0
 11 39  1  0  0  0  0
 12 13  1  0  0  0  0
 12 21  1  0  0  0  0
 13 20  1  0  0  0  0
 13 14  1  0  0  0  0
 13 40  1  0  0  0  0
 14 15  1  0  0  0  0
 14 41  1  0  0  0  0
 14 42  1  0  0  0  0
 15 16  1  0  0  0  0
 15 17  1  0  0  0  0
 15 43  1  0  0  0  0
 16 44  1  0  0  0  0
 17 18  1  0  0  0  0
 17 20  1  0  0  0  0
 17 45  1  0  0  0  0
 18 19  1  0  0  0  0
 18 46  1  0  0  0  0
 18 47  1  0  0  0  0
 19 48  1  0  0  0  0
 21 22  2  0  0  0  0
 23 28  1  0  0  0  0
 23 24  1  0  0  0  0
 24 25  2  0  0  0  0
 24 49  1  0  0  0  0
 25 26  1  0  0  0  0
 25 50  1  0  0  0  0
 26 27  2  0  0  0  0
 26 51  1  0  0  0  0
 27 28  1  0  0  0  0
 27 52  1  0  0  0  0
 28 29  2  0  0  0  0
M  END
> <s_m_source_file>
AV-unprocessed.smi

> <i_m_source_file_index>
113

> <i_lp_mmshare_version>
43012

> <i_f3d_flags>
0

> <s_epik_input>
W2NIXTFbY0hdW2NIXVtjSF1jKGMxMiluYyhbQ0gzXSlbY0hdYzJbQ0gyXW4zYyg9TyljKFtDSDNdKVtjSF1uKGMzPU8pW0NAQEhdNFtDSDJdW0NAQEhdKFtPSF0pW0NASF0oTzQpW0NIMl1bT0hd

> <s_epik_cmdline>
J2VwaWtfcHl0aG9uJywgJy1waCcsICc3LjAnLCAnLXRuJywgJzgnLCAnLW1hJywgJzIwMCcsICctbWV0YWxfYmluZGluZycsICctaW1hZScsICc8aW5maWxlLm1hZT4nLCAnLW9tYWUnLCAnPG91dGZpbGUubWFlPic=

> <r_lp_tautomer_probability>
1

> <r_epik_Ionization_Penalty>
0.214728

> <r_epik_Ionization_Penalty_Charging>
3.04883e-08

> <r_epik_Ionization_Penalty_Neutral>
0.214728

> <r_epik_State_Penalty>
0.204913

> <r_epik_Charging_Adjusted_Penalty>
0.204913

> <i_epik_Tot_Q>
0

> <i_epik_Tot_abs_Q>
0

> <r_epik_Metal_State_Penalty>
0.000244761

> <b_epik_Metal_Only>
0

> <s_epik_Chemistry_Notes>
This compound contains an acetal/aminal-like group ( X-CH(R)-Y where X, Y are N, S, or O) that may be acid/base labile, releasing an aldehyde.

> <s_lp_Force_Field>
OPLS_2005

> <r_lp_Energy>
32.9041

> <b_lp_Chiralities_Consistent>
1

> <s_lp_Variant>
AV-unprocessed.smi:113-5

> <Gold.Version>
5.8.1

> <Gold.Id.Protein>
6NUR|6NUR_protein|mol2

> <Gold.PLP.Fitness>
52.9349

> <Gold.PLP.PLP>
-46.2818

> <Gold.PLP.part.hbond>
-6.2190

> <Gold.PLP.part.metal>
0.0000

> <Gold.PLP.part.buried>
13.2419

> <Gold.PLP.part.nonpolar>
-51.9109

> <Gold.PLP.part.repulsive>
0.2687

> <Gold.PLP.ligand.clash>
0.0000

> <Gold.PLP.ligand.torsion>
0.3094

> <Gold.PLP.Chemscore.Hbond>
2.4105

> <Gold.PLP.Chemscore.CHOScore>
0.0000

> <Gold.PLP.Chemscore.Metal>
0.0000

> <Gold.Chemscore.Hbonds>
donor molecule, donor type, donor heavy atom, donor atom, acceptor molecule, acceptor atom, score
      L1  H    16    44       P1  7957  1.00
      L1  H    19    48       P1  7949  0.86
      P1  H  6933  6944       L1     8  0.14
      P1  H  7989  7998       L1    20  0.40

> <Gold.PLP.Chemscore.Internal.Correction>
0.0404

> <Gold.Rescore>
     Score         DG    S(hbond)    S(metal)    S(lipo)     H(rot)  DE(clash)    DE(int)     intcor
     14.32     -22.11       1.83        0.00     154.39       2.95       6.46       1.33       ----

> <Gold.Chemscore.Fitness>
14.3193

> <Gold.Chemscore.DG>
-22.1109

> <Gold.Chemscore.ZeroCoef>
-5.4800

> <Gold.Chemscore.Hbond>
1.8295

> <Gold.Chemscore.Metal>
0.0000

> <Gold.Chemscore.Lipo>
154.3945

> <Gold.Chemscore.Internal_Hbond>
0.0000

> <Gold.Chemscore.DEClash>
6.4582

> <Gold.Chemscore.DEInternal>
1.3334

> <Gold.Chemscore.Rot>
2.9469

> <Gold.Chemscore.Internal.Correction>
   9.000000E+99

> <Gold.Chemscore.Hbonds>
donor molecule, donor type, donor heavy atom, donor atom, acceptor molecule, acceptor atom, score
      L1  H    16    44       P1  7957  0.93
      L1  H    19    48       P1  7949  0.79
      P1  H  6933  6944       L1     8  0.13

> <Gold.Chemscore.Hbond.Weighted>
-6.1107

> <Gold.Chemscore.Metal.Weighted>
-0.0000

> <Gold.Chemscore.Lipo.Weighted>
-18.0642

> <Gold.Chemscore.Internal_Hbond.Weighted>
0.0000

> <Gold.Chemscore.DEClash.Weighted>
6.4582

> <Gold.Chemscore.DEInternal.Weighted>
1.3334

> <Gold.Chemscore.Rot.Weighted>
7.5439

> <Gold.Chemscore.Internal.Correction.Weighted>
   9.000000E+99

> <Gold.Protein.RotatedTorsions>
[ 6907 6896 6895 6894 ] final  -99.13 input  -60.11 | X-H torsion
[ 7974 7965 7964 7962 ] final  100.29 input  175.53 | X-H torsion
[ 8008 7997 7996 7995 ] final  124.92 input   59.86 | X-H torsion
[ 10167 10162 10161 10158 ] final  -50.26 input  -65.29 | X-H torsion
[ 10718 10713 10712 10709 ] final   99.50 input   66.30 | X-H torsion
[ 10763 10752 10751 10750 ] final   94.75 input  -60.55 | X-H torsion
[ 11005 11000 10999 10996 ] final  -31.17 input  -57.11 | X-H torsion

> <Gold.Protein.ActiveResidues>
 VAL166  LYS551  ARG553  GLY616  TRP617  ASP618  TYR619  PRO620  LYS621  CYS622 
 ASP623  PHE694  ASN695  SER759  ASP760  ASP761  ALA762  ILE779  LEU786  VAL792 
 PHE793  MET794  SER795  GLU796  ALA797  LYS798  CYS799  TRP800  GLU811  SER814 

> <Gold.Protein.RotatedAtoms>
  150.7069  134.1088  159.3992 H   0  0  0  0  0  0  0  0  0  0  0  0  # atno 6907 bound_to 6896
  151.9075  135.0350  160.0521 H   0  0  0  0  0  0  0  0  0  0  0  0  # atno 6908 bound_to 6896
  152.2363  133.5064  159.5281 H   0  0  0  0  0  0  0  0  0  0  0  0  # atno 6909 bound_to 6896
  145.3875  139.2368  143.3370 H   0  0  0  0  0  0  0  0  0  0  0  0  # atno 7974 bound_to 7965
  156.2817  140.2728  156.1866 H   0  0  0  0  0  0  0  0  0  0  0  0  # atno 8008 bound_to 7997
  155.0502  140.0386  157.2559 H   0  0  0  0  0  0  0  0  0  0  0  0  # atno 8009 bound_to 7997
  154.7202  140.2686  155.6554 H   0  0  0  0  0  0  0  0  0  0  0  0  # atno 8010 bound_to 7997
  140.6646  143.2665  151.4333 H   0  0  0  0  0  0  0  0  0  0  0  0  # atno 10167 bound_to 10162
  157.6874  131.0671  150.4959 H   0  0  0  0  0  0  0  0  0  0  0  0  # atno 10718 bound_to 10713
  153.2452  135.4278  155.0740 H   0  0  0  0  0  0  0  0  0  0  0  0  # atno 10763 bound_to 10752
  154.8358  135.3412  154.6592 H   0  0  0  0  0  0  0  0  0  0  0  0  # atno 10764 bound_to 10752
  153.7015  135.7028  153.5118 H   0  0  0  0  0  0  0  0  0  0  0  0  # atno 10765 bound_to 10752
  140.9446  133.7258  156.1127 H   0  0  0  0  0  0  0  0  0  0  0  0  # atno 11005 bound_to 11000
  146.2813  140.4553  142.8775 LP  0  0  0  0  0  0  0  0  0  0  0  0  # atno 17320 bound_to 7965
  144.8463  140.6934  143.6197 LP  0  0  0  0  0  0  0  0  0  0  0  0  # atno 17321 bound_to 7965
  139.5891  144.1539  152.2065 LP  0  0  0  0  0  0  0  0  0  0  0  0  # atno 17342 bound_to 10162
  140.0888  144.5638  150.7069 LP  0  0  0  0  0  0  0  0  0  0  0  0  # atno 17343 bound_to 10162
  156.5283  130.4178  149.6215 LP  0  0  0  0  0  0  0  0  0  0  0  0  # atno 17370 bound_to 10713
  156.3092  130.7220  151.2109 LP  0  0  0  0  0  0  0  0  0  0  0  0  # atno 17371 bound_to 10713
  140.7687  134.3857  157.5512 LP  0  0  0  0  0  0  0  0  0  0  0  0  # atno 17394 bound_to 11000
  139.8829  134.9008  156.2797 LP  0  0  0  0  0  0  0  0  0  0  0  0  # atno 17395 bound_to 11000

$$$$
