AV-unprocessed.smi:765|AV-procd|sdf|3649|dock4
  -GOLD-   22720 1 53D 1   1.00000     0.00000
 Structure written by MMmdl.
 39 40  0  0  0  0  0  0  0  0  1 V2000
  148.0865  140.8032  153.6814 C   0  0  0  0  0  0  0  0  0  0  0  0
  149.1141  139.9577  154.4470 C   0  0  2  0  0  0  0  0  0  0  0  0
  148.4859  138.6571  154.9784 C   0  0  0  0  0  0  0  0  0  0  0  0
  149.5052  137.8173  155.7605 C   0  0  0  0  0  0  0  0  0  0  0  0
  150.1298  138.6349  156.9023 C   0  0  0  0  0  0  0  0  0  0  0  0
  150.7953  139.9347  156.3982 C   0  0  2  0  0  0  0  0  0  0  0  0
  151.9510  139.5938  155.5440 C   0  0  0  0  0  0  0  0  0  0  0  0
  152.8561  139.3271  154.8739 N   0  0  0  0  0  0  0  0  0  0  0  0
  151.2172  140.6886  157.5801 N   0  0  0  0  0  0  0  0  0  0  0  0
  152.1572  140.3353  158.4732 C   0  0  0  0  0  0  0  0  0  0  0  0
  152.7753  139.2717  158.4210 O   0  0  0  0  0  0  0  0  0  0  0  0
  152.4488  141.3595  159.5802 C   0  0  1  0  0  0  0  0  0  0  0  0
  153.8924  141.2780  160.1098 C   0  0  0  0  0  0  0  0  0  0  0  0
  152.1392  142.7043  159.1122 N   0  0  0  0  0  0  0  0  0  0  0  0
  152.9529  143.8208  159.0811 C   0  0  0  0  0  0  0  0  0  0  0  0
  152.2213  144.8456  158.5538 C   0  0  0  0  0  0  0  0  0  0  0  0
  150.9537  144.2555  158.2922 C   0  0  0  0  0  0  0  0  0  0  0  0
  150.9076  142.9762  158.6268 N   0  0  0  0  0  0  0  0  0  0  0  0
  149.7498  140.7571  155.6026 C   0  0  0  0  0  0  0  0  0  0  0  0
  147.2629  141.1082  154.3279 H   0  0  0  0  0  0  0  0  0  0  0  0
  147.6643  140.2453  152.8451 H   0  0  0  0  0  0  0  0  0  0  0  0
  148.5443  141.7064  153.2768 H   0  0  0  0  0  0  0  0  0  0  0  0
  149.9028  139.6885  153.7435 H   0  0  0  0  0  0  0  0  0  0  0  0
  147.6397  138.8939  155.6251 H   0  0  0  0  0  0  0  0  0  0  0  0
  148.0859  138.0696  154.1513 H   0  0  0  0  0  0  0  0  0  0  0  0
  149.0194  136.9287  156.1644 H   0  0  0  0  0  0  0  0  0  0  0  0
  150.2847  137.4611  155.0862 H   0  0  0  0  0  0  0  0  0  0  0  0
  149.3522  138.8749  157.6294 H   0  0  0  0  0  0  0  0  0  0  0  0
  150.8607  138.0212  157.4310 H   0  0  0  0  0  0  0  0  0  0  0  0
  150.7688  141.5830  157.7170 H   0  0  0  0  0  0  0  0  0  0  0  0
  151.7833  141.1282  160.4145 H   0  0  0  0  0  0  0  0  0  0  0  0
  154.1228  140.2769  160.4757 H   0  0  0  0  0  0  0  0  0  0  0  0
  154.0398  141.9704  160.9390 H   0  0  0  0  0  0  0  0  0  0  0  0
  154.6228  141.5281  159.3390 H   0  0  0  0  0  0  0  0  0  0  0  0
  153.9746  143.7912  159.4308 H   0  0  0  0  0  0  0  0  0  0  0  0
  152.5425  145.8621  158.3819 H   0  0  0  0  0  0  0  0  0  0  0  0
  150.0714  144.7152  157.8717 H   0  0  0  0  0  0  0  0  0  0  0  0
  150.2116  141.6592  155.1994 H   0  0  0  0  0  0  0  0  0  0  0  0
  148.9627  141.0973  156.2779 H   0  0  0  0  0  0  0  0  0  0  0  0
  1  2  1  0  0  0  0
  1 20  1  0  0  0  0
  1 21  1  0  0  0  0
  1 22  1  0  0  0  0
  2 19  1  0  0  0  0
  2  3  1  0  0  0  0
  2 23  1  0  0  0  0
  3  4  1  0  0  0  0
  3 24  1  0  0  0  0
  3 25  1  0  0  0  0
  4  5  1  0  0  0  0
  4 26  1  0  0  0  0
  4 27  1  0  0  0  0
  5  6  1  0  0  0  0
  5 28  1  0  0  0  0
  5 29  1  0  0  0  0
  6  7  1  0  0  0  0
  6  9  1  0  0  0  0
  6 19  1  0  0  0  0
  7  8  3  0  0  0  0
  9 10  1  0  0  0  0
  9 30  1  0  0  0  0
 10 11  2  0  0  0  0
 10 12  1  0  0  0  0
 12 13  1  0  0  0  0
 12 14  1  0  0  0  0
 12 31  1  0  0  0  0
 13 32  1  0  0  0  0
 13 33  1  0  0  0  0
 13 34  1  0  0  0  0
 14 18  1  0  0  0  0
 14 15  1  0  0  0  0
 15 16  2  0  0  0  0
 15 35  1  0  0  0  0
 16 17  1  0  0  0  0
 16 36  1  0  0  0  0
 17 18  2  0  0  0  0
 17 37  1  0  0  0  0
 19 38  1  0  0  0  0
 19 39  1  0  0  0  0
M  END
> <s_m_source_file>
AV-unprocessed.smi

> <i_m_source_file_index>
765

> <i_lp_mmshare_version>
43012

> <i_f3d_flags>
0

> <s_epik_input>
W0NIM11bQ0BASF0oW0NIMl0xKVtDSDJdW0NIMl1bQ0gyXVtDQEBdMShDI04pW05IXUMoPU8pW0NASF0oW0NIM10pbjJbY0hdW2NIXVtjSF1uMg==

> <s_epik_cmdline>
J2VwaWtfcHl0aG9uJywgJy1waCcsICc3LjAnLCAnLXRuJywgJzgnLCAnLW1hJywgJzIwMCcsICctbWV0YWxfYmluZGluZycsICctaW1hZScsICc8aW5maWxlLm1hZT4nLCAnLW9tYWUnLCAnPG91dGZpbGUubWFlPic=

> <r_lp_tautomer_probability>
1

> <r_epik_Ionization_Penalty>
2.71142e-05

> <r_epik_Ionization_Penalty_Charging>
0

> <r_epik_Ionization_Penalty_Neutral>
2.71142e-05

> <r_epik_State_Penalty>
-0

> <r_epik_Charging_Adjusted_Penalty>
0

> <i_epik_Tot_Q>
0

> <i_epik_Tot_abs_Q>
0

> <r_epik_Metal_State_Penalty>
-0

> <b_epik_Metal_Only>
0

> <s_lp_Force_Field>
OPLS_2005

> <r_lp_Energy>
10.7608

> <b_lp_Chiralities_Consistent>
1

> <s_lp_Variant>
AV-unprocessed.smi:765-7

> <Gold.Version>
5.8.1

> <Gold.Id.Protein>
6NUR|6NUR_protein|mol2

> <Gold.PLP.Fitness>
46.4635

> <Gold.PLP.PLP>
-39.0061

> <Gold.PLP.part.hbond>
-3.0000

> <Gold.PLP.part.metal>
0.0000

> <Gold.PLP.part.buried>
-2.4873

> <Gold.PLP.part.nonpolar>
-33.7628

> <Gold.PLP.part.repulsive>
0.1653

> <Gold.PLP.ligand.clash>
0.0000

> <Gold.PLP.ligand.torsion>
0.8054

> <Gold.PLP.Chemscore.Hbond>
1.9433

> <Gold.PLP.Chemscore.CHOScore>
1.0576

> <Gold.PLP.Chemscore.Metal>
0.0000

> <Gold.Chemscore.Hbonds>
donor molecule, donor type, donor heavy atom, donor atom, acceptor molecule, acceptor atom, score
      P1  H  7997  8010       L1     8  0.38
      L1  C    17    37       P1  8028  0.65
      L1  C    17    37       P1  8029  0.43

> <Gold.PLP.Chemscore.Internal.Correction>
0.0656

> <Gold.Rescore>
     Score         DG    S(hbond)    S(metal)    S(lipo)     H(rot)  DE(clash)    DE(int)     intcor
     12.37     -15.74       0.90        0.00      93.15       1.42       0.02       3.35       ----

> <Gold.Chemscore.Fitness>
12.3674

> <Gold.Chemscore.DG>
-15.7385

> <Gold.Chemscore.ZeroCoef>
-5.4800

> <Gold.Chemscore.Hbond>
0.8955

> <Gold.Chemscore.Metal>
0.0000

> <Gold.Chemscore.Lipo>
93.1485

> <Gold.Chemscore.Internal_Hbond>
0.0000

> <Gold.Chemscore.DEClash>
0.0201

> <Gold.Chemscore.DEInternal>
3.3510

> <Gold.Chemscore.Rot>
1.4183

> <Gold.Chemscore.Internal.Correction>
   9.000000E+99

> <Gold.Chemscore.Hbonds>
donor molecule, donor type, donor heavy atom, donor atom, acceptor molecule, acceptor atom, score
      P1  H  7997  8010       L1     8  0.34

> <Gold.Chemscore.Hbond.Weighted>
-2.9910

> <Gold.Chemscore.Metal.Weighted>
-0.0000

> <Gold.Chemscore.Lipo.Weighted>
-10.8984

> <Gold.Chemscore.Internal_Hbond.Weighted>
0.0000

> <Gold.Chemscore.DEClash.Weighted>
0.0201

> <Gold.Chemscore.DEInternal.Weighted>
3.3510

> <Gold.Chemscore.Rot.Weighted>
3.6309

> <Gold.Chemscore.Internal.Correction.Weighted>
   9.000000E+99

> <Gold.Protein.RotatedTorsions>
[ 6907 6896 6895 6894 ] final  -48.40 input  -60.11 | X-H torsion
[ 7974 7965 7964 7962 ] final  112.13 input  175.53 | X-H torsion
[ 8008 7997 7996 7995 ] final  133.75 input   59.86 | X-H torsion
[ 10167 10162 10161 10158 ] final   31.81 input  -65.29 | X-H torsion
[ 10718 10713 10712 10709 ] final   81.44 input   66.30 | X-H torsion
[ 10763 10752 10751 10750 ] final -168.99 input  -60.55 | X-H torsion
[ 11005 11000 10999 10996 ] final -146.98 input  -57.11 | X-H torsion

> <Gold.Protein.ActiveResidues>
 VAL166  LYS551  ARG553  GLY616  TRP617  ASP618  TYR619  PRO620  LYS621  CYS622 
 ASP623  PHE694  ASN695  SER759  ASP760  ASP761  ALA762  ILE779  LEU786  VAL792 
 PHE793  MET794  SER795  GLU796  ALA797  LYS798  CYS799  TRP800  GLU811  SER814 

> <Gold.Protein.RotatedAtoms>
  150.8909  134.8313  159.7292 H   0  0  0  0  0  0  0  0  0  0  0  0  # atno 6907 bound_to 6896
  152.4836  134.4649  159.9627 H   0  0  0  0  0  0  0  0  0  0  0  0  # atno 6908 bound_to 6896
  151.4712  133.3530  159.2859 H   0  0  0  0  0  0  0  0  0  0  0  0  # atno 6909 bound_to 6896
  145.2335  139.2809  143.4155 H   0  0  0  0  0  0  0  0  0  0  0  0  # atno 7974 bound_to 7965
  156.2994  140.2513  156.3305 H   0  0  0  0  0  0  0  0  0  0  0  0  # atno 8008 bound_to 7997
  154.9150  140.0402  157.1986 H   0  0  0  0  0  0  0  0  0  0  0  0  # atno 8009 bound_to 7997
  154.8368  140.2884  155.5690 H   0  0  0  0  0  0  0  0  0  0  0  0  # atno 8010 bound_to 7997
  140.4555  144.0984  150.6201 H   0  0  0  0  0  0  0  0  0  0  0  0  # atno 10167 bound_to 10162
  157.6833  131.0004  150.2227 H   0  0  0  0  0  0  0  0  0  0  0  0  # atno 10718 bound_to 10713
  154.6570  135.2919  154.9915 H   0  0  0  0  0  0  0  0  0  0  0  0  # atno 10763 bound_to 10752
  154.0988  135.6580  153.4868 H   0  0  0  0  0  0  0  0  0  0  0  0  # atno 10764 bound_to 10752
  153.0408  135.5237  154.7504 H   0  0  0  0  0  0  0  0  0  0  0  0  # atno 10765 bound_to 10752
  140.7764  134.3130  157.5059 H   0  0  0  0  0  0  0  0  0  0  0  0  # atno 11005 bound_to 11000
  146.3347  140.2677  142.8604 LP  0  0  0  0  0  0  0  0  0  0  0  0  # atno 17320 bound_to 7965
  144.9655  140.8317  143.5487 LP  0  0  0  0  0  0  0  0  0  0  0  0  # atno 17321 bound_to 7965
  140.4156  143.2636  151.9779 LP  0  0  0  0  0  0  0  0  0  0  0  0  # atno 17342 bound_to 10162
  139.4801  144.5877  151.7826 LP  0  0  0  0  0  0  0  0  0  0  0  0  # atno 17343 bound_to 10162
  156.2875  130.3741  149.7874 LP  0  0  0  0  0  0  0  0  0  0  0  0  # atno 17370 bound_to 10713
  156.5544  130.8356  151.3309 LP  0  0  0  0  0  0  0  0  0  0  0  0  # atno 17371 bound_to 10713
  139.8748  134.9292  156.3469 LP  0  0  0  0  0  0  0  0  0  0  0  0  # atno 17394 bound_to 11000
  140.9525  133.7442  156.0291 LP  0  0  0  0  0  0  0  0  0  0  0  0  # atno 17395 bound_to 11000

$$$$
