AV-unprocessed.smi:798|AV-procd|sdf|3774|dock2
  -GOLD-   22720 1203D 1   1.00000     0.00000
 Structure written by MMmdl.
 34 36  0  0  0  0  0  0  0  0  1 V2000
  145.2701  137.9073  153.4795 O   0  0  0  0  0  0  0  0  0  0  0  0
  146.3522  137.5285  153.0305 C   0  0  0  0  0  0  0  0  0  0  0  0
  147.4543  138.2896  152.9148 N   0  0  0  0  0  0  0  0  0  0  0  0
  147.6227  139.6545  153.2681 C   0  0  0  0  0  0  0  0  0  0  0  0
  146.6674  140.5857  153.1203 N   0  0  0  0  0  0  0  0  0  0  0  0
  147.0930  141.8383  153.5433 N   0  0  0  0  0  0  0  0  0  0  0  0
  148.3507  141.8027  153.9923 C   0  0  0  0  0  0  0  0  0  0  0  0
  149.1392  140.2356  153.9410 S   0  0  0  0  0  0  0  0  0  0  0  0
  146.5782  136.2832  152.5891 N   0  0  0  0  0  0  0  0  0  0  0  0
  145.6043  135.1941  152.5951 C   0  0  1  0  0  0  0  0  0  0  0  0
  144.3191  135.6146  151.8481 C   0  0  2  0  0  0  0  0  0  0  0  0
  143.1945  134.6268  152.2059 C   0  0  0  0  0  0  0  0  0  0  0  0
  143.6182  133.3536  151.4496 C   0  0  0  0  0  0  0  0  0  0  0  0
  144.9325  133.7802  150.7605 C   0  0  1  0  0  0  0  0  0  0  0  0
  144.6193  135.2274  150.4027 C   0  0  0  0  0  0  0  0  0  0  0  0
  146.0845  133.9673  151.7769 C   0  0  2  0  0  0  0  0  0  0  0  0
  146.4228  132.7187  152.6143 C   0  0  0  0  0  0  0  0  0  0  0  0
  146.6199  131.6056  151.7693 O   0  0  0  0  0  0  0  0  0  0  0  0
  148.2707  137.8386  152.5296 H   0  0  0  0  0  0  0  0  0  0  0  0
  148.8178  142.7057  154.3563 H   0  0  0  0  0  0  0  0  0  0  0  0
  147.4976  136.0642  152.2351 H   0  0  0  0  0  0  0  0  0  0  0  0
  145.3595  134.9223  153.6240 H   0  0  0  0  0  0  0  0  0  0  0  0
  144.0371  136.6574  151.9988 H   0  0  0  0  0  0  0  0  0  0  0  0
  143.1050  134.4652  153.2807 H   0  0  0  0  0  0  0  0  0  0  0  0
  142.2314  134.9860  151.8412 H   0  0  0  0  0  0  0  0  0  0  0  0
  143.7343  132.4926  152.1069 H   0  0  0  0  0  0  0  0  0  0  0  0
  142.8664  133.0912  150.7041 H   0  0  0  0  0  0  0  0  0  0  0  0
  145.2021  133.1520  149.9112 H   0  0  0  0  0  0  0  0  0  0  0  0
  143.7602  135.3354  149.7383 H   0  0  0  0  0  0  0  0  0  0  0  0
  145.4685  135.7640  149.9758 H   0  0  0  0  0  0  0  0  0  0  0  0
  146.9731  134.2337  151.2003 H   0  0  0  0  0  0  0  0  0  0  0  0
  147.3199  132.8675  153.2148 H   0  0  0  0  0  0  0  0  0  0  0  0
  145.6056  132.4882  153.2980 H   0  0  0  0  0  0  0  0  0  0  0  0
  147.4704  131.6805  151.3641 H   0  0  0  0  0  0  0  0  0  0  0  0
  1  2  2  0  0  0  0
  2  3  1  0  0  0  0
  2  9  1  0  0  0  0
  3  4  1  0  0  0  0
  3 19  1  0  0  0  0
  4  8  1  0  0  0  0
  4  5  2  0  0  0  0
  5  6  1  0  0  0  0
  6  7  2  0  0  0  0
  7  8  1  0  0  0  0
  7 20  1  0  0  0  0
  9 10  1  0  0  0  0
  9 21  1  0  0  0  0
 10 16  1  0  0  0  0
 10 11  1  0  0  0  0
 10 22  1  0  0  0  0
 11 15  1  0  0  0  0
 11 12  1  0  0  0  0
 11 23  1  0  0  0  0
 12 13  1  0  0  0  0
 12 24  1  0  0  0  0
 12 25  1  0  0  0  0
 13 14  1  0  0  0  0
 13 26  1  0  0  0  0
 13 27  1  0  0  0  0
 14 15  1  0  0  0  0
 14 16  1  0  0  0  0
 14 28  1  0  0  0  0
 15 29  1  0  0  0  0
 15 30  1  0  0  0  0
 16 17  1  0  0  0  0
 16 31  1  0  0  0  0
 17 18  1  0  0  0  0
 17 32  1  0  0  0  0
 17 33  1  0  0  0  0
 18 34  1  0  0  0  0
M  END
> <s_m_source_file>
AV-unprocessed.smi

> <i_m_source_file_index>
798

> <i_lp_mmshare_version>
43012

> <i_f3d_flags>
0

> <s_epik_input>
W0NIMl0xW0NIMl1bQ0BASF0oW0NIMl0yKVtDQEBIXShbQ0gyXVtPSF0pW0NAQEhdKFtDQEhdMTIpW05IXUMoPU8pW05IXWMzbm5bY0hdczM=

> <s_epik_cmdline>
J2VwaWtfcHl0aG9uJywgJy1waCcsICc3LjAnLCAnLXRuJywgJzgnLCAnLW1hJywgJzIwMCcsICctbWV0YWxfYmluZGluZycsICctaW1hZScsICc8aW5maWxlLm1hZT4nLCAnLW9tYWUnLCAnPG91dGZpbGUubWFlPic=

> <r_lp_tautomer_probability>
1

> <r_epik_Ionization_Penalty>
0.000329046

> <r_epik_Ionization_Penalty_Charging>
0

> <r_epik_Ionization_Penalty_Neutral>
0.000329046

> <r_epik_State_Penalty>
-0

> <r_epik_Charging_Adjusted_Penalty>
0

> <i_epik_Tot_Q>
0

> <i_epik_Tot_abs_Q>
0

> <r_epik_Metal_State_Penalty>
0.173433

> <b_epik_Metal_Only>
0

> <s_lp_Force_Field>
OPLS_2005

> <r_lp_Energy>
48.4277

> <b_lp_Chiralities_Consistent>
1

> <s_lp_Variant>
AV-unprocessed.smi:798-6

> <Gold.Version>
5.8.1

> <Gold.Id.Protein>
6NUR|6NUR_protein|mol2

> <Gold.PLP.Fitness>
38.9973

> <Gold.PLP.PLP>
-27.9399

> <Gold.PLP.part.hbond>
-2.9114

> <Gold.PLP.part.metal>
0.0000

> <Gold.PLP.part.buried>
-3.8232

> <Gold.PLP.part.nonpolar>
-22.0055

> <Gold.PLP.part.repulsive>
0.5545

> <Gold.PLP.ligand.clash>
0.0000

> <Gold.PLP.ligand.torsion>
0.3750

> <Gold.PLP.Chemscore.Hbond>
2.9280

> <Gold.PLP.Chemscore.CHOScore>
1.0000

> <Gold.PLP.Chemscore.Metal>
0.0000

> <Gold.Chemscore.Hbonds>
donor molecule, donor type, donor heavy atom, donor atom, acceptor molecule, acceptor atom, score
      L1  H     3    19       P1  7948  0.91
      L1  H     9    21       P1  7948  0.91
      L1  H    18    34       P1 10747  0.98
      L1  C     7    20       P1  8028  1.00

> <Gold.PLP.Chemscore.Internal.Correction>
0.0234

> <Gold.Rescore>
     Score         DG    S(hbond)    S(metal)    S(lipo)     H(rot)  DE(clash)    DE(int)     intcor
     15.08     -16.50       2.83        0.00      55.94       1.94       0.26       1.16       ----

> <Gold.Chemscore.Fitness>
15.0806

> <Gold.Chemscore.DG>
-16.5028

> <Gold.Chemscore.ZeroCoef>
-5.4800

> <Gold.Chemscore.Hbond>
2.8309

> <Gold.Chemscore.Metal>
0.0000

> <Gold.Chemscore.Lipo>
55.9382

> <Gold.Chemscore.Internal_Hbond>
0.0000

> <Gold.Chemscore.DEClash>
0.2617

> <Gold.Chemscore.DEInternal>
1.1605

> <Gold.Chemscore.Rot>
1.9442

> <Gold.Chemscore.Internal.Correction>
   9.000000E+99

> <Gold.Chemscore.Hbonds>
donor molecule, donor type, donor heavy atom, donor atom, acceptor molecule, acceptor atom, score
      L1  H     3    19       P1  7948  0.90
      L1  H     9    21       P1  7948  0.87
      L1  H    18    34       P1 10747  0.87

> <Gold.Chemscore.Hbond.Weighted>
-9.4551

> <Gold.Chemscore.Metal.Weighted>
-0.0000

> <Gold.Chemscore.Lipo.Weighted>
-6.5448

> <Gold.Chemscore.Internal_Hbond.Weighted>
0.0000

> <Gold.Chemscore.DEClash.Weighted>
0.2617

> <Gold.Chemscore.DEInternal.Weighted>
1.1605

> <Gold.Chemscore.Rot.Weighted>
4.9771

> <Gold.Chemscore.Internal.Correction.Weighted>
   9.000000E+99

> <Gold.Protein.RotatedTorsions>
[ 6907 6896 6895 6894 ] final   55.91 input  -60.11 | X-H torsion
[ 7974 7965 7964 7962 ] final  -17.96 input  175.53 | X-H torsion
[ 8008 7997 7996 7995 ] final   96.79 input   59.86 | X-H torsion
[ 10167 10162 10161 10158 ] final  144.35 input  -65.29 | X-H torsion
[ 10718 10713 10712 10709 ] final -136.42 input   66.30 | X-H torsion
[ 10763 10752 10751 10750 ] final  174.24 input  -60.55 | X-H torsion
[ 11005 11000 10999 10996 ] final   52.73 input  -57.11 | X-H torsion

> <Gold.Protein.ActiveResidues>
 VAL166  LYS551  ARG553  GLY616  TRP617  ASP618  TYR619  PRO620  LYS621  CYS622 
 ASP623  PHE694  ASN695  SER759  ASP760  ASP761  ALA762  ILE779  LEU786  VAL792 
 PHE793  MET794  SER795  GLU796  ALA797  LYS798  CYS799  TRP800  GLU811  SER814 

> <Gold.Protein.RotatedAtoms>
  152.3584  134.6907  160.0214 H   0  0  0  0  0  0  0  0  0  0  0  0  # atno 6907 bound_to 6896
  151.7238  133.3310  159.3330 H   0  0  0  0  0  0  0  0  0  0  0  0  # atno 6908 bound_to 6896
  150.7588  134.6359  159.6255 H   0  0  0  0  0  0  0  0  0  0  0  0  # atno 6909 bound_to 6896
  146.1916  140.3853  142.8456 H   0  0  0  0  0  0  0  0  0  0  0  0  # atno 7974 bound_to 7965
  156.0834  140.3267  155.7722 H   0  0  0  0  0  0  0  0  0  0  0  0  # atno 8008 bound_to 7997
  155.5116  140.0577  157.2940 H   0  0  0  0  0  0  0  0  0  0  0  0  # atno 8009 bound_to 7997
  154.4595  140.1959  156.0301 H   0  0  0  0  0  0  0  0  0  0  0  0  # atno 8010 bound_to 7997
  139.4949  144.5978  151.6546 H   0  0  0  0  0  0  0  0  0  0  0  0  # atno 10167 bound_to 10162
  156.2769  130.7298  151.1283 H   0  0  0  0  0  0  0  0  0  0  0  0  # atno 10718 bound_to 10713
  154.4512  135.2765  155.1779 H   0  0  0  0  0  0  0  0  0  0  0  0  # atno 10763 bound_to 10752
  154.3606  135.6130  153.5692 H   0  0  0  0  0  0  0  0  0  0  0  0  # atno 10764 bound_to 10752
  152.9847  135.5833  154.4857 H   0  0  0  0  0  0  0  0  0  0  0  0  # atno 10765 bound_to 10752
  140.0825  134.5319  155.8932 H   0  0  0  0  0  0  0  0  0  0  0  0  # atno 11005 bound_to 11000
  144.8497  140.6983  143.6176 LP  0  0  0  0  0  0  0  0  0  0  0  0  # atno 17320 bound_to 7965
  145.3775  139.1644  143.4298 LP  0  0  0  0  0  0  0  0  0  0  0  0  # atno 17321 bound_to 7965
  140.5620  144.0253  150.6174 LP  0  0  0  0  0  0  0  0  0  0  0  0  # atno 17342 bound_to 10162
  140.3342  143.3059  152.0656 LP  0  0  0  0  0  0  0  0  0  0  0  0  # atno 17343 bound_to 10162
  157.7302  131.0618  150.5737 LP  0  0  0  0  0  0  0  0  0  0  0  0  # atno 17370 bound_to 10713
  156.5839  130.4311  149.5965 LP  0  0  0  0  0  0  0  0  0  0  0  0  # atno 17371 bound_to 10713
  141.2051  133.6645  156.6163 LP  0  0  0  0  0  0  0  0  0  0  0  0  # atno 17394 bound_to 11000
  140.3467  134.7803  157.4437 LP  0  0  0  0  0  0  0  0  0  0  0  0  # atno 17395 bound_to 11000

$$$$
