AV-unprocessed.smi:1632|AV-procd|sdf|6530|dock9
  -GOLD-   22720 7213D 1   1.00000     0.00000
 Structure written by MMmdl.
 43 45  0  0  0  0  0  0  0  0  2 V2000
  150.1483  135.4641  157.8254 O   0  0  0  0  0  0  0  0  0  0  0  0
  150.8635  136.4868  157.1686 C   0  0  0  0  0  0  0  0  0  0  0  0
  151.0160  136.1371  155.6799 C   0  0  0  0  0  0  0  0  0  0  0  0
  151.5519  137.2962  154.8234 C   0  0  0  0  0  0  0  0  0  0  0  0
  150.5236  138.3587  154.5954 C   0  0  0  0  0  0  0  0  0  0  0  0
  149.3851  138.2164  153.8598 N   0  3  0  0  0  0  0  0  0  0  0  0
  148.6722  139.4156  153.8540 C   0  0  0  0  0  0  0  0  0  0  0  0
  147.4655  139.7541  153.2495 C   0  0  0  0  0  0  0  0  0  0  0  0
  147.0094  141.0744  153.4430 C   0  0  0  0  0  0  0  0  0  0  0  0
  147.7439  141.9992  154.2132 C   0  0  0  0  0  0  0  0  0  0  0  0
  148.9661  141.6441  154.8209 C   0  0  0  0  0  0  0  0  0  0  0  0
  149.4120  140.3372  154.6227 C   0  0  0  0  0  0  0  0  0  0  0  0
  150.5478  139.6425  155.0575 N   0  0  0  0  0  0  0  0  0  0  0  0
  151.5441  140.3326  155.8930 C   0  0  0  0  0  0  0  0  0  0  0  0
  151.2772  140.1698  157.4034 C   0  0  2  0  0  0  0  0  0  0  0  0
  149.8872  140.1756  157.6651 O   0  0  0  0  0  0  0  0  0  0  0  0
  152.0224  141.2172  158.2188 C   0  0  0  0  0  0  0  0  0  0  0  0
  151.7768  142.5875  157.9828 C   0  0  0  0  0  0  0  0  0  0  0  0
  152.4512  143.5717  158.7306 C   0  0  0  0  0  0  0  0  0  0  0  0
  153.3756  143.1925  159.7219 C   0  0  0  0  0  0  0  0  0  0  0  0
  153.6238  141.8285  159.9655 C   0  0  0  0  0  0  0  0  0  0  0  0
  152.9502  140.8417  159.2191 C   0  0  0  0  0  0  0  0  0  0  0  0
  153.1980  139.5341  159.4729 F   0  0  0  0  0  0  0  0  0  0  0  0
  149.3295  135.3296  157.3726 H   0  0  0  0  0  0  0  0  0  0  0  0
  150.3281  137.4285  157.2903 H   0  0  0  0  0  0  0  0  0  0  0  0
  151.8356  136.5966  157.6498 H   0  0  0  0  0  0  0  0  0  0  0  0
  151.6714  135.2719  155.5719 H   0  0  0  0  0  0  0  0  0  0  0  0
  150.0452  135.8335  155.2861 H   0  0  0  0  0  0  0  0  0  0  0  0
  152.4115  137.7491  155.3179 H   0  0  0  0  0  0  0  0  0  0  0  0
  151.9139  136.9210  153.8660 H   0  0  0  0  0  0  0  0  0  0  0  0
  146.9001  139.0464  152.6609 H   0  0  0  0  0  0  0  0  0  0  0  0
  146.0769  141.3836  152.9932 H   0  0  0  0  0  0  0  0  0  0  0  0
  147.3620  143.0016  154.3424 H   0  0  0  0  0  0  0  0  0  0  0  0
  149.5159  142.3595  155.4148 H   0  0  0  0  0  0  0  0  0  0  0  0
  152.5200  139.9153  155.6447 H   0  0  0  0  0  0  0  0  0  0  0  0
  151.5894  141.3821  155.6034 H   0  0  0  0  0  0  0  0  0  0  0  0
  151.6354  139.1857  157.7079 H   0  0  0  0  0  0  0  0  0  0  0  0
  149.6692  139.3901  158.1436 H   0  0  0  0  0  0  0  0  0  0  0  0
  151.0682  142.8915  157.2263 H   0  0  0  0  0  0  0  0  0  0  0  0
  152.2587  144.6181  158.5438 H   0  0  0  0  0  0  0  0  0  0  0  0
  153.8929  143.9472  160.2958 H   0  0  0  0  0  0  0  0  0  0  0  0
  154.3316  141.5379  160.7278 H   0  0  0  0  0  0  0  0  0  0  0  0
  149.1179  137.3584  153.3947 H   0  0  0  0  0  0  0  0  0  0  0  0
  1  2  1  0  0  0  0
  1 24  1  0  0  0  0
  2  3  1  0  0  0  0
  2 25  1  0  0  0  0
  2 26  1  0  0  0  0
  3  4  1  0  0  0  0
  3 27  1  0  0  0  0
  3 28  1  0  0  0  0
  4  5  1  0  0  0  0
  4 29  1  0  0  0  0
  4 30  1  0  0  0  0
  5 13  1  0  0  0  0
  5  6  2  0  0  0  0
  6  7  1  0  0  0  0
  6 43  1  0  0  0  0
  7 12  2  0  0  0  0
  7  8  1  0  0  0  0
  8  9  2  0  0  0  0
  8 31  1  0  0  0  0
  9 10  1  0  0  0  0
  9 32  1  0  0  0  0
 10 11  2  0  0  0  0
 10 33  1  0  0  0  0
 11 12  1  0  0  0  0
 11 34  1  0  0  0  0
 12 13  1  0  0  0  0
 13 14  1  0  0  0  0
 14 15  1  0  0  0  0
 14 35  1  0  0  0  0
 14 36  1  0  0  0  0
 15 16  1  0  0  0  0
 15 17  1  0  0  0  0
 15 37  1  0  0  0  0
 16 38  1  0  0  0  0
 17 22  1  0  0  0  0
 17 18  2  0  0  0  0
 18 19  1  0  0  0  0
 18 39  1  0  0  0  0
 19 20  2  0  0  0  0
 19 40  1  0  0  0  0
 20 21  1  0  0  0  0
 20 41  1  0  0  0  0
 21 22  2  0  0  0  0
 21 42  1  0  0  0  0
 22 23  1  0  0  0  0
M  CHG  1   6   1
M  END
> <s_m_source_file>
AV-unprocessed.smi

> <i_m_source_file_index>
1632

> <i_lp_mmshare_version>
43012

> <i_f3d_flags>
0

> <s_epik_input>
W09IXVtDSDJdW0NIMl1bQ0gyXWMobjEpbihjKGMxMilbY0hdW2NIXVtjSF1bY0hdMilbQ0gyXVtDQEhdKFtPSF0pYzNbY0hdW2NIXVtjSF1bY0hdYzNG

> <s_epik_cmdline>
J2VwaWtfcHl0aG9uJywgJy1waCcsICc3LjAnLCAnLXRuJywgJzgnLCAnLW1hJywgJzIwMCcsICctbWV0YWxfYmluZGluZycsICctaW1hZScsICc8aW5maWxlLm1hZT4nLCAnLW9tYWUnLCAnPG91dGZpbGUubWFlPic=

> <r_epik_Ionization_Penalty>
0.786441

> <r_epik_Ionization_Penalty_Charging>
0.786439

> <r_epik_Ionization_Penalty_Neutral>
1.50852e-06

> <r_epik_State_Penalty>
0.816472

> <r_epik_Charging_Adjusted_Penalty>
1.60291

> <i_epik_Tot_Q>
1

> <i_epik_Tot_abs_Q>
1

> <r_epik_Metal_State_Penalty>
4.73733

> <b_epik_Metal_Only>
0

> <s_lp_Force_Field>
OPLS_2005

> <r_lp_Energy>
17.2969

> <b_lp_Chiralities_Consistent>
1

> <s_lp_Variant>
AV-unprocessed.smi:1632-3

> <Gold.Version>
5.8.1

> <Gold.Id.Protein>
6NUR|6NUR_protein|mol2

> <Gold.PLP.Fitness>
57.3882

> <Gold.PLP.PLP>
-50.2616

> <Gold.PLP.part.hbond>
-2.3423

> <Gold.PLP.part.metal>
0.0000

> <Gold.PLP.part.buried>
-1.3313

> <Gold.PLP.part.nonpolar>
-47.4334

> <Gold.PLP.part.repulsive>
0.0395

> <Gold.PLP.ligand.clash>
0.0000

> <Gold.PLP.ligand.torsion>
0.7325

> <Gold.PLP.Chemscore.Hbond>
2.8406

> <Gold.PLP.Chemscore.CHOScore>
0.0000

> <Gold.PLP.Chemscore.Metal>
0.0000

> <Gold.Chemscore.Hbonds>
donor molecule, donor type, donor heavy atom, donor atom, acceptor molecule, acceptor atom, score
      L1  H     6    43       P1  7948  2.00
      P1  H  6896  6907       L1     1  0.77

> <Gold.PLP.Chemscore.Internal.Correction>
0.0698

> <Gold.Rescore>
     Score         DG    S(hbond)    S(metal)    S(lipo)     H(rot)  DE(clash)    DE(int)     intcor
     16.92     -17.55       1.79        0.00     121.27       3.16       0.07       0.57       ----

> <Gold.Chemscore.Fitness>
16.9179

> <Gold.Chemscore.DG>
-17.5508

> <Gold.Chemscore.ZeroCoef>
-5.4800

> <Gold.Chemscore.Hbond>
1.7884

> <Gold.Chemscore.Metal>
0.0000

> <Gold.Chemscore.Lipo>
121.2663

> <Gold.Chemscore.Internal_Hbond>
0.0000

> <Gold.Chemscore.DEClash>
0.0650

> <Gold.Chemscore.DEInternal>
0.5678

> <Gold.Chemscore.Rot>
3.1604

> <Gold.Chemscore.Internal.Correction>
   9.000000E+99

> <Gold.Chemscore.Hbonds>
donor molecule, donor type, donor heavy atom, donor atom, acceptor molecule, acceptor atom, score
      L1  H     6    43       P1  7948  0.96
      P1  H  6896  6907       L1     1  0.73

> <Gold.Chemscore.Hbond.Weighted>
-5.9733

> <Gold.Chemscore.Metal.Weighted>
-0.0000

> <Gold.Chemscore.Lipo.Weighted>
-14.1882

> <Gold.Chemscore.Internal_Hbond.Weighted>
0.0000

> <Gold.Chemscore.DEClash.Weighted>
0.0650

> <Gold.Chemscore.DEInternal.Weighted>
0.5678

> <Gold.Chemscore.Rot.Weighted>
8.0907

> <Gold.Chemscore.Internal.Correction.Weighted>
   9.000000E+99

> <Gold.Protein.RotatedTorsions>
[ 6907 6896 6895 6894 ] final  -66.36 input  -60.11 | X-H torsion
[ 7974 7965 7964 7962 ] final  -40.09 input  175.53 | X-H torsion
[ 8008 7997 7996 7995 ] final   25.39 input   59.86 | X-H torsion
[ 10167 10162 10161 10158 ] final   70.10 input  -65.29 | X-H torsion
[ 10718 10713 10712 10709 ] final   82.58 input   66.30 | X-H torsion
[ 10763 10752 10751 10750 ] final -158.11 input  -60.55 | X-H torsion
[ 11005 11000 10999 10996 ] final   11.51 input  -57.11 | X-H torsion

> <Gold.Protein.ActiveResidues>
 VAL166  LYS551  ARG553  GLY616  TRP617  ASP618  TYR619  PRO620  LYS621  CYS622 
 ASP623  PHE694  ASN695  SER759  ASP760  ASP761  ALA762  ILE779  LEU786  VAL792 
 PHE793  MET794  SER795  GLU796  ALA797  LYS798  CYS799  TRP800  GLU811  SER814 

> <Gold.Protein.RotatedAtoms>
  150.7470  134.6031  159.6046 H   0  0  0  0  0  0  0  0  0  0  0  0  # atno 6907 bound_to 6896
  152.3387  134.7161  160.0279 H   0  0  0  0  0  0  0  0  0  0  0  0  # atno 6908 bound_to 6896
  151.7620  133.3298  159.3457 H   0  0  0  0  0  0  0  0  0  0  0  0  # atno 6909 bound_to 6896
  146.0336  140.6699  142.9120 H   0  0  0  0  0  0  0  0  0  0  0  0  # atno 7974 bound_to 7965
  155.0111  140.3136  155.4829 H   0  0  0  0  0  0  0  0  0  0  0  0  # atno 8008 bound_to 7997
  156.2909  140.2214  156.5166 H   0  0  0  0  0  0  0  0  0  0  0  0  # atno 8009 bound_to 7997
  154.7534  140.0464  157.0901 H   0  0  0  0  0  0  0  0  0  0  0  0  # atno 8010 bound_to 7997
  140.0606  144.5236  150.7297 H   0  0  0  0  0  0  0  0  0  0  0  0  # atno 10167 bound_to 10162
  157.6860  131.0054  150.2396 H   0  0  0  0  0  0  0  0  0  0  0  0  # atno 10718 bound_to 10713
  154.7582  135.3110  154.8428 H   0  0  0  0  0  0  0  0  0  0  0  0  # atno 10763 bound_to 10752
  153.9196  135.6797  153.4752 H   0  0  0  0  0  0  0  0  0  0  0  0  # atno 10764 bound_to 10752
  153.1181  135.4835  154.9080 H   0  0  0  0  0  0  0  0  0  0  0  0  # atno 10765 bound_to 10752
  140.5025  134.0732  155.7797 H   0  0  0  0  0  0  0  0  0  0  0  0  # atno 11005 bound_to 11000
  144.7042  140.3781  143.7132 LP  0  0  0  0  0  0  0  0  0  0  0  0  # atno 17320 bound_to 7965
  145.7000  139.1659  143.2598 LP  0  0  0  0  0  0  0  0  0  0  0  0  # atno 17321 bound_to 7965
  140.7173  143.2556  151.4392 LP  0  0  0  0  0  0  0  0  0  0  0  0  # atno 17342 bound_to 10162
  139.5896  144.1528  152.2072 LP  0  0  0  0  0  0  0  0  0  0  0  0  # atno 17343 bound_to 10162
  156.3013  130.3759  149.7748 LP  0  0  0  0  0  0  0  0  0  0  0  0  # atno 17370 bound_to 10713
  156.5377  130.8286  151.3258 LP  0  0  0  0  0  0  0  0  0  0  0  0  # atno 17371 bound_to 10713
  141.1428  133.9108  157.2286 LP  0  0  0  0  0  0  0  0  0  0  0  0  # atno 17394 bound_to 11000
  139.9705  135.0129  156.9500 LP  0  0  0  0  0  0  0  0  0  0  0  0  # atno 17395 bound_to 11000

$$$$
