AV-unprocessed.smi:1616|AV-procd|sdf|6483|dock8
  -GOLD-   22720 7143D 1   1.00000     0.00000
 Structure written by MMmdl.
 38 39  0  0  0  0  0  0  0  0  1 V2000
  146.8477  137.1480  162.7059 C   0  0  0  0  0  0  0  0  0  0  0  0
  147.3766  136.2919  161.5870 C   0  0  0  0  0  0  0  0  0  0  0  0
  147.9483  136.9078  160.6050 N   0  0  0  0  0  0  0  0  0  0  0  0
  148.4623  136.2174  159.5242 N   0  0  0  0  0  0  0  0  0  0  0  0
  149.0573  137.0772  158.4905 C   0  0  0  0  0  0  0  0  0  0  0  0
  148.0494  138.0438  157.8515 C   0  0  0  0  0  0  0  0  0  0  0  0
  146.8647  138.0323  158.1887 O   0  0  0  0  0  0  0  0  0  0  0  0
  148.5475  138.8935  156.9400 N   0  0  0  0  0  0  0  0  0  0  0  0
  147.7821  139.8943  156.2030 C   0  0  1  0  0  0  0  0  0  0  0  0
  147.4943  141.1008  157.1105 C   0  0  0  0  0  0  0  0  0  0  0  0
  148.4775  140.3304  154.9273 C   0  0  0  0  0  0  0  0  0  0  0  0
  147.7077  140.9812  153.8029 C   0  0  0  0  0  0  0  0  0  0  0  0
  148.2662  139.5863  153.6308 C   0  0  0  0  0  0  0  0  0  0  0  0
  148.4323  134.8606  159.3841 C   0  0  0  0  0  0  0  0  0  0  0  0
  148.9079  134.2855  158.4037 O   0  0  0  0  0  0  0  0  0  0  0  0
  147.7852  134.1694  160.5013 C   0  0  0  0  0  0  0  0  0  0  0  0
  147.7282  132.7473  160.3918 C   0  0  0  0  0  0  0  0  0  0  0  0
  147.6944  131.5925  160.3192 N   0  0  0  0  0  0  0  0  0  0  0  0
  147.2740  134.8363  161.5663 C   0  0  0  0  0  0  0  0  0  0  0  0
  146.5912  134.1659  162.7507 C   0  0  0  0  0  0  0  0  0  0  0  0
  147.3531  136.9150  163.6432 H   0  0  0  0  0  0  0  0  0  0  0  0
  145.7792  136.9841  162.8470 H   0  0  0  0  0  0  0  0  0  0  0  0
  146.9934  138.2112  162.5085 H   0  0  0  0  0  0  0  0  0  0  0  0
  149.8694  137.6704  158.9144 H   0  0  0  0  0  0  0  0  0  0  0  0
  149.5189  136.4622  157.7155 H   0  0  0  0  0  0  0  0  0  0  0  0
  149.5334  138.8343  156.7306 H   0  0  0  0  0  0  0  0  0  0  0  0
  146.8249  139.4559  155.9139 H   0  0  0  0  0  0  0  0  0  0  0  0
  146.8959  141.8487  156.5893 H   0  0  0  0  0  0  0  0  0  0  0  0
  148.4175  141.5819  157.4357 H   0  0  0  0  0  0  0  0  0  0  0  0
  146.9409  140.8044  158.0022 H   0  0  0  0  0  0  0  0  0  0  0  0
  149.4812  140.7188  155.0913 H   0  0  0  0  0  0  0  0  0  0  0  0
  146.6298  141.0794  153.9153 H   0  0  0  0  0  0  0  0  0  0  0  0
  148.1957  141.7889  153.2614 H   0  0  0  0  0  0  0  0  0  0  0  0
  149.1267  139.4648  152.9762 H   0  0  0  0  0  0  0  0  0  0  0  0
  147.5593  138.7586  153.6299 H   0  0  0  0  0  0  0  0  0  0  0  0
  146.6161  133.0788  162.6804 H   0  0  0  0  0  0  0  0  0  0  0  0
  145.5453  134.4683  162.8081 H   0  0  0  0  0  0  0  0  0  0  0  0
  147.0813  134.4419  163.6848 H   0  0  0  0  0  0  0  0  0  0  0  0
  1  2  1  0  0  0  0
  1 21  1  0  0  0  0
  1 22  1  0  0  0  0
  1 23  1  0  0  0  0
  2 19  1  0  0  0  0
  2  3  2  0  0  0  0
  3  4  1  0  0  0  0
  4  5  1  0  0  0  0
  4 14  1  0  0  0  0
  5  6  1  0  0  0  0
  5 24  1  0  0  0  0
  5 25  1  0  0  0  0
  6  7  2  0  0  0  0
  6  8  1  0  0  0  0
  8  9  1  0  0  0  0
  8 26  1  0  0  0  0
  9 10  1  0  0  0  0
  9 11  1  0  0  0  0
  9 27  1  0  0  0  0
 10 28  1  0  0  0  0
 10 29  1  0  0  0  0
 10 30  1  0  0  0  0
 11 13  1  0  0  0  0
 11 12  1  0  0  0  0
 11 31  1  0  0  0  0
 12 13  1  0  0  0  0
 12 32  1  0  0  0  0
 12 33  1  0  0  0  0
 13 34  1  0  0  0  0
 13 35  1  0  0  0  0
 14 15  2  0  0  0  0
 14 16  1  0  0  0  0
 16 17  1  0  0  0  0
 16 19  2  0  0  0  0
 17 18  3  0  0  0  0
 19 20  1  0  0  0  0
 20 36  1  0  0  0  0
 20 37  1  0  0  0  0
 20 38  1  0  0  0  0
M  END
> <s_m_source_file>
AV-unprocessed.smi

> <i_m_source_file_index>
1616

> <i_lp_mmshare_version>
43012

> <i_f3d_flags>
0

> <s_epik_input>
TiNDYyhjMVtDSDNdKWMoPU8pbihuYzFbQ0gzXSlbQ0gyXUMoPU8pW05IXVtDQEhdKFtDSDNdKVtDSF0yW0NIMl1bQ0gyXTI=

> <s_epik_cmdline>
J2VwaWtfcHl0aG9uJywgJy1waCcsICc3LjAnLCAnLXRuJywgJzgnLCAnLW1hJywgJzIwMCcsICctbWV0YWxfYmluZGluZycsICctaW1hZScsICc8aW5maWxlLm1hZT4nLCAnLW9tYWUnLCAnPG91dGZpbGUubWFlPic=

> <r_lp_tautomer_probability>
1

> <r_epik_Ionization_Penalty>
1.93246e-08

> <r_epik_Ionization_Penalty_Charging>
2.27031e-11

> <r_epik_Ionization_Penalty_Neutral>
1.93019e-08

> <r_epik_State_Penalty>
-0

> <r_epik_Charging_Adjusted_Penalty>
2.27031e-11

> <i_epik_Tot_Q>
0

> <i_epik_Tot_abs_Q>
0

> <r_epik_Metal_State_Penalty>
-0

> <b_epik_Metal_Only>
0

> <s_lp_Force_Field>
OPLS_2005

> <r_lp_Energy>
27.6916

> <b_lp_Chiralities_Consistent>
1

> <s_lp_Variant>
AV-unprocessed.smi:1616-2

> <Gold.Version>
5.8.1

> <Gold.Id.Protein>
6NUR|6NUR_protein|mol2

> <Gold.PLP.Fitness>
39.1239

> <Gold.PLP.PLP>
-31.7654

> <Gold.PLP.part.hbond>
-4.0000

> <Gold.PLP.part.metal>
0.0000

> <Gold.PLP.part.buried>
-0.5642

> <Gold.PLP.part.nonpolar>
-27.9663

> <Gold.PLP.part.repulsive>
0.0742

> <Gold.PLP.ligand.clash>
0.0000

> <Gold.PLP.ligand.torsion>
0.8082

> <Gold.PLP.Chemscore.Hbond>
2.6334

> <Gold.PLP.Chemscore.CHOScore>
0.0000

> <Gold.PLP.Chemscore.Metal>
0.0000

> <Gold.Chemscore.Hbonds>
donor molecule, donor type, donor heavy atom, donor atom, acceptor molecule, acceptor atom, score
      P1  H  6896  6907       L1    15  0.64
      P1  H  6931  6943       L1     3  0.44
      P1  H  6934  6947       L1     3  0.34

> <Gold.PLP.Chemscore.Internal.Correction>
1.0746

> <Gold.Rescore>
     Score         DG    S(hbond)    S(metal)    S(lipo)     H(rot)  DE(clash)    DE(int)     intcor
     12.26     -15.08       1.90        0.00      64.63       1.68       0.28       2.54       ----

> <Gold.Chemscore.Fitness>
12.2574

> <Gold.Chemscore.DG>
-15.0790

> <Gold.Chemscore.ZeroCoef>
-5.4800

> <Gold.Chemscore.Hbond>
1.8984

> <Gold.Chemscore.Metal>
0.0000

> <Gold.Chemscore.Lipo>
64.6277

> <Gold.Chemscore.Internal_Hbond>
0.0000

> <Gold.Chemscore.DEClash>
0.2825

> <Gold.Chemscore.DEInternal>
2.5392

> <Gold.Chemscore.Rot>
1.6809

> <Gold.Chemscore.Internal.Correction>
   9.000000E+99

> <Gold.Chemscore.Hbonds>
donor molecule, donor type, donor heavy atom, donor atom, acceptor molecule, acceptor atom, score
      P1  H  6896  6907       L1    15  0.05
      P1  H  6931  6943       L1     3  0.04
      P1  H  6934  6947       L1     3  0.10

> <Gold.Chemscore.Hbond.Weighted>
-6.3406

> <Gold.Chemscore.Metal.Weighted>
-0.0000

> <Gold.Chemscore.Lipo.Weighted>
-7.5614

> <Gold.Chemscore.Internal_Hbond.Weighted>
0.0000

> <Gold.Chemscore.DEClash.Weighted>
0.2825

> <Gold.Chemscore.DEInternal.Weighted>
2.5392

> <Gold.Chemscore.Rot.Weighted>
4.3030

> <Gold.Chemscore.Internal.Correction.Weighted>
   9.000000E+99

> <Gold.Protein.RotatedTorsions>
[ 6907 6896 6895 6894 ] final -109.36 input  -60.11 | X-H torsion
[ 7974 7965 7964 7962 ] final  -62.03 input  175.53 | X-H torsion
[ 8008 7997 7996 7995 ] final  105.37 input   59.86 | X-H torsion
[ 10167 10162 10161 10158 ] final    1.63 input  -65.29 | X-H torsion
[ 10718 10713 10712 10709 ] final -124.64 input   66.30 | X-H torsion
[ 10763 10752 10751 10750 ] final   10.88 input  -60.55 | X-H torsion
[ 11005 11000 10999 10996 ] final  -63.08 input  -57.11 | X-H torsion

> <Gold.Protein.ActiveResidues>
 VAL166  LYS551  ARG553  GLY616  TRP617  ASP618  TYR619  PRO620  LYS621  CYS622 
 ASP623  PHE694  ASN695  SER759  ASP760  ASP761  ALA762  ILE779  LEU786  VAL792 
 PHE793  MET794  SER795  GLU796  ALA797  LYS798  CYS799  TRP800  GLU811  SER814 

> <Gold.Protein.RotatedAtoms>
  150.7557  133.9541  159.3494 H   0  0  0  0  0  0  0  0  0  0  0  0  # atno 6907 bound_to 6896
  151.7461  135.0841  160.0333 H   0  0  0  0  0  0  0  0  0  0  0  0  # atno 6908 bound_to 6896
  152.3497  133.6127  159.5971 H   0  0  0  0  0  0  0  0  0  0  0  0  # atno 6909 bound_to 6896
  145.7962  140.8681  143.0255 H   0  0  0  0  0  0  0  0  0  0  0  0  # atno 7974 bound_to 7965
  156.1653  140.3131  155.8879 H   0  0  0  0  0  0  0  0  0  0  0  0  # atno 8008 bound_to 7997
  155.3698  140.0481  157.3062 H   0  0  0  0  0  0  0  0  0  0  0  0  # atno 8009 bound_to 7997
  154.5187  140.2190  155.9028 H   0  0  0  0  0  0  0  0  0  0  0  0  # atno 8010 bound_to 7997
  140.6673  143.7143  150.7853 H   0  0  0  0  0  0  0  0  0  0  0  0  # atno 10167 bound_to 10162
  156.1605  130.6599  151.0043 H   0  0  0  0  0  0  0  0  0  0  0  0  # atno 10718 bound_to 10713
  153.1984  135.6852  153.8262 H   0  0  0  0  0  0  0  0  0  0  0  0  # atno 10763 bound_to 10752
  153.7537  135.3220  155.3326 H   0  0  0  0  0  0  0  0  0  0  0  0  # atno 10764 bound_to 10752
  154.8158  135.4687  154.0739 H   0  0  0  0  0  0  0  0  0  0  0  0  # atno 10765 bound_to 10752
  141.1381  133.6647  156.5625 H   0  0  0  0  0  0  0  0  0  0  0  0  # atno 11005 bound_to 11000
  144.6775  140.0194  143.7484 LP  0  0  0  0  0  0  0  0  0  0  0  0  # atno 17320 bound_to 7965
  145.9925  139.3026  143.0976 LP  0  0  0  0  0  0  0  0  0  0  0  0  # atno 17321 bound_to 7965
  140.0823  143.4957  152.2523 LP  0  0  0  0  0  0  0  0  0  0  0  0  # atno 17342 bound_to 10162
  139.5927  144.7556  151.3360 LP  0  0  0  0  0  0  0  0  0  0  0  0  # atno 17343 bound_to 10162
  157.6729  131.0857  150.7568 LP  0  0  0  0  0  0  0  0  0  0  0  0  # atno 17370 bound_to 10713
  156.7630  130.4805  149.5433 LP  0  0  0  0  0  0  0  0  0  0  0  0  # atno 17371 bound_to 10713
  140.3977  134.7384  157.4760 LP  0  0  0  0  0  0  0  0  0  0  0  0  # atno 17394 bound_to 11000
  140.0519  134.6118  155.8851 LP  0  0  0  0  0  0  0  0  0  0  0  0  # atno 17395 bound_to 11000

$$$$
