AV-unprocessed.smi:2163|AV-procd|sdf|8807|dock2
  -GOLD-   2272011593D 1   1.00000     0.00000
 Structure written by MMmdl.
 44 46  0  0  0  0  0  0  0  0  2 V2000
  149.5467  140.5635  155.1333 C   0  0  0  0  0  0  0  0  0  0  0  0
  150.2227  141.3855  156.1785 C   0  0  0  0  0  0  0  0  0  0  0  0
  150.0770  142.7286  156.3595 N   0  3  0  0  0  0  0  0  0  0  0  0
  150.8639  143.1483  157.4331 C   0  0  0  0  0  0  0  0  0  0  0  0
  151.0452  144.4093  157.9931 C   0  0  0  0  0  0  0  0  0  0  0  0
  151.9260  144.4929  159.0916 C   0  0  0  0  0  0  0  0  0  0  0  0
  152.5871  143.3521  159.5917 C   0  0  0  0  0  0  0  0  0  0  0  0
  152.3957  142.0791  159.0153 C   0  0  0  0  0  0  0  0  0  0  0  0
  151.5223  142.0053  157.9307 C   0  0  0  0  0  0  0  0  0  0  0  0
  151.0949  140.9417  157.1287 N   0  0  0  0  0  0  0  0  0  0  0  0
  151.6045  139.5882  157.3996 C   0  0  0  0  0  0  0  0  0  0  0  0
  151.9953  138.8242  156.1177 C   0  0  1  0  0  0  0  0  0  0  0  0
  153.2146  139.3469  155.6272 O   0  0  0  0  0  0  0  0  0  0  0  0
  152.1769  137.3205  156.3786 C   0  0  0  0  0  0  0  0  0  0  0  0
  151.2552  136.5992  155.5716 O   0  0  0  0  0  0  0  0  0  0  0  0
  151.2335  135.2246  155.6735 C   0  0  0  0  0  0  0  0  0  0  0  0
  152.0213  134.4796  156.5874 C   0  0  0  0  0  0  0  0  0  0  0  0
  151.9437  133.0735  156.6147 C   0  0  0  0  0  0  0  0  0  0  0  0
  151.0791  132.3925  155.7356 C   0  0  0  0  0  0  0  0  0  0  0  0
  151.0024  130.8803  155.7629 C   0  0  0  0  0  0  0  0  0  0  0  0
  152.2817  130.2545  155.3963 C   0  0  0  0  0  0  0  0  0  0  0  0
  153.2884  129.7626  155.1076 N   0  0  0  0  0  0  0  0  0  0  0  0
  150.2865  133.1264  154.8320 C   0  0  0  0  0  0  0  0  0  0  0  0
  150.3658  134.5320  154.8041 C   0  0  0  0  0  0  0  0  0  0  0  0
  148.8751  141.1798  154.5352 H   0  0  0  0  0  0  0  0  0  0  0  0
  148.9646  139.7675  155.5980 H   0  0  0  0  0  0  0  0  0  0  0  0
  150.2871  140.1140  154.4713 H   0  0  0  0  0  0  0  0  0  0  0  0
  150.5401  145.2847  157.6121 H   0  0  0  0  0  0  0  0  0  0  0  0
  152.0976  145.4512  159.5599 H   0  0  0  0  0  0  0  0  0  0  0  0
  153.2542  143.4549  160.4353 H   0  0  0  0  0  0  0  0  0  0  0  0
  152.9048  141.2106  159.4060 H   0  0  0  0  0  0  0  0  0  0  0  0
  152.4662  139.6835  158.0612 H   0  0  0  0  0  0  0  0  0  0  0  0
  150.8453  139.0438  157.9627 H   0  0  0  0  0  0  0  0  0  0  0  0
  151.2228  138.9721  155.3624 H   0  0  0  0  0  0  0  0  0  0  0  0
  153.5536  138.7554  154.9730 H   0  0  0  0  0  0  0  0  0  0  0  0
  153.2087  137.0203  156.1861 H   0  0  0  0  0  0  0  0  0  0  0  0
  151.9559  137.1042  157.4250 H   0  0  0  0  0  0  0  0  0  0  0  0
  152.6943  134.9631  157.2789 H   0  0  0  0  0  0  0  0  0  0  0  0
  152.5513  132.5174  157.3138 H   0  0  0  0  0  0  0  0  0  0  0  0
  150.7224  130.5359  156.7588 H   0  0  0  0  0  0  0  0  0  0  0  0
  150.2366  130.5334  155.0689 H   0  0  0  0  0  0  0  0  0  0  0  0
  149.6172  132.6135  154.1570 H   0  0  0  0  0  0  0  0  0  0  0  0
  149.7564  135.0847  154.1041 H   0  0  0  0  0  0  0  0  0  0  0  0
  149.4799  143.3136  155.7893 H   0  0  0  0  0  0  0  0  0  0  0  0
  1  2  1  0  0  0  0
  1 25  1  0  0  0  0
  1 26  1  0  0  0  0
  1 27  1  0  0  0  0
  2 10  1  0  0  0  0
  2  3  2  0  0  0  0
  3  4  1  0  0  0  0
  3 44  1  0  0  0  0
  4  9  2  0  0  0  0
  4  5  1  0  0  0  0
  5  6  2  0  0  0  0
  5 28  1  0  0  0  0
  6  7  1  0  0  0  0
  6 29  1  0  0  0  0
  7  8  2  0  0  0  0
  7 30  1  0  0  0  0
  8  9  1  0  0  0  0
  8 31  1  0  0  0  0
  9 10  1  0  0  0  0
 10 11  1  0  0  0  0
 11 12  1  0  0  0  0
 11 32  1  0  0  0  0
 11 33  1  0  0  0  0
 12 13  1  0  0  0  0
 12 14  1  0  0  0  0
 12 34  1  0  0  0  0
 13 35  1  0  0  0  0
 14 15  1  0  0  0  0
 14 36  1  0  0  0  0
 14 37  1  0  0  0  0
 15 16  1  0  0  0  0
 16 24  1  0  0  0  0
 16 17  2  0  0  0  0
 17 18  1  0  0  0  0
 17 38  1  0  0  0  0
 18 19  2  0  0  0  0
 18 39  1  0  0  0  0
 19 20  1  0  0  0  0
 19 23  1  0  0  0  0
 20 21  1  0  0  0  0
 20 40  1  0  0  0  0
 20 41  1  0  0  0  0
 21 22  3  0  0  0  0
 23 24  2  0  0  0  0
 23 42  1  0  0  0  0
 24 43  1  0  0  0  0
M  CHG  1   3   1
M  END
> <s_m_source_file>
AV-unprocessed.smi

> <i_m_source_file_index>
2163

> <i_lp_mmshare_version>
43012

> <i_f3d_flags>
0

> <s_epik_input>
W2NIXTFbY0hdW2NIXVtjSF1jKGMxMiluKGMobjIpW0NIM10pW0NIMl1bQ0BIXShbT0hdKVtDSDJdT2MzW2NIXVtjSF1jKFtDSDJdQyNOKVtjSF1bY0hdMw==

> <s_epik_cmdline>
J2VwaWtfcHl0aG9uJywgJy1waCcsICc3LjAnLCAnLXRuJywgJzgnLCAnLW1hJywgJzIwMCcsICctbWV0YWxfYmluZGluZycsICctaW1hZScsICc8aW5maWxlLm1hZT4nLCAnLW9tYWUnLCAnPG91dGZpbGUubWFlPic=

> <r_lp_tautomer_probability>
1

> <r_epik_Ionization_Penalty>
1.03158

> <r_epik_Ionization_Penalty_Charging>
1.03158

> <r_epik_Ionization_Penalty_Neutral>
2.3994e-06

> <r_epik_State_Penalty>
1.08278

> <r_epik_Charging_Adjusted_Penalty>
2.11436

> <i_epik_Tot_Q>
1

> <i_epik_Tot_abs_Q>
1

> <r_epik_Metal_State_Penalty>
5.07177

> <b_epik_Metal_Only>
0

> <s_lp_Force_Field>
OPLS_2005

> <r_lp_Energy>
20.4003

> <b_lp_Chiralities_Consistent>
1

> <s_lp_Variant>
AV-unprocessed.smi:2163-4

> <Gold.Version>
5.8.1

> <Gold.Id.Protein>
6NUR|6NUR_protein|mol2

> <Gold.PLP.Fitness>
57.2645

> <Gold.PLP.PLP>
-50.2448

> <Gold.PLP.part.hbond>
-1.9808

> <Gold.PLP.part.metal>
0.0000

> <Gold.PLP.part.buried>
-6.1352

> <Gold.PLP.part.nonpolar>
-43.1607

> <Gold.PLP.part.repulsive>
0.2471

> <Gold.PLP.ligand.clash>
0.0000

> <Gold.PLP.ligand.torsion>
1.0967

> <Gold.PLP.Chemscore.Hbond>
3.0000

> <Gold.PLP.Chemscore.CHOScore>
0.0000

> <Gold.PLP.Chemscore.Metal>
0.0000

> <Gold.Chemscore.Hbonds>
donor molecule, donor type, donor heavy atom, donor atom, acceptor molecule, acceptor atom, score
      L1  H     3    44       P1  8028  1.76
      P1  H  7997  8008       L1    13  0.91

> <Gold.PLP.Chemscore.Internal.Correction>
0.2131

> <Gold.Rescore>
     Score         DG    S(hbond)    S(metal)    S(lipo)     H(rot)  DE(clash)    DE(int)     intcor
     18.78     -20.13       1.97        0.00     125.82       2.60       0.07       1.27       ----

> <Gold.Chemscore.Fitness>
18.7841

> <Gold.Chemscore.DG>
-20.1266

> <Gold.Chemscore.ZeroCoef>
-5.4800

> <Gold.Chemscore.Hbond>
1.9736

> <Gold.Chemscore.Metal>
0.0000

> <Gold.Chemscore.Lipo>
125.8217

> <Gold.Chemscore.Internal_Hbond>
0.0000

> <Gold.Chemscore.DEClash>
0.0742

> <Gold.Chemscore.DEInternal>
1.2683

> <Gold.Chemscore.Rot>
2.6041

> <Gold.Chemscore.Internal.Correction>
   9.000000E+99

> <Gold.Chemscore.Hbonds>
donor molecule, donor type, donor heavy atom, donor atom, acceptor molecule, acceptor atom, score
      L1  H     3    44       P1  8028  0.81
      P1  H  7997  8008       L1    13  0.35

> <Gold.Chemscore.Hbond.Weighted>
-6.5920

> <Gold.Chemscore.Metal.Weighted>
-0.0000

> <Gold.Chemscore.Lipo.Weighted>
-14.7211

> <Gold.Chemscore.Internal_Hbond.Weighted>
0.0000

> <Gold.Chemscore.DEClash.Weighted>
0.0742

> <Gold.Chemscore.DEInternal.Weighted>
1.2683

> <Gold.Chemscore.Rot.Weighted>
6.6665

> <Gold.Chemscore.Internal.Correction.Weighted>
   9.000000E+99

> <Gold.Protein.RotatedTorsions>
[ 6907 6896 6895 6894 ] final   51.58 input  -60.11 | X-H torsion
[ 7974 7965 7964 7962 ] final -170.09 input  175.53 | X-H torsion
[ 8008 7997 7996 7995 ] final  -21.40 input   59.86 | X-H torsion
[ 10167 10162 10161 10158 ] final  -83.56 input  -65.29 | X-H torsion
[ 10718 10713 10712 10709 ] final   24.37 input   66.30 | X-H torsion
[ 10763 10752 10751 10750 ] final   57.04 input  -60.55 | X-H torsion
[ 11005 11000 10999 10996 ] final   55.19 input  -57.11 | X-H torsion

> <Gold.Protein.ActiveResidues>
 VAL166  LYS551  ARG553  GLY616  TRP617  ASP618  TYR619  PRO620  LYS621  CYS622 
 ASP623  PHE694  ASN695  SER759  ASP760  ASP761  ALA762  ILE779  LEU786  VAL792 
 PHE793  MET794  SER795  GLU796  ALA797  LYS798  CYS799  TRP800  GLU811  SER814 

> <Gold.Protein.RotatedAtoms>
  152.3142  134.7460  160.0329 H   0  0  0  0  0  0  0  0  0  0  0  0  # atno 6907 bound_to 6896
  151.7931  133.3356  159.3513 H   0  0  0  0  0  0  0  0  0  0  0  0  # atno 6908 bound_to 6896
  150.7336  134.5755  159.5956 H   0  0  0  0  0  0  0  0  0  0  0  0  # atno 6909 bound_to 6896
  144.7175  140.2123  143.6326 H   0  0  0  0  0  0  0  0  0  0  0  0  # atno 7974 bound_to 7965
  154.4708  140.2036  156.0000 H   0  0  0  0  0  0  0  0  0  0  0  0  # atno 8008 bound_to 7997
  156.1007  140.3244  155.7909 H   0  0  0  0  0  0  0  0  0  0  0  0  # atno 8009 bound_to 7997
  155.4802  140.0538  157.2959 H   0  0  0  0  0  0  0  0  0  0  0  0  # atno 8010 bound_to 7997
  140.4215  143.2583  151.8883 H   0  0  0  0  0  0  0  0  0  0  0  0  # atno 10167 bound_to 10162
  157.1788  130.6793  149.6105 H   0  0  0  0  0  0  0  0  0  0  0  0  # atno 10718 bound_to 10713
  152.9842  135.5655  154.5326 H   0  0  0  0  0  0  0  0  0  0  0  0  # atno 10763 bound_to 10752
  154.4795  135.2788  155.1583 H   0  0  0  0  0  0  0  0  0  0  0  0  # atno 10764 bound_to 10752
  154.3098  135.6290  153.5514 H   0  0  0  0  0  0  0  0  0  0  0  0  # atno 10765 bound_to 10752
  140.0627  134.5580  155.9134 H   0  0  0  0  0  0  0  0  0  0  0  0  # atno 11005 bound_to 11000
  145.8579  139.2208  143.1734 LP  0  0  0  0  0  0  0  0  0  0  0  0  # atno 17320 bound_to 7965
  146.0201  140.8356  142.9928 LP  0  0  0  0  0  0  0  0  0  0  0  0  # atno 17321 bound_to 7965
  139.4783  144.5432  151.8497 LP  0  0  0  0  0  0  0  0  0  0  0  0  # atno 17342 bound_to 10162
  140.4528  144.1831  150.5899 LP  0  0  0  0  0  0  0  0  0  0  0  0  # atno 17343 bound_to 10162
  155.9727  130.4653  150.6251 LP  0  0  0  0  0  0  0  0  0  0  0  0  # atno 17370 bound_to 10713
  157.3972  131.0804  151.1341 LP  0  0  0  0  0  0  0  0  0  0  0  0  # atno 17371 bound_to 10713
  141.1980  133.6599  156.5768 LP  0  0  0  0  0  0  0  0  0  0  0  0  # atno 17394 bound_to 11000
  140.3746  134.7576  157.4621 LP  0  0  0  0  0  0  0  0  0  0  0  0  # atno 17395 bound_to 11000

$$$$
