AV-unprocessed.smi:2562|AV-procd|sdf|10047|dock3
  -GOLD-   2272014 93D 1   1.00000     0.00000
 Structure written by MMmdl.
 30 31  0  0  0  0  0  0  0  0  1 V2000
  152.1026  145.3010  159.1936 C   0  0  0  0  0  0  0  0  0  0  0  0
  151.5984  144.2945  158.1533 C   0  0  0  0  0  0  0  0  0  0  0  0
  151.9571  142.8457  158.5134 C   0  0  0  0  0  0  0  0  0  0  0  0
  151.4673  141.8617  157.5017 C   0  0  0  0  0  0  0  0  0  0  0  0
  151.7500  140.5598  157.5774 N   0  0  0  0  0  0  0  0  0  0  0  0
  151.1682  139.9154  156.5442 N   0  0  0  0  0  0  0  0  0  0  0  0
  150.5683  140.9129  155.8950 C   0  0  0  0  0  0  0  0  0  0  0  0
  149.7514  140.6465  154.6683 C   0  0  1  0  0  0  0  0  0  0  0  0
  149.7103  139.1482  154.3097 C   0  0  0  0  0  0  0  0  0  0  0  0
  148.8274  138.9263  153.1653 N   0  0  0  0  0  0  0  0  0  0  0  0
  147.4924  139.4687  153.4152 C   0  0  0  0  0  0  0  0  0  0  0  0
  147.5808  140.9549  153.8075 C   0  0  0  0  0  0  0  0  0  0  0  0
  148.4280  141.1021  154.9420 O   0  0  0  0  0  0  0  0  0  0  0  0
  150.6982  142.1541  156.4588 N   0  0  0  0  0  0  0  0  0  0  0  0
  152.3021  140.0900  158.2807 H   0  0  0  0  0  0  0  0  0  0  0  0
  151.8297  146.3188  158.9140 H   0  0  0  0  0  0  0  0  0  0  0  0
  153.1884  145.2617  159.2855 H   0  0  0  0  0  0  0  0  0  0  0  0
  151.6748  145.0996  160.1759 H   0  0  0  0  0  0  0  0  0  0  0  0
  150.5163  144.3900  158.0563 H   0  0  0  0  0  0  0  0  0  0  0  0
  152.0196  144.5452  157.1790 H   0  0  0  0  0  0  0  0  0  0  0  0
  153.0392  142.7402  158.6012 H   0  0  0  0  0  0  0  0  0  0  0  0
  151.5402  142.5876  159.4879 H   0  0  0  0  0  0  0  0  0  0  0  0
  150.1676  141.2218  153.8386 H   0  0  0  0  0  0  0  0  0  0  0  0
  150.7141  138.7873  154.0841 H   0  0  0  0  0  0  0  0  0  0  0  0
  149.3554  138.5736  155.1662 H   0  0  0  0  0  0  0  0  0  0  0  0
  148.7599  137.9314  152.9761 H   0  0  0  0  0  0  0  0  0  0  0  0
  146.8686  139.3516  152.5288 H   0  0  0  0  0  0  0  0  0  0  0  0
  147.0086  138.9079  154.2157 H   0  0  0  0  0  0  0  0  0  0  0  0
  147.9535  141.5571  152.9774 H   0  0  0  0  0  0  0  0  0  0  0  0
  146.5904  141.3356  154.0574 H   0  0  0  0  0  0  0  0  0  0  0  0
  1  2  1  0  0  0  0
  1 16  1  0  0  0  0
  1 17  1  0  0  0  0
  1 18  1  0  0  0  0
  2  3  1  0  0  0  0
  2 19  1  0  0  0  0
  2 20  1  0  0  0  0
  3 21  1  0  0  0  0
  3 22  1  0  0  0  0
  3  4  1  0  0  0  0
  4 14  2  0  0  0  0
  4  5  1  0  0  0  0
  5  6  1  0  0  0  0
  5 15  1  0  0  0  0
  6  7  2  0  0  0  0
  7 14  1  0  0  0  0
  7  8  1  0  0  0  0
  8 13  1  0  0  0  0
  8  9  1  0  0  0  0
  8 23  1  0  0  0  0
  9 10  1  0  0  0  0
  9 24  1  0  0  0  0
  9 25  1  0  0  0  0
 10 11  1  0  0  0  0
 10 26  1  0  0  0  0
 11 12  1  0  0  0  0
 11 27  1  0  0  0  0
 11 28  1  0  0  0  0
 12 13  1  0  0  0  0
 12 29  1  0  0  0  0
 12 30  1  0  0  0  0
M  END
> <s_m_source_file>
AV-unprocessed.smi

> <i_m_source_file_index>
2562

> <i_lp_mmshare_version>
43012

> <i_f3d_flags>
0

> <s_epik_input>
W0NIM11bQ0gyXVtDSDJdYzFuW25IXWMobjEpW0NAQEhdMltDSDJdW05IXVtDSDJdW0NIMl1PMg==

> <s_epik_cmdline>
J2VwaWtfcHl0aG9uJywgJy1waCcsICc3LjAnLCAnLXRuJywgJzgnLCAnLW1hJywgJzIwMCcsICctbWV0YWxfYmluZGluZycsICctaW1hZScsICc8aW5maWxlLm1hZT4nLCAnLW9tYWUnLCAnPG91dGZpbGUubWFlPic=

> <r_epik_Ionization_Penalty>
1.10136

> <r_epik_Ionization_Penalty_Charging>
0

> <r_epik_Ionization_Penalty_Neutral>
1.10136

> <r_epik_State_Penalty>
1.43987

> <r_epik_Charging_Adjusted_Penalty>
1.43987

> <i_epik_Tot_Q>
0

> <i_epik_Tot_abs_Q>
0

> <r_epik_Metal_State_Penalty>
1.55976

> <b_epik_Metal_Only>
0

> <s_lp_Force_Field>
OPLS_2005

> <r_lp_Energy>
12.0534

> <b_lp_Chiralities_Consistent>
1

> <s_lp_Variant>
AV-unprocessed.smi:2562-6

> <Gold.Version>
5.8.1

> <Gold.Id.Protein>
6NUR|6NUR_protein|mol2

> <Gold.PLP.Fitness>
32.3736

> <Gold.PLP.PLP>
-29.4678

> <Gold.PLP.part.hbond>
-1.7648

> <Gold.PLP.part.metal>
0.0000

> <Gold.PLP.part.buried>
-3.4201

> <Gold.PLP.part.nonpolar>
-24.5389

> <Gold.PLP.part.repulsive>
0.2892

> <Gold.PLP.ligand.clash>
0.0000

> <Gold.PLP.ligand.torsion>
0.0402

> <Gold.PLP.Chemscore.Hbond>
0.9913

> <Gold.PLP.Chemscore.CHOScore>
0.0000

> <Gold.PLP.Chemscore.Metal>
0.0000

> <Gold.Chemscore.Hbonds>
donor molecule, donor type, donor heavy atom, donor atom, acceptor molecule, acceptor atom, score
      L1  H    10    26       P1  7948  1.00

> <Gold.PLP.Chemscore.Internal.Correction>
0.0124

> <Gold.Rescore>
     Score         DG    S(hbond)    S(metal)    S(lipo)     H(rot)  DE(clash)    DE(int)     intcor
     12.57     -12.70       0.96        0.00      66.62       1.48       0.11       0.01       ----

> <Gold.Chemscore.Fitness>
12.5706

> <Gold.Chemscore.DG>
-12.6966

> <Gold.Chemscore.ZeroCoef>
-5.4800

> <Gold.Chemscore.Hbond>
0.9589

> <Gold.Chemscore.Metal>
0.0000

> <Gold.Chemscore.Lipo>
66.6201

> <Gold.Chemscore.Internal_Hbond>
0.0000

> <Gold.Chemscore.DEClash>
0.1115

> <Gold.Chemscore.DEInternal>
0.0144

> <Gold.Chemscore.Rot>
1.4769

> <Gold.Chemscore.Internal.Correction>
   9.000000E+99

> <Gold.Chemscore.Hbonds>
donor molecule, donor type, donor heavy atom, donor atom, acceptor molecule, acceptor atom, score
      L1  H    10    26       P1  7948  0.92

> <Gold.Chemscore.Hbond.Weighted>
-3.2028

> <Gold.Chemscore.Metal.Weighted>
-0.0000

> <Gold.Chemscore.Lipo.Weighted>
-7.7946

> <Gold.Chemscore.Internal_Hbond.Weighted>
0.0000

> <Gold.Chemscore.DEClash.Weighted>
0.1115

> <Gold.Chemscore.DEInternal.Weighted>
0.0144

> <Gold.Chemscore.Rot.Weighted>
3.7808

> <Gold.Chemscore.Internal.Correction.Weighted>
   9.000000E+99

> <Gold.Protein.RotatedTorsions>
[ 6907 6896 6895 6894 ] final  -31.45 input  -60.11 | X-H torsion
[ 7974 7965 7964 7962 ] final  -89.68 input  175.53 | X-H torsion
[ 8008 7997 7996 7995 ] final  -80.60 input   59.86 | X-H torsion
[ 10167 10162 10161 10158 ] final  -42.95 input  -65.29 | X-H torsion
[ 10718 10713 10712 10709 ] final   54.87 input   66.30 | X-H torsion
[ 10763 10752 10751 10750 ] final  179.32 input  -60.55 | X-H torsion
[ 11005 11000 10999 10996 ] final  -49.35 input  -57.11 | X-H torsion

> <Gold.Protein.ActiveResidues>
 VAL166  LYS551  ARG553  GLY616  TRP617  ASP618  TYR619  PRO620  LYS621  CYS622 
 ASP623  PHE694  ASN695  SER759  ASP760  ASP761  ALA762  ILE779  LEU786  VAL792 
 PHE793  MET794  SER795  GLU796  ALA797  LYS798  CYS799  TRP800  GLU811  SER814 

> <Gold.Protein.RotatedAtoms>
  151.0919  134.9921  159.8406 H   0  0  0  0  0  0  0  0  0  0  0  0  # atno 6907 bound_to 6896
  152.5430  134.2055  159.8739 H   0  0  0  0  0  0  0  0  0  0  0  0  # atno 6908 bound_to 6896
  151.2092  133.4522  159.2631 H   0  0  0  0  0  0  0  0  0  0  0  0  # atno 6909 bound_to 6896
  145.4366  140.9557  143.2098 H   0  0  0  0  0  0  0  0  0  0  0  0  # atno 7974 bound_to 7965
  154.5900  140.0660  156.9225 H   0  0  0  0  0  0  0  0  0  0  0  0  # atno 8008 bound_to 7997
  155.2312  140.3337  155.4285 H   0  0  0  0  0  0  0  0  0  0  0  0  # atno 8009 bound_to 7997
  156.2249  140.1815  156.7372 H   0  0  0  0  0  0  0  0  0  0  0  0  # atno 8010 bound_to 7997
  140.6951  143.3009  151.3283 H   0  0  0  0  0  0  0  0  0  0  0  0  # atno 10167 bound_to 10162
  157.5295  130.8621  149.8668 H   0  0  0  0  0  0  0  0  0  0  0  0  # atno 10718 bound_to 10713
  154.5191  135.2793  155.1278 H   0  0  0  0  0  0  0  0  0  0  0  0  # atno 10763 bound_to 10752
  154.2843  135.6279  153.5363 H   0  0  0  0  0  0  0  0  0  0  0  0  # atno 10764 bound_to 10752
  152.9933  135.5658  154.5675 H   0  0  0  0  0  0  0  0  0  0  0  0  # atno 10765 bound_to 10752
  141.0754  133.6667  156.3572 H   0  0  0  0  0  0  0  0  0  0  0  0  # atno 11005 bound_to 11000
  144.8148  139.5896  143.7013 LP  0  0  0  0  0  0  0  0  0  0  0  0  # atno 17320 bound_to 7965
  146.2579  139.6343  142.9382 LP  0  0  0  0  0  0  0  0  0  0  0  0  # atno 17321 bound_to 7965
  139.6397  144.0563  152.2544 LP  0  0  0  0  0  0  0  0  0  0  0  0  # atno 17342 bound_to 10162
  140.0064  144.6256  150.7685 LP  0  0  0  0  0  0  0  0  0  0  0  0  # atno 17343 bound_to 10162
  156.0412  130.3738  150.1431 LP  0  0  0  0  0  0  0  0  0  0  0  0  # atno 17370 bound_to 10713
  156.9616  130.9806  151.3478 LP  0  0  0  0  0  0  0  0  0  0  0  0  # atno 17371 bound_to 10713
  140.5585  134.5958  157.5427 LP  0  0  0  0  0  0  0  0  0  0  0  0  # atno 17394 bound_to 11000
  139.9566  134.7524  156.0328 LP  0  0  0  0  0  0  0  0  0  0  0  0  # atno 17395 bound_to 11000

$$$$
