AV-unprocessed.smi:3301|AV-procd|sdf|12655|dock5
  -GOLD-   2272018593D 1   1.00000     0.00000
 Structure written by MMmdl.
 36 37  0  0  0  0  0  0  0  0  1 V2000
  149.9914  141.5412  158.0965 C   0  0  0  0  0  0  0  0  0  0  0  0
  151.4260  141.5857  157.5440 C   0  0  1  0  0  0  0  0  0  0  0  0
  152.4890  141.8749  158.6222 C   0  0  0  0  0  0  0  0  0  0  0  0
  152.2761  143.1413  159.2969 N   0  0  0  0  0  0  0  0  0  0  0  0
  152.1797  144.3953  158.7086 C   0  0  0  0  0  0  0  0  0  0  0  0
  151.9858  145.2955  159.7318 C   0  0  0  0  0  0  0  0  0  0  0  0
  151.9627  144.6219  160.9510 N   0  0  0  0  0  0  0  0  0  0  0  0
  152.1435  143.3515  160.6141 C   0  0  0  0  0  0  0  0  0  0  0  0
  151.7374  140.3138  156.8963 N   0  0  0  0  0  0  0  0  0  0  0  0
  151.3379  139.9309  155.6737 C   0  0  0  0  0  0  0  0  0  0  0  0
  150.6192  140.6187  154.9470 O   0  0  0  0  0  0  0  0  0  0  0  0
  151.8160  138.5449  155.2209 C   0  0  0  0  0  0  0  0  0  0  0  0
  150.7416  137.5527  155.1644 N   0  0  0  0  0  0  0  0  0  0  0  0
  149.4503  137.8891  154.5875 C   0  0  0  0  0  0  0  0  0  0  0  0
  148.5539  136.6769  154.8786 C   0  0  0  0  0  0  0  0  0  0  0  0
  149.4976  135.5573  155.3310 C   0  0  0  0  0  0  0  0  0  0  0  0
  150.8100  136.2813  155.5783 C   0  0  0  0  0  0  0  0  0  0  0  0
  151.7868  135.7369  156.0909 O   0  0  0  0  0  0  0  0  0  0  0  0
  149.6966  142.5015  158.5201 H   0  0  0  0  0  0  0  0  0  0  0  0
  149.8898  140.7867  158.8773 H   0  0  0  0  0  0  0  0  0  0  0  0
  149.2761  141.3037  157.3083 H   0  0  0  0  0  0  0  0  0  0  0  0
  151.4671  142.3946  156.8125 H   0  0  0  0  0  0  0  0  0  0  0  0
  152.4991  141.0802  159.3697 H   0  0  0  0  0  0  0  0  0  0  0  0
  153.4836  141.8946  158.1744 H   0  0  0  0  0  0  0  0  0  0  0  0
  152.2545  144.5385  157.6406 H   0  0  0  0  0  0  0  0  0  0  0  0
  151.8638  146.3677  159.6849 H   0  0  0  0  0  0  0  0  0  0  0  0
  152.1768  142.5547  161.3428 H   0  0  0  0  0  0  0  0  0  0  0  0
  152.3182  139.6739  157.4185 H   0  0  0  0  0  0  0  0  0  0  0  0
  152.2850  138.6230  154.2385 H   0  0  0  0  0  0  0  0  0  0  0  0
  152.5922  138.2051  155.9076 H   0  0  0  0  0  0  0  0  0  0  0  0
  149.0445  138.8032  155.0226 H   0  0  0  0  0  0  0  0  0  0  0  0
  149.5657  138.0425  153.5137 H   0  0  0  0  0  0  0  0  0  0  0  0
  147.8510  136.9145  155.6781 H   0  0  0  0  0  0  0  0  0  0  0  0
  147.9698  136.3889  154.0041 H   0  0  0  0  0  0  0  0  0  0  0  0
  149.1419  135.0564  156.2320 H   0  0  0  0  0  0  0  0  0  0  0  0
  149.6371  134.8130  154.5466 H   0  0  0  0  0  0  0  0  0  0  0  0
  1  2  1  0  0  0  0
  1 19  1  0  0  0  0
  1 20  1  0  0  0  0
  1 21  1  0  0  0  0
  2  3  1  0  0  0  0
  2  9  1  0  0  0  0
  2 22  1  0  0  0  0
  3  4  1  0  0  0  0
  3 23  1  0  0  0  0
  3 24  1  0  0  0  0
  4  8  1  0  0  0  0
  4  5  1  0  0  0  0
  5  6  2  0  0  0  0
  5 25  1  0  0  0  0
  6  7  1  0  0  0  0
  6 26  1  0  0  0  0
  7  8  2  0  0  0  0
  8 27  1  0  0  0  0
  9 10  1  0  0  0  0
  9 28  1  0  0  0  0
 10 11  2  0  0  0  0
 10 12  1  0  0  0  0
 12 13  1  0  0  0  0
 12 29  1  0  0  0  0
 12 30  1  0  0  0  0
 13 17  1  0  0  0  0
 13 14  1  0  0  0  0
 14 15  1  0  0  0  0
 14 31  1  0  0  0  0
 14 32  1  0  0  0  0
 15 16  1  0  0  0  0
 15 33  1  0  0  0  0
 15 34  1  0  0  0  0
 16 17  1  0  0  0  0
 16 35  1  0  0  0  0
 16 36  1  0  0  0  0
 17 18  2  0  0  0  0
M  END
> <s_m_source_file>
AV-unprocessed.smi

> <i_m_source_file_index>
3301

> <i_lp_mmshare_version>
43012

> <i_f3d_flags>
0

> <s_epik_input>
W2NIXTFuW2NIXVtjSF1uMVtDSDJdW0NAQEhdKFtDSDNdKVtOSF1DKD1PKVtDSDJdTjJbQ0gyXVtDSDJdW0NIMl1DMj1P

> <s_epik_cmdline>
J2VwaWtfcHl0aG9uJywgJy1waCcsICc3LjAnLCAnLXRuJywgJzgnLCAnLW1hJywgJzIwMCcsICctbWV0YWxfYmluZGluZycsICctaW1hZScsICc8aW5maWxlLm1hZT4nLCAnLW9tYWUnLCAnPG91dGZpbGUubWFlPic=

> <r_lp_tautomer_probability>
1

> <r_epik_Ionization_Penalty>
0.623868

> <r_epik_Ionization_Penalty_Charging>
0.623868

> <r_epik_Ionization_Penalty_Neutral>
4.45089e-08

> <r_epik_State_Penalty>
0.640129

> <r_epik_Charging_Adjusted_Penalty>
1.264

> <i_epik_Tot_Q>
0

> <i_epik_Tot_abs_Q>
0

> <r_epik_Metal_State_Penalty>
0.307431

> <b_epik_Metal_Only>
0

> <s_lp_Force_Field>
OPLS_2005

> <r_lp_Energy>
14.8621

> <b_lp_Chiralities_Consistent>
1

> <s_lp_Variant>
AV-unprocessed.smi:3301-4

> <Gold.Version>
5.8.1

> <Gold.Id.Protein>
6NUR|6NUR_protein|mol2

> <Gold.PLP.Fitness>
41.3128

> <Gold.PLP.PLP>
-36.5453

> <Gold.PLP.part.hbond>
-2.0000

> <Gold.PLP.part.metal>
0.0000

> <Gold.PLP.part.buried>
-4.9583

> <Gold.PLP.part.nonpolar>
-30.3660

> <Gold.PLP.part.repulsive>
0.3741

> <Gold.PLP.ligand.clash>
0.0000

> <Gold.PLP.ligand.torsion>
0.6270

> <Gold.PLP.Chemscore.Hbond>
1.9920

> <Gold.PLP.Chemscore.CHOScore>
0.0000

> <Gold.PLP.Chemscore.Metal>
0.0000

> <Gold.Chemscore.Hbonds>
donor molecule, donor type, donor heavy atom, donor atom, acceptor molecule, acceptor atom, score
      P1  H  7989  7998       L1    11  0.96
      P1  H 10752 10763       L1    18  1.00

> <Gold.PLP.Chemscore.Internal.Correction>
0.0456

> <Gold.Rescore>
     Score         DG    S(hbond)    S(metal)    S(lipo)     H(rot)  DE(clash)    DE(int)     intcor
     10.32     -12.58       1.63        0.00      63.62       2.26       0.53       1.73       ----

> <Gold.Chemscore.Fitness>
10.3237

> <Gold.Chemscore.DG>
-12.5848

> <Gold.Chemscore.ZeroCoef>
-5.4800

> <Gold.Chemscore.Hbond>
1.6344

> <Gold.Chemscore.Metal>
0.0000

> <Gold.Chemscore.Lipo>
63.6192

> <Gold.Chemscore.Internal_Hbond>
0.0000

> <Gold.Chemscore.DEClash>
0.5311

> <Gold.Chemscore.DEInternal>
1.7301

> <Gold.Chemscore.Rot>
2.2647

> <Gold.Chemscore.Internal.Correction>
   9.000000E+99

> <Gold.Chemscore.Hbonds>
donor molecule, donor type, donor heavy atom, donor atom, acceptor molecule, acceptor atom, score
      P1  H  7989  7998       L1    11  0.41
      P1  H 10752 10763       L1    18  0.88

> <Gold.Chemscore.Hbond.Weighted>
-5.4589

> <Gold.Chemscore.Metal.Weighted>
-0.0000

> <Gold.Chemscore.Lipo.Weighted>
-7.4434

> <Gold.Chemscore.Internal_Hbond.Weighted>
0.0000

> <Gold.Chemscore.DEClash.Weighted>
0.5311

> <Gold.Chemscore.DEInternal.Weighted>
1.7301

> <Gold.Chemscore.Rot.Weighted>
5.7975

> <Gold.Chemscore.Internal.Correction.Weighted>
   9.000000E+99

> <Gold.Protein.RotatedTorsions>
[ 6907 6896 6895 6894 ] final -127.63 input  -60.11 | X-H torsion
[ 7974 7965 7964 7962 ] final   62.78 input  175.53 | X-H torsion
[ 8008 7997 7996 7995 ] final   51.05 input   59.86 | X-H torsion
[ 10167 10162 10161 10158 ] final  120.52 input  -65.29 | X-H torsion
[ 10718 10713 10712 10709 ] final  -46.87 input   66.30 | X-H torsion
[ 10763 10752 10751 10750 ] final   84.84 input  -60.55 | X-H torsion
[ 11005 11000 10999 10996 ] final  -87.77 input  -57.11 | X-H torsion

> <Gold.Protein.ActiveResidues>
 VAL166  LYS551  ARG553  GLY616  TRP617  ASP618  TYR619  PRO620  LYS621  CYS622 
 ASP623  PHE694  ASN695  SER759  ASP760  ASP761  ALA762  ILE779  LEU786  VAL792 
 PHE793  MET794  SER795  GLU796  ALA797  LYS798  CYS799  TRP800  GLU811  SER814 

> <Gold.Protein.RotatedAtoms>
  150.9093  133.7018  159.2858 H   0  0  0  0  0  0  0  0  0  0  0  0  # atno 6907 bound_to 6896
  151.4510  135.1028  159.9707 H   0  0  0  0  0  0  0  0  0  0  0  0  # atno 6908 bound_to 6896
  152.4921  133.8478  159.7241 H   0  0  0  0  0  0  0  0  0  0  0  0  # atno 6909 bound_to 6896
  145.8694  139.3367  143.0772 H   0  0  0  0  0  0  0  0  0  0  0  0  # atno 7974 bound_to 7965
  155.4288  140.3449  155.4278 H   0  0  0  0  0  0  0  0  0  0  0  0  # atno 8008 bound_to 7997
  156.1348  140.1525  156.9041 H   0  0  0  0  0  0  0  0  0  0  0  0  # atno 8009 bound_to 7997
  154.4923  140.0837  156.7602 H   0  0  0  0  0  0  0  0  0  0  0  0  # atno 8010 bound_to 7997
  139.5976  144.7047  151.3138 H   0  0  0  0  0  0  0  0  0  0  0  0  # atno 10167 bound_to 10162
  156.2140  130.4162  149.9077 H   0  0  0  0  0  0  0  0  0  0  0  0  # atno 10718 bound_to 10713
  153.1419  135.4639  154.9508 H   0  0  0  0  0  0  0  0  0  0  0  0  # atno 10763 bound_to 10752
  154.7754  135.3171  154.8105 H   0  0  0  0  0  0  0  0  0  0  0  0  # atno 10764 bound_to 10752
  153.8626  135.6911  153.4835 H   0  0  0  0  0  0  0  0  0  0  0  0  # atno 10765 bound_to 10752
  141.1612  133.7530  156.9354 H   0  0  0  0  0  0  0  0  0  0  0  0  # atno 11005 bound_to 11000
  145.9155  140.9151  143.0432 LP  0  0  0  0  0  0  0  0  0  0  0  0  # atno 17320 bound_to 7965
  144.6726  140.1218  143.7449 LP  0  0  0  0  0  0  0  0  0  0  0  0  # atno 17321 bound_to 7965
  140.7225  143.7097  150.7779 LP  0  0  0  0  0  0  0  0  0  0  0  0  # atno 17342 bound_to 10162
  140.0667  143.5101  152.2601 LP  0  0  0  0  0  0  0  0  0  0  0  0  # atno 17343 bound_to 10162
  156.6746  130.8834  151.3567 LP  0  0  0  0  0  0  0  0  0  0  0  0  # atno 17370 bound_to 10713
  157.7053  130.9379  150.0913 LP  0  0  0  0  0  0  0  0  0  0  0  0  # atno 17371 bound_to 10713
  140.1358  134.9326  157.2399 LP  0  0  0  0  0  0  0  0  0  0  0  0  # atno 17394 bound_to 11000
  140.2897  134.3254  155.7318 LP  0  0  0  0  0  0  0  0  0  0  0  0  # atno 17395 bound_to 11000

$$$$
