AV-unprocessed.smi:1734|AV-procd|sdf|6986|dock9
  -GOLD-   22720 8203D 1   1.00000     0.00000
 Structure written by MMmdl.
 51 53  0  0  0  0  0  0  0  0  2 V2000
  144.0977  135.6662  151.9835 C   0  0  0  0  0  0  0  0  0  0  0  0
  144.7835  134.3838  151.5415 C   0  0  0  0  0  0  0  0  0  0  0  0
  144.0595  133.4428  150.7789 C   0  0  0  0  0  0  0  0  0  0  0  0
  144.6938  132.2580  150.3691 C   0  0  0  0  0  0  0  0  0  0  0  0
  146.0343  132.0621  150.7423 C   0  0  0  0  0  0  0  0  0  0  0  0
  146.7333  132.9552  151.4720 N   0  0  0  0  0  0  0  0  0  0  0  0
  146.1357  134.1044  151.8765 C   0  0  0  0  0  0  0  0  0  0  0  0
  146.8134  135.0924  152.6461 N   0  0  0  0  0  0  0  0  0  0  0  0
  146.4617  135.6104  153.8363 C   0  0  0  0  0  0  0  0  0  0  0  0
  145.4417  135.3263  154.4643 O   0  0  0  0  0  0  0  0  0  0  0  0
  147.3756  136.4914  154.2696 N   0  0  0  0  0  0  0  0  0  0  0  0
  147.3063  137.2304  155.5267 C   0  0  0  0  0  0  0  0  0  0  0  0
  148.5647  137.0295  156.4135 C   0  0  2  0  0  0  0  0  0  0  0  0
  148.3098  137.2441  157.9338 C   0  0  1  0  0  0  0  0  0  0  0  0
  147.4950  136.1699  158.6381 C   0  0  0  0  0  0  0  0  0  0  0  0
  147.8573  136.3715  160.1069 C   0  0  0  0  0  0  0  0  0  0  0  0
  149.1578  136.9483  160.1177 O   0  0  0  0  0  0  0  0  0  0  0  0
  149.5836  137.2013  158.7858 C   0  0  0  0  0  0  0  0  0  0  0  0
  149.6992  137.8950  155.9683 N   0  3  0  0  0  0  0  0  0  0  0  0
  150.3092  137.4834  154.6804 C   0  0  0  0  0  0  0  0  0  0  0  0
  151.5825  138.3045  154.4139 C   0  0  0  0  0  0  0  0  0  0  0  0
  151.2704  139.6926  154.4274 O   0  0  0  0  0  0  0  0  0  0  0  0
  150.7579  140.1148  155.6859 C   0  0  0  0  0  0  0  0  0  0  0  0
  149.4531  139.3598  155.9883 C   0  0  0  0  0  0  0  0  0  0  0  0
  143.0658  135.7055  151.6329 H   0  0  0  0  0  0  0  0  0  0  0  0
  144.6205  136.5360  151.5846 H   0  0  0  0  0  0  0  0  0  0  0  0
  144.0846  135.7364  153.0714 H   0  0  0  0  0  0  0  0  0  0  0  0
  143.0295  133.6244  150.5091 H   0  0  0  0  0  0  0  0  0  0  0  0
  144.1664  131.5191  149.7842 H   0  0  0  0  0  0  0  0  0  0  0  0
  146.5598  131.1659  150.4476 H   0  0  0  0  0  0  0  0  0  0  0  0
  147.6710  135.4382  152.2422 H   0  0  0  0  0  0  0  0  0  0  0  0
  148.1795  136.6649  153.6839 H   0  0  0  0  0  0  0  0  0  0  0  0
  147.1824  138.2813  155.2669 H   0  0  0  0  0  0  0  0  0  0  0  0
  146.4150  136.9434  156.0860 H   0  0  0  0  0  0  0  0  0  0  0  0
  148.8950  135.9962  156.2934 H   0  0  0  0  0  0  0  0  0  0  0  0
  147.8153  138.2028  158.0966 H   0  0  0  0  0  0  0  0  0  0  0  0
  146.4215  136.2624  158.4773 H   0  0  0  0  0  0  0  0  0  0  0  0
  147.8072  135.1772  158.3101 H   0  0  0  0  0  0  0  0  0  0  0  0
  147.1656  137.0697  160.5798 H   0  0  0  0  0  0  0  0  0  0  0  0
  147.8317  135.4378  160.6691 H   0  0  0  0  0  0  0  0  0  0  0  0
  150.2320  136.3826  158.4701 H   0  0  0  0  0  0  0  0  0  0  0  0
  150.1582  138.1263  158.7313 H   0  0  0  0  0  0  0  0  0  0  0  0
  150.5594  136.4224  154.7057 H   0  0  0  0  0  0  0  0  0  0  0  0
  149.6011  137.6275  153.8639 H   0  0  0  0  0  0  0  0  0  0  0  0
  152.3499  138.0855  155.1584 H   0  0  0  0  0  0  0  0  0  0  0  0
  152.0004  138.0456  153.4407 H   0  0  0  0  0  0  0  0  0  0  0  0
  151.4973  139.9459  156.4705 H   0  0  0  0  0  0  0  0  0  0  0  0
  150.5713  141.1882  155.6494 H   0  0  0  0  0  0  0  0  0  0  0  0
  148.7034  139.6295  155.2435 H   0  0  0  0  0  0  0  0  0  0  0  0
  149.0709  139.6706  156.9599 H   0  0  0  0  0  0  0  0  0  0  0  0
  150.4227  137.7355  156.6548 H   0  0  0  0  0  0  0  0  0  0  0  0
  1  2  1  0  0  0  0
  1 25  1  0  0  0  0
  1 26  1  0  0  0  0
  1 27  1  0  0  0  0
  2  7  1  0  0  0  0
  2  3  2  0  0  0  0
  3  4  1  0  0  0  0
  3 28  1  0  0  0  0
  4  5  2  0  0  0  0
  4 29  1  0  0  0  0
  5  6  1  0  0  0  0
  5 30  1  0  0  0  0
  6  7  2  0  0  0  0
  7  8  1  0  0  0  0
  8  9  1  0  0  0  0
  8 31  1  0  0  0  0
  9 10  2  0  0  0  0
  9 11  1  0  0  0  0
 11 12  1  0  0  0  0
 11 32  1  0  0  0  0
 12 13  1  0  0  0  0
 12 33  1  0  0  0  0
 12 34  1  0  0  0  0
 13 14  1  0  0  0  0
 13 19  1  0  0  0  0
 13 35  1  0  0  0  0
 14 18  1  0  0  0  0
 14 15  1  0  0  0  0
 14 36  1  0  0  0  0
 15 16  1  0  0  0  0
 15 37  1  0  0  0  0
 15 38  1  0  0  0  0
 16 17  1  0  0  0  0
 16 39  1  0  0  0  0
 16 40  1  0  0  0  0
 17 18  1  0  0  0  0
 18 41  1  0  0  0  0
 18 42  1  0  0  0  0
 19 24  1  0  0  0  0
 19 20  1  0  0  0  0
 19 51  1  0  0  0  0
 20 21  1  0  0  0  0
 20 43  1  0  0  0  0
 20 44  1  0  0  0  0
 21 22  1  0  0  0  0
 21 45  1  0  0  0  0
 21 46  1  0  0  0  0
 22 23  1  0  0  0  0
 23 24  1  0  0  0  0
 23 47  1  0  0  0  0
 23 48  1  0  0  0  0
 24 49  1  0  0  0  0
 24 50  1  0  0  0  0
M  CHG  1  19   1
M  END
> <s_m_source_file>
AV-unprocessed.smi

> <i_m_source_file_index>
1734

> <i_lp_mmshare_version>
43012

> <i_f3d_flags>
0

> <s_epik_input>
W0NIM11jMVtjSF1bY0hdW2NIXW5jMVtOSF1DKD1PKVtOSF1bQ0gyXVtDQEhdKFtDQEBIXTJbQ0gyXVtDSDJdT1tDSDJdMilOM1tDSDJdW0NIMl1PW0NIMl1bQ0gyXTM=

> <s_epik_cmdline>
J2VwaWtfcHl0aG9uJywgJy1waCcsICc3LjAnLCAnLXRuJywgJzgnLCAnLW1hJywgJzIwMCcsICctbWV0YWxfYmluZGluZycsICctaW1hZScsICc8aW5maWxlLm1hZT4nLCAnLW9tYWUnLCAnPG91dGZpbGUubWFlPic=

> <r_epik_Ionization_Penalty>
0.983302

> <r_epik_Ionization_Penalty_Charging>
0.98326

> <r_epik_Ionization_Penalty_Neutral>
4.21967e-05

> <r_epik_State_Penalty>
1.0303

> <r_epik_Charging_Adjusted_Penalty>
2.01356

> <i_epik_Tot_Q>
1

> <i_epik_Tot_abs_Q>
1

> <r_epik_Metal_State_Penalty>
1.03031

> <b_epik_Metal_Only>
0

> <s_lp_Force_Field>
OPLS_2005

> <r_lp_Energy>
41.1253

> <b_lp_Chiralities_Consistent>
1

> <s_lp_Variant>
AV-unprocessed.smi:1734-7

> <Gold.Version>
5.8.1

> <Gold.Id.Protein>
6NUR|6NUR_protein|mol2

> <Gold.PLP.Fitness>
43.1788

> <Gold.PLP.PLP>
-32.3425

> <Gold.PLP.part.hbond>
-3.9869

> <Gold.PLP.part.metal>
0.0000

> <Gold.PLP.part.buried>
-5.5366

> <Gold.PLP.part.nonpolar>
-22.9519

> <Gold.PLP.part.repulsive>
0.3393

> <Gold.PLP.ligand.clash>
0.0000

> <Gold.PLP.ligand.torsion>
1.0477

> <Gold.PLP.Chemscore.Hbond>
3.2546

> <Gold.PLP.Chemscore.CHOScore>
0.9524

> <Gold.PLP.Chemscore.Metal>
0.0000

> <Gold.Chemscore.Hbonds>
donor molecule, donor type, donor heavy atom, donor atom, acceptor molecule, acceptor atom, score
      L1  H     8    31       P1  7948  0.99
      L1  H    11    32       P1  7948  0.85
      P1  H  6931  6943       L1    17  0.34
      P1  H  7989  7998       L1    22  1.00
      L1  C     5    30       P1 10747  0.96

> <Gold.PLP.Chemscore.Internal.Correction>
0.3105

> <Gold.Rescore>
     Score         DG    S(hbond)    S(metal)    S(lipo)     H(rot)  DE(clash)    DE(int)     intcor
     19.26     -20.62       3.34        0.00      71.13       1.70       0.00       1.35       ----

> <Gold.Chemscore.Fitness>
19.2636

> <Gold.Chemscore.DG>
-20.6166

> <Gold.Chemscore.ZeroCoef>
-5.4800

> <Gold.Chemscore.Hbond>
3.3420

> <Gold.Chemscore.Metal>
0.0000

> <Gold.Chemscore.Lipo>
71.1343

> <Gold.Chemscore.Internal_Hbond>
0.0000

> <Gold.Chemscore.DEClash>
0.0000

> <Gold.Chemscore.DEInternal>
1.3529

> <Gold.Chemscore.Rot>
1.6986

> <Gold.Chemscore.Internal.Correction>
   9.000000E+99

> <Gold.Chemscore.Hbonds>
donor molecule, donor type, donor heavy atom, donor atom, acceptor molecule, acceptor atom, score
      L1  H     8    31       P1  7948  0.92
      L1  H    11    32       P1  7948  0.78
      P1  H  6931  6943       L1    17  0.12
      P1  H  7989  7998       L1    22  0.82

> <Gold.Chemscore.Hbond.Weighted>
-11.1623

> <Gold.Chemscore.Metal.Weighted>
-0.0000

> <Gold.Chemscore.Lipo.Weighted>
-8.3227

> <Gold.Chemscore.Internal_Hbond.Weighted>
0.0000

> <Gold.Chemscore.DEClash.Weighted>
0.0000

> <Gold.Chemscore.DEInternal.Weighted>
1.3529

> <Gold.Chemscore.Rot.Weighted>
4.3485

> <Gold.Chemscore.Internal.Correction.Weighted>
   9.000000E+99

> <Gold.Protein.RotatedTorsions>
[ 6907 6896 6895 6894 ] final  150.85 input  -60.11 | X-H torsion
[ 7974 7965 7964 7962 ] final -153.13 input  175.53 | X-H torsion
[ 8008 7997 7996 7995 ] final   54.85 input   59.86 | X-H torsion
[ 10167 10162 10161 10158 ] final  -49.47 input  -65.29 | X-H torsion
[ 10718 10713 10712 10709 ] final  154.04 input   66.30 | X-H torsion
[ 10763 10752 10751 10750 ] final -151.75 input  -60.55 | X-H torsion
[ 11005 11000 10999 10996 ] final  -29.18 input  -57.11 | X-H torsion

> <Gold.Protein.ActiveResidues>
 VAL166  LYS551  ARG553  GLY616  TRP617  ASP618  TYR619  PRO620  LYS621  CYS622 
 ASP623  PHE694  ASN695  SER759  ASP760  ASP761  ALA762  ILE779  LEU786  VAL792 
 PHE793  MET794  SER795  GLU796  ALA797  LYS798  CYS799  TRP800  GLU811  SER814 

> <Gold.Protein.RotatedAtoms>
  152.1087  133.4289  159.4620 H   0  0  0  0  0  0  0  0  0  0  0  0  # atno 6907 bound_to 6896
  150.6866  134.2674  159.4583 H   0  0  0  0  0  0  0  0  0  0  0  0  # atno 6908 bound_to 6896
  152.0541  134.9635  160.0625 H   0  0  0  0  0  0  0  0  0  0  0  0  # atno 6909 bound_to 6896
  144.7757  140.4568  143.5875 H   0  0  0  0  0  0  0  0  0  0  0  0  # atno 7974 bound_to 7965
  155.4915  140.3471  155.4356 H   0  0  0  0  0  0  0  0  0  0  0  0  # atno 8008 bound_to 7997
  156.0974  140.1426  156.9541 H   0  0  0  0  0  0  0  0  0  0  0  0  # atno 8009 bound_to 7997
  154.4672  140.0913  156.7028 H   0  0  0  0  0  0  0  0  0  0  0  0  # atno 8010 bound_to 7997
  140.6684  143.2696  151.4219 H   0  0  0  0  0  0  0  0  0  0  0  0  # atno 10167 bound_to 10162
  157.2368  131.0751  151.1818 H   0  0  0  0  0  0  0  0  0  0  0  0  # atno 10718 bound_to 10713
  154.8038  135.3252  154.7484 H   0  0  0  0  0  0  0  0  0  0  0  0  # atno 10763 bound_to 10752
  153.8146  135.6893  153.4840 H   0  0  0  0  0  0  0  0  0  0  0  0  # atno 10764 bound_to 10752
  153.1770  135.4601  154.9922 H   0  0  0  0  0  0  0  0  0  0  0  0  # atno 10765 bound_to 10752
  140.9274  133.7360  156.0887 H   0  0  0  0  0  0  0  0  0  0  0  0  # atno 11005 bound_to 11000
  145.6193  139.1522  143.3031 LP  0  0  0  0  0  0  0  0  0  0  0  0  # atno 17320 bound_to 7965
  146.1934  140.6304  142.9135 LP  0  0  0  0  0  0  0  0  0  0  0  0  # atno 17321 bound_to 7965
  139.5941  144.1435  152.2123 LP  0  0  0  0  0  0  0  0  0  0  0  0  # atno 17342 bound_to 10162
  140.0799  144.5710  150.7130 LP  0  0  0  0  0  0  0  0  0  0  0  0  # atno 17343 bound_to 10162
  157.3420  130.7038  149.6388 LP  0  0  0  0  0  0  0  0  0  0  0  0  # atno 17370 bound_to 10713
  155.9672  130.4277  150.4755 LP  0  0  0  0  0  0  0  0  0  0  0  0  # atno 17371 bound_to 10713
  140.7908  134.3619  157.5465 LP  0  0  0  0  0  0  0  0  0  0  0  0  # atno 17394 bound_to 11000
  139.8788  134.9139  156.3095 LP  0  0  0  0  0  0  0  0  0  0  0  0  # atno 17395 bound_to 11000

$$$$
