AV-unprocessed.smi:2084|AV-procd|sdf|8515|dock6
  -GOLD-   2272011233D 1   1.00000     0.00000
 Structure written by MMmdl.
 38 39  0  0  0  0  0  0  0  0  3 V2000
  152.1947  139.9021  155.3768 C   0  0  0  0  0  0  0  0  0  0  0  0
  151.4869  138.7031  155.9064 N   0  3  0  0  0  0  0  0  0  0  0  0
  150.9841  137.8692  154.7836 C   0  0  0  0  0  0  0  0  0  0  0  0
  150.4920  138.9526  157.0132 C   0  0  0  0  0  0  0  0  0  0  0  0
  149.9427  137.5894  157.5438 C   0  0  0  0  0  0  0  0  0  0  0  0
  149.0823  137.7183  158.7208 N   0  0  0  0  0  0  0  0  0  0  0  0
  148.7757  136.7551  159.6009 C   0  0  0  0  0  0  0  0  0  0  0  0
  149.2174  135.6141  159.4483 O   0  0  0  0  0  0  0  0  0  0  0  0
  147.9876  137.1818  160.6124 N   0  5  0  0  0  0  0  0  0  0  0  0
  147.3264  136.2914  161.3697 C   0  0  0  0  0  0  0  0  0  0  0  0
  147.7210  135.0216  161.5170 N   0  0  0  0  0  0  0  0  0  0  0  0
  146.8820  134.2724  162.3439 C   0  0  0  0  0  0  0  0  0  0  0  0
  145.8187  134.9861  162.8299 C   0  0  0  0  0  0  0  0  0  0  0  0
  145.8406  136.6309  162.2613 S   0  0  0  0  0  0  0  0  0  0  0  0
  151.1598  139.7405  158.1828 C   0  0  0  0  0  0  0  0  0  0  0  0
  150.5458  141.1421  158.1780 C   0  0  0  0  0  0  0  0  0  0  0  0
  149.1393  140.9298  157.6314 C   0  0  0  0  0  0  0  0  0  0  0  0
  149.3170  139.8630  156.5495 C   0  0  0  0  0  0  0  0  0  0  0  0
  151.5368  140.5448  154.7934 H   0  0  0  0  0  0  0  0  0  0  0  0
  153.0030  139.5899  154.7150 H   0  0  0  0  0  0  0  0  0  0  0  0
  152.6589  140.5097  156.1504 H   0  0  0  0  0  0  0  0  0  0  0  0
  150.0772  138.2898  154.3483 H   0  0  0  0  0  0  0  0  0  0  0  0
  150.7815  136.8456  155.0953 H   0  0  0  0  0  0  0  0  0  0  0  0
  151.7289  137.7971  153.9903 H   0  0  0  0  0  0  0  0  0  0  0  0
  149.3080  137.1101  156.8002 H   0  0  0  0  0  0  0  0  0  0  0  0
  150.7683  136.8996  157.7258 H   0  0  0  0  0  0  0  0  0  0  0  0
  148.6902  138.6323  158.8945 H   0  0  0  0  0  0  0  0  0  0  0  0
  147.1169  133.2352  162.5310 H   0  0  0  0  0  0  0  0  0  0  0  0
  145.0283  134.6481  163.4826 H   0  0  0  0  0  0  0  0  0  0  0  0
  150.9403  139.2902  159.1487 H   0  0  0  0  0  0  0  0  0  0  0  0
  152.2485  139.7613  158.1421 H   0  0  0  0  0  0  0  0  0  0  0  0
  150.5447  141.6010  159.1671 H   0  0  0  0  0  0  0  0  0  0  0  0
  151.1060  141.7960  157.5090 H   0  0  0  0  0  0  0  0  0  0  0  0
  148.4901  140.5538  158.4235 H   0  0  0  0  0  0  0  0  0  0  0  0
  148.6950  141.8482  157.2469 H   0  0  0  0  0  0  0  0  0  0  0  0
  149.5320  140.3647  155.6080 H   0  0  0  0  0  0  0  0  0  0  0  0
  148.3930  139.3082  156.3826 H   0  0  0  0  0  0  0  0  0  0  0  0
  152.2126  138.1493  156.3389 H   0  0  0  0  0  0  0  0  0  0  0  0
  1  2  1  0  0  0  0
  1 19  1  0  0  0  0
  1 20  1  0  0  0  0
  1 21  1  0  0  0  0
  2  3  1  0  0  0  0
  2  4  1  0  0  0  0
  2 38  1  0  0  0  0
  3 22  1  0  0  0  0
  3 23  1  0  0  0  0
  3 24  1  0  0  0  0
  4 18  1  0  0  0  0
  4  5  1  0  0  0  0
  4 15  1  0  0  0  0
  5  6  1  0  0  0  0
  5 25  1  0  0  0  0
  5 26  1  0  0  0  0
  6  7  1  0  0  0  0
  6 27  1  0  0  0  0
  7  8  2  0  0  0  0
  7  9  1  0  0  0  0
  9 10  1  0  0  0  0
 10 14  1  0  0  0  0
 10 11  2  0  0  0  0
 11 12  1  0  0  0  0
 12 13  2  0  0  0  0
 12 28  1  0  0  0  0
 13 14  1  0  0  0  0
 13 29  1  0  0  0  0
 15 16  1  0  0  0  0
 15 30  1  0  0  0  0
 15 31  1  0  0  0  0
 16 17  1  0  0  0  0
 16 32  1  0  0  0  0
 16 33  1  0  0  0  0
 17 18  1  0  0  0  0
 17 34  1  0  0  0  0
 17 35  1  0  0  0  0
 18 36  1  0  0  0  0
 18 37  1  0  0  0  0
M  CHG  1   2   1
M  CHG  1   9  -1
M  END
> <s_m_source_file>
AV-unprocessed.smi

> <i_m_source_file_index>
2084

> <i_lp_mmshare_version>
43012

> <i_f3d_flags>
0

> <s_epik_input>
W0NIMl0xW0NIMl1bQ0gyXVtDSDJdQzEoTihbQ0gzXSlbQ0gzXSlbQ0gyXVtOSF1DKD1PKVtOSF1jMm5bY0hdW2NIXXMy

> <s_epik_cmdline>
J2VwaWtfcHl0aG9uJywgJy1waCcsICc3LjAnLCAnLXRuJywgJzgnLCAnLW1hJywgJzIwMCcsICctbWV0YWxfYmluZGluZycsICctaW1hZScsICc8aW5maWxlLm1hZT4nLCAnLW9tYWUnLCAnPG91dGZpbGUubWFlPic=

> <r_lp_tautomer_probability>
1

> <r_epik_Ionization_Penalty>
7.73928

> <r_epik_Ionization_Penalty_Charging>
6.33943

> <r_epik_Ionization_Penalty_Neutral>
1.39985

> <r_epik_State_Penalty>
6.33766

> <r_epik_Charging_Adjusted_Penalty>
12.6771

> <i_epik_Tot_Q>
0

> <i_epik_Tot_abs_Q>
2

> <r_epik_Metal_State_Penalty>
2.27131

> <b_epik_Metal_Only>
1

> <s_lp_Force_Field>
OPLS_2005

> <r_lp_Energy>
28.85

> <b_lp_Chiralities_Consistent>
1

> <s_lp_Variant>
AV-unprocessed.smi:2084-2

> <Gold.Version>
5.8.1

> <Gold.Id.Protein>
6NUR|6NUR_protein|mol2

> <Gold.PLP.Fitness>
39.0762

> <Gold.PLP.PLP>
-27.1655

> <Gold.PLP.part.hbond>
-3.0000

> <Gold.PLP.part.metal>
0.0000

> <Gold.PLP.part.buried>
-3.2593

> <Gold.PLP.part.nonpolar>
-20.8642

> <Gold.PLP.part.repulsive>
0.2821

> <Gold.PLP.ligand.clash>
0.0000

> <Gold.PLP.ligand.torsion>
0.4126

> <Gold.PLP.Chemscore.Hbond>
4.2000

> <Gold.PLP.Chemscore.CHOScore>
0.0000

> <Gold.PLP.Chemscore.Metal>
0.0000

> <Gold.Chemscore.Hbonds>
donor molecule, donor type, donor heavy atom, donor atom, acceptor molecule, acceptor atom, score
      P1  H  6896  6908       L1     8  1.00
      P1  H  6931  6943       L1     9  1.60
      P1  H  6934  6947       L1     9  1.54

> <Gold.PLP.Chemscore.Internal.Correction>
0.1359

> <Gold.Rescore>
     Score         DG    S(hbond)    S(metal)    S(lipo)     H(rot)  DE(clash)    DE(int)     intcor
     12.85     -14.91       1.96        0.00      58.74       1.55       0.01       2.05       ----

> <Gold.Chemscore.Fitness>
12.8462

> <Gold.Chemscore.DG>
-14.9106

> <Gold.Chemscore.ZeroCoef>
-5.4800

> <Gold.Chemscore.Hbond>
1.9576

> <Gold.Chemscore.Metal>
0.0000

> <Gold.Chemscore.Lipo>
58.7369

> <Gold.Chemscore.Internal_Hbond>
0.0000

> <Gold.Chemscore.DEClash>
0.0110

> <Gold.Chemscore.DEInternal>
2.0534

> <Gold.Chemscore.Rot>
1.5546

> <Gold.Chemscore.Internal.Correction>
   9.000000E+99

> <Gold.Chemscore.Hbonds>
donor molecule, donor type, donor heavy atom, donor atom, acceptor molecule, acceptor atom, score
      P1  H  6896  6908       L1     8  0.96
      P1  H  6931  6943       L1     9  0.29
      P1  H  6934  6947       L1     9  0.51

> <Gold.Chemscore.Hbond.Weighted>
-6.5383

> <Gold.Chemscore.Metal.Weighted>
-0.0000

> <Gold.Chemscore.Lipo.Weighted>
-6.8722

> <Gold.Chemscore.Internal_Hbond.Weighted>
0.0000

> <Gold.Chemscore.DEClash.Weighted>
0.0110

> <Gold.Chemscore.DEInternal.Weighted>
2.0534

> <Gold.Chemscore.Rot.Weighted>
3.9798

> <Gold.Chemscore.Internal.Correction.Weighted>
   9.000000E+99

> <Gold.Protein.RotatedTorsions>
[ 6907 6896 6895 6894 ] final  162.44 input  -60.11 | X-H torsion
[ 7974 7965 7964 7962 ] final  147.49 input  175.53 | X-H torsion
[ 8008 7997 7996 7995 ] final  116.18 input   59.86 | X-H torsion
[ 10167 10162 10161 10158 ] final   69.28 input  -65.29 | X-H torsion
[ 10718 10713 10712 10709 ] final  121.20 input   66.30 | X-H torsion
[ 10763 10752 10751 10750 ] final   15.31 input  -60.55 | X-H torsion
[ 11005 11000 10999 10996 ] final  168.64 input  -57.11 | X-H torsion

> <Gold.Protein.ActiveResidues>
 VAL166  LYS551  ARG553  GLY616  TRP617  ASP618  TYR619  PRO620  LYS621  CYS622 
 ASP623  PHE694  ASN695  SER759  ASP760  ASP761  ALA762  ILE779  LEU786  VAL792 
 PHE793  MET794  SER795  GLU796  ALA797  LYS798  CYS799  TRP800  GLU811  SER814 

> <Gold.Protein.RotatedAtoms>
  151.9403  133.3636  159.3962 H   0  0  0  0  0  0  0  0  0  0  0  0  # atno 6907 bound_to 6896
  150.6999  134.4446  159.5317 H   0  0  0  0  0  0  0  0  0  0  0  0  # atno 6908 bound_to 6896
  152.2101  134.8509  160.0549 H   0  0  0  0  0  0  0  0  0  0  0  0  # atno 6909 bound_to 6896
  144.8587  139.6035  143.5940 H   0  0  0  0  0  0  0  0  0  0  0  0  # atno 7974 bound_to 7965
  156.2424  140.2923  156.0483 H   0  0  0  0  0  0  0  0  0  0  0  0  # atno 8008 bound_to 7997
  155.1910  140.0407  157.2917 H   0  0  0  0  0  0  0  0  0  0  0  0  # atno 8009 bound_to 7997
  154.6195  140.2472  155.7575 H   0  0  0  0  0  0  0  0  0  0  0  0  # atno 8010 bound_to 7997
  140.0696  144.5164  150.7237 H   0  0  0  0  0  0  0  0  0  0  0  0  # atno 10167 bound_to 10162
  157.5835  131.1072  150.8140 H   0  0  0  0  0  0  0  0  0  0  0  0  # atno 10718 bound_to 10713
  153.1538  135.6783  153.8843 H   0  0  0  0  0  0  0  0  0  0  0  0  # atno 10763 bound_to 10752
  153.8260  135.3124  155.3416 H   0  0  0  0  0  0  0  0  0  0  0  0  # atno 10764 bound_to 10752
  154.7882  135.4850  154.0080 H   0  0  0  0  0  0  0  0  0  0  0  0  # atno 10765 bound_to 10752
  140.2894  134.7686  157.3825 H   0  0  0  0  0  0  0  0  0  0  0  0  # atno 11005 bound_to 11000
  146.2844  139.6963  142.9206 LP  0  0  0  0  0  0  0  0  0  0  0  0  # atno 17320 bound_to 7965
  145.4354  141.0418  143.2887 LP  0  0  0  0  0  0  0  0  0  0  0  0  # atno 17321 bound_to 7965
  140.7132  143.2522  151.4516 LP  0  0  0  0  0  0  0  0  0  0  0  0  # atno 17342 bound_to 10162
  139.5844  144.1637  152.2010 LP  0  0  0  0  0  0  0  0  0  0  0  0  # atno 17343 bound_to 10162
  156.8580  130.5103  149.5306 LP  0  0  0  0  0  0  0  0  0  0  0  0  # atno 17370 bound_to 10713
  156.0882  130.5875  150.9687 LP  0  0  0  0  0  0  0  0  0  0  0  0  # atno 17371 bound_to 10713
  140.1210  134.5220  155.8184 LP  0  0  0  0  0  0  0  0  0  0  0  0  # atno 17394 bound_to 11000
  141.2149  133.6756  156.6865 LP  0  0  0  0  0  0  0  0  0  0  0  0  # atno 17395 bound_to 11000

$$$$
