AV-unprocessed.smi:3282|AV-procd|sdf|12562|dock7
  -GOLD-   2272018483D 1   1.00000     0.00000
 Structure written by MMmdl.
 34 35  0  0  0  0  0  0  0  0  1 V2000
  152.7888  143.5119  162.4081 C   0  0  0  0  0  0  0  0  0  0  0  0
  152.8067  142.6802  161.1153 C   0  0  0  0  0  0  0  0  0  0  0  0
  152.1821  143.3995  159.9079 C   0  0  0  0  0  0  0  0  0  0  0  0
  152.0317  144.6221  159.9327 O   0  0  0  0  0  0  0  0  0  0  0  0
  151.8144  142.6558  158.8437 N   0  0  0  0  0  0  0  0  0  0  0  0
  151.9617  141.2040  158.7868 C   0  0  0  0  0  0  0  0  0  0  0  0
  151.2086  140.7538  157.5352 C   0  0  0  0  0  0  0  0  0  0  0  0
  151.1929  141.9834  156.6316 C   0  0  1  0  0  0  0  0  0  0  0  0
  150.0121  142.0051  155.7739 N   0  0  0  0  0  0  0  0  0  0  0  0
  149.7325  141.1062  154.8186 C   0  0  0  0  0  0  0  0  0  0  0  0
  150.4784  140.1494  154.5872 O   0  0  0  0  0  0  0  0  0  0  0  0
  148.5191  141.4020  154.2173 N   0  0  0  0  0  0  0  0  0  0  0  0
  147.9275  140.4894  153.5092 C   0  0  0  0  0  0  0  0  0  0  0  0
  148.2472  139.1670  153.2117 N   0  0  0  0  0  0  0  0  0  0  0  0
  147.2545  138.6566  152.4228 C   0  0  0  0  0  0  0  0  0  0  0  0
  146.3492  139.6112  152.2301 C   0  0  0  0  0  0  0  0  0  0  0  0
  146.7336  140.7439  152.8829 O   0  0  0  0  0  0  0  0  0  0  0  0
  151.2255  143.1675  157.6076 C   0  0  0  0  0  0  0  0  0  0  0  0
  153.2549  142.9618  163.2259 H   0  0  0  0  0  0  0  0  0  0  0  0
  151.7699  143.7526  162.7136 H   0  0  0  0  0  0  0  0  0  0  0  0
  153.3362  144.4476  162.2880 H   0  0  0  0  0  0  0  0  0  0  0  0
  153.8382  142.4176  160.8782 H   0  0  0  0  0  0  0  0  0  0  0  0
  152.2702  141.7460  161.2837 H   0  0  0  0  0  0  0  0  0  0  0  0
  153.0215  140.9591  158.7031 H   0  0  0  0  0  0  0  0  0  0  0  0
  151.5706  140.7158  159.6809 H   0  0  0  0  0  0  0  0  0  0  0  0
  151.6656  139.8864  157.0582 H   0  0  0  0  0  0  0  0  0  0  0  0
  150.1902  140.4785  157.8151 H   0  0  0  0  0  0  0  0  0  0  0  0
  152.1035  141.9840  156.0292 H   0  0  0  0  0  0  0  0  0  0  0  0
  149.3538  142.7564  155.9218 H   0  0  0  0  0  0  0  0  0  0  0  0
  149.0566  138.6380  153.5032 H   0  0  0  0  0  0  0  0  0  0  0  0
  147.3039  137.6359  152.0736 H   0  0  0  0  0  0  0  0  0  0  0  0
  145.4203  139.6408  151.6800 H   0  0  0  0  0  0  0  0  0  0  0  0
  150.2177  143.5263  157.8245 H   0  0  0  0  0  0  0  0  0  0  0  0
  151.7983  143.9972  157.1909 H   0  0  0  0  0  0  0  0  0  0  0  0
  1  2  1  0  0  0  0
  1 19  1  0  0  0  0
  1 20  1  0  0  0  0
  1 21  1  0  0  0  0
  2  3  1  0  0  0  0
  2 22  1  0  0  0  0
  2 23  1  0  0  0  0
  3  4  2  0  0  0  0
  3  5  1  0  0  0  0
  5 18  1  0  0  0  0
  5  6  1  0  0  0  0
  6  7  1  0  0  0  0
  6 24  1  0  0  0  0
  6 25  1  0  0  0  0
  7  8  1  0  0  0  0
  7 26  1  0  0  0  0
  7 27  1  0  0  0  0
  8  9  1  0  0  0  0
  8 18  1  0  0  0  0
  8 28  1  0  0  0  0
  9 29  1  0  0  0  0
  9 10  1  0  0  0  0
 10 12  1  0  0  0  0
 10 11  2  0  0  0  0
 12 13  2  0  0  0  0
 13 17  1  0  0  0  0
 13 14  1  0  0  0  0
 14 30  1  0  0  0  0
 14 15  1  0  0  0  0
 15 31  1  0  0  0  0
 15 16  2  0  0  0  0
 16 32  1  0  0  0  0
 16 17  1  0  0  0  0
 18 33  1  0  0  0  0
 18 34  1  0  0  0  0
M  END
> <s_m_source_file>
AV-unprocessed.smi

> <i_m_source_file_index>
3282

> <i_lp_mmshare_version>
43012

> <i_f3d_flags>
0

> <s_epik_input>
W0NIM11bQ0gyXUMoPU8pTjFbQ0gyXVtDSDJdW0NASF0oW0NIMl0xKVtOSF1DKD1PKVtOSF1jMm5bY0hdW2NIXW8y

> <s_epik_cmdline>
J2VwaWtfcHl0aG9uJywgJy1waCcsICc3LjAnLCAnLXRuJywgJzgnLCAnLW1hJywgJzIwMCcsICctbWV0YWxfYmluZGluZycsICctaW1hZScsICc8aW5maWxlLm1hZT4nLCAnLW9tYWUnLCAnPG91dGZpbGUubWFlPic=

> <r_lp_tautomer_probability>
0.107061

> <r_epik_Ionization_Penalty>
0.434703

> <r_epik_Ionization_Penalty_Charging>
0.434345

> <r_epik_Ionization_Penalty_Neutral>
0.000358141

> <r_epik_State_Penalty>
2.49584

> <r_epik_Charging_Adjusted_Penalty>
2.93019

> <i_epik_Tot_Q>
0

> <i_epik_Tot_abs_Q>
0

> <r_epik_Metal_State_Penalty>
4.06361

> <b_epik_Metal_Only>
0

> <s_lp_Force_Field>
OPLS_2005

> <r_lp_Energy>
50.3275

> <b_lp_Chiralities_Consistent>
1

> <s_lp_Variant>
AV-unprocessed.smi:3282-3

> <Gold.Version>
5.8.1

> <Gold.Id.Protein>
6NUR|6NUR_protein|mol2

> <Gold.PLP.Fitness>
46.1908

> <Gold.PLP.PLP>
-32.9468

> <Gold.PLP.part.hbond>
-3.3858

> <Gold.PLP.part.metal>
0.0000

> <Gold.PLP.part.buried>
2.3289

> <Gold.PLP.part.nonpolar>
-32.3580

> <Gold.PLP.part.repulsive>
1.0437

> <Gold.PLP.ligand.clash>
0.0000

> <Gold.PLP.ligand.torsion>
0.3075

> <Gold.PLP.Chemscore.Hbond>
1.9672

> <Gold.PLP.Chemscore.CHOScore>
2.6496

> <Gold.PLP.Chemscore.Metal>
0.0000

> <Gold.Chemscore.Hbonds>
donor molecule, donor type, donor heavy atom, donor atom, acceptor molecule, acceptor atom, score
      L1  H     9    29       P1  8028  0.95
      P1  H  7989  7998       L1    11  1.00
      L1  C    15    31       P1  7948  1.00
      L1  C    16    32       P1 10171  0.78
      L1  C    16    32       P1 10175  0.87

> <Gold.PLP.Chemscore.Internal.Correction>
0.0086

> <Gold.Rescore>
     Score         DG    S(hbond)    S(metal)    S(lipo)     H(rot)  DE(clash)    DE(int)     intcor
     13.83     -16.25       1.66        0.00      73.54       1.32       2.01       0.41       ----

> <Gold.Chemscore.Fitness>
13.8271

> <Gold.Chemscore.DG>
-16.2488

> <Gold.Chemscore.ZeroCoef>
-5.4800

> <Gold.Chemscore.Hbond>
1.6599

> <Gold.Chemscore.Metal>
0.0000

> <Gold.Chemscore.Lipo>
73.5372

> <Gold.Chemscore.Internal_Hbond>
0.0000

> <Gold.Chemscore.DEClash>
2.0148

> <Gold.Chemscore.DEInternal>
0.4069

> <Gold.Chemscore.Rot>
1.3199

> <Gold.Chemscore.Internal.Correction>
   9.000000E+99

> <Gold.Chemscore.Hbonds>
donor molecule, donor type, donor heavy atom, donor atom, acceptor molecule, acceptor atom, score
      L1  H     9    29       P1  8028  0.85
      P1  H  7989  7998       L1    11  0.30

> <Gold.Chemscore.Hbond.Weighted>
-5.5439

> <Gold.Chemscore.Metal.Weighted>
-0.0000

> <Gold.Chemscore.Lipo.Weighted>
-8.6039

> <Gold.Chemscore.Internal_Hbond.Weighted>
0.0000

> <Gold.Chemscore.DEClash.Weighted>
2.0148

> <Gold.Chemscore.DEInternal.Weighted>
0.4069

> <Gold.Chemscore.Rot.Weighted>
3.3789

> <Gold.Chemscore.Internal.Correction.Weighted>
   9.000000E+99

> <Gold.Protein.RotatedTorsions>
[ 6907 6896 6895 6894 ] final  118.39 input  -60.11 | X-H torsion
[ 7974 7965 7964 7962 ] final -120.11 input  175.53 | X-H torsion
[ 8008 7997 7996 7995 ] final  142.28 input   59.86 | X-H torsion
[ 10167 10162 10161 10158 ] final -150.48 input  -65.29 | X-H torsion
[ 10718 10713 10712 10709 ] final  -92.41 input   66.30 | X-H torsion
[ 10763 10752 10751 10750 ] final   13.42 input  -60.55 | X-H torsion
[ 11005 11000 10999 10996 ] final   10.98 input  -57.11 | X-H torsion

> <Gold.Protein.ActiveResidues>
 VAL166  LYS551  ARG553  GLY616  TRP617  ASP618  TYR619  PRO620  LYS621  CYS622 
 ASP623  PHE694  ASN695  SER759  ASP760  ASP761  ALA762  ILE779  LEU786  VAL792 
 PHE793  MET794  SER795  GLU796  ALA797  LYS798  CYS799  TRP800  GLU811  SER814 

> <Gold.Protein.RotatedAtoms>
  152.4546  133.7697  159.6791 H   0  0  0  0  0  0  0  0  0  0  0  0  # atno 6907 bound_to 6896
  150.8468  133.7839  159.3046 H   0  0  0  0  0  0  0  0  0  0  0  0  # atno 6908 bound_to 6896
  151.5447  135.1071  159.9987 H   0  0  0  0  0  0  0  0  0  0  0  0  # atno 6909 bound_to 6896
  145.0551  140.8248  143.4186 H   0  0  0  0  0  0  0  0  0  0  0  0  # atno 7974 bound_to 7965
  156.2952  140.2293  156.4702 H   0  0  0  0  0  0  0  0  0  0  0  0  # atno 8008 bound_to 7997
  154.7942  140.0452  157.1245 H   0  0  0  0  0  0  0  0  0  0  0  0  # atno 8009 bound_to 7997
  154.9610  140.3054  155.5034 H   0  0  0  0  0  0  0  0  0  0  0  0  # atno 8010 bound_to 7997
  139.7350  143.8749  152.2546 H   0  0  0  0  0  0  0  0  0  0  0  0  # atno 10167 bound_to 10162
  156.0002  130.4986  150.5621 H   0  0  0  0  0  0  0  0  0  0  0  0  # atno 10718 bound_to 10713
  153.1723  135.6814  153.8591 H   0  0  0  0  0  0  0  0  0  0  0  0  # atno 10763 bound_to 10752
  153.7951  135.3163  155.3384 H   0  0  0  0  0  0  0  0  0  0  0  0  # atno 10764 bound_to 10752
  154.8006  135.4780  154.0358 H   0  0  0  0  0  0  0  0  0  0  0  0  # atno 10765 bound_to 10752
  140.5084  134.0677  155.7811 H   0  0  0  0  0  0  0  0  0  0  0  0  # atno 11005 bound_to 11000
  145.1479  139.2532  143.5456 LP  0  0  0  0  0  0  0  0  0  0  0  0  # atno 17320 bound_to 7965
  146.3521  140.1174  142.8601 LP  0  0  0  0  0  0  0  0  0  0  0  0  # atno 17321 bound_to 7965
  139.8683  144.7081  150.9017 LP  0  0  0  0  0  0  0  0  0  0  0  0  # atno 17342 bound_to 10162
  140.7777  143.3759  151.1564 LP  0  0  0  0  0  0  0  0  0  0  0  0  # atno 17343 bound_to 10162
  157.3528  131.0736  151.1699 LP  0  0  0  0  0  0  0  0  0  0  0  0  # atno 17370 bound_to 10713
  157.2510  130.6614  149.5931 LP  0  0  0  0  0  0  0  0  0  0  0  0  # atno 17371 bound_to 10713
  141.1399  133.9157  157.2350 LP  0  0  0  0  0  0  0  0  0  0  0  0  # atno 17394 bound_to 11000
  139.9673  135.0138  156.9420 LP  0  0  0  0  0  0  0  0  0  0  0  0  # atno 17395 bound_to 11000

$$$$
