AV-unprocessed.smi:2324|AV-procd|sdf|9294|dock7
  -GOLD-   2272012513D 1   1.00000     0.00000
 Structure written by MMmdl.
 37 39  0  0  0  0  0  0  0  0  1 V2000
  150.3669  134.8352  156.0281 O   0  0  0  0  0  0  0  0  0  0  0  0
  149.9288  135.2500  154.9563 C   0  0  0  0  0  0  0  0  0  0  0  0
  149.3472  134.4103  154.0734 N   0  0  0  0  0  0  0  0  0  0  0  0
  149.1092  133.0055  154.1186 C   0  0  0  0  0  0  0  0  0  0  0  0
  148.0689  132.5563  153.2769 C   0  0  0  0  0  0  0  0  0  0  0  0
  147.7656  131.1843  153.2600 C   0  0  0  0  0  0  0  0  0  0  0  0
  148.5279  130.3468  154.0918 C   0  0  0  0  0  0  0  0  0  0  0  0
  149.5156  130.8175  154.8829 N   0  0  0  0  0  0  0  0  0  0  0  0
  149.7973  132.1246  154.8927 N   0  0  0  0  0  0  0  0  0  0  0  0
  149.9949  136.5429  154.5977 N   0  0  0  0  0  0  0  0  0  0  0  0
  150.5773  137.6152  155.3979 C   0  0  1  0  0  0  0  0  0  0  0  0
  151.9323  137.1677  155.9616 C   0  0  0  0  0  0  0  0  0  0  0  0
  152.6140  138.3215  156.7124 C   0  0  0  0  0  0  0  0  0  0  0  0
  152.7586  139.4557  155.8599 O   0  0  0  0  0  0  0  0  0  0  0  0
  151.5410  139.9772  155.3240 C   0  0  2  0  0  0  0  0  0  0  0  0
  150.6957  140.6599  156.3911 C   0  0  0  0  0  0  0  0  0  0  0  0
  150.9728  142.0891  156.7948 C   0  0  0  0  0  0  0  0  0  0  0  0
  151.2729  140.9620  157.7539 C   0  0  0  0  0  0  0  0  0  0  0  0
  150.7784  138.8836  154.5506 C   0  0  0  0  0  0  0  0  0  0  0  0
  149.0221  134.8587  153.2292 H   0  0  0  0  0  0  0  0  0  0  0  0
  147.5132  133.2451  152.6572 H   0  0  0  0  0  0  0  0  0  0  0  0
  146.9790  130.7893  152.6342 H   0  0  0  0  0  0  0  0  0  0  0  0
  148.3432  129.2833  154.1251 H   0  0  0  0  0  0  0  0  0  0  0  0
  149.6096  136.8024  153.7003 H   0  0  0  0  0  0  0  0  0  0  0  0
  149.9113  137.8351  156.2341 H   0  0  0  0  0  0  0  0  0  0  0  0
  151.8027  136.3142  156.6281 H   0  0  0  0  0  0  0  0  0  0  0  0
  152.5813  136.8346  155.1504 H   0  0  0  0  0  0  0  0  0  0  0  0
  152.0556  138.5839  157.6111 H   0  0  0  0  0  0  0  0  0  0  0  0
  153.6047  138.0116  157.0451 H   0  0  0  0  0  0  0  0  0  0  0  0
  151.8325  140.7454  154.6067 H   0  0  0  0  0  0  0  0  0  0  0  0
  149.6444  140.3815  156.3789 H   0  0  0  0  0  0  0  0  0  0  0  0
  151.8181  142.5929  156.3303 H   0  0  0  0  0  0  0  0  0  0  0  0
  150.1154  142.7223  157.0130 H   0  0  0  0  0  0  0  0  0  0  0  0
  150.6166  140.8437  158.6137 H   0  0  0  0  0  0  0  0  0  0  0  0
  152.3185  140.7162  157.9281 H   0  0  0  0  0  0  0  0  0  0  0  0
  151.3479  138.6292  153.6555 H   0  0  0  0  0  0  0  0  0  0  0  0
  149.8200  139.2708  154.2027 H   0  0  0  0  0  0  0  0  0  0  0  0
  1  2  2  0  0  0  0
  2  3  1  0  0  0  0
  2 10  1  0  0  0  0
  3  4  1  0  0  0  0
  3 20  1  0  0  0  0
  4  9  1  0  0  0  0
  4  5  2  0  0  0  0
  5  6  1  0  0  0  0
  5 21  1  0  0  0  0
  6  7  2  0  0  0  0
  6 22  1  0  0  0  0
  7  8  1  0  0  0  0
  7 23  1  0  0  0  0
  8  9  2  0  0  0  0
 10 11  1  0  0  0  0
 10 24  1  0  0  0  0
 11 19  1  0  0  0  0
 11 12  1  0  0  0  0
 11 25  1  0  0  0  0
 12 13  1  0  0  0  0
 12 26  1  0  0  0  0
 12 27  1  0  0  0  0
 13 14  1  0  0  0  0
 13 28  1  0  0  0  0
 13 29  1  0  0  0  0
 14 15  1  0  0  0  0
 15 16  1  0  0  0  0
 15 19  1  0  0  0  0
 15 30  1  0  0  0  0
 16 18  1  0  0  0  0
 16 17  1  0  0  0  0
 16 31  1  0  0  0  0
 17 18  1  0  0  0  0
 17 32  1  0  0  0  0
 17 33  1  0  0  0  0
 18 34  1  0  0  0  0
 18 35  1  0  0  0  0
 19 36  1  0  0  0  0
 19 37  1  0  0  0  0
M  END
> <s_m_source_file>
AV-unprocessed.smi

> <i_m_source_file_index>
2324

> <i_lp_mmshare_version>
43012

> <i_f3d_flags>
0

> <s_epik_input>
bjFuW2NIXVtjSF1bY0hdYzFbTkhdQyg9TylbTkhdW0NAQEhdMltDSDJdW0NIMl1PW0NASF0oW0NIMl0yKVtDSF0zW0NIMl1bQ0gyXTM=

> <s_epik_cmdline>
J2VwaWtfcHl0aG9uJywgJy1waCcsICc3LjAnLCAnLXRuJywgJzgnLCAnLW1hJywgJzIwMCcsICctbWV0YWxfYmluZGluZycsICctaW1hZScsICc8aW5maWxlLm1hZT4nLCAnLW9tYWUnLCAnPG91dGZpbGUubWFlPic=

> <r_lp_tautomer_probability>
1

> <r_epik_Ionization_Penalty>
0.00521499

> <r_epik_Ionization_Penalty_Charging>
0

> <r_epik_Ionization_Penalty_Neutral>
0.00521499

> <r_epik_State_Penalty>
-0

> <r_epik_Charging_Adjusted_Penalty>
0

> <i_epik_Tot_Q>
0

> <i_epik_Tot_abs_Q>
0

> <r_epik_Metal_State_Penalty>
-0

> <b_epik_Metal_Only>
0

> <s_lp_Force_Field>
OPLS_2005

> <r_lp_Energy>
28.1305

> <b_lp_Chiralities_Consistent>
1

> <s_lp_Variant>
AV-unprocessed.smi:2324-4

> <Gold.Version>
5.8.1

> <Gold.Id.Protein>
6NUR|6NUR_protein|mol2

> <Gold.PLP.Fitness>
37.5730

> <Gold.PLP.PLP>
-30.1701

> <Gold.PLP.part.hbond>
-3.0000

> <Gold.PLP.part.metal>
0.0000

> <Gold.PLP.part.buried>
-2.8243

> <Gold.PLP.part.nonpolar>
-25.0590

> <Gold.PLP.part.repulsive>
0.1149

> <Gold.PLP.ligand.clash>
0.0000

> <Gold.PLP.ligand.torsion>
1.2031

> <Gold.PLP.Chemscore.Hbond>
2.9100

> <Gold.PLP.Chemscore.CHOScore>
0.0000

> <Gold.PLP.Chemscore.Metal>
0.0000

> <Gold.Chemscore.Hbonds>
donor molecule, donor type, donor heavy atom, donor atom, acceptor molecule, acceptor atom, score
      L1  H     3    20       P1  7948  0.80
      L1  H    10    24       P1  7948  0.96
      P1  H  7997  8009       L1    14  1.00

> <Gold.PLP.Chemscore.Internal.Correction>
1.0791

> <Gold.Rescore>
     Score         DG    S(hbond)    S(metal)    S(lipo)     H(rot)  DE(clash)    DE(int)     intcor
     13.22     -16.86       2.18        0.00      62.26       1.25       0.07       3.57       ----

> <Gold.Chemscore.Fitness>
13.2196

> <Gold.Chemscore.DG>
-16.8580

> <Gold.Chemscore.ZeroCoef>
-5.4800

> <Gold.Chemscore.Hbond>
2.1817

> <Gold.Chemscore.Metal>
0.0000

> <Gold.Chemscore.Lipo>
62.2633

> <Gold.Chemscore.Internal_Hbond>
0.0000

> <Gold.Chemscore.DEClash>
0.0707

> <Gold.Chemscore.DEInternal>
3.5676

> <Gold.Chemscore.Rot>
1.2476

> <Gold.Chemscore.Internal.Correction>
   9.000000E+99

> <Gold.Chemscore.Hbonds>
donor molecule, donor type, donor heavy atom, donor atom, acceptor molecule, acceptor atom, score
      L1  H     3    20       P1  7948  0.12
      L1  H    10    24       P1  7948  0.66
      P1  H  7997  8009       L1    14  0.70

> <Gold.Chemscore.Hbond.Weighted>
-7.2869

> <Gold.Chemscore.Metal.Weighted>
-0.0000

> <Gold.Chemscore.Lipo.Weighted>
-7.2848

> <Gold.Chemscore.Internal_Hbond.Weighted>
0.0000

> <Gold.Chemscore.DEClash.Weighted>
0.0707

> <Gold.Chemscore.DEInternal.Weighted>
3.5676

> <Gold.Chemscore.Rot.Weighted>
3.1938

> <Gold.Chemscore.Internal.Correction.Weighted>
   9.000000E+99

> <Gold.Protein.RotatedTorsions>
[ 6907 6896 6895 6894 ] final   58.02 input  -60.11 | X-H torsion
[ 7974 7965 7964 7962 ] final -121.21 input  175.53 | X-H torsion
[ 8008 7997 7996 7995 ] final -148.78 input   59.86 | X-H torsion
[ 10167 10162 10161 10158 ] final   11.35 input  -65.29 | X-H torsion
[ 10718 10713 10712 10709 ] final -157.57 input   66.30 | X-H torsion
[ 10763 10752 10751 10750 ] final  -10.60 input  -60.55 | X-H torsion
[ 11005 11000 10999 10996 ] final   63.09 input  -57.11 | X-H torsion

> <Gold.Protein.ActiveResidues>
 VAL166  LYS551  ARG553  GLY616  TRP617  ASP618  TYR619  PRO620  LYS621  CYS622 
 ASP623  PHE694  ASN695  SER759  ASP760  ASP761  ALA762  ILE779  LEU786  VAL792 
 PHE793  MET794  SER795  GLU796  ALA797  LYS798  CYS799  TRP800  GLU811  SER814 

> <Gold.Protein.RotatedAtoms>
  152.3786  134.6625  160.0150 H   0  0  0  0  0  0  0  0  0  0  0  0  # atno 6907 bound_to 6896
  151.6896  133.3305  159.3247 H   0  0  0  0  0  0  0  0  0  0  0  0  # atno 6908 bound_to 6896
  150.7729  134.6646  159.6403 H   0  0  0  0  0  0  0  0  0  0  0  0  # atno 6909 bound_to 6896
  145.0428  140.8158  143.4256 H   0  0  0  0  0  0  0  0  0  0  0  0  # atno 7974 bound_to 7965
  155.5971  140.0658  157.2743 H   0  0  0  0  0  0  0  0  0  0  0  0  # atno 8008 bound_to 7997
  154.4289  140.1825  156.1181 H   0  0  0  0  0  0  0  0  0  0  0  0  # atno 8009 bound_to 7997
  156.0188  140.3319  155.7020 H   0  0  0  0  0  0  0  0  0  0  0  0  # atno 8010 bound_to 7997
  140.6137  143.8353  150.7094 H   0  0  0  0  0  0  0  0  0  0  0  0  # atno 10167 bound_to 10162
  156.5422  130.8568  151.2752 H   0  0  0  0  0  0  0  0  0  0  0  0  # atno 10718 bound_to 10713
  153.4715  135.7017  153.5990 H   0  0  0  0  0  0  0  0  0  0  0  0  # atno 10763 bound_to 10752
  153.4242  135.3818  155.2131 H   0  0  0  0  0  0  0  0  0  0  0  0  # atno 10764 bound_to 10752
  154.8725  135.3935  154.4154 H   0  0  0  0  0  0  0  0  0  0  0  0  # atno 10765 bound_to 10752
  140.0048  134.6386  155.9872 H   0  0  0  0  0  0  0  0  0  0  0  0  # atno 11005 bound_to 11000
  145.1625  139.2450  143.5384 LP  0  0  0  0  0  0  0  0  0  0  0  0  # atno 17320 bound_to 7965
  146.3511  140.1356  142.8596 LP  0  0  0  0  0  0  0  0  0  0  0  0  # atno 17321 bound_to 7965
  140.1927  143.4023  152.1851 LP  0  0  0  0  0  0  0  0  0  0  0  0  # atno 17342 bound_to 10162
  139.5382  144.7230  151.4823 LP  0  0  0  0  0  0  0  0  0  0  0  0  # atno 17343 bound_to 10162
  157.7403  130.9848  150.2370 LP  0  0  0  0  0  0  0  0  0  0  0  0  # atno 17370 bound_to 10713
  156.2961  130.3752  149.7795 LP  0  0  0  0  0  0  0  0  0  0  0  0  # atno 17371 bound_to 10713
  141.1669  133.6537  156.4511 LP  0  0  0  0  0  0  0  0  0  0  0  0  # atno 17394 bound_to 11000
  140.4661  134.6796  157.5108 LP  0  0  0  0  0  0  0  0  0  0  0  0  # atno 17395 bound_to 11000

$$$$
