AV-unprocessed.smi:805|AV-procd|sdf|3798|dock4
  -GOLD-   22720 1233D 1   1.00000     0.00000
 Structure written by MMmdl.
 40 41  0  0  0  0  0  0  0  0  1 V2000
  145.6884  131.6425  149.7419 C   0  0  0  0  0  0  0  0  0  0  0  0
  144.4060  131.5263  150.5684 C   0  0  0  0  0  0  0  0  0  0  0  0
  144.5731  132.2477  151.7771 O   0  0  0  0  0  0  0  0  0  0  0  0
  144.2493  133.6229  151.6467 C   0  0  2  0  0  0  0  0  0  0  0  0
  145.2376  134.4382  150.8061 C   0  0  0  0  0  0  0  0  0  0  0  0
  145.0076  135.5542  151.8261 C   0  0  2  0  0  0  0  0  0  0  0  0
  146.2180  136.3168  152.1116 N   0  0  0  0  0  0  0  0  0  0  0  0
  146.2404  137.4626  152.8049 C   0  0  0  0  0  0  0  0  0  0  0  0
  145.2311  137.9925  153.2694 O   0  0  0  0  0  0  0  0  0  0  0  0
  147.4947  137.9265  152.9380 N   0  0  0  0  0  0  0  0  0  0  0  0
  147.9345  139.1135  153.5838 C   0  0  0  0  0  0  0  0  0  0  0  0
  147.1141  140.2437  153.8187 C   0  0  0  0  0  0  0  0  0  0  0  0
  147.6742  141.3694  154.4529 C   0  0  0  0  0  0  0  0  0  0  0  0
  149.0328  141.3282  154.8215 C   0  0  0  0  0  0  0  0  0  0  0  0
  149.8297  140.2634  154.5915 N   0  0  0  0  0  0  0  0  0  0  0  0
  149.2860  139.1875  153.9830 C   0  0  0  0  0  0  0  0  0  0  0  0
  144.6600  134.4670  152.8787 C   0  0  0  0  0  0  0  0  0  0  0  0
  143.5311  134.8156  153.8485 C   0  0  0  0  0  0  0  0  0  0  0  0
  145.8190  133.9103  153.7243 C   0  0  0  0  0  0  0  0  0  0  0  0
  145.5978  131.0952  148.8034 H   0  0  0  0  0  0  0  0  0  0  0  0
  146.5413  131.2356  150.2855 H   0  0  0  0  0  0  0  0  0  0  0  0
  145.9079  132.6835  149.5030 H   0  0  0  0  0  0  0  0  0  0  0  0
  143.5619  131.9234  150.0029 H   0  0  0  0  0  0  0  0  0  0  0  0
  144.1964  130.4773  150.7830 H   0  0  0  0  0  0  0  0  0  0  0  0
  143.2096  133.7941  151.3573 H   0  0  0  0  0  0  0  0  0  0  0  0
  146.2501  134.0305  150.8115 H   0  0  0  0  0  0  0  0  0  0  0  0
  144.8975  134.6661  149.7957 H   0  0  0  0  0  0  0  0  0  0  0  0
  144.1469  136.1711  151.5556 H   0  0  0  0  0  0  0  0  0  0  0  0
  147.0902  135.9434  151.7668 H   0  0  0  0  0  0  0  0  0  0  0  0
  148.2278  137.3333  152.5782 H   0  0  0  0  0  0  0  0  0  0  0  0
  146.0795  140.2769  153.5155 H   0  0  0  0  0  0  0  0  0  0  0  0
  147.0757  142.2470  154.6482 H   0  0  0  0  0  0  0  0  0  0  0  0
  149.4926  142.1754  155.3084 H   0  0  0  0  0  0  0  0  0  0  0  0
  149.9535  138.3552  153.8133 H   0  0  0  0  0  0  0  0  0  0  0  0
  143.8466  135.5635  154.5766 H   0  0  0  0  0  0  0  0  0  0  0  0
  143.1927  133.9380  154.4001 H   0  0  0  0  0  0  0  0  0  0  0  0
  142.6648  135.2217  153.3258 H   0  0  0  0  0  0  0  0  0  0  0  0
  146.1605  134.6354  154.4638 H   0  0  0  0  0  0  0  0  0  0  0  0
  146.6821  133.6421  153.1148 H   0  0  0  0  0  0  0  0  0  0  0  0
  145.5210  133.0117  154.2653 H   0  0  0  0  0  0  0  0  0  0  0  0
  1  2  1  0  0  0  0
  1 20  1  0  0  0  0
  1 21  1  0  0  0  0
  1 22  1  0  0  0  0
  2  3  1  0  0  0  0
  2 23  1  0  0  0  0
  2 24  1  0  0  0  0
  3  4  1  0  0  0  0
  4 17  1  0  0  0  0
  4  5  1  0  0  0  0
  4 25  1  0  0  0  0
  5  6  1  0  0  0  0
  5 26  1  0  0  0  0
  5 27  1  0  0  0  0
  6  7  1  0  0  0  0
  6 17  1  0  0  0  0
  6 28  1  0  0  0  0
  7  8  1  0  0  0  0
  7 29  1  0  0  0  0
  8  9  2  0  0  0  0
  8 10  1  0  0  0  0
 10 11  1  0  0  0  0
 10 30  1  0  0  0  0
 11 16  1  0  0  0  0
 11 12  2  0  0  0  0
 12 13  1  0  0  0  0
 12 31  1  0  0  0  0
 13 14  2  0  0  0  0
 13 32  1  0  0  0  0
 14 15  1  0  0  0  0
 14 33  1  0  0  0  0
 15 16  2  0  0  0  0
 16 34  1  0  0  0  0
 17 18  1  0  0  0  0
 17 19  1  0  0  0  0
 18 35  1  0  0  0  0
 18 36  1  0  0  0  0
 18 37  1  0  0  0  0
 19 38  1  0  0  0  0
 19 39  1  0  0  0  0
 19 40  1  0  0  0  0
M  END
> <s_m_source_file>
AV-unprocessed.smi

> <i_m_source_file_index>
805

> <i_lp_mmshare_version>
43012

> <i_f3d_flags>
0

> <s_epik_input>
W0NIM11bQ0gyXU9bQ0BASF0oQzEoW0NIM10pW0NIM10pW0NIMl1bQ0BIXTFbTkhdQyg9TylbTkhdYzJbY0hdW2NIXVtjSF1uW2NIXTI=

> <s_epik_cmdline>
J2VwaWtfcHl0aG9uJywgJy1waCcsICc3LjAnLCAnLXRuJywgJzgnLCAnLW1hJywgJzIwMCcsICctbWV0YWxfYmluZGluZycsICctaW1hZScsICc8aW5maWxlLm1hZT4nLCAnLW9tYWUnLCAnPG91dGZpbGUubWFlPic=

> <r_epik_Ionization_Penalty>
0.00485231

> <r_epik_Ionization_Penalty_Charging>
0

> <r_epik_Ionization_Penalty_Neutral>
0.00485231

> <r_epik_State_Penalty>
0.00349213

> <r_epik_Charging_Adjusted_Penalty>
0.00349213

> <i_epik_Tot_Q>
0

> <i_epik_Tot_abs_Q>
0

> <r_epik_Metal_State_Penalty>
-0

> <b_epik_Metal_Only>
0

> <s_lp_Force_Field>
OPLS_2005

> <r_lp_Energy>
21.5129

> <b_lp_Chiralities_Consistent>
1

> <s_lp_Variant>
AV-unprocessed.smi:805-3

> <Gold.Version>
5.8.1

> <Gold.Id.Protein>
6NUR|6NUR_protein|mol2

> <Gold.PLP.Fitness>
41.9459

> <Gold.PLP.PLP>
-31.1117

> <Gold.PLP.part.hbond>
-3.6661

> <Gold.PLP.part.metal>
0.0000

> <Gold.PLP.part.buried>
-0.1010

> <Gold.PLP.part.nonpolar>
-31.2808

> <Gold.PLP.part.repulsive>
3.7549

> <Gold.PLP.ligand.clash>
0.0000

> <Gold.PLP.ligand.torsion>
0.5422

> <Gold.PLP.Chemscore.Hbond>
2.8880

> <Gold.PLP.Chemscore.CHOScore>
0.9835

> <Gold.PLP.Chemscore.Metal>
0.0000

> <Gold.Chemscore.Hbonds>
donor molecule, donor type, donor heavy atom, donor atom, acceptor molecule, acceptor atom, score
      L1  H     7    29       P1  7948  0.85
      L1  H    10    30       P1  7948  0.89
      P1  H  7989  7998       L1    15  0.58
      L1  C    14    33       P1  8028  0.74

> <Gold.PLP.Chemscore.Internal.Correction>
0.3040

> <Gold.Rescore>
     Score         DG    S(hbond)    S(metal)    S(lipo)     H(rot)  DE(clash)    DE(int)     intcor
     15.37     -18.52       2.14        0.00      79.94       1.36       1.49       1.66       ----

> <Gold.Chemscore.Fitness>
15.3706

> <Gold.Chemscore.DG>
-18.5157

> <Gold.Chemscore.ZeroCoef>
-5.4800

> <Gold.Chemscore.Hbond>
2.1413

> <Gold.Chemscore.Metal>
0.0000

> <Gold.Chemscore.Lipo>
79.9385

> <Gold.Chemscore.Internal_Hbond>
0.0000

> <Gold.Chemscore.DEClash>
1.4878

> <Gold.Chemscore.DEInternal>
1.6573

> <Gold.Chemscore.Rot>
1.3551

> <Gold.Chemscore.Internal.Correction>
   9.000000E+99

> <Gold.Chemscore.Hbonds>
donor molecule, donor type, donor heavy atom, donor atom, acceptor molecule, acceptor atom, score
      L1  H     7    29       P1  7948  0.85
      L1  H    10    30       P1  7948  0.87
      P1  H  7989  7998       L1    15  0.29

> <Gold.Chemscore.Hbond.Weighted>
-7.1520

> <Gold.Chemscore.Metal.Weighted>
-0.0000

> <Gold.Chemscore.Lipo.Weighted>
-9.3528

> <Gold.Chemscore.Internal_Hbond.Weighted>
0.0000

> <Gold.Chemscore.DEClash.Weighted>
1.4878

> <Gold.Chemscore.DEInternal.Weighted>
1.6573

> <Gold.Chemscore.Rot.Weighted>
3.4691

> <Gold.Chemscore.Internal.Correction.Weighted>
   9.000000E+99

> <Gold.Protein.RotatedTorsions>
[ 6907 6896 6895 6894 ] final   11.69 input  -60.11 | X-H torsion
[ 7974 7965 7964 7962 ] final    6.86 input  175.53 | X-H torsion
[ 8008 7997 7996 7995 ] final  -16.98 input   59.86 | X-H torsion
[ 10167 10162 10161 10158 ] final -119.30 input  -65.29 | X-H torsion
[ 10718 10713 10712 10709 ] final  -47.26 input   66.30 | X-H torsion
[ 10763 10752 10751 10750 ] final   17.18 input  -60.55 | X-H torsion
[ 11005 11000 10999 10996 ] final  163.55 input  -57.11 | X-H torsion

> <Gold.Protein.ActiveResidues>
 VAL166  LYS551  ARG553  GLY616  TRP617  ASP618  TYR619  PRO620  LYS621  CYS622 
 ASP623  PHE694  ASN695  SER759  ASP760  ASP761  ALA762  ILE779  LEU786  VAL792 
 PHE793  MET794  SER795  GLU796  ALA797  LYS798  CYS799  TRP800  GLU811  SER814 

> <Gold.Protein.RotatedAtoms>
  151.7583  135.0816  160.0341 H   0  0  0  0  0  0  0  0  0  0  0  0  # atno 6907 bound_to 6896
  152.3370  133.6019  159.5858 H   0  0  0  0  0  0  0  0  0  0  0  0  # atno 6908 bound_to 6896
  150.7456  133.9696  159.3583 H   0  0  0  0  0  0  0  0  0  0  0  0  # atno 6909 bound_to 6896
  146.2431  140.0170  142.8401 H   0  0  0  0  0  0  0  0  0  0  0  0  # atno 7974 bound_to 7965
  154.5012  140.2155  155.9342 H   0  0  0  0  0  0  0  0  0  0  0  0  # atno 8008 bound_to 7997
  156.1436  140.3175  155.8502 H   0  0  0  0  0  0  0  0  0  0  0  0  # atno 8009 bound_to 7997
  155.4073  140.0488  157.3024 H   0  0  0  0  0  0  0  0  0  0  0  0  # atno 8010 bound_to 7997
  140.0481  143.5086  152.2096 H   0  0  0  0  0  0  0  0  0  0  0  0  # atno 10167 bound_to 10162
  156.2102  130.4160  149.9125 H   0  0  0  0  0  0  0  0  0  0  0  0  # atno 10718 bound_to 10713
  153.1362  135.6750  153.9099 H   0  0  0  0  0  0  0  0  0  0  0  0  # atno 10763 bound_to 10752
  153.8570  135.3086  155.3437 H   0  0  0  0  0  0  0  0  0  0  0  0  # atno 10764 bound_to 10752
  154.7749  135.4919  153.9807 H   0  0  0  0  0  0  0  0  0  0  0  0  # atno 10765 bound_to 10752
  140.2369  134.8081  157.3372 H   0  0  0  0  0  0  0  0  0  0  0  0  # atno 11005 bound_to 11000
  145.1276  140.9499  143.4563 LP  0  0  0  0  0  0  0  0  0  0  0  0  # atno 17320 bound_to 7965
  145.0419  139.3252  143.5972 LP  0  0  0  0  0  0  0  0  0  0  0  0  # atno 17321 bound_to 7965
  139.5970  144.7570  151.3262 LP  0  0  0  0  0  0  0  0  0  0  0  0  # atno 17342 bound_to 10162
  140.7229  143.7085  150.7788 LP  0  0  0  0  0  0  0  0  0  0  0  0  # atno 17343 bound_to 10162
  156.6806  130.8856  151.3575 LP  0  0  0  0  0  0  0  0  0  0  0  0  # atno 17370 bound_to 10713
  157.7034  130.9358  150.0855 LP  0  0  0  0  0  0  0  0  0  0  0  0  # atno 17371 bound_to 10713
  140.1693  134.4629  155.7842 LP  0  0  0  0  0  0  0  0  0  0  0  0  # atno 17394 bound_to 11000
  141.2213  133.6935  156.7680 LP  0  0  0  0  0  0  0  0  0  0  0  0  # atno 17395 bound_to 11000

$$$$
