AV-unprocessed.smi:948|AV-procd|sdf|4241|dock5
  -GOLD-   22720 2153D 1   1.00000     0.00000
 Structure written by MMmdl.
 19 19  0  0  0  0  0  0  0  0  3 V2000
  150.0772  137.2848  154.2797 N   0  3  0  0  0  0  0  0  0  0  0  0
  150.4602  138.6842  154.0238 C   0  0  0  0  0  0  0  0  0  0  0  0
  149.3748  139.6608  154.5012 C   0  0  0  0  0  0  0  0  0  0  0  0
  148.1568  139.6018  153.6379 C   0  0  0  0  0  0  0  0  0  0  0  0
  147.0063  140.3524  153.6360 C   0  0  0  0  0  0  0  0  0  0  0  0
  146.2157  139.8694  152.6280 N   0  0  0  0  0  0  0  0  0  0  0  0
  146.8288  138.8562  152.0108 C   0  0  0  0  0  0  0  0  0  0  0  0
  148.0069  138.6920  152.6209 N   0  3  0  0  0  0  0  0  0  0  0  0
  145.2989  140.2240  152.3842 H   0  0  0  0  0  0  0  0  0  0  0  0
  149.6059  136.9104  153.4681 H   0  0  0  0  0  0  0  0  0  0  0  0
  149.4567  137.2405  155.0756 H   0  0  0  0  0  0  0  0  0  0  0  0
  151.4025  138.8858  154.5346 H   0  0  0  0  0  0  0  0  0  0  0  0
  150.6404  138.8064  152.9551 H   0  0  0  0  0  0  0  0  0  0  0  0
  149.0890  139.4377  155.5302 H   0  0  0  0  0  0  0  0  0  0  0  0
  149.7580  140.6821  154.4957 H   0  0  0  0  0  0  0  0  0  0  0  0
  146.6973  141.1754  154.2647 H   0  0  0  0  0  0  0  0  0  0  0  0
  146.4474  138.2827  151.1847 H   0  0  0  0  0  0  0  0  0  0  0  0
  150.9036  136.7350  154.4676 H   0  0  0  0  0  0  0  0  0  0  0  0
  148.6878  137.9872  152.3664 H   0  0  0  0  0  0  0  0  0  0  0  0
  1  2  1  0  0  0  0
  1 10  1  0  0  0  0
  1 11  1  0  0  0  0
  1 18  1  0  0  0  0
  2  3  1  0  0  0  0
  2 12  1  0  0  0  0
  2 13  1  0  0  0  0
  3  4  1  0  0  0  0
  3 14  1  0  0  0  0
  3 15  1  0  0  0  0
  4  8  1  0  0  0  0
  4  5  2  0  0  0  0
  5  6  1  0  0  0  0
  5 16  1  0  0  0  0
  6  9  1  0  0  0  0
  6  7  1  0  0  0  0
  7  8  2  0  0  0  0
  7 17  1  0  0  0  0
  8 19  1  0  0  0  0
M  CHG  1   1   1
M  CHG  1   8   1
M  END
> <s_m_source_file>
AV-unprocessed.smi

> <i_m_source_file_index>
948

> <i_lp_mmshare_version>
43012

> <i_f3d_flags>
0

> <s_epik_input>
W05IMl1bQ0gyXVtDSDJdYzFbY0hdW25IXVtjSF1uMQ==

> <s_epik_cmdline>
J2VwaWtfcHl0aG9uJywgJy1waCcsICc3LjAnLCAnLXRuJywgJzgnLCAnLW1hJywgJzIwMCcsICctbWV0YWxfYmluZGluZycsICctaW1hZScsICc8aW5maWxlLm1hZT4nLCAnLW9tYWUnLCAnPG91dGZpbGUubWFlPic=

> <r_lp_tautomer_probability>
1

> <r_epik_Ionization_Penalty>
2.37896

> <r_epik_Ionization_Penalty_Charging>
0.0086666

> <r_epik_Ionization_Penalty_Neutral>
2.3703

> <r_epik_State_Penalty>
1.3316

> <r_epik_Charging_Adjusted_Penalty>
1.34027

> <i_epik_Tot_Q>
2

> <i_epik_Tot_abs_Q>
2

> <r_epik_Metal_State_Penalty>
5.35027

> <b_epik_Metal_Only>
0

> <s_lp_Force_Field>
OPLS_2005

> <r_lp_Energy>
12.2927

> <b_lp_Chiralities_Consistent>
1

> <s_lp_Variant>
AV-unprocessed.smi:948-3

> <Gold.Version>
5.8.1

> <Gold.Id.Protein>
6NUR|6NUR_protein|mol2

> <Gold.PLP.Fitness>
35.2130

> <Gold.PLP.PLP>
-17.3262

> <Gold.PLP.part.hbond>
-4.0000

> <Gold.PLP.part.metal>
0.0000

> <Gold.PLP.part.buried>
-0.4681

> <Gold.PLP.part.nonpolar>
-13.3843

> <Gold.PLP.part.repulsive>
0.1085

> <Gold.PLP.ligand.clash>
0.0000

> <Gold.PLP.ligand.torsion>
0.0566

> <Gold.PLP.Chemscore.Hbond>
6.0000

> <Gold.PLP.Chemscore.CHOScore>
0.0000

> <Gold.PLP.Chemscore.Metal>
0.0000

> <Gold.Chemscore.Hbonds>
donor molecule, donor type, donor heavy atom, donor atom, acceptor molecule, acceptor atom, score
      L1  H     1    10       P1  7948  2.00
      L1  H     6     9       P1 10175  2.00
      L1  H     8    19       P1  7948  1.89

> <Gold.PLP.Chemscore.Internal.Correction>
0.0001

> <Gold.Rescore>
     Score         DG    S(hbond)    S(metal)    S(lipo)     H(rot)  DE(clash)    DE(int)     intcor
     13.82     -13.93       2.77        0.00      26.72       1.53       0.06       0.06       ----

> <Gold.Chemscore.Fitness>
13.8158

> <Gold.Chemscore.DG>
-13.9321

> <Gold.Chemscore.ZeroCoef>
-5.4800

> <Gold.Chemscore.Hbond>
2.7707

> <Gold.Chemscore.Metal>
0.0000

> <Gold.Chemscore.Lipo>
26.7207

> <Gold.Chemscore.Internal_Hbond>
0.0000

> <Gold.Chemscore.DEClash>
0.0561

> <Gold.Chemscore.DEInternal>
0.0602

> <Gold.Chemscore.Rot>
1.5345

> <Gold.Chemscore.Internal.Correction>
   9.000000E+99

> <Gold.Chemscore.Hbonds>
donor molecule, donor type, donor heavy atom, donor atom, acceptor molecule, acceptor atom, score
      L1  H     1    10       P1  7948  0.74
      L1  H     6     9       P1 10175  0.74
      L1  H     8    19       P1  7948  0.91

> <Gold.Chemscore.Hbond.Weighted>
-9.2541

> <Gold.Chemscore.Metal.Weighted>
-0.0000

> <Gold.Chemscore.Lipo.Weighted>
-3.1263

> <Gold.Chemscore.Internal_Hbond.Weighted>
0.0000

> <Gold.Chemscore.DEClash.Weighted>
0.0561

> <Gold.Chemscore.DEInternal.Weighted>
0.0602

> <Gold.Chemscore.Rot.Weighted>
3.9284

> <Gold.Chemscore.Internal.Correction.Weighted>
   9.000000E+99

> <Gold.Protein.RotatedTorsions>
[ 6907 6896 6895 6894 ] final -176.57 input  -60.11 | X-H torsion
[ 7974 7965 7964 7962 ] final -135.40 input  175.53 | X-H torsion
[ 8008 7997 7996 7995 ] final   81.44 input   59.86 | X-H torsion
[ 10167 10162 10161 10158 ] final -139.29 input  -65.29 | X-H torsion
[ 10718 10713 10712 10709 ] final  173.30 input   66.30 | X-H torsion
[ 10763 10752 10751 10750 ] final   51.84 input  -60.55 | X-H torsion
[ 11005 11000 10999 10996 ] final   66.71 input  -57.11 | X-H torsion

> <Gold.Protein.ActiveResidues>
 VAL166  LYS551  ARG553  GLY616  TRP617  ASP618  TYR619  PRO620  LYS621  CYS622 
 ASP623  PHE694  ASN695  SER759  ASP760  ASP761  ALA762  ILE779  LEU786  VAL792 
 PHE793  MET794  SER795  GLU796  ALA797  LYS798  CYS799  TRP800  GLU811  SER814 

> <Gold.Protein.RotatedAtoms>
  151.6069  133.3351  159.3058 H   0  0  0  0  0  0  0  0  0  0  0  0  # atno 6907 bound_to 6896
  150.8177  134.7372  159.6756 H   0  0  0  0  0  0  0  0  0  0  0  0  # atno 6908 bound_to 6896
  152.4273  134.5850  160.0010 H   0  0  0  0  0  0  0  0  0  0  0  0  # atno 6909 bound_to 6896
  144.9017  140.6780  143.5081 H   0  0  0  0  0  0  0  0  0  0  0  0  # atno 7974 bound_to 7965
  155.8972  140.3435  155.5999 H   0  0  0  0  0  0  0  0  0  0  0  0  # atno 8008 bound_to 7997
  155.7542  140.0824  157.2205 H   0  0  0  0  0  0  0  0  0  0  0  0  # atno 8009 bound_to 7997
  154.4039  140.1547  156.2746 H   0  0  0  0  0  0  0  0  0  0  0  0  # atno 8010 bound_to 7997
  139.8394  143.7341  152.2663 H   0  0  0  0  0  0  0  0  0  0  0  0  # atno 10167 bound_to 10162
  156.9663  131.0076  151.2916 H   0  0  0  0  0  0  0  0  0  0  0  0  # atno 10718 bound_to 10713
  152.9786  135.5832  154.4482 H   0  0  0  0  0  0  0  0  0  0  0  0  # atno 10763 bound_to 10752
  154.4074  135.2769  155.2060 H   0  0  0  0  0  0  0  0  0  0  0  0  # atno 10764 bound_to 10752
  154.3865  135.6135  153.5873 H   0  0  0  0  0  0  0  0  0  0  0  0  # atno 10765 bound_to 10752
  139.9815  134.6737  156.0254 H   0  0  0  0  0  0  0  0  0  0  0  0  # atno 11005 bound_to 11000
  145.3605  139.1683  143.4386 LP  0  0  0  0  0  0  0  0  0  0  0  0  # atno 17320 bound_to 7965
  146.3112  140.3666  142.8670 LP  0  0  0  0  0  0  0  0  0  0  0  0  # atno 17321 bound_to 7965
  139.7574  144.7517  151.0415 LP  0  0  0  0  0  0  0  0  0  0  0  0  # atno 17342 bound_to 10162
  140.7799  143.4790  151.0043 LP  0  0  0  0  0  0  0  0  0  0  0  0  # atno 17343 bound_to 10162
  157.5623  130.8254  149.8282 LP  0  0  0  0  0  0  0  0  0  0  0  0  # atno 17370 bound_to 10713
  156.0301  130.3767  150.1711 LP  0  0  0  0  0  0  0  0  0  0  0  0  # atno 17371 bound_to 10713
  141.1486  133.6552  156.3943 LP  0  0  0  0  0  0  0  0  0  0  0  0  # atno 17394 bound_to 11000
  140.5088  134.6415  157.5276 LP  0  0  0  0  0  0  0  0  0  0  0  0  # atno 17395 bound_to 11000

$$$$
