AV-unprocessed.smi:72|AV-procd|sdf|729|dock8
  -GOLD-   2262017 53D 1   1.00000     0.00000
 Structure written by MMmdl.
 28 29  0  0  0  0  0  0  0  0  2 V2000
  152.6649  139.8782  158.9835 N   0  0  0  0  0  0  0  0  0  0  0  0
  152.0160  140.0892  157.9233 C   0  0  0  0  0  0  0  0  0  0  0  0
  150.9015  141.0109  157.9285 N   0  0  0  0  0  0  0  0  0  0  0  0
  150.2429  141.1717  156.8220 C   0  0  0  0  0  0  0  0  0  0  0  0
  150.5864  140.4410  155.6061 N   0  0  0  0  0  0  0  0  0  0  0  0
  149.8244  140.6158  154.3000 C   0  0  2  0  0  0  0  0  0  0  0  0
  148.8515  141.6121  154.4419 O   0  0  0  0  0  0  0  0  0  0  0  0
  147.5843  141.0168  154.7061 C   0  0  1  0  0  0  0  0  0  0  0  0
  146.4357  142.0082  154.4502 C   0  0  0  0  0  0  0  0  0  0  0  0
  145.1933  141.3417  154.5265 O   0  0  0  0  0  0  0  0  0  0  0  0
  147.6189  139.7876  153.7932 C   0  0  1  0  0  0  0  0  0  0  0  0
  147.2804  140.1463  152.4627 O   0  0  0  0  0  0  0  0  0  0  0  0
  149.0684  139.3211  153.9265 C   0  0  1  0  0  0  0  0  0  0  0  0
  149.5511  138.7073  152.7457 O   0  0  0  0  0  0  0  0  0  0  0  0
  151.7176  139.5802  155.6215 C   0  0  0  0  0  0  0  0  0  0  0  0
  152.0286  139.0124  154.5742 O   0  0  0  0  0  0  0  0  0  0  0  0
  152.4072  139.4204  156.7852 N   0  5  0  0  0  0  0  0  0  0  0  0
  150.5717  140.9351  153.5712 H   0  0  0  0  0  0  0  0  0  0  0  0
  147.5523  140.6691  155.7405 H   0  0  0  0  0  0  0  0  0  0  0  0
  146.9202  139.0186  154.1241 H   0  0  0  0  0  0  0  0  0  0  0  0
  149.1386  138.6103  154.7515 H   0  0  0  0  0  0  0  0  0  0  0  0
  152.3129  140.4069  159.7680 H   0  0  0  0  0  0  0  0  0  0  0  0
  149.4015  141.8597  156.7434 H   0  0  0  0  0  0  0  0  0  0  0  0
  146.4619  142.8392  155.1556 H   0  0  0  0  0  0  0  0  0  0  0  0
  146.5192  142.4281  153.4473 H   0  0  0  0  0  0  0  0  0  0  0  0
  144.8830  141.1845  153.6480 H   0  0  0  0  0  0  0  0  0  0  0  0
  147.9962  139.8935  151.8994 H   0  0  0  0  0  0  0  0  0  0  0  0
  149.8491  139.3888  152.1612 H   0  0  0  0  0  0  0  0  0  0  0  0
  1  2  2  0  0  0  0
  1 22  1  0  0  0  0
  2 17  1  0  0  0  0
  2  3  1  0  0  0  0
  3  4  2  0  0  0  0
  4  5  1  0  0  0  0
  4 23  1  0  0  0  0
  5  6  1  0  0  0  0
  5 15  1  0  0  0  0
  6 18  1  0  0  0  0
  6 13  1  0  0  0  0
  6  7  1  0  0  0  0
  7  8  1  0  0  0  0
  8 19  1  0  0  0  0
  8  9  1  0  0  0  0
  8 11  1  0  0  0  0
  9 10  1  0  0  0  0
  9 24  1  0  0  0  0
  9 25  1  0  0  0  0
 10 26  1  0  0  0  0
 11 20  1  0  0  0  0
 11 12  1  0  0  0  0
 11 13  1  0  0  0  0
 12 27  1  0  0  0  0
 13 21  1  0  0  0  0
 13 14  1  0  0  0  0
 14 28  1  0  0  0  0
 15 16  2  0  0  0  0
 15 17  1  0  0  0  0
M  CHG  1  17  -1
M  END
> <s_m_source_file>
AV-unprocessed.smi

> <i_m_source_file_index>
72

> <i_lp_mmshare_version>
43012

> <i_f3d_flags>
0

> <s_epik_input>
W05IMl1jMW5bY0hdbihjKD1PKW4xKVtDQEBIXTJPW0NASF0oW0NIMl1bT0hdKVtDQEBIXShbT0hdKVtDQEhdMltPSF0=

> <s_epik_cmdline>
J2VwaWtfcHl0aG9uJywgJy1waCcsICc3LjAnLCAnLXRuJywgJzgnLCAnLW1hJywgJzIwMCcsICctbWV0YWxfYmluZGluZycsICctaW1hZScsICc8aW5maWxlLm1hZT4nLCAnLW9tYWUnLCAnPG91dGZpbGUubWFlPic=

> <r_lp_tautomer_probability>
7.17554e-07

> <r_epik_Ionization_Penalty>
12.8705

> <r_epik_Ionization_Penalty_Charging>
5.64144

> <r_epik_Ionization_Penalty_Neutral>
7.22905

> <r_epik_State_Penalty>
3.30104

> <r_epik_Charging_Adjusted_Penalty>
8.94249

> <i_epik_Tot_Q>
-1

> <i_epik_Tot_abs_Q>
1

> <r_epik_Metal_State_Penalty>
0.529074

> <b_epik_Metal_Only>
1

> <s_epik_Chemistry_Notes>
This compound contains an acetal/aminal-like group ( X-CH(R)-Y where X, Y are N, S, or O) that may be acid/base labile, releasing an aldehyde.

> <s_lp_Force_Field>
OPLS_2005

> <r_lp_Energy>
36.9813

> <b_lp_Chiralities_Consistent>
1

> <s_lp_Variant>
AV-unprocessed.smi:72-67

> <Gold.Version>
5.8.1

> <Gold.Id.Protein>
6NUR|6NUR_protein|mol2

> <Gold.PLP.Fitness>
48.3758

> <Gold.PLP.PLP>
-28.8245

> <Gold.PLP.part.hbond>
-6.5956

> <Gold.PLP.part.metal>
0.0000

> <Gold.PLP.part.buried>
-1.1279

> <Gold.PLP.part.nonpolar>
-19.8448

> <Gold.PLP.part.repulsive>
1.1084

> <Gold.PLP.ligand.clash>
0.0000

> <Gold.PLP.ligand.torsion>
0.1206

> <Gold.PLP.Chemscore.Hbond>
5.5900

> <Gold.PLP.Chemscore.CHOScore>
1.0000

> <Gold.PLP.Chemscore.Metal>
0.0000

> <Gold.Chemscore.Hbonds>
donor molecule, donor type, donor heavy atom, donor atom, acceptor molecule, acceptor atom, score
      L1  H    10    26       P1 10175  1.00
      L1  H    12    27       P1  7957  1.00
      L1  H    14    28       P1  7957  0.17
      P1  H  7989  7998       L1    16  0.29
      P1  H  7997  8010       L1    17  1.79

> <Gold.PLP.Chemscore.Internal.Correction>
0.0226

> <Gold.Rescore>
     Score         DG    S(hbond)    S(metal)    S(lipo)     H(rot)  DE(clash)    DE(int)     intcor
      8.78     -10.02       3.74        0.00      20.35       4.04       0.99       0.25       ----

> <Gold.Chemscore.Fitness>
8.7831

> <Gold.Chemscore.DG>
-10.0225

> <Gold.Chemscore.ZeroCoef>
-5.4800

> <Gold.Chemscore.Hbond>
3.7439

> <Gold.Chemscore.Metal>
0.0000

> <Gold.Chemscore.Lipo>
20.3514

> <Gold.Chemscore.Internal_Hbond>
0.0000

> <Gold.Chemscore.DEClash>
0.9856

> <Gold.Chemscore.DEInternal>
0.2539

> <Gold.Chemscore.Rot>
4.0403

> <Gold.Chemscore.Internal.Correction>
   9.000000E+99

> <Gold.Chemscore.Hbonds>
donor molecule, donor type, donor heavy atom, donor atom, acceptor molecule, acceptor atom, score
      L1  H    10    26       P1 10175  0.43
      L1  H    12    27       P1  7957  0.99
      L1  H    14    28       P1  7957  0.14
      P1  H  7989  7998       L1    16  0.01
      P1  H  7997  8010       L1    17  0.19

> <Gold.Chemscore.Hbond.Weighted>
-12.5045

> <Gold.Chemscore.Metal.Weighted>
-0.0000

> <Gold.Chemscore.Lipo.Weighted>
-2.3811

> <Gold.Chemscore.Internal_Hbond.Weighted>
0.0000

> <Gold.Chemscore.DEClash.Weighted>
0.9856

> <Gold.Chemscore.DEInternal.Weighted>
0.2539

> <Gold.Chemscore.Rot.Weighted>
10.3431

> <Gold.Chemscore.Internal.Correction.Weighted>
   9.000000E+99

> <Gold.Protein.RotatedTorsions>
[ 6907 6896 6895 6894 ] final  -95.76 input  -60.11 | X-H torsion
[ 7974 7965 7964 7962 ] final  105.04 input  175.53 | X-H torsion
[ 8008 7997 7996 7995 ] final   64.03 input   59.86 | X-H torsion
[ 10167 10162 10161 10158 ] final  -14.63 input  -65.29 | X-H torsion
[ 10718 10713 10712 10709 ] final  155.84 input   66.30 | X-H torsion
[ 10763 10752 10751 10750 ] final  -95.53 input  -60.55 | X-H torsion
[ 11005 11000 10999 10996 ] final   69.03 input  -57.11 | X-H torsion

> <Gold.Protein.ActiveResidues>
 VAL166  LYS551  ARG553  GLY616  TRP617  ASP618  TYR619  PRO620  LYS621  CYS622 
 ASP623  PHE694  ASN695  SER759  ASP760  ASP761  ALA762  ILE779  LEU786  VAL792 
 PHE793  MET794  SER795  GLU796  ALA797  LYS798  CYS799  TRP800  GLU811  SER814 

> <Gold.Protein.RotatedAtoms>
  150.6972  134.1607  159.4174 H   0  0  0  0  0  0  0  0  0  0  0  0  # atno 6907 bound_to 6896
  151.9588  135.0131  160.0555 H   0  0  0  0  0  0  0  0  0  0  0  0  # atno 6908 bound_to 6896
  152.1945  133.4762  159.5062 H   0  0  0  0  0  0  0  0  0  0  0  0  # atno 6909 bound_to 6896
  145.3249  139.2502  143.3692 H   0  0  0  0  0  0  0  0  0  0  0  0  # atno 7974 bound_to 7965
  155.6396  140.3496  155.4710 H   0  0  0  0  0  0  0  0  0  0  0  0  # atno 8008 bound_to 7997
  155.9937  140.1199  157.0637 H   0  0  0  0  0  0  0  0  0  0  0  0  # atno 8009 bound_to 7997
  154.4227  140.1114  156.5587 H   0  0  0  0  0  0  0  0  0  0  0  0  # atno 8010 bound_to 7997
  140.7204  143.5302  150.9529 H   0  0  0  0  0  0  0  0  0  0  0  0  # atno 10167 bound_to 10162
  157.2130  131.0702  151.1958 H   0  0  0  0  0  0  0  0  0  0  0  0  # atno 10718 bound_to 10713
  154.7157  135.5117  153.8734 H   0  0  0  0  0  0  0  0  0  0  0  0  # atno 10763 bound_to 10752
  153.0818  135.6633  154.0038 H   0  0  0  0  0  0  0  0  0  0  0  0  # atno 10764 bound_to 10752
  153.9871  135.3023  155.3394 H   0  0  0  0  0  0  0  0  0  0  0  0  # atno 10765 bound_to 10752
  139.9677  134.6953  156.0511 H   0  0  0  0  0  0  0  0  0  0  0  0  # atno 11005 bound_to 11000
  146.3068  140.3814  142.8684 LP  0  0  0  0  0  0  0  0  0  0  0  0  # atno 17320 bound_to 7965
  144.8910  140.7523  143.5927 LP  0  0  0  0  0  0  0  0  0  0  0  0  # atno 17321 bound_to 7965
  139.9022  143.6822  152.3129 LP  0  0  0  0  0  0  0  0  0  0  0  0  # atno 17342 bound_to 10162
  139.7175  144.7609  151.1009 LP  0  0  0  0  0  0  0  0  0  0  0  0  # atno 17343 bound_to 10162
  157.3653  130.7152  149.6528 LP  0  0  0  0  0  0  0  0  0  0  0  0  # atno 17370 bound_to 10713
  155.9689  130.4214  150.4468 LP  0  0  0  0  0  0  0  0  0  0  0  0  # atno 17371 bound_to 10713
  141.1357  133.6576  156.3586 LP  0  0  0  0  0  0  0  0  0  0  0  0  # atno 17394 bound_to 11000
  140.5361  134.6166  157.5365 LP  0  0  0  0  0  0  0  0  0  0  0  0  # atno 17395 bound_to 11000

$$$$
