AV-unprocessed.smi:1019|AV-procd|sdf|4449|dock3
  -GOLD-   22720 2413D 1   1.00000     0.00000
 Structure written by MMmdl.
 45 47  0  0  0  0  0  0  0  0  3 V2000
  147.6138  136.8496  154.0839 C   0  0  0  0  0  0  0  0  0  0  0  0
  147.6588  137.9111  153.0518 N   0  3  1  0  0  0  0  0  0  0  0  0
  146.3602  138.0504  152.3469 C   0  0  0  0  0  0  0  0  0  0  0  0
  145.9177  136.7417  151.7153 C   0  0  0  0  0  0  0  0  0  0  0  0
  144.7558  136.0920  152.1829 C   0  0  0  0  0  0  0  0  0  0  0  0
  144.3472  134.8727  151.6089 C   0  0  0  0  0  0  0  0  0  0  0  0
  145.0962  134.2999  150.5632 C   0  0  0  0  0  0  0  0  0  0  0  0
  146.2538  134.9474  150.0902 C   0  0  0  0  0  0  0  0  0  0  0  0
  146.6634  136.1667  150.6640 C   0  0  0  0  0  0  0  0  0  0  0  0
  148.1919  139.1973  153.5750 C   0  0  0  0  0  0  0  0  0  0  0  0
  149.5503  139.0219  154.2814 C   0  0  1  0  0  0  0  0  0  0  0  0
  150.5112  138.5971  153.3322 O   0  0  0  0  0  0  0  0  0  0  0  0
  150.0312  140.3398  154.9207 C   0  0  0  0  0  0  0  0  0  0  0  0
  150.8722  140.1276  156.1064 N   0  0  0  0  0  0  0  0  0  0  0  0
  151.5516  139.0190  156.5093 C   0  0  0  0  0  0  0  0  0  0  0  0
  152.1800  139.3243  157.6783 N   0  3  0  0  0  0  0  0  0  0  0  0
  151.9000  140.6472  158.0270 C   0  0  0  0  0  0  0  0  0  0  0  0
  152.3056  141.4080  159.1192 C   0  0  0  0  0  0  0  0  0  0  0  0
  151.8354  142.7364  159.1748 C   0  0  0  0  0  0  0  0  0  0  0  0
  150.9973  143.2621  158.1695 C   0  0  0  0  0  0  0  0  0  0  0  0
  150.5920  142.4818  157.0664 C   0  0  0  0  0  0  0  0  0  0  0  0
  151.0607  141.1695  157.0201 C   0  0  0  0  0  0  0  0  0  0  0  0
  146.8970  137.0971  154.8680 H   0  0  0  0  0  0  0  0  0  0  0  0
  148.5893  136.7052  154.5477 H   0  0  0  0  0  0  0  0  0  0  0  0
  147.3198  135.8964  153.6432 H   0  0  0  0  0  0  0  0  0  0  0  0
  145.5844  138.3504  153.0533 H   0  0  0  0  0  0  0  0  0  0  0  0
  146.4227  138.8417  151.5981 H   0  0  0  0  0  0  0  0  0  0  0  0
  144.1765  136.5245  152.9857 H   0  0  0  0  0  0  0  0  0  0  0  0
  143.4586  134.3762  151.9702 H   0  0  0  0  0  0  0  0  0  0  0  0
  144.7821  133.3648  150.1232 H   0  0  0  0  0  0  0  0  0  0  0  0
  146.8281  134.5083  149.2876 H   0  0  0  0  0  0  0  0  0  0  0  0
  147.5539  136.6555  150.2962 H   0  0  0  0  0  0  0  0  0  0  0  0
  148.3158  139.9244  152.7723 H   0  0  0  0  0  0  0  0  0  0  0  0
  147.4600  139.6352  154.2557 H   0  0  0  0  0  0  0  0  0  0  0  0
  149.4784  138.2603  155.0577 H   0  0  0  0  0  0  0  0  0  0  0  0
  150.4276  139.1216  152.5508 H   0  0  0  0  0  0  0  0  0  0  0  0
  150.6187  140.9160  154.2042 H   0  0  0  0  0  0  0  0  0  0  0  0
  149.1868  140.9693  155.2045 H   0  0  0  0  0  0  0  0  0  0  0  0
  151.5826  138.0678  155.9974 H   0  0  0  0  0  0  0  0  0  0  0  0
  152.9481  141.0085  159.8901 H   0  0  0  0  0  0  0  0  0  0  0  0
  152.1238  143.3650  160.0049 H   0  0  0  0  0  0  0  0  0  0  0  0
  150.6589  144.2853  158.2466 H   0  0  0  0  0  0  0  0  0  0  0  0
  149.9505  142.8937  156.3018 H   0  0  0  0  0  0  0  0  0  0  0  0
  148.3111  137.5976  152.3477 H   0  0  0  0  0  0  0  0  0  0  0  0
  152.7566  138.6748  158.1980 H   0  0  0  0  0  0  0  0  0  0  0  0
  1  2  1  0  0  0  0
  1 23  1  0  0  0  0
  1 24  1  0  0  0  0
  1 25  1  0  0  0  0
  2  3  1  0  0  0  0
  2 10  1  0  0  0  0
  2 44  1  0  0  0  0
  3  4  1  0  0  0  0
  3 26  1  0  0  0  0
  3 27  1  0  0  0  0
  4  9  1  0  0  0  0
  4  5  2  0  0  0  0
  5  6  1  0  0  0  0
  5 28  1  0  0  0  0
  6  7  2  0  0  0  0
  6 29  1  0  0  0  0
  7  8  1  0  0  0  0
  7 30  1  0  0  0  0
  8  9  2  0  0  0  0
  8 31  1  0  0  0  0
  9 32  1  0  0  0  0
 10 11  1  0  0  0  0
 10 33  1  0  0  0  0
 10 34  1  0  0  0  0
 11 12  1  0  0  0  0
 11 13  1  0  0  0  0
 11 35  1  0  0  0  0
 12 36  1  0  0  0  0
 13 14  1  0  0  0  0
 13 37  1  0  0  0  0
 13 38  1  0  0  0  0
 14 22  1  0  0  0  0
 14 15  1  0  0  0  0
 15 16  2  0  0  0  0
 15 39  1  0  0  0  0
 16 17  1  0  0  0  0
 16 45  1  0  0  0  0
 17 22  2  0  0  0  0
 17 18  1  0  0  0  0
 18 19  2  0  0  0  0
 18 40  1  0  0  0  0
 19 20  1  0  0  0  0
 19 41  1  0  0  0  0
 20 21  2  0  0  0  0
 20 42  1  0  0  0  0
 21 22  1  0  0  0  0
 21 43  1  0  0  0  0
M  CHG  1   2   1
M  CHG  1  16   1
M  END
> <s_m_source_file>
AV-unprocessed.smi

> <i_m_source_file_index>
1019

> <i_lp_mmshare_version>
43012

> <i_f3d_flags>
0

> <s_epik_input>
W2NIXTFbY0hdW2NIXVtjSF1bY0hdYzFbQ0gyXU4oW0NIM10pW0NIMl1bQ0BIXShbT0hdKVtDSDJdbihbY0hdbjIpYyhjMjMpW2NIXVtjSF1bY0hdW2NIXTM=

> <s_epik_cmdline>
J2VwaWtfcHl0aG9uJywgJy1waCcsICc3LjAnLCAnLXRuJywgJzgnLCAnLW1hJywgJzIwMCcsICctbWV0YWxfYmluZGluZycsICctaW1hZScsICc8aW5maWxlLm1hZT4nLCAnLW9tYWUnLCAnPG91dGZpbGUubWFlPic=

> <r_epik_Ionization_Penalty>
1.5198

> <r_epik_Ionization_Penalty_Charging>
1.5198

> <r_epik_Ionization_Penalty_Neutral>
3.13312e-06

> <r_epik_State_Penalty>
1.624

> <r_epik_Charging_Adjusted_Penalty>
3.1438

> <i_epik_Tot_Q>
2

> <i_epik_Tot_abs_Q>
2

> <r_epik_Metal_State_Penalty>
5.67392

> <b_epik_Metal_Only>
0

> <s_lp_Force_Field>
OPLS_2005

> <r_lp_Energy>
24.7474

> <b_lp_Chiralities_Consistent>
1

> <s_lp_Variant>
AV-unprocessed.smi:1019-7

> <Gold.Version>
5.8.1

> <Gold.Id.Protein>
6NUR|6NUR_protein|mol2

> <Gold.PLP.Fitness>
48.0831

> <Gold.PLP.PLP>
-40.1023

> <Gold.PLP.part.hbond>
-3.1518

> <Gold.PLP.part.metal>
0.0000

> <Gold.PLP.part.buried>
-0.1616

> <Gold.PLP.part.nonpolar>
-36.3648

> <Gold.PLP.part.repulsive>
0.0956

> <Gold.PLP.ligand.clash>
0.0000

> <Gold.PLP.ligand.torsion>
0.6837

> <Gold.PLP.Chemscore.Hbond>
3.0000

> <Gold.PLP.Chemscore.CHOScore>
0.0000

> <Gold.PLP.Chemscore.Metal>
0.0000

> <Gold.Chemscore.Hbonds>
donor molecule, donor type, donor heavy atom, donor atom, acceptor molecule, acceptor atom, score
      L1  H     2    44       P1  7948  1.60
      L1  H    12    36       P1  7957  1.00

> <Gold.PLP.Chemscore.Internal.Correction>
0.3482

> <Gold.Rescore>
     Score         DG    S(hbond)    S(metal)    S(lipo)     H(rot)  DE(clash)    DE(int)     intcor
     15.29     -16.42       1.54        0.00     103.17       2.46       0.04       1.09       ----

> <Gold.Chemscore.Fitness>
15.2906

> <Gold.Chemscore.DG>
-16.4174

> <Gold.Chemscore.ZeroCoef>
-5.4800

> <Gold.Chemscore.Hbond>
1.5424

> <Gold.Chemscore.Metal>
0.0000

> <Gold.Chemscore.Lipo>
103.1713

> <Gold.Chemscore.Internal_Hbond>
0.0000

> <Gold.Chemscore.DEClash>
0.0396

> <Gold.Chemscore.DEInternal>
1.0872

> <Gold.Chemscore.Rot>
2.4552

> <Gold.Chemscore.Internal.Correction>
   9.000000E+99

> <Gold.Chemscore.Hbonds>
donor molecule, donor type, donor heavy atom, donor atom, acceptor molecule, acceptor atom, score
      L1  H     2    44       P1  7948  0.77
      L1  H    12    36       P1  7957  0.30

> <Gold.Chemscore.Hbond.Weighted>
-5.1518

> <Gold.Chemscore.Metal.Weighted>
-0.0000

> <Gold.Chemscore.Lipo.Weighted>
-12.0710

> <Gold.Chemscore.Internal_Hbond.Weighted>
0.0000

> <Gold.Chemscore.DEClash.Weighted>
0.0396

> <Gold.Chemscore.DEInternal.Weighted>
1.0872

> <Gold.Chemscore.Rot.Weighted>
6.2854

> <Gold.Chemscore.Internal.Correction.Weighted>
   9.000000E+99

> <Gold.Protein.RotatedTorsions>
[ 6907 6896 6895 6894 ] final  161.00 input  -60.11 | X-H torsion
[ 7974 7965 7964 7962 ] final -135.18 input  175.53 | X-H torsion
[ 8008 7997 7996 7995 ] final   97.51 input   59.86 | X-H torsion
[ 10167 10162 10161 10158 ] final   64.92 input  -65.29 | X-H torsion
[ 10718 10713 10712 10709 ] final  -17.32 input   66.30 | X-H torsion
[ 10763 10752 10751 10750 ] final   31.16 input  -60.55 | X-H torsion
[ 11005 11000 10999 10996 ] final  134.82 input  -57.11 | X-H torsion

> <Gold.Protein.ActiveResidues>
 VAL166  LYS551  ARG553  GLY616  TRP617  ASP618  TYR619  PRO620  LYS621  CYS622 
 ASP623  PHE694  ASN695  SER759  ASP760  ASP761  ALA762  ILE779  LEU786  VAL792 
 PHE793  MET794  SER795  GLU796  ALA797  LYS798  CYS799  TRP800  GLU811  SER814 

> <Gold.Protein.RotatedAtoms>
  151.9621  133.3698  159.4039 H   0  0  0  0  0  0  0  0  0  0  0  0  # atno 6907 bound_to 6896
  150.6962  134.4229  159.5222 H   0  0  0  0  0  0  0  0  0  0  0  0  # atno 6908 bound_to 6896
  152.1919  134.8664  160.0567 H   0  0  0  0  0  0  0  0  0  0  0  0  # atno 6909 bound_to 6896
  144.9037  140.6805  143.5069 H   0  0  0  0  0  0  0  0  0  0  0  0  # atno 7974 bound_to 7965
  156.0909  140.3257  155.7815 H   0  0  0  0  0  0  0  0  0  0  0  0  # atno 8008 bound_to 7997
  155.4998  140.0568  157.2958 H   0  0  0  0  0  0  0  0  0  0  0  0  # atno 8009 bound_to 7997
  154.4637  140.1979  156.0191 H   0  0  0  0  0  0  0  0  0  0  0  0  # atno 8010 bound_to 7997
  140.1169  144.4767  150.6944 H   0  0  0  0  0  0  0  0  0  0  0  0  # atno 10167 bound_to 10162
  156.5752  130.4760  149.6345 H   0  0  0  0  0  0  0  0  0  0  0  0  # atno 10718 bound_to 10713
  153.0331  135.6446  154.1156 H   0  0  0  0  0  0  0  0  0  0  0  0  # atno 10763 bound_to 10752
  154.0876  135.2868  155.3279 H   0  0  0  0  0  0  0  0  0  0  0  0  # atno 10764 bound_to 10752
  154.6487  135.5433  153.7939 H   0  0  0  0  0  0  0  0  0  0  0  0  # atno 10765 bound_to 10752
  139.9939  134.9504  156.9921 H   0  0  0  0  0  0  0  0  0  0  0  0  # atno 11005 bound_to 11000
  145.3572  139.1691  143.4402 LP  0  0  0  0  0  0  0  0  0  0  0  0  # atno 17320 bound_to 7965
  146.3122  140.3631  142.8667 LP  0  0  0  0  0  0  0  0  0  0  0  0  # atno 17321 bound_to 7965
  140.6894  143.2367  151.5172 LP  0  0  0  0  0  0  0  0  0  0  0  0  # atno 17342 bound_to 10162
  139.5589  144.2205  152.1659 LP  0  0  0  0  0  0  0  0  0  0  0  0  # atno 17343 bound_to 10162
  156.2679  130.7000  151.1789 LP  0  0  0  0  0  0  0  0  0  0  0  0  # atno 17370 bound_to 10713
  157.7339  131.0586  150.5552 LP  0  0  0  0  0  0  0  0  0  0  0  0  # atno 17371 bound_to 10713
  140.4854  134.1246  155.7224 LP  0  0  0  0  0  0  0  0  0  0  0  0  # atno 17394 bound_to 11000
  141.1589  133.8831  157.1903 LP  0  0  0  0  0  0  0  0  0  0  0  0  # atno 17395 bound_to 11000

$$$$
