AV-unprocessed.smi:1847|AV-procd|sdf|7517|dock10
  -GOLD-   22720 9223D 1   1.00000     0.00000
 Structure written by MMmdl.
 24 25  0  0  0  0  0  0  0  0  2 V2000
  151.7410  138.5671  159.0643 O   0  0  0  0  0  0  0  0  0  0  0  0
  152.1891  139.2751  158.1576 C   0  0  0  0  0  0  0  0  0  0  0  0
  153.1437  140.2248  158.3352 N   0  5  0  0  0  0  0  0  0  0  0  0
  153.1739  140.9675  159.4529 C   0  0  0  0  0  0  0  0  0  0  0  0
  152.4413  142.1706  159.5595 C   0  0  0  0  0  0  0  0  0  0  0  0
  152.4970  142.9106  160.7577 C   0  0  0  0  0  0  0  0  0  0  0  0
  153.2183  142.5301  161.8327 N   0  0  0  0  0  0  0  0  0  0  0  0
  153.9139  141.3779  161.7380 C   0  0  0  0  0  0  0  0  0  0  0  0
  153.9213  140.5692  160.5838 C   0  0  0  0  0  0  0  0  0  0  0  0
  151.6982  139.1242  156.7900 C   0  0  0  0  0  0  0  0  0  0  0  0
  151.6228  140.2015  155.9723 C   0  0  0  0  0  0  0  0  0  0  0  0
  151.1396  140.1534  154.6883 O   0  0  0  0  0  0  0  0  0  0  0  0
  150.4820  138.9390  154.3473 C   0  0  0  0  0  0  0  0  0  0  0  0
  151.2451  137.7388  154.9251 C   0  0  0  0  0  0  0  0  0  0  0  0
  151.3618  137.8669  156.3374 O   0  0  0  0  0  0  0  0  0  0  0  0
  151.8444  142.5251  158.7320 H   0  0  0  0  0  0  0  0  0  0  0  0
  151.9450  143.8337  160.8542 H   0  0  0  0  0  0  0  0  0  0  0  0
  154.4826  141.0895  162.6095 H   0  0  0  0  0  0  0  0  0  0  0  0
  154.4966  139.6548  160.5676 H   0  0  0  0  0  0  0  0  0  0  0  0
  151.8948  141.2090  156.2523 H   0  0  0  0  0  0  0  0  0  0  0  0
  149.4618  138.9621  154.7326 H   0  0  0  0  0  0  0  0  0  0  0  0
  150.4143  138.8621  153.2622 H   0  0  0  0  0  0  0  0  0  0  0  0
  150.7268  136.8086  154.6928 H   0  0  0  0  0  0  0  0  0  0  0  0
  152.2416  137.6707  154.4862 H   0  0  0  0  0  0  0  0  0  0  0  0
  1  2  2  0  0  0  0
  2  3  1  0  0  0  0
  2 10  1  0  0  0  0
  3  4  1  0  0  0  0
  4  9  1  0  0  0  0
  4  5  2  0  0  0  0
  5  6  1  0  0  0  0
  5 16  1  0  0  0  0
  6  7  2  0  0  0  0
  6 17  1  0  0  0  0
  7  8  1  0  0  0  0
  8  9  2  0  0  0  0
  8 18  1  0  0  0  0
  9 19  1  0  0  0  0
 10 15  1  0  0  0  0
 10 11  2  0  0  0  0
 11 12  1  0  0  0  0
 11 20  1  0  0  0  0
 12 13  1  0  0  0  0
 13 14  1  0  0  0  0
 13 21  1  0  0  0  0
 13 22  1  0  0  0  0
 14 15  1  0  0  0  0
 14 23  1  0  0  0  0
 14 24  1  0  0  0  0
M  CHG  1   3  -1
M  END
> <s_m_source_file>
AV-unprocessed.smi

> <i_m_source_file_index>
1847

> <i_lp_mmshare_version>
43012

> <i_f3d_flags>
0

> <s_epik_input>
TzFbQ0gyXVtDSDJdT1tDSF09QzFDKD1PKVtOSF1jMltjSF1bY0hdbltjSF1bY0hdMg==

> <s_epik_cmdline>
J2VwaWtfcHl0aG9uJywgJy1waCcsICc3LjAnLCAnLXRuJywgJzgnLCAnLW1hJywgJzIwMCcsICctbWV0YWxfYmluZGluZycsICctaW1hZScsICc8aW5maWxlLm1hZT4nLCAnLW9tYWUnLCAnPG91dGZpbGUubWFlPic=

> <r_epik_Ionization_Penalty>
6.68616

> <r_epik_Ionization_Penalty_Charging>
5.33655

> <r_epik_Ionization_Penalty_Neutral>
1.34962

> <r_epik_State_Penalty>
5.36971

> <r_epik_Charging_Adjusted_Penalty>
10.7063

> <i_epik_Tot_Q>
-1

> <i_epik_Tot_abs_Q>
1

> <r_epik_Metal_State_Penalty>
1.43726

> <b_epik_Metal_Only>
1

> <s_lp_Force_Field>
OPLS_2005

> <r_lp_Energy>
5.87976

> <b_lp_Chiralities_Consistent>
1

> <s_lp_Variant>
AV-unprocessed.smi:1847-3

> <Gold.Version>
5.8.1

> <Gold.Id.Protein>
6NUR|6NUR_protein|mol2

> <Gold.PLP.Fitness>
36.4336

> <Gold.PLP.PLP>
-30.1431

> <Gold.PLP.part.hbond>
-1.9589

> <Gold.PLP.part.metal>
0.0000

> <Gold.PLP.part.buried>
-3.7785

> <Gold.PLP.part.nonpolar>
-24.4920

> <Gold.PLP.part.repulsive>
0.1174

> <Gold.PLP.ligand.clash>
0.0000

> <Gold.PLP.ligand.torsion>
1.4906

> <Gold.PLP.Chemscore.Hbond>
2.9200

> <Gold.PLP.Chemscore.CHOScore>
0.0000

> <Gold.PLP.Chemscore.Metal>
0.0000

> <Gold.Chemscore.Hbonds>
donor molecule, donor type, donor heavy atom, donor atom, acceptor molecule, acceptor atom, score
      P1  H  7989  7998       L1    12  0.86
      P1  H  7997  8010       L1     3  1.89

> <Gold.PLP.Chemscore.Internal.Correction>
0.5117

> <Gold.Rescore>
     Score         DG    S(hbond)    S(metal)    S(lipo)     H(rot)  DE(clash)    DE(int)     intcor
     19.11     -20.59       1.92        0.00      74.44       0.00       0.01       1.46       ----

> <Gold.Chemscore.Fitness>
19.1146

> <Gold.Chemscore.DG>
-20.5873

> <Gold.Chemscore.ZeroCoef>
-5.4800

> <Gold.Chemscore.Hbond>
1.9155

> <Gold.Chemscore.Metal>
0.0000

> <Gold.Chemscore.Lipo>
74.4395

> <Gold.Chemscore.Internal_Hbond>
0.0000

> <Gold.Chemscore.DEClash>
0.0149

> <Gold.Chemscore.DEInternal>
1.4578

> <Gold.Chemscore.Rot>
0.0000

> <Gold.Chemscore.Internal.Correction>
   9.000000E+99

> <Gold.Chemscore.Hbonds>
donor molecule, donor type, donor heavy atom, donor atom, acceptor molecule, acceptor atom, score
      P1  H  7989  7998       L1    12  0.69
      P1  H  7997  8010       L1     3  0.76

> <Gold.Chemscore.Hbond.Weighted>
-6.3979

> <Gold.Chemscore.Metal.Weighted>
-0.0000

> <Gold.Chemscore.Lipo.Weighted>
-8.7094

> <Gold.Chemscore.Internal_Hbond.Weighted>
0.0000

> <Gold.Chemscore.DEClash.Weighted>
0.0149

> <Gold.Chemscore.DEInternal.Weighted>
1.4578

> <Gold.Chemscore.Rot.Weighted>
0.0000

> <Gold.Chemscore.Internal.Correction.Weighted>
   9.000000E+99

> <Gold.Protein.RotatedTorsions>
[ 6907 6896 6895 6894 ] final -153.56 input  -60.11 | X-H torsion
[ 7974 7965 7964 7962 ] final   45.23 input  175.53 | X-H torsion
[ 8008 7997 7996 7995 ] final   30.71 input   59.86 | X-H torsion
[ 10167 10162 10161 10158 ] final    9.76 input  -65.29 | X-H torsion
[ 10718 10713 10712 10709 ] final   77.76 input   66.30 | X-H torsion
[ 10763 10752 10751 10750 ] final   26.63 input  -60.55 | X-H torsion
[ 11005 11000 10999 10996 ] final   94.99 input  -57.11 | X-H torsion

> <Gold.Protein.ActiveResidues>
 VAL166  LYS551  ARG553  GLY616  TRP617  ASP618  TYR619  PRO620  LYS621  CYS622 
 ASP623  PHE694  ASN695  SER759  ASP760  ASP761  ALA762  ILE779  LEU786  VAL792 
 PHE793  MET794  SER795  GLU796  ALA797  LYS798  CYS799  TRP800  GLU811  SER814 

> <Gold.Protein.RotatedAtoms>
  151.2443  133.4383  159.2608 H   0  0  0  0  0  0  0  0  0  0  0  0  # atno 6907 bound_to 6896
  151.0676  134.9777  159.8302 H   0  0  0  0  0  0  0  0  0  0  0  0  # atno 6908 bound_to 6896
  152.5407  134.2390  159.8907 H   0  0  0  0  0  0  0  0  0  0  0  0  # atno 6909 bound_to 6896
  146.0499  139.4987  142.9725 H   0  0  0  0  0  0  0  0  0  0  0  0  # atno 7974 bound_to 7965
  155.0948  140.3223  155.4563 H   0  0  0  0  0  0  0  0  0  0  0  0  # atno 8008 bound_to 7997
  156.2733  140.2071  156.6021 H   0  0  0  0  0  0  0  0  0  0  0  0  # atno 8009 bound_to 7997
  154.6875  140.0520  157.0316 H   0  0  0  0  0  0  0  0  0  0  0  0  # atno 8010 bound_to 7997
  140.6235  143.8152  150.7204 H   0  0  0  0  0  0  0  0  0  0  0  0  # atno 10167 bound_to 10162
  157.6721  130.9836  150.1688 H   0  0  0  0  0  0  0  0  0  0  0  0  # atno 10718 bound_to 10713
  153.0609  135.6556  154.0464 H   0  0  0  0  0  0  0  0  0  0  0  0  # atno 10763 bound_to 10752
  154.0132  135.2926  155.3391 H   0  0  0  0  0  0  0  0  0  0  0  0  # atno 10764 bound_to 10752
  154.6947  135.5268  153.8510 H   0  0  0  0  0  0  0  0  0  0  0  0  # atno 10765 bound_to 10752
  139.8793  134.8875  156.3945 H   0  0  0  0  0  0  0  0  0  0  0  0  # atno 11005 bound_to 11000
  145.6743  141.0208  143.1641 LP  0  0  0  0  0  0  0  0  0  0  0  0  # atno 17320 bound_to 7965
  144.7117  139.8346  143.7412 LP  0  0  0  0  0  0  0  0  0  0  0  0  # atno 17321 bound_to 7965
  140.1747  143.4164  152.1975 LP  0  0  0  0  0  0  0  0  0  0  0  0  # atno 17342 bound_to 10162
  139.5459  144.7298  151.4584 LP  0  0  0  0  0  0  0  0  0  0  0  0  # atno 17343 bound_to 10162
  156.2447  130.3694  149.8298 LP  0  0  0  0  0  0  0  0  0  0  0  0  # atno 17370 bound_to 10713
  156.6088  130.8578  151.3449 LP  0  0  0  0  0  0  0  0  0  0  0  0  # atno 17371 bound_to 10713
  140.9310  133.7579  156.0024 LP  0  0  0  0  0  0  0  0  0  0  0  0  # atno 17394 bound_to 11000
  140.8331  134.3155  157.5341 LP  0  0  0  0  0  0  0  0  0  0  0  0  # atno 17395 bound_to 11000

$$$$
