AV-unprocessed.smi:198|AV-procd|sdf|1556|dock4
  -GOLD-   2262019423D 1   1.00000     0.00000
 Structure written by MMmdl.
 59 63  0  0  0  0  0  0  0  0  2 V2000
  145.8368  131.4075  151.0441 C   0  0  0  0  0  0  0  0  0  0  0  0
  146.8701  131.6645  152.0704 N   0  3  1  0  0  0  0  0  0  0  0  0
  146.9587  133.1001  152.4331 C   0  0  0  0  0  0  0  0  0  0  0  0
  148.1352  133.3534  153.3871 C   0  0  0  0  0  0  0  0  0  0  0  0
  148.0151  132.4786  154.6537 C   0  0  1  0  0  0  0  0  0  0  0  0
  147.8535  130.9869  154.2772 C   0  0  2  0  0  0  0  0  0  0  0  0
  149.1833  130.3680  153.7982 C   0  0  0  0  0  0  0  0  0  0  0  0
  150.2859  130.6006  154.8407 C   0  0  0  0  0  0  0  0  0  0  0  0
  150.4279  132.0936  155.1736 C   0  0  0  0  0  0  0  0  0  0  0  0
  149.1401  132.6634  155.5794 N   0  0  0  0  0  0  0  0  0  0  0  0
  149.1604  133.8470  156.2467 C   0  0  0  0  0  0  0  0  0  0  0  0
  148.6031  133.9316  157.4845 N   0  0  0  0  0  0  0  0  0  0  0  0
  148.6354  135.0816  158.1635 C   0  0  0  0  0  0  0  0  0  0  0  0
  149.1676  136.2495  157.8001 N   0  0  0  0  0  0  0  0  0  0  0  0
  149.7231  136.1762  156.5566 C   0  0  0  0  0  0  0  0  0  0  0  0
  149.7589  135.0261  155.7175 C   0  0  0  0  0  0  0  0  0  0  0  0
  150.3869  135.3380  154.5176 N   0  0  0  0  0  0  0  0  0  0  0  0
  150.7094  136.5963  154.6429 C   0  0  0  0  0  0  0  0  0  0  0  0
  150.3647  137.1754  155.8440 N   0  0  0  0  0  0  0  0  0  0  0  0
  150.5857  138.5377  156.2414 C   0  0  0  0  0  0  0  0  0  0  0  0
  149.4052  139.4817  156.4719 C   0  0  0  0  0  0  0  0  0  0  0  0
  150.2125  140.6575  155.8758 C   0  0  0  0  0  0  0  0  0  0  0  0
  149.4564  141.5070  154.8429 C   0  0  0  0  0  0  0  0  0  0  0  0
  149.3585  140.8415  153.6001 O   0  0  0  0  0  0  0  0  0  0  0  0
  150.8761  141.6359  156.8710 C   0  0  0  0  0  0  0  0  0  0  0  0
  149.9876  142.6180  157.3638 O   0  0  0  0  0  0  0  0  0  0  0  0
  151.1368  139.5804  155.2629 C   0  0  0  0  0  0  0  0  0  0  0  0
  146.7072  130.7949  153.2629 C   0  0  0  0  0  0  0  0  0  0  0  0
  144.8425  131.6529  151.4201 H   0  0  0  0  0  0  0  0  0  0  0  0
  145.8412  130.3583  150.7472 H   0  0  0  0  0  0  0  0  0  0  0  0
  146.0224  132.0057  150.1513 H   0  0  0  0  0  0  0  0  0  0  0  0
  147.0895  133.6984  151.5307 H   0  0  0  0  0  0  0  0  0  0  0  0
  146.0235  133.4210  152.8948 H   0  0  0  0  0  0  0  0  0  0  0  0
  149.0715  133.1544  152.8657 H   0  0  0  0  0  0  0  0  0  0  0  0
  148.1572  134.4090  153.6603 H   0  0  0  0  0  0  0  0  0  0  0  0
  147.0945  132.7703  155.1569 H   0  0  0  0  0  0  0  0  0  0  0  0
  147.5691  130.4511  155.1844 H   0  0  0  0  0  0  0  0  0  0  0  0
  149.0599  129.2981  153.6267 H   0  0  0  0  0  0  0  0  0  0  0  0
  149.4862  130.7996  152.8439 H   0  0  0  0  0  0  0  0  0  0  0  0
  150.0491  130.0475  155.7506 H   0  0  0  0  0  0  0  0  0  0  0  0
  151.2357  130.2071  154.4777 H   0  0  0  0  0  0  0  0  0  0  0  0
  151.1565  132.2102  155.9772 H   0  0  0  0  0  0  0  0  0  0  0  0
  150.8167  132.6362  154.3113 H   0  0  0  0  0  0  0  0  0  0  0  0
  148.1713  135.0624  159.1385 H   0  0  0  0  0  0  0  0  0  0  0  0
  151.2104  137.1374  153.8536 H   0  0  0  0  0  0  0  0  0  0  0  0
  151.2157  138.5020  157.1307 H   0  0  0  0  0  0  0  0  0  0  0  0
  148.5368  139.2137  155.8675 H   0  0  0  0  0  0  0  0  0  0  0  0
  149.1267  139.6024  157.5193 H   0  0  0  0  0  0  0  0  0  0  0  0
  148.4532  141.7546  155.1920 H   0  0  0  0  0  0  0  0  0  0  0  0
  149.9656  142.4558  154.6712 H   0  0  0  0  0  0  0  0  0  0  0  0
  148.7444  140.1286  153.6888 H   0  0  0  0  0  0  0  0  0  0  0  0
  151.2803  141.0974  157.7287 H   0  0  0  0  0  0  0  0  0  0  0  0
  151.7136  142.1587  156.4086 H   0  0  0  0  0  0  0  0  0  0  0  0
  149.7351  143.1813  156.6481 H   0  0  0  0  0  0  0  0  0  0  0  0
  152.2036  139.7766  155.3757 H   0  0  0  0  0  0  0  0  0  0  0  0
  150.8968  139.3601  154.2223 H   0  0  0  0  0  0  0  0  0  0  0  0
  145.7529  131.0237  153.7401 H   0  0  0  0  0  0  0  0  0  0  0  0
  146.6582  129.7499  152.9541 H   0  0  0  0  0  0  0  0  0  0  0  0
  147.7561  131.4176  151.6526 H   0  0  0  0  0  0  0  0  0  0  0  0
  1  2  1  0  0  0  0
  1 29  1  0  0  0  0
  1 30  1  0  0  0  0
  1 31  1  0  0  0  0
  2 28  1  0  0  0  0
  2  3  1  0  0  0  0
  2 59  1  0  0  0  0
  3  4  1  0  0  0  0
  3 32  1  0  0  0  0
  3 33  1  0  0  0  0
  4  5  1  0  0  0  0
  4 34  1  0  0  0  0
  4 35  1  0  0  0  0
  5 10  1  0  0  0  0
  5  6  1  0  0  0  0
  5 36  1  0  0  0  0
  6  7  1  0  0  0  0
  6 28  1  0  0  0  0
  6 37  1  0  0  0  0
  7  8  1  0  0  0  0
  7 38  1  0  0  0  0
  7 39  1  0  0  0  0
  8  9  1  0  0  0  0
  8 40  1  0  0  0  0
  8 41  1  0  0  0  0
  9 10  1  0  0  0  0
  9 42  1  0  0  0  0
  9 43  1  0  0  0  0
 10 11  1  0  0  0  0
 11 16  1  0  0  0  0
 11 12  2  0  0  0  0
 12 13  1  0  0  0  0
 13 14  2  0  0  0  0
 13 44  1  0  0  0  0
 14 15  1  0  0  0  0
 15 19  1  0  0  0  0
 15 16  2  0  0  0  0
 16 17  1  0  0  0  0
 17 18  2  0  0  0  0
 18 19  1  0  0  0  0
 18 45  1  0  0  0  0
 19 20  1  0  0  0  0
 20 27  1  0  0  0  0
 20 21  1  0  0  0  0
 20 46  1  0  0  0  0
 21 22  1  0  0  0  0
 21 47  1  0  0  0  0
 21 48  1  0  0  0  0
 22 23  1  0  0  0  0
 22 25  1  0  0  0  0
 22 27  1  0  0  0  0
 23 24  1  0  0  0  0
 23 49  1  0  0  0  0
 23 50  1  0  0  0  0
 24 51  1  0  0  0  0
 25 26  1  0  0  0  0
 25 52  1  0  0  0  0
 25 53  1  0  0  0  0
 26 54  1  0  0  0  0
 27 55  1  0  0  0  0
 27 56  1  0  0  0  0
 28 57  1  0  0  0  0
 28 58  1  0  0  0  0
M  CHG  1   2   1
M  END
> <s_m_source_file>
AV-unprocessed.smi

> <i_m_source_file_index>
198

> <i_lp_mmshare_version>
43012

> <i_f3d_flags>
0

> <s_epik_input>
W0NIMl0xW0NIMl1OKFtDSDNdKVtDSDJdW0NAQEhdKFtDQEhdMTIpW0NIMl1bQ0gyXVtDSDJdTjJjKG5bY0hdbjMpYyhjMzQpbltjSF1uNFtDSF0oW0NIMl01KVtDSDJdQzUoW0NIMl1bT0hdKVtDSDJdW09IXQ==

> <s_epik_cmdline>
J2VwaWtfcHl0aG9uJywgJy1waCcsICc3LjAnLCAnLXRuJywgJzgnLCAnLW1hJywgJzIwMCcsICctbWV0YWxfYmluZGluZycsICctaW1hZScsICc8aW5maWxlLm1hZT4nLCAnLW9tYWUnLCAnPG91dGZpbGUubWFlPic=

> <r_lp_tautomer_probability>
1

> <r_epik_Ionization_Penalty>
0.00239938

> <r_epik_Ionization_Penalty_Charging>
0.00138697

> <r_epik_Ionization_Penalty_Neutral>
0.00101241

> <r_epik_State_Penalty>
-0

> <r_epik_Charging_Adjusted_Penalty>
0.00138697

> <i_epik_Tot_Q>
1

> <i_epik_Tot_abs_Q>
1

> <r_epik_Metal_State_Penalty>
-0

> <b_epik_Metal_Only>
0

> <s_lp_Force_Field>
OPLS_2005

> <r_lp_Energy>
58.4616

> <b_lp_Chiralities_Consistent>
1

> <s_lp_Variant>
AV-unprocessed.smi:198-5

> <Gold.Version>
5.8.1

> <Gold.Id.Protein>
6NUR|6NUR_protein|mol2

> <Gold.PLP.Fitness>
48.0164

> <Gold.PLP.PLP>
-38.8346

> <Gold.PLP.part.hbond>
-5.0000

> <Gold.PLP.part.metal>
0.0000

> <Gold.PLP.part.buried>
-4.0848

> <Gold.PLP.part.nonpolar>
-31.1770

> <Gold.PLP.part.repulsive>
0.1962

> <Gold.PLP.ligand.clash>
0.3000

> <Gold.PLP.ligand.torsion>
1.0812

> <Gold.PLP.Chemscore.Hbond>
3.1338

> <Gold.PLP.Chemscore.CHOScore>
0.4425

> <Gold.PLP.Chemscore.Metal>
0.0000

> <Gold.Chemscore.Hbonds>
donor molecule, donor type, donor heavy atom, donor atom, acceptor molecule, acceptor atom, score
      L1  H     2    59       P1 10747  1.00
      L1  H    26    54       P1  8028  1.00
      P1  H  7989  7998       L1    24  0.07
      P1  H  8011  8017       L1    24  0.91
      L1  C    18    45       P1  7949  0.54

> <Gold.PLP.Chemscore.Internal.Correction>
0.9153

> <Gold.Rescore>
     Score         DG    S(hbond)    S(metal)    S(lipo)     H(rot)  DE(clash)    DE(int)     intcor
     14.90     -16.46       2.64        0.00      85.86       3.08       0.45       1.11       ----

> <Gold.Chemscore.Fitness>
14.9032

> <Gold.Chemscore.DG>
-16.4622

> <Gold.Chemscore.ZeroCoef>
-5.4800

> <Gold.Chemscore.Hbond>
2.6397

> <Gold.Chemscore.Metal>
0.0000

> <Gold.Chemscore.Lipo>
85.8589

> <Gold.Chemscore.Internal_Hbond>
0.0000

> <Gold.Chemscore.DEClash>
0.4540

> <Gold.Chemscore.DEInternal>
1.1051

> <Gold.Chemscore.Rot>
3.0781

> <Gold.Chemscore.Internal.Correction>
   9.000000E+99

> <Gold.Chemscore.Hbonds>
donor molecule, donor type, donor heavy atom, donor atom, acceptor molecule, acceptor atom, score
      L1  H     2    59       P1 10747  0.99
      L1  H    26    54       P1  8028  0.95
      P1  H  8011  8017       L1    24  0.22

> <Gold.Chemscore.Hbond.Weighted>
-8.8167

> <Gold.Chemscore.Metal.Weighted>
-0.0000

> <Gold.Chemscore.Lipo.Weighted>
-10.0455

> <Gold.Chemscore.Internal_Hbond.Weighted>
0.0000

> <Gold.Chemscore.DEClash.Weighted>
0.4540

> <Gold.Chemscore.DEInternal.Weighted>
1.1051

> <Gold.Chemscore.Rot.Weighted>
7.8800

> <Gold.Chemscore.Internal.Correction.Weighted>
   9.000000E+99

> <Gold.Protein.RotatedTorsions>
[ 6907 6896 6895 6894 ] final  -70.15 input  -60.11 | X-H torsion
[ 7974 7965 7964 7962 ] final  124.57 input  175.53 | X-H torsion
[ 8008 7997 7996 7995 ] final  -46.00 input   59.86 | X-H torsion
[ 10167 10162 10161 10158 ] final  109.03 input  -65.29 | X-H torsion
[ 10718 10713 10712 10709 ] final    2.90 input   66.30 | X-H torsion
[ 10763 10752 10751 10750 ] final  -24.58 input  -60.55 | X-H torsion
[ 11005 11000 10999 10996 ] final   73.97 input  -57.11 | X-H torsion

> <Gold.Protein.ActiveResidues>
 VAL166  LYS551  ARG553  GLY616  TRP617  ASP618  TYR619  PRO620  LYS621  CYS622 
 ASP623  PHE694  ASN695  SER759  ASP760  ASP761  ALA762  ILE779  LEU786  VAL792 
 PHE793  MET794  SER795  GLU796  ALA797  LYS798  CYS799  TRP800  GLU811  SER814 

> <Gold.Protein.RotatedAtoms>
  150.7271  134.5495  159.5787 H   0  0  0  0  0  0  0  0  0  0  0  0  # atno 6907 bound_to 6896
  152.2986  134.7635  160.0372 H   0  0  0  0  0  0  0  0  0  0  0  0  # atno 6908 bound_to 6896
  151.8223  133.3361  159.3625 H   0  0  0  0  0  0  0  0  0  0  0  0  # atno 6909 bound_to 6896
  145.0829  139.3644  143.4900 H   0  0  0  0  0  0  0  0  0  0  0  0  # atno 7974 bound_to 7965
  154.4004  140.1382  156.3939 H   0  0  0  0  0  0  0  0  0  0  0  0  # atno 8008 bound_to 7997
  155.7888  140.3479  155.5317 H   0  0  0  0  0  0  0  0  0  0  0  0  # atno 8009 bound_to 7997
  155.8600  140.0955  157.1610 H   0  0  0  0  0  0  0  0  0  0  0  0  # atno 8010 bound_to 7997
  139.6799  144.7119  151.1535 H   0  0  0  0  0  0  0  0  0  0  0  0  # atno 10167 bound_to 10162
  156.8699  130.5616  149.5658 H   0  0  0  0  0  0  0  0  0  0  0  0  # atno 10718 bound_to 10713
  153.6860  135.6964  153.5104 H   0  0  0  0  0  0  0  0  0  0  0  0  # atno 10763 bound_to 10752
  153.2449  135.4294  155.0736 H   0  0  0  0  0  0  0  0  0  0  0  0  # atno 10764 bound_to 10752
  154.8386  135.3517  154.6402 H   0  0  0  0  0  0  0  0  0  0  0  0  # atno 10765 bound_to 10752
  139.9414  134.7392  156.1091 H   0  0  0  0  0  0  0  0  0  0  0  0  # atno 11005 bound_to 11000
  146.3531  140.0627  142.8628 LP  0  0  0  0  0  0  0  0  0  0  0  0  # atno 17320 bound_to 7965
  145.1157  140.9432  143.4630 LP  0  0  0  0  0  0  0  0  0  0  0  0  # atno 17321 bound_to 7965
  140.7648  143.5716  150.8990 LP  0  0  0  0  0  0  0  0  0  0  0  0  # atno 17342 bound_to 10162
  139.9387  143.6408  152.3059 LP  0  0  0  0  0  0  0  0  0  0  0  0  # atno 17343 bound_to 10162
  156.0732  130.5760  150.9423 LP  0  0  0  0  0  0  0  0  0  0  0  0  # atno 17370 bound_to 10713
  157.6202  131.0930  150.8636 LP  0  0  0  0  0  0  0  0  0  0  0  0  # atno 17371 bound_to 10713
  141.1049  133.6663  156.2841 LP  0  0  0  0  0  0  0  0  0  0  0  0  # atno 17394 bound_to 11000
  140.5943  134.5619  157.5505 LP  0  0  0  0  0  0  0  0  0  0  0  0  # atno 17395 bound_to 11000

$$$$
