AV-unprocessed.smi:915|AV-procd|sdf|4154|dock9
  -GOLD-   22720 2 63D 1   1.00000     0.00000
 Structure written by MMmdl.
 34 35  0  0  0  0  0  0  0  0  1 V2000
  151.4706  139.9622  155.6844 C   0  0  0  0  0  0  0  0  0  0  0  0
  150.4656  141.1156  155.5907 C   0  0  0  0  0  0  0  0  0  0  0  0
  149.2856  140.7740  154.7325 C   0  0  0  0  0  0  0  0  0  0  0  0
  148.2672  141.6163  154.3585 C   0  0  0  0  0  0  0  0  0  0  0  0
  147.0852  140.8112  153.3614 S   0  0  0  0  0  0  0  0  0  0  0  0
  148.0354  139.3397  153.4911 C   0  0  0  0  0  0  0  0  0  0  0  0
  147.6388  138.1314  152.8604 N   0  0  0  0  0  0  0  0  0  0  0  0
  146.3921  137.6691  152.6611 C   0  0  0  0  0  0  0  0  0  0  0  0
  145.3578  138.2396  153.0091 O   0  0  0  0  0  0  0  0  0  0  0  0
  146.4090  136.4892  152.0237 N   0  0  0  0  0  0  0  0  0  0  0  0
  145.2311  135.7087  151.6562 C   0  0  0  0  0  0  0  0  0  0  0  0
  145.5943  134.4803  150.8022 C   0  0  2  0  0  0  0  0  0  0  0  0
  144.3889  133.6419  150.3500 C   0  0  0  0  0  0  0  0  0  0  0  0
  144.9160  132.2453  150.0214 C   0  0  0  0  0  0  0  0  0  0  0  0
  145.8458  131.8574  151.1710 C   0  0  0  0  0  0  0  0  0  0  0  0
  146.7133  133.3601  151.6899 S   0  0  0  0  0  0  0  0  0  0  0  0
  149.1416  139.4767  154.2309 N   0  0  0  0  0  0  0  0  0  0  0  0
  152.3159  140.2338  156.3166 H   0  0  0  0  0  0  0  0  0  0  0  0
  151.8616  139.6992  154.7011 H   0  0  0  0  0  0  0  0  0  0  0  0
  151.0078  139.0717  156.1108 H   0  0  0  0  0  0  0  0  0  0  0  0
  150.1331  141.3830  156.5944 H   0  0  0  0  0  0  0  0  0  0  0  0
  150.9687  141.9999  155.1979 H   0  0  0  0  0  0  0  0  0  0  0  0
  148.1406  142.6587  154.6104 H   0  0  0  0  0  0  0  0  0  0  0  0
  148.3924  137.5505  152.5242 H   0  0  0  0  0  0  0  0  0  0  0  0
  147.3056  136.0974  151.7757 H   0  0  0  0  0  0  0  0  0  0  0  0
  144.7556  135.3802  152.5808 H   0  0  0  0  0  0  0  0  0  0  0  0
  144.4945  136.3280  151.1414 H   0  0  0  0  0  0  0  0  0  0  0  0
  146.1355  134.8088  149.9138 H   0  0  0  0  0  0  0  0  0  0  0  0
  143.6618  133.5668  151.1600 H   0  0  0  0  0  0  0  0  0  0  0  0
  143.8786  134.0919  149.4980 H   0  0  0  0  0  0  0  0  0  0  0  0
  144.1089  131.5239  149.8916 H   0  0  0  0  0  0  0  0  0  0  0  0
  145.4787  132.2778  149.0875 H   0  0  0  0  0  0  0  0  0  0  0  0
  145.2617  131.4930  152.0165 H   0  0  0  0  0  0  0  0  0  0  0  0
  146.5488  131.0737  150.8879 H   0  0  0  0  0  0  0  0  0  0  0  0
  1  2  1  0  0  0  0
  1 18  1  0  0  0  0
  1 19  1  0  0  0  0
  1 20  1  0  0  0  0
  2  3  1  0  0  0  0
  2 21  1  0  0  0  0
  2 22  1  0  0  0  0
  3 17  1  0  0  0  0
  3  4  2  0  0  0  0
  4  5  1  0  0  0  0
  4 23  1  0  0  0  0
  5  6  1  0  0  0  0
  6  7  1  0  0  0  0
  6 17  2  0  0  0  0
  7  8  1  0  0  0  0
  7 24  1  0  0  0  0
  8  9  2  0  0  0  0
  8 10  1  0  0  0  0
 10 11  1  0  0  0  0
 10 25  1  0  0  0  0
 11 12  1  0  0  0  0
 11 26  1  0  0  0  0
 11 27  1  0  0  0  0
 12 16  1  0  0  0  0
 12 13  1  0  0  0  0
 12 28  1  0  0  0  0
 13 14  1  0  0  0  0
 13 29  1  0  0  0  0
 13 30  1  0  0  0  0
 14 15  1  0  0  0  0
 14 31  1  0  0  0  0
 14 32  1  0  0  0  0
 15 16  1  0  0  0  0
 15 33  1  0  0  0  0
 15 34  1  0  0  0  0
M  END
> <s_m_source_file>
AV-unprocessed.smi

> <i_m_source_file_index>
915

> <i_lp_mmshare_version>
43012

> <i_f3d_flags>
0

> <s_epik_input>
W0NIM11bQ0gyXWMxW2NIXXNjKG4xKVtOSF1DKD1PKVtOSF1bQ0gyXVtDQEBIXTJbQ0gyXVtDSDJdW0NIMl1TMg==

> <s_epik_cmdline>
J2VwaWtfcHl0aG9uJywgJy1waCcsICc3LjAnLCAnLXRuJywgJzgnLCAnLW1hJywgJzIwMCcsICctbWV0YWxfYmluZGluZycsICctaW1hZScsICc8aW5maWxlLm1hZT4nLCAnLW9tYWUnLCAnPG91dGZpbGUubWFlPic=

> <r_lp_tautomer_probability>
0.999

> <r_epik_Ionization_Penalty>
0.000460048

> <r_epik_Ionization_Penalty_Charging>
0

> <r_epik_Ionization_Penalty_Neutral>
0.000460048

> <r_epik_State_Penalty>
0.000177984

> <r_epik_Charging_Adjusted_Penalty>
0.000177984

> <i_epik_Tot_Q>
0

> <i_epik_Tot_abs_Q>
0

> <r_epik_Metal_State_Penalty>
0.00612978

> <b_epik_Metal_Only>
0

> <s_lp_Force_Field>
OPLS_2005

> <r_lp_Energy>
7.49707

> <b_lp_Chiralities_Consistent>
1

> <s_lp_Variant>
AV-unprocessed.smi:915-1

> <Gold.Version>
5.8.1

> <Gold.Id.Protein>
6NUR|6NUR_protein|mol2

> <Gold.PLP.Fitness>
41.2625

> <Gold.PLP.PLP>
-32.9144

> <Gold.PLP.part.hbond>
-2.3334

> <Gold.PLP.part.metal>
0.0000

> <Gold.PLP.part.buried>
-1.7038

> <Gold.PLP.part.nonpolar>
-30.9223

> <Gold.PLP.part.repulsive>
2.3141

> <Gold.PLP.ligand.clash>
0.0000

> <Gold.PLP.ligand.torsion>
0.2934

> <Gold.PLP.Chemscore.Hbond>
1.9760

> <Gold.PLP.Chemscore.CHOScore>
1.0000

> <Gold.PLP.Chemscore.Metal>
0.0000

> <Gold.Chemscore.Hbonds>
donor molecule, donor type, donor heavy atom, donor atom, acceptor molecule, acceptor atom, score
      L1  H     7    24       P1  7948  1.00
      L1  H    10    25       P1  7948  0.98
      L1  C     4    23       P1  8028  1.00

> <Gold.PLP.Chemscore.Internal.Correction>
0.0068

> <Gold.Rescore>
     Score         DG    S(hbond)    S(metal)    S(lipo)     H(rot)  DE(clash)    DE(int)     intcor
     16.96     -17.39       1.92        0.00      76.77       1.36       0.15       0.27       ----

> <Gold.Chemscore.Fitness>
16.9648

> <Gold.Chemscore.DG>
-17.3903

> <Gold.Chemscore.ZeroCoef>
-5.4800

> <Gold.Chemscore.Hbond>
1.9195

> <Gold.Chemscore.Metal>
0.0000

> <Gold.Chemscore.Lipo>
76.7651

> <Gold.Chemscore.Internal_Hbond>
0.0000

> <Gold.Chemscore.DEClash>
0.1550

> <Gold.Chemscore.DEInternal>
0.2704

> <Gold.Chemscore.Rot>
1.3603

> <Gold.Chemscore.Internal.Correction>
   9.000000E+99

> <Gold.Chemscore.Hbonds>
donor molecule, donor type, donor heavy atom, donor atom, acceptor molecule, acceptor atom, score
      L1  H     7    24       P1  7948  0.93
      L1  H    10    25       P1  7948  0.93

> <Gold.Chemscore.Hbond.Weighted>
-6.4112

> <Gold.Chemscore.Metal.Weighted>
-0.0000

> <Gold.Chemscore.Lipo.Weighted>
-8.9815

> <Gold.Chemscore.Internal_Hbond.Weighted>
0.0000

> <Gold.Chemscore.DEClash.Weighted>
0.1550

> <Gold.Chemscore.DEInternal.Weighted>
0.2704

> <Gold.Chemscore.Rot.Weighted>
3.4824

> <Gold.Chemscore.Internal.Correction.Weighted>
   9.000000E+99

> <Gold.Protein.RotatedTorsions>
[ 6907 6896 6895 6894 ] final   31.09 input  -60.11 | X-H torsion
[ 7974 7965 7964 7962 ] final   82.95 input  175.53 | X-H torsion
[ 8008 7997 7996 7995 ] final  -56.45 input   59.86 | X-H torsion
[ 10167 10162 10161 10158 ] final   36.69 input  -65.29 | X-H torsion
[ 10718 10713 10712 10709 ] final -131.95 input   66.30 | X-H torsion
[ 10763 10752 10751 10750 ] final   87.00 input  -60.55 | X-H torsion
[ 11005 11000 10999 10996 ] final    2.78 input  -57.11 | X-H torsion

> <Gold.Protein.ActiveResidues>
 VAL166  LYS551  ARG553  GLY616  TRP617  ASP618  TYR619  PRO620  LYS621  CYS622 
 ASP623  PHE694  ASN695  SER759  ASP760  ASP761  ALA762  ILE779  LEU786  VAL792 
 PHE793  MET794  SER795  GLU796  ALA797  LYS798  CYS799  TRP800  GLU811  SER814 

> <Gold.Protein.RotatedAtoms>
  152.0554  134.9628  160.0574 H   0  0  0  0  0  0  0  0  0  0  0  0  # atno 6907 bound_to 6896
  152.1012  133.4246  159.4596 H   0  0  0  0  0  0  0  0  0  0  0  0  # atno 6908 bound_to 6896
  150.6839  134.2677  159.4618 H   0  0  0  0  0  0  0  0  0  0  0  0  # atno 6909 bound_to 6896
  145.6183  139.2381  143.2153 H   0  0  0  0  0  0  0  0  0  0  0  0  # atno 7974 bound_to 7965
  154.4230  140.1129  156.5639 H   0  0  0  0  0  0  0  0  0  0  0  0  # atno 8008 bound_to 7997
  155.6283  140.3495  155.4655 H   0  0  0  0  0  0  0  0  0  0  0  0  # atno 8009 bound_to 7997
  155.9969  140.1191  157.0575 H   0  0  0  0  0  0  0  0  0  0  0  0  # atno 8010 bound_to 7997
  140.4104  144.1600  150.6139 H   0  0  0  0  0  0  0  0  0  0  0  0  # atno 10167 bound_to 10162
  156.2296  130.7029  151.0843 H   0  0  0  0  0  0  0  0  0  0  0  0  # atno 10718 bound_to 10713
  153.1625  135.4560  154.9792 H   0  0  0  0  0  0  0  0  0  0  0  0  # atno 10763 bound_to 10752
  154.7908  135.3220  154.7784 H   0  0  0  0  0  0  0  0  0  0  0  0  # atno 10764 bound_to 10752
  153.8272  135.6941  153.4874 H   0  0  0  0  0  0  0  0  0  0  0  0  # atno 10765 bound_to 10752
  140.6004  133.9841  155.8129 H   0  0  0  0  0  0  0  0  0  0  0  0  # atno 11005 bound_to 11000
  146.1451  140.7004  142.9349 LP  0  0  0  0  0  0  0  0  0  0  0  0  # atno 17320 bound_to 7965
  144.7241  140.4469  143.6986 LP  0  0  0  0  0  0  0  0  0  0  0  0  # atno 17321 bound_to 7965
  140.4644  143.2436  151.9176 LP  0  0  0  0  0  0  0  0  0  0  0  0  # atno 17342 bound_to 10162
  139.4782  144.5435  151.8493 LP  0  0  0  0  0  0  0  0  0  0  0  0  # atno 17343 bound_to 10162
  157.7126  131.0726  150.6444 LP  0  0  0  0  0  0  0  0  0  0  0  0  # atno 17370 bound_to 10713
  156.6511  130.4485  149.5719 LP  0  0  0  0  0  0  0  0  0  0  0  0  # atno 17371 bound_to 10713
  141.0876  133.9967  157.3289 LP  0  0  0  0  0  0  0  0  0  0  0  0  # atno 17394 bound_to 11000
  139.9235  135.0201  156.8150 LP  0  0  0  0  0  0  0  0  0  0  0  0  # atno 17395 bound_to 11000

$$$$
