AV-unprocessed.smi:2188|AV-procd|sdf|8880|dock7
  -GOLD-   2272012 83D 1   1.00000     0.00000
 Structure written by MMmdl.
 39 41  0  0  0  0  0  0  0  0  1 V2000
  154.5885  138.7984  158.7516 O   0  0  0  0  0  0  0  0  0  0  0  0
  154.1584  139.4665  159.6933 C   0  0  0  0  0  0  0  0  0  0  0  0
  154.3339  139.0829  160.9727 N   0  0  0  0  0  0  0  0  0  0  0  0
  155.0583  137.8967  161.4222 C   0  0  0  0  0  0  0  0  0  0  0  0
  154.8821  137.6489  162.9322 C   0  0  0  0  0  0  0  0  0  0  0  0
  155.4664  138.7496  163.8002 C   0  0  0  0  0  0  0  0  0  0  0  0
  155.2868  138.7466  165.1992 C   0  0  0  0  0  0  0  0  0  0  0  0
  155.8322  139.8015  165.9555 C   0  0  0  0  0  0  0  0  0  0  0  0
  156.5390  140.8157  165.2789 C   0  0  0  0  0  0  0  0  0  0  0  0
  156.7205  140.8273  163.9408 N   0  0  0  0  0  0  0  0  0  0  0  0
  156.1912  139.8138  163.2227 C   0  0  0  0  0  0  0  0  0  0  0  0
  153.4247  140.7360  159.5607 C   0  0  0  0  0  0  0  0  0  0  0  0
  153.6914  141.7420  160.4343 C   0  0  0  0  0  0  0  0  0  0  0  0
  153.0019  143.0067  160.3674 C   0  0  0  0  0  0  0  0  0  0  0  0
  152.1000  143.1805  159.3952 C   0  0  0  0  0  0  0  0  0  0  0  0
  151.7996  142.2031  158.4477 N   0  0  0  0  0  0  0  0  0  0  0  0
  150.8575  142.5725  157.3958 C   0  0  0  0  0  0  0  0  0  0  0  0
  149.9360  141.4102  157.0723 C   0  0  0  0  0  0  0  0  0  0  0  0
  151.0159  140.0821  156.4293 S   0  0  0  0  0  0  0  0  0  0  0  0
  150.2152  138.8531  156.3217 O   0  0  0  0  0  0  0  0  0  0  0  0
  151.7146  140.5959  155.2406 O   0  0  0  0  0  0  0  0  0  0  0  0
  152.1055  139.9441  157.6934 N   0  0  0  0  0  0  0  0  0  0  0  0
  152.4170  140.9211  158.4975 C   0  0  0  0  0  0  0  0  0  0  0  0
  153.9471  139.6740  161.6938 H   0  0  0  0  0  0  0  0  0  0  0  0
  154.6770  137.0399  160.8666 H   0  0  0  0  0  0  0  0  0  0  0  0
  156.1184  137.9695  161.1739 H   0  0  0  0  0  0  0  0  0  0  0  0
  153.8224  137.5358  163.1655 H   0  0  0  0  0  0  0  0  0  0  0  0
  155.3531  136.7038  163.2048 H   0  0  0  0  0  0  0  0  0  0  0  0
  154.7328  137.9563  165.6846 H   0  0  0  0  0  0  0  0  0  0  0  0
  155.7100  139.8346  167.0279 H   0  0  0  0  0  0  0  0  0  0  0  0
  156.9703  141.6398  165.8276 H   0  0  0  0  0  0  0  0  0  0  0  0
  156.3467  139.8551  162.1546 H   0  0  0  0  0  0  0  0  0  0  0  0
  154.4404  141.6291  161.2052 H   0  0  0  0  0  0  0  0  0  0  0  0
  153.2073  143.7905  161.0815 H   0  0  0  0  0  0  0  0  0  0  0  0
  151.5527  144.1064  159.2925 H   0  0  0  0  0  0  0  0  0  0  0  0
  150.2504  143.4237  157.7059 H   0  0  0  0  0  0  0  0  0  0  0  0
  151.4101  142.8898  156.5109 H   0  0  0  0  0  0  0  0  0  0  0  0
  149.4019  141.0505  157.9524 H   0  0  0  0  0  0  0  0  0  0  0  0
  149.2070  141.6716  156.3055 H   0  0  0  0  0  0  0  0  0  0  0  0
  1  2  2  0  0  0  0
  2  3  1  0  0  0  0
  2 12  1  0  0  0  0
  3  4  1  0  0  0  0
  3 24  1  0  0  0  0
  4  5  1  0  0  0  0
  4 25  1  0  0  0  0
  4 26  1  0  0  0  0
  5  6  1  0  0  0  0
  5 27  1  0  0  0  0
  5 28  1  0  0  0  0
  6 11  1  0  0  0  0
  6  7  2  0  0  0  0
  7  8  1  0  0  0  0
  7 29  1  0  0  0  0
  8  9  2  0  0  0  0
  8 30  1  0  0  0  0
  9 10  1  0  0  0  0
  9 31  1  0  0  0  0
 10 11  2  0  0  0  0
 11 32  1  0  0  0  0
 12 23  1  0  0  0  0
 12 13  2  0  0  0  0
 13 14  1  0  0  0  0
 13 33  1  0  0  0  0
 14 15  2  0  0  0  0
 14 34  1  0  0  0  0
 15 16  1  0  0  0  0
 15 35  1  0  0  0  0
 16 23  1  0  0  0  0
 16 17  1  0  0  0  0
 17 18  1  0  0  0  0
 17 36  1  0  0  0  0
 17 37  1  0  0  0  0
 18 19  1  0  0  0  0
 18 38  1  0  0  0  0
 18 39  1  0  0  0  0
 19 20  2  0  0  0  0
 19 21  2  0  0  0  0
 19 22  1  0  0  0  0
 22 23  2  0  0  0  0
M  END
> <s_m_source_file>
AV-unprocessed.smi

> <i_m_source_file_index>
2188

> <i_lp_mmshare_version>
43012

> <i_f3d_flags>
0

> <s_epik_input>
W0NIMl0xW0NIMl1TKD1PKSg9TylOPUMoTjEyKUMoPVtDSF1bQ0hdPVtDSF0yKUMoPU8pW05IXVtDSDJdW0NIMl1jM1tjSF1bY0hdW2NIXW5bY0hdMw==

> <s_epik_cmdline>
J2VwaWtfcHl0aG9uJywgJy1waCcsICc3LjAnLCAnLXRuJywgJzgnLCAnLW1hJywgJzIwMCcsICctbWV0YWxfYmluZGluZycsICctaW1hZScsICc8aW5maWxlLm1hZT4nLCAnLW9tYWUnLCAnPG91dGZpbGUubWFlPic=

> <r_epik_Ionization_Penalty>
0.00945125

> <r_epik_Ionization_Penalty_Charging>
8.06468e-09

> <r_epik_Ionization_Penalty_Neutral>
0.00945124

> <r_epik_State_Penalty>
0.0071398

> <r_epik_Charging_Adjusted_Penalty>
0.0071398

> <i_epik_Tot_Q>
0

> <i_epik_Tot_abs_Q>
0

> <r_epik_Metal_State_Penalty>
0.0479458

> <b_epik_Metal_Only>
0

> <s_lp_Force_Field>
OPLS_2005

> <r_lp_Energy>
29.0495

> <b_lp_Chiralities_Consistent>
1

> <s_lp_Variant>
AV-unprocessed.smi:2188-1

> <Gold.Version>
5.8.1

> <Gold.Id.Protein>
6NUR|6NUR_protein|mol2

> <Gold.PLP.Fitness>
43.0752

> <Gold.PLP.PLP>
-38.6936

> <Gold.PLP.part.hbond>
-3.0000

> <Gold.PLP.part.metal>
0.0000

> <Gold.PLP.part.buried>
-4.7094

> <Gold.PLP.part.nonpolar>
-30.5642

> <Gold.PLP.part.repulsive>
0.0283

> <Gold.PLP.ligand.clash>
0.0000

> <Gold.PLP.ligand.torsion>
0.6885

> <Gold.PLP.Chemscore.Hbond>
1.8320

> <Gold.PLP.Chemscore.CHOScore>
0.0000

> <Gold.PLP.Chemscore.Metal>
0.0000

> <Gold.Chemscore.Hbonds>
donor molecule, donor type, donor heavy atom, donor atom, acceptor molecule, acceptor atom, score
      P1  H  7989  7998       L1    21  0.72
      P1  H  7997  8008       L1     1  1.00

> <Gold.PLP.Chemscore.Internal.Correction>
0.2625

> <Gold.Rescore>
     Score         DG    S(hbond)    S(metal)    S(lipo)     H(rot)  DE(clash)    DE(int)     intcor
     14.43     -17.32       1.61        0.00      87.50       1.47       0.16       2.73       ----

> <Gold.Chemscore.Fitness>
14.4316

> <Gold.Chemscore.DG>
-17.3226

> <Gold.Chemscore.ZeroCoef>
-5.4800

> <Gold.Chemscore.Hbond>
1.6058

> <Gold.Chemscore.Metal>
0.0000

> <Gold.Chemscore.Lipo>
87.4974

> <Gold.Chemscore.Internal_Hbond>
0.0000

> <Gold.Chemscore.DEClash>
0.1568

> <Gold.Chemscore.DEInternal>
2.7342

> <Gold.Chemscore.Rot>
1.4679

> <Gold.Chemscore.Internal.Correction>
   9.000000E+99

> <Gold.Chemscore.Hbonds>
donor molecule, donor type, donor heavy atom, donor atom, acceptor molecule, acceptor atom, score
      P1  H  7989  7998       L1    21  0.72
      P1  H  7997  8008       L1     1  0.64

> <Gold.Chemscore.Hbond.Weighted>
-5.3632

> <Gold.Chemscore.Metal.Weighted>
-0.0000

> <Gold.Chemscore.Lipo.Weighted>
-10.2372

> <Gold.Chemscore.Internal_Hbond.Weighted>
0.0000

> <Gold.Chemscore.DEClash.Weighted>
0.1568

> <Gold.Chemscore.DEInternal.Weighted>
2.7342

> <Gold.Chemscore.Rot.Weighted>
3.7578

> <Gold.Chemscore.Internal.Correction.Weighted>
   9.000000E+99

> <Gold.Protein.RotatedTorsions>
[ 6907 6896 6895 6894 ] final   32.25 input  -60.11 | X-H torsion
[ 7974 7965 7964 7962 ] final -170.04 input  175.53 | X-H torsion
[ 8008 7997 7996 7995 ] final -102.59 input   59.86 | X-H torsion
[ 10167 10162 10161 10158 ] final  -33.48 input  -65.29 | X-H torsion
[ 10718 10713 10712 10709 ] final -165.66 input   66.30 | X-H torsion
[ 10763 10752 10751 10750 ] final -172.52 input  -60.55 | X-H torsion
[ 11005 11000 10999 10996 ] final  -29.87 input  -57.11 | X-H torsion

> <Gold.Protein.ActiveResidues>
 VAL166  LYS551  ARG553  GLY616  TRP617  ASP618  TYR619  PRO620  LYS621  CYS622 
 ASP623  PHE694  ASN695  SER759  ASP760  ASP761  ALA762  ILE779  LEU786  VAL792 
 PHE793  MET794  SER795  GLU796  ALA797  LYS798  CYS799  TRP800  GLU811  SER814 

> <Gold.Protein.RotatedAtoms>
  152.0717  134.9529  160.0574 H   0  0  0  0  0  0  0  0  0  0  0  0  # atno 6907 bound_to 6896
  152.0852  133.4168  159.4527 H   0  0  0  0  0  0  0  0  0  0  0  0  # atno 6908 bound_to 6896
  150.6836  134.2855  159.4688 H   0  0  0  0  0  0  0  0  0  0  0  0  # atno 6909 bound_to 6896
  144.7176  140.2131  143.6325 H   0  0  0  0  0  0  0  0  0  0  0  0  # atno 7974 bound_to 7965
  154.8589  140.0427  157.1652 H   0  0  0  0  0  0  0  0  0  0  0  0  # atno 8008 bound_to 7997
  154.8862  140.2980  155.5376 H   0  0  0  0  0  0  0  0  0  0  0  0  # atno 8009 bound_to 7997
  156.2998  140.2402  156.3871 H   0  0  0  0  0  0  0  0  0  0  0  0  # atno 8010 bound_to 7997
  140.7203  143.3617  151.1950 H   0  0  0  0  0  0  0  0  0  0  0  0  # atno 10167 bound_to 10162
  156.6566  130.9029  151.3022 H   0  0  0  0  0  0  0  0  0  0  0  0  # atno 10718 bound_to 10713
  154.6184  135.2872  155.0354 H   0  0  0  0  0  0  0  0  0  0  0  0  # atno 10763 bound_to 10752
  154.1558  135.6496  153.4978 H   0  0  0  0  0  0  0  0  0  0  0  0  # atno 10764 bound_to 10752
  153.0225  135.5366  154.6964 H   0  0  0  0  0  0  0  0  0  0  0  0  # atno 10765 bound_to 10752
  140.9334  133.7324  156.0969 H   0  0  0  0  0  0  0  0  0  0  0  0  # atno 11005 bound_to 11000
  145.8572  139.2204  143.1738 LP  0  0  0  0  0  0  0  0  0  0  0  0  # atno 17320 bound_to 7965
  146.0207  140.8350  142.9925 LP  0  0  0  0  0  0  0  0  0  0  0  0  # atno 17321 bound_to 7965
  139.7170  143.9284  152.2970 LP  0  0  0  0  0  0  0  0  0  0  0  0  # atno 17342 bound_to 10162
  139.9028  144.6902  150.8646 LP  0  0  0  0  0  0  0  0  0  0  0  0  # atno 17343 bound_to 10162
  157.7123  130.9455  150.1134 LP  0  0  0  0  0  0  0  0  0  0  0  0  # atno 17370 bound_to 10713
  156.2043  130.3662  149.8749 LP  0  0  0  0  0  0  0  0  0  0  0  0  # atno 17371 bound_to 10713
  140.7832  134.3701  157.5482 LP  0  0  0  0  0  0  0  0  0  0  0  0  # atno 17394 bound_to 11000
  139.8802  134.9095  156.2991 LP  0  0  0  0  0  0  0  0  0  0  0  0  # atno 17395 bound_to 11000

$$$$
