AV-unprocessed.smi:148|AV-procd|sdf|1212|dock4
  -GOLD-   2262018393D 1   1.00000     0.00000
 Structure written by MMmdl.
 63 67  0  0  0  0  0  0  0  0  1 V2000
  146.7378  134.4643  157.4405 O   0  0  0  0  0  0  0  0  0  0  0  0
  147.4481  134.3759  156.2222 C   0  0  0  0  0  0  0  0  0  0  0  0
  148.6627  135.3402  156.2040 C   0  0  2  0  0  0  0  0  0  0  0  0
  148.2204  136.8082  156.4484 C   0  0  0  0  0  0  0  0  0  0  0  0
  149.2189  137.5942  157.1523 N   0  0  0  0  0  0  0  0  0  0  0  0
  149.5440  137.4979  158.4862 C   0  0  0  0  0  0  0  0  0  0  0  0
  150.4694  138.3226  158.8942 N   0  0  0  0  0  0  0  0  0  0  0  0
  150.8126  139.0362  157.7520 C   0  0  0  0  0  0  0  0  0  0  0  0
  151.7377  140.0816  157.4718 C   0  0  0  0  0  0  0  0  0  0  0  0
  152.5469  140.6581  158.3869 N   0  0  0  0  0  0  0  0  0  0  0  0
  152.2077  142.0803  158.4801 C   0  0  0  0  0  0  0  0  0  0  0  0
  153.2423  142.8562  159.2992 C   0  0  0  0  0  0  0  0  0  0  0  0
  153.3866  142.2209  160.6817 C   0  0  0  0  0  0  0  0  0  0  0  0
  153.7540  140.7398  160.5336 C   0  0  0  0  0  0  0  0  0  0  0  0
  152.7330  139.9474  159.6705 C   0  0  2  0  0  0  0  0  0  0  0  0
  153.2061  138.4601  159.5097 C   0  0  2  0  0  0  0  0  0  0  0  0
  153.8057  137.7699  160.7545 C   0  0  0  0  0  0  0  0  0  0  0  0
  154.7071  136.6334  160.2502 C   0  0  0  0  0  0  0  0  0  0  0  0
  154.7864  136.7932  158.7298 C   0  0  0  0  0  0  0  0  0  0  0  0
  154.3000  138.2154  158.4484 C   0  0  2  0  0  0  0  0  0  0  0  0
  155.3904  139.1052  158.6144 O   0  0  0  0  0  0  0  0  0  0  0  0
  151.7942  140.5616  156.2049 N   0  0  0  0  0  0  0  0  0  0  0  0
  151.0089  140.0380  155.2587 C   0  0  0  0  0  0  0  0  0  0  0  0
  150.1089  139.0581  155.3675 N   0  0  0  0  0  0  0  0  0  0  0  0
  150.0410  138.5849  156.6451 C   0  0  0  0  0  0  0  0  0  0  0  0
  149.5368  135.2107  154.9187 C   0  0  2  0  0  0  0  0  0  0  0  0
  150.1978  133.8522  154.7087 C   0  0  0  0  0  0  0  0  0  0  0  0
  151.4530  133.9298  155.5748 C   0  0  0  0  0  0  0  0  0  0  0  0
  151.7667  135.3149  155.6750 O   0  0  0  0  0  0  0  0  0  0  0  0
  150.8061  136.0744  154.9509 C   0  0  0  0  0  0  0  0  0  0  0  0
  145.9577  133.9350  157.3735 H   0  0  0  0  0  0  0  0  0  0  0  0
  147.7624  133.3426  156.0795 H   0  0  0  0  0  0  0  0  0  0  0  0
  146.7659  134.5765  155.3979 H   0  0  0  0  0  0  0  0  0  0  0  0
  149.2886  135.0541  157.0505 H   0  0  0  0  0  0  0  0  0  0  0  0
  148.0144  137.3248  155.5132 H   0  0  0  0  0  0  0  0  0  0  0  0
  147.2904  136.8332  157.0174 H   0  0  0  0  0  0  0  0  0  0  0  0
  149.0641  136.7957  159.1524 H   0  0  0  0  0  0  0  0  0  0  0  0
  152.1417  142.5160  157.4815 H   0  0  0  0  0  0  0  0  0  0  0  0
  151.2247  142.1923  158.9397 H   0  0  0  0  0  0  0  0  0  0  0  0
  154.2039  142.8517  158.7838 H   0  0  0  0  0  0  0  0  0  0  0  0
  152.9401  143.8995  159.3932 H   0  0  0  0  0  0  0  0  0  0  0  0
  154.1497  142.7435  161.2590 H   0  0  0  0  0  0  0  0  0  0  0  0
  152.4516  142.3174  161.2348 H   0  0  0  0  0  0  0  0  0  0  0  0
  154.7467  140.6607  160.0880 H   0  0  0  0  0  0  0  0  0  0  0  0
  153.8331  140.3183  161.5345 H   0  0  0  0  0  0  0  0  0  0  0  0
  151.7787  139.9529  160.1982 H   0  0  0  0  0  0  0  0  0  0  0  0
  152.3393  137.8730  159.2009 H   0  0  0  0  0  0  0  0  0  0  0  0
  154.4090  138.4789  161.3224 H   0  0  0  0  0  0  0  0  0  0  0  0
  153.0419  137.3766  161.4238 H   0  0  0  0  0  0  0  0  0  0  0  0
  155.6974  136.7149  160.6995 H   0  0  0  0  0  0  0  0  0  0  0  0
  154.3070  135.6546  160.5163 H   0  0  0  0  0  0  0  0  0  0  0  0
  155.7829  136.5934  158.3342 H   0  0  0  0  0  0  0  0  0  0  0  0
  154.1041  136.0829  158.2608 H   0  0  0  0  0  0  0  0  0  0  0  0
  153.9185  138.3020  157.4306 H   0  0  0  0  0  0  0  0  0  0  0  0
  155.6723  139.0696  159.5156 H   0  0  0  0  0  0  0  0  0  0  0  0
  151.1152  140.4667  154.2730 H   0  0  0  0  0  0  0  0  0  0  0  0
  148.9255  135.4665  154.0522 H   0  0  0  0  0  0  0  0  0  0  0  0
  149.5775  132.9856  154.9274 H   0  0  0  0  0  0  0  0  0  0  0  0
  150.4947  133.7623  153.6624 H   0  0  0  0  0  0  0  0  0  0  0  0
  151.2586  133.5411  156.5751 H   0  0  0  0  0  0  0  0  0  0  0  0
  152.2813  133.3653  155.1462 H   0  0  0  0  0  0  0  0  0  0  0  0
  151.1815  136.2192  153.9366 H   0  0  0  0  0  0  0  0  0  0  0  0
  150.6796  137.0627  155.3880 H   0  0  0  0  0  0  0  0  0  0  0  0
  1  2  1  0  0  0  0
  1 31  1  0  0  0  0
  2  3  1  0  0  0  0
  2 32  1  0  0  0  0
  2 33  1  0  0  0  0
  3  4  1  0  0  0  0
  3 26  1  0  0  0  0
  3 34  1  0  0  0  0
  4  5  1  0  0  0  0
  4 35  1  0  0  0  0
  4 36  1  0  0  0  0
  5 25  1  0  0  0  0
  5  6  1  0  0  0  0
  6  7  2  0  0  0  0
  6 37  1  0  0  0  0
  7  8  1  0  0  0  0
  8 25  2  0  0  0  0
  8  9  1  0  0  0  0
  9 10  1  0  0  0  0
  9 22  2  0  0  0  0
 10 15  1  0  0  0  0
 10 11  1  0  0  0  0
 11 12  1  0  0  0  0
 11 38  1  0  0  0  0
 11 39  1  0  0  0  0
 12 13  1  0  0  0  0
 12 40  1  0  0  0  0
 12 41  1  0  0  0  0
 13 14  1  0  0  0  0
 13 42  1  0  0  0  0
 13 43  1  0  0  0  0
 14 15  1  0  0  0  0
 14 44  1  0  0  0  0
 14 45  1  0  0  0  0
 15 16  1  0  0  0  0
 15 46  1  0  0  0  0
 16 20  1  0  0  0  0
 16 17  1  0  0  0  0
 16 47  1  0  0  0  0
 17 18  1  0  0  0  0
 17 48  1  0  0  0  0
 17 49  1  0  0  0  0
 18 19  1  0  0  0  0
 18 50  1  0  0  0  0
 18 51  1  0  0  0  0
 19 20  1  0  0  0  0
 19 52  1  0  0  0  0
 19 53  1  0  0  0  0
 20 21  1  0  0  0  0
 20 54  1  0  0  0  0
 21 55  1  0  0  0  0
 22 23  1  0  0  0  0
 23 24  2  0  0  0  0
 23 56  1  0  0  0  0
 24 25  1  0  0  0  0
 26 30  1  0  0  0  0
 26 27  1  0  0  0  0
 26 57  1  0  0  0  0
 27 28  1  0  0  0  0
 27 58  1  0  0  0  0
 27 59  1  0  0  0  0
 28 29  1  0  0  0  0
 28 60  1  0  0  0  0
 28 61  1  0  0  0  0
 29 30  1  0  0  0  0
 30 62  1  0  0  0  0
 30 63  1  0  0  0  0
M  END
> <s_m_source_file>
AV-unprocessed.smi

> <i_m_source_file_index>
148

> <i_lp_mmshare_version>
43012

> <i_f3d_flags>
0

> <s_epik_input>
W0NIMl0xT1tDSDJdW0NIMl1bQ0BIXTFbQ0BIXShbQ0gyXVtPSF0pW0NIMl1uKFtjSF1uMiljKGMyMyluW2NIXW5jM040W0NIMl1bQ0gyXVtDSDJdW0NIMl1bQ0BIXTRbQ0BASF01W0NIMl1bQ0gyXVtDSDJdW0NASF01W09IXQ==

> <s_epik_cmdline>
J2VwaWtfcHl0aG9uJywgJy1waCcsICc3LjAnLCAnLXRuJywgJzgnLCAnLW1hJywgJzIwMCcsICctbWV0YWxfYmluZGluZycsICctaW1hZScsICc8aW5maWxlLm1hZT4nLCAnLW9tYWUnLCAnPG91dGZpbGUubWFlPic=

> <r_lp_tautomer_probability>
1

> <r_epik_Ionization_Penalty>
0.00556303

> <r_epik_Ionization_Penalty_Charging>
0

> <r_epik_Ionization_Penalty_Neutral>
0.00556303

> <r_epik_State_Penalty>
0.00401767

> <r_epik_Charging_Adjusted_Penalty>
0.00401767

> <i_epik_Tot_Q>
0

> <i_epik_Tot_abs_Q>
0

> <r_epik_Metal_State_Penalty>
-0

> <b_epik_Metal_Only>
0

> <s_lp_Force_Field>
OPLS_2005

> <r_lp_Energy>
72.8369

> <b_lp_Chiralities_Consistent>
1

> <s_lp_Variant>
AV-unprocessed.smi:148-11

> <Gold.Version>
5.8.1

> <Gold.Id.Protein>
6NUR|6NUR_protein|mol2

> <Gold.PLP.Fitness>
42.3326

> <Gold.PLP.PLP>
-37.7411

> <Gold.PLP.part.hbond>
-2.8291

> <Gold.PLP.part.metal>
0.0000

> <Gold.PLP.part.buried>
-6.1244

> <Gold.PLP.part.nonpolar>
-28.9064

> <Gold.PLP.part.repulsive>
0.0653

> <Gold.PLP.ligand.clash>
0.0000

> <Gold.PLP.ligand.torsion>
1.0366

> <Gold.PLP.Chemscore.Hbond>
2.0000

> <Gold.PLP.Chemscore.CHOScore>
0.0000

> <Gold.PLP.Chemscore.Metal>
0.0000

> <Gold.Chemscore.Hbonds>
donor molecule, donor type, donor heavy atom, donor atom, acceptor molecule, acceptor atom, score
      P1  H  7997  8010       L1    21  1.00
      P1  H 10752 10763       L1    29  0.94

> <Gold.PLP.Chemscore.Internal.Correction>
0.6648

> <Gold.Rescore>
     Score         DG    S(hbond)    S(metal)    S(lipo)     H(rot)  DE(clash)    DE(int)     intcor
      9.16     -14.37       1.73        0.00      99.32       3.32       0.00       5.20       ----

> <Gold.Chemscore.Fitness>
9.1637

> <Gold.Chemscore.DG>
-14.3679

> <Gold.Chemscore.ZeroCoef>
-5.4800

> <Gold.Chemscore.Hbond>
1.7268

> <Gold.Chemscore.Metal>
0.0000

> <Gold.Chemscore.Lipo>
99.3206

> <Gold.Chemscore.Internal_Hbond>
0.0000

> <Gold.Chemscore.DEClash>
0.0015

> <Gold.Chemscore.DEInternal>
5.2028

> <Gold.Chemscore.Rot>
3.3203

> <Gold.Chemscore.Internal.Correction>
   9.000000E+99

> <Gold.Chemscore.Hbonds>
donor molecule, donor type, donor heavy atom, donor atom, acceptor molecule, acceptor atom, score
      P1  H  7997  8010       L1    21  0.52
      P1  H 10752 10763       L1    29  0.30

> <Gold.Chemscore.Hbond.Weighted>
-5.7674

> <Gold.Chemscore.Metal.Weighted>
-0.0000

> <Gold.Chemscore.Lipo.Weighted>
-11.6205

> <Gold.Chemscore.Internal_Hbond.Weighted>
0.0000

> <Gold.Chemscore.DEClash.Weighted>
0.0015

> <Gold.Chemscore.DEInternal.Weighted>
5.2028

> <Gold.Chemscore.Rot.Weighted>
8.5000

> <Gold.Chemscore.Internal.Correction.Weighted>
   9.000000E+99

> <Gold.Protein.RotatedTorsions>
[ 6907 6896 6895 6894 ] final -151.45 input  -60.11 | X-H torsion
[ 7974 7965 7964 7962 ] final  -84.52 input  175.53 | X-H torsion
[ 8008 7997 7996 7995 ] final  -16.57 input   59.86 | X-H torsion
[ 10167 10162 10161 10158 ] final  177.80 input  -65.29 | X-H torsion
[ 10718 10713 10712 10709 ] final  178.64 input   66.30 | X-H torsion
[ 10763 10752 10751 10750 ] final   90.68 input  -60.55 | X-H torsion
[ 11005 11000 10999 10996 ] final  100.43 input  -57.11 | X-H torsion

> <Gold.Protein.ActiveResidues>
 VAL166  LYS551  ARG553  GLY616  TRP617  ASP618  TYR619  PRO620  LYS621  CYS622 
 ASP623  PHE694  ASN695  SER759  ASP760  ASP761  ALA762  ILE779  LEU786  VAL792 
 PHE793  MET794  SER795  GLU796  ALA797  LYS798  CYS799  TRP800  GLU811  SER814 

> <Gold.Protein.RotatedAtoms>
  151.2132  133.4544  159.2598 H   0  0  0  0  0  0  0  0  0  0  0  0  # atno 6907 bound_to 6896
  151.0956  134.9942  159.8434 H   0  0  0  0  0  0  0  0  0  0  0  0  # atno 6908 bound_to 6896
  152.5439  134.2063  159.8785 H   0  0  0  0  0  0  0  0  0  0  0  0  # atno 6909 bound_to 6896
  145.5055  140.9544  143.1736 H   0  0  0  0  0  0  0  0  0  0  0  0  # atno 7974 bound_to 7965
  154.5043  140.2166  155.9282 H   0  0  0  0  0  0  0  0  0  0  0  0  # atno 8008 bound_to 7997
  156.1474  140.3168  155.8559 H   0  0  0  0  0  0  0  0  0  0  0  0  # atno 8009 bound_to 7997
  155.4005  140.0484  157.3027 H   0  0  0  0  0  0  0  0  0  0  0  0  # atno 8010 bound_to 7997
  139.5268  144.2755  152.0591 H   0  0  0  0  0  0  0  0  0  0  0  0  # atno 10167 bound_to 10162
  156.8876  130.9836  151.3054 H   0  0  0  0  0  0  0  0  0  0  0  0  # atno 10718 bound_to 10713
  153.2002  135.4425  155.0257 H   0  0  0  0  0  0  0  0  0  0  0  0  # atno 10763 bound_to 10752
  154.8142  135.3308  154.7224 H   0  0  0  0  0  0  0  0  0  0  0  0  # atno 10764 bound_to 10752
  153.7670  135.6987  153.4969 H   0  0  0  0  0  0  0  0  0  0  0  0  # atno 10765 bound_to 10752
  139.8771  134.9140  156.4755 H   0  0  0  0  0  0  0  0  0  0  0  0  # atno 11005 bound_to 11000
  144.7756  139.6637  143.7176 LP  0  0  0  0  0  0  0  0  0  0  0  0  # atno 17320 bound_to 7965
  146.2199  139.5617  142.9625 LP  0  0  0  0  0  0  0  0  0  0  0  0  # atno 17321 bound_to 7965
  140.2212  144.4464  150.6341 LP  0  0  0  0  0  0  0  0  0  0  0  0  # atno 17342 bound_to 10162
  140.6417  143.2205  151.6276 LP  0  0  0  0  0  0  0  0  0  0  0  0  # atno 17343 bound_to 10162
  157.6103  130.8578  149.8941 LP  0  0  0  0  0  0  0  0  0  0  0  0  # atno 17370 bound_to 10713
  156.0645  130.3694  150.0908 LP  0  0  0  0  0  0  0  0  0  0  0  0  # atno 17371 bound_to 10713
  140.8765  133.7949  155.9420 LP  0  0  0  0  0  0  0  0  0  0  0  0  # atno 17394 bound_to 11000
  140.8898  134.2509  157.5100 LP  0  0  0  0  0  0  0  0  0  0  0  0  # atno 17395 bound_to 11000

$$$$
