AV-unprocessed.smi:2534|AV-procd|sdf|9975|dock1
  -GOLD-   2272014 23D 1   1.00000     0.00000
 Structure written by MMmdl.
 40 42  0  0  0  0  0  0  0  0  1 V2000
  145.6546  141.8488  155.7410 C   0  0  0  0  0  0  0  0  0  0  0  0
  146.9553  141.0985  155.4217 C   0  0  2  0  0  0  0  0  0  0  0  0
  147.6794  140.6518  156.7069 C   0  0  0  0  0  0  0  0  0  0  0  0
  148.9905  139.9133  156.3866 C   0  0  0  0  0  0  0  0  0  0  0  0
  149.9443  140.7673  155.5176 C   0  0  2  0  0  0  0  0  0  0  0  0
  150.9990  139.9160  155.1119 O   0  0  0  0  0  0  0  0  0  0  0  0
  150.5685  141.9839  156.2592 C   0  0  0  0  0  0  0  0  0  0  0  0
  151.2329  141.6548  157.5151 N   0  0  0  0  0  0  0  0  0  0  0  0
  151.6296  140.3772  157.7529 N   0  0  0  0  0  0  0  0  0  0  0  0
  152.1875  140.3871  158.9612 C   0  0  0  0  0  0  0  0  0  0  0  0
  152.1532  141.6796  159.5519 C   0  0  0  0  0  0  0  0  0  0  0  0
  152.5973  142.2475  160.8200 C   0  0  0  0  0  0  0  0  0  0  0  0
  152.3857  143.5079  161.0348 N   0  0  0  0  0  0  0  0  0  0  0  0
  151.7478  144.3139  160.0854 N   0  0  0  0  0  0  0  0  0  0  0  0
  151.5891  145.7034  160.5124 C   0  0  0  0  0  0  0  0  0  0  0  0
  151.2972  143.8802  158.8675 C   0  0  0  0  0  0  0  0  0  0  0  0
  150.7353  144.5971  158.0399 O   0  0  0  0  0  0  0  0  0  0  0  0
  151.5396  142.4391  158.6110 C   0  0  0  0  0  0  0  0  0  0  0  0
  149.2082  141.2096  154.2329 C   0  0  0  0  0  0  0  0  0  0  0  0
  147.8886  141.9438  154.5333 C   0  0  0  0  0  0  0  0  0  0  0  0
  145.8511  142.7615  156.3045 H   0  0  0  0  0  0  0  0  0  0  0  0
  144.9795  141.2307  156.3334 H   0  0  0  0  0  0  0  0  0  0  0  0
  145.1283  142.1283  154.8279 H   0  0  0  0  0  0  0  0  0  0  0  0
  146.6867  140.2012  154.8620 H   0  0  0  0  0  0  0  0  0  0  0  0
  147.8849  141.5147  157.3410 H   0  0  0  0  0  0  0  0  0  0  0  0
  147.0293  139.9971  157.2883 H   0  0  0  0  0  0  0  0  0  0  0  0
  149.4758  139.5913  157.3075 H   0  0  0  0  0  0  0  0  0  0  0  0
  148.7419  138.9942  155.8532 H   0  0  0  0  0  0  0  0  0  0  0  0
  150.7531  139.0234  155.3008 H   0  0  0  0  0  0  0  0  0  0  0  0
  151.2851  142.4904  155.6133 H   0  0  0  0  0  0  0  0  0  0  0  0
  149.8057  142.7319  156.4749 H   0  0  0  0  0  0  0  0  0  0  0  0
  152.5876  139.4681  159.3639 H   0  0  0  0  0  0  0  0  0  0  0  0
  153.0931  141.6233  161.5632 H   0  0  0  0  0  0  0  0  0  0  0  0
  151.0922  146.3379  159.7773 H   0  0  0  0  0  0  0  0  0  0  0  0
  152.5648  146.1453  160.7176 H   0  0  0  0  0  0  0  0  0  0  0  0
  151.0014  145.7467  161.4302 H   0  0  0  0  0  0  0  0  0  0  0  0
  149.8543  141.8425  153.6232 H   0  0  0  0  0  0  0  0  0  0  0  0
  148.9827  140.3343  153.6215 H   0  0  0  0  0  0  0  0  0  0  0  0
  147.3877  142.1819  153.5944 H   0  0  0  0  0  0  0  0  0  0  0  0
  148.0955  142.9000  155.0146 H   0  0  0  0  0  0  0  0  0  0  0  0
  1  2  1  0  0  0  0
  1 21  1  0  0  0  0
  1 22  1  0  0  0  0
  1 23  1  0  0  0  0
  2 20  1  0  0  0  0
  2  3  1  0  0  0  0
  2 24  1  0  0  0  0
  3  4  1  0  0  0  0
  3 25  1  0  0  0  0
  3 26  1  0  0  0  0
  4  5  1  0  0  0  0
  4 27  1  0  0  0  0
  4 28  1  0  0  0  0
  5  6  1  0  0  0  0
  5  7  1  0  0  0  0
  5 19  1  0  0  0  0
  6 29  1  0  0  0  0
  7  8  1  0  0  0  0
  7 30  1  0  0  0  0
  7 31  1  0  0  0  0
  8 18  1  0  0  0  0
  8  9  1  0  0  0  0
  9 10  2  0  0  0  0
 10 11  1  0  0  0  0
 10 32  1  0  0  0  0
 11 18  2  0  0  0  0
 11 12  1  0  0  0  0
 12 13  2  0  0  0  0
 12 33  1  0  0  0  0
 13 14  1  0  0  0  0
 14 15  1  0  0  0  0
 14 16  1  0  0  0  0
 15 34  1  0  0  0  0
 15 35  1  0  0  0  0
 15 36  1  0  0  0  0
 16 17  2  0  0  0  0
 16 18  1  0  0  0  0
 19 20  1  0  0  0  0
 19 37  1  0  0  0  0
 19 38  1  0  0  0  0
 20 39  1  0  0  0  0
 20 40  1  0  0  0  0
M  END
> <s_m_source_file>
AV-unprocessed.smi

> <i_m_source_file_index>
2534

> <i_lp_mmshare_version>
43012

> <i_f3d_flags>
0

> <s_epik_input>
W0NIMl0xW0NIMl1bQ0BIXShbQ0gzXSlbQ0gyXVtDSDJdW0NAQF0xKFtPSF0pW0NIMl1uKG5bY0hdMiljKGMyMyljKD1PKW4oW0NIM10pbltjSF0z

> <s_epik_cmdline>
J2VwaWtfcHl0aG9uJywgJy1waCcsICc3LjAnLCAnLXRuJywgJzgnLCAnLW1hJywgJzIwMCcsICctbWV0YWxfYmluZGluZycsICctaW1hZScsICc8aW5maWxlLm1hZT4nLCAnLW9tYWUnLCAnPG91dGZpbGUubWFlPic=

> <r_lp_tautomer_probability>
1

> <r_epik_Ionization_Penalty>
4.4666e-07

> <r_epik_Ionization_Penalty_Charging>
3.10141e-10

> <r_epik_Ionization_Penalty_Neutral>
4.46349e-07

> <r_epik_State_Penalty>
-0

> <r_epik_Charging_Adjusted_Penalty>
3.10141e-10

> <i_epik_Tot_Q>
0

> <i_epik_Tot_abs_Q>
0

> <r_epik_Metal_State_Penalty>
-0

> <b_epik_Metal_Only>
0

> <s_lp_Force_Field>
OPLS_2005

> <r_lp_Energy>
31.0433

> <b_lp_Chiralities_Consistent>
1

> <s_lp_Variant>
AV-unprocessed.smi:2534-2

> <Gold.Version>
5.8.1

> <Gold.Id.Protein>
6NUR|6NUR_protein|mol2

> <Gold.PLP.Fitness>
41.2615

> <Gold.PLP.PLP>
-38.8885

> <Gold.PLP.part.hbond>
-1.0000

> <Gold.PLP.part.metal>
0.0000

> <Gold.PLP.part.buried>
-4.0792

> <Gold.PLP.part.nonpolar>
-34.0097

> <Gold.PLP.part.repulsive>
0.4174

> <Gold.PLP.ligand.clash>
0.0000

> <Gold.PLP.ligand.torsion>
0.3169

> <Gold.PLP.Chemscore.Hbond>
1.0000

> <Gold.PLP.Chemscore.CHOScore>
0.0000

> <Gold.PLP.Chemscore.Metal>
0.0000

> <Gold.Chemscore.Hbonds>
donor molecule, donor type, donor heavy atom, donor atom, acceptor molecule, acceptor atom, score
      P1  H  7989  7998       L1     6  1.00

> <Gold.PLP.Chemscore.Internal.Correction>
0.0069

> <Gold.Rescore>
     Score         DG    S(hbond)    S(metal)    S(lipo)     H(rot)  DE(clash)    DE(int)     intcor
     11.11     -13.79       0.93        0.00      81.27       1.68       0.05       2.63       ----

> <Gold.Chemscore.Fitness>
11.1079

> <Gold.Chemscore.DG>
-13.7938

> <Gold.Chemscore.ZeroCoef>
-5.4800

> <Gold.Chemscore.Hbond>
0.9268

> <Gold.Chemscore.Metal>
0.0000

> <Gold.Chemscore.Lipo>
81.2680

> <Gold.Chemscore.Internal_Hbond>
0.0000

> <Gold.Chemscore.DEClash>
0.0540

> <Gold.Chemscore.DEInternal>
2.6319

> <Gold.Chemscore.Rot>
1.6758

> <Gold.Chemscore.Internal.Correction>
   9.000000E+99

> <Gold.Chemscore.Hbonds>
donor molecule, donor type, donor heavy atom, donor atom, acceptor molecule, acceptor atom, score
      P1  H  7989  7998       L1     6  0.29

> <Gold.Chemscore.Hbond.Weighted>
-3.0954

> <Gold.Chemscore.Metal.Weighted>
-0.0000

> <Gold.Chemscore.Lipo.Weighted>
-9.5084

> <Gold.Chemscore.Internal_Hbond.Weighted>
0.0000

> <Gold.Chemscore.DEClash.Weighted>
0.0540

> <Gold.Chemscore.DEInternal.Weighted>
2.6319

> <Gold.Chemscore.Rot.Weighted>
4.2899

> <Gold.Chemscore.Internal.Correction.Weighted>
   9.000000E+99

> <Gold.Protein.RotatedTorsions>
[ 6907 6896 6895 6894 ] final   68.72 input  -60.11 | X-H torsion
[ 7974 7965 7964 7962 ] final -102.60 input  175.53 | X-H torsion
[ 8008 7997 7996 7995 ] final -141.84 input   59.86 | X-H torsion
[ 10167 10162 10161 10158 ] final   -5.14 input  -65.29 | X-H torsion
[ 10718 10713 10712 10709 ] final  103.62 input   66.30 | X-H torsion
[ 10763 10752 10751 10750 ] final   73.92 input  -60.55 | X-H torsion
[ 11005 11000 10999 10996 ] final  -37.08 input  -57.11 | X-H torsion

> <Gold.Protein.ActiveResidues>
 VAL166  LYS551  ARG553  GLY616  TRP617  ASP618  TYR619  PRO620  LYS621  CYS622 
 ASP623  PHE694  ASN695  SER759  ASP760  ASP761  ALA762  ILE779  LEU786  VAL792 
 PHE793  MET794  SER795  GLU796  ALA797  LYS798  CYS799  TRP800  GLU811  SER814 

> <Gold.Protein.RotatedAtoms>
  152.4639  134.5121  159.9756 H   0  0  0  0  0  0  0  0  0  0  0  0  # atno 6907 bound_to 6896
  151.5164  133.3469  159.2901 H   0  0  0  0  0  0  0  0  0  0  0  0  # atno 6908 bound_to 6896
  150.8614  134.7995  159.7147 H   0  0  0  0  0  0  0  0  0  0  0  0  # atno 6909 bound_to 6896
  145.2667  140.9286  143.3010 H   0  0  0  0  0  0  0  0  0  0  0  0  # atno 7974 bound_to 7965
  155.4843  140.0563  157.2963 H   0  0  0  0  0  0  0  0  0  0  0  0  # atno 8008 bound_to 7997
  154.4648  140.2013  156.0100 H   0  0  0  0  0  0  0  0  0  0  0  0  # atno 8009 bound_to 7997
  156.0954  140.3227  155.7875 H   0  0  0  0  0  0  0  0  0  0  0  0  # atno 8010 bound_to 7997
  140.6952  143.6343  150.8494 H   0  0  0  0  0  0  0  0  0  0  0  0  # atno 10167 bound_to 10162
  157.6766  131.0783  150.5583 H   0  0  0  0  0  0  0  0  0  0  0  0  # atno 10718 bound_to 10713
  153.0553  135.5045  154.7966 H   0  0  0  0  0  0  0  0  0  0  0  0  # atno 10763 bound_to 10752
  154.6797  135.2966  154.9633 H   0  0  0  0  0  0  0  0  0  0  0  0  # atno 10764 bound_to 10752
  154.0423  135.6715  153.4844 H   0  0  0  0  0  0  0  0  0  0  0  0  # atno 10765 bound_to 10752
  140.9925  133.6997  156.1875 H   0  0  0  0  0  0  0  0  0  0  0  0  # atno 11005 bound_to 11000
  144.9371  139.4231  143.6467 LP  0  0  0  0  0  0  0  0  0  0  0  0  # atno 17320 bound_to 7965
  146.3259  139.8312  142.8908 LP  0  0  0  0  0  0  0  0  0  0  0  0  # atno 17321 bound_to 7965
  140.0060  143.5693  152.2857 LP  0  0  0  0  0  0  0  0  0  0  0  0  # atno 17342 bound_to 10162
  139.6400  144.7654  151.2359 LP  0  0  0  0  0  0  0  0  0  0  0  0  # atno 17343 bound_to 10162
  156.5886  130.4323  149.5946 LP  0  0  0  0  0  0  0  0  0  0  0  0  # atno 17370 bound_to 10713
  156.2602  130.6958  151.1724 LP  0  0  0  0  0  0  0  0  0  0  0  0  # atno 17371 bound_to 10713
  140.7018  134.4556  157.5586 LP  0  0  0  0  0  0  0  0  0  0  0  0  # atno 17394 bound_to 11000
  139.8999  134.8581  156.1942 LP  0  0  0  0  0  0  0  0  0  0  0  0  # atno 17395 bound_to 11000

$$$$
