AV-unprocessed.smi:1227|AV-procd|sdf|5146|dock6
  -GOLD-   22720 4213D 1   1.00000     0.00000
 Structure written by MMmdl.
 44 45  0  0  0  0  0  0  0  0  1 V2000
  140.3385  137.7734  153.8874 C   0  0  0  0  0  0  0  0  0  0  0  0
  141.7210  137.7611  153.5485 O   0  0  0  0  0  0  0  0  0  0  0  0
  142.2894  136.5707  153.1366 C   0  0  0  0  0  0  0  0  0  0  0  0
  141.5222  135.4519  153.1523 N   0  0  0  0  0  0  0  0  0  0  0  0
  142.0744  134.2877  152.7549 C   0  0  0  0  0  0  0  0  0  0  0  0
  143.4098  134.1761  152.3281 C   0  0  0  0  0  0  0  0  0  0  0  0
  144.2085  135.3344  152.3111 C   0  0  0  0  0  0  0  0  0  0  0  0
  143.6410  136.5679  152.7170 C   0  0  0  0  0  0  0  0  0  0  0  0
  144.3492  137.8027  152.7566 N   0  0  0  0  0  0  0  0  0  0  0  0
  145.6177  138.0519  153.1247 C   0  0  0  0  0  0  0  0  0  0  0  0
  146.4345  137.2125  153.5024 O   0  0  0  0  0  0  0  0  0  0  0  0
  145.8999  139.3579  153.0185 N   0  0  0  0  0  0  0  0  0  0  0  0
  147.1825  139.9673  153.3480 C   0  0  0  0  0  0  0  0  0  0  0  0
  147.0280  141.0960  154.3848 C   0  0  0  0  0  0  0  0  0  0  0  0
  148.0761  141.0202  155.4134 N   0  0  0  0  0  0  0  0  0  0  0  0
  147.6005  140.9714  156.8047 C   0  0  0  0  0  0  0  0  0  0  0  0
  148.0189  142.2109  157.6195 C   0  0  0  0  0  0  0  0  0  0  0  0
  149.4556  142.1494  158.1592 C   0  0  0  0  0  0  0  0  0  0  0  0
  150.5389  142.1098  157.0720 C   0  0  0  0  0  0  0  0  0  0  0  0
  150.4473  140.8676  156.1704 C   0  0  0  0  0  0  0  0  0  0  0  0
  149.3869  141.0127  155.0715 C   0  0  0  0  0  0  0  0  0  0  0  0
  149.7690  141.1020  153.9039 O   0  0  0  0  0  0  0  0  0  0  0  0
  140.0510  138.7797  154.1920 H   0  0  0  0  0  0  0  0  0  0  0  0
  140.1268  137.1031  154.7215 H   0  0  0  0  0  0  0  0  0  0  0  0
  139.7155  137.4948  153.0364 H   0  0  0  0  0  0  0  0  0  0  0  0
  141.4339  133.4186  152.7826 H   0  0  0  0  0  0  0  0  0  0  0  0
  143.8145  133.2220  152.0245 H   0  0  0  0  0  0  0  0  0  0  0  0
  145.2359  135.2430  151.9981 H   0  0  0  0  0  0  0  0  0  0  0  0
  143.8255  138.6007  152.4277 H   0  0  0  0  0  0  0  0  0  0  0  0
  145.1723  139.9776  152.6934 H   0  0  0  0  0  0  0  0  0  0  0  0
  147.8317  139.1825  153.7372 H   0  0  0  0  0  0  0  0  0  0  0  0
  147.6607  140.3431  152.4418 H   0  0  0  0  0  0  0  0  0  0  0  0
  147.0437  142.0674  153.8896 H   0  0  0  0  0  0  0  0  0  0  0  0
  146.0413  141.0401  154.8481 H   0  0  0  0  0  0  0  0  0  0  0  0
  146.5119  140.9160  156.8275 H   0  0  0  0  0  0  0  0  0  0  0  0
  147.9417  140.0550  157.2879 H   0  0  0  0  0  0  0  0  0  0  0  0
  147.8732  143.1174  157.0304 H   0  0  0  0  0  0  0  0  0  0  0  0
  147.3469  142.3015  158.4736 H   0  0  0  0  0  0  0  0  0  0  0  0
  149.6286  143.0195  158.7934 H   0  0  0  0  0  0  0  0  0  0  0  0
  149.5622  141.2809  158.8105 H   0  0  0  0  0  0  0  0  0  0  0  0
  150.4966  143.0199  156.4714 H   0  0  0  0  0  0  0  0  0  0  0  0
  151.5159  142.1193  157.5560 H   0  0  0  0  0  0  0  0  0  0  0  0
  151.4126  140.7161  155.6853 H   0  0  0  0  0  0  0  0  0  0  0  0
  150.2675  139.9659  156.7568 H   0  0  0  0  0  0  0  0  0  0  0  0
  1  2  1  0  0  0  0
  1 23  1  0  0  0  0
  1 24  1  0  0  0  0
  1 25  1  0  0  0  0
  2  3  1  0  0  0  0
  3  8  1  0  0  0  0
  3  4  2  0  0  0  0
  4  5  1  0  0  0  0
  5  6  2  0  0  0  0
  5 26  1  0  0  0  0
  6  7  1  0  0  0  0
  6 27  1  0  0  0  0
  7  8  2  0  0  0  0
  7 28  1  0  0  0  0
  8  9  1  0  0  0  0
  9 10  1  0  0  0  0
  9 29  1  0  0  0  0
 10 11  2  0  0  0  0
 10 12  1  0  0  0  0
 12 13  1  0  0  0  0
 12 30  1  0  0  0  0
 13 14  1  0  0  0  0
 13 31  1  0  0  0  0
 13 32  1  0  0  0  0
 14 15  1  0  0  0  0
 14 33  1  0  0  0  0
 14 34  1  0  0  0  0
 15 21  1  0  0  0  0
 15 16  1  0  0  0  0
 16 17  1  0  0  0  0
 16 35  1  0  0  0  0
 16 36  1  0  0  0  0
 17 18  1  0  0  0  0
 17 37  1  0  0  0  0
 17 38  1  0  0  0  0
 18 19  1  0  0  0  0
 18 39  1  0  0  0  0
 18 40  1  0  0  0  0
 19 20  1  0  0  0  0
 19 41  1  0  0  0  0
 19 42  1  0  0  0  0
 20 21  1  0  0  0  0
 20 43  1  0  0  0  0
 20 44  1  0  0  0  0
 21 22  2  0  0  0  0
M  END
> <s_m_source_file>
AV-unprocessed.smi

> <i_m_source_file_index>
1227

> <i_lp_mmshare_version>
43012

> <i_f3d_flags>
0

> <s_epik_input>
W0NIM11PYzFuW2NIXVtjSF1bY0hdYzFbTkhdQyg9TylbTkhdW0NIMl1bQ0gyXU4yW0NIMl1bQ0gyXVtDSDJdW0NIMl1bQ0gyXUMyPU8=

> <s_epik_cmdline>
J2VwaWtfcHl0aG9uJywgJy1waCcsICc3LjAnLCAnLXRuJywgJzgnLCAnLW1hJywgJzIwMCcsICctbWV0YWxfYmluZGluZycsICctaW1hZScsICc8aW5maWxlLm1hZT4nLCAnLW9tYWUnLCAnPG91dGZpbGUubWFlPic=

> <r_lp_tautomer_probability>
1

> <r_epik_Ionization_Penalty>
8.86757e-05

> <r_epik_Ionization_Penalty_Charging>
0

> <r_epik_Ionization_Penalty_Neutral>
8.86757e-05

> <r_epik_State_Penalty>
-0

> <r_epik_Charging_Adjusted_Penalty>
0

> <i_epik_Tot_Q>
0

> <i_epik_Tot_abs_Q>
0

> <r_epik_Metal_State_Penalty>
-0

> <b_epik_Metal_Only>
0

> <s_lp_Force_Field>
OPLS_2005

> <r_lp_Energy>
20.5681

> <b_lp_Chiralities_Consistent>
1

> <s_lp_Variant>
AV-unprocessed.smi:1227-1

> <Gold.Version>
5.8.1

> <Gold.Id.Protein>
6NUR|6NUR_protein|mol2

> <Gold.PLP.Fitness>
40.0289

> <Gold.PLP.PLP>
-31.2869

> <Gold.PLP.part.hbond>
-4.5215

> <Gold.PLP.part.metal>
0.0000

> <Gold.PLP.part.buried>
-4.8178

> <Gold.PLP.part.nonpolar>
-25.5289

> <Gold.PLP.part.repulsive>
2.9018

> <Gold.PLP.ligand.clash>
0.0000

> <Gold.PLP.ligand.torsion>
0.6597

> <Gold.PLP.Chemscore.Hbond>
3.1760

> <Gold.PLP.Chemscore.CHOScore>
0.1701

> <Gold.PLP.Chemscore.Metal>
0.0000

> <Gold.Chemscore.Hbonds>
donor molecule, donor type, donor heavy atom, donor atom, acceptor molecule, acceptor atom, score
      L1  H     9    29       P1 10175  0.94
      L1  H    12    30       P1 10175  1.00
      P1  H  7989  7998       L1    22  0.37
      P1  H  8011  8017       L1    22  0.81
      L1  C     5    26       P1 10957  0.11

> <Gold.PLP.Chemscore.Internal.Correction>
0.0232

> <Gold.Rescore>
     Score         DG    S(hbond)    S(metal)    S(lipo)     H(rot)  DE(clash)    DE(int)     intcor
     14.99     -17.85       3.06        0.00      57.67       1.79       0.99       1.88       ----

> <Gold.Chemscore.Fitness>
14.9862

> <Gold.Chemscore.DG>
-17.8516

> <Gold.Chemscore.ZeroCoef>
-5.4800

> <Gold.Chemscore.Hbond>
3.0552

> <Gold.Chemscore.Metal>
0.0000

> <Gold.Chemscore.Lipo>
57.6663

> <Gold.Chemscore.Internal_Hbond>
0.0000

> <Gold.Chemscore.DEClash>
0.9865

> <Gold.Chemscore.DEInternal>
1.8789

> <Gold.Chemscore.Rot>
1.7890

> <Gold.Chemscore.Internal.Correction>
   9.000000E+99

> <Gold.Chemscore.Hbonds>
donor molecule, donor type, donor heavy atom, donor atom, acceptor molecule, acceptor atom, score
      L1  H     9    29       P1 10175  0.91
      L1  H    12    30       P1 10175  0.96
      P1  H  7989  7998       L1    22  0.35
      P1  H  8011  8017       L1    22  0.76

> <Gold.Chemscore.Hbond.Weighted>
-10.2045

> <Gold.Chemscore.Metal.Weighted>
-0.0000

> <Gold.Chemscore.Lipo.Weighted>
-6.7470

> <Gold.Chemscore.Internal_Hbond.Weighted>
0.0000

> <Gold.Chemscore.DEClash.Weighted>
0.9865

> <Gold.Chemscore.DEInternal.Weighted>
1.8789

> <Gold.Chemscore.Rot.Weighted>
4.5799

> <Gold.Chemscore.Internal.Correction.Weighted>
   9.000000E+99

> <Gold.Protein.RotatedTorsions>
[ 6907 6896 6895 6894 ] final  127.39 input  -60.11 | X-H torsion
[ 7974 7965 7964 7962 ] final -148.82 input  175.53 | X-H torsion
[ 8008 7997 7996 7995 ] final  106.17 input   59.86 | X-H torsion
[ 10167 10162 10161 10158 ] final -101.18 input  -65.29 | X-H torsion
[ 10718 10713 10712 10709 ] final  -24.60 input   66.30 | X-H torsion
[ 10763 10752 10751 10750 ] final  155.27 input  -60.55 | X-H torsion
[ 11005 11000 10999 10996 ] final  -76.45 input  -57.11 | X-H torsion

> <Gold.Protein.ActiveResidues>
 VAL166  LYS551  ARG553  GLY616  TRP617  ASP618  TYR619  PRO620  LYS621  CYS622 
 ASP623  PHE694  ASN695  SER759  ASP760  ASP761  ALA762  ILE779  LEU786  VAL792 
 PHE793  MET794  SER795  GLU796  ALA797  LYS798  CYS799  TRP800  GLU811  SER814 

> <Gold.Protein.RotatedAtoms>
  152.3817  133.6555  159.6166 H   0  0  0  0  0  0  0  0  0  0  0  0  # atno 6907 bound_to 6896
  150.7746  133.9103  159.3376 H   0  0  0  0  0  0  0  0  0  0  0  0  # atno 6908 bound_to 6896
  151.6907  135.0948  160.0284 H   0  0  0  0  0  0  0  0  0  0  0  0  # atno 6909 bound_to 6896
  144.8006  140.5147  143.5710 H   0  0  0  0  0  0  0  0  0  0  0  0  # atno 7974 bound_to 7965
  156.1721  140.3117  155.8992 H   0  0  0  0  0  0  0  0  0  0  0  0  # atno 8008 bound_to 7997
  155.3565  140.0474  157.3063 H   0  0  0  0  0  0  0  0  0  0  0  0  # atno 8009 bound_to 7997
  154.5251  140.2211  155.8915 H   0  0  0  0  0  0  0  0  0  0  0  0  # atno 8010 bound_to 7997
  140.2440  143.3519  152.0776 H   0  0  0  0  0  0  0  0  0  0  0  0  # atno 10167 bound_to 10162
  156.4754  130.4533  149.6843 H   0  0  0  0  0  0  0  0  0  0  0  0  # atno 10718 bound_to 10713
  154.1657  135.2807  155.3096 H   0  0  0  0  0  0  0  0  0  0  0  0  # atno 10763 bound_to 10752
  154.6113  135.5498  153.7480 H   0  0  0  0  0  0  0  0  0  0  0  0  # atno 10764 bound_to 10752
  153.0179  135.6416  154.1798 H   0  0  0  0  0  0  0  0  0  0  0  0  # atno 10765 bound_to 10752
  141.1654  133.6984  156.7670 H   0  0  0  0  0  0  0  0  0  0  0  0  # atno 11005 bound_to 11000
  145.5563  139.1478  143.3366 LP  0  0  0  0  0  0  0  0  0  0  0  0  # atno 17320 bound_to 7965
  146.2286  140.5700  142.8985 LP  0  0  0  0  0  0  0  0  0  0  0  0  # atno 17321 bound_to 7965
  139.5068  144.6820  151.5984 LP  0  0  0  0  0  0  0  0  0  0  0  0  # atno 17342 bound_to 10162
  140.6092  143.9468  150.6440 LP  0  0  0  0  0  0  0  0  0  0  0  0  # atno 17343 bound_to 10162
  156.3575  130.7464  151.2432 LP  0  0  0  0  0  0  0  0  0  0  0  0  # atno 17370 bound_to 10713
  157.7488  131.0359  150.4387 LP  0  0  0  0  0  0  0  0  0  0  0  0  # atno 17371 bound_to 10713
  140.2492  134.8554  157.3650 LP  0  0  0  0  0  0  0  0  0  0  0  0  # atno 17394 bound_to 11000
  140.1720  134.4597  155.7826 LP  0  0  0  0  0  0  0  0  0  0  0  0  # atno 17395 bound_to 11000

$$$$
