AV-unprocessed.smi:266|AV-procd|sdf|2033|dock7
  -GOLD-   2262021243D 1   1.00000     0.00000
 Structure written by MMmdl.
 52 55  0  0  0  0  0  0  0  0  1 V2000
  144.0635  132.6073  148.5269 C   0  0  0  0  0  0  0  0  0  0  0  0
  143.9386  132.0244  149.9453 C   0  0  2  0  0  0  0  0  0  0  0  0
  143.2743  133.0110  150.7373 O   0  0  0  0  0  0  0  0  0  0  0  0
  144.0146  133.2841  151.9184 C   0  0  0  0  0  0  0  0  0  0  0  0
  145.4494  132.9626  151.5316 C   0  0  0  0  0  0  0  0  0  0  0  0
  145.2757  131.7189  150.6674 C   0  0  2  0  0  0  0  0  0  0  0  0
  146.3719  131.6239  149.7748 O   0  0  0  0  0  0  0  0  0  0  0  0
  145.1823  130.3943  151.4724 C   0  0  0  0  0  0  0  0  0  0  0  0
  146.2256  130.2265  152.4729 N   0  0  0  0  0  0  0  0  0  0  0  0
  146.4249  131.0051  153.5892 C   0  0  0  0  0  0  0  0  0  0  0  0
  147.4336  130.6535  154.3372 N   0  0  0  0  0  0  0  0  0  0  0  0
  147.9728  129.5434  153.6958 C   0  0  0  0  0  0  0  0  0  0  0  0
  149.0774  128.6764  153.9527 C   0  0  0  0  0  0  0  0  0  0  0  0
  149.9495  128.8311  154.9881 N   0  0  0  0  0  0  0  0  0  0  0  0
  150.7846  127.6919  155.3614 C   0  0  0  0  0  0  0  0  0  0  0  0
  150.4744  130.1671  155.2761 C   0  0  0  0  0  0  0  0  0  0  0  0
  151.7517  130.1585  156.1437 C   0  0  2  0  0  0  0  0  0  0  0  0
  152.0062  131.5340  156.7910 C   0  0  0  0  0  0  0  0  0  0  0  0
  153.4108  131.5401  157.4008 C   0  0  0  0  0  0  0  0  0  0  0  0
  154.4346  130.5251  156.2742 S   0  0  0  0  0  0  0  0  0  0  0  0
  155.1711  131.4051  155.3542 O   0  0  0  0  0  0  0  0  0  0  0  0
  155.1310  129.4921  157.0557 O   0  0  0  0  0  0  0  0  0  0  0  0
  153.0285  129.7717  155.3731 C   0  0  0  0  0  0  0  0  0  0  0  0
  149.2659  127.6460  153.0840 N   0  0  0  0  0  0  0  0  0  0  0  0
  148.4591  127.4822  152.0325 C   0  0  0  0  0  0  0  0  0  0  0  0
  147.4150  128.2226  151.6613 N   0  0  0  0  0  0  0  0  0  0  0  0
  147.2058  129.2511  152.5305 C   0  0  0  0  0  0  0  0  0  0  0  0
  144.5307  131.8966  147.8447 H   0  0  0  0  0  0  0  0  0  0  0  0
  144.6584  133.5212  148.5229 H   0  0  0  0  0  0  0  0  0  0  0  0
  143.0815  132.8508  148.1208 H   0  0  0  0  0  0  0  0  0  0  0  0
  143.3145  131.1308  149.8993 H   0  0  0  0  0  0  0  0  0  0  0  0
  143.8865  134.3175  152.2405 H   0  0  0  0  0  0  0  0  0  0  0  0
  143.6713  132.6307  152.7214 H   0  0  0  0  0  0  0  0  0  0  0  0
  145.8461  133.7865  150.9355 H   0  0  0  0  0  0  0  0  0  0  0  0
  146.1091  132.8375  152.3891 H   0  0  0  0  0  0  0  0  0  0  0  0
  147.1032  131.2418  150.2356 H   0  0  0  0  0  0  0  0  0  0  0  0
  144.2199  130.3269  151.9811 H   0  0  0  0  0  0  0  0  0  0  0  0
  145.2200  129.5406  150.7941 H   0  0  0  0  0  0  0  0  0  0  0  0
  145.7993  131.8530  153.8281 H   0  0  0  0  0  0  0  0  0  0  0  0
  150.1779  126.7971  155.5058 H   0  0  0  0  0  0  0  0  0  0  0  0
  151.3105  127.8874  156.2961 H   0  0  0  0  0  0  0  0  0  0  0  0
  151.5296  127.4868  154.5917 H   0  0  0  0  0  0  0  0  0  0  0  0
  150.6361  130.7450  154.3696 H   0  0  0  0  0  0  0  0  0  0  0  0
  149.6945  130.7091  155.8122 H   0  0  0  0  0  0  0  0  0  0  0  0
  151.6235  129.4446  156.9585 H   0  0  0  0  0  0  0  0  0  0  0  0
  151.9529  132.3070  156.0233 H   0  0  0  0  0  0  0  0  0  0  0  0
  151.2492  131.7753  157.5379 H   0  0  0  0  0  0  0  0  0  0  0  0
  153.8322  132.5406  157.4993 H   0  0  0  0  0  0  0  0  0  0  0  0
  153.4092  131.0610  158.3800 H   0  0  0  0  0  0  0  0  0  0  0  0
  153.1705  128.6935  155.2988 H   0  0  0  0  0  0  0  0  0  0  0  0
  153.0240  130.1911  154.3671 H   0  0  0  0  0  0  0  0  0  0  0  0
  148.6868  126.6411  151.3940 H   0  0  0  0  0  0  0  0  0  0  0  0
  1  2  1  0  0  0  0
  1 28  1  0  0  0  0
  1 29  1  0  0  0  0
  1 30  1  0  0  0  0
  2  6  1  0  0  0  0
  2  3  1  0  0  0  0
  2 31  1  0  0  0  0
  3  4  1  0  0  0  0
  4  5  1  0  0  0  0
  4 32  1  0  0  0  0
  4 33  1  0  0  0  0
  5  6  1  0  0  0  0
  5 34  1  0  0  0  0
  5 35  1  0  0  0  0
  6  7  1  0  0  0  0
  6  8  1  0  0  0  0
  7 36  1  0  0  0  0
  8  9  1  0  0  0  0
  8 37  1  0  0  0  0
  8 38  1  0  0  0  0
  9 27  1  0  0  0  0
  9 10  1  0  0  0  0
 10 11  2  0  0  0  0
 10 39  1  0  0  0  0
 11 12  1  0  0  0  0
 12 27  2  0  0  0  0
 12 13  1  0  0  0  0
 13 14  1  0  0  0  0
 13 24  2  0  0  0  0
 14 15  1  0  0  0  0
 14 16  1  0  0  0  0
 15 40  1  0  0  0  0
 15 41  1  0  0  0  0
 15 42  1  0  0  0  0
 16 17  1  0  0  0  0
 16 43  1  0  0  0  0
 16 44  1  0  0  0  0
 17 23  1  0  0  0  0
 17 18  1  0  0  0  0
 17 45  1  0  0  0  0
 18 19  1  0  0  0  0
 18 46  1  0  0  0  0
 18 47  1  0  0  0  0
 19 20  1  0  0  0  0
 19 48  1  0  0  0  0
 19 49  1  0  0  0  0
 20 21  2  0  0  0  0
 20 22  2  0  0  0  0
 20 23  1  0  0  0  0
 23 50  1  0  0  0  0
 23 51  1  0  0  0  0
 24 25  1  0  0  0  0
 25 26  2  0  0  0  0
 25 52  1  0  0  0  0
 26 27  1  0  0  0  0
M  END
> <s_m_source_file>
AV-unprocessed.smi

> <i_m_source_file_index>
266

> <i_lp_mmshare_version>
43012

> <i_f3d_flags>
0

> <s_epik_input>
W0NIMl0xW0NIMl1PW0NAQEhdKFtDSDNdKVtDQEBdMShbT0hdKVtDSDJdbihbY0hdbjIpYyhjMjMpbltjSF1uYzNOKFtDSDNdKVtDSDJdW0NAQEhdKFtDSDJdNClbQ0gyXVtDSDJdUzQoPU8pPU8=

> <s_epik_cmdline>
J2VwaWtfcHl0aG9uJywgJy1waCcsICc3LjAnLCAnLXRuJywgJzgnLCAnLW1hJywgJzIwMCcsICctbWV0YWxfYmluZGluZycsICctaW1hZScsICc8aW5maWxlLm1hZT4nLCAnLW9tYWUnLCAnPG91dGZpbGUubWFlPic=

> <r_lp_tautomer_probability>
1

> <r_epik_Ionization_Penalty>
0.00155497

> <r_epik_Ionization_Penalty_Charging>
0

> <r_epik_Ionization_Penalty_Neutral>
0.00155497

> <r_epik_State_Penalty>
-0

> <r_epik_Charging_Adjusted_Penalty>
0

> <i_epik_Tot_Q>
0

> <i_epik_Tot_abs_Q>
0

> <r_epik_Metal_State_Penalty>
-0

> <b_epik_Metal_Only>
0

> <s_lp_Force_Field>
OPLS_2005

> <r_lp_Energy>
29.9122

> <b_lp_Chiralities_Consistent>
1

> <s_lp_Variant>
AV-unprocessed.smi:266-3

> <Gold.Version>
5.8.1

> <Gold.Id.Protein>
6NUR|6NUR_protein|mol2

> <Gold.PLP.Fitness>
49.5347

> <Gold.PLP.PLP>
-47.8162

> <Gold.PLP.part.hbond>
-1.0000

> <Gold.PLP.part.metal>
0.0000

> <Gold.PLP.part.buried>
-7.0984

> <Gold.PLP.part.nonpolar>
-41.2636

> <Gold.PLP.part.repulsive>
1.7990

> <Gold.PLP.ligand.clash>
0.0000

> <Gold.PLP.ligand.torsion>
0.9149

> <Gold.PLP.Chemscore.Hbond>
1.0000

> <Gold.PLP.Chemscore.CHOScore>
0.0000

> <Gold.PLP.Chemscore.Metal>
0.0000

> <Gold.Chemscore.Hbonds>
donor molecule, donor type, donor heavy atom, donor atom, acceptor molecule, acceptor atom, score
      L1  H     7    36       P1 10747  0.94

> <Gold.PLP.Chemscore.Internal.Correction>
0.5483

> <Gold.Rescore>
     Score         DG    S(hbond)    S(metal)    S(lipo)     H(rot)  DE(clash)    DE(int)     intcor
     11.24     -13.51       0.92        0.00      95.89       2.45       1.46       0.82       ----

> <Gold.Chemscore.Fitness>
11.2389

> <Gold.Chemscore.DG>
-13.5140

> <Gold.Chemscore.ZeroCoef>
-5.4800

> <Gold.Chemscore.Hbond>
0.9221

> <Gold.Chemscore.Metal>
0.0000

> <Gold.Chemscore.Lipo>
95.8878

> <Gold.Chemscore.Internal_Hbond>
0.0000

> <Gold.Chemscore.DEClash>
1.4554

> <Gold.Chemscore.DEInternal>
0.8197

> <Gold.Chemscore.Rot>
2.4471

> <Gold.Chemscore.Internal.Correction>
   9.000000E+99

> <Gold.Chemscore.Hbonds>
donor molecule, donor type, donor heavy atom, donor atom, acceptor molecule, acceptor atom, score
      L1  H     7    36       P1 10747  0.91

> <Gold.Chemscore.Hbond.Weighted>
-3.0797

> <Gold.Chemscore.Metal.Weighted>
-0.0000

> <Gold.Chemscore.Lipo.Weighted>
-11.2189

> <Gold.Chemscore.Internal_Hbond.Weighted>
0.0000

> <Gold.Chemscore.DEClash.Weighted>
1.4554

> <Gold.Chemscore.DEInternal.Weighted>
0.8197

> <Gold.Chemscore.Rot.Weighted>
6.2645

> <Gold.Chemscore.Internal.Correction.Weighted>
   9.000000E+99

> <Gold.Protein.RotatedTorsions>
[ 6907 6896 6895 6894 ] final  141.63 input  -60.11 | X-H torsion
[ 7974 7965 7964 7962 ] final  107.56 input  175.53 | X-H torsion
[ 8008 7997 7996 7995 ] final  103.88 input   59.86 | X-H torsion
[ 10167 10162 10161 10158 ] final -132.69 input  -65.29 | X-H torsion
[ 10718 10713 10712 10709 ] final   76.19 input   66.30 | X-H torsion
[ 10763 10752 10751 10750 ] final  -33.03 input  -60.55 | X-H torsion
[ 11005 11000 10999 10996 ] final  140.70 input  -57.11 | X-H torsion

> <Gold.Protein.ActiveResidues>
 VAL166  LYS551  ARG553  GLY616  TRP617  ASP618  TYR619  PRO620  LYS621  CYS622 
 ASP623  PHE694  ASN695  SER759  ASP760  ASP761  ALA762  ILE779  LEU786  VAL792 
 PHE793  MET794  SER795  GLU796  ALA797  LYS798  CYS799  TRP800  GLU811  SER814 

> <Gold.Protein.RotatedAtoms>
  152.2286  133.5040  159.5202 H   0  0  0  0  0  0  0  0  0  0  0  0  # atno 6907 bound_to 6896
  150.7031  134.1246  159.4056 H   0  0  0  0  0  0  0  0  0  0  0  0  # atno 6908 bound_to 6896
  151.9168  135.0315  160.0569 H   0  0  0  0  0  0  0  0  0  0  0  0  # atno 6909 bound_to 6896
  145.2921  139.2597  143.3859 H   0  0  0  0  0  0  0  0  0  0  0  0  # atno 7974 bound_to 7965
  156.1524  140.3157  155.8669 H   0  0  0  0  0  0  0  0  0  0  0  0  # atno 8008 bound_to 7997
  155.3946  140.0496  157.3056 H   0  0  0  0  0  0  0  0  0  0  0  0  # atno 8009 bound_to 7997
  154.5070  140.2150  155.9243 H   0  0  0  0  0  0  0  0  0  0  0  0  # atno 8010 bound_to 7997
  139.9059  143.6551  152.2585 H   0  0  0  0  0  0  0  0  0  0  0  0  # atno 10167 bound_to 10162
  157.6664  130.9762  150.1461 H   0  0  0  0  0  0  0  0  0  0  0  0  # atno 10718 bound_to 10713
  153.8236  135.6872  153.4824 H   0  0  0  0  0  0  0  0  0  0  0  0  # atno 10763 bound_to 10752
  153.1554  135.4601  154.9695 H   0  0  0  0  0  0  0  0  0  0  0  0  # atno 10764 bound_to 10752
  154.7917  135.3304  154.7706 H   0  0  0  0  0  0  0  0  0  0  0  0  # atno 10765 bound_to 10752
  140.0347  134.9335  157.0729 H   0  0  0  0  0  0  0  0  0  0  0  0  # atno 11005 bound_to 11000
  146.3181  140.3414  142.8648 LP  0  0  0  0  0  0  0  0  0  0  0  0  # atno 17320 bound_to 7965
  144.9164  140.7817  143.5775 LP  0  0  0  0  0  0  0  0  0  0  0  0  # atno 17321 bound_to 7965
  139.6984  144.7638  151.1315 LP  0  0  0  0  0  0  0  0  0  0  0  0  # atno 17342 bound_to 10162
  140.7696  143.5491  150.9225 LP  0  0  0  0  0  0  0  0  0  0  0  0  # atno 17343 bound_to 10162
  156.2272  130.3679  149.8487 LP  0  0  0  0  0  0  0  0  0  0  0  0  # atno 17370 bound_to 10713
  156.6324  130.8671  151.3498 LP  0  0  0  0  0  0  0  0  0  0  0  0  # atno 17371 bound_to 10713
  140.4168  134.1923  155.7163 LP  0  0  0  0  0  0  0  0  0  0  0  0  # atno 17394 bound_to 11000
  141.1850  133.8331  157.1119 LP  0  0  0  0  0  0  0  0  0  0  0  0  # atno 17395 bound_to 11000

$$$$
