AV-unprocessed.smi:2368|AV-procd|sdf|9430|dock1
  -GOLD-   2272013 63D 1   1.00000     0.00000
 Structure written by MMmdl.
 36 37  0  0  0  0  0  0  0  0  2 V2000
  150.7599  141.2918  155.7003 C   0  0  0  0  0  0  0  0  0  0  0  0
  149.4445  141.0127  154.9989 C   0  0  0  0  0  0  0  0  0  0  0  0
  148.5538  142.0247  154.9073 N   0  3  0  0  0  0  0  0  0  0  0  0
  147.3500  141.8931  154.3125 C   0  0  0  0  0  0  0  0  0  0  0  0
  146.9775  140.6588  153.7459 C   0  0  0  0  0  0  0  0  0  0  0  0
  147.8810  139.5673  153.7975 C   0  0  0  0  0  0  0  0  0  0  0  0
  147.5765  138.2837  153.2645 N   0  0  0  0  0  0  0  0  0  0  0  0
  146.4131  137.6133  153.3160 C   0  0  0  0  0  0  0  0  0  0  0  0
  145.3904  138.0070  153.8762 O   0  0  0  0  0  0  0  0  0  0  0  0
  146.4941  136.4497  152.6560 N   0  0  0  0  0  0  0  0  0  0  0  0
  145.3976  135.5001  152.5042 C   0  0  1  0  0  0  0  0  0  0  0  0
  144.3229  136.0708  151.6182 C   0  0  0  0  0  0  0  0  0  0  0  0
  144.0609  135.3006  150.5646 C   0  0  0  0  0  0  0  0  0  0  0  0
  144.9230  134.0656  150.5205 C   0  0  2  0  0  0  0  0  0  0  0  0
  144.1079  132.7599  150.4533 C   0  0  0  0  0  0  0  0  0  0  0  0
  143.2303  132.7466  149.3446 O   0  0  0  0  0  0  0  0  0  0  0  0
  145.8232  134.1970  151.7763 C   0  0  0  0  0  0  0  0  0  0  0  0
  149.1268  139.7486  154.4482 C   0  0  0  0  0  0  0  0  0  0  0  0
  150.2577  138.4421  154.5642 Cl  0  0  0  0  0  0  0  0  0  0  0  0
  144.9554  135.2742  153.4762 H   0  0  0  0  0  0  0  0  0  0  0  0
  145.5447  134.1351  149.6269 H   0  0  0  0  0  0  0  0  0  0  0  0
  150.8820  140.6273  156.5562 H   0  0  0  0  0  0  0  0  0  0  0  0
  150.8101  142.3202  156.0606 H   0  0  0  0  0  0  0  0  0  0  0  0
  151.5949  141.1309  155.0177 H   0  0  0  0  0  0  0  0  0  0  0  0
  146.7219  142.7722  154.3128 H   0  0  0  0  0  0  0  0  0  0  0  0
  146.0018  140.5691  153.2931 H   0  0  0  0  0  0  0  0  0  0  0  0
  148.3007  137.8692  152.6959 H   0  0  0  0  0  0  0  0  0  0  0  0
  147.3716  136.2032  152.2216 H   0  0  0  0  0  0  0  0  0  0  0  0
  143.8231  137.0009  151.8459 H   0  0  0  0  0  0  0  0  0  0  0  0
  143.3238  135.5157  149.8050 H   0  0  0  0  0  0  0  0  0  0  0  0
  144.7763  131.9017  150.3782 H   0  0  0  0  0  0  0  0  0  0  0  0
  143.5253  132.6309  151.3659 H   0  0  0  0  0  0  0  0  0  0  0  0
  142.5197  133.3457  149.5160 H   0  0  0  0  0  0  0  0  0  0  0  0
  146.8724  134.2265  151.4789 H   0  0  0  0  0  0  0  0  0  0  0  0
  145.7160  133.3402  152.4426 H   0  0  0  0  0  0  0  0  0  0  0  0
  148.8008  142.9287  155.3112 H   0  0  0  0  0  0  0  0  0  0  0  0
  1  2  1  0  0  0  0
  1 22  1  0  0  0  0
  1 23  1  0  0  0  0
  1 24  1  0  0  0  0
  2 18  1  0  0  0  0
  2  3  2  0  0  0  0
  3  4  1  0  0  0  0
  3 36  1  0  0  0  0
  4  5  2  0  0  0  0
  4 25  1  0  0  0  0
  5  6  1  0  0  0  0
  5 26  1  0  0  0  0
  6  7  1  0  0  0  0
  6 18  2  0  0  0  0
  7  8  1  0  0  0  0
  7 27  1  0  0  0  0
  8  9  2  0  0  0  0
  8 10  1  0  0  0  0
 10 11  1  0  0  0  0
 10 28  1  0  0  0  0
 11 20  1  0  0  0  0
 11 17  1  0  0  0  0
 11 12  1  0  0  0  0
 12 13  2  0  0  0  0
 12 29  1  0  0  0  0
 13 14  1  0  0  0  0
 13 30  1  0  0  0  0
 14 21  1  0  0  0  0
 14 15  1  0  0  0  0
 14 17  1  0  0  0  0
 15 16  1  0  0  0  0
 15 31  1  0  0  0  0
 15 32  1  0  0  0  0
 16 33  1  0  0  0  0
 17 34  1  0  0  0  0
 17 35  1  0  0  0  0
 18 19  1  0  0  0  0
M  CHG  1   3   1
M  END
> <s_m_source_file>
AV-unprocessed.smi

> <i_m_source_file_index>
2368

> <i_lp_mmshare_version>
43012

> <i_f3d_flags>
0

> <s_epik_input>
W0NIM11jMW5bY0hdW2NIXWMoYzFDbClbTkhdQyg9TylbTkhdW0NAQEhdMltDSF09W0NIXVtDQEBIXShbQ0gyXTIpW0NIMl1bT0hd

> <s_epik_cmdline>
J2VwaWtfcHl0aG9uJywgJy1waCcsICc3LjAnLCAnLXRuJywgJzgnLCAnLW1hJywgJzIwMCcsICctbWV0YWxfYmluZGluZycsICctaW1hZScsICc8aW5maWxlLm1hZT4nLCAnLW9tYWUnLCAnPG91dGZpbGUubWFlPic=

> <r_epik_Ionization_Penalty>
2.4467

> <r_epik_Ionization_Penalty_Charging>
2.44668

> <r_epik_Ionization_Penalty_Neutral>
1.95078e-05

> <r_epik_State_Penalty>
2.60786

> <r_epik_Charging_Adjusted_Penalty>
5.05454

> <i_epik_Tot_Q>
1

> <i_epik_Tot_abs_Q>
1

> <r_epik_Metal_State_Penalty>
2.61736

> <b_epik_Metal_Only>
0

> <s_lp_Force_Field>
OPLS_2005

> <r_lp_Energy>
27.7863

> <b_lp_Chiralities_Consistent>
1

> <s_lp_Variant>
AV-unprocessed.smi:2368-6

> <Gold.Version>
5.8.1

> <Gold.Id.Protein>
6NUR|6NUR_protein|mol2

> <Gold.PLP.Fitness>
49.6950

> <Gold.PLP.PLP>
-35.6292

> <Gold.PLP.part.hbond>
-4.0000

> <Gold.PLP.part.metal>
0.0000

> <Gold.PLP.part.buried>
-4.3463

> <Gold.PLP.part.nonpolar>
-27.1030

> <Gold.PLP.part.repulsive>
0.3838

> <Gold.PLP.ligand.clash>
0.0000

> <Gold.PLP.ligand.torsion>
0.3728

> <Gold.PLP.Chemscore.Hbond>
4.9280

> <Gold.PLP.Chemscore.CHOScore>
0.0000

> <Gold.PLP.Chemscore.Metal>
0.0000

> <Gold.Chemscore.Hbonds>
donor molecule, donor type, donor heavy atom, donor atom, acceptor molecule, acceptor atom, score
      L1  H     3    36       P1  8028  2.00
      L1  H     7    27       P1  7948  0.94
      L1  H    10    28       P1  7948  1.00
      L1  H    16    33       P1 10186  1.00

> <Gold.PLP.Chemscore.Internal.Correction>
0.0274

> <Gold.Rescore>
     Score         DG    S(hbond)    S(metal)    S(lipo)     H(rot)  DE(clash)    DE(int)     intcor
     22.47     -23.50       3.92        0.00      81.62       1.81       0.13       0.89       ----

> <Gold.Chemscore.Fitness>
22.4747

> <Gold.Chemscore.DG>
-23.4960

> <Gold.Chemscore.ZeroCoef>
-5.4800

> <Gold.Chemscore.Hbond>
3.9194

> <Gold.Chemscore.Metal>
0.0000

> <Gold.Chemscore.Lipo>
81.6159

> <Gold.Chemscore.Internal_Hbond>
0.0000

> <Gold.Chemscore.DEClash>
0.1337

> <Gold.Chemscore.DEInternal>
0.8877

> <Gold.Chemscore.Rot>
1.8061

> <Gold.Chemscore.Internal.Correction>
   9.000000E+99

> <Gold.Chemscore.Hbonds>
donor molecule, donor type, donor heavy atom, donor atom, acceptor molecule, acceptor atom, score
      L1  H     3    36       P1  8028  1.00
      L1  H     7    27       P1  7948  0.90
      L1  H    10    28       P1  7948  0.99
      L1  H    16    33       P1 10186  1.00

> <Gold.Chemscore.Hbond.Weighted>
-13.0906

> <Gold.Chemscore.Metal.Weighted>
-0.0000

> <Gold.Chemscore.Lipo.Weighted>
-9.5491

> <Gold.Chemscore.Internal_Hbond.Weighted>
0.0000

> <Gold.Chemscore.DEClash.Weighted>
0.1337

> <Gold.Chemscore.DEInternal.Weighted>
0.8877

> <Gold.Chemscore.Rot.Weighted>
4.6237

> <Gold.Chemscore.Internal.Correction.Weighted>
   9.000000E+99

> <Gold.Protein.RotatedTorsions>
[ 6907 6896 6895 6894 ] final   64.19 input  -60.11 | X-H torsion
[ 7974 7965 7964 7962 ] final -126.10 input  175.53 | X-H torsion
[ 8008 7997 7996 7995 ] final  -35.68 input   59.86 | X-H torsion
[ 10167 10162 10161 10158 ] final -110.70 input  -65.29 | X-H torsion
[ 10718 10713 10712 10709 ] final -135.72 input   66.30 | X-H torsion
[ 10763 10752 10751 10750 ] final  148.60 input  -60.55 | X-H torsion
[ 11005 11000 10999 10996 ] final   19.38 input  -57.11 | X-H torsion

> <Gold.Protein.ActiveResidues>
 VAL166  LYS551  ARG553  GLY616  TRP617  ASP618  TYR619  PRO620  LYS621  CYS622 
 ASP623  PHE694  ASN695  SER759  ASP760  ASP761  ALA762  ILE779  LEU786  VAL792 
 PHE793  MET794  SER795  GLU796  ALA797  LYS798  CYS799  TRP800  GLU811  SER814 

> <Gold.Protein.RotatedAtoms>
  152.4312  134.5773  159.9937 H   0  0  0  0  0  0  0  0  0  0  0  0  # atno 6907 bound_to 6896
  151.5896  133.3362  159.3033 H   0  0  0  0  0  0  0  0  0  0  0  0  # atno 6908 bound_to 6896
  150.8205  134.7446  159.6833 H   0  0  0  0  0  0  0  0  0  0  0  0  # atno 6909 bound_to 6896
  144.9908  140.7730  143.4555 H   0  0  0  0  0  0  0  0  0  0  0  0  # atno 7974 bound_to 7965
  154.4090  140.1651  156.2250 H   0  0  0  0  0  0  0  0  0  0  0  0  # atno 8008 bound_to 7997
  155.9331  140.3413  155.6242 H   0  0  0  0  0  0  0  0  0  0  0  0  # atno 8009 bound_to 7997
  155.7082  140.0753  157.2373 H   0  0  0  0  0  0  0  0  0  0  0  0  # atno 8010 bound_to 7997
  140.1416  143.4275  152.1558 H   0  0  0  0  0  0  0  0  0  0  0  0  # atno 10167 bound_to 10162
  156.2692  130.7255  151.1216 H   0  0  0  0  0  0  0  0  0  0  0  0  # atno 10718 bound_to 10713
  154.0575  135.2877  155.3330 H   0  0  0  0  0  0  0  0  0  0  0  0  # atno 10763 bound_to 10752
  154.6830  135.5256  153.8291 H   0  0  0  0  0  0  0  0  0  0  0  0  # atno 10764 bound_to 10752
  153.0536  135.6586  154.0766 H   0  0  0  0  0  0  0  0  0  0  0  0  # atno 10765 bound_to 10752
  140.4144  134.1585  155.7669 H   0  0  0  0  0  0  0  0  0  0  0  0  # atno 11005 bound_to 11000
  145.2289  139.2124  143.5053 LP  0  0  0  0  0  0  0  0  0  0  0  0  # atno 17320 bound_to 7965
  146.3431  140.2162  142.8590 LP  0  0  0  0  0  0  0  0  0  0  0  0  # atno 17321 bound_to 7965
  139.5469  144.7306  151.4554 LP  0  0  0  0  0  0  0  0  0  0  0  0  # atno 17342 bound_to 10162
  140.6757  143.8195  150.7055 LP  0  0  0  0  0  0  0  0  0  0  0  0  # atno 17343 bound_to 10162
  157.7278  131.0636  150.5850 LP  0  0  0  0  0  0  0  0  0  0  0  0  # atno 17370 bound_to 10713
  156.5944  130.4338  149.5923 LP  0  0  0  0  0  0  0  0  0  0  0  0  # atno 17371 bound_to 10713
  141.1809  133.8416  157.1262 LP  0  0  0  0  0  0  0  0  0  0  0  0  # atno 17394 bound_to 11000
  140.0245  134.9930  157.0658 LP  0  0  0  0  0  0  0  0  0  0  0  0  # atno 17395 bound_to 11000

$$$$
