AV-unprocessed.smi:1963|AV-procd|sdf|7926|dock3
  -GOLD-   2272010 93D 1   1.00000     0.00000
 Structure written by MMmdl.
 47 48  0  0  0  0  0  0  0  0  1 V2000
  156.6987  134.3570  158.9335 C   0  0  0  0  0  0  0  0  0  0  0  0
  155.6266  134.5045  160.0072 C   0  0  0  0  0  0  0  0  0  0  0  0
  154.7452  133.6530  160.1220 O   0  0  0  0  0  0  0  0  0  0  0  0
  155.7151  135.5914  160.7901 N   0  0  0  0  0  0  0  0  0  0  0  0
  154.7876  135.9368  161.8701 C   0  0  2  0  0  0  0  0  0  0  0  0
  154.5599  137.4614  161.8608 C   0  0  0  0  0  0  0  0  0  0  0  0
  154.8451  138.1318  162.8540 O   0  0  0  0  0  0  0  0  0  0  0  0
  154.0508  137.9643  160.7211 N   0  0  0  0  0  0  0  0  0  0  0  0
  153.7006  139.3082  160.4218 C   0  0  0  0  0  0  0  0  0  0  0  0
  154.2097  140.3245  161.2543 C   0  0  0  0  0  0  0  0  0  0  0  0
  153.9066  141.6679  160.9633 C   0  0  0  0  0  0  0  0  0  0  0  0
  153.1066  141.9529  159.8334 C   0  0  0  0  0  0  0  0  0  0  0  0
  152.7704  143.2675  159.4829 N   0  0  0  0  0  0  0  0  0  0  0  0
  152.2054  144.0517  160.5741 C   0  0  0  0  0  0  0  0  0  0  0  0
  152.0007  145.5071  160.1202 C   0  0  0  0  0  0  0  0  0  0  0  0
  151.1784  145.5303  158.9565 O   0  0  0  0  0  0  0  0  0  0  0  0
  151.7698  144.8231  157.8695 C   0  0  0  0  0  0  0  0  0  0  0  0
  151.9805  143.3499  158.2618 C   0  0  0  0  0  0  0  0  0  0  0  0
  152.6191  140.9857  159.0269 N   0  0  0  0  0  0  0  0  0  0  0  0
  152.9123  139.6988  159.3121 C   0  0  0  0  0  0  0  0  0  0  0  0
  155.4083  135.4958  163.2289 C   0  0  0  0  0  0  0  0  0  0  0  0
  155.6757  133.9782  163.2716 C   0  0  0  0  0  0  0  0  0  0  0  0
  154.5431  135.8872  164.4454 C   0  0  0  0  0  0  0  0  0  0  0  0
  156.8246  135.2907  158.3844 H   0  0  0  0  0  0  0  0  0  0  0  0
  156.4277  133.5773  158.2209 H   0  0  0  0  0  0  0  0  0  0  0  0
  157.6533  134.0900  159.3872 H   0  0  0  0  0  0  0  0  0  0  0  0
  156.4700  136.2394  160.6171 H   0  0  0  0  0  0  0  0  0  0  0  0
  153.8397  135.4153  161.7197 H   0  0  0  0  0  0  0  0  0  0  0  0
  153.9510  137.3107  159.9578 H   0  0  0  0  0  0  0  0  0  0  0  0
  154.8243  140.0808  162.1088 H   0  0  0  0  0  0  0  0  0  0  0  0
  154.2827  142.4573  161.5970 H   0  0  0  0  0  0  0  0  0  0  0  0
  151.2499  143.6274  160.8847 H   0  0  0  0  0  0  0  0  0  0  0  0
  152.8714  144.0168  161.4372 H   0  0  0  0  0  0  0  0  0  0  0  0
  151.5176  146.0836  160.9092 H   0  0  0  0  0  0  0  0  0  0  0  0
  152.9577  145.9887  159.9126 H   0  0  0  0  0  0  0  0  0  0  0  0
  151.1132  144.8913  157.0021 H   0  0  0  0  0  0  0  0  0  0  0  0
  152.7156  145.2907  157.5907 H   0  0  0  0  0  0  0  0  0  0  0  0
  152.4868  142.8164  157.4563 H   0  0  0  0  0  0  0  0  0  0  0  0
  151.0156  142.8644  158.4149 H   0  0  0  0  0  0  0  0  0  0  0  0
  152.5184  138.9815  158.6094 H   0  0  0  0  0  0  0  0  0  0  0  0
  156.3728  135.9932  163.3463 H   0  0  0  0  0  0  0  0  0  0  0  0
  154.7543  133.4117  163.1338 H   0  0  0  0  0  0  0  0  0  0  0  0
  156.1054  133.6822  164.2289 H   0  0  0  0  0  0  0  0  0  0  0  0
  156.3779  133.6638  162.4995 H   0  0  0  0  0  0  0  0  0  0  0  0
  153.5413  135.4635  164.3693 H   0  0  0  0  0  0  0  0  0  0  0  0
  154.4415  136.9674  164.5494 H   0  0  0  0  0  0  0  0  0  0  0  0
  154.9850  135.5240  165.3735 H   0  0  0  0  0  0  0  0  0  0  0  0
  1  2  1  0  0  0  0
  1 24  1  0  0  0  0
  1 25  1  0  0  0  0
  1 26  1  0  0  0  0
  2  3  2  0  0  0  0
  2  4  1  0  0  0  0
  4  5  1  0  0  0  0
  4 27  1  0  0  0  0
  5  6  1  0  0  0  0
  5 21  1  0  0  0  0
  5 28  1  0  0  0  0
  6  7  2  0  0  0  0
  6  8  1  0  0  0  0
  8  9  1  0  0  0  0
  8 29  1  0  0  0  0
  9 20  1  0  0  0  0
  9 10  2  0  0  0  0
 10 11  1  0  0  0  0
 10 30  1  0  0  0  0
 11 12  2  0  0  0  0
 11 31  1  0  0  0  0
 12 13  1  0  0  0  0
 12 19  1  0  0  0  0
 13 18  1  0  0  0  0
 13 14  1  0  0  0  0
 14 15  1  0  0  0  0
 14 32  1  0  0  0  0
 14 33  1  0  0  0  0
 15 16  1  0  0  0  0
 15 34  1  0  0  0  0
 15 35  1  0  0  0  0
 16 17  1  0  0  0  0
 17 18  1  0  0  0  0
 17 36  1  0  0  0  0
 17 37  1  0  0  0  0
 18 38  1  0  0  0  0
 18 39  1  0  0  0  0
 19 20  2  0  0  0  0
 20 40  1  0  0  0  0
 21 22  1  0  0  0  0
 21 23  1  0  0  0  0
 21 41  1  0  0  0  0
 22 42  1  0  0  0  0
 22 43  1  0  0  0  0
 22 44  1  0  0  0  0
 23 45  1  0  0  0  0
 23 46  1  0  0  0  0
 23 47  1  0  0  0  0
M  END
> <s_m_source_file>
AV-unprocessed.smi

> <i_m_source_file_index>
1963

> <i_lp_mmshare_version>
43012

> <i_f3d_flags>
0

> <s_epik_input>
W0NIM11DKD1PKVtOSF1bQ0BASF0oW0NIXShbQ0gzXSlbQ0gzXSlDKD1PKVtOSF1jMVtjSF1bY0hdYyhuW2NIXTEpTjJbQ0gyXVtDSDJdT1tDSDJdW0NIMl0y

> <s_epik_cmdline>
J2VwaWtfcHl0aG9uJywgJy1waCcsICc3LjAnLCAnLXRuJywgJzgnLCAnLW1hJywgJzIwMCcsICctbWV0YWxfYmluZGluZycsICctaW1hZScsICc8aW5maWxlLm1hZT4nLCAnLW9tYWUnLCAnPG91dGZpbGUubWFlPic=

> <r_lp_tautomer_probability>
1

> <r_epik_Ionization_Penalty>
0.00051446

> <r_epik_Ionization_Penalty_Charging>
0

> <r_epik_Ionization_Penalty_Neutral>
0.00051446

> <r_epik_State_Penalty>
0.00031949

> <r_epik_Charging_Adjusted_Penalty>
0.00031949

> <i_epik_Tot_Q>
0

> <i_epik_Tot_abs_Q>
0

> <r_epik_Metal_State_Penalty>
-0

> <b_epik_Metal_Only>
0

> <s_lp_Force_Field>
OPLS_2005

> <r_lp_Energy>
27.6856

> <b_lp_Chiralities_Consistent>
1

> <s_lp_Variant>
AV-unprocessed.smi:1963-1

> <Gold.Version>
5.8.1

> <Gold.Id.Protein>
6NUR|6NUR_protein|mol2

> <Gold.PLP.Fitness>
45.3313

> <Gold.PLP.PLP>
-43.0613

> <Gold.PLP.part.hbond>
-2.0000

> <Gold.PLP.part.metal>
0.0000

> <Gold.PLP.part.buried>
-6.0360

> <Gold.PLP.part.nonpolar>
-34.8251

> <Gold.PLP.part.repulsive>
0.2335

> <Gold.PLP.ligand.clash>
0.0000

> <Gold.PLP.ligand.torsion>
0.4359

> <Gold.PLP.Chemscore.Hbond>
1.0000

> <Gold.PLP.Chemscore.CHOScore>
0.0000

> <Gold.PLP.Chemscore.Metal>
0.0000

> <Gold.Chemscore.Hbonds>
donor molecule, donor type, donor heavy atom, donor atom, acceptor molecule, acceptor atom, score
      P1  H  6896  6907       L1     3  0.59

> <Gold.PLP.Chemscore.Internal.Correction>
0.1419

> <Gold.Rescore>
     Score         DG    S(hbond)    S(metal)    S(lipo)     H(rot)  DE(clash)    DE(int)     intcor
     13.69     -17.19       0.99        0.00     109.95       1.74       0.10       3.40       ----

> <Gold.Chemscore.Fitness>
13.6851

> <Gold.Chemscore.DG>
-17.1878

> <Gold.Chemscore.ZeroCoef>
-5.4800

> <Gold.Chemscore.Hbond>
0.9871

> <Gold.Chemscore.Metal>
0.0000

> <Gold.Chemscore.Lipo>
109.9468

> <Gold.Chemscore.Internal_Hbond>
0.0000

> <Gold.Chemscore.DEClash>
0.1049

> <Gold.Chemscore.DEInternal>
3.3978

> <Gold.Chemscore.Rot>
1.7394

> <Gold.Chemscore.Internal.Correction>
   9.000000E+99

> <Gold.Chemscore.Hbonds>
donor molecule, donor type, donor heavy atom, donor atom, acceptor molecule, acceptor atom, score
      P1  H  6896  6907       L1     3  0.58

> <Gold.Chemscore.Hbond.Weighted>
-3.2968

> <Gold.Chemscore.Metal.Weighted>
-0.0000

> <Gold.Chemscore.Lipo.Weighted>
-12.8638

> <Gold.Chemscore.Internal_Hbond.Weighted>
0.0000

> <Gold.Chemscore.DEClash.Weighted>
0.1049

> <Gold.Chemscore.DEInternal.Weighted>
3.3978

> <Gold.Chemscore.Rot.Weighted>
4.4528

> <Gold.Chemscore.Internal.Correction.Weighted>
   9.000000E+99

> <Gold.Protein.RotatedTorsions>
[ 6907 6896 6895 6894 ] final   97.30 input  -60.11 | X-H torsion
[ 7974 7965 7964 7962 ] final -137.10 input  175.53 | X-H torsion
[ 8008 7997 7996 7995 ] final  -76.05 input   59.86 | X-H torsion
[ 10167 10162 10161 10158 ] final  150.07 input  -65.29 | X-H torsion
[ 10718 10713 10712 10709 ] final -135.07 input   66.30 | X-H torsion
[ 10763 10752 10751 10750 ] final   36.63 input  -60.55 | X-H torsion
[ 11005 11000 10999 10996 ] final   71.40 input  -57.11 | X-H torsion

> <Gold.Protein.ActiveResidues>
 VAL166  LYS551  ARG553  GLY616  TRP617  ASP618  TYR619  PRO620  LYS621  CYS622 
 ASP623  PHE694  ASN695  SER759  ASP760  ASP761  ALA762  ILE779  LEU786  VAL792 
 PHE793  MET794  SER795  GLU796  ALA797  LYS798  CYS799  TRP800  GLU811  SER814 

> <Gold.Protein.RotatedAtoms>
  152.5425  134.0754  159.8211 H   0  0  0  0  0  0  0  0  0  0  0  0  # atno 6907 bound_to 6896
  151.0863  133.5343  159.2625 H   0  0  0  0  0  0  0  0  0  0  0  0  # atno 6908 bound_to 6896
  151.2151  135.0505  159.8981 H   0  0  0  0  0  0  0  0  0  0  0  0  # atno 6909 bound_to 6896
  144.8870  140.6589  143.5169 H   0  0  0  0  0  0  0  0  0  0  0  0  # atno 7974 bound_to 7965
  154.5470  140.0734  156.8606 H   0  0  0  0  0  0  0  0  0  0  0  0  # atno 8008 bound_to 7997
  155.3067  140.3387  155.4227 H   0  0  0  0  0  0  0  0  0  0  0  0  # atno 8009 bound_to 7997
  156.1927  140.1692  156.8046 H   0  0  0  0  0  0  0  0  0  0  0  0  # atno 8010 bound_to 7997
  139.4854  144.5551  151.7331 H   0  0  0  0  0  0  0  0  0  0  0  0  # atno 10167 bound_to 10162
  156.2622  130.7216  151.1154 H   0  0  0  0  0  0  0  0  0  0  0  0  # atno 10718 bound_to 10713
  153.0069  135.6300  154.2017 H   0  0  0  0  0  0  0  0  0  0  0  0  # atno 10763 bound_to 10752
  154.1760  135.2816  155.3068 H   0  0  0  0  0  0  0  0  0  0  0  0  # atno 10764 bound_to 10752
  154.5872  135.5629  153.7302 H   0  0  0  0  0  0  0  0  0  0  0  0  # atno 10765 bound_to 10752
  139.9545  134.7168  156.0784 H   0  0  0  0  0  0  0  0  0  0  0  0  # atno 11005 bound_to 11000
  145.3850  139.1628  143.4260 LP  0  0  0  0  0  0  0  0  0  0  0  0  # atno 17320 bound_to 7965
  146.3031  140.3934  142.8697 LP  0  0  0  0  0  0  0  0  0  0  0  0  # atno 17321 bound_to 7965
  140.5112  144.1023  150.5995 LP  0  0  0  0  0  0  0  0  0  0  0  0  # atno 17342 bound_to 10162
  140.3949  143.2733  152.0017 LP  0  0  0  0  0  0  0  0  0  0  0  0  # atno 17343 bound_to 10162
  157.7254  131.0653  150.5952 LP  0  0  0  0  0  0  0  0  0  0  0  0  # atno 17370 bound_to 10713
  156.6041  130.4362  149.5885 LP  0  0  0  0  0  0  0  0  0  0  0  0  # atno 17371 bound_to 10713
  141.1215  133.6611  156.3226 LP  0  0  0  0  0  0  0  0  0  0  0  0  # atno 17394 bound_to 11000
  140.5640  134.5906  157.5441 LP  0  0  0  0  0  0  0  0  0  0  0  0  # atno 17395 bound_to 11000

$$$$
