AV-unprocessed.smi:33|AV-procd|sdf|214|dock3
  -GOLD-   2262015523D 1   1.00000     0.00000
 Structure written by MMmdl.
 67 72  0  0  0  0  0  0  0  0  1 V2000
  150.9551  141.2655  156.3111 O   0  0  0  0  0  0  0  0  0  0  0  0
  151.0442  140.7995  157.4487 C   0  0  0  0  0  0  0  0  0  0  0  0
  150.5959  139.5800  157.7922 O   0  0  0  0  0  0  0  0  0  0  0  0
  150.5705  138.5250  156.8457 C   0  0  0  0  0  0  0  0  0  0  0  0
  149.6968  137.4110  157.4281 C   0  0  1  0  0  0  0  0  0  0  0  0
  148.4250  137.3875  156.7891 O   0  0  0  0  0  0  0  0  0  0  0  0
  147.8401  136.1325  156.9624 C   0  0  2  0  0  0  0  0  0  0  0  0
  146.6864  136.2319  157.9213 N   0  0  0  0  0  0  0  0  0  0  0  0
  146.3796  137.3132  158.7182 C   0  0  0  0  0  0  0  0  0  0  0  0
  145.3312  137.1728  159.4824 N   0  0  0  0  0  0  0  0  0  0  0  0
  144.8810  135.8921  159.1962 C   0  0  0  0  0  0  0  0  0  0  0  0
  143.7968  135.1045  159.6653 C   0  0  0  0  0  0  0  0  0  0  0  0
  142.9252  135.5474  160.5981 N   0  0  0  0  0  0  0  0  0  0  0  0
  141.4965  135.3608  160.3103 C   0  0  0  0  0  0  0  0  0  0  0  0
  141.1169  135.2732  159.1410 O   0  0  0  0  0  0  0  0  0  0  0  0
  140.4944  135.3161  161.4282 C   0  0  0  0  0  0  0  0  0  0  0  0
  140.9024  134.9536  162.7306 C   0  0  0  0  0  0  0  0  0  0  0  0
  139.9686  134.9263  163.7845 C   0  0  0  0  0  0  0  0  0  0  0  0
  138.6266  135.2802  163.5470 C   0  0  0  0  0  0  0  0  0  0  0  0
  138.2197  135.6698  162.2568 C   0  0  0  0  0  0  0  0  0  0  0  0
  139.1520  135.6953  161.2021 C   0  0  0  0  0  0  0  0  0  0  0  0
  143.4925  136.1590  161.8083 C   0  0  0  0  0  0  0  0  0  0  0  0
  142.8058  136.9348  162.4760 O   0  0  0  0  0  0  0  0  0  0  0  0
  144.9152  135.8879  162.2079 C   0  0  0  0  0  0  0  0  0  0  0  0
  145.7809  136.9632  162.5058 C   0  0  0  0  0  0  0  0  0  0  0  0
  147.1129  136.7169  162.8916 C   0  0  0  0  0  0  0  0  0  0  0  0
  147.5819  135.3941  163.0010 C   0  0  0  0  0  0  0  0  0  0  0  0
  146.7158  134.3167  162.7343 C   0  0  0  0  0  0  0  0  0  0  0  0
  145.3839  134.5619  162.3470 C   0  0  0  0  0  0  0  0  0  0  0  0
  143.6376  133.8579  159.1538 N   0  0  0  0  0  0  0  0  0  0  0  0
  144.5011  133.4063  158.2409 C   0  0  0  0  0  0  0  0  0  0  0  0
  145.5606  134.0267  157.7173 N   0  0  0  0  0  0  0  0  0  0  0  0
  145.7199  135.2863  158.2201 C   0  0  0  0  0  0  0  0  0  0  0  0
  148.9481  135.1681  157.4465 C   0  0  2  0  0  0  0  0  0  0  0  0
  148.8422  134.7874  158.8078 O   0  0  0  0  0  0  0  0  0  0  0  0
  150.2084  135.9888  157.2198 C   0  0  1  0  0  0  0  0  0  0  0  0
  150.6354  135.8212  155.9664 F   0  0  0  0  0  0  0  0  0  0  0  0
  151.6620  141.5265  158.5953 C   0  0  0  0  0  0  0  0  0  0  0  0
  152.3329  140.7950  159.6027 C   0  0  0  0  0  0  0  0  0  0  0  0
  152.9266  141.4577  160.6947 C   0  0  0  0  0  0  0  0  0  0  0  0
  152.8580  142.8599  160.7919 C   0  0  0  0  0  0  0  0  0  0  0  0
  152.1954  143.5994  159.7950 C   0  0  0  0  0  0  0  0  0  0  0  0
  151.6008  142.9383  158.7029 C   0  0  0  0  0  0  0  0  0  0  0  0
  150.1742  138.8684  155.8891 H   0  0  0  0  0  0  0  0  0  0  0  0
  151.5862  138.1640  156.6799 H   0  0  0  0  0  0  0  0  0  0  0  0
  149.5713  137.5717  158.4993 H   0  0  0  0  0  0  0  0  0  0  0  0
  147.3814  135.8195  156.0238 H   0  0  0  0  0  0  0  0  0  0  0  0
  146.9652  138.2210  158.7128 H   0  0  0  0  0  0  0  0  0  0  0  0
  141.9299  134.6805  162.9240 H   0  0  0  0  0  0  0  0  0  0  0  0
  140.2823  134.6349  164.7760 H   0  0  0  0  0  0  0  0  0  0  0  0
  137.9111  135.2595  164.3556 H   0  0  0  0  0  0  0  0  0  0  0  0
  137.1928  135.9506  162.0756 H   0  0  0  0  0  0  0  0  0  0  0  0
  138.8303  136.0009  160.2166 H   0  0  0  0  0  0  0  0  0  0  0  0
  145.4318  137.9826  162.4247 H   0  0  0  0  0  0  0  0  0  0  0  0
  147.7742  137.5438  163.1044 H   0  0  0  0  0  0  0  0  0  0  0  0
  148.6037  135.2059  163.2958 H   0  0  0  0  0  0  0  0  0  0  0  0
  147.0728  133.3016  162.8268 H   0  0  0  0  0  0  0  0  0  0  0  0
  144.7273  133.7271  162.1480 H   0  0  0  0  0  0  0  0  0  0  0  0
  144.3179  132.4057  157.8780 H   0  0  0  0  0  0  0  0  0  0  0  0
  148.9378  134.2640  156.8367 H   0  0  0  0  0  0  0  0  0  0  0  0
  147.9970  134.3871  158.9429 H   0  0  0  0  0  0  0  0  0  0  0  0
  151.0333  135.7232  157.8826 H   0  0  0  0  0  0  0  0  0  0  0  0
  152.3988  139.7178  159.5491 H   0  0  0  0  0  0  0  0  0  0  0  0
  153.4356  140.8888  161.4586 H   0  0  0  0  0  0  0  0  0  0  0  0
  153.3144  143.3674  161.6288 H   0  0  0  0  0  0  0  0  0  0  0  0
  152.1438  144.6761  159.8655 H   0  0  0  0  0  0  0  0  0  0  0  0
  151.1041  143.5361  157.9531 H   0  0  0  0  0  0  0  0  0  0  0  0
  1  2  2  0  0  0  0
  2  3  1  0  0  0  0
  2 38  1  0  0  0  0
  3  4  1  0  0  0  0
  4  5  1  0  0  0  0
  4 44  1  0  0  0  0
  4 45  1  0  0  0  0
  5 36  1  0  0  0  0
  5  6  1  0  0  0  0
  5 46  1  0  0  0  0
  6  7  1  0  0  0  0
  7  8  1  0  0  0  0
  7 34  1  0  0  0  0
  7 47  1  0  0  0  0
  8 33  1  0  0  0  0
  8  9  1  0  0  0  0
  9 10  2  0  0  0  0
  9 48  1  0  0  0  0
 10 11  1  0  0  0  0
 11 33  2  0  0  0  0
 11 12  1  0  0  0  0
 12 13  1  0  0  0  0
 12 30  2  0  0  0  0
 13 14  1  0  0  0  0
 13 22  1  0  0  0  0
 14 15  2  0  0  0  0
 14 16  1  0  0  0  0
 16 21  1  0  0  0  0
 16 17  2  0  0  0  0
 17 18  1  0  0  0  0
 17 49  1  0  0  0  0
 18 19  2  0  0  0  0
 18 50  1  0  0  0  0
 19 20  1  0  0  0  0
 19 51  1  0  0  0  0
 20 21  2  0  0  0  0
 20 52  1  0  0  0  0
 21 53  1  0  0  0  0
 22 23  2  0  0  0  0
 22 24  1  0  0  0  0
 24 29  1  0  0  0  0
 24 25  2  0  0  0  0
 25 26  1  0  0  0  0
 25 54  1  0  0  0  0
 26 27  2  0  0  0  0
 26 55  1  0  0  0  0
 27 28  1  0  0  0  0
 27 56  1  0  0  0  0
 28 29  2  0  0  0  0
 28 57  1  0  0  0  0
 29 58  1  0  0  0  0
 30 31  1  0  0  0  0
 31 32  2  0  0  0  0
 31 59  1  0  0  0  0
 32 33  1  0  0  0  0
 34 35  1  0  0  0  0
 34 36  1  0  0  0  0
 34 60  1  0  0  0  0
 35 61  1  0  0  0  0
 36 37  1  0  0  0  0
 36 62  1  0  0  0  0
 38 43  1  0  0  0  0
 38 39  2  0  0  0  0
 39 40  1  0  0  0  0
 39 63  1  0  0  0  0
 40 41  2  0  0  0  0
 40 64  1  0  0  0  0
 41 42  1  0  0  0  0
 41 65  1  0  0  0  0
 42 43  2  0  0  0  0
 42 66  1  0  0  0  0
 43 67  1  0  0  0  0
M  END
> <s_m_source_file>
AV-unprocessed.smi

> <i_m_source_file_index>
33

> <i_lp_mmshare_version>
43012

> <i_f3d_flags>
0

> <s_epik_input>
W2NIXTFbY0hdW2NIXVtjSF1bY0hdYzFDKD1PKU9bQ0gyXVtDQEBIXTJPW0NASF0oW0NAQEhdKFtPSF0pW0NAQEhdMkYpbihbY0hdbjMpYyhjMzQpbltjSF1uYzROKEMoPU8pYzVbY0hdW2NIXVtjSF1bY0hdW2NIXTUpQyg9TyljNltjSF1bY0hdW2NIXVtjSF1bY0hdNg==

> <s_epik_cmdline>
J2VwaWtfcHl0aG9uJywgJy1waCcsICc3LjAnLCAnLXRuJywgJzgnLCAnLW1hJywgJzIwMCcsICctbWV0YWxfYmluZGluZycsICctaW1hZScsICc8aW5maWxlLm1hZT4nLCAnLW9tYWUnLCAnPG91dGZpbGUubWFlPic=

> <r_lp_tautomer_probability>
1

> <r_epik_Ionization_Penalty>
0.00067664

> <r_epik_Ionization_Penalty_Charging>
0

> <r_epik_Ionization_Penalty_Neutral>
0.00067664

> <r_epik_State_Penalty>
0.000428095

> <r_epik_Charging_Adjusted_Penalty>
0.000428095

> <i_epik_Tot_Q>
0

> <i_epik_Tot_abs_Q>
0

> <r_epik_Metal_State_Penalty>
-0

> <b_epik_Metal_Only>
0

> <s_epik_Chemistry_Notes>
This compound has an ester and may undergo hydrolysis at high or low pH. This compound contains an acetal/aminal-like group ( X-CH(R)-Y where X, Y are N, S, or O) that may be acid/base labile, releasing an aldehyde.

> <s_lp_Force_Field>
OPLS_2005

> <r_lp_Energy>
71.2242

> <b_lp_Chiralities_Consistent>
1

> <s_lp_Variant>
AV-unprocessed.smi:33-16

> <Gold.Version>
5.8.1

> <Gold.Id.Protein>
6NUR|6NUR_protein|mol2

> <Gold.PLP.Fitness>
60.7458

> <Gold.PLP.PLP>
-58.7284

> <Gold.PLP.part.hbond>
-3.1367

> <Gold.PLP.part.metal>
0.0000

> <Gold.PLP.part.buried>
-7.8438

> <Gold.PLP.part.nonpolar>
-47.3430

> <Gold.PLP.part.repulsive>
0.1297

> <Gold.PLP.ligand.clash>
0.0000

> <Gold.PLP.ligand.torsion>
4.1128

> <Gold.PLP.Chemscore.Hbond>
2.0000

> <Gold.PLP.Chemscore.CHOScore>
0.0000

> <Gold.PLP.Chemscore.Metal>
0.0000

> <Gold.Chemscore.Hbonds>
donor molecule, donor type, donor heavy atom, donor atom, acceptor molecule, acceptor atom, score
      P1  H  6896  6907       L1    35  0.95
      P1  H 11000 11005       L1    15  1.00

> <Gold.PLP.Chemscore.Internal.Correction>
4.2431

> <Gold.Rescore>
     Score         DG    S(hbond)    S(metal)    S(lipo)     H(rot)  DE(clash)    DE(int)     intcor
     14.65     -22.97       1.91        0.00     150.19       2.52       0.06       8.26       ----

> <Gold.Chemscore.Fitness>
14.6521

> <Gold.Chemscore.DG>
-22.9722

> <Gold.Chemscore.ZeroCoef>
-5.4800

> <Gold.Chemscore.Hbond>
1.9111

> <Gold.Chemscore.Metal>
0.0000

> <Gold.Chemscore.Lipo>
150.1911

> <Gold.Chemscore.Internal_Hbond>
0.0000

> <Gold.Chemscore.DEClash>
0.0604

> <Gold.Chemscore.DEInternal>
8.2597

> <Gold.Chemscore.Rot>
2.5247

> <Gold.Chemscore.Internal.Correction>
   9.000000E+99

> <Gold.Chemscore.Hbonds>
donor molecule, donor type, donor heavy atom, donor atom, acceptor molecule, acceptor atom, score
      P1  H  6896  6907       L1    35  0.60
      P1  H 11000 11005       L1    15  1.00

> <Gold.Chemscore.Hbond.Weighted>
-6.3831

> <Gold.Chemscore.Metal.Weighted>
-0.0000

> <Gold.Chemscore.Lipo.Weighted>
-17.5724

> <Gold.Chemscore.Internal_Hbond.Weighted>
0.0000

> <Gold.Chemscore.DEClash.Weighted>
0.0604

> <Gold.Chemscore.DEInternal.Weighted>
8.2597

> <Gold.Chemscore.Rot.Weighted>
6.4633

> <Gold.Chemscore.Internal.Correction.Weighted>
   9.000000E+99

> <Gold.Protein.RotatedTorsions>
[ 6907 6896 6895 6894 ] final  -61.68 input  -60.11 | X-H torsion
[ 7974 7965 7964 7962 ] final    7.92 input  175.53 | X-H torsion
[ 8008 7997 7996 7995 ] final  -91.09 input   59.86 | X-H torsion
[ 10167 10162 10161 10158 ] final  130.70 input  -65.29 | X-H torsion
[ 10718 10713 10712 10709 ] final -175.21 input   66.30 | X-H torsion
[ 10763 10752 10751 10750 ] final   71.86 input  -60.55 | X-H torsion
[ 11005 11000 10999 10996 ] final -151.82 input  -57.11 | X-H torsion

> <Gold.Protein.ActiveResidues>
 VAL166  LYS551  ARG553  GLY616  TRP617  ASP618  TYR619  PRO620  LYS621  CYS622 
 ASP623  PHE694  ASN695  SER759  ASP760  ASP761  ALA762  ILE779  LEU786  VAL792 
 PHE793  MET794  SER795  GLU796  ALA797  LYS798  CYS799  TRP800  GLU811  SER814 

> <Gold.Protein.RotatedAtoms>
  150.7767  134.6672  159.6371 H   0  0  0  0  0  0  0  0  0  0  0  0  # atno 6907 bound_to 6896
  152.3840  134.6544  160.0141 H   0  0  0  0  0  0  0  0  0  0  0  0  # atno 6908 bound_to 6896
  151.6865  133.3275  159.3268 H   0  0  0  0  0  0  0  0  0  0  0  0  # atno 6909 bound_to 6896
  146.2422  140.0011  142.8416 H   0  0  0  0  0  0  0  0  0  0  0  0  # atno 7974 bound_to 7965
  154.7065  140.0523  157.0509 H   0  0  0  0  0  0  0  0  0  0  0  0  # atno 8008 bound_to 7997
  155.0613  140.3189  155.4641 H   0  0  0  0  0  0  0  0  0  0  0  0  # atno 8009 bound_to 7997
  156.2776  140.2098  156.5740 H   0  0  0  0  0  0  0  0  0  0  0  0  # atno 8010 bound_to 7997
  139.5418  144.6737  151.4601 H   0  0  0  0  0  0  0  0  0  0  0  0  # atno 10167 bound_to 10162
  156.7965  130.9537  151.3119 H   0  0  0  0  0  0  0  0  0  0  0  0  # atno 10718 bound_to 10713
  153.0424  135.5121  154.7657 H   0  0  0  0  0  0  0  0  0  0  0  0  # atno 10763 bound_to 10752
  154.6584  135.2935  154.9900 H   0  0  0  0  0  0  0  0  0  0  0  0  # atno 10764 bound_to 10752
  154.0760  135.6671  153.4883 H   0  0  0  0  0  0  0  0  0  0  0  0  # atno 10765 bound_to 10752
  140.7255  134.3679  157.5176 H   0  0  0  0  0  0  0  0  0  0  0  0  # atno 11005 bound_to 11000
  145.1414  140.9573  143.4486 LP  0  0  0  0  0  0  0  0  0  0  0  0  # atno 17320 bound_to 7965
  145.0292  139.3356  143.6033 LP  0  0  0  0  0  0  0  0  0  0  0  0  # atno 17321 bound_to 7965
  140.6650  143.8416  150.6932 LP  0  0  0  0  0  0  0  0  0  0  0  0  # atno 17342 bound_to 10162
  140.1823  143.4105  152.1924 LP  0  0  0  0  0  0  0  0  0  0  0  0  # atno 17343 bound_to 10162
  157.6575  130.8937  149.9759 LP  0  0  0  0  0  0  0  0  0  0  0  0  # atno 17370 bound_to 10713
  156.1127  130.3649  150.0021 LP  0  0  0  0  0  0  0  0  0  0  0  0  # atno 17371 bound_to 10713
  139.8838  134.8983  156.2743 LP  0  0  0  0  0  0  0  0  0  0  0  0  # atno 17394 bound_to 11000
  140.9966  133.7176  156.0896 LP  0  0  0  0  0  0  0  0  0  0  0  0  # atno 17395 bound_to 11000

$$$$
