AV-unprocessed.smi:1420|AV-procd|sdf|5787|dock7
  -GOLD-   22720 5433D 1   1.00000     0.00000
 Structure written by MMmdl.
 38 39  0  0  0  0  0  0  0  0  1 V2000
  149.6343  140.7960  157.2701 C   0  0  0  0  0  0  0  0  0  0  0  0
  150.3568  140.3817  158.5775 C   0  0  1  0  0  0  0  0  0  0  0  0
  150.5213  138.8336  158.5901 C   0  0  0  0  0  0  0  0  0  0  0  0
  149.2703  138.1189  158.8272 N   0  0  0  0  0  0  0  0  0  0  0  0
  149.1599  136.7925  159.0010 C   0  0  0  0  0  0  0  0  0  0  0  0
  150.1197  136.0226  158.9754 O   0  0  0  0  0  0  0  0  0  0  0  0
  147.7515  136.2507  159.2486 C   0  0  0  0  0  0  0  0  0  0  0  0
  147.4948  136.0799  160.6676 N   0  0  0  0  0  0  0  0  0  0  0  0
  147.2246  134.9148  161.3554 C   0  0  0  0  0  0  0  0  0  0  0  0
  147.0509  135.2485  162.6680 C   0  0  0  0  0  0  0  0  0  0  0  0
  147.2363  136.6593  162.6858 C   0  0  0  0  0  0  0  0  0  0  0  0
  147.5015  137.1543  161.4875 N   0  0  0  0  0  0  0  0  0  0  0  0
  151.6311  141.1092  158.7833 N   0  0  0  0  0  0  0  0  0  0  0  0
  151.4318  142.5529  158.9567 C   0  0  0  0  0  0  0  0  0  0  0  0
  152.7465  143.3141  159.2000 C   0  0  0  0  0  0  0  0  0  0  0  0
  153.4071  142.7755  160.3366 O   0  0  0  0  0  0  0  0  0  0  0  0
  153.6918  141.3926  160.1811 C   0  0  0  0  0  0  0  0  0  0  0  0
  152.3850  140.6160  159.9421 C   0  0  0  0  0  0  0  0  0  0  0  0
  148.7260  140.2206  157.0955 H   0  0  0  0  0  0  0  0  0  0  0  0
  150.2804  140.6591  156.4023 H   0  0  0  0  0  0  0  0  0  0  0  0
  149.3102  141.8356  157.2890 H   0  0  0  0  0  0  0  0  0  0  0  0
  149.6908  140.6407  159.4020 H   0  0  0  0  0  0  0  0  0  0  0  0
  150.9285  138.4965  157.6364 H   0  0  0  0  0  0  0  0  0  0  0  0
  151.2196  138.5003  159.3563 H   0  0  0  0  0  0  0  0  0  0  0  0
  148.4264  138.6730  158.8606 H   0  0  0  0  0  0  0  0  0  0  0  0
  147.0096  136.9383  158.8403 H   0  0  0  0  0  0  0  0  0  0  0  0
  147.6228  135.2974  158.7332 H   0  0  0  0  0  0  0  0  0  0  0  0
  147.1779  133.9572  160.8577 H   0  0  0  0  0  0  0  0  0  0  0  0
  146.8258  134.5858  163.4905 H   0  0  0  0  0  0  0  0  0  0  0  0
  147.1864  137.3335  163.5282 H   0  0  0  0  0  0  0  0  0  0  0  0
  150.9733  142.9864  158.0701 H   0  0  0  0  0  0  0  0  0  0  0  0
  150.7498  142.7349  159.7887 H   0  0  0  0  0  0  0  0  0  0  0  0
  153.3973  143.2516  158.3264 H   0  0  0  0  0  0  0  0  0  0  0  0
  152.5449  144.3711  159.3738 H   0  0  0  0  0  0  0  0  0  0  0  0
  154.3856  141.2461  159.3516 H   0  0  0  0  0  0  0  0  0  0  0  0
  154.1883  141.0291  161.0809 H   0  0  0  0  0  0  0  0  0  0  0  0
  151.7637  140.6685  160.8376 H   0  0  0  0  0  0  0  0  0  0  0  0
  152.6615  139.5725  159.8086 H   0  0  0  0  0  0  0  0  0  0  0  0
  1  2  1  0  0  0  0
  1 19  1  0  0  0  0
  1 20  1  0  0  0  0
  1 21  1  0  0  0  0
  2  3  1  0  0  0  0
  2 13  1  0  0  0  0
  2 22  1  0  0  0  0
  3  4  1  0  0  0  0
  3 23  1  0  0  0  0
  3 24  1  0  0  0  0
  4  5  1  0  0  0  0
  4 25  1  0  0  0  0
  5  6  2  0  0  0  0
  5  7  1  0  0  0  0
  7  8  1  0  0  0  0
  7 26  1  0  0  0  0
  7 27  1  0  0  0  0
  8 12  1  0  0  0  0
  8  9  1  0  0  0  0
  9 10  2  0  0  0  0
  9 28  1  0  0  0  0
 10 11  1  0  0  0  0
 10 29  1  0  0  0  0
 11 12  2  0  0  0  0
 11 30  1  0  0  0  0
 13 18  1  0  0  0  0
 13 14  1  0  0  0  0
 14 15  1  0  0  0  0
 14 31  1  0  0  0  0
 14 32  1  0  0  0  0
 15 16  1  0  0  0  0
 15 33  1  0  0  0  0
 15 34  1  0  0  0  0
 16 17  1  0  0  0  0
 17 18  1  0  0  0  0
 17 35  1  0  0  0  0
 17 36  1  0  0  0  0
 18 37  1  0  0  0  0
 18 38  1  0  0  0  0
M  END
> <s_m_source_file>
AV-unprocessed.smi

> <i_m_source_file_index>
1420

> <i_lp_mmshare_version>
43012

> <i_f3d_flags>
0

> <s_epik_input>
W0NIMl0xW0NIMl1PW0NIMl1bQ0gyXU4xW0NASF0oW0NIM10pW0NIMl1bTkhdQyg9TylbQ0gyXW4yW2NIXVtjSF1bY0hdbjI=

> <s_epik_cmdline>
J2VwaWtfcHl0aG9uJywgJy1waCcsICc3LjAnLCAnLXRuJywgJzgnLCAnLW1hJywgJzIwMCcsICctbWV0YWxfYmluZGluZycsICctaW1hZScsICc8aW5maWxlLm1hZT4nLCAnLW9tYWUnLCAnPG91dGZpbGUubWFlPic=

> <r_lp_tautomer_probability>
1

> <r_epik_Ionization_Penalty>
0.196927

> <r_epik_Ionization_Penalty_Charging>
0

> <r_epik_Ionization_Penalty_Neutral>
0.196927

> <r_epik_State_Penalty>
0.186684

> <r_epik_Charging_Adjusted_Penalty>
0.186684

> <i_epik_Tot_Q>
0

> <i_epik_Tot_abs_Q>
0

> <r_epik_Metal_State_Penalty>
0.186682

> <b_epik_Metal_Only>
0

> <s_lp_Force_Field>
OPLS_2005

> <r_lp_Energy>
28.9216

> <b_lp_Chiralities_Consistent>
1

> <s_lp_Variant>
AV-unprocessed.smi:1420-2

> <Gold.Version>
5.8.1

> <Gold.Id.Protein>
6NUR|6NUR_protein|mol2

> <Gold.PLP.Fitness>
42.4438

> <Gold.PLP.PLP>
-35.2523

> <Gold.PLP.part.hbond>
-3.0000

> <Gold.PLP.part.metal>
0.0000

> <Gold.PLP.part.buried>
-5.5832

> <Gold.PLP.part.nonpolar>
-27.4096

> <Gold.PLP.part.repulsive>
0.2114

> <Gold.PLP.ligand.clash>
0.0000

> <Gold.PLP.ligand.torsion>
0.5361

> <Gold.PLP.Chemscore.Hbond>
2.7363

> <Gold.PLP.Chemscore.CHOScore>
0.0000

> <Gold.PLP.Chemscore.Metal>
0.0000

> <Gold.Chemscore.Hbonds>
donor molecule, donor type, donor heavy atom, donor atom, acceptor molecule, acceptor atom, score
      P1  H  6896  6907       L1     6  1.00
      P1  H  6931  6943       L1    12  0.96
      P1  H  6934  6947       L1    12  0.86

> <Gold.PLP.Chemscore.Internal.Correction>
0.0547

> <Gold.Rescore>
     Score         DG    S(hbond)    S(metal)    S(lipo)     H(rot)  DE(clash)    DE(int)     intcor
     16.95     -17.55       2.34        0.00      77.29       1.87       0.00       0.60       ----

> <Gold.Chemscore.Fitness>
16.9540

> <Gold.Chemscore.DG>
-17.5503

> <Gold.Chemscore.ZeroCoef>
-5.4800

> <Gold.Chemscore.Hbond>
2.3372

> <Gold.Chemscore.Metal>
0.0000

> <Gold.Chemscore.Lipo>
77.2919

> <Gold.Chemscore.Internal_Hbond>
0.0000

> <Gold.Chemscore.DEClash>
0.0000

> <Gold.Chemscore.DEInternal>
0.5963

> <Gold.Chemscore.Rot>
1.8669

> <Gold.Chemscore.Internal.Correction>
   9.000000E+99

> <Gold.Chemscore.Hbonds>
donor molecule, donor type, donor heavy atom, donor atom, acceptor molecule, acceptor atom, score
      P1  H  6896  6907       L1     6  0.95
      P1  H  6931  6943       L1    12  0.23
      P1  H  6934  6947       L1    12  0.83

> <Gold.Chemscore.Hbond.Weighted>
-7.8064

> <Gold.Chemscore.Metal.Weighted>
-0.0000

> <Gold.Chemscore.Lipo.Weighted>
-9.0432

> <Gold.Chemscore.Internal_Hbond.Weighted>
0.0000

> <Gold.Chemscore.DEClash.Weighted>
0.0000

> <Gold.Chemscore.DEInternal.Weighted>
0.5963

> <Gold.Chemscore.Rot.Weighted>
4.7792

> <Gold.Chemscore.Internal.Correction.Weighted>
   9.000000E+99

> <Gold.Protein.RotatedTorsions>
[ 6907 6896 6895 6894 ] final  -55.23 input  -60.11 | X-H torsion
[ 7974 7965 7964 7962 ] final   57.02 input  175.53 | X-H torsion
[ 8008 7997 7996 7995 ] final  -51.58 input   59.86 | X-H torsion
[ 10167 10162 10161 10158 ] final   25.46 input  -65.29 | X-H torsion
[ 10718 10713 10712 10709 ] final   89.83 input   66.30 | X-H torsion
[ 10763 10752 10751 10750 ] final  -14.59 input  -60.55 | X-H torsion
[ 11005 11000 10999 10996 ] final   15.11 input  -57.11 | X-H torsion

> <Gold.Protein.ActiveResidues>
 VAL166  LYS551  ARG553  GLY616  TRP617  ASP618  TYR619  PRO620  LYS621  CYS622 
 ASP623  PHE694  ASN695  SER759  ASP760  ASP761  ALA762  ILE779  LEU786  VAL792 
 PHE793  MET794  SER795  GLU796  ALA797  LYS798  CYS799  TRP800  GLU811  SER814 

> <Gold.Protein.RotatedAtoms>
  150.8270  134.7505  159.6820 H   0  0  0  0  0  0  0  0  0  0  0  0  # atno 6907 bound_to 6896
  152.4379  134.5646  159.9913 H   0  0  0  0  0  0  0  0  0  0  0  0  # atno 6908 bound_to 6896
  151.5816  133.3339  159.3045 H   0  0  0  0  0  0  0  0  0  0  0  0  # atno 6909 bound_to 6896
  145.9335  139.3828  143.0406 H   0  0  0  0  0  0  0  0  0  0  0  0  # atno 7974 bound_to 7965
  154.4086  140.1244  156.4852 H   0  0  0  0  0  0  0  0  0  0  0  0  # atno 8008 bound_to 7997
  155.7045  140.3494  155.4928 H   0  0  0  0  0  0  0  0  0  0  0  0  # atno 8009 bound_to 7997
  155.9355  140.1077  157.1088 H   0  0  0  0  0  0  0  0  0  0  0  0  # atno 8010 bound_to 7997
  140.5104  144.0169  150.6370 H   0  0  0  0  0  0  0  0  0  0  0  0  # atno 10167 bound_to 10162
  157.6957  131.0348  150.3485 H   0  0  0  0  0  0  0  0  0  0  0  0  # atno 10718 bound_to 10713
  153.5306  135.7014  153.5685 H   0  0  0  0  0  0  0  0  0  0  0  0  # atno 10763 bound_to 10752
  153.3694  135.3948  155.1777 H   0  0  0  0  0  0  0  0  0  0  0  0  # atno 10764 bound_to 10752
  154.8685  135.3808  154.4802 H   0  0  0  0  0  0  0  0  0  0  0  0  # atno 10765 bound_to 10752
  140.4619  134.1118  155.7718 H   0  0  0  0  0  0  0  0  0  0  0  0  # atno 11005 bound_to 11000
  145.8394  140.9588  143.0807 LP  0  0  0  0  0  0  0  0  0  0  0  0  # atno 17320 bound_to 7965
  144.6768  140.0265  143.7483 LP  0  0  0  0  0  0  0  0  0  0  0  0  # atno 17321 bound_to 7965
  140.3490  143.2974  152.0507 LP  0  0  0  0  0  0  0  0  0  0  0  0  # atno 17342 bound_to 10162
  139.4894  144.6387  151.6921 LP  0  0  0  0  0  0  0  0  0  0  0  0  # atno 17343 bound_to 10162
  156.3936  130.3902  149.7011 LP  0  0  0  0  0  0  0  0  0  0  0  0  # atno 17370 bound_to 10713
  156.4353  130.7835  151.2855 LP  0  0  0  0  0  0  0  0  0  0  0  0  # atno 17371 bound_to 10713
  141.1617  133.8780  157.1829 LP  0  0  0  0  0  0  0  0  0  0  0  0  # atno 17394 bound_to 11000
  139.9940  135.0054  157.0039 LP  0  0  0  0  0  0  0  0  0  0  0  0  # atno 17395 bound_to 11000

$$$$
