AV-unprocessed.smi:607|AV-procd|sdf|3042|dock6
  -GOLD-   2262023563D 1   1.00000     0.00000
 Structure written by MMmdl.
 42 43  0  0  0  0  0  0  0  0  1 V2000
  152.9240  138.4228  154.5779 C   0  0  0  0  0  0  0  0  0  0  0  0
  152.0259  139.1458  155.5405 C   0  0  0  0  0  0  0  0  0  0  0  0
  152.5641  139.8380  156.5296 N   0  0  0  0  0  0  0  0  0  0  0  0
  151.5150  140.3528  157.1993 N   0  0  0  0  0  0  0  0  0  0  0  0
  151.7568  141.1766  158.3679 C   0  0  0  0  0  0  0  0  0  0  0  0
  150.3097  139.9905  156.6291 C   0  0  0  0  0  0  0  0  0  0  0  0
  149.0022  140.4422  157.2009 C   0  0  0  0  0  0  0  0  0  0  0  0
  150.6002  139.1933  155.5491 C   0  0  0  0  0  0  0  0  0  0  0  0
  149.6723  138.5015  154.5692 C   0  0  2  0  0  0  0  0  0  0  0  0
  148.6278  139.4781  153.9975 C   0  0  0  0  0  0  0  0  0  0  0  0
  149.0482  137.2543  155.2175 C   0  0  0  0  0  0  0  0  0  0  0  0
  148.3702  137.3458  156.2412 O   0  0  0  0  0  0  0  0  0  0  0  0
  149.2974  136.0830  154.6086 N   0  0  0  0  0  0  0  0  0  0  0  0
  148.8896  134.7629  155.0858 C   0  0  0  0  0  0  0  0  0  0  0  0
  149.3279  134.5246  156.4750 C   0  0  0  0  0  0  0  0  0  0  0  0
  149.6702  134.3369  157.5643 N   0  0  0  0  0  0  0  0  0  0  0  0
  147.3722  134.5399  154.9365 C   0  0  0  0  0  0  0  0  0  0  0  0
  147.1716  133.0430  154.6594 C   0  0  0  0  0  0  0  0  0  0  0  0
  148.5575  132.4717  154.3397 C   0  0  0  0  0  0  0  0  0  0  0  0
  149.4716  133.6847  154.1627 C   0  0  0  0  0  0  0  0  0  0  0  0
  152.8070  137.3432  154.6732 H   0  0  0  0  0  0  0  0  0  0  0  0
  153.9751  138.6587  154.7481 H   0  0  0  0  0  0  0  0  0  0  0  0
  152.6888  138.6934  153.5484 H   0  0  0  0  0  0  0  0  0  0  0  0
  151.1176  140.8495  159.1883 H   0  0  0  0  0  0  0  0  0  0  0  0
  151.5332  142.2177  158.1337 H   0  0  0  0  0  0  0  0  0  0  0  0
  152.7981  141.0998  158.6845 H   0  0  0  0  0  0  0  0  0  0  0  0
  148.1969  140.3575  156.4729 H   0  0  0  0  0  0  0  0  0  0  0  0
  149.0486  141.4846  157.5154 H   0  0  0  0  0  0  0  0  0  0  0  0
  148.7334  139.8380  158.0675 H   0  0  0  0  0  0  0  0  0  0  0  0
  150.2461  138.1297  153.7197 H   0  0  0  0  0  0  0  0  0  0  0  0
  148.0025  139.9111  154.7784 H   0  0  0  0  0  0  0  0  0  0  0  0
  147.9710  138.9831  153.2812 H   0  0  0  0  0  0  0  0  0  0  0  0
  149.1157  140.3010  153.4746 H   0  0  0  0  0  0  0  0  0  0  0  0
  149.8628  136.1043  153.7724 H   0  0  0  0  0  0  0  0  0  0  0  0
  146.8153  134.8721  155.8136 H   0  0  0  0  0  0  0  0  0  0  0  0
  146.9914  135.1058  154.0846 H   0  0  0  0  0  0  0  0  0  0  0  0
  146.7448  132.5382  155.5267 H   0  0  0  0  0  0  0  0  0  0  0  0
  146.4828  132.8976  153.8266 H   0  0  0  0  0  0  0  0  0  0  0  0
  148.9067  131.8718  155.1808 H   0  0  0  0  0  0  0  0  0  0  0  0
  148.5505  131.8290  153.4589 H   0  0  0  0  0  0  0  0  0  0  0  0
  149.4253  134.0128  153.1227 H   0  0  0  0  0  0  0  0  0  0  0  0
  150.5145  133.4556  154.3855 H   0  0  0  0  0  0  0  0  0  0  0  0
  1  2  1  0  0  0  0
  1 21  1  0  0  0  0
  1 22  1  0  0  0  0
  1 23  1  0  0  0  0
  2  8  1  0  0  0  0
  2  3  2  0  0  0  0
  3  4  1  0  0  0  0
  4  5  1  0  0  0  0
  4  6  1  0  0  0  0
  5 24  1  0  0  0  0
  5 25  1  0  0  0  0
  5 26  1  0  0  0  0
  6  7  1  0  0  0  0
  6  8  2  0  0  0  0
  7 27  1  0  0  0  0
  7 28  1  0  0  0  0
  7 29  1  0  0  0  0
  8  9  1  0  0  0  0
  9 10  1  0  0  0  0
  9 11  1  0  0  0  0
  9 30  1  0  0  0  0
 10 31  1  0  0  0  0
 10 32  1  0  0  0  0
 10 33  1  0  0  0  0
 11 12  2  0  0  0  0
 11 13  1  0  0  0  0
 13 14  1  0  0  0  0
 13 34  1  0  0  0  0
 14 20  1  0  0  0  0
 14 15  1  0  0  0  0
 14 17  1  0  0  0  0
 15 16  3  0  0  0  0
 17 18  1  0  0  0  0
 17 35  1  0  0  0  0
 17 36  1  0  0  0  0
 18 19  1  0  0  0  0
 18 37  1  0  0  0  0
 18 38  1  0  0  0  0
 19 20  1  0  0  0  0
 19 39  1  0  0  0  0
 19 40  1  0  0  0  0
 20 41  1  0  0  0  0
 20 42  1  0  0  0  0
M  END
> <s_m_source_file>
AV-unprocessed.smi

> <i_m_source_file_index>
607

> <i_lp_mmshare_version>
43012

> <i_f3d_flags>
0

> <s_epik_input>
W0NIM11jMW5uKFtDSDNdKWMoW0NIM10pYzFbQ0BIXShbQ0gzXSlDKD1PKVtOSF1DMihDI04pW0NIMl1bQ0gyXVtDSDJdW0NIMl0y

> <s_epik_cmdline>
J2VwaWtfcHl0aG9uJywgJy1waCcsICc3LjAnLCAnLXRuJywgJzgnLCAnLW1hJywgJzIwMCcsICctbWV0YWxfYmluZGluZycsICctaW1hZScsICc8aW5maWxlLm1hZT4nLCAnLW9tYWUnLCAnPG91dGZpbGUubWFlPic=

> <r_lp_tautomer_probability>
1

> <r_epik_Ionization_Penalty>
0.00342632

> <r_epik_Ionization_Penalty_Charging>
0

> <r_epik_Ionization_Penalty_Neutral>
0.00342632

> <r_epik_State_Penalty>
0.00242724

> <r_epik_Charging_Adjusted_Penalty>
0.00242724

> <i_epik_Tot_Q>
0

> <i_epik_Tot_abs_Q>
0

> <r_epik_Metal_State_Penalty>
-0

> <b_epik_Metal_Only>
0

> <s_lp_Force_Field>
OPLS_2005

> <r_lp_Energy>
13.4407

> <b_lp_Chiralities_Consistent>
1

> <s_lp_Variant>
AV-unprocessed.smi:607-1

> <Gold.Version>
5.8.1

> <Gold.Id.Protein>
6NUR|6NUR_protein|mol2

> <Gold.PLP.Fitness>
35.1824

> <Gold.PLP.PLP>
-28.4690

> <Gold.PLP.part.hbond>
-3.0000

> <Gold.PLP.part.metal>
0.0000

> <Gold.PLP.part.buried>
-4.2375

> <Gold.PLP.part.nonpolar>
-21.6522

> <Gold.PLP.part.repulsive>
0.0368

> <Gold.PLP.ligand.clash>
0.0000

> <Gold.PLP.ligand.torsion>
0.4369

> <Gold.PLP.Chemscore.Hbond>
2.4928

> <Gold.PLP.Chemscore.CHOScore>
0.0000

> <Gold.PLP.Chemscore.Metal>
0.0000

> <Gold.Chemscore.Hbonds>
donor molecule, donor type, donor heavy atom, donor atom, acceptor molecule, acceptor atom, score
      L1  H    13    34       P1  7948  0.35
      P1  H  6896  6908       L1    16  0.96
      P1  H  7997  8010       L1     3  1.00

> <Gold.PLP.Chemscore.Internal.Correction>
0.1089

> <Gold.Rescore>
     Score         DG    S(hbond)    S(metal)    S(lipo)     H(rot)  DE(clash)    DE(int)     intcor
     16.10     -16.56       1.94        0.00      69.24       1.37       0.06       0.39       ----

> <Gold.Chemscore.Fitness>
16.1049

> <Gold.Chemscore.DG>
-16.5553

> <Gold.Chemscore.ZeroCoef>
-5.4800

> <Gold.Chemscore.Hbond>
1.9419

> <Gold.Chemscore.Metal>
0.0000

> <Gold.Chemscore.Lipo>
69.2432

> <Gold.Chemscore.Internal_Hbond>
0.0000

> <Gold.Chemscore.DEClash>
0.0620

> <Gold.Chemscore.DEInternal>
0.3884

> <Gold.Chemscore.Rot>
1.3720

> <Gold.Chemscore.Internal.Correction>
   9.000000E+99

> <Gold.Chemscore.Hbonds>
donor molecule, donor type, donor heavy atom, donor atom, acceptor molecule, acceptor atom, score
      L1  H    13    34       P1  7948  0.07
      P1  H  6896  6908       L1    16  0.87
      P1  H  7997  8010       L1     3  0.88

> <Gold.Chemscore.Hbond.Weighted>
-6.4861

> <Gold.Chemscore.Metal.Weighted>
-0.0000

> <Gold.Chemscore.Lipo.Weighted>
-8.1014

> <Gold.Chemscore.Internal_Hbond.Weighted>
0.0000

> <Gold.Chemscore.DEClash.Weighted>
0.0620

> <Gold.Chemscore.DEInternal.Weighted>
0.3884

> <Gold.Chemscore.Rot.Weighted>
3.5123

> <Gold.Chemscore.Internal.Correction.Weighted>
   9.000000E+99

> <Gold.Protein.RotatedTorsions>
[ 6907 6896 6895 6894 ] final  134.24 input  -60.11 | X-H torsion
[ 7974 7965 7964 7962 ] final    1.22 input  175.53 | X-H torsion
[ 8008 7997 7996 7995 ] final   77.65 input   59.86 | X-H torsion
[ 10167 10162 10161 10158 ] final -121.15 input  -65.29 | X-H torsion
[ 10718 10713 10712 10709 ] final   58.73 input   66.30 | X-H torsion
[ 10763 10752 10751 10750 ] final  -86.31 input  -60.55 | X-H torsion
[ 11005 11000 10999 10996 ] final -165.13 input  -57.11 | X-H torsion

> <Gold.Protein.ActiveResidues>
 VAL166  LYS551  ARG553  GLY616  TRP617  ASP618  TYR619  PRO620  LYS621  CYS622 
 ASP623  PHE694  ASN695  SER759  ASP760  ASP761  ALA762  ILE779  LEU786  VAL792 
 PHE793  MET794  SER795  GLU796  ALA797  LYS798  CYS799  TRP800  GLU811  SER814 

> <Gold.Protein.RotatedAtoms>
  152.3134  133.5777  159.5695 H   0  0  0  0  0  0  0  0  0  0  0  0  # atno 6907 bound_to 6896
  150.7334  134.0118  159.3681 H   0  0  0  0  0  0  0  0  0  0  0  0  # atno 6908 bound_to 6896
  151.8009  135.0709  160.0451 H   0  0  0  0  0  0  0  0  0  0  0  0  # atno 6909 bound_to 6896
  146.2439  140.1020  142.8347 H   0  0  0  0  0  0  0  0  0  0  0  0  # atno 7974 bound_to 7965
  155.8447  140.3461  155.5654 H   0  0  0  0  0  0  0  0  0  0  0  0  # atno 8008 bound_to 7997
  155.8103  140.0898  157.1927 H   0  0  0  0  0  0  0  0  0  0  0  0  # atno 8009 bound_to 7997
  154.4006  140.1449  156.3366 H   0  0  0  0  0  0  0  0  0  0  0  0  # atno 8010 bound_to 7997
  140.0281  143.5276  152.2189 H   0  0  0  0  0  0  0  0  0  0  0  0  # atno 10167 bound_to 10162
  157.5619  130.8842  149.9125 H   0  0  0  0  0  0  0  0  0  0  0  0  # atno 10718 bound_to 10713
  154.6210  135.5454  153.7575 H   0  0  0  0  0  0  0  0  0  0  0  0  # atno 10763 bound_to 10752
  153.0238  135.6413  154.1440 H   0  0  0  0  0  0  0  0  0  0  0  0  # atno 10764 bound_to 10752
  154.1374  135.2910  155.3149 H   0  0  0  0  0  0  0  0  0  0  0  0  # atno 10765 bound_to 10752
  140.5791  134.5160  157.5175 H   0  0  0  0  0  0  0  0  0  0  0  0  # atno 11005 bound_to 11000
  145.0560  140.9053  143.4967 LP  0  0  0  0  0  0  0  0  0  0  0  0  # atno 17320 bound_to 7965
  145.1126  139.2746  143.5629 LP  0  0  0  0  0  0  0  0  0  0  0  0  # atno 17321 bound_to 7965
  139.6094  144.7605  151.2986 LP  0  0  0  0  0  0  0  0  0  0  0  0  # atno 17342 bound_to 10162
  140.7314  143.6853  150.7967 LP  0  0  0  0  0  0  0  0  0  0  0  0  # atno 17343 bound_to 10162
  156.0671  130.3690  150.0855 LP  0  0  0  0  0  0  0  0  0  0  0  0  # atno 17370 bound_to 10713
  156.9018  130.9623  151.3575 LP  0  0  0  0  0  0  0  0  0  0  0  0  # atno 17371 bound_to 10713
  139.9325  134.7936  156.0890 LP  0  0  0  0  0  0  0  0  0  0  0  0  # atno 17394 bound_to 11000
  141.1007  133.6678  156.2749 LP  0  0  0  0  0  0  0  0  0  0  0  0  # atno 17395 bound_to 11000

$$$$
