AV-unprocessed.smi:3164|AV-procd|sdf|12084|dock5
  -GOLD-   2272017513D 1   1.00000     0.00000
 Structure written by MMmdl.
 39 40  0  0  0  0  0  0  0  0  2 V2000
  143.6878  132.3053  149.6064 C   0  0  0  0  0  0  0  0  0  0  0  0
  144.8788  133.0213  150.0384 N   0  0  0  0  0  0  0  0  0  0  0  0
  145.5654  132.3197  151.1151 C   0  0  0  0  0  0  0  0  0  0  0  0
  146.8165  133.0823  151.5822 C   0  0  0  0  0  0  0  0  0  0  0  0
  146.4526  134.4056  151.9652 O   0  0  0  0  0  0  0  0  0  0  0  0
  145.8295  135.1432  150.9162 C   0  0  2  0  0  0  0  0  0  0  0  0
  145.5153  136.5483  151.4512 C   0  0  0  0  0  0  0  0  0  0  0  0
  146.6931  137.4347  151.3675 N   0  3  0  0  0  0  0  0  0  0  0  0
  146.5314  138.7200  152.0767 C   0  0  0  0  0  0  0  0  0  0  0  0
  146.8391  138.5827  153.5763 C   0  0  0  0  0  0  0  0  0  0  0  0
  147.9086  139.5497  154.0536 C   0  0  0  0  0  0  0  0  0  0  0  0
  149.1586  139.0769  154.5083 C   0  0  0  0  0  0  0  0  0  0  0  0
  150.1125  140.0167  154.9450 C   0  0  0  0  0  0  0  0  0  0  0  0
  149.7805  141.3848  154.9129 C   0  0  0  0  0  0  0  0  0  0  0  0
  148.5048  141.7546  154.4423 C   0  0  0  0  0  0  0  0  0  0  0  0
  147.5829  140.8612  154.0219 N   0  0  0  0  0  0  0  0  0  0  0  0
  144.5671  134.3803  150.4603 C   0  0  0  0  0  0  0  0  0  0  0  0
  143.9440  131.3030  149.2613 H   0  0  0  0  0  0  0  0  0  0  0  0
  143.2015  132.8259  148.7809 H   0  0  0  0  0  0  0  0  0  0  0  0
  142.9671  132.2104  150.4200 H   0  0  0  0  0  0  0  0  0  0  0  0
  144.8889  132.1876  151.9611 H   0  0  0  0  0  0  0  0  0  0  0  0
  145.8508  131.3204  150.7845 H   0  0  0  0  0  0  0  0  0  0  0  0
  147.2733  132.5770  152.4332 H   0  0  0  0  0  0  0  0  0  0  0  0
  147.5658  133.1183  150.7899 H   0  0  0  0  0  0  0  0  0  0  0  0
  146.5345  135.2257  150.0864 H   0  0  0  0  0  0  0  0  0  0  0  0
  144.6790  136.9861  150.9042 H   0  0  0  0  0  0  0  0  0  0  0  0
  145.2114  136.4787  152.4966 H   0  0  0  0  0  0  0  0  0  0  0  0
  147.4862  136.9505  151.7643 H   0  0  0  0  0  0  0  0  0  0  0  0
  147.2007  139.4573  151.6321 H   0  0  0  0  0  0  0  0  0  0  0  0
  145.5137  139.0869  151.9356 H   0  0  0  0  0  0  0  0  0  0  0  0
  145.9283  138.7318  154.1581 H   0  0  0  0  0  0  0  0  0  0  0  0
  147.1695  137.5652  153.7895 H   0  0  0  0  0  0  0  0  0  0  0  0
  149.3857  138.0209  154.5214 H   0  0  0  0  0  0  0  0  0  0  0  0
  151.0809  139.6942  155.2983 H   0  0  0  0  0  0  0  0  0  0  0  0
  150.4872  142.1335  155.2394 H   0  0  0  0  0  0  0  0  0  0  0  0
  148.2167  142.7947  154.4035 H   0  0  0  0  0  0  0  0  0  0  0  0
  144.0910  134.9162  149.6384 H   0  0  0  0  0  0  0  0  0  0  0  0
  143.8431  134.3548  151.2765 H   0  0  0  0  0  0  0  0  0  0  0  0
  146.8848  137.6261  150.3945 H   0  0  0  0  0  0  0  0  0  0  0  0
  1  2  1  0  0  0  0
  1 18  1  0  0  0  0
  1 19  1  0  0  0  0
  1 20  1  0  0  0  0
  2 17  1  0  0  0  0
  2  3  1  0  0  0  0
  3  4  1  0  0  0  0
  3 21  1  0  0  0  0
  3 22  1  0  0  0  0
  4  5  1  0  0  0  0
  4 23  1  0  0  0  0
  4 24  1  0  0  0  0
  5  6  1  0  0  0  0
  6  7  1  0  0  0  0
  6 17  1  0  0  0  0
  6 25  1  0  0  0  0
  7  8  1  0  0  0  0
  7 26  1  0  0  0  0
  7 27  1  0  0  0  0
  8  9  1  0  0  0  0
  8 28  1  0  0  0  0
  8 39  1  0  0  0  0
  9 10  1  0  0  0  0
  9 29  1  0  0  0  0
  9 30  1  0  0  0  0
 10 11  1  0  0  0  0
 10 31  1  0  0  0  0
 10 32  1  0  0  0  0
 11 16  1  0  0  0  0
 11 12  2  0  0  0  0
 12 13  1  0  0  0  0
 12 33  1  0  0  0  0
 13 14  2  0  0  0  0
 13 34  1  0  0  0  0
 14 15  1  0  0  0  0
 14 35  1  0  0  0  0
 15 16  2  0  0  0  0
 15 36  1  0  0  0  0
 17 37  1  0  0  0  0
 17 38  1  0  0  0  0
M  CHG  1   8   1
M  END
> <s_m_source_file>
AV-unprocessed.smi

> <i_m_source_file_index>
3164

> <i_lp_mmshare_version>
43012

> <i_f3d_flags>
0

> <s_epik_input>
W0NIM11OMVtDSDJdW0NIMl1PW0NASF0oW0NIMl0xKVtDSDJdW05IXVtDSDJdW0NIMl1jMltjSF1bY0hdW2NIXVtjSF1uMg==

> <s_epik_cmdline>
J2VwaWtfcHl0aG9uJywgJy1waCcsICc3LjAnLCAnLXRuJywgJzgnLCAnLW1hJywgJzIwMCcsICctbWV0YWxfYmluZGluZycsICctaW1hZScsICc8aW5maWxlLm1hZT4nLCAnLW9tYWUnLCAnPG91dGZpbGUubWFlPic=

> <r_epik_Ionization_Penalty>
0.584284

> <r_epik_Ionization_Penalty_Charging>
0.00270218

> <r_epik_Ionization_Penalty_Neutral>
0.581582

> <r_epik_State_Penalty>
0.593163

> <r_epik_Charging_Adjusted_Penalty>
0.595865

> <i_epik_Tot_Q>
1

> <i_epik_Tot_abs_Q>
1

> <r_epik_Metal_State_Penalty>
0.593163

> <b_epik_Metal_Only>
0

> <s_lp_Force_Field>
OPLS_2005

> <r_lp_Energy>
23.4824

> <b_lp_Chiralities_Consistent>
1

> <s_lp_Variant>
AV-unprocessed.smi:3164-6

> <Gold.Version>
5.8.1

> <Gold.Id.Protein>
6NUR|6NUR_protein|mol2

> <Gold.PLP.Fitness>
40.6965

> <Gold.PLP.PLP>
-33.2578

> <Gold.PLP.part.hbond>
-1.0000

> <Gold.PLP.part.metal>
0.0000

> <Gold.PLP.part.buried>
-2.3114

> <Gold.PLP.part.nonpolar>
-30.8826

> <Gold.PLP.part.repulsive>
1.0474

> <Gold.PLP.ligand.clash>
0.0000

> <Gold.PLP.ligand.torsion>
0.7956

> <Gold.PLP.Chemscore.Hbond>
2.0000

> <Gold.PLP.Chemscore.CHOScore>
1.0000

> <Gold.PLP.Chemscore.Metal>
0.0000

> <Gold.Chemscore.Hbonds>
donor molecule, donor type, donor heavy atom, donor atom, acceptor molecule, acceptor atom, score
      L1  H     8    28       P1  7948  2.00
      L1  C    15    36       P1  8028  1.00

> <Gold.PLP.Chemscore.Internal.Correction>
0.0299

> <Gold.Rescore>
     Score         DG    S(hbond)    S(metal)    S(lipo)     H(rot)  DE(clash)    DE(int)     intcor
     14.76     -15.89       1.00        0.00      94.85       1.57       0.36       0.78       ----

> <Gold.Chemscore.Fitness>
14.7555

> <Gold.Chemscore.DG>
-15.8899

> <Gold.Chemscore.ZeroCoef>
-5.4800

> <Gold.Chemscore.Hbond>
0.9994

> <Gold.Chemscore.Metal>
0.0000

> <Gold.Chemscore.Lipo>
94.8515

> <Gold.Chemscore.Internal_Hbond>
0.0000

> <Gold.Chemscore.DEClash>
0.3575

> <Gold.Chemscore.DEInternal>
0.7768

> <Gold.Chemscore.Rot>
1.5726

> <Gold.Chemscore.Internal.Correction>
   9.000000E+99

> <Gold.Chemscore.Hbonds>
donor molecule, donor type, donor heavy atom, donor atom, acceptor molecule, acceptor atom, score
      L1  H     8    28       P1  7948  0.98

> <Gold.Chemscore.Hbond.Weighted>
-3.3381

> <Gold.Chemscore.Metal.Weighted>
-0.0000

> <Gold.Chemscore.Lipo.Weighted>
-11.0976

> <Gold.Chemscore.Internal_Hbond.Weighted>
0.0000

> <Gold.Chemscore.DEClash.Weighted>
0.3575

> <Gold.Chemscore.DEInternal.Weighted>
0.7768

> <Gold.Chemscore.Rot.Weighted>
4.0259

> <Gold.Chemscore.Internal.Correction.Weighted>
   9.000000E+99

> <Gold.Protein.RotatedTorsions>
[ 6907 6896 6895 6894 ] final  169.55 input  -60.11 | X-H torsion
[ 7974 7965 7964 7962 ] final -149.53 input  175.53 | X-H torsion
[ 8008 7997 7996 7995 ] final  124.28 input   59.86 | X-H torsion
[ 10167 10162 10161 10158 ] final  137.49 input  -65.29 | X-H torsion
[ 10718 10713 10712 10709 ] final   94.01 input   66.30 | X-H torsion
[ 10763 10752 10751 10750 ] final   72.53 input  -60.55 | X-H torsion
[ 11005 11000 10999 10996 ] final -117.24 input  -57.11 | X-H torsion

> <Gold.Protein.ActiveResidues>
 VAL166  LYS551  ARG553  GLY616  TRP617  ASP618  TYR619  PRO620  LYS621  CYS622 
 ASP623  PHE694  ASN695  SER759  ASP760  ASP761  ALA762  ILE779  LEU786  VAL792 
 PHE793  MET794  SER795  GLU796  ALA797  LYS798  CYS799  TRP800  GLU811  SER814 

> <Gold.Protein.RotatedAtoms>
  151.8301  133.3407  159.3610 H   0  0  0  0  0  0  0  0  0  0  0  0  # atno 6907 bound_to 6896
  150.7267  134.5491  159.5795 H   0  0  0  0  0  0  0  0  0  0  0  0  # atno 6908 bound_to 6896
  152.2942  134.7687  160.0422 H   0  0  0  0  0  0  0  0  0  0  0  0  # atno 6909 bound_to 6896
  144.7962  140.5052  143.5739 H   0  0  0  0  0  0  0  0  0  0  0  0  # atno 7974 bound_to 7965
  156.2796  140.2743  156.1762 H   0  0  0  0  0  0  0  0  0  0  0  0  # atno 8008 bound_to 7997
  155.0603  140.0386  157.2592 H   0  0  0  0  0  0  0  0  0  0  0  0  # atno 8009 bound_to 7997
  154.7122  140.2671  155.6624 H   0  0  0  0  0  0  0  0  0  0  0  0  # atno 8010 bound_to 7997
  139.5143  144.6407  151.5576 H   0  0  0  0  0  0  0  0  0  0  0  0  # atno 10167 bound_to 10162
  157.6951  131.0498  150.4121 H   0  0  0  0  0  0  0  0  0  0  0  0  # atno 10718 bound_to 10713
  153.0464  135.5096  154.7758 H   0  0  0  0  0  0  0  0  0  0  0  0  # atno 10763 bound_to 10752
  154.6654  135.2945  154.9815 H   0  0  0  0  0  0  0  0  0  0  0  0  # atno 10764 bound_to 10752
  154.0651  135.6685  153.4869 H   0  0  0  0  0  0  0  0  0  0  0  0  # atno 10765 bound_to 10752
  141.0368  133.9897  157.3057 H   0  0  0  0  0  0  0  0  0  0  0  0  # atno 11005 bound_to 11000
  145.5668  139.1481  143.3310 LP  0  0  0  0  0  0  0  0  0  0  0  0  # atno 17320 bound_to 7965
  146.2230  140.5802  142.9008 LP  0  0  0  0  0  0  0  0  0  0  0  0  # atno 17321 bound_to 7965
  140.6173  143.9325  150.6498 LP  0  0  0  0  0  0  0  0  0  0  0  0  # atno 17342 bound_to 10162
  140.2587  143.3540  152.1342 LP  0  0  0  0  0  0  0  0  0  0  0  0  # atno 17343 bound_to 10162
  156.4504  130.4010  149.6639 LP  0  0  0  0  0  0  0  0  0  0  0  0  # atno 17370 bound_to 10713
  156.3791  130.7570  151.2561 LP  0  0  0  0  0  0  0  0  0  0  0  0  # atno 17371 bound_to 10713
  139.9247  135.0201  156.8190 LP  0  0  0  0  0  0  0  0  0  0  0  0  # atno 17394 bound_to 11000
  140.6307  133.9908  155.7660 LP  0  0  0  0  0  0  0  0  0  0  0  0  # atno 17395 bound_to 11000

$$$$
