AV-unprocessed.smi:1172|AV-procd|sdf|4944|dock3
  -GOLD-   22720 3533D 1   1.00000     0.00000
 Structure written by MMmdl.
 36 37  0  0  0  0  0  0  0  0  1 V2000
  149.4987  142.0785  154.9534 N   0  0  0  0  0  0  0  0  0  0  0  0
  148.8836  140.9826  154.5001 C   0  0  0  0  0  0  0  0  0  0  0  0
  149.4732  139.9154  154.3453 O   0  0  0  0  0  0  0  0  0  0  0  0
  147.3912  141.0977  154.1828 C   0  0  0  0  0  0  0  0  0  0  0  0
  146.8170  139.8038  153.8584 N   0  0  0  0  0  0  0  0  0  0  0  0
  147.1087  138.9862  152.7841 C   0  0  0  0  0  0  0  0  0  0  0  0
  146.3104  137.8869  152.9277 C   0  0  0  0  0  0  0  0  0  0  0  0
  146.2003  136.7391  152.1027 N   0  0  0  0  0  0  0  0  0  0  0  0
  145.0905  136.0320  151.8160 C   0  0  0  0  0  0  0  0  0  0  0  0
  143.9641  136.3726  152.1799 O   0  0  0  0  0  0  0  0  0  0  0  0
  145.3099  134.9446  151.0332 N   0  0  0  0  0  0  0  0  0  0  0  0
  146.5168  134.0981  151.0468 C   0  0  0  0  0  0  0  0  0  0  0  0
  146.2022  132.7979  151.8100 C   0  0  0  0  0  0  0  0  0  0  0  0
  144.9983  132.0702  151.1825 C   0  0  0  0  0  0  0  0  0  0  0  0
  143.7973  133.0195  150.9963 C   0  0  2  0  0  0  0  0  0  0  0  0
  142.7905  132.3665  150.2531 O   0  0  0  0  0  0  0  0  0  0  0  0
  144.2264  134.3098  150.2706 C   0  0  0  0  0  0  0  0  0  0  0  0
  145.5578  138.1069  154.1102 C   0  0  0  0  0  0  0  0  0  0  0  0
  145.8695  139.2668  154.6678 N   0  0  0  0  0  0  0  0  0  0  0  0
  150.4842  142.0446  155.1709 H   0  0  0  0  0  0  0  0  0  0  0  0
  148.9805  142.9365  155.0740 H   0  0  0  0  0  0  0  0  0  0  0  0
  146.8598  141.5253  155.0347 H   0  0  0  0  0  0  0  0  0  0  0  0
  147.2390  141.7731  153.3400 H   0  0  0  0  0  0  0  0  0  0  0  0
  147.8397  139.2604  152.0381 H   0  0  0  0  0  0  0  0  0  0  0  0
  147.0643  136.3986  151.7067 H   0  0  0  0  0  0  0  0  0  0  0  0
  146.8017  133.8656  150.0197 H   0  0  0  0  0  0  0  0  0  0  0  0
  147.3913  134.5784  151.4851 H   0  0  0  0  0  0  0  0  0  0  0  0
  147.0734  132.1425  151.8127 H   0  0  0  0  0  0  0  0  0  0  0  0
  145.9863  133.0308  152.8537 H   0  0  0  0  0  0  0  0  0  0  0  0
  145.2990  131.6702  150.2131 H   0  0  0  0  0  0  0  0  0  0  0  0
  144.7150  131.2139  151.7954 H   0  0  0  0  0  0  0  0  0  0  0  0
  143.3828  133.2751  151.9726 H   0  0  0  0  0  0  0  0  0  0  0  0
  142.1819  133.0158  149.9352 H   0  0  0  0  0  0  0  0  0  0  0  0
  143.3693  134.9709  150.1325 H   0  0  0  0  0  0  0  0  0  0  0  0
  144.5837  134.0794  149.2656 H   0  0  0  0  0  0  0  0  0  0  0  0
  144.8117  137.4781  154.5731 H   0  0  0  0  0  0  0  0  0  0  0  0
  1  2  1  0  0  0  0
  1 20  1  0  0  0  0
  1 21  1  0  0  0  0
  2  3  2  0  0  0  0
  2  4  1  0  0  0  0
  4  5  1  0  0  0  0
  4 22  1  0  0  0  0
  4 23  1  0  0  0  0
  5 19  1  0  0  0  0
  5  6  1  0  0  0  0
  6  7  2  0  0  0  0
  6 24  1  0  0  0  0
  7  8  1  0  0  0  0
  7 18  1  0  0  0  0
  8  9  1  0  0  0  0
  8 25  1  0  0  0  0
  9 10  2  0  0  0  0
  9 11  1  0  0  0  0
 11 17  1  0  0  0  0
 11 12  1  0  0  0  0
 12 13  1  0  0  0  0
 12 26  1  0  0  0  0
 12 27  1  0  0  0  0
 13 14  1  0  0  0  0
 13 28  1  0  0  0  0
 13 29  1  0  0  0  0
 14 15  1  0  0  0  0
 14 30  1  0  0  0  0
 14 31  1  0  0  0  0
 15 16  1  0  0  0  0
 15 17  1  0  0  0  0
 15 32  1  0  0  0  0
 16 33  1  0  0  0  0
 17 34  1  0  0  0  0
 17 35  1  0  0  0  0
 18 19  2  0  0  0  0
 18 36  1  0  0  0  0
M  END
> <s_m_source_file>
AV-unprocessed.smi

> <i_m_source_file_index>
1172

> <i_lp_mmshare_version>
43012

> <i_f3d_flags>
0

> <s_epik_input>
W05IMl1DKD1PKVtDSDJdbjFbY0hdYyhbY0hdbjEpW05IXUMoPU8pTjJbQ0gyXVtDSDJdW0NIMl1bQ0BASF0oW09IXSlbQ0gyXTI=

> <s_epik_cmdline>
J2VwaWtfcHl0aG9uJywgJy1waCcsICc3LjAnLCAnLXRuJywgJzgnLCAnLW1hJywgJzIwMCcsICctbWV0YWxfYmluZGluZycsICctaW1hZScsICc8aW5maWxlLm1hZT4nLCAnLW9tYWUnLCAnPG91dGZpbGUubWFlPic=

> <r_lp_tautomer_probability>
1

> <r_epik_Ionization_Penalty>
4.44977e-05

> <r_epik_Ionization_Penalty_Charging>
0

> <r_epik_Ionization_Penalty_Neutral>
4.44977e-05

> <r_epik_State_Penalty>
-0

> <r_epik_Charging_Adjusted_Penalty>
0

> <i_epik_Tot_Q>
0

> <i_epik_Tot_abs_Q>
0

> <r_epik_Metal_State_Penalty>
-0

> <b_epik_Metal_Only>
0

> <s_lp_Force_Field>
OPLS_2005

> <r_lp_Energy>
32.958

> <b_lp_Chiralities_Consistent>
1

> <s_lp_Variant>
AV-unprocessed.smi:1172-2

> <Gold.Version>
5.8.1

> <Gold.Id.Protein>
6NUR|6NUR_protein|mol2

> <Gold.PLP.Fitness>
44.2731

> <Gold.PLP.PLP>
-33.4450

> <Gold.PLP.part.hbond>
-4.0000

> <Gold.PLP.part.metal>
0.0000

> <Gold.PLP.part.buried>
-6.1170

> <Gold.PLP.part.nonpolar>
-24.4554

> <Gold.PLP.part.repulsive>
0.6696

> <Gold.PLP.ligand.clash>
0.0000

> <Gold.PLP.ligand.torsion>
0.6103

> <Gold.PLP.Chemscore.Hbond>
3.0000

> <Gold.PLP.Chemscore.CHOScore>
1.0000

> <Gold.PLP.Chemscore.Metal>
0.0000

> <Gold.Chemscore.Hbonds>
donor molecule, donor type, donor heavy atom, donor atom, acceptor molecule, acceptor atom, score
      L1  H     1    21       P1  8028  1.00
      L1  H     8    25       P1  7948  0.99
      L1  H    16    33       P1 10186  1.00
      L1  C     6    24       P1  7957  1.00

> <Gold.PLP.Chemscore.Internal.Correction>
0.0487

> <Gold.Rescore>
     Score         DG    S(hbond)    S(metal)    S(lipo)     H(rot)  DE(clash)    DE(int)     intcor
     14.58     -16.12       2.91        0.00      55.83       2.20       0.01       1.53       ----

> <Gold.Chemscore.Fitness>
14.5843

> <Gold.Chemscore.DG>
-16.1159

> <Gold.Chemscore.ZeroCoef>
-5.4800

> <Gold.Chemscore.Hbond>
2.9123

> <Gold.Chemscore.Metal>
0.0000

> <Gold.Chemscore.Lipo>
55.8296

> <Gold.Chemscore.Internal_Hbond>
0.0000

> <Gold.Chemscore.DEClash>
0.0052

> <Gold.Chemscore.DEInternal>
1.5264

> <Gold.Chemscore.Rot>
2.1966

> <Gold.Chemscore.Internal.Correction>
   9.000000E+99

> <Gold.Chemscore.Hbonds>
donor molecule, donor type, donor heavy atom, donor atom, acceptor molecule, acceptor atom, score
      L1  H     1    21       P1  8028  0.95
      L1  H     8    25       P1  7948  0.94
      L1  H    16    33       P1 10186  1.00

> <Gold.Chemscore.Hbond.Weighted>
-9.7271

> <Gold.Chemscore.Metal.Weighted>
-0.0000

> <Gold.Chemscore.Lipo.Weighted>
-6.5321

> <Gold.Chemscore.Internal_Hbond.Weighted>
0.0000

> <Gold.Chemscore.DEClash.Weighted>
0.0052

> <Gold.Chemscore.DEInternal.Weighted>
1.5264

> <Gold.Chemscore.Rot.Weighted>
5.6232

> <Gold.Chemscore.Internal.Correction.Weighted>
   9.000000E+99

> <Gold.Protein.RotatedTorsions>
[ 6907 6896 6895 6894 ] final  -40.16 input  -60.11 | X-H torsion
[ 7974 7965 7964 7962 ] final  -48.03 input  175.53 | X-H torsion
[ 8008 7997 7996 7995 ] final -160.46 input   59.86 | X-H torsion
[ 10167 10162 10161 10158 ] final  169.16 input  -65.29 | X-H torsion
[ 10718 10713 10712 10709 ] final   -1.22 input   66.30 | X-H torsion
[ 10763 10752 10751 10750 ] final   71.58 input  -60.55 | X-H torsion
[ 11005 11000 10999 10996 ] final   29.92 input  -57.11 | X-H torsion

> <Gold.Protein.ActiveResidues>
 VAL166  LYS551  ARG553  GLY616  TRP617  ASP618  TYR619  PRO620  LYS621  CYS622 
 ASP623  PHE694  ASN695  SER759  ASP760  ASP761  ALA762  ILE779  LEU786  VAL792 
 PHE793  MET794  SER795  GLU796  ALA797  LYS798  CYS799  TRP800  GLU811  SER814 

> <Gold.Protein.RotatedAtoms>
  150.9817  134.9171  159.7847 H   0  0  0  0  0  0  0  0  0  0  0  0  # atno 6907 bound_to 6896
  152.5224  134.3401  159.9224 H   0  0  0  0  0  0  0  0  0  0  0  0  # atno 6908 bound_to 6896
  151.3408  133.3922  159.2705 H   0  0  0  0  0  0  0  0  0  0  0  0  # atno 6909 bound_to 6896
  145.9554  140.7531  142.9484 H   0  0  0  0  0  0  0  0  0  0  0  0  # atno 7974 bound_to 7965
  155.7778  140.0861  157.2075 H   0  0  0  0  0  0  0  0  0  0  0  0  # atno 8008 bound_to 7997
  154.3992  140.1513  156.3074 H   0  0  0  0  0  0  0  0  0  0  0  0  # atno 8009 bound_to 7997
  155.8684  140.3427  155.5807 H   0  0  0  0  0  0  0  0  0  0  0  0  # atno 8010 bound_to 7997
  139.4985  144.3736  151.9698 H   0  0  0  0  0  0  0  0  0  0  0  0  # atno 10167 bound_to 10162
  156.8088  130.5417  149.5711 H   0  0  0  0  0  0  0  0  0  0  0  0  # atno 10718 bound_to 10713
  153.0407  135.5131  154.7615 H   0  0  0  0  0  0  0  0  0  0  0  0  # atno 10763 bound_to 10752
  154.6555  135.2931  154.9936 H   0  0  0  0  0  0  0  0  0  0  0  0  # atno 10764 bound_to 10752
  154.0805  135.6664  153.4890 H   0  0  0  0  0  0  0  0  0  0  0  0  # atno 10765 bound_to 10752
  140.2999  134.2769  155.7756 H   0  0  0  0  0  0  0  0  0  0  0  0  # atno 11005 bound_to 11000
  144.6804  140.2504  143.7332 LP  0  0  0  0  0  0  0  0  0  0  0  0  # atno 17320 bound_to 7965
  145.8113  139.2004  143.1991 LP  0  0  0  0  0  0  0  0  0  0  0  0  # atno 17321 bound_to 7965
  140.3172  144.3470  150.6018 LP  0  0  0  0  0  0  0  0  0  0  0  0  # atno 17342 bound_to 10162
  140.5752  143.2177  151.7528 LP  0  0  0  0  0  0  0  0  0  0  0  0  # atno 17343 bound_to 10162
  156.1057  130.6002  150.9966 LP  0  0  0  0  0  0  0  0  0  0  0  0  # atno 17370 bound_to 10713
  157.6516  131.0896  150.8037 LP  0  0  0  0  0  0  0  0  0  0  0  0  # atno 17371 bound_to 10713
  141.2130  133.7639  156.9751 LP  0  0  0  0  0  0  0  0  0  0  0  0  # atno 17394 bound_to 11000
  140.1119  134.9471  157.2077 LP  0  0  0  0  0  0  0  0  0  0  0  0  # atno 17395 bound_to 11000

$$$$
