AV-unprocessed.smi:1308|AV-procd|sdf|5439|dock2
  -GOLD-   22720 5 03D 1   1.00000     0.00000
 Structure written by MMmdl.
 45 45  0  0  0  0  0  0  0  0  1 V2000
  146.1387  137.9868  152.0706 C   0  0  0  0  0  0  0  0  0  0  0  0
  146.8732  138.9662  152.9616 C   0  0  0  0  0  0  0  0  0  0  0  0
  146.3140  139.9835  153.5295 N   0  0  0  0  0  0  0  0  0  0  0  0
  147.0983  140.8230  154.3329 C   0  0  0  0  0  0  0  0  0  0  0  0
  146.3678  141.9960  154.9634 C   0  0  0  0  0  0  0  0  0  0  0  0
  148.4302  140.5908  154.5249 C   0  0  0  0  0  0  0  0  0  0  0  0
  149.3132  141.4901  155.3896 C   0  0  0  0  0  0  0  0  0  0  0  0
  149.7136  140.9111  156.7474 C   0  0  0  0  0  0  0  0  0  0  0  0
  149.1525  141.3036  157.7698 O   0  0  0  0  0  0  0  0  0  0  0  0
  150.6842  139.9810  156.7345 N   0  0  0  0  0  0  0  0  0  0  0  0
  151.2834  139.3013  157.8856 C   0  0  1  0  0  0  0  0  0  0  0  0
  151.9771  137.9923  157.4684 C   0  0  0  0  0  0  0  0  0  0  0  0
  152.2084  140.2202  158.7143 C   0  0  0  0  0  0  0  0  0  0  0  0
  151.6028  141.6059  159.0128 C   0  0  0  0  0  0  0  0  0  0  0  0
  152.6095  142.6262  159.5834 C   0  0  0  0  0  0  0  0  0  0  0  0
  153.1850  142.1945  160.9432 C   0  0  0  0  0  0  0  0  0  0  0  0
  151.9659  144.0168  159.6943 C   0  0  0  0  0  0  0  0  0  0  0  0
  149.0587  139.4278  153.8687 C   0  0  0  0  0  0  0  0  0  0  0  0
  150.2497  139.1348  153.9615 O   0  0  0  0  0  0  0  0  0  0  0  0
  148.2266  138.6717  153.1180 N   0  0  0  0  0  0  0  0  0  0  0  0
  148.6092  137.8638  152.6488 H   0  0  0  0  0  0  0  0  0  0  0  0
  145.7298  138.5043  151.2023 H   0  0  0  0  0  0  0  0  0  0  0  0
  145.3133  137.5289  152.6163 H   0  0  0  0  0  0  0  0  0  0  0  0
  146.7965  137.1919  151.7159 H   0  0  0  0  0  0  0  0  0  0  0  0
  146.4148  141.9383  156.0508 H   0  0  0  0  0  0  0  0  0  0  0  0
  145.3159  142.0084  154.6756 H   0  0  0  0  0  0  0  0  0  0  0  0
  146.8099  142.9402  154.6456 H   0  0  0  0  0  0  0  0  0  0  0  0
  150.2213  141.7259  154.8339 H   0  0  0  0  0  0  0  0  0  0  0  0
  148.8362  142.4565  155.5563 H   0  0  0  0  0  0  0  0  0  0  0  0
  151.0595  139.7284  155.8314 H   0  0  0  0  0  0  0  0  0  0  0  0
  150.4447  139.0232  158.5248 H   0  0  0  0  0  0  0  0  0  0  0  0
  152.2920  137.4231  158.3432 H   0  0  0  0  0  0  0  0  0  0  0  0
  152.8647  138.1779  156.8634 H   0  0  0  0  0  0  0  0  0  0  0  0
  151.3050  137.3582  156.8895 H   0  0  0  0  0  0  0  0  0  0  0  0
  152.4301  139.7166  159.6547 H   0  0  0  0  0  0  0  0  0  0  0  0
  153.1673  140.3414  158.2099 H   0  0  0  0  0  0  0  0  0  0  0  0
  151.1878  142.0131  158.0902 H   0  0  0  0  0  0  0  0  0  0  0  0
  150.7615  141.4978  159.6984 H   0  0  0  0  0  0  0  0  0  0  0  0
  153.4393  142.7106  158.8805 H   0  0  0  0  0  0  0  0  0  0  0  0
  152.3945  142.0397  161.6780 H   0  0  0  0  0  0  0  0  0  0  0  0
  153.8609  142.9528  161.3392 H   0  0  0  0  0  0  0  0  0  0  0  0
  153.7563  141.2699  160.8654 H   0  0  0  0  0  0  0  0  0  0  0  0
  151.1196  144.0081  160.3821 H   0  0  0  0  0  0  0  0  0  0  0  0
  151.6036  144.3623  158.7257 H   0  0  0  0  0  0  0  0  0  0  0  0
  152.6821  144.7548  160.0567 H   0  0  0  0  0  0  0  0  0  0  0  0
  1  2  1  0  0  0  0
  1 22  1  0  0  0  0
  1 23  1  0  0  0  0
  1 24  1  0  0  0  0
  2 20  1  0  0  0  0
  2  3  2  0  0  0  0
  3  4  1  0  0  0  0
  4  5  1  0  0  0  0
  4  6  2  0  0  0  0
  5 25  1  0  0  0  0
  5 26  1  0  0  0  0
  5 27  1  0  0  0  0
  6  7  1  0  0  0  0
  6 18  1  0  0  0  0
  7  8  1  0  0  0  0
  7 28  1  0  0  0  0
  7 29  1  0  0  0  0
  8  9  2  0  0  0  0
  8 10  1  0  0  0  0
 10 11  1  0  0  0  0
 10 30  1  0  0  0  0
 11 12  1  0  0  0  0
 11 13  1  0  0  0  0
 11 31  1  0  0  0  0
 12 32  1  0  0  0  0
 12 33  1  0  0  0  0
 12 34  1  0  0  0  0
 13 14  1  0  0  0  0
 13 35  1  0  0  0  0
 13 36  1  0  0  0  0
 14 15  1  0  0  0  0
 14 37  1  0  0  0  0
 14 38  1  0  0  0  0
 15 16  1  0  0  0  0
 15 17  1  0  0  0  0
 15 39  1  0  0  0  0
 16 40  1  0  0  0  0
 16 41  1  0  0  0  0
 16 42  1  0  0  0  0
 17 43  1  0  0  0  0
 17 44  1  0  0  0  0
 17 45  1  0  0  0  0
 18 19  2  0  0  0  0
 18 20  1  0  0  0  0
 20 21  1  0  0  0  0
M  END
> <s_m_source_file>
AV-unprocessed.smi

> <i_m_source_file_index>
1308

> <i_lp_mmshare_version>
43012

> <i_f3d_flags>
0

> <s_epik_input>
W0NIM11jMW5jKFtDSDNdKWMoYyg9TylbbkhdMSlbQ0gyXUMoPU8pW05IXVtDQEhdKFtDSDNdKVtDSDJdW0NIMl1bQ0hdKFtDSDNdKVtDSDNd

> <s_epik_cmdline>
J2VwaWtfcHl0aG9uJywgJy1waCcsICc3LjAnLCAnLXRuJywgJzgnLCAnLW1hJywgJzIwMCcsICctbWV0YWxfYmluZGluZycsICctaW1hZScsICc8aW5maWxlLm1hZT4nLCAnLW9tYWUnLCAnPG91dGZpbGUubWFlPic=

> <r_lp_tautomer_probability>
0.839158

> <r_epik_Ionization_Penalty>
0.000390633

> <r_epik_Ionization_Penalty_Charging>
0.00035831

> <r_epik_Ionization_Penalty_Neutral>
3.23235e-05

> <r_epik_State_Penalty>
0.0470222

> <r_epik_Charging_Adjusted_Penalty>
0.0473805

> <i_epik_Tot_Q>
0

> <i_epik_Tot_abs_Q>
0

> <r_epik_Metal_State_Penalty>
0.223807

> <b_epik_Metal_Only>
0

> <s_lp_Force_Field>
OPLS_2005

> <r_lp_Energy>
7.09032

> <b_lp_Chiralities_Consistent>
1

> <s_lp_Variant>
AV-unprocessed.smi:1308-2

> <Gold.Version>
5.8.1

> <Gold.Id.Protein>
6NUR|6NUR_protein|mol2

> <Gold.PLP.Fitness>
45.0981

> <Gold.PLP.PLP>
-40.3704

> <Gold.PLP.part.hbond>
-2.7964

> <Gold.PLP.part.metal>
0.0000

> <Gold.PLP.part.buried>
1.4798

> <Gold.PLP.part.nonpolar>
-39.5027

> <Gold.PLP.part.repulsive>
0.6369

> <Gold.PLP.ligand.clash>
0.0000

> <Gold.PLP.ligand.torsion>
0.7048

> <Gold.PLP.Chemscore.Hbond>
2.0000

> <Gold.PLP.Chemscore.CHOScore>
0.0000

> <Gold.PLP.Chemscore.Metal>
0.0000

> <Gold.Chemscore.Hbonds>
donor molecule, donor type, donor heavy atom, donor atom, acceptor molecule, acceptor atom, score
      L1  H    20    21       P1  7948  1.00
      P1  H  7989  7998       L1    19  0.44

> <Gold.PLP.Chemscore.Internal.Correction>
0.1374

> <Gold.Rescore>
     Score         DG    S(hbond)    S(metal)    S(lipo)     H(rot)  DE(clash)    DE(int)     intcor
     12.21     -17.90       1.85        0.00      96.64       1.98       2.45       3.24       ----

> <Gold.Chemscore.Fitness>
12.2122

> <Gold.Chemscore.DG>
-17.9023

> <Gold.Chemscore.ZeroCoef>
-5.4800

> <Gold.Chemscore.Hbond>
1.8542

> <Gold.Chemscore.Metal>
0.0000

> <Gold.Chemscore.Lipo>
96.6399

> <Gold.Chemscore.Internal_Hbond>
0.0000

> <Gold.Chemscore.DEClash>
2.4466

> <Gold.Chemscore.DEInternal>
3.2435

> <Gold.Chemscore.Rot>
1.9835

> <Gold.Chemscore.Internal.Correction>
   9.000000E+99

> <Gold.Chemscore.Hbonds>
donor molecule, donor type, donor heavy atom, donor atom, acceptor molecule, acceptor atom, score
      L1  H    20    21       P1  7948  1.00
      P1  H  7989  7998       L1    19  0.36

> <Gold.Chemscore.Hbond.Weighted>
-6.1931

> <Gold.Chemscore.Metal.Weighted>
-0.0000

> <Gold.Chemscore.Lipo.Weighted>
-11.3069

> <Gold.Chemscore.Internal_Hbond.Weighted>
0.0000

> <Gold.Chemscore.DEClash.Weighted>
2.4466

> <Gold.Chemscore.DEInternal.Weighted>
3.2435

> <Gold.Chemscore.Rot.Weighted>
5.0778

> <Gold.Chemscore.Internal.Correction.Weighted>
   9.000000E+99

> <Gold.Protein.RotatedTorsions>
[ 6907 6896 6895 6894 ] final  -17.30 input  -60.11 | X-H torsion
[ 7974 7965 7964 7962 ] final   68.27 input  175.53 | X-H torsion
[ 8008 7997 7996 7995 ] final  -75.63 input   59.86 | X-H torsion
[ 10167 10162 10161 10158 ] final  -41.81 input  -65.29 | X-H torsion
[ 10718 10713 10712 10709 ] final  170.27 input   66.30 | X-H torsion
[ 10763 10752 10751 10750 ] final   85.19 input  -60.55 | X-H torsion
[ 11005 11000 10999 10996 ] final   -8.67 input  -57.11 | X-H torsion

> <Gold.Protein.ActiveResidues>
 VAL166  LYS551  ARG553  GLY616  TRP617  ASP618  TYR619  PRO620  LYS621  CYS622 
 ASP623  PHE694  ASN695  SER759  ASP760  ASP761  ALA762  ILE779  LEU786  VAL792 
 PHE793  MET794  SER795  GLU796  ALA797  LYS798  CYS799  TRP800  GLU811  SER814 

> <Gold.Protein.RotatedAtoms>
  151.2955  135.0754  159.9219 H   0  0  0  0  0  0  0  0  0  0  0  0  # atno 6907 bound_to 6896
  152.5308  133.9887  159.7851 H   0  0  0  0  0  0  0  0  0  0  0  0  # atno 6908 bound_to 6896
  151.0165  133.5865  159.2707 H   0  0  0  0  0  0  0  0  0  0  0  0  # atno 6909 bound_to 6896
  145.8047  139.3000  143.1134 H   0  0  0  0  0  0  0  0  0  0  0  0  # atno 7974 bound_to 7965
  154.5434  140.0741  156.8548 H   0  0  0  0  0  0  0  0  0  0  0  0  # atno 8008 bound_to 7997
  155.3135  140.3391  155.4225 H   0  0  0  0  0  0  0  0  0  0  0  0  # atno 8009 bound_to 7997
  156.1895  140.1681  156.8105 H   0  0  0  0  0  0  0  0  0  0  0  0  # atno 8010 bound_to 7997
  140.6990  143.3073  151.3120 H   0  0  0  0  0  0  0  0  0  0  0  0  # atno 10167 bound_to 10162
  157.0106  131.0203  151.2804 H   0  0  0  0  0  0  0  0  0  0  0  0  # atno 10718 bound_to 10713
  153.1452  135.4626  154.9555 H   0  0  0  0  0  0  0  0  0  0  0  0  # atno 10763 bound_to 10752
  154.7780  135.3179  154.8053 H   0  0  0  0  0  0  0  0  0  0  0  0  # atno 10764 bound_to 10752
  153.8569  135.6916  153.4841 H   0  0  0  0  0  0  0  0  0  0  0  0  # atno 10765 bound_to 10752
  140.7260  133.8788  155.8856 H   0  0  0  0  0  0  0  0  0  0  0  0  # atno 11005 bound_to 11000
  145.9841  140.8658  143.0099 LP  0  0  0  0  0  0  0  0  0  0  0  0  # atno 17320 bound_to 7965
  144.6764  140.2122  143.7375 LP  0  0  0  0  0  0  0  0  0  0  0  0  # atno 17321 bound_to 7965
  139.6483  144.0409  152.2607 LP  0  0  0  0  0  0  0  0  0  0  0  0  # atno 17342 bound_to 10162
  139.9937  144.6343  150.7791 LP  0  0  0  0  0  0  0  0  0  0  0  0  # atno 17343 bound_to 10162
  157.5323  130.8066  149.7931 LP  0  0  0  0  0  0  0  0  0  0  0  0  # atno 17370 bound_to 10713
  156.0137  130.3822  150.2179 LP  0  0  0  0  0  0  0  0  0  0  0  0  # atno 17371 bound_to 10713
  140.9962  134.1212  157.4361 LP  0  0  0  0  0  0  0  0  0  0  0  0  # atno 17394 bound_to 11000
  139.8837  135.0055  156.6318 LP  0  0  0  0  0  0  0  0  0  0  0  0  # atno 17395 bound_to 11000

$$$$
