AV-unprocessed.smi:2888|AV-procd|sdf|11103|dock5
  -GOLD-   2272015573D 1   1.00000     0.00000
 Structure written by MMmdl.
 33 35  0  0  0  0  0  0  0  0  1 V2000
  151.7764  145.3412  159.7138 C   0  0  0  0  0  0  0  0  0  0  0  0
  152.1096  143.8873  159.4558 C   0  0  0  0  0  0  0  0  0  0  0  0
  153.1027  143.2136  160.1969 C   0  0  0  0  0  0  0  0  0  0  0  0
  153.3177  141.8608  159.8589 C   0  0  0  0  0  0  0  0  0  0  0  0
  154.3561  141.0217  160.5727 C   0  0  0  0  0  0  0  0  0  0  0  0
  152.6122  141.2501  158.8811 N   0  0  0  0  0  0  0  0  0  0  0  0
  151.6985  141.9848  158.2415 C   0  0  0  0  0  0  0  0  0  0  0  0
  151.0027  141.3302  157.2418 N   0  0  0  0  0  0  0  0  0  0  0  0
  151.2757  139.9659  156.8077 C   0  0  1  0  0  0  0  0  0  0  0  0
  150.0018  139.1736  156.4874 C   0  0  0  0  0  0  0  0  0  0  0  0
  150.2628  138.7257  155.0440 C   0  0  2  0  0  0  0  0  0  0  0  0
  151.3868  137.6846  154.9524 C   0  0  0  0  0  0  0  0  0  0  0  0
  152.6268  138.5403  155.2107 C   0  0  0  0  0  0  0  0  0  0  0  0
  152.0105  139.9241  155.4574 C   0  0  1  0  0  0  0  0  0  0  0  0
  150.9257  139.8736  154.5443 O   0  0  0  0  0  0  0  0  0  0  0  0
  151.4102  143.2704  158.4783 N   0  0  0  0  0  0  0  0  0  0  0  0
  152.3321  145.7270  160.5690 H   0  0  0  0  0  0  0  0  0  0  0  0
  150.7119  145.4569  159.9195 H   0  0  0  0  0  0  0  0  0  0  0  0
  152.0269  145.9463  158.8421 H   0  0  0  0  0  0  0  0  0  0  0  0
  153.6663  143.7051  160.9764 H   0  0  0  0  0  0  0  0  0  0  0  0
  154.7894  141.5637  161.4135 H   0  0  0  0  0  0  0  0  0  0  0  0
  155.1607  140.7531  159.8881 H   0  0  0  0  0  0  0  0  0  0  0  0
  153.9078  140.1041  160.9547 H   0  0  0  0  0  0  0  0  0  0  0  0
  150.1551  141.7687  156.9122 H   0  0  0  0  0  0  0  0  0  0  0  0
  151.8736  139.4663  157.5712 H   0  0  0  0  0  0  0  0  0  0  0  0
  149.8487  138.3330  157.1648 H   0  0  0  0  0  0  0  0  0  0  0  0
  149.1130  139.8052  156.5288 H   0  0  0  0  0  0  0  0  0  0  0  0
  149.3604  138.4541  154.4958 H   0  0  0  0  0  0  0  0  0  0  0  0
  151.2659  136.8815  155.6801 H   0  0  0  0  0  0  0  0  0  0  0  0
  151.4286  137.2414  153.9568 H   0  0  0  0  0  0  0  0  0  0  0  0
  153.2168  138.1882  156.0574 H   0  0  0  0  0  0  0  0  0  0  0  0
  153.2696  138.5561  154.3298 H   0  0  0  0  0  0  0  0  0  0  0  0
  152.7072  140.7473  155.2931 H   0  0  0  0  0  0  0  0  0  0  0  0
  1  2  1  0  0  0  0
  1 17  1  0  0  0  0
  1 18  1  0  0  0  0
  1 19  1  0  0  0  0
  2 16  1  0  0  0  0
  2  3  2  0  0  0  0
  3  4  1  0  0  0  0
  3 20  1  0  0  0  0
  4  5  1  0  0  0  0
  4  6  2  0  0  0  0
  5 21  1  0  0  0  0
  5 22  1  0  0  0  0
  5 23  1  0  0  0  0
  6  7  1  0  0  0  0
  7  8  1  0  0  0  0
  7 16  2  0  0  0  0
  8  9  1  0  0  0  0
  8 24  1  0  0  0  0
  9 14  1  0  0  0  0
  9 10  1  0  0  0  0
  9 25  1  0  0  0  0
 10 11  1  0  0  0  0
 10 26  1  0  0  0  0
 10 27  1  0  0  0  0
 11 15  1  0  0  0  0
 11 12  1  0  0  0  0
 11 28  1  0  0  0  0
 12 13  1  0  0  0  0
 12 29  1  0  0  0  0
 12 30  1  0  0  0  0
 13 14  1  0  0  0  0
 13 31  1  0  0  0  0
 13 32  1  0  0  0  0
 14 15  1  0  0  0  0
 14 33  1  0  0  0  0
M  END
> <s_m_source_file>
AV-unprocessed.smi

> <i_m_source_file_index>
2888

> <i_lp_mmshare_version>
43012

> <i_f3d_flags>
0

> <s_epik_input>
W0NIM11jMVtjSF1jKFtDSDNdKW5jKG4xKVtOSF1bQ0BIXShbQ0gyXVtDQEBIXTIzKVtDQEBIXShPMylbQ0gyXVtDSDJdMg==

> <s_epik_cmdline>
J2VwaWtfcHl0aG9uJywgJy1waCcsICc3LjAnLCAnLXRuJywgJzgnLCAnLW1hJywgJzIwMCcsICctbWV0YWxfYmluZGluZycsICctaW1hZScsICc8aW5maWxlLm1hZT4nLCAnLW9tYWUnLCAnPG91dGZpbGUubWFlPic=

> <r_lp_tautomer_probability>
1

> <r_epik_Ionization_Penalty>
0.00890508

> <r_epik_Ionization_Penalty_Charging>
0

> <r_epik_Ionization_Penalty_Neutral>
0.00890508

> <r_epik_State_Penalty>
0.0067342

> <r_epik_Charging_Adjusted_Penalty>
0.0067342

> <i_epik_Tot_Q>
0

> <i_epik_Tot_abs_Q>
0

> <r_epik_Metal_State_Penalty>
0.00663442

> <b_epik_Metal_Only>
0

> <s_lp_Force_Field>
OPLS_2005

> <r_lp_Energy>
31.5377

> <b_lp_Chiralities_Consistent>
1

> <s_lp_Variant>
AV-unprocessed.smi:2888-4

> <Gold.Version>
5.8.1

> <Gold.Id.Protein>
6NUR|6NUR_protein|mol2

> <Gold.PLP.Fitness>
38.6342

> <Gold.PLP.PLP>
-36.1180

> <Gold.PLP.part.hbond>
-1.0000

> <Gold.PLP.part.metal>
0.0000

> <Gold.PLP.part.buried>
-4.4514

> <Gold.PLP.part.nonpolar>
-31.0724

> <Gold.PLP.part.repulsive>
0.2245

> <Gold.PLP.ligand.clash>
0.0000

> <Gold.PLP.ligand.torsion>
0.2512

> <Gold.PLP.Chemscore.Hbond>
1.0000

> <Gold.PLP.Chemscore.CHOScore>
0.0000

> <Gold.PLP.Chemscore.Metal>
0.0000

> <Gold.Chemscore.Hbonds>
donor molecule, donor type, donor heavy atom, donor atom, acceptor molecule, acceptor atom, score
      P1  H  7989  7998       L1    15  0.70

> <Gold.PLP.Chemscore.Internal.Correction>
0.0187

> <Gold.Rescore>
     Score         DG    S(hbond)    S(metal)    S(lipo)     H(rot)  DE(clash)    DE(int)     intcor
     16.56     -16.84       0.97        0.00      91.38       1.00       0.01       0.27       ----

> <Gold.Chemscore.Fitness>
16.5628

> <Gold.Chemscore.DG>
-16.8434

> <Gold.Chemscore.ZeroCoef>
-5.4800

> <Gold.Chemscore.Hbond>
0.9675

> <Gold.Chemscore.Metal>
0.0000

> <Gold.Chemscore.Lipo>
91.3835

> <Gold.Chemscore.Internal_Hbond>
0.0000

> <Gold.Chemscore.DEClash>
0.0108

> <Gold.Chemscore.DEInternal>
0.2699

> <Gold.Chemscore.Rot>
1.0000

> <Gold.Chemscore.Internal.Correction>
   9.000000E+99

> <Gold.Chemscore.Hbonds>
donor molecule, donor type, donor heavy atom, donor atom, acceptor molecule, acceptor atom, score
      P1  H  7989  7998       L1    15  0.07

> <Gold.Chemscore.Hbond.Weighted>
-3.2316

> <Gold.Chemscore.Metal.Weighted>
-0.0000

> <Gold.Chemscore.Lipo.Weighted>
-10.6919

> <Gold.Chemscore.Internal_Hbond.Weighted>
0.0000

> <Gold.Chemscore.DEClash.Weighted>
0.0108

> <Gold.Chemscore.DEInternal.Weighted>
0.2699

> <Gold.Chemscore.Rot.Weighted>
2.5600

> <Gold.Chemscore.Internal.Correction.Weighted>
   9.000000E+99

> <Gold.Protein.RotatedTorsions>
[ 6907 6896 6895 6894 ] final -141.16 input  -60.11 | X-H torsion
[ 7974 7965 7964 7962 ] final -173.86 input  175.53 | X-H torsion
[ 8008 7997 7996 7995 ] final  -38.51 input   59.86 | X-H torsion
[ 10167 10162 10161 10158 ] final  -34.98 input  -65.29 | X-H torsion
[ 10718 10713 10712 10709 ] final   93.40 input   66.30 | X-H torsion
[ 10763 10752 10751 10750 ] final   95.54 input  -60.55 | X-H torsion
[ 11005 11000 10999 10996 ] final  -96.71 input  -57.11 | X-H torsion

> <Gold.Protein.ActiveResidues>
 VAL166  LYS551  ARG553  GLY616  TRP617  ASP618  TYR619  PRO620  LYS621  CYS622 
 ASP623  PHE694  ASN695  SER759  ASP760  ASP761  ALA762  ILE779  LEU786  VAL792 
 PHE793  MET794  SER795  GLU796  ALA797  LYS798  CYS799  TRP800  GLU811  SER814 

> <Gold.Protein.RotatedAtoms>
  151.0702  133.5472  159.2627 H   0  0  0  0  0  0  0  0  0  0  0  0  # atno 6907 bound_to 6896
  151.2415  135.0590  159.9036 H   0  0  0  0  0  0  0  0  0  0  0  0  # atno 6908 bound_to 6896
  152.5410  134.0476  159.8149 H   0  0  0  0  0  0  0  0  0  0  0  0  # atno 6909 bound_to 6896
  144.7135  140.1558  143.6380 H   0  0  0  0  0  0  0  0  0  0  0  0  # atno 7974 bound_to 7965
  154.4036  140.1576  156.2711 H   0  0  0  0  0  0  0  0  0  0  0  0  # atno 8008 bound_to 7997
  155.8952  140.3436  155.5963 H   0  0  0  0  0  0  0  0  0  0  0  0  # atno 8009 bound_to 7997
  155.7512  140.0805  157.2191 H   0  0  0  0  0  0  0  0  0  0  0  0  # atno 8010 bound_to 7997
  140.7174  143.3509  151.2157 H   0  0  0  0  0  0  0  0  0  0  0  0  # atno 10167 bound_to 10162
  157.6954  131.0477  150.4028 H   0  0  0  0  0  0  0  0  0  0  0  0  # atno 10718 bound_to 10713
  153.2543  135.4250  155.0830 H   0  0  0  0  0  0  0  0  0  0  0  0  # atno 10763 bound_to 10752
  154.8395  135.3433  154.6467 H   0  0  0  0  0  0  0  0  0  0  0  0  # atno 10764 bound_to 10752
  153.6888  135.7035  153.5153 H   0  0  0  0  0  0  0  0  0  0  0  0  # atno 10765 bound_to 10752
  141.1402  133.8118  157.0608 H   0  0  0  0  0  0  0  0  0  0  0  0  # atno 11005 bound_to 11000
  145.9075  139.2467  143.1457 LP  0  0  0  0  0  0  0  0  0  0  0  0  # atno 17320 bound_to 7965
  145.9750  140.8730  143.0143 LP  0  0  0  0  0  0  0  0  0  0  0  0  # atno 17321 bound_to 7965
  139.7040  143.9486  152.2918 LP  0  0  0  0  0  0  0  0  0  0  0  0  # atno 17342 bound_to 10162
  139.9189  144.6812  150.8483 LP  0  0  0  0  0  0  0  0  0  0  0  0  # atno 17343 bound_to 10162
  156.4420  130.3993  149.6691 LP  0  0  0  0  0  0  0  0  0  0  0  0  # atno 17370 bound_to 10713
  156.3872  130.7608  151.2606 LP  0  0  0  0  0  0  0  0  0  0  0  0  # atno 17371 bound_to 10713
  140.0572  134.9774  157.1242 LP  0  0  0  0  0  0  0  0  0  0  0  0  # atno 17394 bound_to 11000
  140.3901  134.2193  155.7166 LP  0  0  0  0  0  0  0  0  0  0  0  0  # atno 17395 bound_to 11000

$$$$
