AV-unprocessed.smi:3105|AV-procd|sdf|11820|dock10
  -GOLD-   2272017193D 1   1.00000     0.00000
 Structure written by MMmdl.
 34 34  0  0  0  0  0  0  0  0  2 V2000
  147.5655  140.9588  153.9021 C   0  0  0  0  0  0  0  0  0  0  0  0
  148.2417  139.5712  153.8808 C   0  0  1  0  0  0  0  0  0  0  0  0
  147.9529  138.8798  152.6026 N   0  3  0  0  0  0  0  0  0  0  0  0
  146.5225  138.6353  152.3213 C   0  0  0  0  0  0  0  0  0  0  0  0
  146.0668  137.2959  152.9268 C   0  0  0  0  0  0  0  0  0  0  0  0
  144.5947  136.9736  152.6486 C   0  0  0  0  0  0  0  0  0  0  0  0
  143.7883  138.0110  152.4125 N   0  0  0  0  0  0  0  0  0  0  0  0
  144.1855  135.8142  152.6422 O   0  0  0  0  0  0  0  0  0  0  0  0
  149.7773  139.6466  154.0989 C   0  0  2  0  0  0  0  0  0  0  0  0
  150.4450  138.2576  154.0882 C   0  0  0  0  0  0  0  0  0  0  0  0
  150.1290  140.3566  155.3227 N   0  0  0  0  0  0  0  0  0  0  0  0
  149.9161  141.6847  155.6315 C   0  0  0  0  0  0  0  0  0  0  0  0
  150.4163  141.8982  156.8838 C   0  0  0  0  0  0  0  0  0  0  0  0
  150.9265  140.6265  157.2661 C   0  0  0  0  0  0  0  0  0  0  0  0
  150.7548  139.7068  156.3304 N   0  0  0  0  0  0  0  0  0  0  0  0
  147.7087  141.4649  154.8567 H   0  0  0  0  0  0  0  0  0  0  0  0
  146.4888  140.8880  153.7513 H   0  0  0  0  0  0  0  0  0  0  0  0
  147.9678  141.6052  153.1217 H   0  0  0  0  0  0  0  0  0  0  0  0
  147.8190  138.9747  154.6911 H   0  0  0  0  0  0  0  0  0  0  0  0
  148.3599  139.4083  151.8443 H   0  0  0  0  0  0  0  0  0  0  0  0
  145.9351  139.4544  152.7391 H   0  0  0  0  0  0  0  0  0  0  0  0
  146.3539  138.6312  151.2442 H   0  0  0  0  0  0  0  0  0  0  0  0
  146.6821  136.4871  152.5294 H   0  0  0  0  0  0  0  0  0  0  0  0
  146.2179  137.3052  154.0071 H   0  0  0  0  0  0  0  0  0  0  0  0
  142.8075  137.8612  152.2247 H   0  0  0  0  0  0  0  0  0  0  0  0
  144.1638  138.9487  152.4245 H   0  0  0  0  0  0  0  0  0  0  0  0
  150.2036  140.2216  153.2750 H   0  0  0  0  0  0  0  0  0  0  0  0
  150.3098  137.7531  153.1316 H   0  0  0  0  0  0  0  0  0  0  0  0
  150.0355  137.6100  154.8642 H   0  0  0  0  0  0  0  0  0  0  0  0
  151.5188  138.3400  154.2594 H   0  0  0  0  0  0  0  0  0  0  0  0
  149.4311  142.3611  154.9431 H   0  0  0  0  0  0  0  0  0  0  0  0
  150.4193  142.8230  157.4416 H   0  0  0  0  0  0  0  0  0  0  0  0
  151.4134  140.3464  158.1886 H   0  0  0  0  0  0  0  0  0  0  0  0
  148.4038  137.9769  152.6412 H   0  0  0  0  0  0  0  0  0  0  0  0
  1  2  1  0  0  0  0
  1 16  1  0  0  0  0
  1 17  1  0  0  0  0
  1 18  1  0  0  0  0
  2  3  1  0  0  0  0
  2  9  1  0  0  0  0
  2 19  1  0  0  0  0
  3  4  1  0  0  0  0
  3 20  1  0  0  0  0
  3 34  1  0  0  0  0
  4  5  1  0  0  0  0
  4 21  1  0  0  0  0
  4 22  1  0  0  0  0
  5  6  1  0  0  0  0
  5 23  1  0  0  0  0
  5 24  1  0  0  0  0
  6  7  1  0  0  0  0
  6  8  2  0  0  0  0
  7 25  1  0  0  0  0
  7 26  1  0  0  0  0
  9 10  1  0  0  0  0
  9 11  1  0  0  0  0
  9 27  1  0  0  0  0
 10 28  1  0  0  0  0
 10 29  1  0  0  0  0
 10 30  1  0  0  0  0
 11 15  1  0  0  0  0
 11 12  1  0  0  0  0
 12 13  2  0  0  0  0
 12 31  1  0  0  0  0
 13 14  1  0  0  0  0
 13 32  1  0  0  0  0
 14 15  2  0  0  0  0
 14 33  1  0  0  0  0
M  CHG  1   3   1
M  END
> <s_m_source_file>
AV-unprocessed.smi

> <i_m_source_file_index>
3105

> <i_lp_mmshare_version>
43012

> <i_f3d_flags>
0

> <s_epik_input>
W05IMl1DKD1PKVtDSDJdW0NIMl1bTkhdW0NAQEhdKFtDSDNdKVtDQEhdKFtDSDNdKW4xW2NIXVtjSF1bY0hdbjE=

> <s_epik_cmdline>
J2VwaWtfcHl0aG9uJywgJy1waCcsICc3LjAnLCAnLXRuJywgJzgnLCAnLW1hJywgJzIwMCcsICctbWV0YWxfYmluZGluZycsICctaW1hZScsICc8aW5maWxlLm1hZT4nLCAnLW9tYWUnLCAnPG91dGZpbGUubWFlPic=

> <r_lp_tautomer_probability>
1

> <r_epik_Ionization_Penalty>
0.00475669

> <r_epik_Ionization_Penalty_Charging>
0.00474654

> <r_epik_Ionization_Penalty_Neutral>
1.01546e-05

> <r_epik_State_Penalty>
-0

> <r_epik_Charging_Adjusted_Penalty>
0.00474654

> <i_epik_Tot_Q>
1

> <i_epik_Tot_abs_Q>
1

> <r_epik_Metal_State_Penalty>
-0

> <b_epik_Metal_Only>
0

> <s_lp_Force_Field>
OPLS_2005

> <r_lp_Energy>
9.05092

> <b_lp_Chiralities_Consistent>
1

> <s_lp_Variant>
AV-unprocessed.smi:3105-2

> <Gold.Version>
5.8.1

> <Gold.Id.Protein>
6NUR|6NUR_protein|mol2

> <Gold.PLP.Fitness>
40.1704

> <Gold.PLP.PLP>
-27.6009

> <Gold.PLP.part.hbond>
-3.4010

> <Gold.PLP.part.metal>
0.0000

> <Gold.PLP.part.buried>
-0.3741

> <Gold.PLP.part.nonpolar>
-24.3900

> <Gold.PLP.part.repulsive>
0.2127

> <Gold.PLP.ligand.clash>
0.0000

> <Gold.PLP.ligand.torsion>
0.6604

> <Gold.PLP.Chemscore.Hbond>
3.7840

> <Gold.PLP.Chemscore.CHOScore>
0.8138

> <Gold.PLP.Chemscore.Metal>
0.0000

> <Gold.Chemscore.Hbonds>
donor molecule, donor type, donor heavy atom, donor atom, acceptor molecule, acceptor atom, score
      L1  H     3    20       P1  7957  1.00
      L1  H     3    34       P1  7948  2.00
      L1  H     7    26       P1 10175  0.78
      L1  C    12    31       P1  8028  0.82

> <Gold.PLP.Chemscore.Internal.Correction>
0.0969

> <Gold.Rescore>
     Score         DG    S(hbond)    S(metal)    S(lipo)     H(rot)  DE(clash)    DE(int)     intcor
     13.13     -14.05       2.74        0.00      57.37       2.85       0.27       0.66       ----

> <Gold.Chemscore.Fitness>
13.1257

> <Gold.Chemscore.DG>
-14.0535

> <Gold.Chemscore.ZeroCoef>
-5.4800

> <Gold.Chemscore.Hbond>
2.7396

> <Gold.Chemscore.Metal>
0.0000

> <Gold.Chemscore.Lipo>
57.3720

> <Gold.Chemscore.Internal_Hbond>
0.0000

> <Gold.Chemscore.DEClash>
0.2674

> <Gold.Chemscore.DEInternal>
0.6603

> <Gold.Chemscore.Rot>
2.8473

> <Gold.Chemscore.Internal.Correction>
   9.000000E+99

> <Gold.Chemscore.Hbonds>
donor molecule, donor type, donor heavy atom, donor atom, acceptor molecule, acceptor atom, score
      L1  H     3    20       P1  7957  0.89
      L1  H     3    34       P1  7948  0.95
      L1  H     7    26       P1 10175  0.76

> <Gold.Chemscore.Hbond.Weighted>
-9.1502

> <Gold.Chemscore.Metal.Weighted>
-0.0000

> <Gold.Chemscore.Lipo.Weighted>
-6.7125

> <Gold.Chemscore.Internal_Hbond.Weighted>
0.0000

> <Gold.Chemscore.DEClash.Weighted>
0.2674

> <Gold.Chemscore.DEInternal.Weighted>
0.6603

> <Gold.Chemscore.Rot.Weighted>
7.2892

> <Gold.Chemscore.Internal.Correction.Weighted>
   9.000000E+99

> <Gold.Protein.RotatedTorsions>
[ 6907 6896 6895 6894 ] final -141.91 input  -60.11 | X-H torsion
[ 7974 7965 7964 7962 ] final  168.85 input  175.53 | X-H torsion
[ 8008 7997 7996 7995 ] final -110.87 input   59.86 | X-H torsion
[ 10167 10162 10161 10158 ] final    8.49 input  -65.29 | X-H torsion
[ 10718 10713 10712 10709 ] final  -19.03 input   66.30 | X-H torsion
[ 10763 10752 10751 10750 ] final  143.83 input  -60.55 | X-H torsion
[ 11005 11000 10999 10996 ] final   -4.42 input  -57.11 | X-H torsion

> <Gold.Protein.ActiveResidues>
 VAL166  LYS551  ARG553  GLY616  TRP617  ASP618  TYR619  PRO620  LYS621  CYS622 
 ASP623  PHE694  ASN695  SER759  ASP760  ASP761  ALA762  ILE779  LEU786  VAL792 
 PHE793  MET794  SER795  GLU796  ALA797  LYS798  CYS799  TRP800  GLU811  SER814 

> <Gold.Protein.RotatedAtoms>
  151.0800  133.5397  159.2621 H   0  0  0  0  0  0  0  0  0  0  0  0  # atno 6907 bound_to 6896
  151.2304  135.0551  159.8995 H   0  0  0  0  0  0  0  0  0  0  0  0  # atno 6908 bound_to 6896
  152.5422  134.0590  159.8197 H   0  0  0  0  0  0  0  0  0  0  0  0  # atno 6909 bound_to 6896
  144.7374  139.8968  143.6407 H   0  0  0  0  0  0  0  0  0  0  0  0  # atno 7974 bound_to 7965
  154.9811  140.0396  157.2278 H   0  0  0  0  0  0  0  0  0  0  0  0  # atno 8008 bound_to 7997
  154.7713  140.2802  155.6113 H   0  0  0  0  0  0  0  0  0  0  0  0  # atno 8009 bound_to 7997
  156.2921  140.2609  156.2516 H   0  0  0  0  0  0  0  0  0  0  0  0  # atno 8010 bound_to 7997
  140.6311  143.7992  150.7296 H   0  0  0  0  0  0  0  0  0  0  0  0  # atno 10167 bound_to 10162
  156.5513  130.4702  149.6451 H   0  0  0  0  0  0  0  0  0  0  0  0  # atno 10718 bound_to 10713
  153.9789  135.2943  155.3422 H   0  0  0  0  0  0  0  0  0  0  0  0  # atno 10763 bound_to 10752
  154.7280  135.5080  153.8921 H   0  0  0  0  0  0  0  0  0  0  0  0  # atno 10764 bound_to 10752
  153.0864  135.6694  154.0055 H   0  0  0  0  0  0  0  0  0  0  0  0  # atno 10765 bound_to 10752
  140.6801  133.9161  155.8550 H   0  0  0  0  0  0  0  0  0  0  0  0  # atno 11005 bound_to 11000
  146.1101  139.4105  143.0293 LP  0  0  0  0  0  0  0  0  0  0  0  0  # atno 17320 bound_to 7965
  145.7455  140.9992  143.1278 LP  0  0  0  0  0  0  0  0  0  0  0  0  # atno 17321 bound_to 7965
  140.1603  143.4281  152.2071 LP  0  0  0  0  0  0  0  0  0  0  0  0  # atno 17342 bound_to 10162
  139.5525  144.7348  151.4393 LP  0  0  0  0  0  0  0  0  0  0  0  0  # atno 17343 bound_to 10162
  156.2882  130.7109  151.1951 LP  0  0  0  0  0  0  0  0  0  0  0  0  # atno 17370 bound_to 10713
  157.7387  131.0538  150.5279 LP  0  0  0  0  0  0  0  0  0  0  0  0  # atno 17371 bound_to 10713
  141.0324  134.0737  157.3998 LP  0  0  0  0  0  0  0  0  0  0  0  0  # atno 17394 bound_to 11000
  139.8954  135.0141  156.7001 LP  0  0  0  0  0  0  0  0  0  0  0  0  # atno 17395 bound_to 11000

$$$$
