AV-unprocessed.smi:338|AV-procd|sdf|2374|dock6
  -GOLD-   2262022293D 1   1.00000     0.00000
 Structure written by MMmdl.
 41 43  0  0  0  0  0  0  0  0  1 V2000
  143.3581  135.6111  152.3114 C   0  0  0  0  0  0  0  0  0  0  0  0
  143.9910  136.3855  153.4665 C   0  0  0  0  0  0  0  0  0  0  0  0
  143.5853  136.1754  154.6094 O   0  0  0  0  0  0  0  0  0  0  0  0
  145.0734  137.3590  153.1425 C   0  0  0  0  0  0  0  0  0  0  0  0
  145.5703  137.5039  151.8263 C   0  0  0  0  0  0  0  0  0  0  0  0
  146.5927  138.4300  151.5514 C   0  0  0  0  0  0  0  0  0  0  0  0
  147.1276  139.2195  152.5849 C   0  0  0  0  0  0  0  0  0  0  0  0
  146.6492  139.0966  153.9040 C   0  0  0  0  0  0  0  0  0  0  0  0
  147.2280  139.9094  154.8554 O   0  0  0  0  0  0  0  0  0  0  0  0
  148.5798  140.3095  154.6700 C   0  0  0  0  0  0  0  0  0  0  0  0
  149.0625  141.0466  155.9278 C   0  0  2  0  0  0  0  0  0  0  0  0
  148.2599  142.1971  156.1059 O   0  0  0  0  0  0  0  0  0  0  0  0
  150.5463  141.4536  155.8405 C   0  0  0  0  0  0  0  0  0  0  0  0
  151.2102  141.4132  157.1312 N   0  0  0  0  0  0  0  0  0  0  0  0
  151.4983  140.3169  157.8588 C   0  0  0  0  0  0  0  0  0  0  0  0
  152.1161  140.5022  159.0218 N   0  0  0  0  0  0  0  0  0  0  0  0
  152.2463  141.8801  159.0527 C   0  0  0  0  0  0  0  0  0  0  0  0
  152.8231  142.7256  160.0274 C   0  0  0  0  0  0  0  0  0  0  0  0
  152.8392  144.1238  159.8412 C   0  0  0  0  0  0  0  0  0  0  0  0
  152.2788  144.6974  158.6814 C   0  0  0  0  0  0  0  0  0  0  0  0
  151.6989  143.8754  157.6960 C   0  0  0  0  0  0  0  0  0  0  0  0
  151.6873  142.4807  157.8842 C   0  0  0  0  0  0  0  0  0  0  0  0
  145.6190  138.1600  154.1736 C   0  0  0  0  0  0  0  0  0  0  0  0
  144.1099  135.0163  151.7924 H   0  0  0  0  0  0  0  0  0  0  0  0
  142.8973  136.2954  151.5990 H   0  0  0  0  0  0  0  0  0  0  0  0
  142.5867  134.9355  152.6820 H   0  0  0  0  0  0  0  0  0  0  0  0
  145.1819  136.9141  151.0096 H   0  0  0  0  0  0  0  0  0  0  0  0
  146.9677  138.5352  150.5439 H   0  0  0  0  0  0  0  0  0  0  0  0
  147.9123  139.9278  152.3626 H   0  0  0  0  0  0  0  0  0  0  0  0
  149.2160  139.4440  154.4770 H   0  0  0  0  0  0  0  0  0  0  0  0
  148.6443  140.9772  153.8088 H   0  0  0  0  0  0  0  0  0  0  0  0
  148.9112  140.4035  156.7956 H   0  0  0  0  0  0  0  0  0  0  0  0
  148.7920  142.9612  155.9440 H   0  0  0  0  0  0  0  0  0  0  0  0
  151.0820  140.7876  155.1626 H   0  0  0  0  0  0  0  0  0  0  0  0
  150.6441  142.4585  155.4277 H   0  0  0  0  0  0  0  0  0  0  0  0
  151.2373  139.3266  157.5149 H   0  0  0  0  0  0  0  0  0  0  0  0
  153.2547  142.2976  160.9201 H   0  0  0  0  0  0  0  0  0  0  0  0
  153.2833  144.7596  160.5930 H   0  0  0  0  0  0  0  0  0  0  0  0
  152.2943  145.7691  158.5485 H   0  0  0  0  0  0  0  0  0  0  0  0
  151.2670  144.3113  156.8073 H   0  0  0  0  0  0  0  0  0  0  0  0
  145.2366  138.0437  155.1765 H   0  0  0  0  0  0  0  0  0  0  0  0
  1  2  1  0  0  0  0
  1 24  1  0  0  0  0
  1 25  1  0  0  0  0
  1 26  1  0  0  0  0
  2  3  2  0  0  0  0
  2  4  1  0  0  0  0
  4 23  1  0  0  0  0
  4  5  2  0  0  0  0
  5  6  1  0  0  0  0
  5 27  1  0  0  0  0
  6  7  2  0  0  0  0
  6 28  1  0  0  0  0
  7  8  1  0  0  0  0
  7 29  1  0  0  0  0
  8  9  1  0  0  0  0
  8 23  2  0  0  0  0
  9 10  1  0  0  0  0
 10 11  1  0  0  0  0
 10 30  1  0  0  0  0
 10 31  1  0  0  0  0
 11 12  1  0  0  0  0
 11 13  1  0  0  0  0
 11 32  1  0  0  0  0
 12 33  1  0  0  0  0
 13 14  1  0  0  0  0
 13 34  1  0  0  0  0
 13 35  1  0  0  0  0
 14 22  1  0  0  0  0
 14 15  1  0  0  0  0
 15 16  2  0  0  0  0
 15 36  1  0  0  0  0
 16 17  1  0  0  0  0
 17 22  2  0  0  0  0
 17 18  1  0  0  0  0
 18 19  2  0  0  0  0
 18 37  1  0  0  0  0
 19 20  1  0  0  0  0
 19 38  1  0  0  0  0
 20 21  2  0  0  0  0
 20 39  1  0  0  0  0
 21 22  1  0  0  0  0
 21 40  1  0  0  0  0
 23 41  1  0  0  0  0
M  END
> <s_m_source_file>
AV-unprocessed.smi

> <i_m_source_file_index>
338

> <i_lp_mmshare_version>
43012

> <i_f3d_flags>
0

> <s_epik_input>
W0NIM11DKD1PKWMxW2NIXVtjSF1bY0hdYyhbY0hdMSlPW0NIMl1bQ0BIXShbT0hdKVtDSDJdbihbY0hdbjIpYyhjMjMpW2NIXVtjSF1bY0hdW2NIXTM=

> <s_epik_cmdline>
J2VwaWtfcHl0aG9uJywgJy1waCcsICc3LjAnLCAnLXRuJywgJzgnLCAnLW1hJywgJzIwMCcsICctbWV0YWxfYmluZGluZycsICctaW1hZScsICc8aW5maWxlLm1hZT4nLCAnLW9tYWUnLCAnPG91dGZpbGUubWFlPic=

> <r_lp_tautomer_probability>
0.99995

> <r_epik_Ionization_Penalty>
0.0640132

> <r_epik_Ionization_Penalty_Charging>
0

> <r_epik_Ionization_Penalty_Neutral>
0.0640132

> <r_epik_State_Penalty>
0.0557325

> <r_epik_Charging_Adjusted_Penalty>
0.0557325

> <i_epik_Tot_Q>
0

> <i_epik_Tot_abs_Q>
0

> <r_epik_Metal_State_Penalty>
5.8435e-05

> <b_epik_Metal_Only>
0

> <s_lp_Force_Field>
OPLS_2005

> <r_lp_Energy>
20.8584

> <b_lp_Chiralities_Consistent>
1

> <s_lp_Variant>
AV-unprocessed.smi:338-1

> <Gold.Version>
5.8.1

> <Gold.Id.Protein>
6NUR|6NUR_protein|mol2

> <Gold.PLP.Fitness>
44.2299

> <Gold.PLP.PLP>
-42.9622

> <Gold.PLP.part.hbond>
-1.0000

> <Gold.PLP.part.metal>
0.0000

> <Gold.PLP.part.buried>
-0.5086

> <Gold.PLP.part.nonpolar>
-42.6969

> <Gold.PLP.part.repulsive>
0.1024

> <Gold.PLP.ligand.clash>
0.0000

> <Gold.PLP.ligand.torsion>
0.9039

> <Gold.PLP.Chemscore.Hbond>
1.0000

> <Gold.PLP.Chemscore.CHOScore>
0.0000

> <Gold.PLP.Chemscore.Metal>
0.0000

> <Gold.Chemscore.Hbonds>
donor molecule, donor type, donor heavy atom, donor atom, acceptor molecule, acceptor atom, score
      L1  H    12    33       P1  8028  0.96

> <Gold.PLP.Chemscore.Internal.Correction>
0.0756

> <Gold.Rescore>
     Score         DG    S(hbond)    S(metal)    S(lipo)     H(rot)  DE(clash)    DE(int)     intcor
     16.09     -16.96       0.95        0.00     123.40       2.40       0.05       0.83       ----

> <Gold.Chemscore.Fitness>
16.0862

> <Gold.Chemscore.DG>
-16.9606

> <Gold.Chemscore.ZeroCoef>
-5.4800

> <Gold.Chemscore.Hbond>
0.9546

> <Gold.Chemscore.Metal>
0.0000

> <Gold.Chemscore.Lipo>
123.3979

> <Gold.Chemscore.Internal_Hbond>
0.0000

> <Gold.Chemscore.DEClash>
0.0491

> <Gold.Chemscore.DEInternal>
0.8254

> <Gold.Chemscore.Rot>
2.4005

> <Gold.Chemscore.Internal.Correction>
   9.000000E+99

> <Gold.Chemscore.Hbonds>
donor molecule, donor type, donor heavy atom, donor atom, acceptor molecule, acceptor atom, score
      L1  H    12    33       P1  8028  0.92

> <Gold.Chemscore.Hbond.Weighted>
-3.1883

> <Gold.Chemscore.Metal.Weighted>
-0.0000

> <Gold.Chemscore.Lipo.Weighted>
-14.4376

> <Gold.Chemscore.Internal_Hbond.Weighted>
0.0000

> <Gold.Chemscore.DEClash.Weighted>
0.0491

> <Gold.Chemscore.DEInternal.Weighted>
0.8254

> <Gold.Chemscore.Rot.Weighted>
6.1453

> <Gold.Chemscore.Internal.Correction.Weighted>
   9.000000E+99

> <Gold.Protein.RotatedTorsions>
[ 6907 6896 6895 6894 ] final  141.70 input  -60.11 | X-H torsion
[ 7974 7965 7964 7962 ] final  129.78 input  175.53 | X-H torsion
[ 8008 7997 7996 7995 ] final  170.08 input   59.86 | X-H torsion
[ 10167 10162 10161 10158 ] final -132.98 input  -65.29 | X-H torsion
[ 10718 10713 10712 10709 ] final -110.03 input   66.30 | X-H torsion
[ 10763 10752 10751 10750 ] final -153.69 input  -60.55 | X-H torsion
[ 11005 11000 10999 10996 ] final   58.49 input  -57.11 | X-H torsion

> <Gold.Protein.ActiveResidues>
 VAL166  LYS551  ARG553  GLY616  TRP617  ASP618  TYR619  PRO620  LYS621  CYS622 
 ASP623  PHE694  ASN695  SER759  ASP760  ASP761  ALA762  ILE779  LEU786  VAL792 
 PHE793  MET794  SER795  GLU796  ALA797  LYS798  CYS799  TRP800  GLU811  SER814 

> <Gold.Protein.RotatedAtoms>
  152.2278  133.5034  159.5198 H   0  0  0  0  0  0  0  0  0  0  0  0  # atno 6907 bound_to 6896
  150.7029  134.1257  159.4060 H   0  0  0  0  0  0  0  0  0  0  0  0  # atno 6908 bound_to 6896
  151.9178  135.0311  160.0570 H   0  0  0  0  0  0  0  0  0  0  0  0  # atno 6909 bound_to 6896
  145.0250  139.4097  143.5178 H   0  0  0  0  0  0  0  0  0  0  0  0  # atno 7974 bound_to 7965
  156.1398  140.1547  156.8938 H   0  0  0  0  0  0  0  0  0  0  0  0  # atno 8008 bound_to 7997
  154.4978  140.0833  156.7772 H   0  0  0  0  0  0  0  0  0  0  0  0  # atno 8009 bound_to 7997
  155.4100  140.3418  155.4265 H   0  0  0  0  0  0  0  0  0  0  0  0  # atno 8010 bound_to 7997
  139.9030  143.6585  152.2591 H   0  0  0  0  0  0  0  0  0  0  0  0  # atno 10167 bound_to 10162
  156.0568  130.5794  150.8181 H   0  0  0  0  0  0  0  0  0  0  0  0  # atno 10718 bound_to 10713
  154.7910  135.3207  154.7776 H   0  0  0  0  0  0  0  0  0  0  0  0  # atno 10763 bound_to 10752
  153.8465  135.6866  153.4801 H   0  0  0  0  0  0  0  0  0  0  0  0  # atno 10764 bound_to 10752
  153.1581  135.4672  154.9673 H   0  0  0  0  0  0  0  0  0  0  0  0  # atno 10765 bound_to 10752
  140.0374  134.5924  155.9426 H   0  0  0  0  0  0  0  0  0  0  0  0  # atno 11005 bound_to 11000
  146.3491  139.9768  142.8700 LP  0  0  0  0  0  0  0  0  0  0  0  0  # atno 17320 bound_to 7965
  145.1846  140.9783  143.4246 LP  0  0  0  0  0  0  0  0  0  0  0  0  # atno 17321 bound_to 7965
  139.7009  144.7635  151.1275 LP  0  0  0  0  0  0  0  0  0  0  0  0  # atno 17342 bound_to 10162
  140.7703  143.5459  150.9259 LP  0  0  0  0  0  0  0  0  0  0  0  0  # atno 17343 bound_to 10162
  157.5545  131.0944  150.9648 LP  0  0  0  0  0  0  0  0  0  0  0  0  # atno 17370 bound_to 10713
  156.9900  130.5559  149.5302 LP  0  0  0  0  0  0  0  0  0  0  0  0  # atno 17371 bound_to 10713
  141.1864  133.6557  156.5240 LP  0  0  0  0  0  0  0  0  0  0  0  0  # atno 17394 bound_to 11000
  140.4125  134.7259  157.4844 LP  0  0  0  0  0  0  0  0  0  0  0  0  # atno 17395 bound_to 11000

$$$$
