AV-unprocessed.smi:2596|AV-procd|sdf|10169|dock4
  -GOLD-   2272014183D 1   1.00000     0.00000
 Structure written by MMmdl.
 32 33  0  0  0  0  0  0  0  0  1 V2000
  152.2047  140.1452  156.7032 O   0  0  0  0  0  0  0  0  0  0  0  0
  151.5632  141.1473  157.0171 C   0  0  0  0  0  0  0  0  0  0  0  0
  150.7373  141.8894  155.9615 C   0  0  0  0  0  0  0  0  0  0  0  0
  149.6443  141.0542  155.4376 N   0  0  0  0  0  0  0  0  0  0  0  0
  148.3281  141.5017  155.6701 C   0  0  0  0  0  0  0  0  0  0  0  0
  147.2630  140.8198  155.2218 C   0  0  0  0  0  0  0  0  0  0  0  0
  146.0179  141.2682  155.4494 F   0  0  0  0  0  0  0  0  0  0  0  0
  147.4816  139.5981  154.4863 C   0  0  0  0  0  0  0  0  0  0  0  0
  148.7369  139.1635  154.2583 C   0  0  0  0  0  0  0  0  0  0  0  0
  149.9089  139.9038  154.7424 C   0  0  0  0  0  0  0  0  0  0  0  0
  151.0576  139.5130  154.5344 O   0  0  0  0  0  0  0  0  0  0  0  0
  151.5536  141.6652  158.2554 N   0  0  0  0  0  0  0  0  0  0  0  0
  152.3406  141.1759  159.3803 C   0  0  0  0  0  0  0  0  0  0  0  0
  152.8939  142.3411  160.1958 C   0  0  0  0  0  0  0  0  0  0  0  0
  153.1696  142.1704  161.6983 C   0  0  0  0  0  0  0  0  0  0  0  0
  152.7480  143.6291  161.8930 C   0  0  0  0  0  0  0  0  0  0  0  0
  151.9720  143.5083  160.5785 C   0  0  0  0  0  0  0  0  0  0  0  0
  150.3417  142.8116  156.3915 H   0  0  0  0  0  0  0  0  0  0  0  0
  151.4007  142.2124  155.1576 H   0  0  0  0  0  0  0  0  0  0  0  0
  148.2448  142.4267  156.2222 H   0  0  0  0  0  0  0  0  0  0  0  0
  146.6388  139.0316  154.1181 H   0  0  0  0  0  0  0  0  0  0  0  0
  148.8869  138.2473  153.7061 H   0  0  0  0  0  0  0  0  0  0  0  0
  150.9925  142.4885  158.4193 H   0  0  0  0  0  0  0  0  0  0  0  0
  151.6916  140.5584  160.0014 H   0  0  0  0  0  0  0  0  0  0  0  0
  153.1446  140.5215  159.0391 H   0  0  0  0  0  0  0  0  0  0  0  0
  153.7898  142.7494  159.7227 H   0  0  0  0  0  0  0  0  0  0  0  0
  152.4863  141.4676  162.1778 H   0  0  0  0  0  0  0  0  0  0  0  0
  154.2086  141.9538  161.9487 H   0  0  0  0  0  0  0  0  0  0  0  0
  152.1320  143.8140  162.7734 H   0  0  0  0  0  0  0  0  0  0  0  0
  153.5864  144.3245  161.8286 H   0  0  0  0  0  0  0  0  0  0  0  0
  152.0409  144.3782  159.9245 H   0  0  0  0  0  0  0  0  0  0  0  0
  150.9361  143.1999  160.7293 H   0  0  0  0  0  0  0  0  0  0  0  0
  1  2  2  0  0  0  0
  2  3  1  0  0  0  0
  2 12  1  0  0  0  0
  3  4  1  0  0  0  0
  3 18  1  0  0  0  0
  3 19  1  0  0  0  0
  4 10  1  0  0  0  0
  4  5  1  0  0  0  0
  5  6  2  0  0  0  0
  5 20  1  0  0  0  0
  6  7  1  0  0  0  0
  6  8  1  0  0  0  0
  8  9  2  0  0  0  0
  8 21  1  0  0  0  0
  9 10  1  0  0  0  0
  9 22  1  0  0  0  0
 10 11  2  0  0  0  0
 12 13  1  0  0  0  0
 12 23  1  0  0  0  0
 13 14  1  0  0  0  0
 13 24  1  0  0  0  0
 13 25  1  0  0  0  0
 14 17  1  0  0  0  0
 14 15  1  0  0  0  0
 14 26  1  0  0  0  0
 15 16  1  0  0  0  0
 15 27  1  0  0  0  0
 15 28  1  0  0  0  0
 16 17  1  0  0  0  0
 16 29  1  0  0  0  0
 16 30  1  0  0  0  0
 17 31  1  0  0  0  0
 17 32  1  0  0  0  0
M  END
> <s_m_source_file>
AV-unprocessed.smi

> <i_m_source_file_index>
2596

> <i_lp_mmshare_version>
43012

> <i_f3d_flags>
0

> <s_epik_input>
W0NIMl0xW0NIMl1bQ0gyXVtDSF0xW0NIMl1bTkhdQyg9TylbQ0gyXW4yW2NIXWMoRilbY0hdW2NIXWMyPU8=

> <s_epik_cmdline>
J2VwaWtfcHl0aG9uJywgJy1waCcsICc3LjAnLCAnLXRuJywgJzgnLCAnLW1hJywgJzIwMCcsICctbWV0YWxfYmluZGluZycsICctaW1hZScsICc8aW5maWxlLm1hZT4nLCAnLW9tYWUnLCAnPG91dGZpbGUubWFlPic=

> <r_lp_tautomer_probability>
1

> <r_epik_Ionization_Penalty>
2.75493e-07

> <r_epik_Ionization_Penalty_Charging>
2.56191e-07

> <r_epik_Ionization_Penalty_Neutral>
1.93017e-08

> <r_epik_State_Penalty>
-0

> <r_epik_Charging_Adjusted_Penalty>
2.56191e-07

> <i_epik_Tot_Q>
0

> <i_epik_Tot_abs_Q>
0

> <r_epik_Metal_State_Penalty>
-0

> <b_epik_Metal_Only>
0

> <s_lp_Force_Field>
OPLS_2005

> <r_lp_Energy>
22.7993

> <b_lp_Chiralities_Consistent>
1

> <s_lp_Variant>
AV-unprocessed.smi:2596-1

> <Gold.Version>
5.8.1

> <Gold.Id.Protein>
6NUR|6NUR_protein|mol2

> <Gold.PLP.Fitness>
42.0329

> <Gold.PLP.PLP>
-34.2778

> <Gold.PLP.part.hbond>
-1.9894

> <Gold.PLP.part.metal>
0.0000

> <Gold.PLP.part.buried>
-3.3998

> <Gold.PLP.part.nonpolar>
-27.1669

> <Gold.PLP.part.repulsive>
0.1871

> <Gold.PLP.ligand.clash>
0.0000

> <Gold.PLP.ligand.torsion>
0.3815

> <Gold.PLP.Chemscore.Hbond>
1.8113

> <Gold.PLP.Chemscore.CHOScore>
1.0000

> <Gold.PLP.Chemscore.Metal>
0.0000

> <Gold.Chemscore.Hbonds>
donor molecule, donor type, donor heavy atom, donor atom, acceptor molecule, acceptor atom, score
      P1  H  7989  7998       L1    11  0.95
      P1  H  7997  8009       L1     1  0.71
      L1  C     5    20       P1  8028  1.00

> <Gold.PLP.Chemscore.Internal.Correction>
0.0842

> <Gold.Rescore>
     Score         DG    S(hbond)    S(metal)    S(lipo)     H(rot)  DE(clash)    DE(int)     intcor
     14.02     -15.99       1.79        0.00      76.10       1.71       0.06       1.91       ----

> <Gold.Chemscore.Fitness>
14.0191

> <Gold.Chemscore.DG>
-15.9862

> <Gold.Chemscore.ZeroCoef>
-5.4800

> <Gold.Chemscore.Hbond>
1.7889

> <Gold.Chemscore.Metal>
0.0000

> <Gold.Chemscore.Lipo>
76.0951

> <Gold.Chemscore.Internal_Hbond>
0.0000

> <Gold.Chemscore.DEClash>
0.0601

> <Gold.Chemscore.DEInternal>
1.9070

> <Gold.Chemscore.Rot>
1.7078

> <Gold.Chemscore.Internal.Correction>
   9.000000E+99

> <Gold.Chemscore.Hbonds>
donor molecule, donor type, donor heavy atom, donor atom, acceptor molecule, acceptor atom, score
      P1  H  7989  7998       L1    11  0.22
      P1  H  7997  8009       L1     1  0.69

> <Gold.Chemscore.Hbond.Weighted>
-5.9750

> <Gold.Chemscore.Metal.Weighted>
-0.0000

> <Gold.Chemscore.Lipo.Weighted>
-8.9031

> <Gold.Chemscore.Internal_Hbond.Weighted>
0.0000

> <Gold.Chemscore.DEClash.Weighted>
0.0601

> <Gold.Chemscore.DEInternal.Weighted>
1.9070

> <Gold.Chemscore.Rot.Weighted>
4.3719

> <Gold.Chemscore.Internal.Correction.Weighted>
   9.000000E+99

> <Gold.Protein.RotatedTorsions>
[ 6907 6896 6895 6894 ] final   15.89 input  -60.11 | X-H torsion
[ 7974 7965 7964 7962 ] final -177.52 input  175.53 | X-H torsion
[ 8008 7997 7996 7995 ] final -168.62 input   59.86 | X-H torsion
[ 10167 10162 10161 10158 ] final -164.19 input  -65.29 | X-H torsion
[ 10718 10713 10712 10709 ] final -119.34 input   66.30 | X-H torsion
[ 10763 10752 10751 10750 ] final -132.23 input  -60.55 | X-H torsion
[ 11005 11000 10999 10996 ] final   50.45 input  -57.11 | X-H torsion

> <Gold.Protein.ActiveResidues>
 VAL166  LYS551  ARG553  GLY616  TRP617  ASP618  TYR619  PRO620  LYS621  CYS622 
 ASP623  PHE694  ASN695  SER759  ASP760  ASP761  ALA762  ILE779  LEU786  VAL792 
 PHE793  MET794  SER795  GLU796  ALA797  LYS798  CYS799  TRP800  GLU811  SER814 

> <Gold.Protein.RotatedAtoms>
  151.8253  135.0639  160.0429 H   0  0  0  0  0  0  0  0  0  0  0  0  # atno 6907 bound_to 6896
  152.2921  133.5567  159.5572 H   0  0  0  0  0  0  0  0  0  0  0  0  # atno 6908 bound_to 6896
  150.7234  134.0330  159.3782 H   0  0  0  0  0  0  0  0  0  0  0  0  # atno 6909 bound_to 6896
  144.7128  140.1007  143.6416 H   0  0  0  0  0  0  0  0  0  0  0  0  # atno 7974 bound_to 7965
  155.8938  140.1029  157.1399 H   0  0  0  0  0  0  0  0  0  0  0  0  # atno 8008 bound_to 7997
  154.4018  140.1305  156.4414 H   0  0  0  0  0  0  0  0  0  0  0  0  # atno 8009 bound_to 7997
  155.7502  140.3465  155.5149 H   0  0  0  0  0  0  0  0  0  0  0  0  # atno 8010 bound_to 7997
  139.6268  144.0517  152.1981 H   0  0  0  0  0  0  0  0  0  0  0  0  # atno 10167 bound_to 10162
  156.1174  130.6296  150.9404 H   0  0  0  0  0  0  0  0  0  0  0  0  # atno 10718 bound_to 10713
  154.8745  135.3804  154.4375 H   0  0  0  0  0  0  0  0  0  0  0  0  # atno 10763 bound_to 10752
  153.5063  135.7030  153.5809 H   0  0  0  0  0  0  0  0  0  0  0  0  # atno 10764 bound_to 10752
  153.4119  135.3923  155.2022 H   0  0  0  0  0  0  0  0  0  0  0  0  # atno 10765 bound_to 10752
  140.1017  134.5073  155.8757 H   0  0  0  0  0  0  0  0  0  0  0  0  # atno 11005 bound_to 11000
  145.9540  139.2753  143.1195 LP  0  0  0  0  0  0  0  0  0  0  0  0  # atno 17320 bound_to 7965
  145.9292  140.9060  143.0365 LP  0  0  0  0  0  0  0  0  0  0  0  0  # atno 17321 bound_to 7965
  140.0173  144.6179  150.7596 LP  0  0  0  0  0  0  0  0  0  0  0  0  # atno 17342 bound_to 10162
  140.7415  143.2819  151.3573 LP  0  0  0  0  0  0  0  0  0  0  0  0  # atno 17343 bound_to 10162
  157.6357  131.0916  150.8353 LP  0  0  0  0  0  0  0  0  0  0  0  0  # atno 17370 bound_to 10713
  156.8455  130.5062  149.5317 LP  0  0  0  0  0  0  0  0  0  0  0  0  # atno 17371 bound_to 10713
  141.2107  133.6698  156.6530 LP  0  0  0  0  0  0  0  0  0  0  0  0  # atno 17394 bound_to 11000
  140.3211  134.8007  157.4253 LP  0  0  0  0  0  0  0  0  0  0  0  0  # atno 17395 bound_to 11000

$$$$
