AV-unprocessed.smi:2466|AV-procd|sdf|9724|dock7
  -GOLD-   2272013363D 1   1.00000     0.00000
 Structure written by MMmdl.
 36 37  0  0  0  0  0  0  0  0  1 V2000
  138.7053  138.1696  153.5668 C   0  0  0  0  0  0  0  0  0  0  0  0
  139.1083  136.9143  154.1028 O   0  0  0  0  0  0  0  0  0  0  0  0
  140.3949  136.4827  153.8545 C   0  0  0  0  0  0  0  0  0  0  0  0
  141.4210  137.4339  153.6813 C   0  0  0  0  0  0  0  0  0  0  0  0
  142.7250  136.9501  153.4323 C   0  0  0  0  0  0  0  0  0  0  0  0
  143.7291  137.9410  153.2699 N   0  0  0  0  0  0  0  0  0  0  0  0
  145.0619  137.7957  153.3722 C   0  0  0  0  0  0  0  0  0  0  0  0
  145.6456  136.7383  153.6113 O   0  0  0  0  0  0  0  0  0  0  0  0
  145.6923  138.9633  153.1760 N   0  0  0  0  0  0  0  0  0  0  0  0
  147.1378  139.1718  153.2283 C   0  0  0  0  0  0  0  0  0  0  0  0
  147.5244  140.3762  154.1013 C   0  0  0  0  0  0  0  0  0  0  0  0
  146.7820  141.6155  153.5791 C   0  0  0  0  0  0  0  0  0  0  0  0
  147.4485  140.1584  155.6281 C   0  0  0  0  0  0  0  0  0  0  0  0
  148.7624  140.9216  155.7848 C   0  0  0  0  0  0  0  0  0  0  0  0
  149.0393  140.5777  154.3221 C   0  0  0  0  0  0  0  0  0  0  0  0
  142.9497  135.6145  153.3650 N   0  0  0  0  0  0  0  0  0  0  0  0
  141.9108  134.7960  153.5418 C   0  0  0  0  0  0  0  0  0  0  0  0
  140.6490  135.1537  153.7828 N   0  0  0  0  0  0  0  0  0  0  0  0
  137.6711  138.3672  153.8486 H   0  0  0  0  0  0  0  0  0  0  0  0
  138.7572  138.1726  152.4771 H   0  0  0  0  0  0  0  0  0  0  0  0
  139.3163  138.9850  153.9567 H   0  0  0  0  0  0  0  0  0  0  0  0
  141.2104  138.4919  153.7407 H   0  0  0  0  0  0  0  0  0  0  0  0
  143.3932  138.8700  153.0641 H   0  0  0  0  0  0  0  0  0  0  0  0
  145.1287  139.7775  152.9792 H   0  0  0  0  0  0  0  0  0  0  0  0
  147.5726  138.2585  153.6353 H   0  0  0  0  0  0  0  0  0  0  0  0
  147.5609  139.2698  152.2270 H   0  0  0  0  0  0  0  0  0  0  0  0
  147.1223  142.5275  154.0698 H   0  0  0  0  0  0  0  0  0  0  0  0
  145.7079  141.5476  153.7526 H   0  0  0  0  0  0  0  0  0  0  0  0
  146.9350  141.7535  152.5083 H   0  0  0  0  0  0  0  0  0  0  0  0
  146.5920  140.6258  156.1151 H   0  0  0  0  0  0  0  0  0  0  0  0
  147.5414  139.1094  155.9156 H   0  0  0  0  0  0  0  0  0  0  0  0
  148.6188  141.9897  155.9537 H   0  0  0  0  0  0  0  0  0  0  0  0
  149.4627  140.4862  156.4983 H   0  0  0  0  0  0  0  0  0  0  0  0
  149.6156  139.6568  154.2161 H   0  0  0  0  0  0  0  0  0  0  0  0
  149.4838  141.3878  153.7428 H   0  0  0  0  0  0  0  0  0  0  0  0
  142.1127  133.7365  153.4849 H   0  0  0  0  0  0  0  0  0  0  0  0
  1  2  1  0  0  0  0
  1 19  1  0  0  0  0
  1 20  1  0  0  0  0
  1 21  1  0  0  0  0
  2  3  1  0  0  0  0
  3 18  1  0  0  0  0
  3  4  2  0  0  0  0
  4  5  1  0  0  0  0
  4 22  1  0  0  0  0
  5  6  1  0  0  0  0
  5 16  2  0  0  0  0
  6  7  1  0  0  0  0
  6 23  1  0  0  0  0
  7  8  2  0  0  0  0
  7  9  1  0  0  0  0
  9 10  1  0  0  0  0
  9 24  1  0  0  0  0
 10 11  1  0  0  0  0
 10 25  1  0  0  0  0
 10 26  1  0  0  0  0
 11 15  1  0  0  0  0
 11 12  1  0  0  0  0
 11 13  1  0  0  0  0
 12 27  1  0  0  0  0
 12 28  1  0  0  0  0
 12 29  1  0  0  0  0
 13 14  1  0  0  0  0
 13 30  1  0  0  0  0
 13 31  1  0  0  0  0
 14 15  1  0  0  0  0
 14 32  1  0  0  0  0
 14 33  1  0  0  0  0
 15 34  1  0  0  0  0
 15 35  1  0  0  0  0
 16 17  1  0  0  0  0
 17 18  2  0  0  0  0
 17 36  1  0  0  0  0
M  END
> <s_m_source_file>
AV-unprocessed.smi

> <i_m_source_file_index>
2466

> <i_lp_mmshare_version>
43012

> <i_f3d_flags>
0

> <s_epik_input>
W0NIM11PYzFbY0hdYyhuW2NIXW4xKVtOSF1DKD1PKVtOSF1bQ0gyXUMyKFtDSDNdKVtDSDJdW0NIMl1bQ0gyXTI=

> <s_epik_cmdline>
J2VwaWtfcHl0aG9uJywgJy1waCcsICc3LjAnLCAnLXRuJywgJzgnLCAnLW1hJywgJzIwMCcsICctbWV0YWxfYmluZGluZycsICctaW1hZScsICc8aW5maWxlLm1hZT4nLCAnLW9tYWUnLCAnPG91dGZpbGUubWFlPic=

> <r_lp_tautomer_probability>
1

> <r_epik_Ionization_Penalty>
2.72078e-05

> <r_epik_Ionization_Penalty_Charging>
0

> <r_epik_Ionization_Penalty_Neutral>
2.72078e-05

> <r_epik_State_Penalty>
-0

> <r_epik_Charging_Adjusted_Penalty>
0

> <i_epik_Tot_Q>
0

> <i_epik_Tot_abs_Q>
0

> <r_epik_Metal_State_Penalty>
-0

> <b_epik_Metal_Only>
0

> <s_lp_Force_Field>
OPLS_2005

> <r_lp_Energy>
15.1515

> <b_lp_Chiralities_Consistent>
1

> <s_lp_Variant>
AV-unprocessed.smi:2466-1

> <Gold.Version>
5.8.1

> <Gold.Id.Protein>
6NUR|6NUR_protein|mol2

> <Gold.PLP.Fitness>
38.2876

> <Gold.PLP.PLP>
-28.1449

> <Gold.PLP.part.hbond>
-3.4149

> <Gold.PLP.part.metal>
0.0000

> <Gold.PLP.part.buried>
-6.2779

> <Gold.PLP.part.nonpolar>
-19.9938

> <Gold.PLP.part.repulsive>
0.5056

> <Gold.PLP.ligand.clash>
0.0000

> <Gold.PLP.ligand.torsion>
0.5870

> <Gold.PLP.Chemscore.Hbond>
2.7313

> <Gold.PLP.Chemscore.CHOScore>
1.0000

> <Gold.PLP.Chemscore.Metal>
0.0000

> <Gold.Chemscore.Hbonds>
donor molecule, donor type, donor heavy atom, donor atom, acceptor molecule, acceptor atom, score
      L1  H     6    23       P1 10175  1.00
      L1  H     9    24       P1 10175  1.00
      P1  H 11000 11005       L1    18  0.73
      L1  C    17    36       P1 10957  1.00

> <Gold.PLP.Chemscore.Internal.Correction>
0.1229

> <Gold.Rescore>
     Score         DG    S(hbond)    S(metal)    S(lipo)     H(rot)  DE(clash)    DE(int)     intcor
     13.59     -15.44       2.54        0.00      48.19       1.62       0.06       1.79       ----

> <Gold.Chemscore.Fitness>
13.5869

> <Gold.Chemscore.DG>
-15.4364

> <Gold.Chemscore.ZeroCoef>
-5.4800

> <Gold.Chemscore.Hbond>
2.5352

> <Gold.Chemscore.Metal>
0.0000

> <Gold.Chemscore.Lipo>
48.1876

> <Gold.Chemscore.Internal_Hbond>
0.0000

> <Gold.Chemscore.DEClash>
0.0634

> <Gold.Chemscore.DEInternal>
1.7861

> <Gold.Chemscore.Rot>
1.6207

> <Gold.Chemscore.Internal.Correction>
   9.000000E+99

> <Gold.Chemscore.Hbonds>
donor molecule, donor type, donor heavy atom, donor atom, acceptor molecule, acceptor atom, score
      L1  H     6    23       P1 10175  0.96
      L1  H     9    24       P1 10175  0.95
      P1  H 11000 11005       L1    18  0.18

> <Gold.Chemscore.Hbond.Weighted>
-8.4676

> <Gold.Chemscore.Metal.Weighted>
-0.0000

> <Gold.Chemscore.Lipo.Weighted>
-5.6379

> <Gold.Chemscore.Internal_Hbond.Weighted>
0.0000

> <Gold.Chemscore.DEClash.Weighted>
0.0634

> <Gold.Chemscore.DEInternal.Weighted>
1.7861

> <Gold.Chemscore.Rot.Weighted>
4.1491

> <Gold.Chemscore.Internal.Correction.Weighted>
   9.000000E+99

> <Gold.Protein.RotatedTorsions>
[ 6907 6896 6895 6894 ] final  128.63 input  -60.11 | X-H torsion
[ 7974 7965 7964 7962 ] final   65.69 input  175.53 | X-H torsion
[ 8008 7997 7996 7995 ] final -157.23 input   59.86 | X-H torsion
[ 10167 10162 10161 10158 ] final  -27.88 input  -65.29 | X-H torsion
[ 10718 10713 10712 10709 ] final   51.44 input   66.30 | X-H torsion
[ 10763 10752 10751 10750 ] final  173.17 input  -60.55 | X-H torsion
[ 11005 11000 10999 10996 ] final   36.20 input  -57.11 | X-H torsion

> <Gold.Protein.ActiveResidues>
 VAL166  LYS551  ARG553  GLY616  TRP617  ASP618  TYR619  PRO620  LYS621  CYS622 
 ASP623  PHE694  ASN695  SER759  ASP760  ASP761  ALA762  ILE779  LEU786  VAL792 
 PHE793  MET794  SER795  GLU796  ALA797  LYS798  CYS799  TRP800  GLU811  SER814 

> <Gold.Protein.RotatedAtoms>
  152.3701  133.6408  159.6080 H   0  0  0  0  0  0  0  0  0  0  0  0  # atno 6907 bound_to 6896
  150.7662  133.9284  159.3428 H   0  0  0  0  0  0  0  0  0  0  0  0  # atno 6908 bound_to 6896
  151.7108  135.0914  160.0318 H   0  0  0  0  0  0  0  0  0  0  0  0  # atno 6909 bound_to 6896
  145.8355  139.3164  143.0962 H   0  0  0  0  0  0  0  0  0  0  0  0  # atno 7974 bound_to 7965
  155.7292  140.0800  157.2296 H   0  0  0  0  0  0  0  0  0  0  0  0  # atno 8008 bound_to 7997
  154.4035  140.1598  156.2544 H   0  0  0  0  0  0  0  0  0  0  0  0  # atno 8009 bound_to 7997
  155.9124  140.3403  155.6112 H   0  0  0  0  0  0  0  0  0  0  0  0  # atno 8010 bound_to 7997
  140.7274  143.4056  151.1191 H   0  0  0  0  0  0  0  0  0  0  0  0  # atno 10167 bound_to 10162
  157.4981  130.8419  149.8283 H   0  0  0  0  0  0  0  0  0  0  0  0  # atno 10718 bound_to 10713
  154.4364  135.2761  155.1878 H   0  0  0  0  0  0  0  0  0  0  0  0  # atno 10763 bound_to 10752
  154.3762  135.6097  153.5770 H   0  0  0  0  0  0  0  0  0  0  0  0  # atno 10764 bound_to 10752
  152.9838  135.5869  154.4684 H   0  0  0  0  0  0  0  0  0  0  0  0  # atno 10765 bound_to 10752
  140.2350  134.3483  155.7948 H   0  0  0  0  0  0  0  0  0  0  0  0  # atno 11005 bound_to 11000
  145.9524  140.8898  143.0252 LP  0  0  0  0  0  0  0  0  0  0  0  0  # atno 17320 bound_to 7965
  144.6737  140.1698  143.7415 LP  0  0  0  0  0  0  0  0  0  0  0  0  # atno 17321 bound_to 7965
  139.7682  143.8533  152.3115 LP  0  0  0  0  0  0  0  0  0  0  0  0  # atno 17342 bound_to 10162
  139.8442  144.7195  150.9293 LP  0  0  0  0  0  0  0  0  0  0  0  0  # atno 17343 bound_to 10162
  156.0212  130.3795  150.1956 LP  0  0  0  0  0  0  0  0  0  0  0  0  # atno 17370 bound_to 10713
  157.0145  130.9961  151.3357 LP  0  0  0  0  0  0  0  0  0  0  0  0  # atno 17371 bound_to 10713
  141.2215  133.7266  156.8792 LP  0  0  0  0  0  0  0  0  0  0  0  0  # atno 17394 bound_to 11000
  140.1712  134.9099  157.2835 LP  0  0  0  0  0  0  0  0  0  0  0  0  # atno 17395 bound_to 11000

$$$$
