AV-unprocessed.smi:1352|AV-procd|sdf|5529|dock10
  -GOLD-   22720 5123D 1   1.00000     0.00000
 Structure written by MMmdl.
 47 48  0  0  0  0  0  0  0  0  2 V2000
  144.4201  132.9683  149.6873 C   0  0  0  0  0  0  0  0  0  0  0  0
  145.1623  133.1253  151.0220 C   0  0  1  0  0  0  0  0  0  0  0  0
  145.8776  131.8223  151.4210 C   0  0  0  0  0  0  0  0  0  0  0  0
  146.6602  132.0007  152.7336 C   0  0  1  0  0  0  0  0  0  0  0  0
  147.3982  130.7126  153.1242 C   0  0  0  0  0  0  0  0  0  0  0  0
  147.6339  133.1913  152.6101 C   0  0  0  0  0  0  0  0  0  0  0  0
  146.9355  134.4494  152.2367 N   0  3  2  0  0  0  0  0  0  0  0  0
  146.1767  135.0626  153.3595 C   0  0  0  0  0  0  0  0  0  0  0  0
  147.0969  135.5249  154.5054 C   0  0  0  0  0  0  0  0  0  0  0  0
  147.8469  136.7215  154.1421 N   0  0  0  0  0  0  0  0  0  0  0  0
  147.7419  137.9104  154.7547 C   0  0  0  0  0  0  0  0  0  0  0  0
  146.9676  138.1171  155.6902 O   0  0  0  0  0  0  0  0  0  0  0  0
  148.6356  139.0320  154.2056 C   0  0  0  0  0  0  0  0  0  0  0  0
  150.0127  138.9903  154.7254 N   0  0  0  0  0  0  0  0  0  0  0  0
  150.8132  137.8977  154.3361 C   0  0  0  0  0  0  0  0  0  0  0  0
  152.0822  137.7633  154.7525 C   0  0  0  0  0  0  0  0  0  0  0  0
  152.6256  138.7776  155.6246 C   0  0  0  0  0  0  0  0  0  0  0  0
  151.8698  139.8287  156.0001 C   0  0  0  0  0  0  0  0  0  0  0  0
  150.4831  139.9812  155.5447 C   0  0  0  0  0  0  0  0  0  0  0  0
  149.7869  140.9407  155.8782 O   0  0  0  0  0  0  0  0  0  0  0  0
  146.1680  134.2970  150.9700 C   0  0  0  0  0  0  0  0  0  0  0  0
  145.1098  132.7446  148.8727 H   0  0  0  0  0  0  0  0  0  0  0  0
  143.8825  133.8804  149.4271 H   0  0  0  0  0  0  0  0  0  0  0  0
  143.6904  132.1596  149.7368 H   0  0  0  0  0  0  0  0  0  0  0  0
  144.4094  133.3431  151.7798 H   0  0  0  0  0  0  0  0  0  0  0  0
  145.1493  131.0175  151.5288 H   0  0  0  0  0  0  0  0  0  0  0  0
  146.5594  131.5178  150.6254 H   0  0  0  0  0  0  0  0  0  0  0  0
  145.9464  132.2176  153.5294 H   0  0  0  0  0  0  0  0  0  0  0  0
  148.1336  130.4314  152.3696 H   0  0  0  0  0  0  0  0  0  0  0  0
  146.7027  129.8803  153.2369 H   0  0  0  0  0  0  0  0  0  0  0  0
  147.9233  130.8325  154.0725 H   0  0  0  0  0  0  0  0  0  0  0  0
  148.1906  133.3332  153.5374 H   0  0  0  0  0  0  0  0  0  0  0  0
  148.3793  132.9751  151.8433 H   0  0  0  0  0  0  0  0  0  0  0  0
  145.5601  135.8888  153.0065 H   0  0  0  0  0  0  0  0  0  0  0  0
  145.4843  134.3199  153.7571 H   0  0  0  0  0  0  0  0  0  0  0  0
  146.5168  135.7105  155.4111 H   0  0  0  0  0  0  0  0  0  0  0  0
  147.8243  134.7536  154.7553 H   0  0  0  0  0  0  0  0  0  0  0  0
  148.5050  136.6370  153.3806 H   0  0  0  0  0  0  0  0  0  0  0  0
  148.6470  138.9847  153.1150 H   0  0  0  0  0  0  0  0  0  0  0  0
  148.1657  139.9870  154.4446 H   0  0  0  0  0  0  0  0  0  0  0  0
  150.3350  137.1865  153.6783 H   0  0  0  0  0  0  0  0  0  0  0  0
  152.6820  136.9206  154.4409 H   0  0  0  0  0  0  0  0  0  0  0  0
  153.6431  138.6942  155.9767 H   0  0  0  0  0  0  0  0  0  0  0  0
  152.2936  140.5782  156.6523 H   0  0  0  0  0  0  0  0  0  0  0  0
  146.8841  134.1216  150.1660 H   0  0  0  0  0  0  0  0  0  0  0  0
  145.6585  135.2253  150.7147 H   0  0  0  0  0  0  0  0  0  0  0  0
  147.6733  135.1100  152.0375 H   0  0  0  0  0  0  0  0  0  0  0  0
  1  2  1  0  0  0  0
  1 22  1  0  0  0  0
  1 23  1  0  0  0  0
  1 24  1  0  0  0  0
  2 21  1  0  0  0  0
  2  3  1  0  0  0  0
  2 25  1  0  0  0  0
  3  4  1  0  0  0  0
  3 26  1  0  0  0  0
  3 27  1  0  0  0  0
  4  5  1  0  0  0  0
  4  6  1  0  0  0  0
  4 28  1  0  0  0  0
  5 29  1  0  0  0  0
  5 30  1  0  0  0  0
  5 31  1  0  0  0  0
  6  7  1  0  0  0  0
  6 32  1  0  0  0  0
  6 33  1  0  0  0  0
  7  8  1  0  0  0  0
  7 21  1  0  0  0  0
  7 47  1  0  0  0  0
  8  9  1  0  0  0  0
  8 34  1  0  0  0  0
  8 35  1  0  0  0  0
  9 10  1  0  0  0  0
  9 36  1  0  0  0  0
  9 37  1  0  0  0  0
 10 11  1  0  0  0  0
 10 38  1  0  0  0  0
 11 12  2  0  0  0  0
 11 13  1  0  0  0  0
 13 14  1  0  0  0  0
 13 39  1  0  0  0  0
 13 40  1  0  0  0  0
 14 19  1  0  0  0  0
 14 15  1  0  0  0  0
 15 16  2  0  0  0  0
 15 41  1  0  0  0  0
 16 17  1  0  0  0  0
 16 42  1  0  0  0  0
 17 18  2  0  0  0  0
 17 43  1  0  0  0  0
 18 19  1  0  0  0  0
 18 44  1  0  0  0  0
 19 20  2  0  0  0  0
 21 45  1  0  0  0  0
 21 46  1  0  0  0  0
M  CHG  1   7   1
M  END
> <s_m_source_file>
AV-unprocessed.smi

> <i_m_source_file_index>
1352

> <i_lp_mmshare_version>
43012

> <i_f3d_flags>
0

> <s_epik_input>
W0NIM11bQ0BASF0xW0NIMl1bQ0BASF0oW0NIM10pW0NIMl1OKFtDSDJdMSlbQ0gyXVtDSDJdW05IXUMoPU8pW0NIMl1uMltjSF1bY0hdW2NIXVtjSF1jMj1P

> <s_epik_cmdline>
J2VwaWtfcHl0aG9uJywgJy1waCcsICc3LjAnLCAnLXRuJywgJzgnLCAnLW1hJywgJzIwMCcsICctbWV0YWxfYmluZGluZycsICctaW1hZScsICc8aW5maWxlLm1hZT4nLCAnLW9tYWUnLCAnPG91dGZpbGUubWFlPic=

> <r_lp_tautomer_probability>
1

> <r_epik_Ionization_Penalty>
0.00156146

> <r_epik_Ionization_Penalty_Charging>
0.00156138

> <r_epik_Ionization_Penalty_Neutral>
8.12891e-08

> <r_epik_State_Penalty>
0.00104868

> <r_epik_Charging_Adjusted_Penalty>
0.00261006

> <i_epik_Tot_Q>
1

> <i_epik_Tot_abs_Q>
1

> <r_epik_Metal_State_Penalty>
-0

> <b_epik_Metal_Only>
0

> <s_lp_Force_Field>
OPLS_2005

> <r_lp_Energy>
27.4422

> <b_lp_Chiralities_Consistent>
1

> <s_lp_Variant>
AV-unprocessed.smi:1352-2

> <Gold.Version>
5.8.1

> <Gold.Id.Protein>
6NUR|6NUR_protein|mol2

> <Gold.PLP.Fitness>
50.3909

> <Gold.PLP.PLP>
-38.9301

> <Gold.PLP.part.hbond>
-2.0000

> <Gold.PLP.part.metal>
0.0000

> <Gold.PLP.part.buried>
-2.0622

> <Gold.PLP.part.nonpolar>
-33.6875

> <Gold.PLP.part.repulsive>
0.1316

> <Gold.PLP.ligand.clash>
0.0000

> <Gold.PLP.ligand.torsion>
0.4613

> <Gold.PLP.Chemscore.Hbond>
3.0000

> <Gold.PLP.Chemscore.CHOScore>
1.1097

> <Gold.PLP.Chemscore.Metal>
0.0000

> <Gold.Chemscore.Hbonds>
donor molecule, donor type, donor heavy atom, donor atom, acceptor molecule, acceptor atom, score
      L1  H     7    47       P1  7948  2.00
      L1  H    10    38       P1  7948  1.00
      L1  C    15    41       P1  7948  0.83
      L1  C    15    41       P1  7949  0.28

> <Gold.PLP.Chemscore.Internal.Correction>
0.0544

> <Gold.Rescore>
     Score         DG    S(hbond)    S(metal)    S(lipo)     H(rot)  DE(clash)    DE(int)     intcor
     17.31     -17.76       1.93        0.00      89.92       1.83       0.06       0.39       ----

> <Gold.Chemscore.Fitness>
17.3117

> <Gold.Chemscore.DG>
-17.7599

> <Gold.Chemscore.ZeroCoef>
-5.4800

> <Gold.Chemscore.Hbond>
1.9317

> <Gold.Chemscore.Metal>
0.0000

> <Gold.Chemscore.Lipo>
89.9156

> <Gold.Chemscore.Internal_Hbond>
0.0000

> <Gold.Chemscore.DEClash>
0.0609

> <Gold.Chemscore.DEInternal>
0.3873

> <Gold.Chemscore.Rot>
1.8329

> <Gold.Chemscore.Internal.Correction>
   9.000000E+99

> <Gold.Chemscore.Hbonds>
donor molecule, donor type, donor heavy atom, donor atom, acceptor molecule, acceptor atom, score
      L1  H     7    47       P1  7948  0.91
      L1  H    10    38       P1  7948  0.97

> <Gold.Chemscore.Hbond.Weighted>
-6.4519

> <Gold.Chemscore.Metal.Weighted>
-0.0000

> <Gold.Chemscore.Lipo.Weighted>
-10.5201

> <Gold.Chemscore.Internal_Hbond.Weighted>
0.0000

> <Gold.Chemscore.DEClash.Weighted>
0.0609

> <Gold.Chemscore.DEInternal.Weighted>
0.3873

> <Gold.Chemscore.Rot.Weighted>
4.6922

> <Gold.Chemscore.Internal.Correction.Weighted>
   9.000000E+99

> <Gold.Protein.RotatedTorsions>
[ 6907 6896 6895 6894 ] final  122.72 input  -60.11 | X-H torsion
[ 7974 7965 7964 7962 ] final  153.99 input  175.53 | X-H torsion
[ 8008 7997 7996 7995 ] final  -25.93 input   59.86 | X-H torsion
[ 10167 10162 10161 10158 ] final  -48.21 input  -65.29 | X-H torsion
[ 10718 10713 10712 10709 ] final -163.19 input   66.30 | X-H torsion
[ 10763 10752 10751 10750 ] final    7.48 input  -60.55 | X-H torsion
[ 11005 11000 10999 10996 ] final  131.61 input  -57.11 | X-H torsion

> <Gold.Protein.ActiveResidues>
 VAL166  LYS551  ARG553  GLY616  TRP617  ASP618  TYR619  PRO620  LYS621  CYS622 
 ASP623  PHE694  ASN695  SER759  ASP760  ASP761  ALA762  ILE779  LEU786  VAL792 
 PHE793  MET794  SER795  GLU796  ALA797  LYS798  CYS799  TRP800  GLU811  SER814 

> <Gold.Protein.RotatedAtoms>
  152.4220  133.7133  159.6490 H   0  0  0  0  0  0  0  0  0  0  0  0  # atno 6907 bound_to 6896
  150.8096  133.8435  159.3194 H   0  0  0  0  0  0  0  0  0  0  0  0  # atno 6908 bound_to 6896
  151.6148  135.1039  160.0140 H   0  0  0  0  0  0  0  0  0  0  0  0  # atno 6909 bound_to 6896
  144.8118  139.6874  143.6138 H   0  0  0  0  0  0  0  0  0  0  0  0  # atno 7974 bound_to 7965
  154.4450  140.1913  156.0697 H   0  0  0  0  0  0  0  0  0  0  0  0  # atno 8008 bound_to 7997
  156.0521  140.3307  155.7336 H   0  0  0  0  0  0  0  0  0  0  0  0  # atno 8009 bound_to 7997
  155.5542  140.0597  157.2834 H   0  0  0  0  0  0  0  0  0  0  0  0  # atno 8010 bound_to 7997
  140.6741  143.2750  151.4038 H   0  0  0  0  0  0  0  0  0  0  0  0  # atno 10167 bound_to 10162
  156.6211  130.8891  151.2958 H   0  0  0  0  0  0  0  0  0  0  0  0  # atno 10718 bound_to 10713
  153.2358  135.6898  153.7838 H   0  0  0  0  0  0  0  0  0  0  0  0  # atno 10763 bound_to 10752
  153.6986  135.3301  155.3220 H   0  0  0  0  0  0  0  0  0  0  0  0  # atno 10764 bound_to 10752
  154.8334  135.4562  154.1261 H   0  0  0  0  0  0  0  0  0  0  0  0  # atno 10765 bound_to 10752
  139.9740  134.9569  156.9463 H   0  0  0  0  0  0  0  0  0  0  0  0  # atno 11005 bound_to 11000
  146.2417  139.6015  142.9487 LP  0  0  0  0  0  0  0  0  0  0  0  0  # atno 17320 bound_to 7965
  145.5307  141.0427  143.2385 LP  0  0  0  0  0  0  0  0  0  0  0  0  # atno 17321 bound_to 7965
  139.6024  144.1268  152.2212 LP  0  0  0  0  0  0  0  0  0  0  0  0  # atno 17342 bound_to 10162
  140.0656  144.5821  150.7230 LP  0  0  0  0  0  0  0  0  0  0  0  0  # atno 17343 bound_to 10162
  157.7227  130.9580  150.1505 LP  0  0  0  0  0  0  0  0  0  0  0  0  # atno 17370 bound_to 10713
  156.2311  130.3682  149.8444 LP  0  0  0  0  0  0  0  0  0  0  0  0  # atno 17371 bound_to 10713
  140.5232  134.0886  155.7297 LP  0  0  0  0  0  0  0  0  0  0  0  0  # atno 17394 bound_to 11000
  141.1419  133.9124  157.2307 LP  0  0  0  0  0  0  0  0  0  0  0  0  # atno 17395 bound_to 11000

$$$$
