AV-unprocessed.smi:3056|AV-procd|sdf|11653|dock1
  -GOLD-   2272017 53D 1   1.00000     0.00000
 Structure written by MMmdl.
 47 48  0  0  0  0  0  0  0  0  1 V2000
  152.9275  143.4062  158.6616 C   0  0  0  0  0  0  0  0  0  0  0  0
  152.0900  142.3244  158.0433 C   0  0  0  0  0  0  0  0  0  0  0  0
  151.2590  142.4098  156.8905 C   0  0  0  0  0  0  0  0  0  0  0  0
  150.6530  141.2684  156.6074 N   0  0  0  0  0  0  0  0  0  0  0  0
  151.0748  140.4130  157.5635 N   0  0  0  0  0  0  0  0  0  0  0  0
  150.5989  139.0354  157.5680 C   0  0  2  0  0  0  0  0  0  0  0  0
  149.0594  139.0278  157.6208 C   0  0  0  0  0  0  0  0  0  0  0  0
  151.2449  138.2110  158.7135 C   0  0  2  0  0  0  0  0  0  0  0  0
  152.7621  137.9985  158.5250 C   0  0  0  0  0  0  0  0  0  0  0  0
  150.5914  136.9017  158.7711 N   0  0  0  0  0  0  0  0  0  0  0  0
  149.5590  136.7769  159.8173 C   0  0  0  0  0  0  0  0  0  0  0  0
  148.6757  135.5166  159.7104 C   0  0  0  0  0  0  0  0  0  0  0  0
  148.9504  134.6685  158.8593 O   0  0  0  0  0  0  0  0  0  0  0  0
  147.6239  135.3722  160.5515 N   0  0  0  0  0  0  0  0  0  0  0  0
  147.3652  136.2771  161.6736 C   0  0  0  0  0  0  0  0  0  0  0  0
  147.5758  135.4835  162.9759 C   0  0  0  0  0  0  0  0  0  0  0  0
  146.7183  134.3428  162.9918 O   0  0  0  0  0  0  0  0  0  0  0  0
  146.9107  133.4650  161.8819 C   0  0  1  0  0  0  0  0  0  0  0  0
  145.9417  132.2869  162.0284 C   0  0  0  0  0  0  0  0  0  0  0  0
  146.6785  134.2535  160.5779 C   0  0  0  0  0  0  0  0  0  0  0  0
  151.9397  141.0280  158.4463 C   0  0  0  0  0  0  0  0  0  0  0  0
  152.7956  144.3616  158.1535 H   0  0  0  0  0  0  0  0  0  0  0  0
  153.9895  143.1641  158.6205 H   0  0  0  0  0  0  0  0  0  0  0  0
  152.6726  143.5624  159.7100 H   0  0  0  0  0  0  0  0  0  0  0  0
  151.0793  143.2638  156.2543 H   0  0  0  0  0  0  0  0  0  0  0  0
  150.8971  138.5852  156.6186 H   0  0  0  0  0  0  0  0  0  0  0  0
  148.6581  138.0204  157.5109 H   0  0  0  0  0  0  0  0  0  0  0  0
  148.6383  139.6316  156.8164 H   0  0  0  0  0  0  0  0  0  0  0  0
  148.6904  139.4289  158.5653 H   0  0  0  0  0  0  0  0  0  0  0  0
  151.0907  138.7591  159.6431 H   0  0  0  0  0  0  0  0  0  0  0  0
  153.3032  138.9445  158.5157 H   0  0  0  0  0  0  0  0  0  0  0  0
  152.9747  137.4891  157.5845 H   0  0  0  0  0  0  0  0  0  0  0  0
  153.1952  137.4036  159.3285 H   0  0  0  0  0  0  0  0  0  0  0  0
  150.2092  136.6787  157.8629 H   0  0  0  0  0  0  0  0  0  0  0  0
  150.0557  136.7553  160.7875 H   0  0  0  0  0  0  0  0  0  0  0  0
  148.9395  137.6724  159.8007 H   0  0  0  0  0  0  0  0  0  0  0  0
  148.0090  137.1575  161.6708 H   0  0  0  0  0  0  0  0  0  0  0  0
  146.3414  136.6494  161.6172 H   0  0  0  0  0  0  0  0  0  0  0  0
  148.6157  135.1671  163.0727 H   0  0  0  0  0  0  0  0  0  0  0  0
  147.3499  136.1078  163.8403 H   0  0  0  0  0  0  0  0  0  0  0  0
  147.9326  133.0817  161.9039 H   0  0  0  0  0  0  0  0  0  0  0  0
  146.0585  131.5787  161.2077 H   0  0  0  0  0  0  0  0  0  0  0  0
  144.9058  132.6266  162.0339 H   0  0  0  0  0  0  0  0  0  0  0  0
  146.1211  131.7486  162.9593 H   0  0  0  0  0  0  0  0  0  0  0  0
  145.6607  134.6463  160.5551 H   0  0  0  0  0  0  0  0  0  0  0  0
  146.7505  133.5973  159.7120 H   0  0  0  0  0  0  0  0  0  0  0  0
  152.3753  140.4953  159.2790 H   0  0  0  0  0  0  0  0  0  0  0  0
  1  2  1  0  0  0  0
  1 22  1  0  0  0  0
  1 23  1  0  0  0  0
  1 24  1  0  0  0  0
  2 21  2  0  0  0  0
  2  3  1  0  0  0  0
  3  4  2  0  0  0  0
  3 25  1  0  0  0  0
  4  5  1  0  0  0  0
  5  6  1  0  0  0  0
  5 21  1  0  0  0  0
  6  7  1  0  0  0  0
  6  8  1  0  0  0  0
  6 26  1  0  0  0  0
  7 27  1  0  0  0  0
  7 28  1  0  0  0  0
  7 29  1  0  0  0  0
  8  9  1  0  0  0  0
  8 10  1  0  0  0  0
  8 30  1  0  0  0  0
  9 31  1  0  0  0  0
  9 32  1  0  0  0  0
  9 33  1  0  0  0  0
 10 11  1  0  0  0  0
 10 34  1  0  0  0  0
 11 12  1  0  0  0  0
 11 35  1  0  0  0  0
 11 36  1  0  0  0  0
 12 13  2  0  0  0  0
 12 14  1  0  0  0  0
 14 20  1  0  0  0  0
 14 15  1  0  0  0  0
 15 16  1  0  0  0  0
 15 37  1  0  0  0  0
 15 38  1  0  0  0  0
 16 17  1  0  0  0  0
 16 39  1  0  0  0  0
 16 40  1  0  0  0  0
 17 18  1  0  0  0  0
 18 19  1  0  0  0  0
 18 20  1  0  0  0  0
 18 41  1  0  0  0  0
 19 42  1  0  0  0  0
 19 43  1  0  0  0  0
 19 44  1  0  0  0  0
 20 45  1  0  0  0  0
 20 46  1  0  0  0  0
 21 47  1  0  0  0  0
M  END
> <s_m_source_file>
AV-unprocessed.smi

> <i_m_source_file_index>
3056

> <i_lp_mmshare_version>
43012

> <i_f3d_flags>
0

> <s_epik_input>
W0NIM11jMVtjSF1ubihbY0hdMSlbQ0BIXShbQ0gzXSlbQ0BIXShbQ0gzXSlbTkhdW0NIMl1DKD1PKU4yW0NIMl1bQ0gyXU9bQ0BASF0oW0NIM10pW0NIMl0y

> <s_epik_cmdline>
J2VwaWtfcHl0aG9uJywgJy1waCcsICc3LjAnLCAnLXRuJywgJzgnLCAnLW1hJywgJzIwMCcsICctbWV0YWxfYmluZGluZycsICctaW1hZScsICc8aW5maWxlLm1hZT4nLCAnLW9tYWUnLCAnPG91dGZpbGUubWFlPic=

> <r_lp_tautomer_probability>
1

> <r_epik_Ionization_Penalty>
0.667689

> <r_epik_Ionization_Penalty_Charging>
0

> <r_epik_Ionization_Penalty_Neutral>
0.667689

> <r_epik_State_Penalty>
0.684601

> <r_epik_Charging_Adjusted_Penalty>
0.684601

> <i_epik_Tot_Q>
0

> <i_epik_Tot_abs_Q>
0

> <r_epik_Metal_State_Penalty>
0.681448

> <b_epik_Metal_Only>
0

> <s_lp_Force_Field>
OPLS_2005

> <r_lp_Energy>
29.7123

> <b_lp_Chiralities_Consistent>
1

> <s_lp_Variant>
AV-unprocessed.smi:3056-9

> <Gold.Version>
5.8.1

> <Gold.Id.Protein>
6NUR|6NUR_protein|mol2

> <Gold.PLP.Fitness>
42.2732

> <Gold.PLP.PLP>
-37.7243

> <Gold.PLP.part.hbond>
-1.9274

> <Gold.PLP.part.metal>
0.0000

> <Gold.PLP.part.buried>
-5.4725

> <Gold.PLP.part.nonpolar>
-31.0089

> <Gold.PLP.part.repulsive>
0.0643

> <Gold.PLP.ligand.clash>
0.0000

> <Gold.PLP.ligand.torsion>
0.7646

> <Gold.PLP.Chemscore.Hbond>
1.0000

> <Gold.PLP.Chemscore.CHOScore>
1.0000

> <Gold.PLP.Chemscore.Metal>
0.0000

> <Gold.Chemscore.Hbonds>
donor molecule, donor type, donor heavy atom, donor atom, acceptor molecule, acceptor atom, score
      P1  H  6896  6909       L1    13  1.00
      L1  C     3    25       P1  8028  0.61

> <Gold.PLP.Chemscore.Internal.Correction>
0.0782

> <Gold.Rescore>
     Score         DG    S(hbond)    S(metal)    S(lipo)     H(rot)  DE(clash)    DE(int)     intcor
     14.39     -15.25       0.94        0.00      93.37       1.68       0.09       0.78       ----

> <Gold.Chemscore.Fitness>
14.3891

> <Gold.Chemscore.DG>
-15.2507

> <Gold.Chemscore.ZeroCoef>
-5.4800

> <Gold.Chemscore.Hbond>
0.9417

> <Gold.Chemscore.Metal>
0.0000

> <Gold.Chemscore.Lipo>
93.3724

> <Gold.Chemscore.Internal_Hbond>
0.0000

> <Gold.Chemscore.DEClash>
0.0866

> <Gold.Chemscore.DEInternal>
0.7750

> <Gold.Chemscore.Rot>
1.6793

> <Gold.Chemscore.Internal.Correction>
   9.000000E+99

> <Gold.Chemscore.Hbonds>
donor molecule, donor type, donor heavy atom, donor atom, acceptor molecule, acceptor atom, score
      P1  H  6896  6909       L1    13  0.30

> <Gold.Chemscore.Hbond.Weighted>
-3.1452

> <Gold.Chemscore.Metal.Weighted>
-0.0000

> <Gold.Chemscore.Lipo.Weighted>
-10.9246

> <Gold.Chemscore.Internal_Hbond.Weighted>
0.0000

> <Gold.Chemscore.DEClash.Weighted>
0.0866

> <Gold.Chemscore.DEInternal.Weighted>
0.7750

> <Gold.Chemscore.Rot.Weighted>
4.2990

> <Gold.Chemscore.Internal.Correction.Weighted>
   9.000000E+99

> <Gold.Protein.RotatedTorsions>
[ 6907 6896 6895 6894 ] final   23.03 input  -60.11 | X-H torsion
[ 7974 7965 7964 7962 ] final   47.91 input  175.53 | X-H torsion
[ 8008 7997 7996 7995 ] final   94.15 input   59.86 | X-H torsion
[ 10167 10162 10161 10158 ] final  -53.50 input  -65.29 | X-H torsion
[ 10718 10713 10712 10709 ] final -165.42 input   66.30 | X-H torsion
[ 10763 10752 10751 10750 ] final   59.77 input  -60.55 | X-H torsion
[ 11005 11000 10999 10996 ] final    0.74 input  -57.11 | X-H torsion

> <Gold.Protein.ActiveResidues>
 VAL166  LYS551  ARG553  GLY616  TRP617  ASP618  TYR619  PRO620  LYS621  CYS622 
 ASP623  PHE694  ASN695  SER759  ASP760  ASP761  ALA762  ILE779  LEU786  VAL792 
 PHE793  MET794  SER795  GLU796  ALA797  LYS798  CYS799  TRP800  GLU811  SER814 

> <Gold.Protein.RotatedAtoms>
  151.9362  135.0234  160.0532 H   0  0  0  0  0  0  0  0  0  0  0  0  # atno 6907 bound_to 6896
  152.2076  133.4882  159.5101 H   0  0  0  0  0  0  0  0  0  0  0  0  # atno 6908 bound_to 6896
  150.6968  134.1426  159.4153 H   0  0  0  0  0  0  0  0  0  0  0  0  # atno 6909 bound_to 6896
  146.0253  139.4699  142.9871 H   0  0  0  0  0  0  0  0  0  0  0  0  # atno 7974 bound_to 7965
  156.0547  140.3303  155.7392 H   0  0  0  0  0  0  0  0  0  0  0  0  # atno 8008 bound_to 7997
  155.5547  140.0613  157.2860 H   0  0  0  0  0  0  0  0  0  0  0  0  # atno 8009 bound_to 7997
  154.4452  140.1888  156.0710 H   0  0  0  0  0  0  0  0  0  0  0  0  # atno 8010 bound_to 7997
  140.6481  143.2548  151.4802 H   0  0  0  0  0  0  0  0  0  0  0  0  # atno 10167 bound_to 10162
  156.6531  130.9015  151.3016 H   0  0  0  0  0  0  0  0  0  0  0  0  # atno 10718 bound_to 10713
  152.9903  135.5560  154.5767 H   0  0  0  0  0  0  0  0  0  0  0  0  # atno 10763 bound_to 10752
  154.5156  135.2805  155.1308 H   0  0  0  0  0  0  0  0  0  0  0  0  # atno 10764 bound_to 10752
  154.2682  135.6368  153.5353 H   0  0  0  0  0  0  0  0  0  0  0  0  # atno 10765 bound_to 10752
  140.6232  133.9642  155.8236 H   0  0  0  0  0  0  0  0  0  0  0  0  # atno 11005 bound_to 11000
  145.7128  141.0101  143.1444 LP  0  0  0  0  0  0  0  0  0  0  0  0  # atno 17320 bound_to 7965
  144.7007  139.8777  143.7445 LP  0  0  0  0  0  0  0  0  0  0  0  0  # atno 17321 bound_to 7965
  139.5693  144.1966  152.1813 LP  0  0  0  0  0  0  0  0  0  0  0  0  # atno 17342 bound_to 10162
  140.1257  144.5333  150.6834 LP  0  0  0  0  0  0  0  0  0  0  0  0  # atno 17343 bound_to 10162
  157.7134  130.9468  150.1169 LP  0  0  0  0  0  0  0  0  0  0  0  0  # atno 17370 bound_to 10713
  156.2069  130.3664  149.8719 LP  0  0  0  0  0  0  0  0  0  0  0  0  # atno 17371 bound_to 10713
  141.0727  134.0181  157.3502 LP  0  0  0  0  0  0  0  0  0  0  0  0  # atno 17394 bound_to 11000
  139.9145  135.0195  156.7826 LP  0  0  0  0  0  0  0  0  0  0  0  0  # atno 17395 bound_to 11000

$$$$
