AV-unprocessed.smi:1427|AV-procd|sdf|5811|dock10
  -GOLD-   22720 5463D 1   1.00000     0.00000
 Structure written by MMmdl.
 33 34  0  0  0  0  0  0  0  0  1 V2000
  154.2212  140.4786  161.4621 C   0  0  0  0  0  0  0  0  0  0  0  0
  153.6112  141.4216  160.4165 C   0  0  2  0  0  0  0  0  0  0  0  0
  152.8490  142.5848  161.0847 C   0  0  0  0  0  0  0  0  0  0  0  0
  152.4918  143.6320  160.1435 N   0  0  0  0  0  0  0  0  0  0  0  0
  151.7605  144.7778  160.3760 C   0  0  0  0  0  0  0  0  0  0  0  0
  151.6932  145.4629  159.1970 C   0  0  0  0  0  0  0  0  0  0  0  0
  152.4209  144.6443  158.2886 C   0  0  0  0  0  0  0  0  0  0  0  0
  152.8955  143.5477  158.8571 N   0  0  0  0  0  0  0  0  0  0  0  0
  152.7231  140.6530  159.5459 N   0  0  0  0  0  0  0  0  0  0  0  0
  153.0896  139.6492  158.7291 C   0  0  0  0  0  0  0  0  0  0  0  0
  154.2517  139.2548  158.6354 O   0  0  0  0  0  0  0  0  0  0  0  0
  152.0039  138.9871  157.8612 C   0  0  1  0  0  0  0  0  0  0  0  0
  150.6212  139.6449  158.0741 C   0  0  0  0  0  0  0  0  0  0  0  0
  150.0492  139.9223  156.6768 C   0  0  0  0  0  0  0  0  0  0  0  0
  151.2137  139.6221  155.7513 C   0  0  0  0  0  0  0  0  0  0  0  0
  151.1855  139.8230  154.5395 O   0  0  0  0  0  0  0  0  0  0  0  0
  152.2422  139.1189  156.4307 N   0  0  0  0  0  0  0  0  0  0  0  0
  154.9059  141.0138  162.1205 H   0  0  0  0  0  0  0  0  0  0  0  0
  154.7847  139.6756  160.9857 H   0  0  0  0  0  0  0  0  0  0  0  0
  153.4503  140.0218  162.0841 H   0  0  0  0  0  0  0  0  0  0  0  0
  154.4381  141.8345  159.8357 H   0  0  0  0  0  0  0  0  0  0  0  0
  151.9467  142.2198  161.5787 H   0  0  0  0  0  0  0  0  0  0  0  0
  153.4657  143.0368  161.8622 H   0  0  0  0  0  0  0  0  0  0  0  0
  151.3587  145.0093  161.3516 H   0  0  0  0  0  0  0  0  0  0  0  0
  151.2006  146.4060  159.0120 H   0  0  0  0  0  0  0  0  0  0  0  0
  152.6163  144.8127  157.2398 H   0  0  0  0  0  0  0  0  0  0  0  0
  151.7469  140.9114  159.5566 H   0  0  0  0  0  0  0  0  0  0  0  0
  151.9581  137.9238  158.1004 H   0  0  0  0  0  0  0  0  0  0  0  0
  149.9624  138.9894  158.6448 H   0  0  0  0  0  0  0  0  0  0  0  0
  150.6939  140.5822  158.6292 H   0  0  0  0  0  0  0  0  0  0  0  0
  149.2154  139.2584  156.4460 H   0  0  0  0  0  0  0  0  0  0  0  0
  149.7172  140.9552  156.5673 H   0  0  0  0  0  0  0  0  0  0  0  0
  153.1146  138.8421  156.0039 H   0  0  0  0  0  0  0  0  0  0  0  0
  1  2  1  0  0  0  0
  1 18  1  0  0  0  0
  1 19  1  0  0  0  0
  1 20  1  0  0  0  0
  2  3  1  0  0  0  0
  2  9  1  0  0  0  0
  2 21  1  0  0  0  0
  3  4  1  0  0  0  0
  3 22  1  0  0  0  0
  3 23  1  0  0  0  0
  4  8  1  0  0  0  0
  4  5  1  0  0  0  0
  5  6  2  0  0  0  0
  5 24  1  0  0  0  0
  6  7  1  0  0  0  0
  6 25  1  0  0  0  0
  7  8  2  0  0  0  0
  7 26  1  0  0  0  0
  9 10  1  0  0  0  0
  9 27  1  0  0  0  0
 10 11  2  0  0  0  0
 10 12  1  0  0  0  0
 12 17  1  0  0  0  0
 12 13  1  0  0  0  0
 12 28  1  0  0  0  0
 13 14  1  0  0  0  0
 13 29  1  0  0  0  0
 13 30  1  0  0  0  0
 14 15  1  0  0  0  0
 14 31  1  0  0  0  0
 14 32  1  0  0  0  0
 15 16  2  0  0  0  0
 15 17  1  0  0  0  0
 17 33  1  0  0  0  0
M  END
> <s_m_source_file>
AV-unprocessed.smi

> <i_m_source_file_index>
1427

> <i_lp_mmshare_version>
43012

> <i_f3d_flags>
0

> <s_epik_input>
bjFbY0hdW2NIXVtjSF1uMVtDSDJdW0NAQEhdKFtDSDNdKVtOSF1DKD1PKVtDQEBIXTJbQ0gyXVtDSDJdQyg9TylbTkhdMg==

> <s_epik_cmdline>
J2VwaWtfcHl0aG9uJywgJy1waCcsICc3LjAnLCAnLXRuJywgJzgnLCAnLW1hJywgJzIwMCcsICctbWV0YWxfYmluZGluZycsICctaW1hZScsICc8aW5maWxlLm1hZT4nLCAnLW9tYWUnLCAnPG91dGZpbGUubWFlPic=

> <r_lp_tautomer_probability>
1

> <r_epik_Ionization_Penalty>
0.000310707

> <r_epik_Ionization_Penalty_Charging>
0

> <r_epik_Ionization_Penalty_Neutral>
0.000310707

> <r_epik_State_Penalty>
-0

> <r_epik_Charging_Adjusted_Penalty>
0

> <i_epik_Tot_Q>
0

> <i_epik_Tot_abs_Q>
0

> <r_epik_Metal_State_Penalty>
-0

> <b_epik_Metal_Only>
0

> <s_lp_Force_Field>
OPLS_2005

> <r_lp_Energy>
14.9883

> <b_lp_Chiralities_Consistent>
1

> <s_lp_Variant>
AV-unprocessed.smi:1427-3

> <Gold.Version>
5.8.1

> <Gold.Id.Protein>
6NUR|6NUR_protein|mol2

> <Gold.PLP.Fitness>
45.3494

> <Gold.PLP.PLP>
-39.5315

> <Gold.PLP.part.hbond>
-2.0000

> <Gold.PLP.part.metal>
0.0000

> <Gold.PLP.part.buried>
-5.3978

> <Gold.PLP.part.nonpolar>
-32.6070

> <Gold.PLP.part.repulsive>
0.3384

> <Gold.PLP.ligand.clash>
0.0000

> <Gold.PLP.ligand.torsion>
0.0999

> <Gold.PLP.Chemscore.Hbond>
2.0000

> <Gold.PLP.Chemscore.CHOScore>
0.0000

> <Gold.PLP.Chemscore.Metal>
0.0000

> <Gold.Chemscore.Hbonds>
donor molecule, donor type, donor heavy atom, donor atom, acceptor molecule, acceptor atom, score
      P1  H  7989  7998       L1    16  1.00
      P1  H  7997  8010       L1    11  1.00

> <Gold.PLP.Chemscore.Internal.Correction>
0.0178

> <Gold.Rescore>
     Score         DG    S(hbond)    S(metal)    S(lipo)     H(rot)  DE(clash)    DE(int)     intcor
     16.49     -16.67       1.94        0.00      81.52       1.88       0.00       0.17       ----

> <Gold.Chemscore.Fitness>
16.4947

> <Gold.Chemscore.DG>
-16.6654

> <Gold.Chemscore.ZeroCoef>
-5.4800

> <Gold.Chemscore.Hbond>
1.9359

> <Gold.Chemscore.Metal>
0.0000

> <Gold.Chemscore.Lipo>
81.5164

> <Gold.Chemscore.Internal_Hbond>
0.0000

> <Gold.Chemscore.DEClash>
0.0009

> <Gold.Chemscore.DEInternal>
0.1698

> <Gold.Chemscore.Rot>
1.8821

> <Gold.Chemscore.Internal.Correction>
   9.000000E+99

> <Gold.Chemscore.Hbonds>
donor molecule, donor type, donor heavy atom, donor atom, acceptor molecule, acceptor atom, score
      P1  H  7989  7998       L1    16  0.94
      P1  H  7997  8010       L1    11  0.78

> <Gold.Chemscore.Hbond.Weighted>
-6.4660

> <Gold.Chemscore.Metal.Weighted>
-0.0000

> <Gold.Chemscore.Lipo.Weighted>
-9.5374

> <Gold.Chemscore.Internal_Hbond.Weighted>
0.0000

> <Gold.Chemscore.DEClash.Weighted>
0.0009

> <Gold.Chemscore.DEInternal.Weighted>
0.1698

> <Gold.Chemscore.Rot.Weighted>
4.8181

> <Gold.Chemscore.Internal.Correction.Weighted>
   9.000000E+99

> <Gold.Protein.RotatedTorsions>
[ 6907 6896 6895 6894 ] final  -24.07 input  -60.11 | X-H torsion
[ 7974 7965 7964 7962 ] final    2.50 input  175.53 | X-H torsion
[ 8008 7997 7996 7995 ] final    2.24 input   59.86 | X-H torsion
[ 10167 10162 10161 10158 ] final  172.37 input  -65.29 | X-H torsion
[ 10718 10713 10712 10709 ] final -173.87 input   66.30 | X-H torsion
[ 10763 10752 10751 10750 ] final   46.74 input  -60.55 | X-H torsion
[ 11005 11000 10999 10996 ] final  -72.62 input  -57.11 | X-H torsion

> <Gold.Protein.ActiveResidues>
 VAL166  LYS551  ARG553  GLY616  TRP617  ASP618  TYR619  PRO620  LYS621  CYS622 
 ASP623  PHE694  ASN695  SER759  ASP760  ASP761  ALA762  ILE779  LEU786  VAL792 
 PHE793  MET794  SER795  GLU796  ALA797  LYS798  CYS799  TRP800  GLU811  SER814 

> <Gold.Protein.RotatedAtoms>
  151.1948  135.0418  159.8847 H   0  0  0  0  0  0  0  0  0  0  0  0  # atno 6907 bound_to 6896
  152.5437  134.0916  159.8289 H   0  0  0  0  0  0  0  0  0  0  0  0  # atno 6908 bound_to 6896
  151.1049  133.5169  159.2640 H   0  0  0  0  0  0  0  0  0  0  0  0  # atno 6909 bound_to 6896
  146.2444  140.0826  142.8356 H   0  0  0  0  0  0  0  0  0  0  0  0  # atno 7974 bound_to 7965
  154.6892  140.2649  155.6829 H   0  0  0  0  0  0  0  0  0  0  0  0  # atno 8008 bound_to 7997
  156.2726  140.2794  156.1387 H   0  0  0  0  0  0  0  0  0  0  0  0  # atno 8009 bound_to 7997
  155.0920  140.0373  157.2661 H   0  0  0  0  0  0  0  0  0  0  0  0  # atno 8010 bound_to 7997
  139.5075  144.3381  152.0045 H   0  0  0  0  0  0  0  0  0  0  0  0  # atno 10167 bound_to 10162
  156.7767  130.9468  151.3120 H   0  0  0  0  0  0  0  0  0  0  0  0  # atno 10718 bound_to 10713
  152.9807  135.5998  154.3650 H   0  0  0  0  0  0  0  0  0  0  0  0  # atno 10763 bound_to 10752
  154.3328  135.2768  155.2465 H   0  0  0  0  0  0  0  0  0  0  0  0  # atno 10764 bound_to 10752
  154.4581  135.5973  153.6292 H   0  0  0  0  0  0  0  0  0  0  0  0  # atno 10765 bound_to 10752
  141.1611  133.6852  156.7087 H   0  0  0  0  0  0  0  0  0  0  0  0  # atno 11005 bound_to 11000
  145.0720  140.9162  143.4876 LP  0  0  0  0  0  0  0  0  0  0  0  0  # atno 17320 bound_to 7965
  145.0962  139.2855  143.5710 LP  0  0  0  0  0  0  0  0  0  0  0  0  # atno 17321 bound_to 7965
  140.2819  144.3850  150.6116 LP  0  0  0  0  0  0  0  0  0  0  0  0  # atno 17342 bound_to 10162
  140.6011  143.2167  151.7069 LP  0  0  0  0  0  0  0  0  0  0  0  0  # atno 17343 bound_to 10162
  157.6666  130.9013  149.9945 LP  0  0  0  0  0  0  0  0  0  0  0  0  # atno 17370 bound_to 10713
  156.1244  130.3645  149.9834 LP  0  0  0  0  0  0  0  0  0  0  0  0  # atno 17371 bound_to 10713
  140.2903  134.8245  157.4011 LP  0  0  0  0  0  0  0  0  0  0  0  0  # atno 17394 bound_to 11000
  140.1352  134.5043  155.8074 LP  0  0  0  0  0  0  0  0  0  0  0  0  # atno 17395 bound_to 11000

$$$$
