AV-unprocessed.smi:1178|AV-procd|sdf|4956|dock7
  -GOLD-   22720 3543D 1   1.00000     0.00000
 Structure written by MMmdl.
 33 34  0  0  0  0  0  0  0  0  1 V2000
  150.2884  140.4748  154.8256 O   0  0  0  0  0  0  0  0  0  0  0  0
  149.6163  141.4982  154.9618 C   0  0  0  0  0  0  0  0  0  0  0  0
  148.3858  141.7500  154.0791 C   0  0  0  0  0  0  0  0  0  0  0  0
  147.4129  140.6496  154.1368 N   0  0  0  0  0  0  0  0  0  0  0  0
  147.7500  139.3898  153.6623 C   0  0  0  0  0  0  0  0  0  0  0  0
  146.9113  138.3276  153.7065 C   0  0  0  0  0  0  0  0  0  0  0  0
  145.5744  138.4651  154.2742 C   0  0  0  0  0  0  0  0  0  0  0  0
  144.7442  137.5630  154.3608 O   0  0  0  0  0  0  0  0  0  0  0  0
  145.2727  139.7474  154.7402 N   0  0  0  0  0  0  0  0  0  0  0  0
  146.1319  140.8463  154.6973 C   0  0  0  0  0  0  0  0  0  0  0  0
  145.7654  141.9345  155.1388 O   0  0  0  0  0  0  0  0  0  0  0  0
  149.9093  142.4546  155.8559 N   0  0  0  0  0  0  0  0  0  0  0  0
  151.0158  142.4113  156.8057 C   0  0  0  0  0  0  0  0  0  0  0  0
  150.9330  141.1849  157.7388 C   0  0  0  0  0  0  0  0  0  0  0  0
  152.0124  141.1791  158.7359 N   0  0  0  0  0  0  0  0  0  0  0  0
  152.1083  142.1087  159.7143 C   0  0  0  0  0  0  0  0  0  0  0  0
  151.3208  143.0395  159.8802 O   0  0  0  0  0  0  0  0  0  0  0  0
  153.3160  141.9312  160.6422 C   0  0  0  0  0  0  0  0  0  0  0  0
  154.1719  140.4844  160.0141 S   0  0  0  0  0  0  0  0  0  0  0  0
  153.0014  140.2690  158.7411 C   0  0  0  0  0  0  0  0  0  0  0  0
  153.1114  139.3508  157.9291 O   0  0  0  0  0  0  0  0  0  0  0  0
  144.3582  139.8906  155.1434 H   0  0  0  0  0  0  0  0  0  0  0  0
  147.9076  142.6897  154.3633 H   0  0  0  0  0  0  0  0  0  0  0  0
  148.7287  141.8995  153.0546 H   0  0  0  0  0  0  0  0  0  0  0  0
  148.7328  139.2395  153.2388 H   0  0  0  0  0  0  0  0  0  0  0  0
  147.2323  137.3700  153.3225 H   0  0  0  0  0  0  0  0  0  0  0  0
  149.3074  143.2644  155.8950 H   0  0  0  0  0  0  0  0  0  0  0  0
  151.9538  142.3820  156.2492 H   0  0  0  0  0  0  0  0  0  0  0  0
  151.0358  143.3394  157.3774 H   0  0  0  0  0  0  0  0  0  0  0  0
  149.9528  141.1158  158.2139 H   0  0  0  0  0  0  0  0  0  0  0  0
  151.0085  140.2790  157.1350 H   0  0  0  0  0  0  0  0  0  0  0  0
  153.9640  142.8069  160.6043 H   0  0  0  0  0  0  0  0  0  0  0  0
  152.9927  141.7698  161.6707 H   0  0  0  0  0  0  0  0  0  0  0  0
  1  2  2  0  0  0  0
  2  3  1  0  0  0  0
  2 12  1  0  0  0  0
  3  4  1  0  0  0  0
  3 23  1  0  0  0  0
  3 24  1  0  0  0  0
  4 10  1  0  0  0  0
  4  5  1  0  0  0  0
  5  6  2  0  0  0  0
  5 25  1  0  0  0  0
  6  7  1  0  0  0  0
  6 26  1  0  0  0  0
  7  8  2  0  0  0  0
  7  9  1  0  0  0  0
  9 22  1  0  0  0  0
  9 10  1  0  0  0  0
 10 11  2  0  0  0  0
 12 13  1  0  0  0  0
 12 27  1  0  0  0  0
 13 14  1  0  0  0  0
 13 28  1  0  0  0  0
 13 29  1  0  0  0  0
 14 15  1  0  0  0  0
 14 30  1  0  0  0  0
 14 31  1  0  0  0  0
 15 20  1  0  0  0  0
 15 16  1  0  0  0  0
 16 17  2  0  0  0  0
 16 18  1  0  0  0  0
 18 19  1  0  0  0  0
 18 32  1  0  0  0  0
 18 33  1  0  0  0  0
 19 20  1  0  0  0  0
 20 21  2  0  0  0  0
M  END
> <s_m_source_file>
AV-unprocessed.smi

> <i_m_source_file_index>
1178

> <i_lp_mmshare_version>
43012

> <i_f3d_flags>
0

> <s_epik_input>
Tz1jMVtuSF1jKD1PKVtjSF1bY0hdbjFbQ0gyXUMoPU8pW05IXVtDSDJdW0NIMl1OMkMoPU8pW0NIMl1TQzI9Tw==

> <s_epik_cmdline>
J2VwaWtfcHl0aG9uJywgJy1waCcsICc3LjAnLCAnLXRuJywgJzgnLCAnLW1hJywgJzIwMCcsICctbWV0YWxfYmluZGluZycsICctaW1hZScsICc8aW5maWxlLm1hZT4nLCAnLW9tYWUnLCAnPG91dGZpbGUubWFlPic=

> <r_lp_tautomer_probability>
0.999537

> <r_epik_Ionization_Penalty>
0.00339795

> <r_epik_Ionization_Penalty_Charging>
0.0033979

> <r_epik_Ionization_Penalty_Neutral>
5.48861e-08

> <r_epik_State_Penalty>
0.00240602

> <r_epik_Charging_Adjusted_Penalty>
0.00580392

> <i_epik_Tot_Q>
0

> <i_epik_Tot_abs_Q>
0

> <r_epik_Metal_State_Penalty>
0.366682

> <b_epik_Metal_Only>
0

> <s_lp_Force_Field>
OPLS_2005

> <r_lp_Energy>
11.0957

> <b_lp_Chiralities_Consistent>
1

> <s_lp_Variant>
AV-unprocessed.smi:1178-1

> <Gold.Version>
5.8.1

> <Gold.Id.Protein>
6NUR|6NUR_protein|mol2

> <Gold.PLP.Fitness>
45.9703

> <Gold.PLP.PLP>
-34.2873

> <Gold.PLP.part.hbond>
-4.3617

> <Gold.PLP.part.metal>
0.0000

> <Gold.PLP.part.buried>
-3.9451

> <Gold.PLP.part.nonpolar>
-26.6345

> <Gold.PLP.part.repulsive>
0.4540

> <Gold.PLP.ligand.clash>
0.0000

> <Gold.PLP.ligand.torsion>
0.1039

> <Gold.PLP.Chemscore.Hbond>
3.0000

> <Gold.PLP.Chemscore.CHOScore>
0.9577

> <Gold.PLP.Chemscore.Metal>
0.0000

> <Gold.Chemscore.Hbonds>
donor molecule, donor type, donor heavy atom, donor atom, acceptor molecule, acceptor atom, score
      L1  H    12    27       P1  8028  1.00
      P1  H  7989  7998       L1     1  0.99
      P1  H  7997  8010       L1    21  1.00
      L1  C     5    25       P1  7957  0.98

> <Gold.PLP.Chemscore.Internal.Correction>
0.0177

> <Gold.Rescore>
     Score         DG    S(hbond)    S(metal)    S(lipo)     H(rot)  DE(clash)    DE(int)     intcor
     10.94     -11.43       2.32        0.00      49.64       2.97       0.19       0.30       ----

> <Gold.Chemscore.Fitness>
10.9406

> <Gold.Chemscore.DG>
-11.4317

> <Gold.Chemscore.ZeroCoef>
-5.4800

> <Gold.Chemscore.Hbond>
2.3172

> <Gold.Chemscore.Metal>
0.0000

> <Gold.Chemscore.Lipo>
49.6436

> <Gold.Chemscore.Internal_Hbond>
0.0000

> <Gold.Chemscore.DEClash>
0.1888

> <Gold.Chemscore.DEInternal>
0.3023

> <Gold.Chemscore.Rot>
2.9672

> <Gold.Chemscore.Internal.Correction>
   9.000000E+99

> <Gold.Chemscore.Hbonds>
donor molecule, donor type, donor heavy atom, donor atom, acceptor molecule, acceptor atom, score
      L1  H    12    27       P1  8028  0.92
      P1  H  7989  7998       L1     1  0.51
      P1  H  7997  8010       L1    21  0.26

> <Gold.Chemscore.Hbond.Weighted>
-7.7394

> <Gold.Chemscore.Metal.Weighted>
-0.0000

> <Gold.Chemscore.Lipo.Weighted>
-5.8083

> <Gold.Chemscore.Internal_Hbond.Weighted>
0.0000

> <Gold.Chemscore.DEClash.Weighted>
0.1888

> <Gold.Chemscore.DEInternal.Weighted>
0.3023

> <Gold.Chemscore.Rot.Weighted>
7.5960

> <Gold.Chemscore.Internal.Correction.Weighted>
   9.000000E+99

> <Gold.Protein.RotatedTorsions>
[ 6907 6896 6895 6894 ] final   22.55 input  -60.11 | X-H torsion
[ 7974 7965 7964 7962 ] final  167.42 input  175.53 | X-H torsion
[ 8008 7997 7996 7995 ] final   48.54 input   59.86 | X-H torsion
[ 10167 10162 10161 10158 ] final   25.77 input  -65.29 | X-H torsion
[ 10718 10713 10712 10709 ] final   70.92 input   66.30 | X-H torsion
[ 10763 10752 10751 10750 ] final   -1.61 input  -60.55 | X-H torsion
[ 11005 11000 10999 10996 ] final -114.04 input  -57.11 | X-H torsion

> <Gold.Protein.ActiveResidues>
 VAL166  LYS551  ARG553  GLY616  TRP617  ASP618  TYR619  PRO620  LYS621  CYS622 
 ASP623  PHE694  ASN695  SER759  ASP760  ASP761  ALA762  ILE779  LEU786  VAL792 
 PHE793  MET794  SER795  GLU796  ALA797  LYS798  CYS799  TRP800  GLU811  SER814 

> <Gold.Protein.RotatedAtoms>
  151.9288  135.0266  160.0527 H   0  0  0  0  0  0  0  0  0  0  0  0  # atno 6907 bound_to 6896
  152.2137  133.4925  159.5132 H   0  0  0  0  0  0  0  0  0  0  0  0  # atno 6908 bound_to 6896
  150.6982  134.1351  159.4127 H   0  0  0  0  0  0  0  0  0  0  0  0  # atno 6909 bound_to 6896
  144.7425  139.8759  143.6392 H   0  0  0  0  0  0  0  0  0  0  0  0  # atno 7974 bound_to 7965
  155.3874  140.3431  155.4249 H   0  0  0  0  0  0  0  0  0  0  0  0  # atno 8008 bound_to 7997
  156.1577  140.1591  156.8698 H   0  0  0  0  0  0  0  0  0  0  0  0  # atno 8009 bound_to 7997
  154.5110  140.0790  156.7971 H   0  0  0  0  0  0  0  0  0  0  0  0  # atno 8010 bound_to 7997
  140.5078  144.0209  150.6359 H   0  0  0  0  0  0  0  0  0  0  0  0  # atno 10167 bound_to 10162
  157.6425  130.9502  150.0718 H   0  0  0  0  0  0  0  0  0  0  0  0  # atno 10718 bound_to 10713
  153.3472  135.6984  153.6818 H   0  0  0  0  0  0  0  0  0  0  0  0  # atno 10763 bound_to 10752
  153.5560  135.3544  155.2780 H   0  0  0  0  0  0  0  0  0  0  0  0  # atno 10764 bound_to 10752
  154.8647  135.4238  154.2698 H   0  0  0  0  0  0  0  0  0  0  0  0  # atno 10765 bound_to 10752
  141.0577  133.9586  157.2724 H   0  0  0  0  0  0  0  0  0  0  0  0  # atno 11005 bound_to 11000
  146.1246  139.4270  143.0206 LP  0  0  0  0  0  0  0  0  0  0  0  0  # atno 17320 bound_to 7965
  145.7253  141.0061  143.1380 LP  0  0  0  0  0  0  0  0  0  0  0  0  # atno 17321 bound_to 7965
  140.3523  143.2955  152.0473 LP  0  0  0  0  0  0  0  0  0  0  0  0  # atno 17342 bound_to 10162
  139.4888  144.6364  151.6966 LP  0  0  0  0  0  0  0  0  0  0  0  0  # atno 17343 bound_to 10162
  156.1720  130.3647  149.9152 LP  0  0  0  0  0  0  0  0  0  0  0  0  # atno 17370 bound_to 10713
  156.7126  130.8976  151.3611 LP  0  0  0  0  0  0  0  0  0  0  0  0  # atno 17371 bound_to 10713
  139.9404  135.0191  156.8691 LP  0  0  0  0  0  0  0  0  0  0  0  0  # atno 17394 bound_to 11000
  140.5932  134.0242  155.7507 LP  0  0  0  0  0  0  0  0  0  0  0  0  # atno 17395 bound_to 11000

$$$$
