AV-unprocessed.smi:793|AV-procd|sdf|3753|dock7
  -GOLD-   22720 1183D 1   1.00000     0.00000
 Structure written by MMmdl.
 39 40  0  0  0  0  0  0  0  0  1 V2000
  154.2978  138.7717  159.5885 C   0  0  0  0  0  0  0  0  0  0  0  0
  154.1179  140.2308  159.1512 C   0  0  0  0  0  0  0  0  0  0  0  0
  152.8478  140.8757  159.7371 C   0  0  1  0  0  0  0  0  0  0  0  0
  152.8818  142.2676  159.4250 O   0  0  0  0  0  0  0  0  0  0  0  0
  151.7678  143.0427  159.8640 C   0  0  0  0  0  0  0  0  0  0  0  0
  150.8200  143.3125  158.6898 C   0  0  0  0  0  0  0  0  0  0  0  0
  151.4201  144.5051  157.9327 C   0  0  0  0  0  0  0  0  0  0  0  0
  152.4355  145.1572  158.8824 C   0  0  0  0  0  0  0  0  0  0  0  0
  152.2818  144.4361  160.2241 C   0  0  0  0  0  0  0  0  0  0  0  0
  151.5740  140.2313  159.1649 C   0  0  0  0  0  0  0  0  0  0  0  0
  150.8611  139.5472  159.8985 O   0  0  0  0  0  0  0  0  0  0  0  0
  151.3428  140.4715  157.8592 N   0  0  0  0  0  0  0  0  0  0  0  0
  150.2987  140.0185  157.0364 C   0  0  0  0  0  0  0  0  0  0  0  0
  149.0165  140.4654  157.0572 C   0  0  0  0  0  0  0  0  0  0  0  0
  148.0170  139.9840  156.2234 N   0  0  0  0  0  0  0  0  0  0  0  0
  148.3266  138.9890  155.3104 C   0  0  0  0  0  0  0  0  0  0  0  0
  149.5582  138.4561  155.1894 C   0  0  0  0  0  0  0  0  0  0  0  0
  150.6476  138.9439  156.0648 C   0  0  0  0  0  0  0  0  0  0  0  0
  151.7831  138.4756  155.9841 O   0  0  0  0  0  0  0  0  0  0  0  0
  155.1973  138.3428  159.1463 H   0  0  0  0  0  0  0  0  0  0  0  0
  153.4503  138.1600  159.2782 H   0  0  0  0  0  0  0  0  0  0  0  0
  154.3899  138.6921  160.6721 H   0  0  0  0  0  0  0  0  0  0  0  0
  154.9984  140.8043  159.4445 H   0  0  0  0  0  0  0  0  0  0  0  0
  154.0788  140.2645  158.0613 H   0  0  0  0  0  0  0  0  0  0  0  0
  152.8670  140.7466  160.8213 H   0  0  0  0  0  0  0  0  0  0  0  0
  151.2571  142.5854  160.7133 H   0  0  0  0  0  0  0  0  0  0  0  0
  150.6733  142.4441  158.0476 H   0  0  0  0  0  0  0  0  0  0  0  0
  149.8408  143.5936  159.0795 H   0  0  0  0  0  0  0  0  0  0  0  0
  151.9211  144.1698  157.0239 H   0  0  0  0  0  0  0  0  0  0  0  0
  150.6408  145.2074  157.6349 H   0  0  0  0  0  0  0  0  0  0  0  0
  153.4442  145.0025  158.4975 H   0  0  0  0  0  0  0  0  0  0  0  0
  152.2839  146.2326  158.9778 H   0  0  0  0  0  0  0  0  0  0  0  0
  151.5351  144.9523  160.8290 H   0  0  0  0  0  0  0  0  0  0  0  0
  153.2088  144.4099  160.7978 H   0  0  0  0  0  0  0  0  0  0  0  0
  152.0104  141.0696  157.3937 H   0  0  0  0  0  0  0  0  0  0  0  0
  148.6526  141.2306  157.7232 H   0  0  0  0  0  0  0  0  0  0  0  0
  147.4930  138.6741  154.6998 H   0  0  0  0  0  0  0  0  0  0  0  0
  149.7693  137.6807  154.4676 H   0  0  0  0  0  0  0  0  0  0  0  0
  147.0787  140.3542  156.2820 H   0  0  0  0  0  0  0  0  0  0  0  0
  1  2  1  0  0  0  0
  1 20  1  0  0  0  0
  1 21  1  0  0  0  0
  1 22  1  0  0  0  0
  2  3  1  0  0  0  0
  2 23  1  0  0  0  0
  2 24  1  0  0  0  0
  3  4  1  0  0  0  0
  3 10  1  0  0  0  0
  3 25  1  0  0  0  0
  4  5  1  0  0  0  0
  5  9  1  0  0  0  0
  5  6  1  0  0  0  0
  5 26  1  0  0  0  0
  6  7  1  0  0  0  0
  6 27  1  0  0  0  0
  6 28  1  0  0  0  0
  7  8  1  0  0  0  0
  7 29  1  0  0  0  0
  7 30  1  0  0  0  0
  8  9  1  0  0  0  0
  8 31  1  0  0  0  0
  8 32  1  0  0  0  0
  9 33  1  0  0  0  0
  9 34  1  0  0  0  0
 10 11  2  0  0  0  0
 10 12  1  0  0  0  0
 12 35  1  0  0  0  0
 12 13  1  0  0  0  0
 13 18  1  0  0  0  0
 13 14  2  0  0  0  0
 14 36  1  0  0  0  0
 14 15  1  0  0  0  0
 15 39  1  0  0  0  0
 15 16  1  0  0  0  0
 16 37  1  0  0  0  0
 16 17  2  0  0  0  0
 17 18  1  0  0  0  0
 17 38  1  0  0  0  0
 18 19  2  0  0  0  0
M  END
> <s_m_source_file>
AV-unprocessed.smi

> <i_m_source_file_index>
793

> <i_lp_mmshare_version>
43012

> <i_f3d_flags>
0

> <s_epik_input>
W0NIMl0xW0NIMl1bQ0gyXVtDSDJdW0NIXTFPW0NAQEhdKFtDSDJdW0NIM10pQyg9TylbTkhdYzJbY0hdbltjSF1bY0hdYzJbT0hd

> <s_epik_cmdline>
J2VwaWtfcHl0aG9uJywgJy1waCcsICc3LjAnLCAnLXRuJywgJzgnLCAnLW1hJywgJzIwMCcsICctbWV0YWxfYmluZGluZycsICctaW1hZScsICc8aW5maWxlLm1hZT4nLCAnLW9tYWUnLCAnPG91dGZpbGUubWFlPic=

> <r_lp_tautomer_probability>
1

> <r_epik_Ionization_Penalty>
0.000234492

> <r_epik_Ionization_Penalty_Charging>
0.000234447

> <r_epik_Ionization_Penalty_Neutral>
4.48517e-08

> <r_epik_State_Penalty>
-0

> <r_epik_Charging_Adjusted_Penalty>
0.000234447

> <i_epik_Tot_Q>
0

> <i_epik_Tot_abs_Q>
0

> <r_epik_Metal_State_Penalty>
0.110344

> <b_epik_Metal_Only>
0

> <s_lp_Force_Field>
OPLS_2005

> <r_lp_Energy>
26.0672

> <b_lp_Chiralities_Consistent>
1

> <s_lp_Variant>
AV-unprocessed.smi:793-2

> <Gold.Version>
5.8.1

> <Gold.Id.Protein>
6NUR|6NUR_protein|mol2

> <Gold.PLP.Fitness>
44.8768

> <Gold.PLP.PLP>
-40.1015

> <Gold.PLP.part.hbond>
-1.2154

> <Gold.PLP.part.metal>
0.0000

> <Gold.PLP.part.buried>
-6.2718

> <Gold.PLP.part.nonpolar>
-32.1394

> <Gold.PLP.part.repulsive>
0.2194

> <Gold.PLP.ligand.clash>
0.0000

> <Gold.PLP.ligand.torsion>
1.3970

> <Gold.PLP.Chemscore.Hbond>
0.8160

> <Gold.PLP.Chemscore.CHOScore>
1.6689

> <Gold.PLP.Chemscore.Metal>
0.0000

> <Gold.PLP.Chemscore.Internal.Correction>
0.1146

> <Gold.Rescore>
     Score         DG    S(hbond)    S(metal)    S(lipo)     H(rot)  DE(clash)    DE(int)     intcor
     15.76     -17.12       1.00        0.00     106.16       1.61       0.07       1.30       ----

> <Gold.Chemscore.Fitness>
15.7598

> <Gold.Chemscore.DG>
-17.1214

> <Gold.Chemscore.ZeroCoef>
-5.4800

> <Gold.Chemscore.Hbond>
0.9977

> <Gold.Chemscore.Metal>
0.0000

> <Gold.Chemscore.Lipo>
106.1604

> <Gold.Chemscore.Internal_Hbond>
0.0000

> <Gold.Chemscore.DEClash>
0.0656

> <Gold.Chemscore.DEInternal>
1.2960

> <Gold.Chemscore.Rot>
1.6061

> <Gold.Chemscore.Internal.Correction>
   9.000000E+99

> <Gold.Chemscore.Hbond.Weighted>
-3.3323

> <Gold.Chemscore.Metal.Weighted>
-0.0000

> <Gold.Chemscore.Lipo.Weighted>
-12.4208

> <Gold.Chemscore.Internal_Hbond.Weighted>
0.0000

> <Gold.Chemscore.DEClash.Weighted>
0.0656

> <Gold.Chemscore.DEInternal.Weighted>
1.2960

> <Gold.Chemscore.Rot.Weighted>
4.1116

> <Gold.Chemscore.Internal.Correction.Weighted>
   9.000000E+99

> <Gold.Protein.RotatedTorsions>
[ 6907 6896 6895 6894 ] final   64.75 input  -60.11 | X-H torsion
[ 7974 7965 7964 7962 ] final -121.97 input  175.53 | X-H torsion
[ 8008 7997 7996 7995 ] final   88.06 input   59.86 | X-H torsion
[ 10167 10162 10161 10158 ] final  -70.18 input  -65.29 | X-H torsion
[ 10718 10713 10712 10709 ] final  -18.66 input   66.30 | X-H torsion
[ 10763 10752 10751 10750 ] final   57.14 input  -60.55 | X-H torsion
[ 11005 11000 10999 10996 ] final -121.34 input  -57.11 | X-H torsion

> <Gold.Protein.ActiveResidues>
 VAL166  LYS551  ARG553  GLY616  TRP617  ASP618  TYR619  PRO620  LYS621  CYS622 
 ASP623  PHE694  ASN695  SER759  ASP760  ASP761  ALA762  ILE779  LEU786  VAL792 
 PHE793  MET794  SER795  GLU796  ALA797  LYS798  CYS799  TRP800  GLU811  SER814 

> <Gold.Protein.RotatedAtoms>
  152.4355  134.5695  159.9916 H   0  0  0  0  0  0  0  0  0  0  0  0  # atno 6907 bound_to 6896
  151.5806  133.3372  159.3015 H   0  0  0  0  0  0  0  0  0  0  0  0  # atno 6908 bound_to 6896
  150.8253  134.7516  159.6872 H   0  0  0  0  0  0  0  0  0  0  0  0  # atno 6909 bound_to 6896
  145.0345  140.8095  143.4303 H   0  0  0  0  0  0  0  0  0  0  0  0  # atno 7974 bound_to 7965
  155.9831  140.3375  155.6681 H   0  0  0  0  0  0  0  0  0  0  0  0  # atno 8008 bound_to 7997
  155.6522  140.0707  157.2601 H   0  0  0  0  0  0  0  0  0  0  0  0  # atno 8009 bound_to 7997
  154.4197  140.1723  156.1674 H   0  0  0  0  0  0  0  0  0  0  0  0  # atno 8010 bound_to 7997
  140.5372  143.2317  151.7155 H   0  0  0  0  0  0  0  0  0  0  0  0  # atno 10167 bound_to 10162
  156.5564  130.4714  149.6427 H   0  0  0  0  0  0  0  0  0  0  0  0  # atno 10718 bound_to 10713
  152.9844  135.5652  154.5342 H   0  0  0  0  0  0  0  0  0  0  0  0  # atno 10763 bound_to 10752
  154.4808  135.2788  155.1574 H   0  0  0  0  0  0  0  0  0  0  0  0  # atno 10764 bound_to 10752
  154.3083  135.6293  153.5508 H   0  0  0  0  0  0  0  0  0  0  0  0  # atno 10765 bound_to 10752
  141.0077  134.0311  157.3455 H   0  0  0  0  0  0  0  0  0  0  0  0  # atno 11005 bound_to 11000
  145.1727  139.2395  143.5333 LP  0  0  0  0  0  0  0  0  0  0  0  0  # atno 17320 bound_to 7965
  146.3502  140.1482  142.8593 LP  0  0  0  0  0  0  0  0  0  0  0  0  # atno 17321 bound_to 7965
  139.4975  144.4024  152.0167 LP  0  0  0  0  0  0  0  0  0  0  0  0  # atno 17342 bound_to 10162
  140.3130  144.3516  150.6029 LP  0  0  0  0  0  0  0  0  0  0  0  0  # atno 17343 bound_to 10162
  156.2838  130.7086  151.1917 LP  0  0  0  0  0  0  0  0  0  0  0  0  # atno 17370 bound_to 10713
  157.7377  131.0548  150.5338 LP  0  0  0  0  0  0  0  0  0  0  0  0  # atno 17371 bound_to 10713
  139.9072  135.0182  156.7538 LP  0  0  0  0  0  0  0  0  0  0  0  0  # atno 17394 bound_to 11000
  140.6786  133.9495  155.7897 LP  0  0  0  0  0  0  0  0  0  0  0  0  # atno 17395 bound_to 11000

$$$$
