AV-unprocessed.smi:101|AV-procd|sdf|935|dock3
  -GOLD-   2262017453D 1   1.00000     0.00000
 Structure written by MMmdl.
 43 45  0  0  0  0  0  0  0  0  2 V2000
  148.2542  135.9774  157.6048 C   0  0  0  0  0  0  0  0  0  0  0  0
  149.4605  136.5074  156.8492 C   0  0  0  0  0  0  0  0  0  0  0  0
  149.4198  137.6563  156.1388 C   0  0  0  0  0  0  0  0  0  0  0  0
  150.5177  138.1377  155.4419 N   0  0  0  0  0  0  0  0  0  0  0  0
  150.4538  139.4543  154.6773 C   0  0  2  0  0  0  0  0  0  0  0  0
  151.1898  140.4316  155.3632 O   0  0  0  0  0  0  0  0  0  0  0  0
  150.3278  141.2984  156.0943 C   0  0  2  0  0  0  0  0  0  0  0  0
  150.0628  140.7318  157.5045 C   0  0  0  0  0  0  0  0  0  0  0  0
  150.7780  141.4833  158.4720 O   0  0  0  0  0  0  0  0  0  0  0  0
  151.9006  140.9822  159.0217 C   0  0  0  0  0  0  0  0  0  0  0  0
  152.6608  140.2073  158.4375 O   0  0  0  0  0  0  0  0  0  0  0  0
  152.1292  141.4689  160.4129 C   0  0  0  0  0  0  0  0  0  0  0  0
  151.4385  142.6157  160.8694 C   0  0  0  0  0  0  0  0  0  0  0  0
  151.6357  143.0983  162.1779 C   0  0  0  0  0  0  0  0  0  0  0  0
  152.5263  142.4401  163.0460 C   0  0  0  0  0  0  0  0  0  0  0  0
  153.2203  141.2990  162.6034 C   0  0  0  0  0  0  0  0  0  0  0  0
  153.0244  140.8148  161.2954 C   0  0  0  0  0  0  0  0  0  0  0  0
  149.1098  141.3978  155.1719 C   0  0  2  0  0  0  0  0  0  0  0  0
  147.9237  141.7569  155.8547 O   0  0  0  0  0  0  0  0  0  0  0  0
  149.0095  140.0064  154.5560 C   0  0  1  0  0  0  0  0  0  0  0  0
  148.6048  140.1233  153.2059 O   0  0  0  0  0  0  0  0  0  0  0  0
  151.7661  137.4715  155.5860 C   0  0  0  0  0  0  0  0  0  0  0  0
  152.7635  137.9893  155.0850 O   0  0  0  0  0  0  0  0  0  0  0  0
  151.8128  136.2988  156.2800 N   0  5  0  0  0  0  0  0  0  0  0  0
  150.7227  135.7623  156.8978 C   0  0  0  0  0  0  0  0  0  0  0  0
  150.7706  134.6871  157.4943 O   0  0  0  0  0  0  0  0  0  0  0  0
  147.3927  136.6361  157.4902 H   0  0  0  0  0  0  0  0  0  0  0  0
  148.4780  135.8949  158.6689 H   0  0  0  0  0  0  0  0  0  0  0  0
  147.9762  134.9907  157.2328 H   0  0  0  0  0  0  0  0  0  0  0  0
  148.4940  138.2100  156.1336 H   0  0  0  0  0  0  0  0  0  0  0  0
  150.9311  139.2321  153.7213 H   0  0  0  0  0  0  0  0  0  0  0  0
  150.8187  142.2675  156.1922 H   0  0  0  0  0  0  0  0  0  0  0  0
  148.9959  140.7274  157.7328 H   0  0  0  0  0  0  0  0  0  0  0  0
  150.4144  139.7009  157.5534 H   0  0  0  0  0  0  0  0  0  0  0  0
  150.7492  143.1377  160.2211 H   0  0  0  0  0  0  0  0  0  0  0  0
  151.1025  143.9750  162.5152 H   0  0  0  0  0  0  0  0  0  0  0  0
  152.6779  142.8103  164.0493 H   0  0  0  0  0  0  0  0  0  0  0  0
  153.9052  140.7938  163.2686 H   0  0  0  0  0  0  0  0  0  0  0  0
  153.5750  139.9379  160.9875 H   0  0  0  0  0  0  0  0  0  0  0  0
  149.3197  142.1416  154.4015 H   0  0  0  0  0  0  0  0  0  0  0  0
  147.9255  142.6921  155.9883 H   0  0  0  0  0  0  0  0  0  0  0  0
  148.3130  139.3829  155.1190 H   0  0  0  0  0  0  0  0  0  0  0  0
  149.3506  140.3910  152.6919 H   0  0  0  0  0  0  0  0  0  0  0  0
  1  2  1  0  0  0  0
  1 27  1  0  0  0  0
  1 28  1  0  0  0  0
  1 29  1  0  0  0  0
  2 25  1  0  0  0  0
  2  3  2  0  0  0  0
  3  4  1  0  0  0  0
  3 30  1  0  0  0  0
  4  5  1  0  0  0  0
  4 22  1  0  0  0  0
  5 20  1  0  0  0  0
  5  6  1  0  0  0  0
  5 31  1  0  0  0  0
  6  7  1  0  0  0  0
  7  8  1  0  0  0  0
  7 18  1  0  0  0  0
  7 32  1  0  0  0  0
  8  9  1  0  0  0  0
  8 33  1  0  0  0  0
  8 34  1  0  0  0  0
  9 10  1  0  0  0  0
 10 11  2  0  0  0  0
 10 12  1  0  0  0  0
 12 17  1  0  0  0  0
 12 13  2  0  0  0  0
 13 14  1  0  0  0  0
 13 35  1  0  0  0  0
 14 15  2  0  0  0  0
 14 36  1  0  0  0  0
 15 16  1  0  0  0  0
 15 37  1  0  0  0  0
 16 17  2  0  0  0  0
 16 38  1  0  0  0  0
 17 39  1  0  0  0  0
 18 19  1  0  0  0  0
 18 20  1  0  0  0  0
 18 40  1  0  0  0  0
 19 41  1  0  0  0  0
 20 21  1  0  0  0  0
 20 42  1  0  0  0  0
 21 43  1  0  0  0  0
 22 23  2  0  0  0  0
 22 24  1  0  0  0  0
 24 25  1  0  0  0  0
 25 26  2  0  0  0  0
M  CHG  1  24  -1
M  END
> <s_m_source_file>
AV-unprocessed.smi

> <i_m_source_file_index>
101

> <i_lp_mmshare_version>
43012

> <i_f3d_flags>
0

> <s_epik_input>
Tz1jMVtuSF1jKD1PKW4oW2NIXWMxW0NIM10pW0NAQEhdMk9bQ0BIXShbQ0BASF0oW09IXSlbQ0BIXTJbT0hdKVtDSDJdT0MoPU8pYzNbY0hdW2NIXVtjSF1bY0hdW2NIXTM=

> <s_epik_cmdline>
J2VwaWtfcHl0aG9uJywgJy1waCcsICc3LjAnLCAnLXRuJywgJzgnLCAnLW1hJywgJzIwMCcsICctbWV0YWxfYmluZGluZycsICctaW1hZScsICc8aW5maWxlLm1hZT4nLCAnLW9tYWUnLCAnPG91dGZpbGUubWFlPic=

> <r_lp_tautomer_probability>
0.999537

> <r_epik_Ionization_Penalty>
3.21006

> <r_epik_Ionization_Penalty_Charging>
5.75142e-08

> <r_epik_Ionization_Penalty_Neutral>
3.21006

> <r_epik_State_Penalty>
3.20925

> <r_epik_Charging_Adjusted_Penalty>
3.20925

> <i_epik_Tot_Q>
-1

> <i_epik_Tot_abs_Q>
1

> <r_epik_Metal_State_Penalty>
0.119957

> <b_epik_Metal_Only>
1

> <s_epik_Chemistry_Notes>
This compound has an ester and may undergo hydrolysis at high or low pH. This compound contains an acetal/aminal-like group ( X-CH(R)-Y where X, Y are N, S, or O) that may be acid/base labile, releasing an aldehyde.

> <s_lp_Force_Field>
OPLS_2005

> <r_lp_Energy>
44.0889

> <b_lp_Chiralities_Consistent>
1

> <s_lp_Variant>
AV-unprocessed.smi:101-23

> <Gold.Version>
5.8.1

> <Gold.Id.Protein>
6NUR|6NUR_protein|mol2

> <Gold.PLP.Fitness>
63.2521

> <Gold.PLP.PLP>
-47.9294

> <Gold.PLP.part.hbond>
-6.5496

> <Gold.PLP.part.metal>
0.0000

> <Gold.PLP.part.buried>
-6.6934

> <Gold.PLP.part.nonpolar>
-35.1541

> <Gold.PLP.part.repulsive>
0.2002

> <Gold.PLP.ligand.clash>
0.0000

> <Gold.PLP.ligand.torsion>
1.5883

> <Gold.PLP.Chemscore.Hbond>
6.1280

> <Gold.PLP.Chemscore.CHOScore>
0.0000

> <Gold.PLP.Chemscore.Metal>
0.0000

> <Gold.Chemscore.Hbonds>
donor molecule, donor type, donor heavy atom, donor atom, acceptor molecule, acceptor atom, score
      L1  H    19    41       P1  8028  0.46
      L1  H    21    43       P1  7957  0.53
      P1  H  6896  6908       L1    26  0.42
      P1  H  7997  8009       L1    11  0.08
      P1  H 10752 10764       L1    24  1.60

> <Gold.PLP.Chemscore.Internal.Correction>
0.1153

> <Gold.Rescore>
     Score         DG    S(hbond)    S(metal)    S(lipo)     H(rot)  DE(clash)    DE(int)     intcor
     14.29     -18.31       3.38        0.00      84.64       3.27       0.41       3.62       ----

> <Gold.Chemscore.Fitness>
14.2861

> <Gold.Chemscore.DG>
-18.3071

> <Gold.Chemscore.ZeroCoef>
-5.4800

> <Gold.Chemscore.Hbond>
3.3786

> <Gold.Chemscore.Metal>
0.0000

> <Gold.Chemscore.Lipo>
84.6351

> <Gold.Chemscore.Internal_Hbond>
0.0000

> <Gold.Chemscore.DEClash>
0.4058

> <Gold.Chemscore.DEInternal>
3.6152

> <Gold.Chemscore.Rot>
3.2656

> <Gold.Chemscore.Internal.Correction>
   9.000000E+99

> <Gold.Chemscore.Hbonds>
donor molecule, donor type, donor heavy atom, donor atom, acceptor molecule, acceptor atom, score
      L1  H    19    41       P1  8028  0.30
      L1  H    21    43       P1  7957  0.51
      P1  H  6896  6908       L1    26  0.42
      P1  H  7997  8009       L1    11  0.10
      P1  H 10752 10764       L1    24  0.11

> <Gold.Chemscore.Hbond.Weighted>
-11.2846

> <Gold.Chemscore.Metal.Weighted>
-0.0000

> <Gold.Chemscore.Lipo.Weighted>
-9.9023

> <Gold.Chemscore.Internal_Hbond.Weighted>
0.0000

> <Gold.Chemscore.DEClash.Weighted>
0.4058

> <Gold.Chemscore.DEInternal.Weighted>
3.6152

> <Gold.Chemscore.Rot.Weighted>
8.3598

> <Gold.Chemscore.Internal.Correction.Weighted>
   9.000000E+99

> <Gold.Protein.RotatedTorsions>
[ 6907 6896 6895 6894 ] final  135.77 input  -60.11 | X-H torsion
[ 7974 7965 7964 7962 ] final  134.36 input  175.53 | X-H torsion
[ 8008 7997 7996 7995 ] final  167.85 input   59.86 | X-H torsion
[ 10167 10162 10161 10158 ] final  -78.48 input  -65.29 | X-H torsion
[ 10718 10713 10712 10709 ] final   44.89 input   66.30 | X-H torsion
[ 10763 10752 10751 10750 ] final  -18.76 input  -60.55 | X-H torsion
[ 11005 11000 10999 10996 ] final  128.80 input  -57.11 | X-H torsion

> <Gold.Protein.ActiveResidues>
 VAL166  LYS551  ARG553  GLY616  TRP617  ASP618  TYR619  PRO620  LYS621  CYS622 
 ASP623  PHE694  ASN695  SER759  ASP760  ASP761  ALA762  ILE779  LEU786  VAL792 
 PHE793  MET794  SER795  GLU796  ALA797  LYS798  CYS799  TRP800  GLU811  SER814 

> <Gold.Protein.RotatedAtoms>
  152.2967  133.5615  159.5591 H   0  0  0  0  0  0  0  0  0  0  0  0  # atno 6907 bound_to 6896
  150.7259  134.0350  159.3755 H   0  0  0  0  0  0  0  0  0  0  0  0  # atno 6908 bound_to 6896
  151.8253  135.0639  160.0481 H   0  0  0  0  0  0  0  0  0  0  0  0  # atno 6909 bound_to 6896
  144.9771  139.4543  143.5404 H   0  0  0  0  0  0  0  0  0  0  0  0  # atno 7974 bound_to 7965
  156.1598  140.1606  156.8631 H   0  0  0  0  0  0  0  0  0  0  0  0  # atno 8008 bound_to 7997
  154.5150  140.0792  156.8099 H   0  0  0  0  0  0  0  0  0  0  0  0  # atno 8009 bound_to 7997
  155.3730  140.3401  155.4246 H   0  0  0  0  0  0  0  0  0  0  0  0  # atno 8010 bound_to 7997
  140.4678  143.2435  151.8251 H   0  0  0  0  0  0  0  0  0  0  0  0  # atno 10167 bound_to 10162
  157.4317  130.8029  149.7610 H   0  0  0  0  0  0  0  0  0  0  0  0  # atno 10718 bound_to 10713
  153.5942  135.7001  153.5410 H   0  0  0  0  0  0  0  0  0  0  0  0  # atno 10763 bound_to 10752
  153.3152  135.4090  155.1369 H   0  0  0  0  0  0  0  0  0  0  0  0  # atno 10764 bound_to 10752
  154.8595  135.3682  154.5475 H   0  0  0  0  0  0  0  0  0  0  0  0  # atno 10765 bound_to 10752
  139.9580  134.9608  156.9055 H   0  0  0  0  0  0  0  0  0  0  0  0  # atno 11005 bound_to 11000
  146.3398  139.9020  142.8793 LP  0  0  0  0  0  0  0  0  0  0  0  0  # atno 17320 bound_to 7965
  145.2474  141.0031  143.3900 LP  0  0  0  0  0  0  0  0  0  0  0  0  # atno 17321 bound_to 7965
  139.4814  144.4929  151.9161 LP  0  0  0  0  0  0  0  0  0  0  0  0  # atno 17342 bound_to 10162
  140.4014  144.2487  150.5893 LP  0  0  0  0  0  0  0  0  0  0  0  0  # atno 17343 bound_to 10162
  155.9916  130.3937  150.2979 LP  0  0  0  0  0  0  0  0  0  0  0  0  # atno 17370 bound_to 10713
  157.1136  131.0228  151.3038 LP  0  0  0  0  0  0  0  0  0  0  0  0  # atno 17371 bound_to 10713
  140.5564  134.0577  155.7385 LP  0  0  0  0  0  0  0  0  0  0  0  0  # atno 17394 bound_to 11000
  141.1254  133.9391  157.2645 LP  0  0  0  0  0  0  0  0  0  0  0  0  # atno 17395 bound_to 11000

$$$$
