AV-unprocessed.smi:796|AV-procd|sdf|3766|dock1
  -GOLD-   22720 1203D 1   1.00000     0.00000
 Structure written by MMmdl.
 46 47  0  0  0  0  0  0  0  0  1 V2000
  151.3276  131.1477  153.8156 C   0  0  0  0  0  0  0  0  0  0  0  0
  151.2267  132.6510  154.1273 C   0  0  0  0  0  0  0  0  0  0  0  0
  149.8091  133.2776  153.9822 C   0  0  2  0  0  0  0  0  0  0  0  0
  148.9042  132.8185  155.1508 C   0  0  0  0  0  0  0  0  0  0  0  0
  149.1450  132.8673  152.6431 C   0  0  0  0  0  0  0  0  0  0  0  0
  147.9505  133.5790  152.3880 O   0  0  0  0  0  0  0  0  0  0  0  0
  149.8831  134.7464  153.9627 N   0  0  0  0  0  0  0  0  0  0  0  0
  150.3821  135.5751  154.8957 C   0  0  0  0  0  0  0  0  0  0  0  0
  150.8994  135.1988  155.9466 O   0  0  0  0  0  0  0  0  0  0  0  0
  150.2583  136.8575  154.5125 N   0  0  0  0  0  0  0  0  0  0  0  0
  150.5865  138.0350  155.2377 C   0  0  0  0  0  0  0  0  0  0  0  0
  150.5111  139.3447  154.7100 C   0  0  0  0  0  0  0  0  0  0  0  0
  150.8893  140.4307  155.5221 C   0  0  0  0  0  0  0  0  0  0  0  0
  151.3437  140.1877  156.8401 C   0  0  0  0  0  0  0  0  0  0  0  0
  151.7307  141.2627  157.6708 N   0  0  0  0  0  0  0  0  0  0  0  0
  152.3119  140.8969  158.9607 C   0  0  0  0  0  0  0  0  0  0  0  0
  152.9704  142.1215  159.6193 C   0  0  0  0  0  0  0  0  0  0  0  0
  152.0257  143.1815  159.7210 O   0  0  0  0  0  0  0  0  0  0  0  0
  151.5584  143.5974  158.4422 C   0  0  0  0  0  0  0  0  0  0  0  0
  150.8473  142.4255  157.7445 C   0  0  0  0  0  0  0  0  0  0  0  0
  151.4176  138.9295  157.3402 N   0  0  0  0  0  0  0  0  0  0  0  0
  151.0559  137.8911  156.5580 C   0  0  0  0  0  0  0  0  0  0  0  0
  152.3562  130.8050  153.9271 H   0  0  0  0  0  0  0  0  0  0  0  0
  151.0206  130.9238  152.7940 H   0  0  0  0  0  0  0  0  0  0  0  0
  150.7139  130.5530  154.4915 H   0  0  0  0  0  0  0  0  0  0  0  0
  151.5998  132.8209  155.1376 H   0  0  0  0  0  0  0  0  0  0  0  0
  151.9286  133.1782  153.4812 H   0  0  0  0  0  0  0  0  0  0  0  0
  148.7679  131.7369  155.1480 H   0  0  0  0  0  0  0  0  0  0  0  0
  147.9144  133.2725  155.0904 H   0  0  0  0  0  0  0  0  0  0  0  0
  149.3240  133.0756  156.1231 H   0  0  0  0  0  0  0  0  0  0  0  0
  149.8278  133.0439  151.8107 H   0  0  0  0  0  0  0  0  0  0  0  0
  148.9169  131.8014  152.6287 H   0  0  0  0  0  0  0  0  0  0  0  0
  148.1669  134.4855  152.2314 H   0  0  0  0  0  0  0  0  0  0  0  0
  149.4980  135.1827  153.1379 H   0  0  0  0  0  0  0  0  0  0  0  0
  149.9069  137.0102  153.5786 H   0  0  0  0  0  0  0  0  0  0  0  0
  150.1848  139.5404  153.7007 H   0  0  0  0  0  0  0  0  0  0  0  0
  150.8156  141.4323  155.1264 H   0  0  0  0  0  0  0  0  0  0  0  0
  151.5210  140.5084  159.6034 H   0  0  0  0  0  0  0  0  0  0  0  0
  153.0558  140.1080  158.8633 H   0  0  0  0  0  0  0  0  0  0  0  0
  153.3241  141.8652  160.6180 H   0  0  0  0  0  0  0  0  0  0  0  0
  153.8408  142.4490  159.0481 H   0  0  0  0  0  0  0  0  0  0  0  0
  150.8691  144.4318  158.5703 H   0  0  0  0  0  0  0  0  0  0  0  0
  152.3915  143.9618  157.8389 H   0  0  0  0  0  0  0  0  0  0  0  0
  150.5424  142.7346  156.7440 H   0  0  0  0  0  0  0  0  0  0  0  0
  149.9438  142.1567  158.2937 H   0  0  0  0  0  0  0  0  0  0  0  0
  151.1431  136.9120  157.0060 H   0  0  0  0  0  0  0  0  0  0  0  0
  1  2  1  0  0  0  0
  1 23  1  0  0  0  0
  1 24  1  0  0  0  0
  1 25  1  0  0  0  0
  2  3  1  0  0  0  0
  2 26  1  0  0  0  0
  2 27  1  0  0  0  0
  3  4  1  0  0  0  0
  3  5  1  0  0  0  0
  3  7  1  0  0  0  0
  4 28  1  0  0  0  0
  4 29  1  0  0  0  0
  4 30  1  0  0  0  0
  5  6  1  0  0  0  0
  5 31  1  0  0  0  0
  5 32  1  0  0  0  0
  6 33  1  0  0  0  0
  7  8  1  0  0  0  0
  7 34  1  0  0  0  0
  8  9  2  0  0  0  0
  8 10  1  0  0  0  0
 10 11  1  0  0  0  0
 10 35  1  0  0  0  0
 11 22  1  0  0  0  0
 11 12  2  0  0  0  0
 12 13  1  0  0  0  0
 12 36  1  0  0  0  0
 13 14  2  0  0  0  0
 13 37  1  0  0  0  0
 14 15  1  0  0  0  0
 14 21  1  0  0  0  0
 15 20  1  0  0  0  0
 15 16  1  0  0  0  0
 16 17  1  0  0  0  0
 16 38  1  0  0  0  0
 16 39  1  0  0  0  0
 17 18  1  0  0  0  0
 17 40  1  0  0  0  0
 17 41  1  0  0  0  0
 18 19  1  0  0  0  0
 19 20  1  0  0  0  0
 19 42  1  0  0  0  0
 19 43  1  0  0  0  0
 20 44  1  0  0  0  0
 20 45  1  0  0  0  0
 21 22  2  0  0  0  0
 22 46  1  0  0  0  0
M  END
> <s_m_source_file>
AV-unprocessed.smi

> <i_m_source_file_index>
796

> <i_lp_mmshare_version>
43012

> <i_f3d_flags>
0

> <s_epik_input>
W0NIM11bQ0gyXVtDQEBdKFtDSDNdKShbQ0gyXVtPSF0pW05IXUMoPU8pW05IXWMxW2NIXVtjSF1jKG5bY0hdMSlOMltDSDJdW0NIMl1PW0NIMl1bQ0gyXTI=

> <s_epik_cmdline>
J2VwaWtfcHl0aG9uJywgJy1waCcsICc3LjAnLCAnLXRuJywgJzgnLCAnLW1hJywgJzIwMCcsICctbWV0YWxfYmluZGluZycsICctaW1hZScsICc8aW5maWxlLm1hZT4nLCAnLW9tYWUnLCAnPG91dGZpbGUubWFlPic=

> <r_lp_tautomer_probability>
1

> <r_epik_Ionization_Penalty>
0.00214298

> <r_epik_Ionization_Penalty_Charging>
0

> <r_epik_Ionization_Penalty_Neutral>
0.00214298

> <r_epik_State_Penalty>
0.00144388

> <r_epik_Charging_Adjusted_Penalty>
0.00144388

> <i_epik_Tot_Q>
0

> <i_epik_Tot_abs_Q>
0

> <r_epik_Metal_State_Penalty>
-0

> <b_epik_Metal_Only>
0

> <s_lp_Force_Field>
OPLS_2005

> <r_lp_Energy>
24.369

> <b_lp_Chiralities_Consistent>
1

> <s_lp_Variant>
AV-unprocessed.smi:796-2

> <Gold.Version>
5.8.1

> <Gold.Id.Protein>
6NUR|6NUR_protein|mol2

> <Gold.PLP.Fitness>
45.2307

> <Gold.PLP.PLP>
-36.6285

> <Gold.PLP.part.hbond>
-3.0000

> <Gold.PLP.part.metal>
0.0000

> <Gold.PLP.part.buried>
-3.0892

> <Gold.PLP.part.nonpolar>
-30.6379

> <Gold.PLP.part.repulsive>
0.0751

> <Gold.PLP.ligand.clash>
0.0000

> <Gold.PLP.ligand.torsion>
0.3847

> <Gold.PLP.Chemscore.Hbond>
2.9833

> <Gold.PLP.Chemscore.CHOScore>
0.0000

> <Gold.PLP.Chemscore.Metal>
0.0000

> <Gold.Chemscore.Hbonds>
donor molecule, donor type, donor heavy atom, donor atom, acceptor molecule, acceptor atom, score
      L1  H     6    33       P1  7948  0.85
      L1  H     7    34       P1  7948  0.40
      L1  H    10    35       P1  7948  0.87

> <Gold.PLP.Chemscore.Internal.Correction>
0.4215

> <Gold.Rescore>
     Score         DG    S(hbond)    S(metal)    S(lipo)     H(rot)  DE(clash)    DE(int)     intcor
     16.22     -18.28       2.72        0.00      80.82       2.24       0.03       2.04       ----

> <Gold.Chemscore.Fitness>
16.2195

> <Gold.Chemscore.DG>
-18.2836

> <Gold.Chemscore.ZeroCoef>
-5.4800

> <Gold.Chemscore.Hbond>
2.7180

> <Gold.Chemscore.Metal>
0.0000

> <Gold.Chemscore.Lipo>
80.8236

> <Gold.Chemscore.Internal_Hbond>
0.0000

> <Gold.Chemscore.DEClash>
0.0270

> <Gold.Chemscore.DEInternal>
2.0372

> <Gold.Chemscore.Rot>
2.2387

> <Gold.Chemscore.Internal.Correction>
   9.000000E+99

> <Gold.Chemscore.Hbonds>
donor molecule, donor type, donor heavy atom, donor atom, acceptor molecule, acceptor atom, score
      L1  H     6    33       P1  7948  0.15
      L1  H     7    34       P1  7948  0.01
      L1  H    10    35       P1  7948  0.36

> <Gold.Chemscore.Hbond.Weighted>
-9.0783

> <Gold.Chemscore.Metal.Weighted>
-0.0000

> <Gold.Chemscore.Lipo.Weighted>
-9.4564

> <Gold.Chemscore.Internal_Hbond.Weighted>
0.0000

> <Gold.Chemscore.DEClash.Weighted>
0.0270

> <Gold.Chemscore.DEInternal.Weighted>
2.0372

> <Gold.Chemscore.Rot.Weighted>
5.7310

> <Gold.Chemscore.Internal.Correction.Weighted>
   9.000000E+99

> <Gold.Protein.RotatedTorsions>
[ 6907 6896 6895 6894 ] final   77.03 input  -60.11 | X-H torsion
[ 7974 7965 7964 7962 ] final  -75.64 input  175.53 | X-H torsion
[ 8008 7997 7996 7995 ] final -100.06 input   59.86 | X-H torsion
[ 10167 10162 10161 10158 ] final  115.78 input  -65.29 | X-H torsion
[ 10718 10713 10712 10709 ] final -167.26 input   66.30 | X-H torsion
[ 10763 10752 10751 10750 ] final  138.63 input  -60.55 | X-H torsion
[ 11005 11000 10999 10996 ] final   21.07 input  -57.11 | X-H torsion

> <Gold.Protein.ActiveResidues>
 VAL166  LYS551  ARG553  GLY616  TRP617  ASP618  TYR619  PRO620  LYS621  CYS622 
 ASP623  PHE694  ASN695  SER759  ASP760  ASP761  ALA762  ILE779  LEU786  VAL792 
 PHE793  MET794  SER795  GLU796  ALA797  LYS798  CYS799  TRP800  GLU811  SER814 

> <Gold.Protein.RotatedAtoms>
  152.5100  134.3878  159.9373 H   0  0  0  0  0  0  0  0  0  0  0  0  # atno 6907 bound_to 6896
  151.3837  133.3806  159.2721 H   0  0  0  0  0  0  0  0  0  0  0  0  # atno 6908 bound_to 6896
  150.9485  134.8908  159.7716 H   0  0  0  0  0  0  0  0  0  0  0  0  # atno 6909 bound_to 6896
  145.6233  140.9357  143.1126 H   0  0  0  0  0  0  0  0  0  0  0  0  # atno 7974 bound_to 7965
  154.8235  140.0443  157.1427 H   0  0  0  0  0  0  0  0  0  0  0  0  # atno 8008 bound_to 7997
  154.9233  140.3030  155.5185 H   0  0  0  0  0  0  0  0  0  0  0  0  # atno 8009 bound_to 7997
  156.2982  140.2336  156.4285 H   0  0  0  0  0  0  0  0  0  0  0  0  # atno 8010 bound_to 7997
  139.6293  144.7113  151.2466 H   0  0  0  0  0  0  0  0  0  0  0  0  # atno 10167 bound_to 10162
  156.6798  130.9117  151.3055 H   0  0  0  0  0  0  0  0  0  0  0  0  # atno 10718 bound_to 10713
  153.8928  135.3031  155.3447 H   0  0  0  0  0  0  0  0  0  0  0  0  # atno 10763 bound_to 10752
  154.7708  135.4887  153.9648 H   0  0  0  0  0  0  0  0  0  0  0  0  # atno 10764 bound_to 10752
  153.1288  135.6799  153.9311 H   0  0  0  0  0  0  0  0  0  0  0  0  # atno 10765 bound_to 10752
  140.3957  134.1772  155.7663 H   0  0  0  0  0  0  0  0  0  0  0  0  # atno 11005 bound_to 11000
  144.7222  139.7991  143.7378 LP  0  0  0  0  0  0  0  0  0  0  0  0  # atno 17320 bound_to 7965
  146.1414  139.4472  143.0106 LP  0  0  0  0  0  0  0  0  0  0  0  0  # atno 17321 bound_to 7965
  140.7430  143.6510  150.8249 LP  0  0  0  0  0  0  0  0  0  0  0  0  # atno 17342 bound_to 10162
  140.0132  143.5620  152.2830 LP  0  0  0  0  0  0  0  0  0  0  0  0  # atno 17343 bound_to 10162
  157.7048  130.9372  150.0896 LP  0  0  0  0  0  0  0  0  0  0  0  0  # atno 17370 bound_to 10713
  156.1876  130.3653  149.8952 LP  0  0  0  0  0  0  0  0  0  0  0  0  # atno 17371 bound_to 10713
  141.1875  133.8280  157.1030 LP  0  0  0  0  0  0  0  0  0  0  0  0  # atno 17394 bound_to 11000
  140.0373  134.9871  157.0896 LP  0  0  0  0  0  0  0  0  0  0  0  0  # atno 17395 bound_to 11000

$$$$
