AV-unprocessed.smi:1843|AV-procd|sdf|7503|dock4
  -GOLD-   22720 9203D 1   1.00000     0.00000
 Structure written by MMmdl.
 37 39  0  0  0  0  0  0  0  0  1 V2000
  144.7276  136.4000  153.2438 O   0  0  0  0  0  0  0  0  0  0  0  0
  145.9042  136.3448  152.8856 C   0  0  0  0  0  0  0  0  0  0  0  0
  146.8165  137.3175  153.0574 N   0  0  0  0  0  0  0  0  0  0  0  0
  146.6447  138.5876  153.6685 C   0  0  0  0  0  0  0  0  0  0  0  0
  146.1325  138.7618  154.8944 N   0  0  0  0  0  0  0  0  0  0  0  0
  146.0750  140.1029  155.2460 N   0  0  0  0  0  0  0  0  0  0  0  0
  146.5446  140.9022  154.2805 C   0  0  0  0  0  0  0  0  0  0  0  0
  146.5852  142.3871  154.4261 C   0  0  0  0  0  0  0  0  0  0  0  0
  145.3683  143.1760  154.8582 C   0  0  0  0  0  0  0  0  0  0  0  0
  145.8680  143.2795  153.4397 C   0  0  0  0  0  0  0  0  0  0  0  0
  147.1038  140.0636  152.8367 S   0  0  0  0  0  0  0  0  0  0  0  0
  146.4387  135.2845  152.2629 N   0  0  0  0  0  0  0  0  0  0  0  0
  145.7240  134.0540  151.9283 C   0  0  1  0  0  0  0  0  0  0  0  0
  144.3783  134.4227  151.2648 C   0  0  0  0  0  0  0  0  0  0  0  0
  143.6333  133.1897  150.7331 C   0  0  0  0  0  0  0  0  0  0  0  0
  144.5126  132.3955  149.7585 C   0  0  0  0  0  0  0  0  0  0  0  0
  145.8264  131.9792  150.4329 C   0  0  0  0  0  0  0  0  0  0  0  0
  146.5961  133.1952  150.9824 C   0  0  2  0  0  0  0  0  0  0  0  0
  147.7162  132.7013  151.6897 O   0  0  0  0  0  0  0  0  0  0  0  0
  147.7443  137.1278  152.7086 H   0  0  0  0  0  0  0  0  0  0  0  0
  147.5579  142.7106  154.7917 H   0  0  0  0  0  0  0  0  0  0  0  0
  144.4345  142.6402  155.0168 H   0  0  0  0  0  0  0  0  0  0  0  0
  145.5309  144.0306  155.5115 H   0  0  0  0  0  0  0  0  0  0  0  0
  146.3645  144.2022  153.1462 H   0  0  0  0  0  0  0  0  0  0  0  0
  145.2754  142.8006  152.6624 H   0  0  0  0  0  0  0  0  0  0  0  0
  147.4124  135.3276  152.0005 H   0  0  0  0  0  0  0  0  0  0  0  0
  145.5211  133.4797  152.8350 H   0  0  0  0  0  0  0  0  0  0  0  0
  143.7429  134.9526  151.9758 H   0  0  0  0  0  0  0  0  0  0  0  0
  144.5535  135.1130  150.4381 H   0  0  0  0  0  0  0  0  0  0  0  0
  143.3382  132.5514  151.5669 H   0  0  0  0  0  0  0  0  0  0  0  0
  142.7125  133.4969  150.2367 H   0  0  0  0  0  0  0  0  0  0  0  0
  143.9773  131.5123  149.4090 H   0  0  0  0  0  0  0  0  0  0  0  0
  144.7259  132.9998  148.8759 H   0  0  0  0  0  0  0  0  0  0  0  0
  145.6041  131.2850  151.2451 H   0  0  0  0  0  0  0  0  0  0  0  0
  146.4482  131.4324  149.7231 H   0  0  0  0  0  0  0  0  0  0  0  0
  146.9485  133.8030  150.1476 H   0  0  0  0  0  0  0  0  0  0  0  0
  148.0801  131.9758  151.2061 H   0  0  0  0  0  0  0  0  0  0  0  0
  1  2  2  0  0  0  0
  2  3  1  0  0  0  0
  2 12  1  0  0  0  0
  3  4  1  0  0  0  0
  3 20  1  0  0  0  0
  4 11  1  0  0  0  0
  4  5  2  0  0  0  0
  5  6  1  0  0  0  0
  6  7  2  0  0  0  0
  7  8  1  0  0  0  0
  7 11  1  0  0  0  0
  8 10  1  0  0  0  0
  8  9  1  0  0  0  0
  8 21  1  0  0  0  0
  9 10  1  0  0  0  0
  9 22  1  0  0  0  0
  9 23  1  0  0  0  0
 10 24  1  0  0  0  0
 10 25  1  0  0  0  0
 12 13  1  0  0  0  0
 12 26  1  0  0  0  0
 13 18  1  0  0  0  0
 13 14  1  0  0  0  0
 13 27  1  0  0  0  0
 14 15  1  0  0  0  0
 14 28  1  0  0  0  0
 14 29  1  0  0  0  0
 15 16  1  0  0  0  0
 15 30  1  0  0  0  0
 15 31  1  0  0  0  0
 16 17  1  0  0  0  0
 16 32  1  0  0  0  0
 16 33  1  0  0  0  0
 17 18  1  0  0  0  0
 17 34  1  0  0  0  0
 17 35  1  0  0  0  0
 18 19  1  0  0  0  0
 18 36  1  0  0  0  0
 19 37  1  0  0  0  0
M  END
> <s_m_source_file>
AV-unprocessed.smi

> <i_m_source_file_index>
1843

> <i_lp_mmshare_version>
43012

> <i_f3d_flags>
0

> <s_epik_input>
W09IXVtDQEBIXTFbQ0gyXVtDSDJdW0NIMl1bQ0gyXVtDQEhdMVtOSF1DKD1PKVtOSF1jMm5uYyhzMilbQ0hdM1tDSDJdW0NIMl0z

> <s_epik_cmdline>
J2VwaWtfcHl0aG9uJywgJy1waCcsICc3LjAnLCAnLXRuJywgJzgnLCAnLW1hJywgJzIwMCcsICctbWV0YWxfYmluZGluZycsICctaW1hZScsICc8aW5maWxlLm1hZT4nLCAnLW9tYWUnLCAnPG91dGZpbGUubWFlPic=

> <r_lp_tautomer_probability>
1

> <r_epik_Ionization_Penalty>
0.000257313

> <r_epik_Ionization_Penalty_Charging>
0

> <r_epik_Ionization_Penalty_Neutral>
0.000257313

> <r_epik_State_Penalty>
-0

> <r_epik_Charging_Adjusted_Penalty>
0

> <i_epik_Tot_Q>
0

> <i_epik_Tot_abs_Q>
0

> <r_epik_Metal_State_Penalty>
0.147479

> <b_epik_Metal_Only>
0

> <s_lp_Force_Field>
OPLS_2005

> <r_lp_Energy>
8.53895

> <b_lp_Chiralities_Consistent>
1

> <s_lp_Variant>
AV-unprocessed.smi:1843-4

> <Gold.Version>
5.8.1

> <Gold.Id.Protein>
6NUR|6NUR_protein|mol2

> <Gold.PLP.Fitness>
41.4488

> <Gold.PLP.PLP>
-33.6959

> <Gold.PLP.part.hbond>
-3.0000

> <Gold.PLP.part.metal>
0.0000

> <Gold.PLP.part.buried>
-3.7713

> <Gold.PLP.part.nonpolar>
-27.1106

> <Gold.PLP.part.repulsive>
0.2780

> <Gold.PLP.ligand.clash>
0.0000

> <Gold.PLP.ligand.torsion>
0.6878

> <Gold.PLP.Chemscore.Hbond>
3.0000

> <Gold.PLP.Chemscore.CHOScore>
0.0000

> <Gold.PLP.Chemscore.Metal>
0.0000

> <Gold.Chemscore.Hbonds>
donor molecule, donor type, donor heavy atom, donor atom, acceptor molecule, acceptor atom, score
      L1  H     3    20       P1  7948  1.00
      L1  H    12    26       P1  7948  1.00
      L1  H    19    37       P1 10747  1.00

> <Gold.PLP.Chemscore.Internal.Correction>
0.1285

> <Gold.Rescore>
     Score         DG    S(hbond)    S(metal)    S(lipo)     H(rot)  DE(clash)    DE(int)     intcor
     17.93     -19.62       2.93        0.00      75.30       1.74       0.09       1.61       ----

> <Gold.Chemscore.Fitness>
17.9266

> <Gold.Chemscore.DG>
-19.6198

> <Gold.Chemscore.ZeroCoef>
-5.4800

> <Gold.Chemscore.Hbond>
2.9298

> <Gold.Chemscore.Metal>
0.0000

> <Gold.Chemscore.Lipo>
75.2968

> <Gold.Chemscore.Internal_Hbond>
0.0000

> <Gold.Chemscore.DEClash>
0.0860

> <Gold.Chemscore.DEInternal>
1.6072

> <Gold.Chemscore.Rot>
1.7404

> <Gold.Chemscore.Internal.Correction>
   9.000000E+99

> <Gold.Chemscore.Hbonds>
donor molecule, donor type, donor heavy atom, donor atom, acceptor molecule, acceptor atom, score
      L1  H     3    20       P1  7948  0.99
      L1  H    12    26       P1  7948  0.96
      L1  H    19    37       P1 10747  1.00

> <Gold.Chemscore.Hbond.Weighted>
-9.7855

> <Gold.Chemscore.Metal.Weighted>
-0.0000

> <Gold.Chemscore.Lipo.Weighted>
-8.8097

> <Gold.Chemscore.Internal_Hbond.Weighted>
0.0000

> <Gold.Chemscore.DEClash.Weighted>
0.0860

> <Gold.Chemscore.DEInternal.Weighted>
1.6072

> <Gold.Chemscore.Rot.Weighted>
4.4555

> <Gold.Chemscore.Internal.Correction.Weighted>
   9.000000E+99

> <Gold.Protein.RotatedTorsions>
[ 6907 6896 6895 6894 ] final   17.39 input  -60.11 | X-H torsion
[ 7974 7965 7964 7962 ] final  160.14 input  175.53 | X-H torsion
[ 8008 7997 7996 7995 ] final -160.92 input   59.86 | X-H torsion
[ 10167 10162 10161 10158 ] final   35.26 input  -65.29 | X-H torsion
[ 10718 10713 10712 10709 ] final  -55.06 input   66.30 | X-H torsion
[ 10763 10752 10751 10750 ] final  112.48 input  -60.55 | X-H torsion
[ 11005 11000 10999 10996 ] final  -70.29 input  -57.11 | X-H torsion

> <Gold.Protein.ActiveResidues>
 VAL166  LYS551  ARG553  GLY616  TRP617  ASP618  TYR619  PRO620  LYS621  CYS622 
 ASP623  PHE694  ASN695  SER759  ASP760  ASP761  ALA762  ILE779  LEU786  VAL792 
 PHE793  MET794  SER795  GLU796  ALA797  LYS798  CYS799  TRP800  GLU811  SER814 

> <Gold.Protein.RotatedAtoms>
  151.8488  135.0565  160.0456 H   0  0  0  0  0  0  0  0  0  0  0  0  # atno 6907 bound_to 6896
  152.2752  133.5414  159.5472 H   0  0  0  0  0  0  0  0  0  0  0  0  # atno 6908 bound_to 6896
  150.7167  134.0558  159.3856 H   0  0  0  0  0  0  0  0  0  0  0  0  # atno 6909 bound_to 6896
  144.7752  139.7716  143.6281 H   0  0  0  0  0  0  0  0  0  0  0  0  # atno 7974 bound_to 7965
  155.7846  140.0870  157.2041 H   0  0  0  0  0  0  0  0  0  0  0  0  # atno 8008 bound_to 7997
  154.3988  140.1501  156.3149 H   0  0  0  0  0  0  0  0  0  0  0  0  # atno 8009 bound_to 7997
  155.8620  140.3430  155.5765 H   0  0  0  0  0  0  0  0  0  0  0  0  # atno 8010 bound_to 7997
  140.4238  144.1421  150.6151 H   0  0  0  0  0  0  0  0  0  0  0  0  # atno 10167 bound_to 10162
  156.1400  130.4155  150.0120 H   0  0  0  0  0  0  0  0  0  0  0  0  # atno 10718 bound_to 10713
  153.4785  135.3685  155.2429 H   0  0  0  0  0  0  0  0  0  0  0  0  # atno 10763 bound_to 10752
  154.8755  135.3948  154.3728 H   0  0  0  0  0  0  0  0  0  0  0  0  # atno 10764 bound_to 10752
  153.4327  135.7082  153.6285 H   0  0  0  0  0  0  0  0  0  0  0  0  # atno 10765 bound_to 10752
  141.1571  133.6786  156.6730 H   0  0  0  0  0  0  0  0  0  0  0  0  # atno 11005 bound_to 11000
  146.1927  139.5176  142.9794 LP  0  0  0  0  0  0  0  0  0  0  0  0  # atno 17320 bound_to 7965
  145.6206  141.0323  143.1917 LP  0  0  0  0  0  0  0  0  0  0  0  0  # atno 17321 bound_to 7965
  140.4504  143.2489  151.9356 LP  0  0  0  0  0  0  0  0  0  0  0  0  # atno 17342 bound_to 10162
  139.4783  144.5568  151.8301 LP  0  0  0  0  0  0  0  0  0  0  0  0  # atno 17343 bound_to 10162
  156.8008  130.9290  151.3646 LP  0  0  0  0  0  0  0  0  0  0  0  0  # atno 17370 bound_to 10713
  157.6567  130.8930  149.9743 LP  0  0  0  0  0  0  0  0  0  0  0  0  # atno 17371 bound_to 10713
  140.3160  134.8047  157.4215 LP  0  0  0  0  0  0  0  0  0  0  0  0  # atno 17394 bound_to 11000
  140.1137  134.5311  155.8243 LP  0  0  0  0  0  0  0  0  0  0  0  0  # atno 17395 bound_to 11000

$$$$
