AV-unprocessed.smi:3284|AV-procd|sdf|12573|dock10
  -GOLD-   2272018493D 1   1.00000     0.00000
 Structure written by MMmdl.
 44 45  0  0  0  0  0  0  0  0  2 V2000
  148.0522  141.7601  154.0644 C   0  0  0  0  0  0  0  0  0  0  0  0
  149.1779  140.9841  154.7278 C   0  0  0  0  0  0  0  0  0  0  0  0
  149.8777  141.5487  155.7304 C   0  0  0  0  0  0  0  0  0  0  0  0
  151.0637  140.9048  156.4105 C   0  0  0  0  0  0  0  0  0  0  0  0
  151.6765  139.8141  155.5291 C   0  0  0  0  0  0  0  0  0  0  0  0
  150.6042  138.8434  155.0079 C   0  0  2  0  0  0  0  0  0  0  0  0
  151.2818  137.7172  154.2032 C   0  0  0  0  0  0  0  0  0  0  0  0
  149.4880  139.5701  154.1946 C   0  0  1  0  0  0  0  0  0  0  0  0
  148.2263  138.6708  154.1067 C   0  0  0  0  0  0  0  0  0  0  0  0
  147.8046  138.3982  152.7172 N   0  3  0  0  0  0  0  0  0  0  0  0
  146.3433  138.2914  152.5439 C   0  0  0  0  0  0  0  0  0  0  0  0
  145.9021  136.8254  152.4471 C   0  0  0  0  0  0  0  0  0  0  0  0
  144.4316  136.6605  152.6745 C   0  0  0  0  0  0  0  0  0  0  0  0
  143.6457  137.6338  153.1239 N   0  0  0  0  0  0  0  0  0  0  0  0
  142.3825  137.0582  153.2128 C   0  0  0  0  0  0  0  0  0  0  0  0
  142.4524  135.7440  152.8179 C   0  0  0  0  0  0  0  0  0  0  0  0
  143.7770  135.4989  152.4804 N   0  0  0  0  0  0  0  0  0  0  0  0
  144.3164  134.2356  152.0155 C   0  0  0  0  0  0  0  0  0  0  0  0
  148.1724  141.7573  152.9809 H   0  0  0  0  0  0  0  0  0  0  0  0
  148.0424  142.8006  154.3915 H   0  0  0  0  0  0  0  0  0  0  0  0
  147.0819  141.3325  154.3167 H   0  0  0  0  0  0  0  0  0  0  0  0
  149.6101  142.5327  156.0875 H   0  0  0  0  0  0  0  0  0  0  0  0
  151.8117  141.6687  156.6237 H   0  0  0  0  0  0  0  0  0  0  0  0
  150.7396  140.4960  157.3680 H   0  0  0  0  0  0  0  0  0  0  0  0
  152.1924  140.2751  154.6854 H   0  0  0  0  0  0  0  0  0  0  0  0
  152.4355  139.2755  156.0975 H   0  0  0  0  0  0  0  0  0  0  0  0
  150.1403  138.3892  155.8853 H   0  0  0  0  0  0  0  0  0  0  0  0
  151.7559  138.1063  153.3015 H   0  0  0  0  0  0  0  0  0  0  0  0
  150.5811  136.9410  153.8992 H   0  0  0  0  0  0  0  0  0  0  0  0
  152.0563  137.2278  154.7946 H   0  0  0  0  0  0  0  0  0  0  0  0
  149.8720  139.7196  153.1844 H   0  0  0  0  0  0  0  0  0  0  0  0
  148.4004  137.7055  154.5790 H   0  0  0  0  0  0  0  0  0  0  0  0
  147.4045  139.1345  154.6543 H   0  0  0  0  0  0  0  0  0  0  0  0
  148.1426  139.1478  152.1305 H   0  0  0  0  0  0  0  0  0  0  0  0
  145.8453  138.7770  153.3842 H   0  0  0  0  0  0  0  0  0  0  0  0
  146.0495  138.8277  151.6404 H   0  0  0  0  0  0  0  0  0  0  0  0
  146.1415  136.4323  151.4582 H   0  0  0  0  0  0  0  0  0  0  0  0
  146.4551  136.2123  153.1593 H   0  0  0  0  0  0  0  0  0  0  0  0
  141.5303  137.6278  153.5528 H   0  0  0  0  0  0  0  0  0  0  0  0
  141.6886  134.9828  152.7545 H   0  0  0  0  0  0  0  0  0  0  0  0
  143.5645  133.4508  152.1045 H   0  0  0  0  0  0  0  0  0  0  0  0
  145.1845  133.9579  152.6136 H   0  0  0  0  0  0  0  0  0  0  0  0
  144.6118  134.3243  150.9699 H   0  0  0  0  0  0  0  0  0  0  0  0
  148.2312  137.5339  152.4151 H   0  0  0  0  0  0  0  0  0  0  0  0
  1  2  1  0  0  0  0
  1 19  1  0  0  0  0
  1 20  1  0  0  0  0
  1 21  1  0  0  0  0
  2  8  1  0  0  0  0
  2  3  2  0  0  0  0
  3  4  1  0  0  0  0
  3 22  1  0  0  0  0
  4  5  1  0  0  0  0
  4 23  1  0  0  0  0
  4 24  1  0  0  0  0
  5  6  1  0  0  0  0
  5 25  1  0  0  0  0
  5 26  1  0  0  0  0
  6  7  1  0  0  0  0
  6  8  1  0  0  0  0
  6 27  1  0  0  0  0
  7 28  1  0  0  0  0
  7 29  1  0  0  0  0
  7 30  1  0  0  0  0
  8  9  1  0  0  0  0
  8 31  1  0  0  0  0
  9 10  1  0  0  0  0
  9 32  1  0  0  0  0
  9 33  1  0  0  0  0
 10 11  1  0  0  0  0
 10 34  1  0  0  0  0
 10 44  1  0  0  0  0
 11 12  1  0  0  0  0
 11 35  1  0  0  0  0
 11 36  1  0  0  0  0
 12 13  1  0  0  0  0
 12 37  1  0  0  0  0
 12 38  1  0  0  0  0
 13 17  1  0  0  0  0
 13 14  2  0  0  0  0
 14 15  1  0  0  0  0
 15 16  2  0  0  0  0
 15 39  1  0  0  0  0
 16 17  1  0  0  0  0
 16 40  1  0  0  0  0
 17 18  1  0  0  0  0
 18 41  1  0  0  0  0
 18 42  1  0  0  0  0
 18 43  1  0  0  0  0
M  CHG  1  10   1
M  END
> <s_m_source_file>
AV-unprocessed.smi

> <i_m_source_file_index>
3284

> <i_lp_mmshare_version>
43012

> <i_f3d_flags>
0

> <s_epik_input>
W0NIM11DMT1bQ0hdW0NIMl1bQ0gyXVtDQEBIXShbQ0gzXSlbQ0BIXTFbQ0gyXVtOSF1bQ0gyXVtDSDJdYzJuW2NIXVtjSF1uMltDSDNd

> <s_epik_cmdline>
J2VwaWtfcHl0aG9uJywgJy1waCcsICc3LjAnLCAnLXRuJywgJzgnLCAnLW1hJywgJzIwMCcsICctbWV0YWxfYmluZGluZycsICctaW1hZScsICc8aW5maWxlLm1hZT4nLCAnLW9tYWUnLCAnPG91dGZpbGUubWFlPic=

> <r_lp_tautomer_probability>
1

> <r_epik_Ionization_Penalty>
0.150779

> <r_epik_Ionization_Penalty_Charging>
0.150779

> <r_epik_Ionization_Penalty_Neutral>
1.39452e-13

> <r_epik_State_Penalty>
0.349447

> <r_epik_Charging_Adjusted_Penalty>
0.500226

> <i_epik_Tot_Q>
1

> <i_epik_Tot_abs_Q>
1

> <r_epik_Metal_State_Penalty>
0.000470967

> <b_epik_Metal_Only>
0

> <s_lp_Force_Field>
OPLS_2005

> <r_lp_Energy>
12.7039

> <b_lp_Chiralities_Consistent>
1

> <s_lp_Variant>
AV-unprocessed.smi:3284-2

> <Gold.Version>
5.8.1

> <Gold.Id.Protein>
6NUR|6NUR_protein|mol2

> <Gold.PLP.Fitness>
42.5609

> <Gold.PLP.PLP>
-36.3252

> <Gold.PLP.part.hbond>
-2.0000

> <Gold.PLP.part.metal>
0.0000

> <Gold.PLP.part.buried>
-1.9523

> <Gold.PLP.part.nonpolar>
-34.0447

> <Gold.PLP.part.repulsive>
1.2876

> <Gold.PLP.ligand.clash>
0.0000

> <Gold.PLP.ligand.torsion>
1.3980

> <Gold.PLP.Chemscore.Hbond>
2.9920

> <Gold.PLP.Chemscore.CHOScore>
0.0000

> <Gold.PLP.Chemscore.Metal>
0.0000

> <Gold.Chemscore.Hbonds>
donor molecule, donor type, donor heavy atom, donor atom, acceptor molecule, acceptor atom, score
      L1  H    10    34       P1  7957  1.00
      L1  H    10    44       P1  7948  2.00

> <Gold.PLP.Chemscore.Internal.Correction>
0.0557

> <Gold.Rescore>
     Score         DG    S(hbond)    S(metal)    S(lipo)     H(rot)  DE(clash)    DE(int)     intcor
     16.08     -17.82       1.93        0.00      85.64       1.61       0.23       1.51       ----

> <Gold.Chemscore.Fitness>
16.0763

> <Gold.Chemscore.DG>
-17.8231

> <Gold.Chemscore.ZeroCoef>
-5.4800

> <Gold.Chemscore.Hbond>
1.9299

> <Gold.Chemscore.Metal>
0.0000

> <Gold.Chemscore.Lipo>
85.6438

> <Gold.Chemscore.Internal_Hbond>
0.0000

> <Gold.Chemscore.DEClash>
0.2319

> <Gold.Chemscore.DEInternal>
1.5149

> <Gold.Chemscore.Rot>
1.6105

> <Gold.Chemscore.Internal.Correction>
   9.000000E+99

> <Gold.Chemscore.Hbonds>
donor molecule, donor type, donor heavy atom, donor atom, acceptor molecule, acceptor atom, score
      L1  H    10    34       P1  7957  0.94
      L1  H    10    44       P1  7948  0.97

> <Gold.Chemscore.Hbond.Weighted>
-6.4458

> <Gold.Chemscore.Metal.Weighted>
-0.0000

> <Gold.Chemscore.Lipo.Weighted>
-10.0203

> <Gold.Chemscore.Internal_Hbond.Weighted>
0.0000

> <Gold.Chemscore.DEClash.Weighted>
0.2319

> <Gold.Chemscore.DEInternal.Weighted>
1.5149

> <Gold.Chemscore.Rot.Weighted>
4.1230

> <Gold.Chemscore.Internal.Correction.Weighted>
   9.000000E+99

> <Gold.Protein.RotatedTorsions>
[ 6907 6896 6895 6894 ] final -106.55 input  -60.11 | X-H torsion
[ 7974 7965 7964 7962 ] final -146.65 input  175.53 | X-H torsion
[ 8008 7997 7996 7995 ] final -159.94 input   59.86 | X-H torsion
[ 10167 10162 10161 10158 ] final  137.19 input  -65.29 | X-H torsion
[ 10718 10713 10712 10709 ] final   23.83 input   66.30 | X-H torsion
[ 10763 10752 10751 10750 ] final  -99.92 input  -60.55 | X-H torsion
[ 11005 11000 10999 10996 ] final -119.72 input  -57.11 | X-H torsion

> <Gold.Protein.ActiveResidues>
 VAL166  LYS551  ARG553  GLY616  TRP617  ASP618  TYR619  PRO620  LYS621  CYS622 
 ASP623  PHE694  ASN695  SER759  ASP760  ASP761  ALA762  ILE779  LEU786  VAL792 
 PHE793  MET794  SER795  GLU796  ALA797  LYS798  CYS799  TRP800  GLU811  SER814 

> <Gold.Protein.RotatedAtoms>
  150.7395  133.9959  159.3622 H   0  0  0  0  0  0  0  0  0  0  0  0  # atno 6907 bound_to 6896
  151.7910  135.0733  160.0396 H   0  0  0  0  0  0  0  0  0  0  0  0  # atno 6908 bound_to 6896
  152.3208  133.5815  159.5779 H   0  0  0  0  0  0  0  0  0  0  0  0  # atno 6909 bound_to 6896
  144.8145  140.5429  143.5620 H   0  0  0  0  0  0  0  0  0  0  0  0  # atno 7974 bound_to 7965
  155.7700  140.0850  157.2112 H   0  0  0  0  0  0  0  0  0  0  0  0  # atno 8008 bound_to 7997
  154.3997  140.1527  156.2988 H   0  0  0  0  0  0  0  0  0  0  0  0  # atno 8009 bound_to 7997
  155.8756  140.3423  155.5854 H   0  0  0  0  0  0  0  0  0  0  0  0  # atno 8010 bound_to 7997
  139.5153  144.6423  151.5534 H   0  0  0  0  0  0  0  0  0  0  0  0  # atno 10167 bound_to 10162
  157.1714  130.6761  149.6079 H   0  0  0  0  0  0  0  0  0  0  0  0  # atno 10718 bound_to 10713
  154.7538  135.4954  153.9336 H   0  0  0  0  0  0  0  0  0  0  0  0  # atno 10763 bound_to 10752
  153.1172  135.6723  153.9405 H   0  0  0  0  0  0  0  0  0  0  0  0  # atno 10764 bound_to 10752
  153.9147  135.3095  155.3427 H   0  0  0  0  0  0  0  0  0  0  0  0  # atno 10765 bound_to 10752
  141.0195  134.0145  157.3303 H   0  0  0  0  0  0  0  0  0  0  0  0  # atno 11005 bound_to 11000
  145.5245  139.1476  143.3534 LP  0  0  0  0  0  0  0  0  0  0  0  0  # atno 17320 bound_to 7965
  146.2447  140.5386  142.8919 LP  0  0  0  0  0  0  0  0  0  0  0  0  # atno 17321 bound_to 7965
  140.6195  143.9285  150.6515 LP  0  0  0  0  0  0  0  0  0  0  0  0  # atno 17342 bound_to 10162
  140.2554  143.3562  152.1369 LP  0  0  0  0  0  0  0  0  0  0  0  0  # atno 17343 bound_to 10162
  155.9738  130.4678  150.6336 LP  0  0  0  0  0  0  0  0  0  0  0  0  # atno 17370 bound_to 10713
  157.4039  131.0814  151.1283 LP  0  0  0  0  0  0  0  0  0  0  0  0  # atno 17371 bound_to 10713
  139.9137  135.0194  156.7796 LP  0  0  0  0  0  0  0  0  0  0  0  0  # atno 17394 bound_to 11000
  140.6597  133.9656  155.7798 LP  0  0  0  0  0  0  0  0  0  0  0  0  # atno 17395 bound_to 11000

$$$$
