AV-unprocessed.smi:1644|AV-procd|sdf|6593|dock5
  -GOLD-   22720 7293D 1   1.00000     0.00000
 Structure written by MMmdl.
 48 50  0  0  0  0  0  0  0  0  2 V2000
  147.3483  141.6029  154.0929 C   0  0  0  0  0  0  0  0  0  0  0  0
  147.9317  140.2408  154.4845 C   0  0  0  0  0  0  0  0  0  0  0  0
  149.4046  140.3319  154.9158 C   0  0  0  0  0  0  0  0  0  0  0  0
  150.2067  139.0461  154.6220 C   0  0  1  0  0  0  0  0  0  0  0  0
  151.5641  139.3477  154.2156 N   0  5  0  0  0  0  0  0  0  0  0  0
  152.4189  138.7561  155.0819 C   0  0  0  0  0  0  0  0  0  0  0  0
  153.6480  138.8008  155.0470 O   0  0  0  0  0  0  0  0  0  0  0  0
  151.7502  138.0895  156.0413 N   0  0  0  0  0  0  0  0  0  0  0  0
  152.3717  137.3757  157.1623 C   0  0  0  0  0  0  0  0  0  0  0  0
  153.2284  138.3211  158.0296 C   0  0  2  0  0  0  0  0  0  0  0  0
  154.1608  137.5454  158.7577 O   0  0  0  0  0  0  0  0  0  0  0  0
  152.3710  139.1177  159.0314 C   0  0  0  0  0  0  0  0  0  0  0  0
  151.9925  140.4220  158.5175 N   0  0  0  0  0  0  0  0  0  0  0  0
  151.4951  140.6946  157.2963 C   0  0  0  0  0  0  0  0  0  0  0  0
  151.2178  141.9657  157.0209 N   0  0  0  0  0  0  0  0  0  0  0  0
  151.5812  142.5912  158.2012 C   0  0  0  0  0  0  0  0  0  0  0  0
  151.5390  143.9547  158.5655 C   0  0  0  0  0  0  0  0  0  0  0  0
  151.9674  144.3772  159.8442 C   0  0  0  0  0  0  0  0  0  0  0  0
  151.9068  145.8540  160.1921 C   0  0  0  0  0  0  0  0  0  0  0  0
  152.4453  143.4276  160.7829 C   0  0  0  0  0  0  0  0  0  0  0  0
  152.9079  143.8570  162.1637 C   0  0  0  0  0  0  0  0  0  0  0  0
  152.4958  142.0615  160.4344 C   0  0  0  0  0  0  0  0  0  0  0  0
  152.0676  141.6536  159.1588 C   0  0  0  0  0  0  0  0  0  0  0  0
  150.4303  138.2141  155.8686 C   0  0  0  0  0  0  0  0  0  0  0  0
  149.5320  137.7591  156.5777 O   0  0  0  0  0  0  0  0  0  0  0  0
  146.3067  141.5057  153.7862 H   0  0  0  0  0  0  0  0  0  0  0  0
  147.9003  142.0424  153.2616 H   0  0  0  0  0  0  0  0  0  0  0  0
  147.3857  142.3021  154.9285 H   0  0  0  0  0  0  0  0  0  0  0  0
  147.3394  139.8154  155.2951 H   0  0  0  0  0  0  0  0  0  0  0  0
  147.8353  139.5563  153.6409 H   0  0  0  0  0  0  0  0  0  0  0  0
  149.8771  141.1891  154.4322 H   0  0  0  0  0  0  0  0  0  0  0  0
  149.4353  140.5375  155.9868 H   0  0  0  0  0  0  0  0  0  0  0  0
  149.6779  138.4330  153.8912 H   0  0  0  0  0  0  0  0  0  0  0  0
  151.5740  136.9450  157.7699 H   0  0  0  0  0  0  0  0  0  0  0  0
  152.9556  136.5208  156.8165 H   0  0  0  0  0  0  0  0  0  0  0  0
  153.7729  139.0237  157.3966 H   0  0  0  0  0  0  0  0  0  0  0  0
  154.8746  137.3183  158.1804 H   0  0  0  0  0  0  0  0  0  0  0  0
  151.4565  138.5693  159.2611 H   0  0  0  0  0  0  0  0  0  0  0  0
  152.9007  139.2488  159.9759 H   0  0  0  0  0  0  0  0  0  0  0  0
  151.3295  139.9146  156.5675 H   0  0  0  0  0  0  0  0  0  0  0  0
  151.1737  144.6768  157.8502 H   0  0  0  0  0  0  0  0  0  0  0  0
  151.1946  146.0256  160.9993 H   0  0  0  0  0  0  0  0  0  0  0  0
  151.5948  146.4514  159.3353 H   0  0  0  0  0  0  0  0  0  0  0  0
  152.8852  146.2148  160.5094 H   0  0  0  0  0  0  0  0  0  0  0  0
  153.1833  142.9977  162.7758 H   0  0  0  0  0  0  0  0  0  0  0  0
  152.1155  144.3963  162.6832 H   0  0  0  0  0  0  0  0  0  0  0  0
  153.7789  144.5081  162.0879 H   0  0  0  0  0  0  0  0  0  0  0  0
  152.8641  141.3275  161.1360 H   0  0  0  0  0  0  0  0  0  0  0  0
  1  2  1  0  0  0  0
  1 26  1  0  0  0  0
  1 27  1  0  0  0  0
  1 28  1  0  0  0  0
  2  3  1  0  0  0  0
  2 29  1  0  0  0  0
  2 30  1  0  0  0  0
  3  4  1  0  0  0  0
  3 31  1  0  0  0  0
  3 32  1  0  0  0  0
  4 24  1  0  0  0  0
  4  5  1  0  0  0  0
  4 33  1  0  0  0  0
  5  6  1  0  0  0  0
  6  7  2  0  0  0  0
  6  8  1  0  0  0  0
  8  9  1  0  0  0  0
  8 24  1  0  0  0  0
  9 10  1  0  0  0  0
  9 34  1  0  0  0  0
  9 35  1  0  0  0  0
 10 11  1  0  0  0  0
 10 12  1  0  0  0  0
 10 36  1  0  0  0  0
 11 37  1  0  0  0  0
 12 13  1  0  0  0  0
 12 38  1  0  0  0  0
 12 39  1  0  0  0  0
 13 23  1  0  0  0  0
 13 14  1  0  0  0  0
 14 15  2  0  0  0  0
 14 40  1  0  0  0  0
 15 16  1  0  0  0  0
 16 23  2  0  0  0  0
 16 17  1  0  0  0  0
 17 18  2  0  0  0  0
 17 41  1  0  0  0  0
 18 19  1  0  0  0  0
 18 20  1  0  0  0  0
 19 42  1  0  0  0  0
 19 43  1  0  0  0  0
 19 44  1  0  0  0  0
 20 21  1  0  0  0  0
 20 22  2  0  0  0  0
 21 45  1  0  0  0  0
 21 46  1  0  0  0  0
 21 47  1  0  0  0  0
 22 23  1  0  0  0  0
 22 48  1  0  0  0  0
 24 25  2  0  0  0  0
M  CHG  1   5  -1
M  END
> <s_m_source_file>
AV-unprocessed.smi

> <i_m_source_file_index>
1644

> <i_lp_mmshare_version>
43012

> <i_f3d_flags>
0

> <s_epik_input>
W0NIM11bQ0gyXVtDSDJdW0NAQEhdMVtOSF1DKD1PKU4oQzE9TylbQ0gyXVtDQEhdKFtPSF0pW0NIMl1uKFtjSF1uMiljKGMyMylbY0hdYyhbQ0gzXSljKFtjSF0zKVtDSDNd

> <s_epik_cmdline>
J2VwaWtfcHl0aG9uJywgJy1waCcsICc3LjAnLCAnLXRuJywgJzgnLCAnLW1hJywgJzIwMCcsICctbWV0YWxfYmluZGluZycsICctaW1hZScsICc8aW5maWxlLm1hZT4nLCAnLW9tYWUnLCAnPG91dGZpbGUubWFlPic=

> <r_lp_tautomer_probability>
1

> <r_epik_Ionization_Penalty>
5.95212

> <r_epik_Ionization_Penalty_Charging>
5.84419

> <r_epik_Ionization_Penalty_Neutral>
0.107924

> <r_epik_State_Penalty>
5.94088

> <r_epik_Charging_Adjusted_Penalty>
11.7851

> <i_epik_Tot_Q>
-1

> <i_epik_Tot_abs_Q>
1

> <r_epik_Metal_State_Penalty>
1.99095

> <b_epik_Metal_Only>
1

> <s_lp_Force_Field>
OPLS_2005

> <r_lp_Energy>
18.6255

> <b_lp_Chiralities_Consistent>
1

> <s_lp_Variant>
AV-unprocessed.smi:1644-10

> <Gold.Version>
5.8.1

> <Gold.Id.Protein>
6NUR|6NUR_protein|mol2

> <Gold.PLP.Fitness>
51.3303

> <Gold.PLP.PLP>
-48.5799

> <Gold.PLP.part.hbond>
-1.9127

> <Gold.PLP.part.metal>
0.0000

> <Gold.PLP.part.buried>
-3.0114

> <Gold.PLP.part.nonpolar>
-41.8619

> <Gold.PLP.part.repulsive>
0.2309

> <Gold.PLP.ligand.clash>
0.0000

> <Gold.PLP.ligand.torsion>
1.5593

> <Gold.PLP.Chemscore.Hbond>
1.9040

> <Gold.PLP.Chemscore.CHOScore>
0.0000

> <Gold.PLP.Chemscore.Metal>
0.0000

> <Gold.Chemscore.Hbonds>
donor molecule, donor type, donor heavy atom, donor atom, acceptor molecule, acceptor atom, score
      P1  H  7989  7998       L1     5  1.00
      P1  H  7997  8010       L1     7  0.93

> <Gold.PLP.Chemscore.Internal.Correction>
0.1570

> <Gold.Rescore>
     Score         DG    S(hbond)    S(metal)    S(lipo)     H(rot)  DE(clash)    DE(int)     intcor
     14.08     -18.83       1.90        0.00     117.94       2.65       0.29       4.46       ----

> <Gold.Chemscore.Fitness>
14.0836

> <Gold.Chemscore.DG>
-18.8298

> <Gold.Chemscore.ZeroCoef>
-5.4800

> <Gold.Chemscore.Hbond>
1.8954

> <Gold.Chemscore.Metal>
0.0000

> <Gold.Chemscore.Lipo>
117.9450

> <Gold.Chemscore.Internal_Hbond>
0.0000

> <Gold.Chemscore.DEClash>
0.2896

> <Gold.Chemscore.DEInternal>
4.4566

> <Gold.Chemscore.Rot>
2.6486

> <Gold.Chemscore.Internal.Correction>
   9.000000E+99

> <Gold.Chemscore.Hbonds>
donor molecule, donor type, donor heavy atom, donor atom, acceptor molecule, acceptor atom, score
      P1  H  7989  7998       L1     5  0.76
      P1  H  7997  8010       L1     7  0.89

> <Gold.Chemscore.Hbond.Weighted>
-6.3307

> <Gold.Chemscore.Metal.Weighted>
-0.0000

> <Gold.Chemscore.Lipo.Weighted>
-13.7996

> <Gold.Chemscore.Internal_Hbond.Weighted>
0.0000

> <Gold.Chemscore.DEClash.Weighted>
0.2896

> <Gold.Chemscore.DEInternal.Weighted>
4.4566

> <Gold.Chemscore.Rot.Weighted>
6.7804

> <Gold.Chemscore.Internal.Correction.Weighted>
   9.000000E+99

> <Gold.Protein.RotatedTorsions>
[ 6907 6896 6895 6894 ] final   97.49 input  -60.11 | X-H torsion
[ 7974 7965 7964 7962 ] final  161.49 input  175.53 | X-H torsion
[ 8008 7997 7996 7995 ] final  111.53 input   59.86 | X-H torsion
[ 10167 10162 10161 10158 ] final   95.00 input  -65.29 | X-H torsion
[ 10718 10713 10712 10709 ] final  -88.15 input   66.30 | X-H torsion
[ 10763 10752 10751 10750 ] final   31.50 input  -60.55 | X-H torsion
[ 11005 11000 10999 10996 ] final -149.34 input  -57.11 | X-H torsion

> <Gold.Protein.ActiveResidues>
 VAL166  LYS551  ARG553  GLY616  TRP617  ASP618  TYR619  PRO620  LYS621  CYS622 
 ASP623  PHE694  ASN695  SER759  ASP760  ASP761  ALA762  ILE779  LEU786  VAL792 
 PHE793  MET794  SER795  GLU796  ALA797  LYS798  CYS799  TRP800  GLU811  SER814 

> <Gold.Protein.RotatedAtoms>
  152.5422  134.0725  159.8199 H   0  0  0  0  0  0  0  0  0  0  0  0  # atno 6907 bound_to 6896
  151.0837  133.5362  159.2626 H   0  0  0  0  0  0  0  0  0  0  0  0  # atno 6908 bound_to 6896
  151.2180  135.0516  159.8992 H   0  0  0  0  0  0  0  0  0  0  0  0  # atno 6909 bound_to 6896
  144.7683  139.7905  143.6306 H   0  0  0  0  0  0  0  0  0  0  0  0  # atno 7974 bound_to 7965
  156.2130  140.3017  155.9776 H   0  0  0  0  0  0  0  0  0  0  0  0  # atno 8008 bound_to 7997
  155.2675  140.0432  157.3021 H   0  0  0  0  0  0  0  0  0  0  0  0  # atno 8009 bound_to 7997
  154.5727  140.2353  155.8176 H   0  0  0  0  0  0  0  0  0  0  0  0  # atno 8010 bound_to 7997
  139.8030  144.6806  150.9740 H   0  0  0  0  0  0  0  0  0  0  0  0  # atno 10167 bound_to 10162
  155.9984  130.4825  150.4975 H   0  0  0  0  0  0  0  0  0  0  0  0  # atno 10718 bound_to 10713
  153.0312  135.6437  154.1210 H   0  0  0  0  0  0  0  0  0  0  0  0  # atno 10763 bound_to 10752
  154.0931  135.2865  155.3269 H   0  0  0  0  0  0  0  0  0  0  0  0  # atno 10764 bound_to 10752
  154.6450  135.5446  153.7898 H   0  0  0  0  0  0  0  0  0  0  0  0  # atno 10765 bound_to 10752
  140.7517  134.3399  157.5124 H   0  0  0  0  0  0  0  0  0  0  0  0  # atno 11005 bound_to 11000
  146.1809  139.5002  142.9867 LP  0  0  0  0  0  0  0  0  0  0  0  0  # atno 17320 bound_to 7965
  145.6401  141.0286  143.1816 LP  0  0  0  0  0  0  0  0  0  0  0  0  # atno 17321 bound_to 7965
  140.7820  143.4262  151.0764 LP  0  0  0  0  0  0  0  0  0  0  0  0  # atno 17342 bound_to 10162
  139.7933  143.8187  152.3154 LP  0  0  0  0  0  0  0  0  0  0  0  0  # atno 17343 bound_to 10162
  157.2963  131.0636  151.2099 LP  0  0  0  0  0  0  0  0  0  0  0  0  # atno 17370 bound_to 10713
  157.3094  130.6882  149.6207 LP  0  0  0  0  0  0  0  0  0  0  0  0  # atno 17371 bound_to 10713
  139.8786  134.9146  156.3111 LP  0  0  0  0  0  0  0  0  0  0  0  0  # atno 17394 bound_to 11000
  140.9744  133.7306  156.0581 LP  0  0  0  0  0  0  0  0  0  0  0  0  # atno 17395 bound_to 11000

$$$$
