AV-unprocessed.smi:3041|AV-procd|sdf|11597|dock9
  -GOLD-   2272016573D 1   1.00000     0.00000
 Structure written by MMmdl.
 38 39  0  0  0  0  0  0  0  0  1 V2000
  151.8258  138.2198  154.7032 C   0  0  0  0  0  0  0  0  0  0  0  0
  150.6098  138.9935  154.5716 N   0  0  0  0  0  0  0  0  0  0  0  0
  149.3645  138.5763  154.1528 C   0  0  0  0  0  0  0  0  0  0  0  0
  148.5341  139.6609  154.1935 C   0  0  0  0  0  0  0  0  0  0  0  0
  147.0754  139.7462  153.8409 C   0  0  0  0  0  0  0  0  0  0  0  0
  146.8286  139.3727  152.3702 C   0  0  0  0  0  0  0  0  0  0  0  0
  146.8273  137.9274  152.1759 N   0  0  0  0  0  0  0  0  0  0  0  0
  145.7657  137.1302  152.3613 C   0  0  0  0  0  0  0  0  0  0  0  0
  144.6573  137.5291  152.7192 O   0  0  0  0  0  0  0  0  0  0  0  0
  146.0558  135.8469  152.1067 N   0  0  0  0  0  0  0  0  0  0  0  0
  145.1137  134.7378  152.2151 C   0  0  0  0  0  0  0  0  0  0  0  0
  144.9280  133.9988  150.8759 C   0  0  2  0  0  0  0  0  0  0  0  0
  143.7858  133.0042  150.8764 C   0  0  0  0  0  0  0  0  0  0  0  0
  144.1287  132.1326  149.6724 C   0  0  0  0  0  0  0  0  0  0  0  0
  145.5514  132.1178  149.5965 O   0  0  0  0  0  0  0  0  0  0  0  0
  146.0991  133.1034  150.4675 C   0  0  0  0  0  0  0  0  0  0  0  0
  149.3807  140.7080  154.6568 C   0  0  0  0  0  0  0  0  0  0  0  0
  150.6213  140.3062  154.8808 N   0  0  0  0  0  0  0  0  0  0  0  0
  151.6172  137.1629  154.5351 H   0  0  0  0  0  0  0  0  0  0  0  0
  152.2376  138.3438  155.7054 H   0  0  0  0  0  0  0  0  0  0  0  0
  152.5587  138.5581  153.9703 H   0  0  0  0  0  0  0  0  0  0  0  0
  149.1728  137.5530  153.8651 H   0  0  0  0  0  0  0  0  0  0  0  0
  146.4928  139.0878  154.4865 H   0  0  0  0  0  0  0  0  0  0  0  0
  146.6965  140.7521  154.0263 H   0  0  0  0  0  0  0  0  0  0  0  0
  145.8615  139.7582  152.0460 H   0  0  0  0  0  0  0  0  0  0  0  0
  147.5787  139.8356  151.7265 H   0  0  0  0  0  0  0  0  0  0  0  0
  147.6957  137.5058  151.8798 H   0  0  0  0  0  0  0  0  0  0  0  0
  146.9963  135.6187  151.8193 H   0  0  0  0  0  0  0  0  0  0  0  0
  145.4907  134.0512  152.9735 H   0  0  0  0  0  0  0  0  0  0  0  0
  144.1525  135.1025  152.5809 H   0  0  0  0  0  0  0  0  0  0  0  0
  144.7488  134.7230  150.0793 H   0  0  0  0  0  0  0  0  0  0  0  0
  143.8015  132.4041  151.7876 H   0  0  0  0  0  0  0  0  0  0  0  0
  142.8057  133.4746  150.7941 H   0  0  0  0  0  0  0  0  0  0  0  0
  143.7232  131.1245  149.7591 H   0  0  0  0  0  0  0  0  0  0  0  0
  143.7366  132.5780  148.7571 H   0  0  0  0  0  0  0  0  0  0  0  0
  146.8999  133.6613  149.9816 H   0  0  0  0  0  0  0  0  0  0  0  0
  146.5204  132.5966  151.3367 H   0  0  0  0  0  0  0  0  0  0  0  0
  149.1302  141.7430  154.8367 H   0  0  0  0  0  0  0  0  0  0  0  0
  1  2  1  0  0  0  0
  1 19  1  0  0  0  0
  1 20  1  0  0  0  0
  1 21  1  0  0  0  0
  2 18  1  0  0  0  0
  2  3  1  0  0  0  0
  3  4  2  0  0  0  0
  3 22  1  0  0  0  0
  4  5  1  0  0  0  0
  4 17  1  0  0  0  0
  5  6  1  0  0  0  0
  5 23  1  0  0  0  0
  5 24  1  0  0  0  0
  6  7  1  0  0  0  0
  6 25  1  0  0  0  0
  6 26  1  0  0  0  0
  7  8  1  0  0  0  0
  7 27  1  0  0  0  0
  8  9  2  0  0  0  0
  8 10  1  0  0  0  0
 10 11  1  0  0  0  0
 10 28  1  0  0  0  0
 11 12  1  0  0  0  0
 11 29  1  0  0  0  0
 11 30  1  0  0  0  0
 12 16  1  0  0  0  0
 12 13  1  0  0  0  0
 12 31  1  0  0  0  0
 13 14  1  0  0  0  0
 13 32  1  0  0  0  0
 13 33  1  0  0  0  0
 14 15  1  0  0  0  0
 14 34  1  0  0  0  0
 14 35  1  0  0  0  0
 15 16  1  0  0  0  0
 16 36  1  0  0  0  0
 16 37  1  0  0  0  0
 17 18  2  0  0  0  0
 17 38  1  0  0  0  0
M  END
> <s_m_source_file>
AV-unprocessed.smi

> <i_m_source_file_index>
3041

> <i_lp_mmshare_version>
43012

> <i_f3d_flags>
0

> <s_epik_input>
W0NIM11uMVtjSF1jKFtjSF1uMSlbQ0gyXVtDSDJdW05IXUMoPU8pW05IXVtDSDJdW0NAQEhdMltDSDJdW0NIMl1PW0NIMl0y

> <s_epik_cmdline>
J2VwaWtfcHl0aG9uJywgJy1waCcsICc3LjAnLCAnLXRuJywgJzgnLCAnLW1hJywgJzIwMCcsICctbWV0YWxfYmluZGluZycsICctaW1hZScsICc8aW5maWxlLm1hZT4nLCAnLW9tYWUnLCAnPG91dGZpbGUubWFlPic=

> <r_lp_tautomer_probability>
1

> <r_epik_Ionization_Penalty>
0.000557811

> <r_epik_Ionization_Penalty_Charging>
0

> <r_epik_Ionization_Penalty_Neutral>
0.000557811

> <r_epik_State_Penalty>
-0

> <r_epik_Charging_Adjusted_Penalty>
0

> <i_epik_Tot_Q>
0

> <i_epik_Tot_abs_Q>
0

> <r_epik_Metal_State_Penalty>
-0

> <b_epik_Metal_Only>
0

> <s_lp_Force_Field>
OPLS_2005

> <r_lp_Energy>
13.0487

> <b_lp_Chiralities_Consistent>
1

> <s_lp_Variant>
AV-unprocessed.smi:3041-1

> <Gold.Version>
5.8.1

> <Gold.Id.Protein>
6NUR|6NUR_protein|mol2

> <Gold.PLP.Fitness>
46.8544

> <Gold.PLP.PLP>
-35.8227

> <Gold.PLP.part.hbond>
-3.0000

> <Gold.PLP.part.metal>
0.0000

> <Gold.PLP.part.buried>
-2.8502

> <Gold.PLP.part.nonpolar>
-31.1628

> <Gold.PLP.part.repulsive>
0.6242

> <Gold.PLP.ligand.clash>
0.0000

> <Gold.PLP.ligand.torsion>
0.3379

> <Gold.PLP.Chemscore.Hbond>
2.8960

> <Gold.PLP.Chemscore.CHOScore>
1.0000

> <Gold.PLP.Chemscore.Metal>
0.0000

> <Gold.Chemscore.Hbonds>
donor molecule, donor type, donor heavy atom, donor atom, acceptor molecule, acceptor atom, score
      L1  H     7    27       P1  7948  1.00
      L1  H    10    28       P1  7948  0.93
      P1  H  7989  7998       L1    18  0.90
      L1  C     3    22       P1  7948  1.00

> <Gold.PLP.Chemscore.Internal.Correction>
0.0195

> <Gold.Rescore>
     Score         DG    S(hbond)    S(metal)    S(lipo)     H(rot)  DE(clash)    DE(int)     intcor
     16.35     -16.90       2.02        0.00      80.36       1.85       0.21       0.33       ----

> <Gold.Chemscore.Fitness>
16.3506

> <Gold.Chemscore.DG>
-16.8986

> <Gold.Chemscore.ZeroCoef>
-5.4800

> <Gold.Chemscore.Hbond>
2.0238

> <Gold.Chemscore.Metal>
0.0000

> <Gold.Chemscore.Lipo>
80.3637

> <Gold.Chemscore.Internal_Hbond>
0.0000

> <Gold.Chemscore.DEClash>
0.2142

> <Gold.Chemscore.DEInternal>
0.3338

> <Gold.Chemscore.Rot>
1.8528

> <Gold.Chemscore.Internal.Correction>
   9.000000E+99

> <Gold.Chemscore.Hbonds>
donor molecule, donor type, donor heavy atom, donor atom, acceptor molecule, acceptor atom, score
      L1  H     7    27       P1  7948  0.99
      L1  H    10    28       P1  7948  0.85
      P1  H  7989  7998       L1    18  0.11

> <Gold.Chemscore.Hbond.Weighted>
-6.7593

> <Gold.Chemscore.Metal.Weighted>
-0.0000

> <Gold.Chemscore.Lipo.Weighted>
-9.4026

> <Gold.Chemscore.Internal_Hbond.Weighted>
0.0000

> <Gold.Chemscore.DEClash.Weighted>
0.2142

> <Gold.Chemscore.DEInternal.Weighted>
0.3338

> <Gold.Chemscore.Rot.Weighted>
4.7433

> <Gold.Chemscore.Internal.Correction.Weighted>
   9.000000E+99

> <Gold.Protein.RotatedTorsions>
[ 6907 6896 6895 6894 ] final -178.59 input  -60.11 | X-H torsion
[ 7974 7965 7964 7962 ] final -131.78 input  175.53 | X-H torsion
[ 8008 7997 7996 7995 ] final  -21.21 input   59.86 | X-H torsion
[ 10167 10162 10161 10158 ] final  137.38 input  -65.29 | X-H torsion
[ 10718 10713 10712 10709 ] final  107.14 input   66.30 | X-H torsion
[ 10763 10752 10751 10750 ] final -168.91 input  -60.55 | X-H torsion
[ 11005 11000 10999 10996 ] final  -99.79 input  -57.11 | X-H torsion

> <Gold.Protein.ActiveResidues>
 VAL166  LYS551  ARG553  GLY616  TRP617  ASP618  TYR619  PRO620  LYS621  CYS622 
 ASP623  PHE694  ASN695  SER759  ASP760  ASP761  ALA762  ILE779  LEU786  VAL792 
 PHE793  MET794  SER795  GLU796  ALA797  LYS798  CYS799  TRP800  GLU811  SER814 

> <Gold.Protein.RotatedAtoms>
  151.6397  133.3327  159.3127 H   0  0  0  0  0  0  0  0  0  0  0  0  # atno 6907 bound_to 6896
  150.8014  134.7114  159.6615 H   0  0  0  0  0  0  0  0  0  0  0  0  # atno 6908 bound_to 6896
  152.4107  134.6134  160.0083 H   0  0  0  0  0  0  0  0  0  0  0  0  # atno 6909 bound_to 6896
  144.9347  140.7169  143.4884 H   0  0  0  0  0  0  0  0  0  0  0  0  # atno 7974 bound_to 7965
  154.4720  140.2041  155.9971 H   0  0  0  0  0  0  0  0  0  0  0  0  # atno 8008 bound_to 7997
  156.1026  140.3241  155.7933 H   0  0  0  0  0  0  0  0  0  0  0  0  # atno 8009 bound_to 7997
  155.4771  140.0535  157.2963 H   0  0  0  0  0  0  0  0  0  0  0  0  # atno 8010 bound_to 7997
  139.5146  144.6413  151.5562 H   0  0  0  0  0  0  0  0  0  0  0  0  # atno 10167 bound_to 10162
  157.6640  131.0866  150.6111 H   0  0  0  0  0  0  0  0  0  0  0  0  # atno 10718 bound_to 10713
  154.6578  135.2920  154.9905 H   0  0  0  0  0  0  0  0  0  0  0  0  # atno 10763 bound_to 10752
  154.0975  135.6581  153.4866 H   0  0  0  0  0  0  0  0  0  0  0  0  # atno 10764 bound_to 10752
  153.0412  135.5234  154.7516 H   0  0  0  0  0  0  0  0  0  0  0  0  # atno 10765 bound_to 10752
  141.1295  133.8349  157.1018 H   0  0  0  0  0  0  0  0  0  0  0  0  # atno 11005 bound_to 11000
  145.3086  139.1826  143.4651 LP  0  0  0  0  0  0  0  0  0  0  0  0  # atno 17320 bound_to 7965
  146.3261  140.3088  142.8625 LP  0  0  0  0  0  0  0  0  0  0  0  0  # atno 17321 bound_to 7965
  140.6180  143.9311  150.6504 LP  0  0  0  0  0  0  0  0  0  0  0  0  # atno 17342 bound_to 10162
  140.2576  143.3547  152.1351 LP  0  0  0  0  0  0  0  0  0  0  0  0  # atno 17343 bound_to 10162
  156.6413  130.4459  149.5751 LP  0  0  0  0  0  0  0  0  0  0  0  0  # atno 17370 bound_to 10713
  156.2207  130.6735  151.1365 LP  0  0  0  0  0  0  0  0  0  0  0  0  # atno 17371 bound_to 10713
  140.0329  134.9892  157.0814 LP  0  0  0  0  0  0  0  0  0  0  0  0  # atno 17394 bound_to 11000
  140.4257  134.1833  155.7166 LP  0  0  0  0  0  0  0  0  0  0  0  0  # atno 17395 bound_to 11000

$$$$
