AV-unprocessed.smi:3335|AV-procd|sdf|12851|dock8
  -GOLD-   2272019243D 1   1.00000     0.00000
 Structure written by MMmdl.
 46 47  0  0  0  0  0  0  0  0  1 V2000
  154.0683  142.2684  163.1309 C   0  0  0  0  0  0  0  0  0  0  0  0
  153.2453  142.7317  161.9644 C   0  0  0  0  0  0  0  0  0  0  0  0
  152.1165  143.5987  161.9764 C   0  0  0  0  0  0  0  0  0  0  0  0
  151.5909  143.7744  160.7754 N   0  0  0  0  0  0  0  0  0  0  0  0
  152.3789  143.0510  159.9483 N   0  0  0  0  0  0  0  0  0  0  0  0
  152.0735  142.9525  158.5231 C   0  0  2  0  0  0  0  0  0  0  0  0
  152.0867  144.3488  157.8690 C   0  0  0  0  0  0  0  0  0  0  0  0
  150.7494  142.1760  158.2687 C   0  0  1  0  0  0  0  0  0  0  0  0
  149.5038  142.9491  158.7339 C   0  0  0  0  0  0  0  0  0  0  0  0
  150.5801  141.9499  156.8334 N   0  0  0  0  0  0  0  0  0  0  0  0
  150.3520  140.5376  156.4777 C   0  0  1  0  0  0  0  0  0  0  0  0
  149.3666  139.8892  157.4666 C   0  0  0  0  0  0  0  0  0  0  0  0
  149.8207  140.4192  155.0350 C   0  0  0  0  0  0  0  0  0  0  0  0
  150.5012  139.8331  154.1907 O   0  0  0  0  0  0  0  0  0  0  0  0
  148.6130  140.9442  154.7302 N   0  0  0  0  0  0  0  0  0  0  0  0
  147.9986  140.8211  153.4091 C   0  0  0  0  0  0  0  0  0  0  0  0
  146.5614  141.3162  153.5699 C   0  0  0  0  0  0  0  0  0  0  0  0
  146.6330  142.2787  154.7457 C   0  0  0  0  0  0  0  0  0  0  0  0
  147.7426  141.7060  155.6267 C   0  0  0  0  0  0  0  0  0  0  0  0
  153.3856  142.4134  160.6440 C   0  0  0  0  0  0  0  0  0  0  0  0
  153.5851  142.4920  164.0823 H   0  0  0  0  0  0  0  0  0  0  0  0
  155.0485  142.7449  163.1463 H   0  0  0  0  0  0  0  0  0  0  0  0
  154.2325  141.1909  163.1023 H   0  0  0  0  0  0  0  0  0  0  0  0
  151.6527  144.0849  162.8218 H   0  0  0  0  0  0  0  0  0  0  0  0
  152.8890  142.3846  158.0721 H   0  0  0  0  0  0  0  0  0  0  0  0
  152.0625  144.2824  156.7817 H   0  0  0  0  0  0  0  0  0  0  0  0
  152.9925  144.8954  158.1333 H   0  0  0  0  0  0  0  0  0  0  0  0
  151.2322  144.9485  158.1840 H   0  0  0  0  0  0  0  0  0  0  0  0
  150.7703  141.2300  158.8124 H   0  0  0  0  0  0  0  0  0  0  0  0
  149.4969  143.0849  159.8151 H   0  0  0  0  0  0  0  0  0  0  0  0
  148.5902  142.4112  158.4781 H   0  0  0  0  0  0  0  0  0  0  0  0
  149.4484  143.9358  158.2724 H   0  0  0  0  0  0  0  0  0  0  0  0
  151.3888  142.3213  156.3558 H   0  0  0  0  0  0  0  0  0  0  0  0
  151.3046  140.0131  156.5317 H   0  0  0  0  0  0  0  0  0  0  0  0
  149.1653  138.8493  157.2087 H   0  0  0  0  0  0  0  0  0  0  0  0
  148.4117  140.4162  157.4795 H   0  0  0  0  0  0  0  0  0  0  0  0
  149.7608  139.8980  158.4828 H   0  0  0  0  0  0  0  0  0  0  0  0
  148.5442  141.4498  152.7039 H   0  0  0  0  0  0  0  0  0  0  0  0
  148.0230  139.7948  153.0391 H   0  0  0  0  0  0  0  0  0  0  0  0
  146.1694  141.7807  152.6646 H   0  0  0  0  0  0  0  0  0  0  0  0
  145.9110  140.4784  153.8246 H   0  0  0  0  0  0  0  0  0  0  0  0
  146.9216  143.2686  154.3897 H   0  0  0  0  0  0  0  0  0  0  0  0
  145.6831  142.3757  155.2722 H   0  0  0  0  0  0  0  0  0  0  0  0
  147.3173  141.0340  156.3713 H   0  0  0  0  0  0  0  0  0  0  0  0
  148.2759  142.5007  156.1490 H   0  0  0  0  0  0  0  0  0  0  0  0
  154.1002  141.7728  160.1485 H   0  0  0  0  0  0  0  0  0  0  0  0
  1  2  1  0  0  0  0
  1 21  1  0  0  0  0
  1 22  1  0  0  0  0
  1 23  1  0  0  0  0
  2 20  2  0  0  0  0
  2  3  1  0  0  0  0
  3  4  2  0  0  0  0
  3 24  1  0  0  0  0
  4  5  1  0  0  0  0
  5  6  1  0  0  0  0
  5 20  1  0  0  0  0
  6  7  1  0  0  0  0
  6  8  1  0  0  0  0
  6 25  1  0  0  0  0
  7 26  1  0  0  0  0
  7 27  1  0  0  0  0
  7 28  1  0  0  0  0
  8  9  1  0  0  0  0
  8 10  1  0  0  0  0
  8 29  1  0  0  0  0
  9 30  1  0  0  0  0
  9 31  1  0  0  0  0
  9 32  1  0  0  0  0
 10 11  1  0  0  0  0
 10 33  1  0  0  0  0
 11 12  1  0  0  0  0
 11 13  1  0  0  0  0
 11 34  1  0  0  0  0
 12 35  1  0  0  0  0
 12 36  1  0  0  0  0
 12 37  1  0  0  0  0
 13 14  2  0  0  0  0
 13 15  1  0  0  0  0
 15 19  1  0  0  0  0
 15 16  1  0  0  0  0
 16 17  1  0  0  0  0
 16 38  1  0  0  0  0
 16 39  1  0  0  0  0
 17 18  1  0  0  0  0
 17 40  1  0  0  0  0
 17 41  1  0  0  0  0
 18 19  1  0  0  0  0
 18 42  1  0  0  0  0
 18 43  1  0  0  0  0
 19 44  1  0  0  0  0
 19 45  1  0  0  0  0
 20 46  1  0  0  0  0
M  END
> <s_m_source_file>
AV-unprocessed.smi

> <i_m_source_file_index>
3335

> <i_lp_mmshare_version>
43012

> <i_f3d_flags>
0

> <s_epik_input>
W0NIM11jMVtjSF1ubihbY0hdMSlbQ0BIXShbQ0gzXSlbQ0BIXShbQ0gzXSlbTkhdW0NASF0oW0NIM10pQyg9TylOMltDSDJdW0NIMl1bQ0gyXVtDSDJdMg==

> <s_epik_cmdline>
J2VwaWtfcHl0aG9uJywgJy1waCcsICc3LjAnLCAnLXRuJywgJzgnLCAnLW1hJywgJzIwMCcsICctbWV0YWxfYmluZGluZycsICctaW1hZScsICc8aW5maWxlLm1hZT4nLCAnLW9tYWUnLCAnPG91dGZpbGUubWFlPic=

> <r_lp_tautomer_probability>
1

> <r_epik_Ionization_Penalty>
0.918803

> <r_epik_Ionization_Penalty_Charging>
0

> <r_epik_Ionization_Penalty_Neutral>
0.918803

> <r_epik_State_Penalty>
0.958258

> <r_epik_Charging_Adjusted_Penalty>
0.958258

> <i_epik_Tot_Q>
0

> <i_epik_Tot_abs_Q>
0

> <r_epik_Metal_State_Penalty>
0.956786

> <b_epik_Metal_Only>
0

> <s_lp_Force_Field>
OPLS_2005

> <r_lp_Energy>
36.8756

> <b_lp_Chiralities_Consistent>
1

> <s_lp_Variant>
AV-unprocessed.smi:3335-15

> <Gold.Version>
5.8.1

> <Gold.Id.Protein>
6NUR|6NUR_protein|mol2

> <Gold.PLP.Fitness>
46.1663

> <Gold.PLP.PLP>
-45.0095

> <Gold.PLP.part.hbond>
-1.0000

> <Gold.PLP.part.metal>
0.0000

> <Gold.PLP.part.buried>
0.1351

> <Gold.PLP.part.nonpolar>
-45.0838

> <Gold.PLP.part.repulsive>
0.2657

> <Gold.PLP.ligand.clash>
0.0000

> <Gold.PLP.ligand.torsion>
0.9895

> <Gold.PLP.Chemscore.Hbond>
1.0000

> <Gold.PLP.Chemscore.CHOScore>
0.0000

> <Gold.PLP.Chemscore.Metal>
0.0000

> <Gold.Chemscore.Hbonds>
donor molecule, donor type, donor heavy atom, donor atom, acceptor molecule, acceptor atom, score
      P1  H  7989  7998       L1    14  1.00

> <Gold.PLP.Chemscore.Internal.Correction>
0.1357

> <Gold.Rescore>
     Score         DG    S(hbond)    S(metal)    S(lipo)     H(rot)  DE(clash)    DE(int)     intcor
     13.80     -17.31       0.82        0.00     113.23       1.62       1.02       2.49       ----

> <Gold.Chemscore.Fitness>
13.8038

> <Gold.Chemscore.DG>
-17.3137

> <Gold.Chemscore.ZeroCoef>
-5.4800

> <Gold.Chemscore.Hbond>
0.8185

> <Gold.Chemscore.Metal>
0.0000

> <Gold.Chemscore.Lipo>
113.2304

> <Gold.Chemscore.Internal_Hbond>
0.0000

> <Gold.Chemscore.DEClash>
1.0154

> <Gold.Chemscore.DEInternal>
2.4945

> <Gold.Chemscore.Rot>
1.6204

> <Gold.Chemscore.Internal.Correction>
   9.000000E+99

> <Gold.Chemscore.Hbonds>
donor molecule, donor type, donor heavy atom, donor atom, acceptor molecule, acceptor atom, score
      P1  H  7989  7998       L1    14  0.82

> <Gold.Chemscore.Hbond.Weighted>
-2.7339

> <Gold.Chemscore.Metal.Weighted>
-0.0000

> <Gold.Chemscore.Lipo.Weighted>
-13.2480

> <Gold.Chemscore.Internal_Hbond.Weighted>
0.0000

> <Gold.Chemscore.DEClash.Weighted>
1.0154

> <Gold.Chemscore.DEInternal.Weighted>
2.4945

> <Gold.Chemscore.Rot.Weighted>
4.1482

> <Gold.Chemscore.Internal.Correction.Weighted>
   9.000000E+99

> <Gold.Protein.RotatedTorsions>
[ 6907 6896 6895 6894 ] final  134.26 input  -60.11 | X-H torsion
[ 7974 7965 7964 7962 ] final -134.32 input  175.53 | X-H torsion
[ 8008 7997 7996 7995 ] final -127.29 input   59.86 | X-H torsion
[ 10167 10162 10161 10158 ] final  -79.12 input  -65.29 | X-H torsion
[ 10718 10713 10712 10709 ] final   45.65 input   66.30 | X-H torsion
[ 10763 10752 10751 10750 ] final  166.41 input  -60.55 | X-H torsion
[ 11005 11000 10999 10996 ] final -130.63 input  -57.11 | X-H torsion

> <Gold.Protein.ActiveResidues>
 VAL166  LYS551  ARG553  GLY616  TRP617  ASP618  TYR619  PRO620  LYS621  CYS622 
 ASP623  PHE694  ASN695  SER759  ASP760  ASP761  ALA762  ILE779  LEU786  VAL792 
 PHE793  MET794  SER795  GLU796  ALA797  LYS798  CYS799  TRP800  GLU811  SER814 

> <Gold.Protein.RotatedAtoms>
  152.3132  133.5774  159.5694 H   0  0  0  0  0  0  0  0  0  0  0  0  # atno 6907 bound_to 6896
  150.7333  134.0122  159.3682 H   0  0  0  0  0  0  0  0  0  0  0  0  # atno 6908 bound_to 6896
  151.8013  135.0708  160.0451 H   0  0  0  0  0  0  0  0  0  0  0  0  # atno 6909 bound_to 6896
  144.9114  140.6899  143.5023 H   0  0  0  0  0  0  0  0  0  0  0  0  # atno 7974 bound_to 7965
  155.2437  140.0429  157.2978 H   0  0  0  0  0  0  0  0  0  0  0  0  # atno 8008 bound_to 7997
  154.5812  140.2401  155.8020 H   0  0  0  0  0  0  0  0  0  0  0  0  # atno 8009 bound_to 7997
  156.2194  140.2974  155.9925 H   0  0  0  0  0  0  0  0  0  0  0  0  # atno 8010 bound_to 7997
  140.4621  143.2450  151.8333 H   0  0  0  0  0  0  0  0  0  0  0  0  # atno 10167 bound_to 10162
  157.4397  130.8074  149.7683 H   0  0  0  0  0  0  0  0  0  0  0  0  # atno 10718 bound_to 10713
  154.3386  135.2754  155.2434 H   0  0  0  0  0  0  0  0  0  0  0  0  # atno 10763 bound_to 10752
  154.4715  135.5882  153.6328 H   0  0  0  0  0  0  0  0  0  0  0  0  # atno 10764 bound_to 10752
  152.9859  135.6089  154.3585 H   0  0  0  0  0  0  0  0  0  0  0  0  # atno 10765 bound_to 10752
  140.9329  134.1296  157.4219 H   0  0  0  0  0  0  0  0  0  0  0  0  # atno 11005 bound_to 11000
  145.3449  139.1722  143.4466 LP  0  0  0  0  0  0  0  0  0  0  0  0  # atno 17320 bound_to 7965
  146.3160  140.3494  142.8655 LP  0  0  0  0  0  0  0  0  0  0  0  0  # atno 17321 bound_to 7965
  139.4807  144.4995  151.9079 LP  0  0  0  0  0  0  0  0  0  0  0  0  # atno 17342 bound_to 10162
  140.4080  144.2406  150.5890 LP  0  0  0  0  0  0  0  0  0  0  0  0  # atno 17343 bound_to 10162
  155.9944  130.3918  150.2860 LP  0  0  0  0  0  0  0  0  0  0  0  0  # atno 17370 bound_to 10713
  157.1024  131.0199  151.3080 LP  0  0  0  0  0  0  0  0  0  0  0  0  # atno 17371 bound_to 10713
  139.8800  135.0011  156.6048 LP  0  0  0  0  0  0  0  0  0  0  0  0  # atno 17394 bound_to 11000
  140.7838  133.8638  155.8590 LP  0  0  0  0  0  0  0  0  0  0  0  0  # atno 17395 bound_to 11000

$$$$
