AV-unprocessed.smi:2671|AV-procd|sdf|10346|dock9
  -GOLD-   2272014373D 1   1.00000     0.00000
 Structure written by MMmdl.
 28 29  0  0  0  0  0  0  0  0  2 V2000
  153.2098  137.8389  154.6318 O   0  0  0  0  0  0  0  0  0  0  0  0
  152.3801  138.6766  154.9792 C   0  0  0  0  0  0  0  0  0  0  0  0
  151.2201  138.9369  154.1282 C   0  0  0  0  0  0  0  0  0  0  0  0
  150.3085  139.8611  154.5217 C   0  0  0  0  0  0  0  0  0  0  0  0
  149.0900  140.1826  153.6728 C   0  0  0  0  0  0  0  0  0  0  0  0
  149.4642  140.6378  152.4768 F   0  0  0  0  0  0  0  0  0  0  0  0
  148.3570  139.0850  153.4874 F   0  0  0  0  0  0  0  0  0  0  0  0
  148.3188  141.1067  154.2487 F   0  0  0  0  0  0  0  0  0  0  0  0
  150.4836  140.5651  155.7279 N   0  0  0  0  0  0  0  0  0  0  0  0
  151.5078  140.3198  156.4570 C   0  0  0  0  0  0  0  0  0  0  0  0
  151.7350  141.2138  158.0047 S   0  0  0  0  0  0  0  0  0  0  0  0
  150.3239  142.3588  158.0587 C   0  0  0  0  0  0  0  0  0  0  0  0
  150.4850  143.4079  159.1672 C   0  0  2  0  0  0  0  0  0  0  0  0
  151.6634  144.3647  158.9735 C   0  0  0  0  0  0  0  0  0  0  0  0
  152.0561  144.7539  160.3914 C   0  0  0  0  0  0  0  0  0  0  0  0
  151.2537  143.8003  161.2798 C   0  0  0  0  0  0  0  0  0  0  0  0
  150.7986  142.7823  160.4012 O   0  0  0  0  0  0  0  0  0  0  0  0
  152.4778  139.3943  156.1354 N   0  5  0  0  0  0  0  0  0  0  0  0
  151.0940  138.3990  153.2002 H   0  0  0  0  0  0  0  0  0  0  0  0
  149.4027  141.7937  158.2053 H   0  0  0  0  0  0  0  0  0  0  0  0
  150.2445  142.8568  157.0920 H   0  0  0  0  0  0  0  0  0  0  0  0
  149.5588  143.9726  159.2909 H   0  0  0  0  0  0  0  0  0  0  0  0
  152.4968  143.8496  158.4940 H   0  0  0  0  0  0  0  0  0  0  0  0
  151.4032  145.2245  158.3558 H   0  0  0  0  0  0  0  0  0  0  0  0
  153.1287  144.6246  160.5392 H   0  0  0  0  0  0  0  0  0  0  0  0
  151.8092  145.7930  160.6118 H   0  0  0  0  0  0  0  0  0  0  0  0
  151.8466  143.3859  162.0956 H   0  0  0  0  0  0  0  0  0  0  0  0
  150.3916  144.3112  161.7110 H   0  0  0  0  0  0  0  0  0  0  0  0
  1  2  2  0  0  0  0
  2 18  1  0  0  0  0
  2  3  1  0  0  0  0
  3 19  1  0  0  0  0
  3  4  2  0  0  0  0
  4  5  1  0  0  0  0
  4  9  1  0  0  0  0
  5  6  1  0  0  0  0
  5  7  1  0  0  0  0
  5  8  1  0  0  0  0
  9 10  2  0  0  0  0
 10 11  1  0  0  0  0
 10 18  1  0  0  0  0
 11 12  1  0  0  0  0
 12 13  1  0  0  0  0
 12 20  1  0  0  0  0
 12 21  1  0  0  0  0
 13 17  1  0  0  0  0
 13 14  1  0  0  0  0
 13 22  1  0  0  0  0
 14 15  1  0  0  0  0
 14 23  1  0  0  0  0
 14 24  1  0  0  0  0
 15 16  1  0  0  0  0
 15 25  1  0  0  0  0
 15 26  1  0  0  0  0
 16 17  1  0  0  0  0
 16 27  1  0  0  0  0
 16 28  1  0  0  0  0
M  CHG  1  18  -1
M  END
> <s_m_source_file>
AV-unprocessed.smi

> <i_m_source_file_index>
2671

> <i_lp_mmshare_version>
43012

> <i_f3d_flags>
0

> <s_epik_input>
W09IXWMxW2NIXWMoQyhGKShGKUYpbmMobjEpU1tDSDJdW0NAQEhdMltDSDJdW0NIMl1bQ0gyXU8y

> <s_epik_cmdline>
J2VwaWtfcHl0aG9uJywgJy1waCcsICc3LjAnLCAnLXRuJywgJzgnLCAnLW1hJywgJzIwMCcsICctbWV0YWxfYmluZGluZycsICctaW1hZScsICc8aW5maWxlLm1hZT4nLCAnLW9tYWUnLCAnPG91dGZpbGUubWFlPic=

> <r_lp_tautomer_probability>
1

> <r_epik_Ionization_Penalty>
0.972901

> <r_epik_Ionization_Penalty_Charging>
0.00136034

> <r_epik_Ionization_Penalty_Neutral>
0.971541

> <r_epik_State_Penalty>
0.242243

> <r_epik_Charging_Adjusted_Penalty>
0.243604

> <i_epik_Tot_Q>
-1

> <i_epik_Tot_abs_Q>
1

> <r_epik_Metal_State_Penalty>
0.0617458

> <b_epik_Metal_Only>
0

> <s_lp_Force_Field>
OPLS_2005

> <r_lp_Energy>
24.2298

> <b_lp_Chiralities_Consistent>
1

> <s_lp_Variant>
AV-unprocessed.smi:2671-1

> <Gold.Version>
5.8.1

> <Gold.Id.Protein>
6NUR|6NUR_protein|mol2

> <Gold.PLP.Fitness>
40.3996

> <Gold.PLP.PLP>
-34.0183

> <Gold.PLP.part.hbond>
-2.5275

> <Gold.PLP.part.metal>
0.0000

> <Gold.PLP.part.buried>
-1.9337

> <Gold.PLP.part.nonpolar>
-29.6547

> <Gold.PLP.part.repulsive>
0.1176

> <Gold.PLP.ligand.clash>
0.0000

> <Gold.PLP.ligand.torsion>
0.0679

> <Gold.PLP.Chemscore.Hbond>
2.1680

> <Gold.PLP.Chemscore.CHOScore>
0.0000

> <Gold.PLP.Chemscore.Metal>
0.0000

> <Gold.Chemscore.Hbonds>
donor molecule, donor type, donor heavy atom, donor atom, acceptor molecule, acceptor atom, score
      P1  H  7997  8009       L1    18  2.00
      P1  H 10752 10765       L1     1  0.13

> <Gold.PLP.Chemscore.Internal.Correction>
0.0132

> <Gold.Rescore>
     Score         DG    S(hbond)    S(metal)    S(lipo)     H(rot)  DE(clash)    DE(int)     intcor
     13.12     -14.29       1.13        0.00      79.41       1.66       1.15       0.02       ----

> <Gold.Chemscore.Fitness>
13.1224

> <Gold.Chemscore.DG>
-14.2853

> <Gold.Chemscore.ZeroCoef>
-5.4800

> <Gold.Chemscore.Hbond>
1.1305

> <Gold.Chemscore.Metal>
0.0000

> <Gold.Chemscore.Lipo>
79.4138

> <Gold.Chemscore.Internal_Hbond>
0.0000

> <Gold.Chemscore.DEClash>
1.1475

> <Gold.Chemscore.DEInternal>
0.0154

> <Gold.Chemscore.Rot>
1.6649

> <Gold.Chemscore.Internal.Correction>
   9.000000E+99

> <Gold.Chemscore.Hbonds>
donor molecule, donor type, donor heavy atom, donor atom, acceptor molecule, acceptor atom, score
      P1  H  7997  8009       L1    18  0.57
      P1  H 10752 10765       L1     1  0.14

> <Gold.Chemscore.Hbond.Weighted>
-3.7759

> <Gold.Chemscore.Metal.Weighted>
-0.0000

> <Gold.Chemscore.Lipo.Weighted>
-9.2914

> <Gold.Chemscore.Internal_Hbond.Weighted>
0.0000

> <Gold.Chemscore.DEClash.Weighted>
1.1475

> <Gold.Chemscore.DEInternal.Weighted>
0.0154

> <Gold.Chemscore.Rot.Weighted>
4.2620

> <Gold.Chemscore.Internal.Correction.Weighted>
   9.000000E+99

> <Gold.Protein.RotatedTorsions>
[ 6907 6896 6895 6894 ] final -150.89 input  -60.11 | X-H torsion
[ 7974 7965 7964 7962 ] final -105.62 input  175.53 | X-H torsion
[ 8008 7997 7996 7995 ] final -160.51 input   59.86 | X-H torsion
[ 10167 10162 10161 10158 ] final  -51.12 input  -65.29 | X-H torsion
[ 10718 10713 10712 10709 ] final   28.82 input   66.30 | X-H torsion
[ 10763 10752 10751 10750 ] final  153.95 input  -60.55 | X-H torsion
[ 11005 11000 10999 10996 ] final   81.90 input  -57.11 | X-H torsion

> <Gold.Protein.ActiveResidues>
 VAL166  LYS551  ARG553  GLY616  TRP617  ASP618  TYR619  PRO620  LYS621  CYS622 
 ASP623  PHE694  ASN695  SER759  ASP760  ASP761  ALA762  ILE779  LEU786  VAL792 
 PHE793  MET794  SER795  GLU796  ALA797  LYS798  CYS799  TRP800  GLU811  SER814 

> <Gold.Protein.RotatedAtoms>
  151.2050  133.4588  159.2596 H   0  0  0  0  0  0  0  0  0  0  0  0  # atno 6907 bound_to 6896
  151.1032  134.9984  159.8468 H   0  0  0  0  0  0  0  0  0  0  0  0  # atno 6908 bound_to 6896
  152.5445  134.1976  159.8752 H   0  0  0  0  0  0  0  0  0  0  0  0  # atno 6909 bound_to 6896
  145.2281  140.9160  143.3220 H   0  0  0  0  0  0  0  0  0  0  0  0  # atno 7974 bound_to 7965
  155.7785  140.0862  157.2071 H   0  0  0  0  0  0  0  0  0  0  0  0  # atno 8008 bound_to 7997
  154.3991  140.1512  156.3082 H   0  0  0  0  0  0  0  0  0  0  0  0  # atno 8009 bound_to 7997
  155.8677  140.3427  155.5802 H   0  0  0  0  0  0  0  0  0  0  0  0  # atno 8010 bound_to 7997
  140.6604  143.2631  151.4458 H   0  0  0  0  0  0  0  0  0  0  0  0  # atno 10167 bound_to 10162
  157.2385  130.7058  149.6347 H   0  0  0  0  0  0  0  0  0  0  0  0  # atno 10718 bound_to 10713
  154.1445  135.2819  155.3152 H   0  0  0  0  0  0  0  0  0  0  0  0  # atno 10763 bound_to 10752
  154.6263  135.5450  153.7633 H   0  0  0  0  0  0  0  0  0  0  0  0  # atno 10764 bound_to 10752
  153.0240  135.6451  154.1591 H   0  0  0  0  0  0  0  0  0  0  0  0  # atno 10765 bound_to 10752
  139.9082  134.8032  156.2103 H   0  0  0  0  0  0  0  0  0  0  0  0  # atno 11005 bound_to 11000
  144.9702  139.3888  143.6313 LP  0  0  0  0  0  0  0  0  0  0  0  0  # atno 17320 bound_to 7965
  146.3360  139.8796  142.8826 LP  0  0  0  0  0  0  0  0  0  0  0  0  # atno 17321 bound_to 7965
  139.5836  144.1654  152.2000 LP  0  0  0  0  0  0  0  0  0  0  0  0  # atno 17342 bound_to 10162
  140.0987  144.5558  150.7004 LP  0  0  0  0  0  0  0  0  0  0  0  0  # atno 17343 bound_to 10162
  155.9671  130.4466  150.5546 LP  0  0  0  0  0  0  0  0  0  0  0  0  # atno 17370 bound_to 10713
  157.3404  131.0715  151.1793 LP  0  0  0  0  0  0  0  0  0  0  0  0  # atno 17371 bound_to 10713
  141.0469  133.6908  156.1700 LP  0  0  0  0  0  0  0  0  0  0  0  0  # atno 17394 bound_to 11000
  140.6870  134.4707  157.5589 LP  0  0  0  0  0  0  0  0  0  0  0  0  # atno 17395 bound_to 11000

$$$$
