AV-unprocessed.smi:3348|AV-procd|sdf|12924|dock10
  -GOLD-   2272019353D 1   1.00000     0.00000
 Structure written by MMmdl.
 46 47  0  0  0  0  0  0  0  0  1 V2000
  148.9498  132.7148  153.5088 C   0  0  0  0  0  0  0  0  0  0  0  0
  147.7090  133.2578  152.7791 C   0  0  1  0  0  0  0  0  0  0  0  0
  146.4676  132.3515  152.9722 C   0  0  0  0  0  0  0  0  0  0  0  0
  145.4691  132.5134  151.9302 N   0  0  0  0  0  0  0  0  0  0  0  0
  145.5671  132.1964  150.5915 C   0  0  0  0  0  0  0  0  0  0  0  0
  144.3728  132.5128  150.0105 C   0  0  0  0  0  0  0  0  0  0  0  0
  143.5958  133.0189  151.0895 C   0  0  0  0  0  0  0  0  0  0  0  0
  144.2529  133.0139  152.2381 N   0  0  0  0  0  0  0  0  0  0  0  0
  147.4553  134.6302  153.2291 N   0  0  0  0  0  0  0  0  0  0  0  0
  147.4150  134.8233  154.6781 C   0  0  0  0  0  0  0  0  0  0  0  0
  147.2790  136.3135  155.0319 C   0  0  0  0  0  0  0  0  0  0  0  0
  148.4230  137.0660  154.6453 O   0  0  0  0  0  0  0  0  0  0  0  0
  148.3527  138.4637  154.9072 C   0  0  2  0  0  0  0  0  0  0  0  0
  147.0056  138.9686  154.3571 C   0  0  0  0  0  0  0  0  0  0  0  0
  146.8810  140.4932  154.4889 C   0  0  0  0  0  0  0  0  0  0  0  0
  148.0531  141.2005  153.7936 C   0  0  0  0  0  0  0  0  0  0  0  0
  149.4020  140.7011  154.3349 C   0  0  0  0  0  0  0  0  0  0  0  0
  149.5397  139.1697  154.2130 C   0  0  1  0  0  0  0  0  0  0  0  0
  150.8925  138.7022  154.7734 C   0  0  0  0  0  0  0  0  0  0  0  0
  149.2504  131.7400  153.1238 H   0  0  0  0  0  0  0  0  0  0  0  0
  148.7668  132.6094  154.5786 H   0  0  0  0  0  0  0  0  0  0  0  0
  149.8017  133.3835  153.3811 H   0  0  0  0  0  0  0  0  0  0  0  0
  147.9469  133.2814  151.7148 H   0  0  0  0  0  0  0  0  0  0  0  0
  146.7696  131.3032  152.9933 H   0  0  0  0  0  0  0  0  0  0  0  0
  145.9786  132.5548  153.9252 H   0  0  0  0  0  0  0  0  0  0  0  0
  146.4685  131.7780  150.1684 H   0  0  0  0  0  0  0  0  0  0  0  0
  144.0957  132.3988  148.9730 H   0  0  0  0  0  0  0  0  0  0  0  0
  142.5799  133.3851  151.0728 H   0  0  0  0  0  0  0  0  0  0  0  0
  148.1389  135.2596  152.8207 H   0  0  0  0  0  0  0  0  0  0  0  0
  146.6079  134.2400  155.1210 H   0  0  0  0  0  0  0  0  0  0  0  0
  148.3391  134.4604  155.1260 H   0  0  0  0  0  0  0  0  0  0  0  0
  146.3885  136.7352  154.5638 H   0  0  0  0  0  0  0  0  0  0  0  0
  147.1385  136.4270  156.1074 H   0  0  0  0  0  0  0  0  0  0  0  0
  148.3978  138.6762  155.9773 H   0  0  0  0  0  0  0  0  0  0  0  0
  146.9105  138.6873  153.3075 H   0  0  0  0  0  0  0  0  0  0  0  0
  146.1809  138.4842  154.8805 H   0  0  0  0  0  0  0  0  0  0  0  0
  145.9365  140.8280  154.0593 H   0  0  0  0  0  0  0  0  0  0  0  0
  146.8580  140.7694  155.5437 H   0  0  0  0  0  0  0  0  0  0  0  0
  148.0023  141.0233  152.7187 H   0  0  0  0  0  0  0  0  0  0  0  0
  147.9722  142.2787  153.9336 H   0  0  0  0  0  0  0  0  0  0  0  0
  150.2132  141.1925  153.7964 H   0  0  0  0  0  0  0  0  0  0  0  0
  149.5035  140.9976  155.3799 H   0  0  0  0  0  0  0  0  0  0  0  0
  149.5136  138.9144  153.1526 H   0  0  0  0  0  0  0  0  0  0  0  0
  150.9726  138.9109  155.8407 H   0  0  0  0  0  0  0  0  0  0  0  0
  151.7195  139.2056  154.2723 H   0  0  0  0  0  0  0  0  0  0  0  0
  151.0314  137.6302  154.6326 H   0  0  0  0  0  0  0  0  0  0  0  0
  1  2  1  0  0  0  0
  1 20  1  0  0  0  0
  1 21  1  0  0  0  0
  1 22  1  0  0  0  0
  2  3  1  0  0  0  0
  2  9  1  0  0  0  0
  2 23  1  0  0  0  0
  3  4  1  0  0  0  0
  3 24  1  0  0  0  0
  3 25  1  0  0  0  0
  4  8  1  0  0  0  0
  4  5  1  0  0  0  0
  5  6  2  0  0  0  0
  5 26  1  0  0  0  0
  6  7  1  0  0  0  0
  6 27  1  0  0  0  0
  7  8  2  0  0  0  0
  7 28  1  0  0  0  0
  9 10  1  0  0  0  0
  9 29  1  0  0  0  0
 10 11  1  0  0  0  0
 10 30  1  0  0  0  0
 10 31  1  0  0  0  0
 11 12  1  0  0  0  0
 11 32  1  0  0  0  0
 11 33  1  0  0  0  0
 12 13  1  0  0  0  0
 13 18  1  0  0  0  0
 13 14  1  0  0  0  0
 13 34  1  0  0  0  0
 14 15  1  0  0  0  0
 14 35  1  0  0  0  0
 14 36  1  0  0  0  0
 15 16  1  0  0  0  0
 15 37  1  0  0  0  0
 15 38  1  0  0  0  0
 16 17  1  0  0  0  0
 16 39  1  0  0  0  0
 16 40  1  0  0  0  0
 17 18  1  0  0  0  0
 17 41  1  0  0  0  0
 17 42  1  0  0  0  0
 18 19  1  0  0  0  0
 18 43  1  0  0  0  0
 19 44  1  0  0  0  0
 19 45  1  0  0  0  0
 19 46  1  0  0  0  0
M  END
> <s_m_source_file>
AV-unprocessed.smi

> <i_m_source_file_index>
3348

> <i_lp_mmshare_version>
43012

> <i_f3d_flags>
0

> <s_epik_input>
bjFbY0hdW2NIXVtjSF1uMVtDSDJdW0NAQEhdKFtDSDNdKVtOSF1bQ0gyXVtDSDJdT1tDQEBIXTJbQ0gyXVtDSDJdW0NIMl1bQ0gyXVtDQEhdMltDSDNd

> <s_epik_cmdline>
J2VwaWtfcHl0aG9uJywgJy1waCcsICc3LjAnLCAnLXRuJywgJzgnLCAnLW1hJywgJzIwMCcsICctbWV0YWxfYmluZGluZycsICctaW1hZScsICc8aW5maWxlLm1hZT4nLCAnLW9tYWUnLCAnPG91dGZpbGUubWFlPic=

> <r_lp_tautomer_probability>
1

> <r_epik_Ionization_Penalty>
2.46945

> <r_epik_Ionization_Penalty_Charging>
0

> <r_epik_Ionization_Penalty_Neutral>
2.46945

> <r_epik_State_Penalty>
2.6322

> <r_epik_Charging_Adjusted_Penalty>
2.6322

> <i_epik_Tot_Q>
0

> <i_epik_Tot_abs_Q>
0

> <r_epik_Metal_State_Penalty>
2.63217

> <b_epik_Metal_Only>
0

> <s_lp_Force_Field>
OPLS_2005

> <r_lp_Energy>
18.9542

> <b_lp_Chiralities_Consistent>
1

> <s_lp_Variant>
AV-unprocessed.smi:3348-10

> <Gold.Version>
5.8.1

> <Gold.Id.Protein>
6NUR|6NUR_protein|mol2

> <Gold.PLP.Fitness>
41.7894

> <Gold.PLP.PLP>
-33.4822

> <Gold.PLP.part.hbond>
-0.9034

> <Gold.PLP.part.metal>
0.0000

> <Gold.PLP.part.buried>
-4.9848

> <Gold.PLP.part.nonpolar>
-29.0879

> <Gold.PLP.part.repulsive>
0.9691

> <Gold.PLP.ligand.clash>
0.0000

> <Gold.PLP.ligand.torsion>
0.3818

> <Gold.PLP.Chemscore.Hbond>
1.0000

> <Gold.PLP.Chemscore.CHOScore>
2.0000

> <Gold.PLP.Chemscore.Metal>
0.0000

> <Gold.Chemscore.Hbonds>
donor molecule, donor type, donor heavy atom, donor atom, acceptor molecule, acceptor atom, score
      L1  H     9    29       P1  7948  1.00
      L1  C     5    26       P1 10747  0.67
      L1  C     7    28       P1 10186  1.00

> <Gold.PLP.Chemscore.Internal.Correction>
0.0708

> <Gold.Rescore>
     Score         DG    S(hbond)    S(metal)    S(lipo)     H(rot)  DE(clash)    DE(int)     intcor
     14.29     -14.83       0.99        0.00      89.50       1.72       0.09       0.45       ----

> <Gold.Chemscore.Fitness>
14.2915

> <Gold.Chemscore.DG>
-14.8327

> <Gold.Chemscore.ZeroCoef>
-5.4800

> <Gold.Chemscore.Hbond>
0.9863

> <Gold.Chemscore.Metal>
0.0000

> <Gold.Chemscore.Lipo>
89.4965

> <Gold.Chemscore.Internal_Hbond>
0.0000

> <Gold.Chemscore.DEClash>
0.0907

> <Gold.Chemscore.DEInternal>
0.4505

> <Gold.Chemscore.Rot>
1.7237

> <Gold.Chemscore.Internal.Correction>
   9.000000E+99

> <Gold.Chemscore.Hbonds>
donor molecule, donor type, donor heavy atom, donor atom, acceptor molecule, acceptor atom, score
      L1  H     9    29       P1  7948  0.95

> <Gold.Chemscore.Hbond.Weighted>
-3.2942

> <Gold.Chemscore.Metal.Weighted>
-0.0000

> <Gold.Chemscore.Lipo.Weighted>
-10.4711

> <Gold.Chemscore.Internal_Hbond.Weighted>
0.0000

> <Gold.Chemscore.DEClash.Weighted>
0.0907

> <Gold.Chemscore.DEInternal.Weighted>
0.4505

> <Gold.Chemscore.Rot.Weighted>
4.4126

> <Gold.Chemscore.Internal.Correction.Weighted>
   9.000000E+99

> <Gold.Protein.RotatedTorsions>
[ 6907 6896 6895 6894 ] final -105.63 input  -60.11 | X-H torsion
[ 7974 7965 7964 7962 ] final   68.62 input  175.53 | X-H torsion
[ 8008 7997 7996 7995 ] final  -85.56 input   59.86 | X-H torsion
[ 10167 10162 10161 10158 ] final -116.03 input  -65.29 | X-H torsion
[ 10718 10713 10712 10709 ] final  -34.49 input   66.30 | X-H torsion
[ 10763 10752 10751 10750 ] final  -12.07 input  -60.55 | X-H torsion
[ 11005 11000 10999 10996 ] final   14.53 input  -57.11 | X-H torsion

> <Gold.Protein.ActiveResidues>
 VAL166  LYS551  ARG553  GLY616  TRP617  ASP618  TYR619  PRO620  LYS621  CYS622 
 ASP623  PHE694  ASN695  SER759  ASP760  ASP761  ALA762  ILE779  LEU786  VAL792 
 PHE793  MET794  SER795  GLU796  ALA797  LYS798  CYS799  TRP800  GLU811  SER814 

> <Gold.Protein.RotatedAtoms>
  150.7347  134.0098  159.3665 H   0  0  0  0  0  0  0  0  0  0  0  0  # atno 6907 bound_to 6896
  151.8057  135.0693  160.0415 H   0  0  0  0  0  0  0  0  0  0  0  0  # atno 6908 bound_to 6896
  152.3109  133.5715  159.5716 H   0  0  0  0  0  0  0  0  0  0  0  0  # atno 6909 bound_to 6896
  145.8003  139.2979  143.1158 H   0  0  0  0  0  0  0  0  0  0  0  0  # atno 7974 bound_to 7965
  154.6421  140.0590  156.9857 H   0  0  0  0  0  0  0  0  0  0  0  0  # atno 8008 bound_to 7997
  155.1501  140.3273  155.4414 H   0  0  0  0  0  0  0  0  0  0  0  0  # atno 8009 bound_to 7997
  156.2536  140.1949  156.6613 H   0  0  0  0  0  0  0  0  0  0  0  0  # atno 8010 bound_to 7997
  140.0837  143.4764  152.1911 H   0  0  0  0  0  0  0  0  0  0  0  0  # atno 10167 bound_to 10162
  156.3500  130.4307  149.7713 H   0  0  0  0  0  0  0  0  0  0  0  0  # atno 10718 bound_to 10713
  153.4931  135.7017  153.5873 H   0  0  0  0  0  0  0  0  0  0  0  0  # atno 10763 bound_to 10752
  153.4037  135.3866  155.2004 H   0  0  0  0  0  0  0  0  0  0  0  0  # atno 10764 bound_to 10752
  154.8715  135.3887  154.4394 H   0  0  0  0  0  0  0  0  0  0  0  0  # atno 10765 bound_to 10752
  140.4685  134.1055  155.7728 H   0  0  0  0  0  0  0  0  0  0  0  0  # atno 11005 bound_to 11000
  145.9884  140.8623  143.0079 LP  0  0  0  0  0  0  0  0  0  0  0  0  # atno 17320 bound_to 7965
  144.6769  140.2181  143.7369 LP  0  0  0  0  0  0  0  0  0  0  0  0  # atno 17321 bound_to 7965
  139.5765  144.7490  151.3752 LP  0  0  0  0  0  0  0  0  0  0  0  0  # atno 17342 bound_to 10162
  140.7064  143.7502  150.7490 LP  0  0  0  0  0  0  0  0  0  0  0  0  # atno 17343 bound_to 10162
  156.4917  130.8088  151.3097 LP  0  0  0  0  0  0  0  0  0  0  0  0  # atno 17370 bound_to 10713
  157.7460  130.9973  150.2812 LP  0  0  0  0  0  0  0  0  0  0  0  0  # atno 17371 bound_to 10713
  141.1588  133.8832  157.1905 LP  0  0  0  0  0  0  0  0  0  0  0  0  # atno 17394 bound_to 11000
  139.9900  135.0068  156.9953 LP  0  0  0  0  0  0  0  0  0  0  0  0  # atno 17395 bound_to 11000

$$$$
