AV-unprocessed.smi:2237|AV-procd|sdf|9051|dock9
  -GOLD-   2272012253D 1   1.00000     0.00000
 Structure written by MMmdl.
 54 56  0  0  0  0  0  0  0  0  2 V2000
  152.4243  145.5742  159.4487 C   0  0  0  0  0  0  0  0  0  0  0  0
  152.8285  144.1356  159.6941 C   0  0  0  0  0  0  0  0  0  0  0  0
  152.6668  143.1563  158.6943 C   0  0  0  0  0  0  0  0  0  0  0  0
  153.0651  141.8395  158.9862 C   0  0  0  0  0  0  0  0  0  0  0  0
  153.6057  141.5586  160.2558 C   0  0  0  0  0  0  0  0  0  0  0  0
  153.7345  142.5996  161.2027 C   0  0  0  0  0  0  0  0  0  0  0  0
  154.2954  142.2128  162.4484 N   0  0  0  0  0  0  0  0  0  0  0  0
  154.4012  142.9388  163.5752 C   0  0  0  0  0  0  0  0  0  0  0  0
  153.9875  144.0891  163.7251 O   0  0  0  0  0  0  0  0  0  0  0  0
  155.0205  142.2443  164.5407 N   0  0  0  0  0  0  0  0  0  0  0  0
  155.3042  142.7379  165.8850 C   0  0  0  0  0  0  0  0  0  0  0  0
  156.0899  144.0491  165.8036 C   0  0  0  0  0  0  0  0  0  0  0  0
  156.5172  144.5312  167.2004 C   0  0  0  0  0  0  0  0  0  0  0  0
  157.3584  143.5359  167.8859 N   0  0  0  0  0  0  0  0  0  0  0  0
  157.8490  144.0288  169.1939 C   0  0  2  0  0  0  0  0  0  0  0  0
  158.6847  145.3322  169.1040 C   0  0  0  0  0  0  0  0  0  0  0  0
  160.0356  145.1010  168.4028 C   0  0  0  0  0  0  0  0  0  0  0  0
  160.8287  144.0596  169.1009 N   0  3  2  0  0  0  0  0  0  0  0  0
  162.1656  143.8721  168.4978 C   0  0  0  0  0  0  0  0  0  0  0  0
  160.0853  142.7830  169.2364 C   0  0  0  0  0  0  0  0  0  0  0  0
  158.7347  142.9994  169.9427 C   0  0  0  0  0  0  0  0  0  0  0  0
  156.5656  142.3039  168.0390 C   0  0  0  0  0  0  0  0  0  0  0  0
  156.1394  141.7262  166.6783 C   0  0  0  0  0  0  0  0  0  0  0  0
  153.3469  143.8664  160.9118 N   0  0  0  0  0  0  0  0  0  0  0  0
  151.8664  145.6748  158.5172 H   0  0  0  0  0  0  0  0  0  0  0  0
  153.3087  146.2089  159.3878 H   0  0  0  0  0  0  0  0  0  0  0  0
  151.7955  145.9381  160.2617 H   0  0  0  0  0  0  0  0  0  0  0  0
  152.2499  143.4040  157.7293 H   0  0  0  0  0  0  0  0  0  0  0  0
  152.9592  141.0574  158.2492 H   0  0  0  0  0  0  0  0  0  0  0  0
  153.9176  140.5523  160.4952 H   0  0  0  0  0  0  0  0  0  0  0  0
  154.6678  141.2755  162.4828 H   0  0  0  0  0  0  0  0  0  0  0  0
  155.3248  141.3054  164.3288 H   0  0  0  0  0  0  0  0  0  0  0  0
  154.3665  142.9260  166.4118 H   0  0  0  0  0  0  0  0  0  0  0  0
  156.9767  143.9183  165.1814 H   0  0  0  0  0  0  0  0  0  0  0  0
  155.4838  144.8161  165.3202 H   0  0  0  0  0  0  0  0  0  0  0  0
  157.0582  145.4606  167.0422 H   0  0  0  0  0  0  0  0  0  0  0  0
  155.6414  144.7656  167.8077 H   0  0  0  0  0  0  0  0  0  0  0  0
  156.9713  144.2360  169.8083 H   0  0  0  0  0  0  0  0  0  0  0  0
  158.1443  146.1584  168.6466 H   0  0  0  0  0  0  0  0  0  0  0  0
  158.8846  145.6819  170.1179 H   0  0  0  0  0  0  0  0  0  0  0  0
  159.8759  144.8087  167.3636 H   0  0  0  0  0  0  0  0  0  0  0  0
  160.6002  146.0338  168.3853 H   0  0  0  0  0  0  0  0  0  0  0  0
  162.0848  143.5124  167.4711 H   0  0  0  0  0  0  0  0  0  0  0  0
  162.7484  143.1488  169.0690 H   0  0  0  0  0  0  0  0  0  0  0  0
  162.7189  144.8119  168.4887 H   0  0  0  0  0  0  0  0  0  0  0  0
  159.9304  142.3395  168.2514 H   0  0  0  0  0  0  0  0  0  0  0  0
  160.6854  142.0760  169.8105 H   0  0  0  0  0  0  0  0  0  0  0  0
  158.9328  143.3818  170.9450 H   0  0  0  0  0  0  0  0  0  0  0  0
  158.2370  142.0487  170.1188 H   0  0  0  0  0  0  0  0  0  0  0  0
  157.1378  141.5229  168.5319 H   0  0  0  0  0  0  0  0  0  0  0  0
  155.6893  142.4973  168.6598 H   0  0  0  0  0  0  0  0  0  0  0  0
  155.5693  140.8094  166.8331 H   0  0  0  0  0  0  0  0  0  0  0  0
  157.0278  141.4447  166.1106 H   0  0  0  0  0  0  0  0  0  0  0  0
  160.9832  144.3998  170.0393 H   0  0  0  0  0  0  0  0  0  0  0  0
  1  2  1  0  0  0  0
  1 25  1  0  0  0  0
  1 26  1  0  0  0  0
  1 27  1  0  0  0  0
  2 24  1  0  0  0  0
  2  3  2  0  0  0  0
  3  4  1  0  0  0  0
  3 28  1  0  0  0  0
  4  5  2  0  0  0  0
  4 29  1  0  0  0  0
  5  6  1  0  0  0  0
  5 30  1  0  0  0  0
  6  7  1  0  0  0  0
  6 24  2  0  0  0  0
  7  8  1  0  0  0  0
  7 31  1  0  0  0  0
  8  9  2  0  0  0  0
  8 10  1  0  0  0  0
 10 11  1  0  0  0  0
 10 32  1  0  0  0  0
 11 23  1  0  0  0  0
 11 12  1  0  0  0  0
 11 33  1  0  0  0  0
 12 13  1  0  0  0  0
 12 34  1  0  0  0  0
 12 35  1  0  0  0  0
 13 14  1  0  0  0  0
 13 36  1  0  0  0  0
 13 37  1  0  0  0  0
 14 15  1  0  0  0  0
 14 22  1  0  0  0  0
 15 21  1  0  0  0  0
 15 16  1  0  0  0  0
 15 38  1  0  0  0  0
 16 17  1  0  0  0  0
 16 39  1  0  0  0  0
 16 40  1  0  0  0  0
 17 18  1  0  0  0  0
 17 41  1  0  0  0  0
 17 42  1  0  0  0  0
 18 19  1  0  0  0  0
 18 20  1  0  0  0  0
 18 54  1  0  0  0  0
 19 43  1  0  0  0  0
 19 44  1  0  0  0  0
 19 45  1  0  0  0  0
 20 21  1  0  0  0  0
 20 46  1  0  0  0  0
 20 47  1  0  0  0  0
 21 48  1  0  0  0  0
 21 49  1  0  0  0  0
 22 23  1  0  0  0  0
 22 50  1  0  0  0  0
 22 51  1  0  0  0  0
 23 52  1  0  0  0  0
 23 53  1  0  0  0  0
M  CHG  1  18   1
M  END
> <s_m_source_file>
AV-unprocessed.smi

> <i_m_source_file_index>
2237

> <i_lp_mmshare_version>
43012

> <i_f3d_flags>
0

> <s_epik_input>
W0NIM11jMVtjSF1bY0hdW2NIXWMobjEpW05IXUMoPU8pW05IXVtDSF0yW0NIMl1bQ0gyXU4oW0NIMl1bQ0gyXTIpW0NIXTNbQ0gyXVtDSDJdTihbQ0gzXSlbQ0gyXVtDSDJdMw==

> <s_epik_cmdline>
J2VwaWtfcHl0aG9uJywgJy1waCcsICc3LjAnLCAnLXRuJywgJzgnLCAnLW1hJywgJzIwMCcsICctbWV0YWxfYmluZGluZycsICctaW1hZScsICc8aW5maWxlLm1hZT4nLCAnLW9tYWUnLCAnPG91dGZpbGUubWFlPic=

> <r_epik_Ionization_Penalty>
1.00983

> <r_epik_Ionization_Penalty_Charging>
0.000974969

> <r_epik_Ionization_Penalty_Neutral>
1.00886

> <r_epik_State_Penalty>
1.10286

> <r_epik_Charging_Adjusted_Penalty>
1.10383

> <i_epik_Tot_Q>
1

> <i_epik_Tot_abs_Q>
1

> <r_epik_Metal_State_Penalty>
1.10284

> <b_epik_Metal_Only>
0

> <s_lp_Force_Field>
OPLS_2005

> <r_lp_Energy>
36.6088

> <b_lp_Chiralities_Consistent>
1

> <s_lp_Variant>
AV-unprocessed.smi:2237-6

> <Gold.Version>
5.8.1

> <Gold.Id.Protein>
6NUR|6NUR_protein|mol2

> <Gold.PLP.Fitness>
44.3563

> <Gold.PLP.PLP>
-44.4422

> <Gold.PLP.part.hbond>
-1.5091

> <Gold.PLP.part.metal>
0.0000

> <Gold.PLP.part.buried>
-4.5962

> <Gold.PLP.part.nonpolar>
-36.0455

> <Gold.PLP.part.repulsive>
0.3771

> <Gold.PLP.ligand.clash>
0.0000

> <Gold.PLP.ligand.torsion>
0.0438

> <Gold.PLP.Chemscore.Hbond>
0.0000

> <Gold.PLP.Chemscore.CHOScore>
0.0000

> <Gold.PLP.Chemscore.Metal>
0.0000

> <Gold.PLP.Chemscore.Internal.Correction>
0.0018

> <Gold.Rescore>
     Score         DG    S(hbond)    S(metal)    S(lipo)     H(rot)  DE(clash)    DE(int)     intcor
      9.15     -13.67       0.00        0.00      96.67       1.22       1.70       2.82       ----

> <Gold.Chemscore.Fitness>
9.1537

> <Gold.Chemscore.DG>
-13.6727

> <Gold.Chemscore.ZeroCoef>
-5.4800

> <Gold.Chemscore.Hbond>
0.0000

> <Gold.Chemscore.Metal>
0.0000

> <Gold.Chemscore.Lipo>
96.6704

> <Gold.Chemscore.Internal_Hbond>
0.0000

> <Gold.Chemscore.DEClash>
1.6954

> <Gold.Chemscore.DEInternal>
2.8235

> <Gold.Chemscore.Rot>
1.2179

> <Gold.Chemscore.Internal.Correction>
   9.000000E+99

> <Gold.Chemscore.Hbond.Weighted>
-0.0000

> <Gold.Chemscore.Metal.Weighted>
-0.0000

> <Gold.Chemscore.Lipo.Weighted>
-11.3104

> <Gold.Chemscore.Internal_Hbond.Weighted>
0.0000

> <Gold.Chemscore.DEClash.Weighted>
1.6954

> <Gold.Chemscore.DEInternal.Weighted>
2.8235

> <Gold.Chemscore.Rot.Weighted>
3.1177

> <Gold.Chemscore.Internal.Correction.Weighted>
   9.000000E+99

> <Gold.Protein.RotatedTorsions>
[ 6907 6896 6895 6894 ] final  -81.22 input  -60.11 | X-H torsion
[ 7974 7965 7964 7962 ] final  135.90 input  175.53 | X-H torsion
[ 8008 7997 7996 7995 ] final -167.75 input   59.86 | X-H torsion
[ 10167 10162 10161 10158 ] final -169.67 input  -65.29 | X-H torsion
[ 10718 10713 10712 10709 ] final -147.36 input   66.30 | X-H torsion
[ 10763 10752 10751 10750 ] final  139.11 input  -60.55 | X-H torsion
[ 11005 11000 10999 10996 ] final -124.70 input  -57.11 | X-H torsion

> <Gold.Protein.ActiveResidues>
 VAL166  LYS551  ARG553  GLY616  TRP617  ASP618  TYR619  PRO620  LYS621  CYS622 
 ASP623  PHE694  ASN695  SER759  ASP760  ASP761  ALA762  ILE779  LEU786  VAL792 
 PHE793  MET794  SER795  GLU796  ALA797  LYS798  CYS799  TRP800  GLU811  SER814 

> <Gold.Protein.RotatedAtoms>
  150.6915  134.3851  159.5050 H   0  0  0  0  0  0  0  0  0  0  0  0  # atno 6907 bound_to 6896
  152.1647  134.8880  160.0548 H   0  0  0  0  0  0  0  0  0  0  0  0  # atno 6908 bound_to 6896
  151.9929  133.3762  159.4188 H   0  0  0  0  0  0  0  0  0  0  0  0  # atno 6909 bound_to 6896
  144.9618  139.4702  143.5476 H   0  0  0  0  0  0  0  0  0  0  0  0  # atno 7974 bound_to 7965
  155.8820  140.1010  157.1478 H   0  0  0  0  0  0  0  0  0  0  0  0  # atno 8008 bound_to 7997
  154.4006  140.1327  156.4272 H   0  0  0  0  0  0  0  0  0  0  0  0  # atno 8009 bound_to 7997
  155.7632  140.3462  155.5211 H   0  0  0  0  0  0  0  0  0  0  0  0  # atno 8010 bound_to 7997
  139.5908  144.1217  152.1632 H   0  0  0  0  0  0  0  0  0  0  0  0  # atno 10167 bound_to 10162
  156.4065  130.7960  151.2175 H   0  0  0  0  0  0  0  0  0  0  0  0  # atno 10718 bound_to 10713
  153.9007  135.3022  155.3448 H   0  0  0  0  0  0  0  0  0  0  0  0  # atno 10763 bound_to 10752
  154.7671  135.4905  153.9579 H   0  0  0  0  0  0  0  0  0  0  0  0  # atno 10764 bound_to 10752
  153.1246  135.6790  153.9378 H   0  0  0  0  0  0  0  0  0  0  0  0  # atno 10765 bound_to 10752
  140.9820  134.0659  157.3753 H   0  0  0  0  0  0  0  0  0  0  0  0  # atno 11005 bound_to 11000
  146.3355  139.8772  142.8830 LP  0  0  0  0  0  0  0  0  0  0  0  0  # atno 17320 bound_to 7965
  145.2689  141.0102  143.3783 LP  0  0  0  0  0  0  0  0  0  0  0  0  # atno 17321 bound_to 7965
  140.0791  144.5715  150.7135 LP  0  0  0  0  0  0  0  0  0  0  0  0  # atno 17342 bound_to 10162
  140.7171  143.2554  151.4398 LP  0  0  0  0  0  0  0  0  0  0  0  0  # atno 17343 bound_to 10162
  157.7506  131.0270  150.3989 LP  0  0  0  0  0  0  0  0  0  0  0  0  # atno 17370 bound_to 10713
  156.4279  130.3966  149.6780 LP  0  0  0  0  0  0  0  0  0  0  0  0  # atno 17371 bound_to 10713
  139.8954  135.0141  156.7002 LP  0  0  0  0  0  0  0  0  0  0  0  0  # atno 17394 bound_to 11000
  140.7171  133.9173  155.8122 LP  0  0  0  0  0  0  0  0  0  0  0  0  # atno 17395 bound_to 11000

$$$$
