AV-unprocessed.smi:822|AV-procd|sdf|3843|dock2
  -GOLD-   22720 1293D 1   1.00000     0.00000
 Structure written by MMmdl.
 38 39  0  0  0  0  0  0  0  0  1 V2000
  154.1669  139.0784  158.6690 O   0  0  0  0  0  0  0  0  0  0  0  0
  153.2869  139.8991  158.9291 C   0  0  0  0  0  0  0  0  0  0  0  0
  153.4391  140.8394  160.1297 C   0  0  0  0  0  0  0  0  0  0  0  0
  152.4994  142.0656  160.0855 C   0  0  0  0  0  0  0  0  0  0  0  0
  152.7937  142.9304  158.8421 C   0  0  0  0  0  0  0  0  0  0  0  0
  151.8699  144.1567  158.7659 C   0  0  0  0  0  0  0  0  0  0  0  0
  151.9660  145.0048  160.0426 C   0  0  0  0  0  0  0  0  0  0  0  0
  151.6667  144.1589  161.2890 C   0  0  0  0  0  0  0  0  0  0  0  0
  152.5876  142.9302  161.3650 C   0  0  0  0  0  0  0  0  0  0  0  0
  152.1621  140.0264  158.2086 N   0  0  0  0  0  0  0  0  0  0  0  0
  151.8266  139.2311  157.0339 C   0  0  0  0  0  0  0  0  0  0  0  0
  151.6512  140.1139  155.7879 C   0  0  0  0  0  0  0  0  0  0  0  0
  150.2988  140.6227  155.6845 N   0  0  0  0  0  0  0  0  0  0  0  0
  149.4252  140.4685  154.6163 C   0  0  0  0  0  0  0  0  0  0  0  0
  148.2602  141.1132  154.9655 C   0  0  0  0  0  0  0  0  0  0  0  0
  148.3933  141.6664  156.2369 N   0  0  0  0  0  0  0  0  0  0  0  0
  149.6261  141.3347  156.5990 C   0  0  0  0  0  0  0  0  0  0  0  0
  153.2809  140.2869  161.0572 H   0  0  0  0  0  0  0  0  0  0  0  0
  154.4769  141.1742  160.1485 H   0  0  0  0  0  0  0  0  0  0  0  0
  151.4730  141.7059  159.9939 H   0  0  0  0  0  0  0  0  0  0  0  0
  153.8331  143.2611  158.8613 H   0  0  0  0  0  0  0  0  0  0  0  0
  152.6783  142.3338  157.9366 H   0  0  0  0  0  0  0  0  0  0  0  0
  152.1291  144.7629  157.8973 H   0  0  0  0  0  0  0  0  0  0  0  0
  150.8393  143.8307  158.6193 H   0  0  0  0  0  0  0  0  0  0  0  0
  152.9657  145.4338  160.1227 H   0  0  0  0  0  0  0  0  0  0  0  0
  151.2722  145.8440  159.9860 H   0  0  0  0  0  0  0  0  0  0  0  0
  151.7837  144.7665  162.1869 H   0  0  0  0  0  0  0  0  0  0  0  0
  150.6257  143.8341  161.2695 H   0  0  0  0  0  0  0  0  0  0  0  0
  152.3199  142.3436  162.2441 H   0  0  0  0  0  0  0  0  0  0  0  0
  153.6168  143.2584  161.5161 H   0  0  0  0  0  0  0  0  0  0  0  0
  151.4929  140.7276  158.4920 H   0  0  0  0  0  0  0  0  0  0  0  0
  152.6314  138.5136  156.8710 H   0  0  0  0  0  0  0  0  0  0  0  0
  150.9239  138.6466  157.2210 H   0  0  0  0  0  0  0  0  0  0  0  0
  152.3389  140.9605  155.8132 H   0  0  0  0  0  0  0  0  0  0  0  0
  151.8775  139.5475  154.8835 H   0  0  0  0  0  0  0  0  0  0  0  0
  149.6968  139.9274  153.7217 H   0  0  0  0  0  0  0  0  0  0  0  0
  147.3433  141.2201  154.4045 H   0  0  0  0  0  0  0  0  0  0  0  0
  150.0486  141.6150  157.5530 H   0  0  0  0  0  0  0  0  0  0  0  0
  1  2  2  0  0  0  0
  2  3  1  0  0  0  0
  2 10  1  0  0  0  0
  3  4  1  0  0  0  0
  3 18  1  0  0  0  0
  3 19  1  0  0  0  0
  4  9  1  0  0  0  0
  4  5  1  0  0  0  0
  4 20  1  0  0  0  0
  5  6  1  0  0  0  0
  5 21  1  0  0  0  0
  5 22  1  0  0  0  0
  6  7  1  0  0  0  0
  6 23  1  0  0  0  0
  6 24  1  0  0  0  0
  7  8  1  0  0  0  0
  7 25  1  0  0  0  0
  7 26  1  0  0  0  0
  8  9  1  0  0  0  0
  8 27  1  0  0  0  0
  8 28  1  0  0  0  0
  9 29  1  0  0  0  0
  9 30  1  0  0  0  0
 10 11  1  0  0  0  0
 10 31  1  0  0  0  0
 11 12  1  0  0  0  0
 11 32  1  0  0  0  0
 11 33  1  0  0  0  0
 12 13  1  0  0  0  0
 12 34  1  0  0  0  0
 12 35  1  0  0  0  0
 13 17  1  0  0  0  0
 13 14  1  0  0  0  0
 14 15  2  0  0  0  0
 14 36  1  0  0  0  0
 15 16  1  0  0  0  0
 15 37  1  0  0  0  0
 16 17  2  0  0  0  0
 17 38  1  0  0  0  0
M  END
> <s_m_source_file>
AV-unprocessed.smi

> <i_m_source_file_index>
822

> <i_lp_mmshare_version>
43012

> <i_f3d_flags>
0

> <s_epik_input>
W0NIMl0xW0NIMl1bQ0gyXVtDSDJdW0NIMl1bQ0hdMVtDSDJdQyg9TylbTkhdW0NIMl1bQ0gyXW4yW2NIXVtjSF1uW2NIXTI=

> <s_epik_cmdline>
J2VwaWtfcHl0aG9uJywgJy1waCcsICc3LjAnLCAnLXRuJywgJzgnLCAnLW1hJywgJzIwMCcsICctbWV0YWxfYmluZGluZycsICctaW1hZScsICc8aW5maWxlLm1hZT4nLCAnLW9tYWUnLCAnPG91dGZpbGUubWFlPic=

> <r_lp_tautomer_probability>
1

> <r_epik_Ionization_Penalty>
0.600603

> <r_epik_Ionization_Penalty_Charging>
0.600603

> <r_epik_Ionization_Penalty_Neutral>
2.18922e-08

> <r_epik_State_Penalty>
0.614954

> <r_epik_Charging_Adjusted_Penalty>
1.21556

> <i_epik_Tot_Q>
0

> <i_epik_Tot_abs_Q>
0

> <r_epik_Metal_State_Penalty>
0.301281

> <b_epik_Metal_Only>
0

> <s_lp_Force_Field>
OPLS_2005

> <r_lp_Energy>
10.0857

> <b_lp_Chiralities_Consistent>
1

> <s_lp_Variant>
AV-unprocessed.smi:822-2

> <Gold.Version>
5.8.1

> <Gold.Id.Protein>
6NUR|6NUR_protein|mol2

> <Gold.PLP.Fitness>
46.7580

> <Gold.PLP.PLP>
-41.5067

> <Gold.PLP.part.hbond>
-1.0000

> <Gold.PLP.part.metal>
0.0000

> <Gold.PLP.part.buried>
-2.3696

> <Gold.PLP.part.nonpolar>
-38.4611

> <Gold.PLP.part.repulsive>
0.6188

> <Gold.PLP.ligand.clash>
0.0000

> <Gold.PLP.ligand.torsion>
0.4132

> <Gold.PLP.Chemscore.Hbond>
1.0000

> <Gold.PLP.Chemscore.CHOScore>
1.0000

> <Gold.PLP.Chemscore.Metal>
0.0000

> <Gold.Chemscore.Hbonds>
donor molecule, donor type, donor heavy atom, donor atom, acceptor molecule, acceptor atom, score
      P1  H  7997  8010       L1     1  1.00
      L1  C    14    36       P1  7957  0.92

> <Gold.PLP.Chemscore.Internal.Correction>
0.0778

> <Gold.Rescore>
     Score         DG    S(hbond)    S(metal)    S(lipo)     H(rot)  DE(clash)    DE(int)     intcor
     15.14     -15.76       0.86        0.00     106.33       1.97       0.05       0.57       ----

> <Gold.Chemscore.Fitness>
15.1398

> <Gold.Chemscore.DG>
-15.7569

> <Gold.Chemscore.ZeroCoef>
-5.4800

> <Gold.Chemscore.Hbond>
0.8616

> <Gold.Chemscore.Metal>
0.0000

> <Gold.Chemscore.Lipo>
106.3261

> <Gold.Chemscore.Internal_Hbond>
0.0000

> <Gold.Chemscore.DEClash>
0.0484

> <Gold.Chemscore.DEInternal>
0.5688

> <Gold.Chemscore.Rot>
1.9692

> <Gold.Chemscore.Internal.Correction>
   9.000000E+99

> <Gold.Chemscore.Hbonds>
donor molecule, donor type, donor heavy atom, donor atom, acceptor molecule, acceptor atom, score
      P1  H  7997  8010       L1     1  0.30

> <Gold.Chemscore.Hbond.Weighted>
-2.8778

> <Gold.Chemscore.Metal.Weighted>
-0.0000

> <Gold.Chemscore.Lipo.Weighted>
-12.4402

> <Gold.Chemscore.Internal_Hbond.Weighted>
0.0000

> <Gold.Chemscore.DEClash.Weighted>
0.0484

> <Gold.Chemscore.DEInternal.Weighted>
0.5688

> <Gold.Chemscore.Rot.Weighted>
5.0410

> <Gold.Chemscore.Internal.Correction.Weighted>
   9.000000E+99

> <Gold.Protein.RotatedTorsions>
[ 6907 6896 6895 6894 ] final   -9.80 input  -60.11 | X-H torsion
[ 7974 7965 7964 7962 ] final   25.57 input  175.53 | X-H torsion
[ 8008 7997 7996 7995 ] final   -2.10 input   59.86 | X-H torsion
[ 10167 10162 10161 10158 ] final  144.65 input  -65.29 | X-H torsion
[ 10718 10713 10712 10709 ] final   44.80 input   66.30 | X-H torsion
[ 10763 10752 10751 10750 ] final  -37.02 input  -60.55 | X-H torsion
[ 11005 11000 10999 10996 ] final   94.14 input  -57.11 | X-H torsion

> <Gold.Protein.ActiveResidues>
 VAL166  LYS551  ARG553  GLY616  TRP617  ASP618  TYR619  PRO620  LYS621  CYS622 
 ASP623  PHE694  ASN695  SER759  ASP760  ASP761  ALA762  ILE779  LEU786  VAL792 
 PHE793  MET794  SER795  GLU796  ALA797  LYS798  CYS799  TRP800  GLU811  SER814 

> <Gold.Protein.RotatedAtoms>
  151.4121  135.0986  159.9587 H   0  0  0  0  0  0  0  0  0  0  0  0  # atno 6907 bound_to 6896
  152.5016  133.8788  159.7346 H   0  0  0  0  0  0  0  0  0  0  0  0  # atno 6908 bound_to 6896
  150.9285  133.6738  159.2844 H   0  0  0  0  0  0  0  0  0  0  0  0  # atno 6909 bound_to 6896
  146.1881  139.7447  142.8851 H   0  0  0  0  0  0  0  0  0  0  0  0  # atno 7974 bound_to 7965
  154.6394  140.2543  155.7339 H   0  0  0  0  0  0  0  0  0  0  0  0  # atno 8008 bound_to 7997
  156.2521  140.2890  156.0702 H   0  0  0  0  0  0  0  0  0  0  0  0  # atno 8009 bound_to 7997
  155.1620  140.0384  157.2835 H   0  0  0  0  0  0  0  0  0  0  0  0  # atno 8010 bound_to 7997
  139.4942  144.5957  151.6587 H   0  0  0  0  0  0  0  0  0  0  0  0  # atno 10167 bound_to 10162
  157.4307  130.8023  149.7601 H   0  0  0  0  0  0  0  0  0  0  0  0  # atno 10718 bound_to 10713
  153.8894  135.6813  153.4761 H   0  0  0  0  0  0  0  0  0  0  0  0  # atno 10763 bound_to 10752
  153.1189  135.4748  154.9161 H   0  0  0  0  0  0  0  0  0  0  0  0  # atno 10764 bound_to 10752
  154.7630  135.3216  154.8294 H   0  0  0  0  0  0  0  0  0  0  0  0  # atno 10765 bound_to 10752
  139.8802  134.8829  156.3821 H   0  0  0  0  0  0  0  0  0  0  0  0  # atno 11005 bound_to 11000
  145.3875  141.0367  143.3142 LP  0  0  0  0  0  0  0  0  0  0  0  0  # atno 17320 bound_to 7965
  144.8436  139.5433  143.6889 LP  0  0  0  0  0  0  0  0  0  0  0  0  # atno 17321 bound_to 7965
  140.5595  144.0293  150.6163 LP  0  0  0  0  0  0  0  0  0  0  0  0  # atno 17342 bound_to 10162
  140.3374  143.3040  152.0624 LP  0  0  0  0  0  0  0  0  0  0  0  0  # atno 17343 bound_to 10162
  155.9912  130.3939  150.2993 LP  0  0  0  0  0  0  0  0  0  0  0  0  # atno 17370 bound_to 10713
  157.1150  131.0231  151.3032 LP  0  0  0  0  0  0  0  0  0  0  0  0  # atno 17371 bound_to 10713
  140.9392  133.7526  156.0124 LP  0  0  0  0  0  0  0  0  0  0  0  0  # atno 17394 bound_to 11000
  140.8240  134.3256  157.5372 LP  0  0  0  0  0  0  0  0  0  0  0  0  # atno 17395 bound_to 11000

$$$$
