AV-unprocessed.smi:2458|AV-procd|sdf|9710|dock4
  -GOLD-   2272013353D 1   1.00000     0.00000
 Structure written by MMmdl.
 47 48  0  0  0  0  0  0  0  0  1 V2000
  152.2593  144.6438  159.0347 C   0  0  0  0  0  0  0  0  0  0  0  0
  152.0432  143.2198  159.5833 C   0  0  0  0  0  0  0  0  0  0  0  0
  153.0698  142.9620  160.7034 C   0  0  0  0  0  0  0  0  0  0  0  0
  152.0818  142.1334  158.4677 C   0  0  1  0  0  0  0  0  0  0  0  0
  152.0575  140.6957  159.0417 C   0  0  0  0  0  0  0  0  0  0  0  0
  152.0829  139.6152  157.9436 C   0  0  0  0  0  0  0  0  0  0  0  0
  150.9768  139.7778  156.8796 C   0  0  1  0  0  0  0  0  0  0  0  0
  149.5926  139.3116  157.3696 C   0  0  0  0  0  0  0  0  0  0  0  0
  148.5991  140.0269  157.2424 O   0  0  0  0  0  0  0  0  0  0  0  0
  149.5428  138.0966  157.9347 N   0  0  0  0  0  0  0  0  0  0  0  0
  148.3312  137.4738  158.4513 C   0  0  0  0  0  0  0  0  0  0  0  0
  148.6640  136.4452  159.5465 C   0  0  2  0  0  0  0  0  0  0  0  0
  149.0306  135.2274  158.9277 O   0  0  0  0  0  0  0  0  0  0  0  0
  147.4934  136.2551  160.4978 C   0  0  0  0  0  0  0  0  0  0  0  0
  147.5861  135.3959  161.6143 C   0  0  0  0  0  0  0  0  0  0  0  0
  146.4672  135.2499  162.4566 C   0  0  0  0  0  0  0  0  0  0  0  0
  145.2963  135.9694  162.1466 C   0  0  0  0  0  0  0  0  0  0  0  0
  145.1927  136.7920  161.0809 N   0  0  0  0  0  0  0  0  0  0  0  0
  146.2707  136.9265  160.2784 C   0  0  0  0  0  0  0  0  0  0  0  0
  150.9615  141.2241  156.3441 C   0  0  0  0  0  0  0  0  0  0  0  0
  150.9248  142.2924  157.4520 C   0  0  0  0  0  0  0  0  0  0  0  0
  153.0186  142.2532  157.9212 H   0  0  0  0  0  0  0  0  0  0  0  0
  151.2441  139.1299  156.0428 H   0  0  0  0  0  0  0  0  0  0  0  0
  153.1880  144.7138  158.4672 H   0  0  0  0  0  0  0  0  0  0  0  0
  152.3122  145.3735  159.8432 H   0  0  0  0  0  0  0  0  0  0  0  0
  151.4422  144.9624  158.3883 H   0  0  0  0  0  0  0  0  0  0  0  0
  151.0539  143.1978  160.0424 H   0  0  0  0  0  0  0  0  0  0  0  0
  154.0805  142.8755  160.3035 H   0  0  0  0  0  0  0  0  0  0  0  0
  152.8472  142.0537  161.2620 H   0  0  0  0  0  0  0  0  0  0  0  0
  153.0714  143.7750  161.4299 H   0  0  0  0  0  0  0  0  0  0  0  0
  152.9219  140.5260  159.6823 H   0  0  0  0  0  0  0  0  0  0  0  0
  151.1826  140.5668  159.6787 H   0  0  0  0  0  0  0  0  0  0  0  0
  153.0530  139.6473  157.4459 H   0  0  0  0  0  0  0  0  0  0  0  0
  152.0205  138.6274  158.4027 H   0  0  0  0  0  0  0  0  0  0  0  0
  150.3974  137.5627  158.0007 H   0  0  0  0  0  0  0  0  0  0  0  0
  147.7138  138.2688  158.8731 H   0  0  0  0  0  0  0  0  0  0  0  0
  147.7521  137.0151  157.6475 H   0  0  0  0  0  0  0  0  0  0  0  0
  149.5214  136.7920  160.1256 H   0  0  0  0  0  0  0  0  0  0  0  0
  148.3759  135.0087  158.2826 H   0  0  0  0  0  0  0  0  0  0  0  0
  148.4977  134.8551  161.8224 H   0  0  0  0  0  0  0  0  0  0  0  0
  146.5047  134.6009  163.3190 H   0  0  0  0  0  0  0  0  0  0  0  0
  144.4193  135.8808  162.7706 H   0  0  0  0  0  0  0  0  0  0  0  0
  146.1504  137.5903  159.4348 H   0  0  0  0  0  0  0  0  0  0  0  0
  151.8522  141.3819  155.7347 H   0  0  0  0  0  0  0  0  0  0  0  0
  150.1149  141.3670  155.6711 H   0  0  0  0  0  0  0  0  0  0  0  0
  149.9673  142.2629  157.9724 H   0  0  0  0  0  0  0  0  0  0  0  0
  150.9735  143.2653  156.9653 H   0  0  0  0  0  0  0  0  0  0  0  0
  1  2  1  0  0  0  0
  1 24  1  0  0  0  0
  1 25  1  0  0  0  0
  1 26  1  0  0  0  0
  2  3  1  0  0  0  0
  2  4  1  0  0  0  0
  2 27  1  0  0  0  0
  3 28  1  0  0  0  0
  3 29  1  0  0  0  0
  3 30  1  0  0  0  0
  4 22  1  0  0  0  0
  4 21  1  0  0  0  0
  4  5  1  0  0  0  0
  5  6  1  0  0  0  0
  5 31  1  0  0  0  0
  5 32  1  0  0  0  0
  6  7  1  0  0  0  0
  6 33  1  0  0  0  0
  6 34  1  0  0  0  0
  7 23  1  0  0  0  0
  7  8  1  0  0  0  0
  7 20  1  0  0  0  0
  8  9  2  0  0  0  0
  8 10  1  0  0  0  0
 10 11  1  0  0  0  0
 10 35  1  0  0  0  0
 11 12  1  0  0  0  0
 11 36  1  0  0  0  0
 11 37  1  0  0  0  0
 12 13  1  0  0  0  0
 12 14  1  0  0  0  0
 12 38  1  0  0  0  0
 13 39  1  0  0  0  0
 14 19  1  0  0  0  0
 14 15  2  0  0  0  0
 15 16  1  0  0  0  0
 15 40  1  0  0  0  0
 16 17  2  0  0  0  0
 16 41  1  0  0  0  0
 17 18  1  0  0  0  0
 17 42  1  0  0  0  0
 18 19  2  0  0  0  0
 19 43  1  0  0  0  0
 20 21  1  0  0  0  0
 20 44  1  0  0  0  0
 20 45  1  0  0  0  0
 21 46  1  0  0  0  0
 21 47  1  0  0  0  0
M  END
> <s_m_source_file>
AV-unprocessed.smi

> <i_m_source_file_index>
2458

> <i_lp_mmshare_version>
43012

> <i_f3d_flags>
0

> <s_epik_input>
W0NIM11bQ0hdKFtDSDNdKVtDQEhdMVtDSDJdW0NIMl1bQ0BASF0oW0NIMl1bQ0gyXTEpQyg9TylbTkhdW0NIMl1bQ0BIXShbT0hdKWMyW2NIXVtjSF1bY0hdbltjSF0y

> <s_epik_cmdline>
J2VwaWtfcHl0aG9uJywgJy1waCcsICc3LjAnLCAnLXRuJywgJzgnLCAnLW1hJywgJzIwMCcsICctbWV0YWxfYmluZGluZycsICctaW1hZScsICc8aW5maWxlLm1hZT4nLCAnLW9tYWUnLCAnPG91dGZpbGUubWFlPic=

> <r_epik_Ionization_Penalty>
0.00169206

> <r_epik_Ionization_Penalty_Charging>
0

> <r_epik_Ionization_Penalty_Neutral>
0.00169206

> <r_epik_State_Penalty>
0.0011427

> <r_epik_Charging_Adjusted_Penalty>
0.0011427

> <i_epik_Tot_Q>
0

> <i_epik_Tot_abs_Q>
0

> <r_epik_Metal_State_Penalty>
-0

> <b_epik_Metal_Only>
0

> <s_lp_Force_Field>
OPLS_2005

> <r_lp_Energy>
16.378

> <b_lp_Chiralities_Consistent>
1

> <s_lp_Variant>
AV-unprocessed.smi:2458-3

> <Gold.Version>
5.8.1

> <Gold.Id.Protein>
6NUR|6NUR_protein|mol2

> <Gold.PLP.Fitness>
41.6681

> <Gold.PLP.PLP>
-39.8322

> <Gold.PLP.part.hbond>
-1.0000

> <Gold.PLP.part.metal>
0.0000

> <Gold.PLP.part.buried>
-5.7122

> <Gold.PLP.part.nonpolar>
-33.1110

> <Gold.PLP.part.repulsive>
0.0935

> <Gold.PLP.ligand.clash>
0.0000

> <Gold.PLP.ligand.torsion>
0.6263

> <Gold.PLP.Chemscore.Hbond>
0.9920

> <Gold.PLP.Chemscore.CHOScore>
0.0000

> <Gold.PLP.Chemscore.Metal>
0.0000

> <Gold.Chemscore.Hbonds>
donor molecule, donor type, donor heavy atom, donor atom, acceptor molecule, acceptor atom, score
      P1  H  6896  6909       L1    13  1.00

> <Gold.PLP.Chemscore.Internal.Correction>
0.1124

> <Gold.Rescore>
     Score         DG    S(hbond)    S(metal)    S(lipo)     H(rot)  DE(clash)    DE(int)     intcor
     16.66     -17.55       0.96        0.00     120.70       2.06       0.08       0.82       ----

> <Gold.Chemscore.Fitness>
16.6563

> <Gold.Chemscore.DG>
-17.5534

> <Gold.Chemscore.ZeroCoef>
-5.4800

> <Gold.Chemscore.Hbond>
0.9646

> <Gold.Chemscore.Metal>
0.0000

> <Gold.Chemscore.Lipo>
120.7014

> <Gold.Chemscore.Internal_Hbond>
0.0000

> <Gold.Chemscore.DEClash>
0.0782

> <Gold.Chemscore.DEInternal>
0.8188

> <Gold.Chemscore.Rot>
2.0588

> <Gold.Chemscore.Internal.Correction>
   9.000000E+99

> <Gold.Chemscore.Hbonds>
donor molecule, donor type, donor heavy atom, donor atom, acceptor molecule, acceptor atom, score
      P1  H  6896  6909       L1    13  0.94

> <Gold.Chemscore.Hbond.Weighted>
-3.2218

> <Gold.Chemscore.Metal.Weighted>
-0.0000

> <Gold.Chemscore.Lipo.Weighted>
-14.1221

> <Gold.Chemscore.Internal_Hbond.Weighted>
0.0000

> <Gold.Chemscore.DEClash.Weighted>
0.0782

> <Gold.Chemscore.DEInternal.Weighted>
0.8188

> <Gold.Chemscore.Rot.Weighted>
5.2705

> <Gold.Chemscore.Internal.Correction.Weighted>
   9.000000E+99

> <Gold.Protein.RotatedTorsions>
[ 6907 6896 6895 6894 ] final   26.39 input  -60.11 | X-H torsion
[ 7974 7965 7964 7962 ] final   38.83 input  175.53 | X-H torsion
[ 8008 7997 7996 7995 ] final  -70.08 input   59.86 | X-H torsion
[ 10167 10162 10161 10158 ] final   28.40 input  -65.29 | X-H torsion
[ 10718 10713 10712 10709 ] final   99.81 input   66.30 | X-H torsion
[ 10763 10752 10751 10750 ] final  169.25 input  -60.55 | X-H torsion
[ 11005 11000 10999 10996 ] final  -72.01 input  -57.11 | X-H torsion

> <Gold.Protein.ActiveResidues>
 VAL166  LYS551  ARG553  GLY616  TRP617  ASP618  TYR619  PRO620  LYS621  CYS622 
 ASP623  PHE694  ASN695  SER759  ASP760  ASP761  ALA762  ILE779  LEU786  VAL792 
 PHE793  MET794  SER795  GLU796  ALA797  LYS798  CYS799  TRP800  GLU811  SER814 

> <Gold.Protein.RotatedAtoms>
  151.9868  135.0000  160.0559 H   0  0  0  0  0  0  0  0  0  0  0  0  # atno 6907 bound_to 6896
  152.1645  133.4599  159.4886 H   0  0  0  0  0  0  0  0  0  0  0  0  # atno 6908 bound_to 6896
  150.6892  134.1947  159.4342 H   0  0  0  0  0  0  0  0  0  0  0  0  # atno 6909 bound_to 6896
  146.1031  139.5724  142.9401 H   0  0  0  0  0  0  0  0  0  0  0  0  # atno 7974 bound_to 7965
  154.4986  140.0841  156.7749 H   0  0  0  0  0  0  0  0  0  0  0  0  # atno 8008 bound_to 7997
  155.4058  140.3439  155.4242 H   0  0  0  0  0  0  0  0  0  0  0  0  # atno 8009 bound_to 7997
  156.1426  140.1534  156.8884 H   0  0  0  0  0  0  0  0  0  0  0  0  # atno 8010 bound_to 7997
  140.4856  144.0548  150.6279 H   0  0  0  0  0  0  0  0  0  0  0  0  # atno 10167 bound_to 10162
  157.6868  131.0680  150.5006 H   0  0  0  0  0  0  0  0  0  0  0  0  # atno 10718 bound_to 10713
  154.3804  135.2753  155.2214 H   0  0  0  0  0  0  0  0  0  0  0  0  # atno 10763 bound_to 10752
  154.4323  135.5974  153.6080 H   0  0  0  0  0  0  0  0  0  0  0  0  # atno 10764 bound_to 10752
  152.9835  135.5998  154.4046 H   0  0  0  0  0  0  0  0  0  0  0  0  # atno 10765 bound_to 10752
  141.1602  133.6834  156.6994 H   0  0  0  0  0  0  0  0  0  0  0  0  # atno 11005 bound_to 11000
  145.5814  141.0382  143.2120 LP  0  0  0  0  0  0  0  0  0  0  0  0  # atno 17320 bound_to 7965
  144.7449  139.7348  143.7296 LP  0  0  0  0  0  0  0  0  0  0  0  0  # atno 17321 bound_to 7965
  140.3802  143.2807  152.0179 LP  0  0  0  0  0  0  0  0  0  0  0  0  # atno 17342 bound_to 10162
  139.4841  144.6161  151.7344 LP  0  0  0  0  0  0  0  0  0  0  0  0  # atno 17343 bound_to 10162
  156.5327  130.4189  149.6193 LP  0  0  0  0  0  0  0  0  0  0  0  0  # atno 17370 bound_to 10713
  156.3055  130.7200  151.2081 LP  0  0  0  0  0  0  0  0  0  0  0  0  # atno 17371 bound_to 10713
  140.2970  134.8194  157.4066 LP  0  0  0  0  0  0  0  0  0  0  0  0  # atno 17394 bound_to 11000
  140.1295  134.5113  155.8117 LP  0  0  0  0  0  0  0  0  0  0  0  0  # atno 17395 bound_to 11000

$$$$
