AV-unprocessed.smi:1709|AV-procd|sdf|6894|dock8
  -GOLD-   22720 8103D 1   1.00000     0.00000
 Structure written by MMmdl.
 43 45  0  0  0  0  0  0  0  0  2 V2000
  150.9893  137.7244  154.4758 C   0  0  0  0  0  0  0  0  0  0  0  0
  150.2538  139.0249  154.7578 C   0  0  0  0  0  0  0  0  0  0  0  0
  150.9696  140.1167  155.2932 C   0  0  0  0  0  0  0  0  0  0  0  0
  150.2925  141.3204  155.5520 C   0  0  0  0  0  0  0  0  0  0  0  0
  148.9200  141.3819  155.2603 C   0  0  0  0  0  0  0  0  0  0  0  0
  148.2284  140.3433  154.7481 N   0  0  0  0  0  0  0  0  0  0  0  0
  148.8642  139.1694  154.4969 C   0  0  0  0  0  0  0  0  0  0  0  0
  148.2119  138.0244  153.9426 N   0  0  0  0  0  0  0  0  0  0  0  0
  146.9279  137.6107  153.9975 C   0  0  0  0  0  0  0  0  0  0  0  0
  146.0772  138.2565  154.6067 O   0  0  0  0  0  0  0  0  0  0  0  0
  146.6460  136.4661  153.3533 N   0  0  0  0  0  0  0  0  0  0  0  0
  145.3406  135.8125  153.2995 C   0  0  1  0  0  0  0  0  0  0  0  0
  144.2812  136.6602  152.5686 C   0  0  0  0  0  0  0  0  0  0  0  0
  143.5164  135.6615  151.6941 C   0  0  0  0  0  0  0  0  0  0  0  0
  144.5450  134.6751  151.3445 N   0  3  2  0  0  0  0  0  0  0  0  0
  144.1222  133.4130  150.7045 C   0  0  0  0  0  0  0  0  0  0  0  0
  145.3854  132.6360  150.2753 C   0  0  0  0  0  0  0  0  0  0  0  0
  146.3857  132.4568  151.4397 C   0  0  0  0  0  0  0  0  0  0  0  0
  146.6866  133.7950  152.1479 C   0  0  0  0  0  0  0  0  0  0  0  0
  145.3574  134.4575  152.5537 C   0  0  1  0  0  0  0  0  0  0  0  0
  152.0365  137.7876  154.7729 H   0  0  0  0  0  0  0  0  0  0  0  0
  150.9561  137.4910  153.4112 H   0  0  0  0  0  0  0  0  0  0  0  0
  150.5353  136.9000  155.0264 H   0  0  0  0  0  0  0  0  0  0  0  0
  152.0258  140.0362  155.5040 H   0  0  0  0  0  0  0  0  0  0  0  0
  150.8123  142.1737  155.9621 H   0  0  0  0  0  0  0  0  0  0  0  0
  148.3611  142.2878  155.4422 H   0  0  0  0  0  0  0  0  0  0  0  0
  148.8086  137.4497  153.3655 H   0  0  0  0  0  0  0  0  0  0  0  0
  147.4082  136.0036  152.8774 H   0  0  0  0  0  0  0  0  0  0  0  0
  144.9875  135.6394  154.3182 H   0  0  0  0  0  0  0  0  0  0  0  0
  143.6266  137.1980  153.2552 H   0  0  0  0  0  0  0  0  0  0  0  0
  144.7640  137.4003  151.9284 H   0  0  0  0  0  0  0  0  0  0  0  0
  142.7213  135.1796  152.2653 H   0  0  0  0  0  0  0  0  0  0  0  0
  143.0774  136.1249  150.8100 H   0  0  0  0  0  0  0  0  0  0  0  0
  143.5184  132.8240  151.3965 H   0  0  0  0  0  0  0  0  0  0  0  0
  143.5011  133.6303  149.8350 H   0  0  0  0  0  0  0  0  0  0  0  0
  145.1068  131.6635  149.8685 H   0  0  0  0  0  0  0  0  0  0  0  0
  145.8780  133.1760  149.4658 H   0  0  0  0  0  0  0  0  0  0  0  0
  145.9709  131.7531  152.1626 H   0  0  0  0  0  0  0  0  0  0  0  0
  147.3105  132.0106  151.0734 H   0  0  0  0  0  0  0  0  0  0  0  0
  147.3093  133.6155  153.0245 H   0  0  0  0  0  0  0  0  0  0  0  0
  147.2519  134.4504  151.4836 H   0  0  0  0  0  0  0  0  0  0  0  0
  144.8150  133.7539  153.1892 H   0  0  0  0  0  0  0  0  0  0  0  0
  145.1502  135.1420  150.6842 H   0  0  0  0  0  0  0  0  0  0  0  0
  1  2  1  0  0  0  0
  1 21  1  0  0  0  0
  1 22  1  0  0  0  0
  1 23  1  0  0  0  0
  2  7  1  0  0  0  0
  2  3  2  0  0  0  0
  3  4  1  0  0  0  0
  3 24  1  0  0  0  0
  4  5  2  0  0  0  0
  4 25  1  0  0  0  0
  5  6  1  0  0  0  0
  5 26  1  0  0  0  0
  6  7  2  0  0  0  0
  7  8  1  0  0  0  0
  8  9  1  0  0  0  0
  8 27  1  0  0  0  0
  9 10  2  0  0  0  0
  9 11  1  0  0  0  0
 11 12  1  0  0  0  0
 11 28  1  0  0  0  0
 12 20  1  0  0  0  0
 12 13  1  0  0  0  0
 12 29  1  0  0  0  0
 13 14  1  0  0  0  0
 13 30  1  0  0  0  0
 13 31  1  0  0  0  0
 14 15  1  0  0  0  0
 14 32  1  0  0  0  0
 14 33  1  0  0  0  0
 15 20  1  0  0  0  0
 15 16  1  0  0  0  0
 15 43  1  0  0  0  0
 16 17  1  0  0  0  0
 16 34  1  0  0  0  0
 16 35  1  0  0  0  0
 17 18  1  0  0  0  0
 17 36  1  0  0  0  0
 17 37  1  0  0  0  0
 18 19  1  0  0  0  0
 18 38  1  0  0  0  0
 18 39  1  0  0  0  0
 19 20  1  0  0  0  0
 19 40  1  0  0  0  0
 19 41  1  0  0  0  0
 20 42  1  0  0  0  0
M  CHG  1  15   1
M  END
> <s_m_source_file>
AV-unprocessed.smi

> <i_m_source_file_index>
1709

> <i_lp_mmshare_version>
43012

> <i_f3d_flags>
0

> <s_epik_input>
W0NIM11jMVtjSF1bY0hdW2NIXW5jMVtOSF1DKD1PKVtOSF1bQ0BIXShbQ0gyXVtDSDJdMilbQ0BASF0oTjIzKVtDSDJdW0NIMl1bQ0gyXVtDSDJdMw==

> <s_epik_cmdline>
J2VwaWtfcHl0aG9uJywgJy1waCcsICc3LjAnLCAnLXRuJywgJzgnLCAnLW1hJywgJzIwMCcsICctbWV0YWxfYmluZGluZycsICctaW1hZScsICc8aW5maWxlLm1hZT4nLCAnLW9tYWUnLCAnPG91dGZpbGUubWFlPic=

> <r_epik_Ionization_Penalty>
0.00101524

> <r_epik_Ionization_Penalty_Charging>
0.000974069

> <r_epik_Ionization_Penalty_Neutral>
4.11757e-05

> <r_epik_State_Penalty>
0.000633842

> <r_epik_Charging_Adjusted_Penalty>
0.00160791

> <i_epik_Tot_Q>
1

> <i_epik_Tot_abs_Q>
1

> <r_epik_Metal_State_Penalty>
-0

> <b_epik_Metal_Only>
0

> <s_lp_Force_Field>
OPLS_2005

> <r_lp_Energy>
46.0591

> <b_lp_Chiralities_Consistent>
1

> <s_lp_Variant>
AV-unprocessed.smi:1709-4

> <Gold.Version>
5.8.1

> <Gold.Id.Protein>
6NUR|6NUR_protein|mol2

> <Gold.PLP.Fitness>
39.5095

> <Gold.PLP.PLP>
-31.0468

> <Gold.PLP.part.hbond>
-2.0000

> <Gold.PLP.part.metal>
0.0000

> <Gold.PLP.part.buried>
-3.2285

> <Gold.PLP.part.nonpolar>
-26.4585

> <Gold.PLP.part.repulsive>
0.1598

> <Gold.PLP.ligand.clash>
0.0000

> <Gold.PLP.ligand.torsion>
0.1729

> <Gold.PLP.Chemscore.Hbond>
1.9360

> <Gold.PLP.Chemscore.CHOScore>
1.0000

> <Gold.PLP.Chemscore.Metal>
0.0000

> <Gold.Chemscore.Hbonds>
donor molecule, donor type, donor heavy atom, donor atom, acceptor molecule, acceptor atom, score
      L1  H     8    27       P1  7948  0.98
      L1  H    11    28       P1  7948  0.93
      L1  C     5    26       P1  8028  1.00

> <Gold.PLP.Chemscore.Internal.Correction>
0.0005

> <Gold.Rescore>
     Score         DG    S(hbond)    S(metal)    S(lipo)     H(rot)  DE(clash)    DE(int)     intcor
     17.46     -18.59       1.92        0.00      79.08       1.00       0.03       1.10       ----

> <Gold.Chemscore.Fitness>
17.4590

> <Gold.Chemscore.DG>
-18.5937

> <Gold.Chemscore.ZeroCoef>
-5.4800

> <Gold.Chemscore.Hbond>
1.9225

> <Gold.Chemscore.Metal>
0.0000

> <Gold.Chemscore.Lipo>
79.0831

> <Gold.Chemscore.Internal_Hbond>
0.0000

> <Gold.Chemscore.DEClash>
0.0303

> <Gold.Chemscore.DEInternal>
1.1045

> <Gold.Chemscore.Rot>
1.0000

> <Gold.Chemscore.Internal.Correction>
   9.000000E+99

> <Gold.Chemscore.Hbonds>
donor molecule, donor type, donor heavy atom, donor atom, acceptor molecule, acceptor atom, score
      L1  H     8    27       P1  7948  0.93
      L1  H    11    28       P1  7948  0.90

> <Gold.Chemscore.Hbond.Weighted>
-6.4210

> <Gold.Chemscore.Metal.Weighted>
-0.0000

> <Gold.Chemscore.Lipo.Weighted>
-9.2527

> <Gold.Chemscore.Internal_Hbond.Weighted>
0.0000

> <Gold.Chemscore.DEClash.Weighted>
0.0303

> <Gold.Chemscore.DEInternal.Weighted>
1.1045

> <Gold.Chemscore.Rot.Weighted>
2.5600

> <Gold.Chemscore.Internal.Correction.Weighted>
   9.000000E+99

> <Gold.Protein.RotatedTorsions>
[ 6907 6896 6895 6894 ] final   96.44 input  -60.11 | X-H torsion
[ 7974 7965 7964 7962 ] final -142.52 input  175.53 | X-H torsion
[ 8008 7997 7996 7995 ] final  154.85 input   59.86 | X-H torsion
[ 10167 10162 10161 10158 ] final -142.46 input  -65.29 | X-H torsion
[ 10718 10713 10712 10709 ] final  -28.81 input   66.30 | X-H torsion
[ 10763 10752 10751 10750 ] final  -84.20 input  -60.55 | X-H torsion
[ 11005 11000 10999 10996 ] final   -4.54 input  -57.11 | X-H torsion

> <Gold.Protein.ActiveResidues>
 VAL166  LYS551  ARG553  GLY616  TRP617  ASP618  TYR619  PRO620  LYS621  CYS622 
 ASP623  PHE694  ASN695  SER759  ASP760  ASP761  ALA762  ILE779  LEU786  VAL792 
 PHE793  MET794  SER795  GLU796  ALA797  LYS798  CYS799  TRP800  GLU811  SER814 

> <Gold.Protein.RotatedAtoms>
  152.5435  134.0885  159.8266 H   0  0  0  0  0  0  0  0  0  0  0  0  # atno 6907 bound_to 6896
  151.0978  133.5259  159.2619 H   0  0  0  0  0  0  0  0  0  0  0  0  # atno 6908 bound_to 6896
  151.2026  135.0458  159.8932 H   0  0  0  0  0  0  0  0  0  0  0  0  # atno 6909 bound_to 6896
  144.8437  140.5948  143.5435 H   0  0  0  0  0  0  0  0  0  0  0  0  # atno 7974 bound_to 7965
  156.2509  140.1955  156.6711 H   0  0  0  0  0  0  0  0  0  0  0  0  # atno 8008 bound_to 7997
  154.6392  140.0586  156.9851 H   0  0  0  0  0  0  0  0  0  0  0  0  # atno 8009 bound_to 7997
  155.1589  140.3258  155.4418 H   0  0  0  0  0  0  0  0  0  0  0  0  # atno 8010 bound_to 7997
  139.8086  143.7734  152.2662 H   0  0  0  0  0  0  0  0  0  0  0  0  # atno 10167 bound_to 10162
  156.4205  130.4425  149.7187 H   0  0  0  0  0  0  0  0  0  0  0  0  # atno 10718 bound_to 10713
  154.5967  135.5529  153.7333 H   0  0  0  0  0  0  0  0  0  0  0  0  # atno 10763 bound_to 10752
  153.0138  135.6356  154.1772 H   0  0  0  0  0  0  0  0  0  0  0  0  # atno 10764 bound_to 10752
  154.1712  135.2892  155.3060 H   0  0  0  0  0  0  0  0  0  0  0  0  # atno 10765 bound_to 10752
  140.6814  133.9150  155.8558 H   0  0  0  0  0  0  0  0  0  0  0  0  # atno 11005 bound_to 11000
  145.4641  139.1510  143.3850 LP  0  0  0  0  0  0  0  0  0  0  0  0  # atno 17320 bound_to 7965
  146.2725  140.4772  142.8808 LP  0  0  0  0  0  0  0  0  0  0  0  0  # atno 17321 bound_to 7965
  139.7876  144.7422  151.0000 LP  0  0  0  0  0  0  0  0  0  0  0  0  # atno 17342 bound_to 10162
  140.7818  143.4476  151.0460 LP  0  0  0  0  0  0  0  0  0  0  0  0  # atno 17343 bound_to 10162
  156.4130  130.7731  151.2745 LP  0  0  0  0  0  0  0  0  0  0  0  0  # atno 17370 bound_to 10713
  157.7508  131.0205  150.3713 LP  0  0  0  0  0  0  0  0  0  0  0  0  # atno 17371 bound_to 10713
  141.0314  134.0750  157.4009 LP  0  0  0  0  0  0  0  0  0  0  0  0  # atno 17394 bound_to 11000
  139.8950  135.0139  156.6982 LP  0  0  0  0  0  0  0  0  0  0  0  0  # atno 17395 bound_to 11000

$$$$
