AV-unprocessed.smi:2651|AV-procd|sdf|10292|dock3
  -GOLD-   2272014303D 1   1.00000     0.00000
 Structure written by MMmdl.
 43 44  0  0  0  0  0  0  0  0  1 V2000
  149.9148  142.2399  155.5974 C   0  0  0  0  0  0  0  0  0  0  0  0
  149.7427  140.8764  155.0214 C   0  0  0  0  0  0  0  0  0  0  0  0
  148.6536  140.1929  154.5588 C   0  0  0  0  0  0  0  0  0  0  0  0
  149.2041  138.9452  154.1623 C   0  0  0  0  0  0  0  0  0  0  0  0
  148.3798  137.9268  153.6205 N   0  0  0  0  0  0  0  0  0  0  0  0
  147.1041  137.6485  153.9368 C   0  0  0  0  0  0  0  0  0  0  0  0
  146.4404  138.2469  154.7833 O   0  0  0  0  0  0  0  0  0  0  0  0
  146.6413  136.6267  153.1972 N   0  0  0  0  0  0  0  0  0  0  0  0
  145.3046  136.0127  153.1967 C   0  0  1  0  0  0  0  0  0  0  0  0
  145.0608  135.2826  154.5422 C   0  0  0  0  0  0  0  0  0  0  0  0
  144.2283  137.1268  153.0375 C   0  0  0  0  0  0  0  0  0  0  0  0
  144.4465  137.9241  151.8907 O   0  0  0  0  0  0  0  0  0  0  0  0
  145.2629  134.9922  152.0033 C   0  0  0  0  0  0  0  0  0  0  0  0
  143.9738  134.1260  151.9733 C   0  0  0  0  0  0  0  0  0  0  0  0
  143.9403  133.1691  150.7706 C   0  0  0  0  0  0  0  0  0  0  0  0
  145.1754  132.2606  150.7471 C   0  0  0  0  0  0  0  0  0  0  0  0
  146.4605  133.0971  150.7487 C   0  0  0  0  0  0  0  0  0  0  0  0
  146.5015  134.0560  151.9491 C   0  0  0  0  0  0  0  0  0  0  0  0
  150.5117  138.8755  154.3590 N   0  0  0  0  0  0  0  0  0  0  0  0
  150.8635  140.1128  154.9108 O   0  0  0  0  0  0  0  0  0  0  0  0
  148.9499  142.6829  155.8447 H   0  0  0  0  0  0  0  0  0  0  0  0
  150.4178  142.8976  154.8886 H   0  0  0  0  0  0  0  0  0  0  0  0
  150.5121  142.2029  156.5088 H   0  0  0  0  0  0  0  0  0  0  0  0
  147.6294  140.5319  154.5162 H   0  0  0  0  0  0  0  0  0  0  0  0
  148.8025  137.3585  152.9018 H   0  0  0  0  0  0  0  0  0  0  0  0
  147.2916  136.2219  152.5396 H   0  0  0  0  0  0  0  0  0  0  0  0
  144.1688  134.6572  154.4960 H   0  0  0  0  0  0  0  0  0  0  0  0
  144.9120  135.9830  155.3642 H   0  0  0  0  0  0  0  0  0  0  0  0
  145.8987  134.6452  154.8236 H   0  0  0  0  0  0  0  0  0  0  0  0
  143.2291  136.6996  152.9511 H   0  0  0  0  0  0  0  0  0  0  0  0
  144.1986  137.7773  153.9116 H   0  0  0  0  0  0  0  0  0  0  0  0
  143.9666  138.7320  151.9915 H   0  0  0  0  0  0  0  0  0  0  0  0
  145.2623  135.5698  151.0778 H   0  0  0  0  0  0  0  0  0  0  0  0
  143.8856  133.5442  152.8911 H   0  0  0  0  0  0  0  0  0  0  0  0
  143.0865  134.7552  151.9223 H   0  0  0  0  0  0  0  0  0  0  0  0
  143.0349  132.5624  150.8045 H   0  0  0  0  0  0  0  0  0  0  0  0
  143.8911  133.7452  149.8457 H   0  0  0  0  0  0  0  0  0  0  0  0
  145.1639  131.6013  151.6161 H   0  0  0  0  0  0  0  0  0  0  0  0
  145.1493  131.6169  149.8673 H   0  0  0  0  0  0  0  0  0  0  0  0
  147.3300  132.4397  150.7700 H   0  0  0  0  0  0  0  0  0  0  0  0
  146.5279  133.6680  149.8218 H   0  0  0  0  0  0  0  0  0  0  0  0
  147.4211  134.6353  151.8806 H   0  0  0  0  0  0  0  0  0  0  0  0
  146.5738  133.4720  152.8671 H   0  0  0  0  0  0  0  0  0  0  0  0
  1  2  1  0  0  0  0
  1 21  1  0  0  0  0
  1 22  1  0  0  0  0
  1 23  1  0  0  0  0
  2 20  1  0  0  0  0
  2  3  2  0  0  0  0
  3  4  1  0  0  0  0
  3 24  1  0  0  0  0
  4  5  1  0  0  0  0
  4 19  2  0  0  0  0
  5  6  1  0  0  0  0
  5 25  1  0  0  0  0
  6  7  2  0  0  0  0
  6  8  1  0  0  0  0
  8  9  1  0  0  0  0
  8 26  1  0  0  0  0
  9 10  1  0  0  0  0
  9 11  1  0  0  0  0
  9 13  1  0  0  0  0
 10 27  1  0  0  0  0
 10 28  1  0  0  0  0
 10 29  1  0  0  0  0
 11 12  1  0  0  0  0
 11 30  1  0  0  0  0
 11 31  1  0  0  0  0
 12 32  1  0  0  0  0
 13 18  1  0  0  0  0
 13 14  1  0  0  0  0
 13 33  1  0  0  0  0
 14 15  1  0  0  0  0
 14 34  1  0  0  0  0
 14 35  1  0  0  0  0
 15 16  1  0  0  0  0
 15 36  1  0  0  0  0
 15 37  1  0  0  0  0
 16 17  1  0  0  0  0
 16 38  1  0  0  0  0
 16 39  1  0  0  0  0
 17 18  1  0  0  0  0
 17 40  1  0  0  0  0
 17 41  1  0  0  0  0
 18 42  1  0  0  0  0
 18 43  1  0  0  0  0
 19 20  1  0  0  0  0
M  END
> <s_m_source_file>
AV-unprocessed.smi

> <i_m_source_file_index>
2651

> <i_lp_mmshare_version>
43012

> <i_f3d_flags>
0

> <s_epik_input>
W0NIM11jMVtjSF1jKG5vMSlbTkhdQyg9TylbTkhdW0NAQF0oW0NIM10pKFtDSDJdW09IXSlbQ0hdMltDSDJdW0NIMl1bQ0gyXVtDSDJdW0NIMl0y

> <s_epik_cmdline>
J2VwaWtfcHl0aG9uJywgJy1waCcsICc3LjAnLCAnLXRuJywgJzgnLCAnLW1hJywgJzIwMCcsICctbWV0YWxfYmluZGluZycsICctaW1hZScsICc8aW5maWxlLm1hZT4nLCAnLW9tYWUnLCAnPG91dGZpbGUubWFlPic=

> <r_lp_tautomer_probability>
1

> <r_epik_Ionization_Penalty>
2.26451e-05

> <r_epik_Ionization_Penalty_Charging>
0

> <r_epik_Ionization_Penalty_Neutral>
2.26451e-05

> <r_epik_State_Penalty>
-0

> <r_epik_Charging_Adjusted_Penalty>
0

> <i_epik_Tot_Q>
0

> <i_epik_Tot_abs_Q>
0

> <r_epik_Metal_State_Penalty>
-0

> <b_epik_Metal_Only>
0

> <s_lp_Force_Field>
OPLS_2005

> <r_lp_Energy>
17.1045

> <b_lp_Chiralities_Consistent>
1

> <s_lp_Variant>
AV-unprocessed.smi:2651-1

> <Gold.Version>
5.8.1

> <Gold.Id.Protein>
6NUR|6NUR_protein|mol2

> <Gold.PLP.Fitness>
39.4346

> <Gold.PLP.PLP>
-28.5137

> <Gold.PLP.part.hbond>
-4.2766

> <Gold.PLP.part.metal>
0.0000

> <Gold.PLP.part.buried>
-2.3313

> <Gold.PLP.part.nonpolar>
-22.3479

> <Gold.PLP.part.repulsive>
0.3229

> <Gold.PLP.ligand.clash>
0.0000

> <Gold.PLP.ligand.torsion>
0.4925

> <Gold.PLP.Chemscore.Hbond>
3.9513

> <Gold.PLP.Chemscore.CHOScore>
0.0000

> <Gold.PLP.Chemscore.Metal>
0.0000

> <Gold.Chemscore.Hbonds>
donor molecule, donor type, donor heavy atom, donor atom, acceptor molecule, acceptor atom, score
      L1  H     5    25       P1  7948  0.98
      L1  H     8    26       P1  7948  0.96
      L1  H    12    32       P1 10175  1.00
      P1  H  7989  7998       L1    20  1.00

> <Gold.PLP.Chemscore.Internal.Correction>
0.0522

> <Gold.Rescore>
     Score         DG    S(hbond)    S(metal)    S(lipo)     H(rot)  DE(clash)    DE(int)     intcor
     16.05     -17.49       2.94        0.00      64.65       2.09       0.03       1.41       ----

> <Gold.Chemscore.Fitness>
16.0545

> <Gold.Chemscore.DG>
-17.4893

> <Gold.Chemscore.ZeroCoef>
-5.4800

> <Gold.Chemscore.Hbond>
2.9357

> <Gold.Chemscore.Metal>
0.0000

> <Gold.Chemscore.Lipo>
64.6455

> <Gold.Chemscore.Internal_Hbond>
0.0000

> <Gold.Chemscore.DEClash>
0.0251

> <Gold.Chemscore.DEInternal>
1.4097

> <Gold.Chemscore.Rot>
2.0935

> <Gold.Chemscore.Internal.Correction>
   9.000000E+99

> <Gold.Chemscore.Hbonds>
donor molecule, donor type, donor heavy atom, donor atom, acceptor molecule, acceptor atom, score
      L1  H     5    25       P1  7948  0.92
      L1  H     8    26       P1  7948  0.92
      L1  H    12    32       P1 10175  0.99
      P1  H  7989  7998       L1    20  0.07

> <Gold.Chemscore.Hbond.Weighted>
-9.8051

> <Gold.Chemscore.Metal.Weighted>
-0.0000

> <Gold.Chemscore.Lipo.Weighted>
-7.5635

> <Gold.Chemscore.Internal_Hbond.Weighted>
0.0000

> <Gold.Chemscore.DEClash.Weighted>
0.0251

> <Gold.Chemscore.DEInternal.Weighted>
1.4097

> <Gold.Chemscore.Rot.Weighted>
5.3594

> <Gold.Chemscore.Internal.Correction.Weighted>
   9.000000E+99

> <Gold.Protein.RotatedTorsions>
[ 6907 6896 6895 6894 ] final  142.45 input  -60.11 | X-H torsion
[ 7974 7965 7964 7962 ] final  116.60 input  175.53 | X-H torsion
[ 8008 7997 7996 7995 ] final   22.61 input   59.86 | X-H torsion
[ 10167 10162 10161 10158 ] final  156.11 input  -65.29 | X-H torsion
[ 10718 10713 10712 10709 ] final   96.30 input   66.30 | X-H torsion
[ 10763 10752 10751 10750 ] final  -73.28 input  -60.55 | X-H torsion
[ 11005 11000 10999 10996 ] final -115.24 input  -57.11 | X-H torsion

> <Gold.Protein.ActiveResidues>
 VAL166  LYS551  ARG553  GLY616  TRP617  ASP618  TYR619  PRO620  LYS621  CYS622 
 ASP623  PHE694  ASN695  SER759  ASP760  ASP761  ALA762  ILE779  LEU786  VAL792 
 PHE793  MET794  SER795  GLU796  ALA797  LYS798  CYS799  TRP800  GLU811  SER814 

> <Gold.Protein.RotatedAtoms>
  152.2185  133.4965  159.5149 H   0  0  0  0  0  0  0  0  0  0  0  0  # atno 6907 bound_to 6896
  150.7007  134.1373  159.4101 H   0  0  0  0  0  0  0  0  0  0  0  0  # atno 6908 bound_to 6896
  151.9294  135.0263  160.0579 H   0  0  0  0  0  0  0  0  0  0  0  0  # atno 6909 bound_to 6896
  145.1776  139.3067  143.4435 H   0  0  0  0  0  0  0  0  0  0  0  0  # atno 7974 bound_to 7965
  154.9683  140.3087  155.4999 H   0  0  0  0  0  0  0  0  0  0  0  0  # atno 8008 bound_to 7997
  156.2969  140.2288  156.4712 H   0  0  0  0  0  0  0  0  0  0  0  0  # atno 8009 bound_to 7997
  154.7901  140.0440  157.1182 H   0  0  0  0  0  0  0  0  0  0  0  0  # atno 8010 bound_to 7997
  139.4821  144.5038  151.8128 H   0  0  0  0  0  0  0  0  0  0  0  0  # atno 10167 bound_to 10162
  157.6928  131.0573  150.4470 H   0  0  0  0  0  0  0  0  0  0  0  0  # atno 10718 bound_to 10713
  154.4573  135.5902  153.6231 H   0  0  0  0  0  0  0  0  0  0  0  0  # atno 10763 bound_to 10752
  152.9819  135.6035  154.3530 H   0  0  0  0  0  0  0  0  0  0  0  0  # atno 10764 bound_to 10752
  154.3398  135.2842  155.2407 H   0  0  0  0  0  0  0  0  0  0  0  0  # atno 10765 bound_to 10752
  141.0500  133.9702  157.2852 H   0  0  0  0  0  0  0  0  0  0  0  0  # atno 11005 bound_to 11000
  146.3458  140.1944  142.8589 LP  0  0  0  0  0  0  0  0  0  0  0  0  # atno 17320 bound_to 7965
  145.0169  140.8761  143.5190 LP  0  0  0  0  0  0  0  0  0  0  0  0  # atno 17321 bound_to 7965
  140.4534  144.1823  150.5899 LP  0  0  0  0  0  0  0  0  0  0  0  0  # atno 17342 bound_to 10162
  140.4561  143.2467  151.9283 LP  0  0  0  0  0  0  0  0  0  0  0  0  # atno 17343 bound_to 10162
  156.4824  130.4077  149.6454 LP  0  0  0  0  0  0  0  0  0  0  0  0  # atno 17370 bound_to 10713
  156.3494  130.7424  151.2381 LP  0  0  0  0  0  0  0  0  0  0  0  0  # atno 17371 bound_to 10713
  139.9343  135.0198  156.8503 LP  0  0  0  0  0  0  0  0  0  0  0  0  # atno 17394 bound_to 11000
  140.6073  134.0115  155.7562 LP  0  0  0  0  0  0  0  0  0  0  0  0  # atno 17395 bound_to 11000

$$$$
