AV-unprocessed.smi:1641|AV-procd|sdf|6561|dock3
  -GOLD-   22720 7243D 1   1.00000     0.00000
 Structure written by MMmdl.
 42 43  0  0  0  0  0  0  0  0  2 V2000
  143.7154  132.7419  148.6307 C   0  0  0  0  0  0  0  0  0  0  0  0
  144.7077  133.3944  149.5313 C   0  0  0  0  0  0  0  0  0  0  0  0
  145.8055  132.7702  149.9752 N   0  0  0  0  0  0  0  0  0  0  0  0
  146.5709  133.5781  150.8043 N   0  0  0  0  0  0  0  0  0  0  0  0
  146.0253  134.7921  150.9613 C   0  0  0  0  0  0  0  0  0  0  0  0
  146.5951  135.8142  151.7656 N   0  0  0  0  0  0  0  0  0  0  0  0
  145.9638  136.7980  152.4301 C   0  0  0  0  0  0  0  0  0  0  0  0
  144.7442  136.9634  152.4711 O   0  0  0  0  0  0  0  0  0  0  0  0
  146.8350  137.6022  153.0563 N   0  0  0  0  0  0  0  0  0  0  0  0
  146.4640  138.7632  153.8568 C   0  0  0  0  0  0  0  0  0  0  0  0
  147.3929  139.9619  153.5814 C   0  0  0  0  0  0  0  0  0  0  0  0
  148.5917  139.9601  154.4553 N   0  3  1  0  0  0  0  0  0  0  0  0
  149.6612  139.0720  153.9449 C   0  0  0  0  0  0  0  0  0  0  0  0
  150.8362  139.0188  154.9374 C   0  0  1  0  0  0  0  0  0  0  0  0
  152.0014  138.1794  154.4024 C   0  0  0  0  0  0  0  0  0  0  0  0
  151.3189  140.3390  155.1728 O   0  0  0  0  0  0  0  0  0  0  0  0
  150.3443  141.2559  155.6701 C   0  0  2  0  0  0  0  0  0  0  0  0
  149.9610  140.9647  157.1321 C   0  0  0  0  0  0  0  0  0  0  0  0
  149.1341  141.3162  154.7177 C   0  0  0  0  0  0  0  0  0  0  0  0
  144.5204  135.0503  150.0955 S   0  0  0  0  0  0  0  0  0  0  0  0
  144.0137  131.7173  148.4060 H   0  0  0  0  0  0  0  0  0  0  0  0
  143.6397  133.2969  147.6957 H   0  0  0  0  0  0  0  0  0  0  0  0
  142.7359  132.7232  149.1088 H   0  0  0  0  0  0  0  0  0  0  0  0
  147.6023  135.8023  151.8293 H   0  0  0  0  0  0  0  0  0  0  0  0
  147.8203  137.3945  152.9779 H   0  0  0  0  0  0  0  0  0  0  0  0
  145.4204  139.0099  153.6599 H   0  0  0  0  0  0  0  0  0  0  0  0
  146.5230  138.4825  154.9087 H   0  0  0  0  0  0  0  0  0  0  0  0
  147.7101  139.9096  152.5387 H   0  0  0  0  0  0  0  0  0  0  0  0
  146.8630  140.9091  153.6943 H   0  0  0  0  0  0  0  0  0  0  0  0
  149.2657  138.0665  153.7949 H   0  0  0  0  0  0  0  0  0  0  0  0
  150.0001  139.4317  152.9717 H   0  0  0  0  0  0  0  0  0  0  0  0
  150.5032  138.5749  155.8757 H   0  0  0  0  0  0  0  0  0  0  0  0
  151.6922  137.1506  154.2158 H   0  0  0  0  0  0  0  0  0  0  0  0
  152.8240  138.1544  155.1176 H   0  0  0  0  0  0  0  0  0  0  0  0
  152.3862  138.5879  153.4674 H   0  0  0  0  0  0  0  0  0  0  0  0
  150.8219  142.2361  155.6603 H   0  0  0  0  0  0  0  0  0  0  0  0
  149.3223  141.7544  157.5282 H   0  0  0  0  0  0  0  0  0  0  0  0
  150.8484  140.9129  157.7635 H   0  0  0  0  0  0  0  0  0  0  0  0
  149.4180  140.0262  157.2402 H   0  0  0  0  0  0  0  0  0  0  0  0
  149.4376  141.7662  153.7709 H   0  0  0  0  0  0  0  0  0  0  0  0
  148.3704  141.9674  155.1414 H   0  0  0  0  0  0  0  0  0  0  0  0
  148.3028  139.5766  155.3439 H   0  0  0  0  0  0  0  0  0  0  0  0
  1  2  1  0  0  0  0
  1 21  1  0  0  0  0
  1 22  1  0  0  0  0
  1 23  1  0  0  0  0
  2 20  1  0  0  0  0
  2  3  2  0  0  0  0
  3  4  1  0  0  0  0
  4  5  2  0  0  0  0
  5  6  1  0  0  0  0
  5 20  1  0  0  0  0
  6  7  1  0  0  0  0
  6 24  1  0  0  0  0
  7  8  2  0  0  0  0
  7  9  1  0  0  0  0
  9 10  1  0  0  0  0
  9 25  1  0  0  0  0
 10 11  1  0  0  0  0
 10 26  1  0  0  0  0
 10 27  1  0  0  0  0
 11 12  1  0  0  0  0
 11 28  1  0  0  0  0
 11 29  1  0  0  0  0
 12 19  1  0  0  0  0
 12 13  1  0  0  0  0
 12 42  1  0  0  0  0
 13 14  1  0  0  0  0
 13 30  1  0  0  0  0
 13 31  1  0  0  0  0
 14 15  1  0  0  0  0
 14 16  1  0  0  0  0
 14 32  1  0  0  0  0
 15 33  1  0  0  0  0
 15 34  1  0  0  0  0
 15 35  1  0  0  0  0
 16 17  1  0  0  0  0
 17 18  1  0  0  0  0
 17 19  1  0  0  0  0
 17 36  1  0  0  0  0
 18 37  1  0  0  0  0
 18 38  1  0  0  0  0
 18 39  1  0  0  0  0
 19 40  1  0  0  0  0
 19 41  1  0  0  0  0
M  CHG  1  12   1
M  END
> <s_m_source_file>
AV-unprocessed.smi

> <i_m_source_file_index>
1641

> <i_lp_mmshare_version>
43012

> <i_f3d_flags>
0

> <s_epik_input>
W0NIM11jMW5uYyhzMSlbTkhdQyg9TylbTkhdW0NIMl1bQ0gyXU4yW0NIMl1bQ0BASF0oW0NIM10pT1tDQEBIXShbQ0gzXSlbQ0gyXTI=

> <s_epik_cmdline>
J2VwaWtfcHl0aG9uJywgJy1waCcsICc3LjAnLCAnLXRuJywgJzgnLCAnLW1hJywgJzIwMCcsICctbWV0YWxfYmluZGluZycsICctaW1hZScsICc8aW5maWxlLm1hZT4nLCAnLW9tYWUnLCAnPG91dGZpbGUubWFlPic=

> <r_lp_tautomer_probability>
1

> <r_epik_Ionization_Penalty>
0.700114

> <r_epik_Ionization_Penalty_Charging>
0.695697

> <r_epik_Ionization_Penalty_Neutral>
0.00441638

> <r_epik_State_Penalty>
0.717972

> <r_epik_Charging_Adjusted_Penalty>
1.41367

> <i_epik_Tot_Q>
1

> <i_epik_Tot_abs_Q>
1

> <r_epik_Metal_State_Penalty>
1.06958

> <b_epik_Metal_Only>
0

> <s_lp_Force_Field>
OPLS_2005

> <r_lp_Energy>
15.7554

> <b_lp_Chiralities_Consistent>
1

> <s_lp_Variant>
AV-unprocessed.smi:1641-6

> <Gold.Version>
5.8.1

> <Gold.Id.Protein>
6NUR|6NUR_protein|mol2

> <Gold.PLP.Fitness>
41.4991

> <Gold.PLP.PLP>
-34.7303

> <Gold.PLP.part.hbond>
-2.8669

> <Gold.PLP.part.metal>
0.0000

> <Gold.PLP.part.buried>
-1.4722

> <Gold.PLP.part.nonpolar>
-30.0748

> <Gold.PLP.part.repulsive>
0.7316

> <Gold.PLP.ligand.clash>
0.0000

> <Gold.PLP.ligand.torsion>
0.7554

> <Gold.PLP.Chemscore.Hbond>
2.7520

> <Gold.PLP.Chemscore.CHOScore>
0.0000

> <Gold.PLP.Chemscore.Metal>
0.0000

> <Gold.Chemscore.Hbonds>
donor molecule, donor type, donor heavy atom, donor atom, acceptor molecule, acceptor atom, score
      L1  H     6    24       P1  7948  0.63
      L1  H     9    25       P1  7948  0.74
      P1  H  7989  7998       L1    16  1.00

> <Gold.PLP.Chemscore.Internal.Correction>
0.0237

> <Gold.Rescore>
     Score         DG    S(hbond)    S(metal)    S(lipo)     H(rot)  DE(clash)    DE(int)     intcor
     16.84     -17.94       2.11        0.00      81.94       1.64       0.25       0.85       ----

> <Gold.Chemscore.Fitness>
16.8442

> <Gold.Chemscore.DG>
-17.9426

> <Gold.Chemscore.ZeroCoef>
-5.4800

> <Gold.Chemscore.Hbond>
2.1148

> <Gold.Chemscore.Metal>
0.0000

> <Gold.Chemscore.Lipo>
81.9409

> <Gold.Chemscore.Internal_Hbond>
0.0000

> <Gold.Chemscore.DEClash>
0.2463

> <Gold.Chemscore.DEInternal>
0.8521

> <Gold.Chemscore.Rot>
1.6358

> <Gold.Chemscore.Internal.Correction>
   9.000000E+99

> <Gold.Chemscore.Hbonds>
donor molecule, donor type, donor heavy atom, donor atom, acceptor molecule, acceptor atom, score
      L1  H     6    24       P1  7948  0.62
      L1  H     9    25       P1  7948  0.73
      P1  H  7989  7998       L1    16  0.14

> <Gold.Chemscore.Hbond.Weighted>
-7.0633

> <Gold.Chemscore.Metal.Weighted>
-0.0000

> <Gold.Chemscore.Lipo.Weighted>
-9.5871

> <Gold.Chemscore.Internal_Hbond.Weighted>
0.0000

> <Gold.Chemscore.DEClash.Weighted>
0.2463

> <Gold.Chemscore.DEInternal.Weighted>
0.8521

> <Gold.Chemscore.Rot.Weighted>
4.1878

> <Gold.Chemscore.Internal.Correction.Weighted>
   9.000000E+99

> <Gold.Protein.RotatedTorsions>
[ 6907 6896 6895 6894 ] final  137.87 input  -60.11 | X-H torsion
[ 7974 7965 7964 7962 ] final    7.66 input  175.53 | X-H torsion
[ 8008 7997 7996 7995 ] final  174.48 input   59.86 | X-H torsion
[ 10167 10162 10161 10158 ] final   -2.25 input  -65.29 | X-H torsion
[ 10718 10713 10712 10709 ] final   85.08 input   66.30 | X-H torsion
[ 10763 10752 10751 10750 ] final   84.34 input  -60.55 | X-H torsion
[ 11005 11000 10999 10996 ] final   50.38 input  -57.11 | X-H torsion

> <Gold.Protein.ActiveResidues>
 VAL166  LYS551  ARG553  GLY616  TRP617  ASP618  TYR619  PRO620  LYS621  CYS622 
 ASP623  PHE694  ASN695  SER759  ASP760  ASP761  ALA762  ILE779  LEU786  VAL792 
 PHE793  MET794  SER795  GLU796  ALA797  LYS798  CYS799  TRP800  GLU811  SER814 

> <Gold.Protein.RotatedAtoms>
  152.2731  133.5400  159.5450 H   0  0  0  0  0  0  0  0  0  0  0  0  # atno 6907 bound_to 6896
  150.7167  134.0670  159.3860 H   0  0  0  0  0  0  0  0  0  0  0  0  # atno 6908 bound_to 6896
  151.8584  135.0533  160.0517 H   0  0  0  0  0  0  0  0  0  0  0  0  # atno 6909 bound_to 6896
  146.2424  140.0050  142.8412 H   0  0  0  0  0  0  0  0  0  0  0  0  # atno 7974 bound_to 7965
  156.0969  140.1433  156.9519 H   0  0  0  0  0  0  0  0  0  0  0  0  # atno 8008 bound_to 7997
  154.4677  140.0920  156.7110 H   0  0  0  0  0  0  0  0  0  0  0  0  # atno 8009 bound_to 7997
  155.4825  140.3445  155.4344 H   0  0  0  0  0  0  0  0  0  0  0  0  # atno 8010 bound_to 7997
  140.6843  143.6679  150.8210 H   0  0  0  0  0  0  0  0  0  0  0  0  # atno 10167 bound_to 10162
  157.6909  131.0160  150.2769 H   0  0  0  0  0  0  0  0  0  0  0  0  # atno 10718 bound_to 10713
  153.1373  135.4658  154.9441 H   0  0  0  0  0  0  0  0  0  0  0  0  # atno 10763 bound_to 10752
  154.7716  135.3161  154.8179 H   0  0  0  0  0  0  0  0  0  0  0  0  # atno 10764 bound_to 10752
  153.8709  135.6903  153.4828 H   0  0  0  0  0  0  0  0  0  0  0  0  # atno 10765 bound_to 10752
  140.1022  134.5065  155.8752 H   0  0  0  0  0  0  0  0  0  0  0  0  # atno 11005 bound_to 11000
  145.1380  140.9555  143.4505 LP  0  0  0  0  0  0  0  0  0  0  0  0  # atno 17320 bound_to 7965
  145.0323  139.3330  143.6018 LP  0  0  0  0  0  0  0  0  0  0  0  0  # atno 17321 bound_to 7965
  140.0384  143.5371  152.2729 LP  0  0  0  0  0  0  0  0  0  0  0  0  # atno 17342 bound_to 10162
  139.6189  144.7625  151.2783 LP  0  0  0  0  0  0  0  0  0  0  0  0  # atno 17343 bound_to 10162
  156.3322  130.3802  149.7481 LP  0  0  0  0  0  0  0  0  0  0  0  0  # atno 17370 bound_to 10713
  156.5017  130.8131  151.3135 LP  0  0  0  0  0  0  0  0  0  0  0  0  # atno 17371 bound_to 10713
  141.2109  133.6700  156.6541 LP  0  0  0  0  0  0  0  0  0  0  0  0  # atno 17394 bound_to 11000
  140.3204  134.8012  157.4248 LP  0  0  0  0  0  0  0  0  0  0  0  0  # atno 17395 bound_to 11000

$$$$
