AV-unprocessed.smi:1725|AV-procd|sdf|6955|dock3
  -GOLD-   22720 8163D 1   1.00000     0.00000
 Structure written by MMmdl.
 35 36  0  0  0  0  0  0  0  0  2 V2000
  152.5195  138.5962  154.3978 C   0  0  0  0  0  0  0  0  0  0  0  0
  151.2413  138.9530  155.1721 C   0  0  2  0  0  0  0  0  0  0  0  0
  150.6137  140.0375  154.4921 O   0  0  0  0  0  0  0  0  0  0  0  0
  149.3292  140.4036  154.9821 C   0  0  0  0  0  0  0  0  0  0  0  0
  148.5690  141.1086  153.8800 C   0  0  0  0  0  0  0  0  0  0  0  0
  147.4013  142.0122  154.2054 C   0  0  0  0  0  0  0  0  0  0  0  0
  147.1595  140.6838  153.5347 C   0  0  0  0  0  0  0  0  0  0  0  0
  151.5477  139.3386  156.6294 C   0  0  0  0  0  0  0  0  0  0  0  0
  151.5410  138.4708  157.5028 O   0  0  0  0  0  0  0  0  0  0  0  0
  151.8443  140.6375  156.8300 N   0  0  0  0  0  0  0  0  0  0  0  0
  152.1789  141.2986  158.0229 C   0  0  0  0  0  0  0  0  0  0  0  0
  151.7176  142.5286  158.3815 C   0  0  0  0  0  0  0  0  0  0  0  0
  152.1100  143.1749  159.6274 C   0  0  0  0  0  0  0  0  0  0  0  0
  151.5428  144.4992  160.1070 C   0  0  0  0  0  0  0  0  0  0  0  0
  151.9915  144.7980  161.3265 F   0  0  0  0  0  0  0  0  0  0  0  0
  151.9101  145.4765  159.2792 F   0  0  0  0  0  0  0  0  0  0  0  0
  150.2109  144.4643  160.1453 F   0  0  0  0  0  0  0  0  0  0  0  0
  152.9754  142.3969  160.3718 C   0  0  0  0  0  0  0  0  0  0  0  0
  153.5010  141.1876  160.0763 N   0  5  0  0  0  0  0  0  0  0  0  0
  153.1273  140.5922  158.9084 C   0  0  0  0  0  0  0  0  0  0  0  0
  153.5609  139.4872  158.5799 O   0  0  0  0  0  0  0  0  0  0  0  0
  153.0616  137.7827  154.8811 H   0  0  0  0  0  0  0  0  0  0  0  0
  153.1937  139.4499  154.3190 H   0  0  0  0  0  0  0  0  0  0  0  0
  152.2790  138.2744  153.3845 H   0  0  0  0  0  0  0  0  0  0  0  0
  150.5812  138.0836  155.1525 H   0  0  0  0  0  0  0  0  0  0  0  0
  148.7717  139.5151  155.2810 H   0  0  0  0  0  0  0  0  0  0  0  0
  149.4011  141.0613  155.8491 H   0  0  0  0  0  0  0  0  0  0  0  0
  149.1908  141.4073  153.0382 H   0  0  0  0  0  0  0  0  0  0  0  0
  147.1106  142.1081  155.2499 H   0  0  0  0  0  0  0  0  0  0  0  0
  147.2797  142.9103  153.6031 H   0  0  0  0  0  0  0  0  0  0  0  0
  146.8740  140.6955  152.4847 H   0  0  0  0  0  0  0  0  0  0  0  0
  146.7054  139.8961  154.1330 H   0  0  0  0  0  0  0  0  0  0  0  0
  151.8942  141.2173  156.0047 H   0  0  0  0  0  0  0  0  0  0  0  0
  151.0554  143.0788  157.7329 H   0  0  0  0  0  0  0  0  0  0  0  0
  153.2906  142.8073  161.3551 H   0  0  0  0  0  0  0  0  0  0  0  0
  1  2  1  0  0  0  0
  1 22  1  0  0  0  0
  1 23  1  0  0  0  0
  1 24  1  0  0  0  0
  2  3  1  0  0  0  0
  2  8  1  0  0  0  0
  2 25  1  0  0  0  0
  3  4  1  0  0  0  0
  4  5  1  0  0  0  0
  4 26  1  0  0  0  0
  4 27  1  0  0  0  0
  5  7  1  0  0  0  0
  5  6  1  0  0  0  0
  5 28  1  0  0  0  0
  6  7  1  0  0  0  0
  6 29  1  0  0  0  0
  6 30  1  0  0  0  0
  7 31  1  0  0  0  0
  7 32  1  0  0  0  0
  8  9  2  0  0  0  0
  8 10  1  0  0  0  0
 10 11  1  0  0  0  0
 10 33  1  0  0  0  0
 11 20  1  0  0  0  0
 11 12  2  0  0  0  0
 12 13  1  0  0  0  0
 12 34  1  0  0  0  0
 13 14  1  0  0  0  0
 13 18  2  0  0  0  0
 14 15  1  0  0  0  0
 14 16  1  0  0  0  0
 14 17  1  0  0  0  0
 18 19  1  0  0  0  0
 18 35  1  0  0  0  0
 19 20  1  0  0  0  0
 20 21  2  0  0  0  0
M  CHG  1  19  -1
M  END
> <s_m_source_file>
AV-unprocessed.smi

> <i_m_source_file_index>
1725

> <i_lp_mmshare_version>
43012

> <i_f3d_flags>
0

> <s_epik_input>
W0NIMl0xW0NIMl1bQ0hdMVtDSDJdT1tDQEBIXShbQ0gzXSlDKD1PKVtOSF1jMltjSF1jKEMoRikoRilGKVtjSF1bbkhdYzI9Tw==

> <s_epik_cmdline>
J2VwaWtfcHl0aG9uJywgJy1waCcsICc3LjAnLCAnLXRuJywgJzgnLCAnLW1hJywgJzIwMCcsICctbWV0YWxfYmluZGluZycsICctaW1hZScsICc8aW5maWxlLm1hZT4nLCAnLW9tYWUnLCAnPG91dGZpbGUubWFlPic=

> <r_lp_tautomer_probability>
0.999

> <r_epik_Ionization_Penalty>
2.64397

> <r_epik_Ionization_Penalty_Charging>
0.0618254

> <r_epik_Ionization_Penalty_Neutral>
2.58215

> <r_epik_State_Penalty>
2.58023

> <r_epik_Charging_Adjusted_Penalty>
2.64205

> <i_epik_Tot_Q>
-1

> <i_epik_Tot_abs_Q>
1

> <r_epik_Metal_State_Penalty>
0.429101

> <b_epik_Metal_Only>
1

> <s_lp_Force_Field>
OPLS_2005

> <r_lp_Energy>
29.6692

> <b_lp_Chiralities_Consistent>
1

> <s_lp_Variant>
AV-unprocessed.smi:1725-3

> <Gold.Version>
5.8.1

> <Gold.Id.Protein>
6NUR|6NUR_protein|mol2

> <Gold.PLP.Fitness>
49.1479

> <Gold.PLP.PLP>
-45.9270

> <Gold.PLP.part.hbond>
-2.0000

> <Gold.PLP.part.metal>
0.0000

> <Gold.PLP.part.buried>
-2.7153

> <Gold.PLP.part.nonpolar>
-40.5224

> <Gold.PLP.part.repulsive>
0.2334

> <Gold.PLP.ligand.clash>
0.0000

> <Gold.PLP.ligand.torsion>
1.7256

> <Gold.PLP.Chemscore.Hbond>
2.0000

> <Gold.PLP.Chemscore.CHOScore>
0.0000

> <Gold.PLP.Chemscore.Metal>
0.0000

> <Gold.Chemscore.Hbonds>
donor molecule, donor type, donor heavy atom, donor atom, acceptor molecule, acceptor atom, score
      P1  H  7989  7998       L1     3  1.00
      P1  H  7997  8010       L1    21  1.00

> <Gold.PLP.Chemscore.Internal.Correction>
0.6721

> <Gold.Rescore>
     Score         DG    S(hbond)    S(metal)    S(lipo)     H(rot)  DE(clash)    DE(int)     intcor
     12.11     -18.04       1.83        0.00      93.69       1.76       1.47       4.46       ----

> <Gold.Chemscore.Fitness>
12.1090

> <Gold.Chemscore.DG>
-18.0381

> <Gold.Chemscore.ZeroCoef>
-5.4800

> <Gold.Chemscore.Hbond>
1.8271

> <Gold.Chemscore.Metal>
0.0000

> <Gold.Chemscore.Lipo>
93.6943

> <Gold.Chemscore.Internal_Hbond>
0.0000

> <Gold.Chemscore.DEClash>
1.4698

> <Gold.Chemscore.DEInternal>
4.4593

> <Gold.Chemscore.Rot>
1.7604

> <Gold.Chemscore.Internal.Correction>
   9.000000E+99

> <Gold.Chemscore.Hbonds>
donor molecule, donor type, donor heavy atom, donor atom, acceptor molecule, acceptor atom, score
      P1  H  7989  7998       L1     3  0.88
      P1  H  7997  8010       L1    21  0.27

> <Gold.Chemscore.Hbond.Weighted>
-6.1025

> <Gold.Chemscore.Metal.Weighted>
-0.0000

> <Gold.Chemscore.Lipo.Weighted>
-10.9622

> <Gold.Chemscore.Internal_Hbond.Weighted>
0.0000

> <Gold.Chemscore.DEClash.Weighted>
1.4698

> <Gold.Chemscore.DEInternal.Weighted>
4.4593

> <Gold.Chemscore.Rot.Weighted>
4.5065

> <Gold.Chemscore.Internal.Correction.Weighted>
   9.000000E+99

> <Gold.Protein.RotatedTorsions>
[ 6907 6896 6895 6894 ] final   25.77 input  -60.11 | X-H torsion
[ 7974 7965 7964 7962 ] final  -14.74 input  175.53 | X-H torsion
[ 8008 7997 7996 7995 ] final    5.50 input   59.86 | X-H torsion
[ 10167 10162 10161 10158 ] final  -83.98 input  -65.29 | X-H torsion
[ 10718 10713 10712 10709 ] final  -96.96 input   66.30 | X-H torsion
[ 10763 10752 10751 10750 ] final  -27.80 input  -60.55 | X-H torsion
[ 11005 11000 10999 10996 ] final    0.36 input  -57.11 | X-H torsion

> <Gold.Protein.ActiveResidues>
 VAL166  LYS551  ARG553  GLY616  TRP617  ASP618  TYR619  PRO620  LYS621  CYS622 
 ASP623  PHE694  ASN695  SER759  ASP760  ASP761  ALA762  ILE779  LEU786  VAL792 
 PHE793  MET794  SER795  GLU796  ALA797  LYS798  CYS799  TRP800  GLU811  SER814 

> <Gold.Protein.RotatedAtoms>
  151.9775  135.0045  160.0555 H   0  0  0  0  0  0  0  0  0  0  0  0  # atno 6907 bound_to 6896
  152.1727  133.4649  159.4925 H   0  0  0  0  0  0  0  0  0  0  0  0  # atno 6908 bound_to 6896
  150.6904  134.1851  159.4306 H   0  0  0  0  0  0  0  0  0  0  0  0  # atno 6909 bound_to 6896
  146.2062  140.3392  142.8406 H   0  0  0  0  0  0  0  0  0  0  0  0  # atno 7974 bound_to 7965
  154.7292  140.2727  155.6471 H   0  0  0  0  0  0  0  0  0  0  0  0  # atno 8008 bound_to 7997
  156.2845  140.2719  156.1912 H   0  0  0  0  0  0  0  0  0  0  0  0  # atno 8009 bound_to 7997
  155.0404  140.0371  157.2497 H   0  0  0  0  0  0  0  0  0  0  0  0  # atno 8010 bound_to 7997
  140.4175  143.2597  151.8934 H   0  0  0  0  0  0  0  0  0  0  0  0  # atno 10167 bound_to 10162
  156.0073  130.5174  150.6304 H   0  0  0  0  0  0  0  0  0  0  0  0  # atno 10718 bound_to 10713
  153.7379  135.6934  153.4974 H   0  0  0  0  0  0  0  0  0  0  0  0  # atno 10763 bound_to 10752
  153.2089  135.4410  155.0355 H   0  0  0  0  0  0  0  0  0  0  0  0  # atno 10764 bound_to 10752
  154.8230  135.3432  154.6906 H   0  0  0  0  0  0  0  0  0  0  0  0  # atno 10765 bound_to 10752
  140.6274  133.9606  155.8256 H   0  0  0  0  0  0  0  0  0  0  0  0  # atno 11005 bound_to 11000
  144.8797  140.7384  143.5994 LP  0  0  0  0  0  0  0  0  0  0  0  0  # atno 17320 bound_to 7965
  145.3312  139.1759  143.4536 LP  0  0  0  0  0  0  0  0  0  0  0  0  # atno 17321 bound_to 7965
  139.4782  144.5472  151.8440 LP  0  0  0  0  0  0  0  0  0  0  0  0  # atno 17342 bound_to 10162
  140.4570  144.1775  150.5902 LP  0  0  0  0  0  0  0  0  0  0  0  0  # atno 17343 bound_to 10162
  157.4103  131.0822  151.1227 LP  0  0  0  0  0  0  0  0  0  0  0  0  # atno 17370 bound_to 10713
  157.1861  130.6331  149.5688 LP  0  0  0  0  0  0  0  0  0  0  0  0  # atno 17371 bound_to 10713
  141.0700  134.0220  157.3540 LP  0  0  0  0  0  0  0  0  0  0  0  0  # atno 17394 bound_to 11000
  139.9129  135.0193  156.7766 LP  0  0  0  0  0  0  0  0  0  0  0  0  # atno 17395 bound_to 11000

$$$$
