AV-unprocessed.smi:707|AV-procd|sdf|3455|dock6
  -GOLD-   22720 0443D 1   1.00000     0.00000
 Structure written by MMmdl.
 44 45  0  0  0  0  0  0  0  0  1 V2000
  149.2996  137.0756  157.8577 C   0  0  0  0  0  0  0  0  0  0  0  0
  150.1954  137.0204  156.6630 C   0  0  0  0  0  0  0  0  0  0  0  0
  151.4772  136.6390  156.7113 N   0  0  0  0  0  0  0  0  0  0  0  0
  151.9393  136.7256  155.4127 N   0  0  0  0  0  0  0  0  0  0  0  0
  150.8896  137.1512  154.7109 C   0  0  0  0  0  0  0  0  0  0  0  0
  149.7735  137.3560  155.4269 N   0  0  0  0  0  0  0  0  0  0  0  0
  148.4751  137.8121  154.9669 C   0  0  0  0  0  0  0  0  0  0  0  0
  148.0297  139.0828  155.7030 C   0  0  0  0  0  0  0  0  0  0  0  0
  149.1851  139.8243  156.1870 N   0  0  0  0  0  0  0  0  0  0  0  0
  150.2214  140.1985  155.4226 C   0  0  0  0  0  0  0  0  0  0  0  0
  150.2970  139.9535  154.2189 O   0  0  0  0  0  0  0  0  0  0  0  0
  151.3346  140.9825  156.1150 C   0  0  0  0  0  0  0  0  0  0  0  0
  150.8878  141.3791  157.4050 O   0  0  0  0  0  0  0  0  0  0  0  0
  151.8824  142.0066  158.2042 C   0  0  2  0  0  0  0  0  0  0  0  0
  152.1262  141.2153  159.5055 C   0  0  0  0  0  0  0  0  0  0  0  0
  153.1022  141.9564  160.4323 C   0  0  0  0  0  0  0  0  0  0  0  0
  152.6129  143.3810  160.7371 C   0  0  0  0  0  0  0  0  0  0  0  0
  152.3678  144.1821  159.4440 C   0  0  2  0  0  0  0  0  0  0  0  0
  151.8732  145.6033  159.7493 C   0  0  0  0  0  0  0  0  0  0  0  0
  151.3876  143.4284  158.5238 C   0  0  0  0  0  0  0  0  0  0  0  0
  149.8205  136.7078  158.7422 H   0  0  0  0  0  0  0  0  0  0  0  0
  148.4158  136.4583  157.6971 H   0  0  0  0  0  0  0  0  0  0  0  0
  148.9845  138.1024  158.0438 H   0  0  0  0  0  0  0  0  0  0  0  0
  150.9358  137.3173  153.6445 H   0  0  0  0  0  0  0  0  0  0  0  0
  148.5239  137.9865  153.8913 H   0  0  0  0  0  0  0  0  0  0  0  0
  147.7526  137.0096  155.1233 H   0  0  0  0  0  0  0  0  0  0  0  0
  147.4485  139.7212  155.0357 H   0  0  0  0  0  0  0  0  0  0  0  0
  147.3842  138.8226  156.5434 H   0  0  0  0  0  0  0  0  0  0  0  0
  149.2047  140.0650  157.1676 H   0  0  0  0  0  0  0  0  0  0  0  0
  152.2272  140.3600  156.1811 H   0  0  0  0  0  0  0  0  0  0  0  0
  151.5810  141.8564  155.5102 H   0  0  0  0  0  0  0  0  0  0  0  0
  152.8138  142.0879  157.6406 H   0  0  0  0  0  0  0  0  0  0  0  0
  151.1786  141.0602  160.0231 H   0  0  0  0  0  0  0  0  0  0  0  0
  152.5245  140.2248  159.2875 H   0  0  0  0  0  0  0  0  0  0  0  0
  153.2262  141.4001  161.3619 H   0  0  0  0  0  0  0  0  0  0  0  0
  154.0865  142.0004  159.9647 H   0  0  0  0  0  0  0  0  0  0  0  0
  151.6929  143.3314  161.3211 H   0  0  0  0  0  0  0  0  0  0  0  0
  153.3467  143.8931  161.3605 H   0  0  0  0  0  0  0  0  0  0  0  0
  153.3198  144.2725  158.9186 H   0  0  0  0  0  0  0  0  0  0  0  0
  150.9174  145.5867  160.2741 H   0  0  0  0  0  0  0  0  0  0  0  0
  151.7398  146.1776  158.8321 H   0  0  0  0  0  0  0  0  0  0  0  0
  152.5866  146.1419  160.3738 H   0  0  0  0  0  0  0  0  0  0  0  0
  151.2502  143.9831  157.5949 H   0  0  0  0  0  0  0  0  0  0  0  0
  150.4065  143.3753  158.9986 H   0  0  0  0  0  0  0  0  0  0  0  0
  1  2  1  0  0  0  0
  1 21  1  0  0  0  0
  1 22  1  0  0  0  0
  1 23  1  0  0  0  0
  2  6  1  0  0  0  0
  2  3  2  0  0  0  0
  3  4  1  0  0  0  0
  4  5  2  0  0  0  0
  5  6  1  0  0  0  0
  5 24  1  0  0  0  0
  6  7  1  0  0  0  0
  7  8  1  0  0  0  0
  7 25  1  0  0  0  0
  7 26  1  0  0  0  0
  8  9  1  0  0  0  0
  8 27  1  0  0  0  0
  8 28  1  0  0  0  0
  9 10  1  0  0  0  0
  9 29  1  0  0  0  0
 10 11  2  0  0  0  0
 10 12  1  0  0  0  0
 12 13  1  0  0  0  0
 12 30  1  0  0  0  0
 12 31  1  0  0  0  0
 13 14  1  0  0  0  0
 14 20  1  0  0  0  0
 14 15  1  0  0  0  0
 14 32  1  0  0  0  0
 15 16  1  0  0  0  0
 15 33  1  0  0  0  0
 15 34  1  0  0  0  0
 16 17  1  0  0  0  0
 16 35  1  0  0  0  0
 16 36  1  0  0  0  0
 17 18  1  0  0  0  0
 17 37  1  0  0  0  0
 17 38  1  0  0  0  0
 18 19  1  0  0  0  0
 18 20  1  0  0  0  0
 18 39  1  0  0  0  0
 19 40  1  0  0  0  0
 19 41  1  0  0  0  0
 19 42  1  0  0  0  0
 20 43  1  0  0  0  0
 20 44  1  0  0  0  0
M  END
> <s_m_source_file>
AV-unprocessed.smi

> <i_m_source_file_index>
707

> <i_lp_mmshare_version>
43012

> <i_f3d_flags>
0

> <s_epik_input>
W0NIM11jMW5uW2NIXW4xW0NIMl1bQ0gyXVtOSF1DKD1PKVtDSDJdT1tDQEBIXTJbQ0gyXVtDSDJdW0NIMl1bQ0BASF0oW0NIM10pW0NIMl0y

> <s_epik_cmdline>
J2VwaWtfcHl0aG9uJywgJy1waCcsICc3LjAnLCAnLXRuJywgJzgnLCAnLW1hJywgJzIwMCcsICctbWV0YWxfYmluZGluZycsICctaW1hZScsICc8aW5maWxlLm1hZT4nLCAnLW9tYWUnLCAnPG91dGZpbGUubWFlPic=

> <r_lp_tautomer_probability>
1

> <r_epik_Ionization_Penalty>
0.000271783

> <r_epik_Ionization_Penalty_Charging>
0

> <r_epik_Ionization_Penalty_Neutral>
0.000271783

> <r_epik_State_Penalty>
-0

> <r_epik_Charging_Adjusted_Penalty>
0

> <i_epik_Tot_Q>
0

> <i_epik_Tot_abs_Q>
0

> <r_epik_Metal_State_Penalty>
-0

> <b_epik_Metal_Only>
0

> <s_lp_Force_Field>
OPLS_2005

> <r_lp_Energy>
13.3138

> <b_lp_Chiralities_Consistent>
1

> <s_lp_Variant>
AV-unprocessed.smi:707-3

> <Gold.Version>
5.8.1

> <Gold.Id.Protein>
6NUR|6NUR_protein|mol2

> <Gold.PLP.Fitness>
43.0084

> <Gold.PLP.PLP>
-35.9476

> <Gold.PLP.part.hbond>
-2.0000

> <Gold.PLP.part.metal>
0.0000

> <Gold.PLP.part.buried>
-6.4227

> <Gold.PLP.part.nonpolar>
-28.6263

> <Gold.PLP.part.repulsive>
0.3654

> <Gold.PLP.ligand.clash>
0.0000

> <Gold.PLP.ligand.torsion>
1.1479

> <Gold.PLP.Chemscore.Hbond>
2.0000

> <Gold.PLP.Chemscore.CHOScore>
1.0877

> <Gold.PLP.Chemscore.Metal>
0.0000

> <Gold.Chemscore.Hbonds>
donor molecule, donor type, donor heavy atom, donor atom, acceptor molecule, acceptor atom, score
      P1  H  7989  7998       L1    11  1.00
      P1  H 10752 10763       L1     4  1.00
      L1  C     5    24       P1  7948  0.08
      L1  C     5    24       P1  7949  0.97

> <Gold.PLP.Chemscore.Internal.Correction>
0.0937

> <Gold.Rescore>
     Score         DG    S(hbond)    S(metal)    S(lipo)     H(rot)  DE(clash)    DE(int)     intcor
     14.49     -15.74       1.88        0.00      87.07       2.42       0.00       1.25       ----

> <Gold.Chemscore.Fitness>
14.4876

> <Gold.Chemscore.DG>
-15.7378

> <Gold.Chemscore.ZeroCoef>
-5.4800

> <Gold.Chemscore.Hbond>
1.8751

> <Gold.Chemscore.Metal>
0.0000

> <Gold.Chemscore.Lipo>
87.0747

> <Gold.Chemscore.Internal_Hbond>
0.0000

> <Gold.Chemscore.DEClash>
0.0000

> <Gold.Chemscore.DEInternal>
1.2502

> <Gold.Chemscore.Rot>
2.4191

> <Gold.Chemscore.Internal.Correction>
   9.000000E+99

> <Gold.Chemscore.Hbonds>
donor molecule, donor type, donor heavy atom, donor atom, acceptor molecule, acceptor atom, score
      P1  H  7989  7998       L1    11  0.77
      P1  H 10752 10763       L1     4  0.91

> <Gold.Chemscore.Hbond.Weighted>
-6.2629

> <Gold.Chemscore.Metal.Weighted>
-0.0000

> <Gold.Chemscore.Lipo.Weighted>
-10.1877

> <Gold.Chemscore.Internal_Hbond.Weighted>
0.0000

> <Gold.Chemscore.DEClash.Weighted>
0.0000

> <Gold.Chemscore.DEInternal.Weighted>
1.2502

> <Gold.Chemscore.Rot.Weighted>
6.1929

> <Gold.Chemscore.Internal.Correction.Weighted>
   9.000000E+99

> <Gold.Protein.RotatedTorsions>
[ 6907 6896 6895 6894 ] final  166.26 input  -60.11 | X-H torsion
[ 7974 7965 7964 7962 ] final   90.95 input  175.53 | X-H torsion
[ 8008 7997 7996 7995 ] final   -3.62 input   59.86 | X-H torsion
[ 10167 10162 10161 10158 ] final   10.66 input  -65.29 | X-H torsion
[ 10718 10713 10712 10709 ] final   38.26 input   66.30 | X-H torsion
[ 10763 10752 10751 10750 ] final   79.33 input  -60.55 | X-H torsion
[ 11005 11000 10999 10996 ] final -144.26 input  -57.11 | X-H torsion

> <Gold.Protein.ActiveResidues>
 VAL166  LYS551  ARG553  GLY616  TRP617  ASP618  TYR619  PRO620  LYS621  CYS622 
 ASP623  PHE694  ASN695  SER759  ASP760  ASP761  ALA762  ILE779  LEU786  VAL792 
 PHE793  MET794  SER795  GLU796  ALA797  LYS798  CYS799  TRP800  GLU811  SER814 

> <Gold.Protein.RotatedAtoms>
  151.8816  133.3496  159.3767 H   0  0  0  0  0  0  0  0  0  0  0  0  # atno 6907 bound_to 6896
  150.7126  134.5013  159.5572 H   0  0  0  0  0  0  0  0  0  0  0  0  # atno 6908 bound_to 6896
  152.2566  134.8078  160.0488 H   0  0  0  0  0  0  0  0  0  0  0  0  # atno 6909 bound_to 6896
  145.5122  139.2277  143.2718 H   0  0  0  0  0  0  0  0  0  0  0  0  # atno 7974 bound_to 7965
  154.6230  140.2504  155.7526 H   0  0  0  0  0  0  0  0  0  0  0  0  # atno 8008 bound_to 7997
  156.2437  140.2923  156.0466 H   0  0  0  0  0  0  0  0  0  0  0  0  # atno 8009 bound_to 7997
  155.1867  140.0390  157.2883 H   0  0  0  0  0  0  0  0  0  0  0  0  # atno 8010 bound_to 7997
  140.6180  143.8266  150.7141 H   0  0  0  0  0  0  0  0  0  0  0  0  # atno 10167 bound_to 10162
  157.3568  130.7628  149.7018 H   0  0  0  0  0  0  0  0  0  0  0  0  # atno 10718 bound_to 10713
  153.0944  135.4843  154.8751 H   0  0  0  0  0  0  0  0  0  0  0  0  # atno 10763 bound_to 10752
  154.7308  135.3059  154.8897 H   0  0  0  0  0  0  0  0  0  0  0  0  # atno 10764 bound_to 10752
  153.9534  135.6820  153.4797 H   0  0  0  0  0  0  0  0  0  0  0  0  # atno 10765 bound_to 10752
  140.8042  134.2821  157.4966 H   0  0  0  0  0  0  0  0  0  0  0  0  # atno 11005 bound_to 11000
  146.2159  140.5929  142.9038 LP  0  0  0  0  0  0  0  0  0  0  0  0  # atno 17320 bound_to 7965
  144.7721  140.5660  143.6663 LP  0  0  0  0  0  0  0  0  0  0  0  0  # atno 17321 bound_to 7965
  140.1849  143.4084  152.1905 LP  0  0  0  0  0  0  0  0  0  0  0  0  # atno 17342 bound_to 10162
  139.5415  144.7260  151.4720 LP  0  0  0  0  0  0  0  0  0  0  0  0  # atno 17343 bound_to 10162
  155.9730  130.4125  150.4035 LP  0  0  0  0  0  0  0  0  0  0  0  0  # atno 17370 bound_to 10713
  157.2106  131.0459  151.2601 LP  0  0  0  0  0  0  0  0  0  0  0  0  # atno 17371 bound_to 10713
  139.8719  134.9447  156.3888 LP  0  0  0  0  0  0  0  0  0  0  0  0  # atno 17394 bound_to 11000
  140.9263  133.7610  155.9969 LP  0  0  0  0  0  0  0  0  0  0  0  0  # atno 17395 bound_to 11000

$$$$
