AV-unprocessed.smi:2154|AV-procd|sdf|8777|dock7
  -GOLD-   2272011553D 1   1.00000     0.00000
 Structure written by MMmdl.
 31 32  0  0  0  0  0  0  0  0  2 V2000
  151.7603  143.9007  161.4636 C   0  0  0  0  0  0  0  0  0  0  0  0
  152.2525  144.1792  160.0596 C   0  0  1  0  0  0  0  0  0  0  0  0
  153.2091  143.2279  159.3771 C   0  0  0  0  0  0  0  0  0  0  0  0
  151.7824  143.3380  158.8940 C   0  0  2  0  0  0  0  0  0  0  0  0
  151.4579  143.9791  157.5613 C   0  0  0  0  0  0  0  0  0  0  0  0
  150.7991  143.0788  156.6251 N   0  0  0  0  0  0  0  0  0  0  0  0
  151.0188  141.7583  156.5116 C   0  0  0  0  0  0  0  0  0  0  0  0
  151.8163  141.1493  157.2244 O   0  0  0  0  0  0  0  0  0  0  0  0
  150.2264  140.9793  155.4467 C   0  0  0  0  0  0  0  0  0  0  0  0
  150.5295  139.5379  155.3734 N   0  0  0  0  0  0  0  0  0  0  0  0
  149.4537  138.6412  155.4988 C   0  0  0  0  0  0  0  0  0  0  0  0
  149.6293  137.3074  155.4400 C   0  0  0  0  0  0  0  0  0  0  0  0
  150.9799  136.7973  155.2403 C   0  0  0  0  0  0  0  0  0  0  0  0
  151.1592  135.5823  155.1854 O   0  0  0  0  0  0  0  0  0  0  0  0
  151.9906  137.7072  155.1212 N   0  5  0  0  0  0  0  0  0  0  0  0
  151.7972  139.0611  155.1824 C   0  0  0  0  0  0  0  0  0  0  0  0
  152.7221  139.8649  155.0643 O   0  0  0  0  0  0  0  0  0  0  0  0
  151.5962  142.8330  161.6128 H   0  0  0  0  0  0  0  0  0  0  0  0
  150.8208  144.4245  161.6406 H   0  0  0  0  0  0  0  0  0  0  0  0
  152.4939  144.2448  162.1928 H   0  0  0  0  0  0  0  0  0  0  0  0
  152.4140  145.2365  159.8576 H   0  0  0  0  0  0  0  0  0  0  0  0
  153.9903  143.6612  158.7555 H   0  0  0  0  0  0  0  0  0  0  0  0
  153.4876  142.3189  159.9065 H   0  0  0  0  0  0  0  0  0  0  0  0
  151.1289  142.5037  159.1440 H   0  0  0  0  0  0  0  0  0  0  0  0
  150.8393  144.8559  157.7577 H   0  0  0  0  0  0  0  0  0  0  0  0
  152.3766  144.3435  157.1004 H   0  0  0  0  0  0  0  0  0  0  0  0
  150.1286  143.4935  155.9933 H   0  0  0  0  0  0  0  0  0  0  0  0
  149.1615  141.1321  155.6296 H   0  0  0  0  0  0  0  0  0  0  0  0
  150.4141  141.4476  154.4795 H   0  0  0  0  0  0  0  0  0  0  0  0
  148.4862  139.1008  155.6388 H   0  0  0  0  0  0  0  0  0  0  0  0
  148.7917  136.6324  155.5361 H   0  0  0  0  0  0  0  0  0  0  0  0
  1  2  1  0  0  0  0
  1 18  1  0  0  0  0
  1 19  1  0  0  0  0
  1 20  1  0  0  0  0
  2  4  1  0  0  0  0
  2  3  1  0  0  0  0
  2 21  1  0  0  0  0
  3  4  1  0  0  0  0
  3 22  1  0  0  0  0
  3 23  1  0  0  0  0
  4  5  1  0  0  0  0
  4 24  1  0  0  0  0
  5  6  1  0  0  0  0
  5 25  1  0  0  0  0
  5 26  1  0  0  0  0
  6  7  1  0  0  0  0
  6 27  1  0  0  0  0
  7  8  2  0  0  0  0
  7  9  1  0  0  0  0
  9 10  1  0  0  0  0
  9 28  1  0  0  0  0
  9 29  1  0  0  0  0
 10 16  1  0  0  0  0
 10 11  1  0  0  0  0
 11 12  2  0  0  0  0
 11 30  1  0  0  0  0
 12 13  1  0  0  0  0
 12 31  1  0  0  0  0
 13 14  2  0  0  0  0
 13 15  1  0  0  0  0
 15 16  1  0  0  0  0
 16 17  2  0  0  0  0
M  CHG  1  15  -1
M  END
> <s_m_source_file>
AV-unprocessed.smi

> <i_m_source_file_index>
2154

> <i_lp_mmshare_version>
43012

> <i_f3d_flags>
0

> <s_epik_input>
W0NIM11bQ0BASF0xW0NIMl1bQ0BIXTFbQ0gyXVtOSF1DKD1PKVtDSDJdbjJbY0hdW2NIXWMoPU8pW25IXWMyPU8=

> <s_epik_cmdline>
J2VwaWtfcHl0aG9uJywgJy1waCcsICc3LjAnLCAnLXRuJywgJzgnLCAnLW1hJywgJzIwMCcsICctbWV0YWxfYmluZGluZycsICctaW1hZScsICc8aW5maWxlLm1hZT4nLCAnLW9tYWUnLCAnPG91dGZpbGUubWFlPic=

> <r_lp_tautomer_probability>
0.999537

> <r_epik_Ionization_Penalty>
3.12283

> <r_epik_Ionization_Penalty_Charging>
2.83566e-08

> <r_epik_Ionization_Penalty_Neutral>
3.12283

> <r_epik_State_Penalty>
3.12192

> <r_epik_Charging_Adjusted_Penalty>
3.12192

> <i_epik_Tot_Q>
-1

> <i_epik_Tot_abs_Q>
1

> <r_epik_Metal_State_Penalty>
0.463748

> <b_epik_Metal_Only>
1

> <s_lp_Force_Field>
OPLS_2005

> <r_lp_Energy>
24.2191

> <b_lp_Chiralities_Consistent>
1

> <s_lp_Variant>
AV-unprocessed.smi:2154-8

> <Gold.Version>
5.8.1

> <Gold.Id.Protein>
6NUR|6NUR_protein|mol2

> <Gold.PLP.Fitness>
45.2216

> <Gold.PLP.PLP>
-35.8690

> <Gold.PLP.part.hbond>
-4.3810

> <Gold.PLP.part.metal>
0.0000

> <Gold.PLP.part.buried>
-3.6471

> <Gold.PLP.part.nonpolar>
-28.6168

> <Gold.PLP.part.repulsive>
0.2777

> <Gold.PLP.ligand.clash>
0.0000

> <Gold.PLP.ligand.torsion>
0.6021

> <Gold.PLP.Chemscore.Hbond>
3.3396

> <Gold.PLP.Chemscore.CHOScore>
0.0000

> <Gold.PLP.Chemscore.Metal>
0.0000

> <Gold.Chemscore.Hbonds>
donor molecule, donor type, donor heavy atom, donor atom, acceptor molecule, acceptor atom, score
      L1  H     6    27       P1  8028  0.99
      P1  H  7989  7998       L1    17  0.22
      P1  H  7997  8008       L1    17  1.00
      P1  H 10752 10764       L1    14  1.00

> <Gold.PLP.Chemscore.Internal.Correction>
0.5381

> <Gold.Rescore>
     Score         DG    S(hbond)    S(metal)    S(lipo)     H(rot)  DE(clash)    DE(int)     intcor
     11.30     -17.74       2.62        0.00      72.78       1.96       0.40       6.04       ----

> <Gold.Chemscore.Fitness>
11.2961

> <Gold.Chemscore.DG>
-17.7398

> <Gold.Chemscore.ZeroCoef>
-5.4800

> <Gold.Chemscore.Hbond>
2.6241

> <Gold.Chemscore.Metal>
0.0000

> <Gold.Chemscore.Lipo>
72.7805

> <Gold.Chemscore.Internal_Hbond>
0.0000

> <Gold.Chemscore.DEClash>
0.4012

> <Gold.Chemscore.DEInternal>
6.0425

> <Gold.Chemscore.Rot>
1.9609

> <Gold.Chemscore.Internal.Correction>
   9.000000E+99

> <Gold.Chemscore.Hbonds>
donor molecule, donor type, donor heavy atom, donor atom, acceptor molecule, acceptor atom, score
      L1  H     6    27       P1  8028  0.94
      P1  H  7989  7998       L1    17  0.01
      P1  H  7997  8008       L1    17  0.99
      P1  H 10752 10764       L1    14  0.29

> <Gold.Chemscore.Hbond.Weighted>
-8.7644

> <Gold.Chemscore.Metal.Weighted>
-0.0000

> <Gold.Chemscore.Lipo.Weighted>
-8.5153

> <Gold.Chemscore.Internal_Hbond.Weighted>
0.0000

> <Gold.Chemscore.DEClash.Weighted>
0.4012

> <Gold.Chemscore.DEInternal.Weighted>
6.0425

> <Gold.Chemscore.Rot.Weighted>
5.0200

> <Gold.Chemscore.Internal.Correction.Weighted>
   9.000000E+99

> <Gold.Protein.RotatedTorsions>
[ 6907 6896 6895 6894 ] final  -27.14 input  -60.11 | X-H torsion
[ 7974 7965 7964 7962 ] final   85.62 input  175.53 | X-H torsion
[ 8008 7997 7996 7995 ] final  -14.84 input   59.86 | X-H torsion
[ 10167 10162 10161 10158 ] final  135.65 input  -65.29 | X-H torsion
[ 10718 10713 10712 10709 ] final   21.12 input   66.30 | X-H torsion
[ 10763 10752 10751 10750 ] final  -43.03 input  -60.55 | X-H torsion
[ 11005 11000 10999 10996 ] final -169.66 input  -57.11 | X-H torsion

> <Gold.Protein.ActiveResidues>
 VAL166  LYS551  ARG553  GLY616  TRP617  ASP618  TYR619  PRO620  LYS621  CYS622 
 ASP623  PHE694  ASN695  SER759  ASP760  ASP761  ALA762  ILE779  LEU786  VAL792 
 PHE793  MET794  SER795  GLU796  ALA797  LYS798  CYS799  TRP800  GLU811  SER814 

> <Gold.Protein.RotatedAtoms>
  151.1511  135.0227  159.8668 H   0  0  0  0  0  0  0  0  0  0  0  0  # atno 6907 bound_to 6896
  152.5452  134.1387  159.8480 H   0  0  0  0  0  0  0  0  0  0  0  0  # atno 6908 bound_to 6896
  151.1473  133.4885  159.2628 H   0  0  0  0  0  0  0  0  0  0  0  0  # atno 6909 bound_to 6896
  145.5831  139.2328  143.2341 H   0  0  0  0  0  0  0  0  0  0  0  0  # atno 7974 bound_to 7965
  154.5178  140.2212  155.9034 H   0  0  0  0  0  0  0  0  0  0  0  0  # atno 8008 bound_to 7997
  156.1627  140.3139  155.8800 H   0  0  0  0  0  0  0  0  0  0  0  0  # atno 8009 bound_to 7997
  155.3719  140.0467  157.3036 H   0  0  0  0  0  0  0  0  0  0  0  0  # atno 8010 bound_to 7997
  139.5209  144.6506  151.5313 H   0  0  0  0  0  0  0  0  0  0  0  0  # atno 10167 bound_to 10162
  157.1340  130.6603  149.5960 H   0  0  0  0  0  0  0  0  0  0  0  0  # atno 10718 bound_to 10713
  153.9888  135.6708  153.4753 H   0  0  0  0  0  0  0  0  0  0  0  0  # atno 10763 bound_to 10752
  153.0714  135.4972  154.8309 H   0  0  0  0  0  0  0  0  0  0  0  0  # atno 10764 bound_to 10752
  154.7121  135.3099  154.9143 H   0  0  0  0  0  0  0  0  0  0  0  0  # atno 10765 bound_to 10752
  140.5282  134.5642  157.5067 H   0  0  0  0  0  0  0  0  0  0  0  0  # atno 11005 bound_to 11000
  146.1701  140.6658  142.9237 LP  0  0  0  0  0  0  0  0  0  0  0  0  # atno 17320 bound_to 7965
  144.7385  140.4875  143.6886 LP  0  0  0  0  0  0  0  0  0  0  0  0  # atno 17321 bound_to 7965
  140.6309  143.9078  150.6605 LP  0  0  0  0  0  0  0  0  0  0  0  0  # atno 17342 bound_to 10162
  140.2381  143.3684  152.1509 LP  0  0  0  0  0  0  0  0  0  0  0  0  # atno 17343 bound_to 10162
  155.9802  130.4801  150.6759 LP  0  0  0  0  0  0  0  0  0  0  0  0  # atno 17370 bound_to 10713
  157.4367  131.0856  151.0985 LP  0  0  0  0  0  0  0  0  0  0  0  0  # atno 17371 bound_to 10713
  139.9568  134.7520  156.0323 LP  0  0  0  0  0  0  0  0  0  0  0  0  # atno 17394 bound_to 11000
  141.1296  133.6590  156.3429 LP  0  0  0  0  0  0  0  0  0  0  0  0  # atno 17395 bound_to 11000

$$$$
