AV-unprocessed.smi:1701|AV-procd|sdf|6842|dock1
  -GOLD-   22720 8 23D 1   1.00000     0.00000
 Structure written by MMmdl.
 54 56  0  0  0  0  0  0  0  0  4 V2000
  152.4193  143.1596  161.4074 C   0  0  0  0  0  0  0  0  0  0  0  0
  153.1721  142.8404  160.1090 C   0  0  0  0  0  0  0  0  0  0  0  0
  152.4628  143.3235  158.9254 N   0  0  0  0  0  0  0  0  0  0  0  0
  152.4805  144.7523  158.6232 C   0  0  0  0  0  0  0  0  0  0  0  0
  151.8401  145.5867  159.7400 C   0  0  0  0  0  0  0  0  0  0  0  0
  151.7317  142.4261  158.1126 C   0  0  0  0  0  0  0  0  0  0  0  0
  151.6464  141.0348  158.3690 C   0  0  0  0  0  0  0  0  0  0  0  0
  150.9012  140.2050  157.5067 C   0  0  0  0  0  0  0  0  0  0  0  0
  150.2335  140.7647  156.3989 C   0  0  0  0  0  0  0  0  0  0  0  0
  149.5187  139.8871  155.5402 N   0  0  0  0  0  0  0  0  0  0  0  0
  148.5534  140.1727  154.6315 C   0  0  0  0  0  0  0  0  0  0  0  0
  148.1307  141.3248  154.5540 O   0  0  0  0  0  0  0  0  0  0  0  0
  148.0458  139.1779  153.8424 N   0  5  0  0  0  0  0  0  0  0  0  0
  146.8002  139.1566  153.0625 C   0  0  1  0  0  0  0  0  0  0  0  0
  147.0682  138.8955  151.5686 C   0  0  0  0  0  0  0  0  0  0  0  0
  145.8945  138.0210  151.0857 C   0  0  0  0  0  0  0  0  0  0  0  0
  145.0474  137.8039  152.2746 N   0  3  1  0  0  0  0  0  0  0  0  0
  144.2429  136.5629  152.3178 C   0  0  0  0  0  0  0  0  0  0  0  0
  143.3488  136.5812  153.5743 C   0  0  0  0  0  0  0  0  0  0  0  0
  144.1672  136.8311  154.8582 C   0  0  0  0  0  0  0  0  0  0  0  0
  145.0498  138.0879  154.7222 C   0  0  0  0  0  0  0  0  0  0  0  0
  145.9162  137.9659  153.4514 C   0  0  2  0  0  0  0  0  0  0  0  0
  150.3559  142.1558  156.1767 C   0  0  0  0  0  0  0  0  0  0  0  0
  151.0812  142.9130  157.0274 N   0  3  0  0  0  0  0  0  0  0  0  0
  152.9783  142.8049  162.2733 H   0  0  0  0  0  0  0  0  0  0  0  0
  151.4397  142.6812  161.4276 H   0  0  0  0  0  0  0  0  0  0  0  0
  152.2703  144.2331  161.5266 H   0  0  0  0  0  0  0  0  0  0  0  0
  154.1542  143.3132  160.1408 H   0  0  0  0  0  0  0  0  0  0  0  0
  153.3657  141.7699  160.0344 H   0  0  0  0  0  0  0  0  0  0  0  0
  153.4945  145.0942  158.4175 H   0  0  0  0  0  0  0  0  0  0  0  0
  151.9273  144.9169  157.6978 H   0  0  0  0  0  0  0  0  0  0  0  0
  151.8524  146.6468  159.4860 H   0  0  0  0  0  0  0  0  0  0  0  0
  152.3725  145.4665  160.6838 H   0  0  0  0  0  0  0  0  0  0  0  0
  150.8014  145.2980  159.9032 H   0  0  0  0  0  0  0  0  0  0  0  0
  152.1360  140.5844  159.2188 H   0  0  0  0  0  0  0  0  0  0  0  0
  150.8396  139.1442  157.7015 H   0  0  0  0  0  0  0  0  0  0  0  0
  149.7407  138.9075  155.6401 H   0  0  0  0  0  0  0  0  0  0  0  0
  146.2128  140.0711  153.1622 H   0  0  0  0  0  0  0  0  0  0  0  0
  147.1405  139.8290  151.0098 H   0  0  0  0  0  0  0  0  0  0  0  0
  148.0043  138.3543  151.4197 H   0  0  0  0  0  0  0  0  0  0  0  0
  145.3188  138.4996  150.2925 H   0  0  0  0  0  0  0  0  0  0  0  0
  146.2671  137.0689  150.7029 H   0  0  0  0  0  0  0  0  0  0  0  0
  143.6289  136.4927  151.4194 H   0  0  0  0  0  0  0  0  0  0  0  0
  144.9017  135.6934  152.3286 H   0  0  0  0  0  0  0  0  0  0  0  0
  142.5990  137.3663  153.4697 H   0  0  0  0  0  0  0  0  0  0  0  0
  142.8010  135.6421  153.6568 H   0  0  0  0  0  0  0  0  0  0  0  0
  143.5009  136.9316  155.7154 H   0  0  0  0  0  0  0  0  0  0  0  0
  144.7997  135.9654  155.0583 H   0  0  0  0  0  0  0  0  0  0  0  0
  144.4132  138.9743  154.6792 H   0  0  0  0  0  0  0  0  0  0  0  0
  145.6757  138.1937  155.6101 H   0  0  0  0  0  0  0  0  0  0  0  0
  146.5425  137.0739  153.5335 H   0  0  0  0  0  0  0  0  0  0  0  0
  149.9181  142.6926  155.3481 H   0  0  0  0  0  0  0  0  0  0  0  0
  144.4026  138.5804  152.3034 H   0  0  0  0  0  0  0  0  0  0  0  0
  151.1477  143.9126  156.8359 H   0  0  0  0  0  0  0  0  0  0  0  0
  1  2  1  0  0  0  0
  1 25  1  0  0  0  0
  1 26  1  0  0  0  0
  1 27  1  0  0  0  0
  2  3  1  0  0  0  0
  2 28  1  0  0  0  0
  2 29  1  0  0  0  0
  3  4  1  0  0  0  0
  3  6  1  0  0  0  0
  4  5  1  0  0  0  0
  4 30  1  0  0  0  0
  4 31  1  0  0  0  0
  5 32  1  0  0  0  0
  5 33  1  0  0  0  0
  5 34  1  0  0  0  0
  6 24  1  0  0  0  0
  6  7  2  0  0  0  0
  7  8  1  0  0  0  0
  7 35  1  0  0  0  0
  8  9  2  0  0  0  0
  8 36  1  0  0  0  0
  9 10  1  0  0  0  0
  9 23  1  0  0  0  0
 10 11  1  0  0  0  0
 10 37  1  0  0  0  0
 11 12  2  0  0  0  0
 11 13  1  0  0  0  0
 13 14  1  0  0  0  0
 14 22  1  0  0  0  0
 14 15  1  0  0  0  0
 14 38  1  0  0  0  0
 15 16  1  0  0  0  0
 15 39  1  0  0  0  0
 15 40  1  0  0  0  0
 16 17  1  0  0  0  0
 16 41  1  0  0  0  0
 16 42  1  0  0  0  0
 17 22  1  0  0  0  0
 17 18  1  0  0  0  0
 17 53  1  0  0  0  0
 18 19  1  0  0  0  0
 18 43  1  0  0  0  0
 18 44  1  0  0  0  0
 19 20  1  0  0  0  0
 19 45  1  0  0  0  0
 19 46  1  0  0  0  0
 20 21  1  0  0  0  0
 20 47  1  0  0  0  0
 20 48  1  0  0  0  0
 21 22  1  0  0  0  0
 21 49  1  0  0  0  0
 21 50  1  0  0  0  0
 22 51  1  0  0  0  0
 23 24  2  0  0  0  0
 23 52  1  0  0  0  0
 24 54  1  0  0  0  0
M  CHG  1  13  -1
M  CHG  1  17   1
M  CHG  1  24   1
M  END
> <s_m_source_file>
AV-unprocessed.smi

> <i_m_source_file_index>
1701

> <i_lp_mmshare_version>
43012

> <i_f3d_flags>
0

> <s_epik_input>
W0NIM11bQ0gyXU4oW0NIMl1bQ0gzXSljMVtjSF1bY0hdYyhbY0hdbjEpW05IXUMoPU8pW05IXVtDQEhdKFtDSDJdW0NIMl0yKVtDQEBIXShOMjMpW0NIMl1bQ0gyXVtDSDJdW0NIMl0z

> <s_epik_cmdline>
J2VwaWtfcHl0aG9uJywgJy1waCcsICc3LjAnLCAnLXRuJywgJzgnLCAnLW1hJywgJzIwMCcsICctbWV0YWxfYmluZGluZycsICctaW1hZScsICc8aW5maWxlLm1hZT4nLCAnLW9tYWUnLCAnPG91dGZpbGUubWFlPic=

> <r_lp_tautomer_probability>
0.999994

> <r_epik_Ionization_Penalty>
7.37095

> <r_epik_Ionization_Penalty_Charging>
7.37095

> <r_epik_Ionization_Penalty_Neutral>
3.78969e-06

> <r_epik_State_Penalty>
6.83842

> <r_epik_Charging_Adjusted_Penalty>
14.2094

> <i_epik_Tot_Q>
1

> <i_epik_Tot_abs_Q>
3

> <r_epik_Metal_State_Penalty>
2.78552

> <b_epik_Metal_Only>
1

> <s_lp_Force_Field>
OPLS_2005

> <r_lp_Energy>
47.735

> <b_lp_Chiralities_Consistent>
1

> <s_lp_Variant>
AV-unprocessed.smi:1701-22

> <Gold.Version>
5.8.1

> <Gold.Id.Protein>
6NUR|6NUR_protein|mol2

> <Gold.PLP.Fitness>
50.0153

> <Gold.PLP.PLP>
-44.6052

> <Gold.PLP.part.hbond>
-2.5860

> <Gold.PLP.part.metal>
0.0000

> <Gold.PLP.part.buried>
3.7626

> <Gold.PLP.part.nonpolar>
-46.2785

> <Gold.PLP.part.repulsive>
0.4022

> <Gold.PLP.ligand.clash>
0.0000

> <Gold.PLP.ligand.torsion>
0.3749

> <Gold.PLP.Chemscore.Hbond>
2.0000

> <Gold.PLP.Chemscore.CHOScore>
0.0000

> <Gold.PLP.Chemscore.Metal>
0.0000

> <Gold.Chemscore.Hbonds>
donor molecule, donor type, donor heavy atom, donor atom, acceptor molecule, acceptor atom, score
      L1  H    17    53       P1 10175  2.00

> <Gold.PLP.Chemscore.Internal.Correction>
0.1600

> <Gold.Rescore>
     Score         DG    S(hbond)    S(metal)    S(lipo)     H(rot)  DE(clash)    DE(int)     intcor
     15.00     -18.72       1.00        0.00     112.69       1.28       1.88       1.83       ----

> <Gold.Chemscore.Fitness>
14.9996

> <Gold.Chemscore.DG>
-18.7156

> <Gold.Chemscore.ZeroCoef>
-5.4800

> <Gold.Chemscore.Hbond>
0.9991

> <Gold.Chemscore.Metal>
0.0000

> <Gold.Chemscore.Lipo>
112.6943

> <Gold.Chemscore.Internal_Hbond>
0.0000

> <Gold.Chemscore.DEClash>
1.8848

> <Gold.Chemscore.DEInternal>
1.8312

> <Gold.Chemscore.Rot>
1.2838

> <Gold.Chemscore.Internal.Correction>
   9.000000E+99

> <Gold.Chemscore.Hbonds>
donor molecule, donor type, donor heavy atom, donor atom, acceptor molecule, acceptor atom, score
      L1  H    17    53       P1 10175  0.95

> <Gold.Chemscore.Hbond.Weighted>
-3.3369

> <Gold.Chemscore.Metal.Weighted>
-0.0000

> <Gold.Chemscore.Lipo.Weighted>
-13.1852

> <Gold.Chemscore.Internal_Hbond.Weighted>
0.0000

> <Gold.Chemscore.DEClash.Weighted>
1.8848

> <Gold.Chemscore.DEInternal.Weighted>
1.8312

> <Gold.Chemscore.Rot.Weighted>
3.2865

> <Gold.Chemscore.Internal.Correction.Weighted>
   9.000000E+99

> <Gold.Protein.RotatedTorsions>
[ 6907 6896 6895 6894 ] final   29.98 input  -60.11 | X-H torsion
[ 7974 7965 7964 7962 ] final  -56.13 input  175.53 | X-H torsion
[ 8008 7997 7996 7995 ] final -150.78 input   59.86 | X-H torsion
[ 10167 10162 10161 10158 ] final  128.43 input  -65.29 | X-H torsion
[ 10718 10713 10712 10709 ] final -133.57 input   66.30 | X-H torsion
[ 10763 10752 10751 10750 ] final  -20.03 input  -60.55 | X-H torsion
[ 11005 11000 10999 10996 ] final   38.82 input  -57.11 | X-H torsion

> <Gold.Protein.ActiveResidues>
 VAL166  LYS551  ARG553  GLY616  TRP617  ASP618  TYR619  PRO620  LYS621  CYS622 
 ASP623  PHE694  ASN695  SER759  ASP760  ASP761  ALA762  ILE779  LEU786  VAL792 
 PHE793  MET794  SER795  GLU796  ALA797  LYS798  CYS799  TRP800  GLU811  SER814 

> <Gold.Protein.RotatedAtoms>
  152.0394  134.9721  160.0573 H   0  0  0  0  0  0  0  0  0  0  0  0  # atno 6907 bound_to 6896
  152.1166  133.4325  159.4664 H   0  0  0  0  0  0  0  0  0  0  0  0  # atno 6908 bound_to 6896
  150.6846  134.2504  159.4552 H   0  0  0  0  0  0  0  0  0  0  0  0  # atno 6909 bound_to 6896
  145.8662  140.8249  142.9911 H   0  0  0  0  0  0  0  0  0  0  0  0  # atno 7974 bound_to 7965
  155.6290  140.0689  157.2655 H   0  0  0  0  0  0  0  0  0  0  0  0  # atno 8008 bound_to 7997
  154.4210  140.1771  156.1501 H   0  0  0  0  0  0  0  0  0  0  0  0  # atno 8009 bound_to 7997
  155.9948  140.3341  155.6791 H   0  0  0  0  0  0  0  0  0  0  0  0  # atno 8010 bound_to 7997
  139.5527  144.6826  151.4274 H   0  0  0  0  0  0  0  0  0  0  0  0  # atno 10167 bound_to 10162
  156.2463  130.7126  151.1007 H   0  0  0  0  0  0  0  0  0  0  0  0  # atno 10718 bound_to 10713
  153.6140  135.6995  153.5336 H   0  0  0  0  0  0  0  0  0  0  0  0  # atno 10763 bound_to 10752
  153.2993  135.4133  155.1237 H   0  0  0  0  0  0  0  0  0  0  0  0  # atno 10764 bound_to 10752
  154.8557  135.3645  154.5679 H   0  0  0  0  0  0  0  0  0  0  0  0  # atno 10765 bound_to 10752
  140.2088  134.3780  155.8059 H   0  0  0  0  0  0  0  0  0  0  0  0  # atno 11005 bound_to 11000
  144.6726  140.1170  143.7452 LP  0  0  0  0  0  0  0  0  0  0  0  0  # atno 17320 bound_to 7965
  145.9190  139.2534  143.1392 LP  0  0  0  0  0  0  0  0  0  0  0  0  # atno 17321 bound_to 7965
  140.6794  143.8117  150.7101 LP  0  0  0  0  0  0  0  0  0  0  0  0  # atno 17342 bound_to 10162
  140.1566  143.4312  152.2096 LP  0  0  0  0  0  0  0  0  0  0  0  0  # atno 17343 bound_to 10162
  157.7196  131.0689  150.6189 LP  0  0  0  0  0  0  0  0  0  0  0  0  # atno 17370 bound_to 10713
  156.6266  130.4420  149.5802 LP  0  0  0  0  0  0  0  0  0  0  0  0  # atno 17371 bound_to 10713
  141.2226  133.7132  156.8383 LP  0  0  0  0  0  0  0  0  0  0  0  0  # atno 17394 bound_to 11000
  140.1973  134.8922  157.3129 LP  0  0  0  0  0  0  0  0  0  0  0  0  # atno 17395 bound_to 11000

$$$$
