AV-unprocessed.smi:2718|AV-procd|sdf|10493|dock4
  -GOLD-   2272014543D 1   1.00000     0.00000
 Structure written by MMmdl.
 47 48  0  0  0  0  0  0  0  0  1 V2000
  153.6358  142.8265  163.0114 C   0  0  0  0  0  0  0  0  0  0  0  0
  153.4443  142.5784  161.5284 C   0  0  0  0  0  0  0  0  0  0  0  0
  154.2447  141.4146  160.9703 C   0  0  0  0  0  0  0  0  0  0  0  0
  152.6250  143.3448  160.7836 C   0  0  0  0  0  0  0  0  0  0  0  0
  152.3589  143.2048  159.3276 C   0  0  1  0  0  0  0  0  0  0  0  0
  151.0087  142.7200  158.8311 C   0  0  2  0  0  0  0  0  0  0  0  0
  150.9589  141.7875  157.6615 C   0  0  0  0  0  0  0  0  0  0  0  0
  151.5502  140.7079  157.6247 O   0  0  0  0  0  0  0  0  0  0  0  0
  150.2022  142.2405  156.6514 N   0  0  0  0  0  0  0  0  0  0  0  0
  149.9597  141.5503  155.3867 C   0  0  0  0  0  0  0  0  0  0  0  0
  148.4701  141.2207  155.1304 C   0  0  1  0  0  0  0  0  0  0  0  0
  148.3081  139.9877  154.2302 C   0  0  0  0  0  0  0  0  0  0  0  0
  147.6669  141.0894  156.3972 C   0  0  0  0  0  0  0  0  0  0  0  0
  147.9912  140.2587  157.3972 N   0  0  0  0  0  0  0  0  0  0  0  0
  147.0157  140.4310  158.3581 N   0  0  0  0  0  0  0  0  0  0  0  0
  146.1890  141.3360  157.8371 C   0  0  0  0  0  0  0  0  0  0  0  0
  146.5285  141.7807  156.6182 N   0  0  0  0  0  0  0  0  0  0  0  0
  145.8325  142.7411  155.7849 C   0  0  0  0  0  0  0  0  0  0  0  0
  151.4325  144.1660  158.6018 C   0  0  0  0  0  0  0  0  0  0  0  0
  150.6672  145.2470  159.3503 C   0  0  0  0  0  0  0  0  0  0  0  0
  151.8602  144.7038  157.2424 C   0  0  0  0  0  0  0  0  0  0  0  0
  153.3435  141.9453  163.5833 H   0  0  0  0  0  0  0  0  0  0  0  0
  153.0371  143.6693  163.3585 H   0  0  0  0  0  0  0  0  0  0  0  0
  154.6823  143.0440  163.2251 H   0  0  0  0  0  0  0  0  0  0  0  0
  155.3113  141.5967  161.1029 H   0  0  0  0  0  0  0  0  0  0  0  0
  154.0621  141.2521  159.9086 H   0  0  0  0  0  0  0  0  0  0  0  0
  153.9876  140.4957  161.4975 H   0  0  0  0  0  0  0  0  0  0  0  0
  152.0915  144.1491  161.2692 H   0  0  0  0  0  0  0  0  0  0  0  0
  153.2425  142.8617  158.7919 H   0  0  0  0  0  0  0  0  0  0  0  0
  150.2309  142.5679  159.5785 H   0  0  0  0  0  0  0  0  0  0  0  0
  149.7576  143.1402  156.7652 H   0  0  0  0  0  0  0  0  0  0  0  0
  150.3717  142.1316  154.5604 H   0  0  0  0  0  0  0  0  0  0  0  0
  150.5330  140.6234  155.4243 H   0  0  0  0  0  0  0  0  0  0  0  0
  148.0657  142.0593  154.5651 H   0  0  0  0  0  0  0  0  0  0  0  0
  147.2598  139.8204  153.9816 H   0  0  0  0  0  0  0  0  0  0  0  0
  148.6823  139.0874  154.7185 H   0  0  0  0  0  0  0  0  0  0  0  0
  148.8537  140.1104  153.2944 H   0  0  0  0  0  0  0  0  0  0  0  0
  145.3069  141.6790  158.3577 H   0  0  0  0  0  0  0  0  0  0  0  0
  144.9798  143.1565  156.3223 H   0  0  0  0  0  0  0  0  0  0  0  0
  145.4769  142.2498  154.8789 H   0  0  0  0  0  0  0  0  0  0  0  0
  146.5052  143.5534  155.5115 H   0  0  0  0  0  0  0  0  0  0  0  0
  149.8013  145.5673  158.7705 H   0  0  0  0  0  0  0  0  0  0  0  0
  151.3065  146.1121  159.5285 H   0  0  0  0  0  0  0  0  0  0  0  0
  150.3120  144.8820  160.3143 H   0  0  0  0  0  0  0  0  0  0  0  0
  150.9886  144.8521  156.6048 H   0  0  0  0  0  0  0  0  0  0  0  0
  152.5496  144.0254  156.7412 H   0  0  0  0  0  0  0  0  0  0  0  0
  152.3703  145.6605  157.3573 H   0  0  0  0  0  0  0  0  0  0  0  0
  1  2  1  0  0  0  0
  1 22  1  0  0  0  0
  1 23  1  0  0  0  0
  1 24  1  0  0  0  0
  2  3  1  0  0  0  0
  2  4  2  0  0  0  0
  3 25  1  0  0  0  0
  3 26  1  0  0  0  0
  3 27  1  0  0  0  0
  4  5  1  0  0  0  0
  4 28  1  0  0  0  0
  5 19  1  0  0  0  0
  5  6  1  0  0  0  0
  5 29  1  0  0  0  0
  6  7  1  0  0  0  0
  6 19  1  0  0  0  0
  6 30  1  0  0  0  0
  7  8  2  0  0  0  0
  7  9  1  0  0  0  0
  9 10  1  0  0  0  0
  9 31  1  0  0  0  0
 10 11  1  0  0  0  0
 10 32  1  0  0  0  0
 10 33  1  0  0  0  0
 11 12  1  0  0  0  0
 11 13  1  0  0  0  0
 11 34  1  0  0  0  0
 12 35  1  0  0  0  0
 12 36  1  0  0  0  0
 12 37  1  0  0  0  0
 13 17  1  0  0  0  0
 13 14  2  0  0  0  0
 14 15  1  0  0  0  0
 15 16  2  0  0  0  0
 16 17  1  0  0  0  0
 16 38  1  0  0  0  0
 17 18  1  0  0  0  0
 18 39  1  0  0  0  0
 18 40  1  0  0  0  0
 18 41  1  0  0  0  0
 19 20  1  0  0  0  0
 19 21  1  0  0  0  0
 20 42  1  0  0  0  0
 20 43  1  0  0  0  0
 20 44  1  0  0  0  0
 21 45  1  0  0  0  0
 21 46  1  0  0  0  0
 21 47  1  0  0  0  0
M  END
> <s_m_source_file>
AV-unprocessed.smi

> <i_m_source_file_index>
2718

> <i_lp_mmshare_version>
43012

> <i_f3d_flags>
0

> <s_epik_input>
W0NIM11DKFtDSDNdKT1bQ0hdW0NAQEhdKEMxKFtDSDNdKVtDSDNdKVtDQEhdMUMoPU8pW05IXVtDSDJdW0NASF0oW0NIM10pYzJubltjSF1uMltDSDNd

> <s_epik_cmdline>
J2VwaWtfcHl0aG9uJywgJy1waCcsICc3LjAnLCAnLXRuJywgJzgnLCAnLW1hJywgJzIwMCcsICctbWV0YWxfYmluZGluZycsICctaW1hZScsICc8aW5maWxlLm1hZT4nLCAnLW9tYWUnLCAnPG91dGZpbGUubWFlPic=

> <r_lp_tautomer_probability>
1

> <r_epik_Ionization_Penalty>
0.000449586

> <r_epik_Ionization_Penalty_Charging>
0

> <r_epik_Ionization_Penalty_Neutral>
0.000449586

> <r_epik_State_Penalty>
0.000243372

> <r_epik_Charging_Adjusted_Penalty>
0.000243372

> <i_epik_Tot_Q>
0

> <i_epik_Tot_abs_Q>
0

> <r_epik_Metal_State_Penalty>
-0

> <b_epik_Metal_Only>
0

> <s_lp_Force_Field>
OPLS_2005

> <r_lp_Energy>
15.3902

> <b_lp_Chiralities_Consistent>
1

> <s_lp_Variant>
AV-unprocessed.smi:2718-8

> <Gold.Version>
5.8.1

> <Gold.Id.Protein>
6NUR|6NUR_protein|mol2

> <Gold.PLP.Fitness>
48.1710

> <Gold.PLP.PLP>
-46.6599

> <Gold.PLP.part.hbond>
-2.0000

> <Gold.PLP.part.metal>
0.0000

> <Gold.PLP.part.buried>
-6.2326

> <Gold.PLP.part.nonpolar>
-38.6102

> <Gold.PLP.part.repulsive>
0.0708

> <Gold.PLP.ligand.clash>
0.0000

> <Gold.PLP.ligand.torsion>
0.6685

> <Gold.PLP.Chemscore.Hbond>
0.8564

> <Gold.PLP.Chemscore.CHOScore>
0.0000

> <Gold.PLP.Chemscore.Metal>
0.0000

> <Gold.Chemscore.Hbonds>
donor molecule, donor type, donor heavy atom, donor atom, acceptor molecule, acceptor atom, score
      L1  H     9    31       P1  8028  0.68

> <Gold.PLP.Chemscore.Internal.Correction>
0.2788

> <Gold.Rescore>
     Score         DG    S(hbond)    S(metal)    S(lipo)     H(rot)  DE(clash)    DE(int)     intcor
     16.60     -18.20       0.90        0.00     125.64       1.95       0.30       1.30       ----

> <Gold.Chemscore.Fitness>
16.5957

> <Gold.Chemscore.DG>
-18.1966

> <Gold.Chemscore.ZeroCoef>
-5.4800

> <Gold.Chemscore.Hbond>
0.9034

> <Gold.Chemscore.Metal>
0.0000

> <Gold.Chemscore.Lipo>
125.6396

> <Gold.Chemscore.Internal_Hbond>
0.0000

> <Gold.Chemscore.DEClash>
0.3048

> <Gold.Chemscore.DEInternal>
1.2961

> <Gold.Chemscore.Rot>
1.9533

> <Gold.Chemscore.Internal.Correction>
   9.000000E+99

> <Gold.Chemscore.Hbonds>
donor molecule, donor type, donor heavy atom, donor atom, acceptor molecule, acceptor atom, score
      L1  H     9    31       P1  8028  0.67
      P1  H  6934  6946       L1    15  0.01

> <Gold.Chemscore.Hbond.Weighted>
-3.0173

> <Gold.Chemscore.Metal.Weighted>
-0.0000

> <Gold.Chemscore.Lipo.Weighted>
-14.6998

> <Gold.Chemscore.Internal_Hbond.Weighted>
0.0000

> <Gold.Chemscore.DEClash.Weighted>
0.3048

> <Gold.Chemscore.DEInternal.Weighted>
1.2961

> <Gold.Chemscore.Rot.Weighted>
5.0005

> <Gold.Chemscore.Internal.Correction.Weighted>
   9.000000E+99

> <Gold.Protein.RotatedTorsions>
[ 6907 6896 6895 6894 ] final -174.36 input  -60.11 | X-H torsion
[ 7974 7965 7964 7962 ] final  156.98 input  175.53 | X-H torsion
[ 8008 7997 7996 7995 ] final  -86.16 input   59.86 | X-H torsion
[ 10167 10162 10161 10158 ] final   58.23 input  -65.29 | X-H torsion
[ 10718 10713 10712 10709 ] final  147.27 input   66.30 | X-H torsion
[ 10763 10752 10751 10750 ] final  176.41 input  -60.55 | X-H torsion
[ 11005 11000 10999 10996 ] final  -23.16 input  -57.11 | X-H torsion

> <Gold.Protein.ActiveResidues>
 VAL166  LYS551  ARG553  GLY616  TRP617  ASP618  TYR619  PRO620  LYS621  CYS622 
 ASP623  PHE694  ASN695  SER759  ASP760  ASP761  ALA762  ILE779  LEU786  VAL792 
 PHE793  MET794  SER795  GLU796  ALA797  LYS798  CYS799  TRP800  GLU811  SER814 

> <Gold.Protein.RotatedAtoms>
  151.5711  133.3390  159.2989 H   0  0  0  0  0  0  0  0  0  0  0  0  # atno 6907 bound_to 6896
  150.8367  134.7646  159.6910 H   0  0  0  0  0  0  0  0  0  0  0  0  # atno 6908 bound_to 6896
  152.4442  134.5536  159.9925 H   0  0  0  0  0  0  0  0  0  0  0  0  # atno 6909 bound_to 6896
  144.7930  139.7278  143.6213 H   0  0  0  0  0  0  0  0  0  0  0  0  # atno 7974 bound_to 7965
  154.6488  140.0582  156.9931 H   0  0  0  0  0  0  0  0  0  0  0  0  # atno 8008 bound_to 7997
  155.1403  140.3265  155.4435 H   0  0  0  0  0  0  0  0  0  0  0  0  # atno 8009 bound_to 7997
  156.2566  140.1965  156.6519 H   0  0  0  0  0  0  0  0  0  0  0  0  # atno 8010 bound_to 7997
  140.1895  144.4100  150.6578 H   0  0  0  0  0  0  0  0  0  0  0  0  # atno 10167 bound_to 10162
  157.3230  131.0907  151.1225 H   0  0  0  0  0  0  0  0  0  0  0  0  # atno 10718 bound_to 10713
  154.4808  135.2775  155.1572 H   0  0  0  0  0  0  0  0  0  0  0  0  # atno 10763 bound_to 10752
  154.3283  135.6195  153.5543 H   0  0  0  0  0  0  0  0  0  0  0  0  # atno 10764 bound_to 10752
  152.9875  135.5759  154.5208 H   0  0  0  0  0  0  0  0  0  0  0  0  # atno 10765 bound_to 10752
  140.8725  133.7710  156.0203 H   0  0  0  0  0  0  0  0  0  0  0  0  # atno 11005 bound_to 11000
  146.2189  139.5600  142.9631 LP  0  0  0  0  0  0  0  0  0  0  0  0  # atno 17320 bound_to 7965
  145.5744  141.0390  143.2156 LP  0  0  0  0  0  0  0  0  0  0  0  0  # atno 17321 bound_to 7965
  140.6465  143.2215  151.6173 LP  0  0  0  0  0  0  0  0  0  0  0  0  # atno 17342 bound_to 10162
  139.5262  144.3053  152.1039 LP  0  0  0  0  0  0  0  0  0  0  0  0  # atno 17343 bound_to 10162
  157.2502  130.6610  149.5928 LP  0  0  0  0  0  0  0  0  0  0  0  0  # atno 17370 bound_to 10713
  155.9688  130.4541  150.5836 LP  0  0  0  0  0  0  0  0  0  0  0  0  # atno 17371 bound_to 10713
  140.8557  134.2901  157.5256 LP  0  0  0  0  0  0  0  0  0  0  0  0  # atno 17394 bound_to 11000
  139.8713  134.9491  156.4016 LP  0  0  0  0  0  0  0  0  0  0  0  0  # atno 17395 bound_to 11000

$$$$
