AV-unprocessed.smi:835|AV-procd|sdf|3889|dock1
  -GOLD-   22720 1343D 1   1.00000     0.00000
 Structure written by MMmdl.
 41 43  0  0  0  0  0  0  0  0  2 V2000
  153.8502  141.6014  160.7072 C   0  0  0  0  0  0  0  0  0  0  0  0
  152.8304  142.2919  159.8505 C   0  0  0  0  0  0  0  0  0  0  0  0
  151.9741  141.7151  158.8679 C   0  0  0  0  0  0  0  0  0  0  0  0
  151.2682  142.7950  158.4128 C   0  0  0  0  0  0  0  0  0  0  0  0
  150.3084  142.8430  157.4512 N   0  0  0  0  0  0  0  0  0  0  0  0
  149.7344  141.8218  156.7913 C   0  0  0  0  0  0  0  0  0  0  0  0
  149.9838  140.6287  156.9643 O   0  0  0  0  0  0  0  0  0  0  0  0
  148.8265  142.2616  155.9086 N   0  0  0  0  0  0  0  0  0  0  0  0
  148.0146  141.3980  155.0578 C   0  0  1  0  0  0  0  0  0  0  0  0
  147.1414  142.1403  154.0510 C   0  0  0  0  0  0  0  0  0  0  0  0
  146.8458  141.0591  153.0058 C   0  0  0  0  0  0  0  0  0  0  0  0
  147.9895  140.1131  153.0340 N   0  3  2  0  0  0  0  0  0  0  0  0
  147.5802  138.6925  153.0831 C   0  0  0  0  0  0  0  0  0  0  0  0
  146.3834  138.3781  152.2175 C   0  0  0  0  0  0  0  0  0  0  0  0
  146.2279  138.4758  153.7197 C   0  0  0  0  0  0  0  0  0  0  0  0
  148.8719  140.5153  154.1517 C   0  0  0  0  0  0  0  0  0  0  0  0
  151.6943  143.9202  159.0827 N   0  0  0  0  0  0  0  0  0  0  0  0
  151.2537  145.2951  158.9478 C   0  0  0  0  0  0  0  0  0  0  0  0
  152.6592  143.6035  159.9731 N   0  0  0  0  0  0  0  0  0  0  0  0
  153.8579  140.5271  160.5220 H   0  0  0  0  0  0  0  0  0  0  0  0
  153.6415  141.7531  161.7664 H   0  0  0  0  0  0  0  0  0  0  0  0
  154.8527  141.9797  160.5061 H   0  0  0  0  0  0  0  0  0  0  0  0
  151.9085  140.6820  158.5614 H   0  0  0  0  0  0  0  0  0  0  0  0
  149.9723  143.7676  157.2257 H   0  0  0  0  0  0  0  0  0  0  0  0
  148.6838  143.2577  155.8257 H   0  0  0  0  0  0  0  0  0  0  0  0
  147.3859  140.7567  155.6795 H   0  0  0  0  0  0  0  0  0  0  0  0
  146.2365  142.5560  154.4958 H   0  0  0  0  0  0  0  0  0  0  0  0
  147.7001  142.9583  153.5935 H   0  0  0  0  0  0  0  0  0  0  0  0
  145.9228  140.5416  153.2724 H   0  0  0  0  0  0  0  0  0  0  0  0
  146.7089  141.4794  152.0091 H   0  0  0  0  0  0  0  0  0  0  0  0
  148.3766  137.9614  153.2120 H   0  0  0  0  0  0  0  0  0  0  0  0
  145.9596  139.1787  151.6141 H   0  0  0  0  0  0  0  0  0  0  0  0
  146.3311  137.3853  151.7752 H   0  0  0  0  0  0  0  0  0  0  0  0
  146.0733  137.5476  154.2661 H   0  0  0  0  0  0  0  0  0  0  0  0
  145.6999  139.3416  154.1155 H   0  0  0  0  0  0  0  0  0  0  0  0
  149.6997  141.0898  153.7330 H   0  0  0  0  0  0  0  0  0  0  0  0
  149.2992  139.6633  154.6830 H   0  0  0  0  0  0  0  0  0  0  0  0
  150.1719  145.3477  159.0719 H   0  0  0  0  0  0  0  0  0  0  0  0
  151.5181  145.6682  157.9584 H   0  0  0  0  0  0  0  0  0  0  0  0
  151.7256  145.9255  159.7028 H   0  0  0  0  0  0  0  0  0  0  0  0
  148.5168  140.2403  152.1818 H   0  0  0  0  0  0  0  0  0  0  0  0
  1  2  1  0  0  0  0
  1 20  1  0  0  0  0
  1 21  1  0  0  0  0
  1 22  1  0  0  0  0
  2 19  2  0  0  0  0
  2  3  1  0  0  0  0
  3  4  2  0  0  0  0
  3 23  1  0  0  0  0
  4  5  1  0  0  0  0
  4 17  1  0  0  0  0
  5  6  1  0  0  0  0
  5 24  1  0  0  0  0
  6  7  2  0  0  0  0
  6  8  1  0  0  0  0
  8  9  1  0  0  0  0
  8 25  1  0  0  0  0
  9 16  1  0  0  0  0
  9 10  1  0  0  0  0
  9 26  1  0  0  0  0
 10 11  1  0  0  0  0
 10 27  1  0  0  0  0
 10 28  1  0  0  0  0
 11 12  1  0  0  0  0
 11 29  1  0  0  0  0
 11 30  1  0  0  0  0
 12 13  1  0  0  0  0
 12 16  1  0  0  0  0
 12 41  1  0  0  0  0
 13 15  1  0  0  0  0
 13 14  1  0  0  0  0
 13 31  1  0  0  0  0
 14 15  1  0  0  0  0
 14 32  1  0  0  0  0
 14 33  1  0  0  0  0
 15 34  1  0  0  0  0
 15 35  1  0  0  0  0
 16 36  1  0  0  0  0
 16 37  1  0  0  0  0
 17 18  1  0  0  0  0
 17 19  1  0  0  0  0
 18 38  1  0  0  0  0
 18 39  1  0  0  0  0
 18 40  1  0  0  0  0
M  CHG  1  12   1
M  END
> <s_m_source_file>
AV-unprocessed.smi

> <i_m_source_file_index>
835

> <i_lp_mmshare_version>
43012

> <i_f3d_flags>
0

> <s_epik_input>
W0NIM11jMVtjSF1jKG4objEpW0NIM10pW05IXUMoPU8pW05IXVtDQEBIXTJbQ0gyXVtDSDJdTihbQ0gyXTIpW0NIXTNbQ0gyXVtDSDJdMw==

> <s_epik_cmdline>
J2VwaWtfcHl0aG9uJywgJy1waCcsICc3LjAnLCAnLXRuJywgJzgnLCAnLW1hJywgJzIwMCcsICctbWV0YWxfYmluZGluZycsICctaW1hZScsICc8aW5maWxlLm1hZT4nLCAnLW9tYWUnLCAnPG91dGZpbGUubWFlPic=

> <r_lp_tautomer_probability>
1

> <r_epik_Ionization_Penalty>
0.000700689

> <r_epik_Ionization_Penalty_Charging>
0.000627528

> <r_epik_Ionization_Penalty_Neutral>
7.31611e-05

> <r_epik_State_Penalty>
0.00039643

> <r_epik_Charging_Adjusted_Penalty>
0.00102396

> <i_epik_Tot_Q>
1

> <i_epik_Tot_abs_Q>
1

> <r_epik_Metal_State_Penalty>
-0

> <b_epik_Metal_Only>
0

> <s_lp_Force_Field>
OPLS_2005

> <r_lp_Energy>
38.983

> <b_lp_Chiralities_Consistent>
1

> <s_lp_Variant>
AV-unprocessed.smi:835-4

> <Gold.Version>
5.8.1

> <Gold.Id.Protein>
6NUR|6NUR_protein|mol2

> <Gold.PLP.Fitness>
46.8625

> <Gold.PLP.PLP>
-39.2210

> <Gold.PLP.part.hbond>
-2.8469

> <Gold.PLP.part.metal>
0.0000

> <Gold.PLP.part.buried>
-3.6661

> <Gold.PLP.part.nonpolar>
-33.9666

> <Gold.PLP.part.repulsive>
0.2479

> <Gold.PLP.ligand.clash>
0.0000

> <Gold.PLP.ligand.torsion>
0.6590

> <Gold.PLP.Chemscore.Hbond>
2.5627

> <Gold.PLP.Chemscore.CHOScore>
0.0000

> <Gold.PLP.Chemscore.Metal>
0.0000

> <Gold.Chemscore.Hbonds>
donor molecule, donor type, donor heavy atom, donor atom, acceptor molecule, acceptor atom, score
      L1  H     5    24       P1  8028  0.62
      L1  H     8    25       P1  8028  0.86
      L1  H    12    41       P1  7957  0.91

> <Gold.PLP.Chemscore.Internal.Correction>
1.2713

> <Gold.Rescore>
     Score         DG    S(hbond)    S(metal)    S(lipo)     H(rot)  DE(clash)    DE(int)     intcor
     19.47     -21.44       2.74        0.00      84.83       1.22       0.18       1.79       ----

> <Gold.Chemscore.Fitness>
19.4748

> <Gold.Chemscore.DG>
-21.4420

> <Gold.Chemscore.ZeroCoef>
-5.4800

> <Gold.Chemscore.Hbond>
2.7423

> <Gold.Chemscore.Metal>
0.0000

> <Gold.Chemscore.Lipo>
84.8294

> <Gold.Chemscore.Internal_Hbond>
0.0000

> <Gold.Chemscore.DEClash>
0.1798

> <Gold.Chemscore.DEInternal>
1.7874

> <Gold.Chemscore.Rot>
1.2196

> <Gold.Chemscore.Internal.Correction>
   9.000000E+99

> <Gold.Chemscore.Hbonds>
donor molecule, donor type, donor heavy atom, donor atom, acceptor molecule, acceptor atom, score
      L1  H     5    24       P1  8028  0.55
      L1  H     8    25       P1  8028  0.84
      L1  H    12    41       P1  7957  0.88

> <Gold.Chemscore.Hbond.Weighted>
-9.1593

> <Gold.Chemscore.Metal.Weighted>
-0.0000

> <Gold.Chemscore.Lipo.Weighted>
-9.9250

> <Gold.Chemscore.Internal_Hbond.Weighted>
0.0000

> <Gold.Chemscore.DEClash.Weighted>
0.1798

> <Gold.Chemscore.DEInternal.Weighted>
1.7874

> <Gold.Chemscore.Rot.Weighted>
3.1223

> <Gold.Chemscore.Internal.Correction.Weighted>
   9.000000E+99

> <Gold.Protein.RotatedTorsions>
[ 6907 6896 6895 6894 ] final -159.51 input  -60.11 | X-H torsion
[ 7974 7965 7964 7962 ] final   46.92 input  175.53 | X-H torsion
[ 8008 7997 7996 7995 ] final  -58.50 input   59.86 | X-H torsion
[ 10167 10162 10161 10158 ] final  107.82 input  -65.29 | X-H torsion
[ 10718 10713 10712 10709 ] final  135.19 input   66.30 | X-H torsion
[ 10763 10752 10751 10750 ] final    2.05 input  -60.55 | X-H torsion
[ 11005 11000 10999 10996 ] final  175.06 input  -57.11 | X-H torsion

> <Gold.Protein.ActiveResidues>
 VAL166  LYS551  ARG553  GLY616  TRP617  ASP618  TYR619  PRO620  LYS621  CYS622 
 ASP623  PHE694  ASN695  SER759  ASP760  ASP761  ALA762  ILE779  LEU786  VAL792 
 PHE793  MET794  SER795  GLU796  ALA797  LYS798  CYS799  TRP800  GLU811  SER814 

> <Gold.Protein.RotatedAtoms>
  151.3348  133.3986  159.2665 H   0  0  0  0  0  0  0  0  0  0  0  0  # atno 6907 bound_to 6896
  150.9926  134.9258  159.7919 H   0  0  0  0  0  0  0  0  0  0  0  0  # atno 6908 bound_to 6896
  152.5252  134.3313  159.9236 H   0  0  0  0  0  0  0  0  0  0  0  0  # atno 6909 bound_to 6896
  146.0346  139.4804  142.9816 H   0  0  0  0  0  0  0  0  0  0  0  0  # atno 7974 bound_to 7965
  154.4311  140.1083  156.5966 H   0  0  0  0  0  0  0  0  0  0  0  0  # atno 8008 bound_to 7997
  155.5955  140.3492  155.4560 H   0  0  0  0  0  0  0  0  0  0  0  0  # atno 8009 bound_to 7997
  156.0214  140.1240  157.0343 H   0  0  0  0  0  0  0  0  0  0  0  0  # atno 8010 bound_to 7997
  139.6896  144.7109  151.1371 H   0  0  0  0  0  0  0  0  0  0  0  0  # atno 10167 bound_to 10162
  157.4596  131.1072  150.9936 H   0  0  0  0  0  0  0  0  0  0  0  0  # atno 10718 bound_to 10713
  153.3004  135.6955  153.7208 H   0  0  0  0  0  0  0  0  0  0  0  0  # atno 10763 bound_to 10752
  153.6124  135.3442  155.2984 H   0  0  0  0  0  0  0  0  0  0  0  0  # atno 10764 bound_to 10752
  154.8549  135.4366  154.2114 H   0  0  0  0  0  0  0  0  0  0  0  0  # atno 10765 bound_to 10752
  140.3580  134.7137  157.4312 H   0  0  0  0  0  0  0  0  0  0  0  0  # atno 11005 bound_to 11000
  145.6985  141.0143  143.1517 LP  0  0  0  0  0  0  0  0  0  0  0  0  # atno 17320 bound_to 7965
  144.7046  139.8617  143.7434 LP  0  0  0  0  0  0  0  0  0  0  0  0  # atno 17321 bound_to 7965
  140.7678  143.5578  150.9132 LP  0  0  0  0  0  0  0  0  0  0  0  0  # atno 17342 bound_to 10162
  139.9255  143.6555  152.3088 LP  0  0  0  0  0  0  0  0  0  0  0  0  # atno 17343 bound_to 10162
  157.0737  130.5874  149.5407 LP  0  0  0  0  0  0  0  0  0  0  0  0  # atno 17370 bound_to 10713
  156.0023  130.5104  150.7706 LP  0  0  0  0  0  0  0  0  0  0  0  0  # atno 17371 bound_to 10713
  140.0649  134.5943  155.8706 LP  0  0  0  0  0  0  0  0  0  0  0  0  # atno 17394 bound_to 11000
  141.1992  133.6606  156.5834 LP  0  0  0  0  0  0  0  0  0  0  0  0  # atno 17395 bound_to 11000

$$$$
