AV-unprocessed.smi:2313|AV-procd|sdf|9265|dock6
  -GOLD-   2272012493D 1   1.00000     0.00000
 Structure written by MMmdl.
 37 38  0  0  0  0  0  0  0  0  1 V2000
  153.4311  142.8711  163.2333 C   0  0  0  0  0  0  0  0  0  0  0  0
  152.8568  143.0164  161.8364 C   0  0  0  0  0  0  0  0  0  0  0  0
  151.9320  144.0908  161.5402 C   0  0  0  0  0  0  0  0  0  0  0  0
  151.4313  144.2038  160.3010 C   0  0  0  0  0  0  0  0  0  0  0  0
  151.7790  143.3086  159.2742 N   0  0  0  0  0  0  0  0  0  0  0  0
  151.1615  143.5226  157.9547 C   0  0  0  0  0  0  0  0  0  0  0  0
  150.4384  142.2732  157.4356 C   0  0  0  0  0  0  0  0  0  0  0  0
  150.4979  141.2175  158.0656 O   0  0  0  0  0  0  0  0  0  0  0  0
  149.7651  142.4213  156.2821 N   0  0  0  0  0  0  0  0  0  0  0  0
  149.0327  141.4050  155.5160 C   0  0  2  0  0  0  0  0  0  0  0  0
  148.1331  140.6763  156.5277 C   0  0  0  0  0  0  0  0  0  0  0  0
  149.9410  140.4043  154.9220 C   0  0  0  0  0  0  0  0  0  0  0  0
  150.6556  139.6214  154.4571 N   0  0  0  0  0  0  0  0  0  0  0  0
  148.1513  141.9553  154.3915 C   0  0  0  0  0  0  0  0  0  0  0  0
  146.7324  142.4460  154.5850 C   0  0  0  0  0  0  0  0  0  0  0  0
  146.9934  141.1712  153.8147 C   0  0  0  0  0  0  0  0  0  0  0  0
  152.6469  142.2721  159.4807 C   0  0  0  0  0  0  0  0  0  0  0  0
  152.9486  141.4911  158.5759 O   0  0  0  0  0  0  0  0  0  0  0  0
  153.1872  142.1554  160.8444 C   0  0  0  0  0  0  0  0  0  0  0  0
  154.0873  141.0688  161.0604 C   0  0  0  0  0  0  0  0  0  0  0  0
  154.8308  140.2006  161.2428 N   0  0  0  0  0  0  0  0  0  0  0  0
  153.0581  143.6521  163.8965 H   0  0  0  0  0  0  0  0  0  0  0  0
  154.5189  142.9409  163.2079 H   0  0  0  0  0  0  0  0  0  0  0  0
  153.1567  141.9059  163.6597 H   0  0  0  0  0  0  0  0  0  0  0  0
  151.6409  144.7933  162.3073 H   0  0  0  0  0  0  0  0  0  0  0  0
  150.7319  144.9784  160.0216 H   0  0  0  0  0  0  0  0  0  0  0  0
  150.4409  144.3407  157.9877 H   0  0  0  0  0  0  0  0  0  0  0  0
  151.9230  143.8389  157.2389 H   0  0  0  0  0  0  0  0  0  0  0  0
  149.7861  143.3410  155.8661 H   0  0  0  0  0  0  0  0  0  0  0  0
  147.5673  139.8754  156.0503 H   0  0  0  0  0  0  0  0  0  0  0  0
  147.4150  141.3579  156.9856 H   0  0  0  0  0  0  0  0  0  0  0  0
  148.7200  140.2258  157.3293 H   0  0  0  0  0  0  0  0  0  0  0  0
  148.7233  142.5317  153.6663 H   0  0  0  0  0  0  0  0  0  0  0  0
  146.2607  142.3466  155.5582 H   0  0  0  0  0  0  0  0  0  0  0  0
  146.4257  143.3203  154.0148 H   0  0  0  0  0  0  0  0  0  0  0  0
  146.8584  141.1992  152.7354 H   0  0  0  0  0  0  0  0  0  0  0  0
  146.7129  140.2345  154.2922 H   0  0  0  0  0  0  0  0  0  0  0  0
  1  2  1  0  0  0  0
  1 22  1  0  0  0  0
  1 23  1  0  0  0  0
  1 24  1  0  0  0  0
  2 19  2  0  0  0  0
  2  3  1  0  0  0  0
  3  4  2  0  0  0  0
  3 25  1  0  0  0  0
  4  5  1  0  0  0  0
  4 26  1  0  0  0  0
  5  6  1  0  0  0  0
  5 17  1  0  0  0  0
  6  7  1  0  0  0  0
  6 27  1  0  0  0  0
  6 28  1  0  0  0  0
  7  8  2  0  0  0  0
  7  9  1  0  0  0  0
  9 10  1  0  0  0  0
  9 29  1  0  0  0  0
 10 11  1  0  0  0  0
 10 12  1  0  0  0  0
 10 14  1  0  0  0  0
 11 30  1  0  0  0  0
 11 31  1  0  0  0  0
 11 32  1  0  0  0  0
 12 13  3  0  0  0  0
 14 16  1  0  0  0  0
 14 15  1  0  0  0  0
 14 33  1  0  0  0  0
 15 16  1  0  0  0  0
 15 34  1  0  0  0  0
 15 35  1  0  0  0  0
 16 36  1  0  0  0  0
 16 37  1  0  0  0  0
 17 18  2  0  0  0  0
 17 19  1  0  0  0  0
 19 20  1  0  0  0  0
 20 21  3  0  0  0  0
M  END
> <s_m_source_file>
AV-unprocessed.smi

> <i_m_source_file_index>
2313

> <i_lp_mmshare_version>
43012

> <i_f3d_flags>
0

> <s_epik_input>
W0NIM11jMVtjSF1bY0hdbihjKD1PKWMxQyNOKVtDSDJdQyg9TylbTkhdW0NAQF0oW0NIM10pKEMjTilbQ0hdMltDSDJdW0NIMl0y

> <s_epik_cmdline>
J2VwaWtfcHl0aG9uJywgJy1waCcsICc3LjAnLCAnLXRuJywgJzgnLCAnLW1hJywgJzIwMCcsICctbWV0YWxfYmluZGluZycsICctaW1hZScsICc8aW5maWxlLm1hZT4nLCAnLW9tYWUnLCAnPG91dGZpbGUubWFlPic=

> <r_lp_tautomer_probability>
1

> <r_epik_Ionization_Penalty>
4.65501e-07

> <r_epik_Ionization_Penalty_Charging>
2.39086e-10

> <r_epik_Ionization_Penalty_Neutral>
4.65262e-07

> <r_epik_State_Penalty>
-0

> <r_epik_Charging_Adjusted_Penalty>
2.39086e-10

> <i_epik_Tot_Q>
0

> <i_epik_Tot_abs_Q>
0

> <r_epik_Metal_State_Penalty>
-0

> <b_epik_Metal_Only>
0

> <s_lp_Force_Field>
OPLS_2005

> <r_lp_Energy>
23.1169

> <b_lp_Chiralities_Consistent>
1

> <s_lp_Variant>
AV-unprocessed.smi:2313-2

> <Gold.Version>
5.8.1

> <Gold.Id.Protein>
6NUR|6NUR_protein|mol2

> <Gold.PLP.Fitness>
53.3408

> <Gold.PLP.PLP>
-48.9590

> <Gold.PLP.part.hbond>
-2.0491

> <Gold.PLP.part.metal>
0.0000

> <Gold.PLP.part.buried>
-2.4315

> <Gold.PLP.part.nonpolar>
-44.7500

> <Gold.PLP.part.repulsive>
0.2278

> <Gold.PLP.ligand.clash>
0.0000

> <Gold.PLP.ligand.torsion>
0.9536

> <Gold.PLP.Chemscore.Hbond>
1.5980

> <Gold.PLP.Chemscore.CHOScore>
0.0000

> <Gold.PLP.Chemscore.Metal>
0.0000

> <Gold.Chemscore.Hbonds>
donor molecule, donor type, donor heavy atom, donor atom, acceptor molecule, acceptor atom, score
      L1  H     9    29       P1  8028  0.86
      P1  H  7989  7998       L1    13  0.75

> <Gold.PLP.Chemscore.Internal.Correction>
1.4951

> <Gold.Rescore>
     Score         DG    S(hbond)    S(metal)    S(lipo)     H(rot)  DE(clash)    DE(int)     intcor
      9.29     -16.00       1.28        0.00      92.75       1.80       0.11       6.60       ----

> <Gold.Chemscore.Fitness>
9.2932

> <Gold.Chemscore.DG>
-15.9951

> <Gold.Chemscore.ZeroCoef>
-5.4800

> <Gold.Chemscore.Hbond>
1.2753

> <Gold.Chemscore.Metal>
0.0000

> <Gold.Chemscore.Lipo>
92.7520

> <Gold.Chemscore.Internal_Hbond>
0.0000

> <Gold.Chemscore.DEClash>
0.1057

> <Gold.Chemscore.DEInternal>
6.5963

> <Gold.Chemscore.Rot>
1.7955

> <Gold.Chemscore.Internal.Correction>
   9.000000E+99

> <Gold.Chemscore.Hbonds>
donor molecule, donor type, donor heavy atom, donor atom, acceptor molecule, acceptor atom, score
      L1  H     9    29       P1  8028  0.85
      P1  H  7989  7998       L1    13  0.09

> <Gold.Chemscore.Hbond.Weighted>
-4.2596

> <Gold.Chemscore.Metal.Weighted>
-0.0000

> <Gold.Chemscore.Lipo.Weighted>
-10.8520

> <Gold.Chemscore.Internal_Hbond.Weighted>
0.0000

> <Gold.Chemscore.DEClash.Weighted>
0.1057

> <Gold.Chemscore.DEInternal.Weighted>
6.5963

> <Gold.Chemscore.Rot.Weighted>
4.5965

> <Gold.Chemscore.Internal.Correction.Weighted>
   9.000000E+99

> <Gold.Protein.RotatedTorsions>
[ 6907 6896 6895 6894 ] final   12.47 input  -60.11 | X-H torsion
[ 7974 7965 7964 7962 ] final  175.79 input  175.53 | X-H torsion
[ 8008 7997 7996 7995 ] final -112.86 input   59.86 | X-H torsion
[ 10167 10162 10161 10158 ] final  -30.39 input  -65.29 | X-H torsion
[ 10718 10713 10712 10709 ] final   68.47 input   66.30 | X-H torsion
[ 10763 10752 10751 10750 ] final -157.80 input  -60.55 | X-H torsion
[ 11005 11000 10999 10996 ] final  -86.98 input  -57.11 | X-H torsion

> <Gold.Protein.ActiveResidues>
 VAL166  LYS551  ARG553  GLY616  TRP617  ASP618  TYR619  PRO620  LYS621  CYS622 
 ASP623  PHE694  ASN695  SER759  ASP760  ASP761  ALA762  ILE779  LEU786  VAL792 
 PHE793  MET794  SER795  GLU796  ALA797  LYS798  CYS799  TRP800  GLU811  SER814 

> <Gold.Protein.RotatedAtoms>
  151.7709  135.0786  160.0359 H   0  0  0  0  0  0  0  0  0  0  0  0  # atno 6907 bound_to 6896
  152.3289  133.5932  159.5804 H   0  0  0  0  0  0  0  0  0  0  0  0  # atno 6908 bound_to 6896
  150.7411  133.9814  159.3619 H   0  0  0  0  0  0  0  0  0  0  0  0  # atno 6909 bound_to 6896
  144.7195  139.9999  143.6440 H   0  0  0  0  0  0  0  0  0  0  0  0  # atno 7974 bound_to 7965
  155.0117  140.0393  157.2402 H   0  0  0  0  0  0  0  0  0  0  0  0  # atno 8008 bound_to 7997
  154.7454  140.2757  155.6314 H   0  0  0  0  0  0  0  0  0  0  0  0  # atno 8009 bound_to 7997
  156.2873  140.2657  156.2193 H   0  0  0  0  0  0  0  0  0  0  0  0  # atno 8010 bound_to 7997
  140.7250  143.3852  151.1528 H   0  0  0  0  0  0  0  0  0  0  0  0  # atno 10167 bound_to 10162
  157.6291  130.9375  150.0382 H   0  0  0  0  0  0  0  0  0  0  0  0  # atno 10718 bound_to 10713
  154.7607  135.3117  154.8383 H   0  0  0  0  0  0  0  0  0  0  0  0  # atno 10763 bound_to 10752
  153.9144  135.6802  153.4754 H   0  0  0  0  0  0  0  0  0  0  0  0  # atno 10764 bound_to 10752
  153.1208  135.4823  154.9124 H   0  0  0  0  0  0  0  0  0  0  0  0  # atno 10765 bound_to 10752
  141.1623  133.7485  156.9240 H   0  0  0  0  0  0  0  0  0  0  0  0  # atno 11005 bound_to 11000
  146.0344  139.3364  143.0736 LP  0  0  0  0  0  0  0  0  0  0  0  0  # atno 17320 bound_to 7965
  145.8413  140.9579  143.0798 LP  0  0  0  0  0  0  0  0  0  0  0  0  # atno 17321 bound_to 7965
  139.7448  143.8868  152.3060 LP  0  0  0  0  0  0  0  0  0  0  0  0  # atno 17342 bound_to 10162
  139.8702  144.7072  150.8996 LP  0  0  0  0  0  0  0  0  0  0  0  0  # atno 17343 bound_to 10162
  156.1482  130.3642  149.9478 LP  0  0  0  0  0  0  0  0  0  0  0  0  # atno 17370 bound_to 10713
  156.7503  130.9113  151.3637 LP  0  0  0  0  0  0  0  0  0  0  0  0  # atno 17371 bound_to 10713
  140.1432  134.9280  157.2494 LP  0  0  0  0  0  0  0  0  0  0  0  0  # atno 17394 bound_to 11000
  140.2812  134.3348  155.7342 LP  0  0  0  0  0  0  0  0  0  0  0  0  # atno 17395 bound_to 11000

$$$$
