AV-unprocessed.smi:1947|AV-procd|sdf|7872|dock1
  -GOLD-   2272010 23D 1   1.00000     0.00000
 Structure written by MMmdl.
 38 39  0  0  0  0  0  0  0  0  2 V2000
  153.6390  140.5421  160.3900 C   0  0  0  0  0  0  0  0  0  0  0  0
  152.5344  141.4786  159.8709 C   0  0  1  0  0  0  0  0  0  0  0  0
  153.0781  142.9079  159.6727 C   0  0  0  0  0  0  0  0  0  0  0  0
  151.9977  143.8604  159.1375 C   0  0  0  0  0  0  0  0  0  0  0  0
  151.3908  143.3290  157.8313 C   0  0  0  0  0  0  0  0  0  0  0  0
  150.8324  141.9109  158.0211 C   0  0  0  0  0  0  0  0  0  0  0  0
  151.9081  140.9481  158.5623 C   0  0  2  0  0  0  0  0  0  0  0  0
  151.3128  139.6904  158.8506 O   0  0  0  0  0  0  0  0  0  0  0  0
  150.9134  138.9488  157.7076 C   0  0  0  0  0  0  0  0  0  0  0  0
  150.3788  137.5840  158.1687 C   0  0  0  0  0  0  0  0  0  0  0  0
  149.3393  137.7263  159.1843 N   0  0  0  0  0  0  0  0  0  0  0  0
  148.6870  136.7261  159.7930 C   0  0  0  0  0  0  0  0  0  0  0  0
  148.9094  135.5575  159.4682 O   0  0  0  0  0  0  0  0  0  0  0  0
  147.8258  137.1416  160.7492 N   0  5  0  0  0  0  0  0  0  0  0  0
  146.9917  136.2624  161.3281 C   0  0  0  0  0  0  0  0  0  0  0  0
  145.7564  136.0251  160.8591 N   0  0  0  0  0  0  0  0  0  0  0  0
  145.0607  135.0844  161.6067 N   0  0  0  0  0  0  0  0  0  0  0  0
  145.7904  134.6408  162.6298 C   0  0  0  0  0  0  0  0  0  0  0  0
  147.3915  135.3342  162.7760 S   0  0  0  0  0  0  0  0  0  0  0  0
  154.4496  140.4450  159.6672 H   0  0  0  0  0  0  0  0  0  0  0  0
  153.2535  139.5412  160.5879 H   0  0  0  0  0  0  0  0  0  0  0  0
  154.0657  140.9160  161.3206 H   0  0  0  0  0  0  0  0  0  0  0  0
  151.7510  141.5202  160.6292 H   0  0  0  0  0  0  0  0  0  0  0  0
  153.4669  143.2928  160.6159 H   0  0  0  0  0  0  0  0  0  0  0  0
  153.9192  142.8888  158.9783 H   0  0  0  0  0  0  0  0  0  0  0  0
  151.2123  143.9802  159.8848 H   0  0  0  0  0  0  0  0  0  0  0  0
  152.4233  144.8507  158.9737 H   0  0  0  0  0  0  0  0  0  0  0  0
  150.6002  143.9974  157.4893 H   0  0  0  0  0  0  0  0  0  0  0  0
  152.1511  143.3218  157.0494 H   0  0  0  0  0  0  0  0  0  0  0  0
  149.9896  141.9431  158.7130 H   0  0  0  0  0  0  0  0  0  0  0  0
  150.4389  141.5461  157.0725 H   0  0  0  0  0  0  0  0  0  0  0  0
  152.7049  140.8378  157.8243 H   0  0  0  0  0  0  0  0  0  0  0  0
  150.1412  139.4884  157.1590 H   0  0  0  0  0  0  0  0  0  0  0  0
  151.7545  138.8074  157.0276 H   0  0  0  0  0  0  0  0  0  0  0  0
  149.9533  137.0482  157.3202 H   0  0  0  0  0  0  0  0  0  0  0  0
  151.1917  136.9663  158.5530 H   0  0  0  0  0  0  0  0  0  0  0  0
  149.1233  138.6661  159.4828 H   0  0  0  0  0  0  0  0  0  0  0  0
  145.3822  133.9036  163.3047 H   0  0  0  0  0  0  0  0  0  0  0  0
  1  2  1  0  0  0  0
  1 20  1  0  0  0  0
  1 21  1  0  0  0  0
  1 22  1  0  0  0  0
  2  7  1  0  0  0  0
  2  3  1  0  0  0  0
  2 23  1  0  0  0  0
  3  4  1  0  0  0  0
  3 24  1  0  0  0  0
  3 25  1  0  0  0  0
  4  5  1  0  0  0  0
  4 26  1  0  0  0  0
  4 27  1  0  0  0  0
  5  6  1  0  0  0  0
  5 28  1  0  0  0  0
  5 29  1  0  0  0  0
  6  7  1  0  0  0  0
  6 30  1  0  0  0  0
  6 31  1  0  0  0  0
  7  8  1  0  0  0  0
  7 32  1  0  0  0  0
  8  9  1  0  0  0  0
  9 10  1  0  0  0  0
  9 33  1  0  0  0  0
  9 34  1  0  0  0  0
 10 11  1  0  0  0  0
 10 35  1  0  0  0  0
 10 36  1  0  0  0  0
 11 12  1  0  0  0  0
 11 37  1  0  0  0  0
 12 13  2  0  0  0  0
 12 14  1  0  0  0  0
 14 15  1  0  0  0  0
 15 19  1  0  0  0  0
 15 16  2  0  0  0  0
 16 17  1  0  0  0  0
 17 18  2  0  0  0  0
 18 19  1  0  0  0  0
 18 38  1  0  0  0  0
M  CHG  1  14  -1
M  END
> <s_m_source_file>
AV-unprocessed.smi

> <i_m_source_file_index>
1947

> <i_lp_mmshare_version>
43012

> <i_f3d_flags>
0

> <s_epik_input>
W0NIM11bQ0BASF0xW0NIMl1bQ0gyXVtDSDJdW0NIMl1bQ0BIXTFPW0NIMl1bQ0gyXVtOSF1DKD1PKVtOSF1jMm5uW2NIXXMy

> <s_epik_cmdline>
J2VwaWtfcHl0aG9uJywgJy1waCcsICc3LjAnLCAnLXRuJywgJzgnLCAnLW1hJywgJzIwMCcsICctbWV0YWxfYmluZGluZycsICctaW1hZScsICc8aW5maWxlLm1hZT4nLCAnLW9tYWUnLCAnPG91dGZpbGUubWFlPic=

> <r_lp_tautomer_probability>
1

> <r_epik_Ionization_Penalty>
3.35961

> <r_epik_Ionization_Penalty_Charging>
3.31977

> <r_epik_Ionization_Penalty_Neutral>
0.0398394

> <r_epik_State_Penalty>
3.31759

> <r_epik_Charging_Adjusted_Penalty>
6.63736

> <i_epik_Tot_Q>
-1

> <i_epik_Tot_abs_Q>
1

> <r_epik_Metal_State_Penalty>
0.484557

> <b_epik_Metal_Only>
1

> <s_lp_Force_Field>
OPLS_2005

> <r_lp_Energy>
7.96077

> <b_lp_Chiralities_Consistent>
1

> <s_lp_Variant>
AV-unprocessed.smi:1947-8

> <Gold.Version>
5.8.1

> <Gold.Id.Protein>
6NUR|6NUR_protein|mol2

> <Gold.PLP.Fitness>
49.5385

> <Gold.PLP.PLP>
-37.8557

> <Gold.PLP.part.hbond>
-3.0000

> <Gold.PLP.part.metal>
0.0000

> <Gold.PLP.part.buried>
-5.4609

> <Gold.PLP.part.nonpolar>
-31.3422

> <Gold.PLP.part.repulsive>
0.2559

> <Gold.PLP.ligand.clash>
0.0000

> <Gold.PLP.ligand.torsion>
0.8406

> <Gold.PLP.Chemscore.Hbond>
4.4240

> <Gold.PLP.Chemscore.CHOScore>
0.0000

> <Gold.PLP.Chemscore.Metal>
0.0000

> <Gold.Chemscore.Hbonds>
donor molecule, donor type, donor heavy atom, donor atom, acceptor molecule, acceptor atom, score
      P1  H  6896  6909       L1    13  0.99
      P1  H  6931  6943       L1    14  1.70
      P1  H  6934  6947       L1    14  1.73

> <Gold.PLP.Chemscore.Internal.Correction>
0.0919

> <Gold.Rescore>
     Score         DG    S(hbond)    S(metal)    S(lipo)     H(rot)  DE(clash)    DE(int)     intcor
     17.12     -18.17       2.02        0.00      92.34       1.90       0.22       0.82       ----

> <Gold.Chemscore.Fitness>
17.1247

> <Gold.Chemscore.DG>
-18.1657

> <Gold.Chemscore.ZeroCoef>
-5.4800

> <Gold.Chemscore.Hbond>
2.0185

> <Gold.Chemscore.Metal>
0.0000

> <Gold.Chemscore.Lipo>
92.3396

> <Gold.Chemscore.Internal_Hbond>
0.0000

> <Gold.Chemscore.DEClash>
0.2200

> <Gold.Chemscore.DEInternal>
0.8210

> <Gold.Chemscore.Rot>
1.8984

> <Gold.Chemscore.Internal.Correction>
   9.000000E+99

> <Gold.Chemscore.Hbonds>
donor molecule, donor type, donor heavy atom, donor atom, acceptor molecule, acceptor atom, score
      P1  H  6896  6909       L1    13  0.91
      P1  H  6931  6943       L1    14  0.24
      P1  H  6934  6947       L1    14  0.70

> <Gold.Chemscore.Hbond.Weighted>
-6.7418

> <Gold.Chemscore.Metal.Weighted>
-0.0000

> <Gold.Chemscore.Lipo.Weighted>
-10.8037

> <Gold.Chemscore.Internal_Hbond.Weighted>
0.0000

> <Gold.Chemscore.DEClash.Weighted>
0.2200

> <Gold.Chemscore.DEInternal.Weighted>
0.8210

> <Gold.Chemscore.Rot.Weighted>
4.8598

> <Gold.Chemscore.Internal.Correction.Weighted>
   9.000000E+99

> <Gold.Protein.RotatedTorsions>
[ 6907 6896 6895 6894 ] final   43.44 input  -60.11 | X-H torsion
[ 7974 7965 7964 7962 ] final -130.23 input  175.53 | X-H torsion
[ 8008 7997 7996 7995 ] final   68.50 input   59.86 | X-H torsion
[ 10167 10162 10161 10158 ] final  -95.56 input  -65.29 | X-H torsion
[ 10718 10713 10712 10709 ] final -104.63 input   66.30 | X-H torsion
[ 10763 10752 10751 10750 ] final  -84.24 input  -60.55 | X-H torsion
[ 11005 11000 10999 10996 ] final -145.73 input  -57.11 | X-H torsion

> <Gold.Protein.ActiveResidues>
 VAL166  LYS551  ARG553  GLY616  TRP617  ASP618  TYR619  PRO620  LYS621  CYS622 
 ASP623  PHE694  ASN695  SER759  ASP760  ASP761  ALA762  ILE779  LEU786  VAL792 
 PHE793  MET794  SER795  GLU796  ALA797  LYS798  CYS799  TRP800  GLU811  SER814 

> <Gold.Protein.RotatedAtoms>
  152.2203  134.8419  160.0486 H   0  0  0  0  0  0  0  0  0  0  0  0  # atno 6907 bound_to 6896
  151.9205  133.3579  159.3903 H   0  0  0  0  0  0  0  0  0  0  0  0  # atno 6908 bound_to 6896
  150.6998  134.4565  159.5405 H   0  0  0  0  0  0  0  0  0  0  0  0  # atno 6909 bound_to 6896
  144.9495  140.7329  143.4796 H   0  0  0  0  0  0  0  0  0  0  0  0  # atno 7974 bound_to 7965
  155.7092  140.3494  155.4966 H   0  0  0  0  0  0  0  0  0  0  0  0  # atno 8008 bound_to 7997
  155.9371  140.1095  157.1108 H   0  0  0  0  0  0  0  0  0  0  0  0  # atno 8009 bound_to 7997
  154.4095  140.1220  156.4865 H   0  0  0  0  0  0  0  0  0  0  0  0  # atno 8010 bound_to 7997
  140.3029  143.3151  152.0229 H   0  0  0  0  0  0  0  0  0  0  0  0  # atno 10167 bound_to 10162
  156.0312  130.5524  150.7424 H   0  0  0  0  0  0  0  0  0  0  0  0  # atno 10718 bound_to 10713
  154.5971  135.5528  153.7337 H   0  0  0  0  0  0  0  0  0  0  0  0  # atno 10763 bound_to 10752
  153.0140  135.6357  154.1767 H   0  0  0  0  0  0  0  0  0  0  0  0  # atno 10764 bound_to 10752
  154.1707  135.2892  155.3062 H   0  0  0  0  0  0  0  0  0  0  0  0  # atno 10765 bound_to 10752
  140.7892  134.2988  157.5019 H   0  0  0  0  0  0  0  0  0  0  0  0  # atno 11005 bound_to 11000
  145.2866  139.1899  143.4763 LP  0  0  0  0  0  0  0  0  0  0  0  0  # atno 17320 bound_to 7965
  146.3316  140.2836  142.8611 LP  0  0  0  0  0  0  0  0  0  0  0  0  # atno 17321 bound_to 7965
  139.4911  144.6442  151.6813 LP  0  0  0  0  0  0  0  0  0  0  0  0  # atno 17342 bound_to 10162
  140.5635  144.0228  150.6181 LP  0  0  0  0  0  0  0  0  0  0  0  0  # atno 17343 bound_to 10162
  157.4989  131.0917  151.0337 LP  0  0  0  0  0  0  0  0  0  0  0  0  # atno 17370 bound_to 10713
  157.0724  130.5869  149.5405 LP  0  0  0  0  0  0  0  0  0  0  0  0  # atno 17371 bound_to 10713
  139.8733  134.9364  156.3661 LP  0  0  0  0  0  0  0  0  0  0  0  0  # atno 17394 bound_to 11000
  140.9406  133.7517  156.0142 LP  0  0  0  0  0  0  0  0  0  0  0  0  # atno 17395 bound_to 11000

$$$$
