AV-unprocessed.smi:2883|AV-procd|sdf|11077|dock6
  -GOLD-   2272015553D 1   1.00000     0.00000
 Structure written by MMmdl.
 40 42  0  0  0  0  0  0  0  0  2 V2000
  151.7846  137.8877  156.6819 C   0  0  0  0  0  0  0  0  0  0  0  0
  151.6383  138.2754  155.1919 C   0  0  0  0  0  0  0  0  0  0  0  0
  153.0680  138.5518  154.6734 C   0  0  0  0  0  0  0  0  0  0  0  0
  151.0216  137.1036  154.4064 C   0  0  0  0  0  0  0  0  0  0  0  0
  150.7509  139.5184  155.0358 C   0  0  0  0  0  0  0  0  0  0  0  0
  149.6488  139.4480  154.2677 N   0  3  0  0  0  0  0  0  0  0  0  0
  148.7959  140.4992  154.2025 C   0  0  0  0  0  0  0  0  0  0  0  0
  149.0355  141.6586  154.9619 C   0  0  0  0  0  0  0  0  0  0  0  0
  150.1765  141.6555  155.7806 C   0  0  0  0  0  0  0  0  0  0  0  0
  150.4615  142.7738  156.5759 N   0  0  0  0  0  0  0  0  0  0  0  0
  151.7609  142.9207  157.2259 C   0  0  2  0  0  0  0  0  0  0  0  0
  151.9162  142.0367  158.4657 C   0  0  0  0  0  0  0  0  0  0  0  0
  152.3375  143.0593  159.5307 C   0  0  2  0  0  0  0  0  0  0  0  0
  151.1511  143.9189  159.9854 C   0  0  0  0  0  0  0  0  0  0  0  0
  150.9367  144.8188  158.7698 C   0  0  0  0  0  0  0  0  0  0  0  0
  152.0309  144.3230  157.8085 C   0  0  1  0  0  0  0  0  0  0  0  0
  153.0483  143.9979  158.7403 O   0  0  0  0  0  0  0  0  0  0  0  0
  150.9954  140.5822  155.8167 N   0  0  0  0  0  0  0  0  0  0  0  0
  152.4490  137.0317  156.8057 H   0  0  0  0  0  0  0  0  0  0  0  0
  150.8288  137.6115  157.1288 H   0  0  0  0  0  0  0  0  0  0  0  0
  152.1975  138.7097  157.2684 H   0  0  0  0  0  0  0  0  0  0  0  0
  153.5235  139.3952  155.1940 H   0  0  0  0  0  0  0  0  0  0  0  0
  153.0801  138.7744  153.6059 H   0  0  0  0  0  0  0  0  0  0  0  0
  153.7171  137.6878  154.8218 H   0  0  0  0  0  0  0  0  0  0  0  0
  151.6287  136.2018  154.4939 H   0  0  0  0  0  0  0  0  0  0  0  0
  150.9345  137.3396  153.3451 H   0  0  0  0  0  0  0  0  0  0  0  0
  150.0225  136.8637  154.7725 H   0  0  0  0  0  0  0  0  0  0  0  0
  147.9439  140.3741  153.5506 H   0  0  0  0  0  0  0  0  0  0  0  0
  148.3647  142.5046  154.9218 H   0  0  0  0  0  0  0  0  0  0  0  0
  149.8600  143.5833  156.5241 H   0  0  0  0  0  0  0  0  0  0  0  0
  152.5506  142.6633  156.5181 H   0  0  0  0  0  0  0  0  0  0  0  0
  151.0052  141.5066  158.7476 H   0  0  0  0  0  0  0  0  0  0  0  0
  152.7006  141.2963  158.3048 H   0  0  0  0  0  0  0  0  0  0  0  0
  152.9141  142.6324  160.3516 H   0  0  0  0  0  0  0  0  0  0  0  0
  150.2733  143.3202  160.2309 H   0  0  0  0  0  0  0  0  0  0  0  0
  151.4152  144.5142  160.8602 H   0  0  0  0  0  0  0  0  0  0  0  0
  149.9318  144.7414  158.3538 H   0  0  0  0  0  0  0  0  0  0  0  0
  151.1085  145.8618  159.0381 H   0  0  0  0  0  0  0  0  0  0  0  0
  152.3321  145.0623  157.0657 H   0  0  0  0  0  0  0  0  0  0  0  0
  149.4510  138.6073  153.7245 H   0  0  0  0  0  0  0  0  0  0  0  0
  1  2  1  0  0  0  0
  1 19  1  0  0  0  0
  1 20  1  0  0  0  0
  1 21  1  0  0  0  0
  2  3  1  0  0  0  0
  2  4  1  0  0  0  0
  2  5  1  0  0  0  0
  3 22  1  0  0  0  0
  3 23  1  0  0  0  0
  3 24  1  0  0  0  0
  4 25  1  0  0  0  0
  4 26  1  0  0  0  0
  4 27  1  0  0  0  0
  5 18  1  0  0  0  0
  5  6  2  0  0  0  0
  6  7  1  0  0  0  0
  6 40  1  0  0  0  0
  7  8  2  0  0  0  0
  7 28  1  0  0  0  0
  8  9  1  0  0  0  0
  8 29  1  0  0  0  0
  9 10  1  0  0  0  0
  9 18  2  0  0  0  0
 10 11  1  0  0  0  0
 10 30  1  0  0  0  0
 11 16  1  0  0  0  0
 11 12  1  0  0  0  0
 11 31  1  0  0  0  0
 12 13  1  0  0  0  0
 12 32  1  0  0  0  0
 12 33  1  0  0  0  0
 13 17  1  0  0  0  0
 13 14  1  0  0  0  0
 13 34  1  0  0  0  0
 14 15  1  0  0  0  0
 14 35  1  0  0  0  0
 14 36  1  0  0  0  0
 15 16  1  0  0  0  0
 15 37  1  0  0  0  0
 15 38  1  0  0  0  0
 16 17  1  0  0  0  0
 16 39  1  0  0  0  0
M  CHG  1   6   1
M  END
> <s_m_source_file>
AV-unprocessed.smi

> <i_m_source_file_index>
2883

> <i_lp_mmshare_version>
43012

> <i_f3d_flags>
0

> <s_epik_input>
W0NIM11DKFtDSDNdKShbQ0gzXSljMW5bY0hdW2NIXWMobjEpW05IXVtDQEhdKFtDSDJdW0NAQEhdMjMpW0NAQEhdKE8zKVtDSDJdW0NIMl0y

> <s_epik_cmdline>
J2VwaWtfcHl0aG9uJywgJy1waCcsICc3LjAnLCAnLXRuJywgJzgnLCAnLW1hJywgJzIwMCcsICctbWV0YWxfYmluZGluZycsICctaW1hZScsICc8aW5maWxlLm1hZT4nLCAnLW9tYWUnLCAnPG91dGZpbGUubWFlPic=

> <r_lp_tautomer_probability>
0.999336

> <r_epik_Ionization_Penalty>
0.371831

> <r_epik_Ionization_Penalty_Charging>
0.371821

> <r_epik_Ionization_Penalty_Neutral>
1.06897e-05

> <r_epik_State_Penalty>
0.369311

> <r_epik_Charging_Adjusted_Penalty>
0.741132

> <i_epik_Tot_Q>
1

> <i_epik_Tot_abs_Q>
1

> <r_epik_Metal_State_Penalty>
0.621338

> <b_epik_Metal_Only>
0

> <s_lp_Force_Field>
OPLS_2005

> <r_lp_Energy>
39.227

> <b_lp_Chiralities_Consistent>
1

> <s_lp_Variant>
AV-unprocessed.smi:2883-3

> <Gold.Version>
5.8.1

> <Gold.Id.Protein>
6NUR|6NUR_protein|mol2

> <Gold.PLP.Fitness>
40.2561

> <Gold.PLP.PLP>
-38.9439

> <Gold.PLP.part.hbond>
-1.9424

> <Gold.PLP.part.metal>
0.0000

> <Gold.PLP.part.buried>
-3.3535

> <Gold.PLP.part.nonpolar>
-34.0107

> <Gold.PLP.part.repulsive>
0.2002

> <Gold.PLP.ligand.clash>
1.0729

> <Gold.PLP.ligand.torsion>
0.3800

> <Gold.PLP.Chemscore.Hbond>
1.0000

> <Gold.PLP.Chemscore.CHOScore>
0.0000

> <Gold.PLP.Chemscore.Metal>
0.0000

> <Gold.Chemscore.Hbonds>
donor molecule, donor type, donor heavy atom, donor atom, acceptor molecule, acceptor atom, score
      L1  H    10    30       P1  8028  1.00

> <Gold.PLP.Chemscore.Internal.Correction>
0.1451

> <Gold.Rescore>
     Score         DG    S(hbond)    S(metal)    S(lipo)     H(rot)  DE(clash)    DE(int)     intcor
     17.66     -18.55       0.97        0.00     109.38       1.16       0.58       0.30       ----

> <Gold.Chemscore.Fitness>
17.6624

> <Gold.Chemscore.DG>
-18.5484

> <Gold.Chemscore.ZeroCoef>
-5.4800

> <Gold.Chemscore.Hbond>
0.9721

> <Gold.Chemscore.Metal>
0.0000

> <Gold.Chemscore.Lipo>
109.3829

> <Gold.Chemscore.Internal_Hbond>
0.0000

> <Gold.Chemscore.DEClash>
0.5835

> <Gold.Chemscore.DEInternal>
0.3025

> <Gold.Chemscore.Rot>
1.1626

> <Gold.Chemscore.Internal.Correction>
   9.000000E+99

> <Gold.Chemscore.Hbonds>
donor molecule, donor type, donor heavy atom, donor atom, acceptor molecule, acceptor atom, score
      L1  H    10    30       P1  8028  0.97

> <Gold.Chemscore.Hbond.Weighted>
-3.2469

> <Gold.Chemscore.Metal.Weighted>
-0.0000

> <Gold.Chemscore.Lipo.Weighted>
-12.7978

> <Gold.Chemscore.Internal_Hbond.Weighted>
0.0000

> <Gold.Chemscore.DEClash.Weighted>
0.5835

> <Gold.Chemscore.DEInternal.Weighted>
0.3025

> <Gold.Chemscore.Rot.Weighted>
2.9763

> <Gold.Chemscore.Internal.Correction.Weighted>
   9.000000E+99

> <Gold.Protein.RotatedTorsions>
[ 6907 6896 6895 6894 ] final  -77.37 input  -60.11 | X-H torsion
[ 7974 7965 7964 7962 ] final   56.04 input  175.53 | X-H torsion
[ 8008 7997 7996 7995 ] final  141.44 input   59.86 | X-H torsion
[ 10167 10162 10161 10158 ] final  -54.46 input  -65.29 | X-H torsion
[ 10718 10713 10712 10709 ] final   -0.37 input   66.30 | X-H torsion
[ 10763 10752 10751 10750 ] final  -50.56 input  -60.55 | X-H torsion
[ 11005 11000 10999 10996 ] final   -7.88 input  -57.11 | X-H torsion

> <Gold.Protein.ActiveResidues>
 VAL166  LYS551  ARG553  GLY616  TRP617  ASP618  TYR619  PRO620  LYS621  CYS622 
 ASP623  PHE694  ASN695  SER759  ASP760  ASP761  ALA762  ILE779  LEU786  VAL792 
 PHE793  MET794  SER795  GLU796  ALA797  LYS798  CYS799  TRP800  GLU811  SER814 

> <Gold.Protein.RotatedAtoms>
  150.7000  134.4432  159.5301 H   0  0  0  0  0  0  0  0  0  0  0  0  # atno 6907 bound_to 6896
  152.2138  134.8474  160.0503 H   0  0  0  0  0  0  0  0  0  0  0  0  # atno 6908 bound_to 6896
  151.9349  133.3586  159.3981 H   0  0  0  0  0  0  0  0  0  0  0  0  # atno 6909 bound_to 6896
  145.9440  139.3913  143.0346 H   0  0  0  0  0  0  0  0  0  0  0  0  # atno 7974 bound_to 7965
  156.2965  140.2315  156.4565 H   0  0  0  0  0  0  0  0  0  0  0  0  # atno 8008 bound_to 7997
  154.8056  140.0446  157.1326 H   0  0  0  0  0  0  0  0  0  0  0  0  # atno 8009 bound_to 7997
  154.9483  140.3038  155.5091 H   0  0  0  0  0  0  0  0  0  0  0  0  # atno 8010 bound_to 7997
  140.6429  143.2518  151.4939 H   0  0  0  0  0  0  0  0  0  0  0  0  # atno 10167 bound_to 10162
  156.8215  130.5458  149.5697 H   0  0  0  0  0  0  0  0  0  0  0  0  # atno 10718 bound_to 10713
  154.1124  135.6547  153.4887 H   0  0  0  0  0  0  0  0  0  0  0  0  # atno 10763 bound_to 10752
  153.0252  135.5251  154.7178 H   0  0  0  0  0  0  0  0  0  0  0  0  # atno 10764 bound_to 10752
  154.6362  135.2982  155.0127 H   0  0  0  0  0  0  0  0  0  0  0  0  # atno 10765 bound_to 10752
  140.7175  133.8856  155.8796 H   0  0  0  0  0  0  0  0  0  0  0  0  # atno 11005 bound_to 11000
  145.8261  140.9654  143.0873 LP  0  0  0  0  0  0  0  0  0  0  0  0  # atno 17320 bound_to 7965
  144.6784  140.0103  143.7484 LP  0  0  0  0  0  0  0  0  0  0  0  0  # atno 17321 bound_to 7965
  139.5639  144.2090  152.1734 LP  0  0  0  0  0  0  0  0  0  0  0  0  # atno 17342 bound_to 10162
  140.1366  144.5240  150.6770 LP  0  0  0  0  0  0  0  0  0  0  0  0  # atno 17343 bound_to 10162
  156.0986  130.5951  150.9856 LP  0  0  0  0  0  0  0  0  0  0  0  0  # atno 17370 bound_to 10713
  157.6454  131.0904  150.8164 LP  0  0  0  0  0  0  0  0  0  0  0  0  # atno 17371 bound_to 10713
  141.0032  134.1122  157.4297 LP  0  0  0  0  0  0  0  0  0  0  0  0  # atno 17394 bound_to 11000
  139.8856  135.0074  156.6446 LP  0  0  0  0  0  0  0  0  0  0  0  0  # atno 17395 bound_to 11000

$$$$
