AV-unprocessed.smi:915|AV-procd|sdf|4156|dock6
  -GOLD-   22720 2 63D 1   1.00000     0.00000
 Structure written by MMmdl.
 33 34  0  0  0  0  0  0  0  0  2 V2000
  151.3482  143.9761  157.7858 C   0  0  0  0  0  0  0  0  0  0  0  0
  151.3539  144.6008  159.1857 C   0  0  0  0  0  0  0  0  0  0  0  0
  152.1334  143.7842  160.1712 C   0  0  0  0  0  0  0  0  0  0  0  0
  152.3962  144.1009  161.4786 C   0  0  0  0  0  0  0  0  0  0  0  0
  153.3438  142.8685  162.2610 S   0  0  0  0  0  0  0  0  0  0  0  0
  153.3478  141.9361  160.7623 C   0  0  0  0  0  0  0  0  0  0  0  0
  153.9517  140.7479  160.5978 N   0  5  0  0  0  0  0  0  0  0  0  0
  155.0686  140.4555  161.3022 C   0  0  0  0  0  0  0  0  0  0  0  0
  156.0368  141.1988  161.4784 O   0  0  0  0  0  0  0  0  0  0  0  0
  155.0668  139.2238  161.8313 N   0  0  0  0  0  0  0  0  0  0  0  0
  156.1428  138.6322  162.6205 C   0  0  0  0  0  0  0  0  0  0  0  0
  155.8009  137.2080  163.0974 C   0  0  2  0  0  0  0  0  0  0  0  0
  155.2833  137.1409  164.5416 C   0  0  0  0  0  0  0  0  0  0  0  0
  155.4918  135.7031  165.0178 C   0  0  0  0  0  0  0  0  0  0  0  0
  156.9067  135.3074  164.5927 C   0  0  0  0  0  0  0  0  0  0  0  0
  157.2366  136.1027  162.9989 S   0  0  0  0  0  0  0  0  0  0  0  0
  152.6853  142.5607  159.7825 N   0  0  0  0  0  0  0  0  0  0  0  0
  150.7784  144.5901  157.0883 H   0  0  0  0  0  0  0  0  0  0  0  0
  150.8986  142.9827  157.7995 H   0  0  0  0  0  0  0  0  0  0  0  0
  152.3618  143.8798  157.3953 H   0  0  0  0  0  0  0  0  0  0  0  0
  151.7664  145.6085  159.1267 H   0  0  0  0  0  0  0  0  0  0  0  0
  150.3260  144.7188  159.5310 H   0  0  0  0  0  0  0  0  0  0  0  0
  152.0934  144.9801  162.0268 H   0  0  0  0  0  0  0  0  0  0  0  0
  154.2532  138.6501  161.6651 H   0  0  0  0  0  0  0  0  0  0  0  0
  157.0661  138.6268  162.0393 H   0  0  0  0  0  0  0  0  0  0  0  0
  156.3247  139.2787  163.4794 H   0  0  0  0  0  0  0  0  0  0  0  0
  155.0420  136.7770  162.4430 H   0  0  0  0  0  0  0  0  0  0  0  0
  155.8572  137.8178  165.1762 H   0  0  0  0  0  0  0  0  0  0  0  0
  154.2372  137.4416  164.6103 H   0  0  0  0  0  0  0  0  0  0  0  0
  155.3488  135.6043  166.0941 H   0  0  0  0  0  0  0  0  0  0  0  0
  154.7657  135.0505  164.5312 H   0  0  0  0  0  0  0  0  0  0  0  0
  157.6326  135.6808  165.3155 H   0  0  0  0  0  0  0  0  0  0  0  0
  157.0293  134.2262  164.5247 H   0  0  0  0  0  0  0  0  0  0  0  0
  1  2  1  0  0  0  0
  1 18  1  0  0  0  0
  1 19  1  0  0  0  0
  1 20  1  0  0  0  0
  2  3  1  0  0  0  0
  2 21  1  0  0  0  0
  2 22  1  0  0  0  0
  3 17  1  0  0  0  0
  3  4  2  0  0  0  0
  4  5  1  0  0  0  0
  4 23  1  0  0  0  0
  5  6  1  0  0  0  0
  6  7  1  0  0  0  0
  6 17  2  0  0  0  0
  7  8  1  0  0  0  0
  8  9  2  0  0  0  0
  8 10  1  0  0  0  0
 10 11  1  0  0  0  0
 10 24  1  0  0  0  0
 11 12  1  0  0  0  0
 11 25  1  0  0  0  0
 11 26  1  0  0  0  0
 12 16  1  0  0  0  0
 12 13  1  0  0  0  0
 12 27  1  0  0  0  0
 13 14  1  0  0  0  0
 13 28  1  0  0  0  0
 13 29  1  0  0  0  0
 14 15  1  0  0  0  0
 14 30  1  0  0  0  0
 14 31  1  0  0  0  0
 15 16  1  0  0  0  0
 15 32  1  0  0  0  0
 15 33  1  0  0  0  0
M  CHG  1   7  -1
M  END
> <s_m_source_file>
AV-unprocessed.smi

> <i_m_source_file_index>
915

> <i_lp_mmshare_version>
43012

> <i_f3d_flags>
0

> <s_epik_input>
W0NIM11bQ0gyXWMxW2NIXXNjKG4xKVtOSF1DKD1PKVtOSF1bQ0gyXVtDQEBIXTJbQ0gyXVtDSDJdW0NIMl1TMg==

> <s_epik_cmdline>
J2VwaWtfcHl0aG9uJywgJy1waCcsICc3LjAnLCAnLXRuJywgJzgnLCAnLW1hJywgJzIwMCcsICctbWV0YWxfYmluZGluZycsICctaW1hZScsICc8aW5maWxlLm1hZT4nLCAnLW9tYWUnLCAnPG91dGZpbGUubWFlPic=

> <r_lp_tautomer_probability>
0.999

> <r_epik_Ionization_Penalty>
8.73043

> <r_epik_Ionization_Penalty_Charging>
6.79141

> <r_epik_Ionization_Penalty_Neutral>
1.93902

> <r_epik_State_Penalty>
6.79158

> <r_epik_Charging_Adjusted_Penalty>
13.583

> <i_epik_Tot_Q>
-1

> <i_epik_Tot_abs_Q>
1

> <r_epik_Metal_State_Penalty>
2.71141

> <b_epik_Metal_Only>
1

> <s_lp_Force_Field>
OPLS_2005

> <r_lp_Energy>
4.53782

> <b_lp_Chiralities_Consistent>
1

> <s_lp_Variant>
AV-unprocessed.smi:915-3

> <Gold.Version>
5.8.1

> <Gold.Id.Protein>
6NUR|6NUR_protein|mol2

> <Gold.PLP.Fitness>
41.7597

> <Gold.PLP.PLP>
-43.9970

> <Gold.PLP.part.hbond>
-0.7845

> <Gold.PLP.part.metal>
0.0000

> <Gold.PLP.part.buried>
-5.2825

> <Gold.PLP.part.nonpolar>
-38.3361

> <Gold.PLP.part.repulsive>
0.0000

> <Gold.PLP.ligand.clash>
0.0000

> <Gold.PLP.ligand.torsion>
1.1362

> <Gold.PLP.Chemscore.Hbond>
0.0000

> <Gold.PLP.Chemscore.CHOScore>
0.0000

> <Gold.PLP.Chemscore.Metal>
0.0000

> <Gold.PLP.Chemscore.Internal.Correction>
0.0351

> <Gold.Rescore>
     Score         DG    S(hbond)    S(metal)    S(lipo)     H(rot)  DE(clash)    DE(int)     intcor
     12.23     -14.73       0.00        0.00     108.19       1.33       1.54       0.96       ----

> <Gold.Chemscore.Fitness>
12.2309

> <Gold.Chemscore.DG>
-14.7318

> <Gold.Chemscore.ZeroCoef>
-5.4800

> <Gold.Chemscore.Hbond>
0.0000

> <Gold.Chemscore.Metal>
0.0000

> <Gold.Chemscore.Lipo>
108.1867

> <Gold.Chemscore.Internal_Hbond>
0.0000

> <Gold.Chemscore.DEClash>
1.5422

> <Gold.Chemscore.DEInternal>
0.9587

> <Gold.Chemscore.Rot>
1.3305

> <Gold.Chemscore.Internal.Correction>
   9.000000E+99

> <Gold.Chemscore.Hbond.Weighted>
-0.0000

> <Gold.Chemscore.Metal.Weighted>
-0.0000

> <Gold.Chemscore.Lipo.Weighted>
-12.6578

> <Gold.Chemscore.Internal_Hbond.Weighted>
0.0000

> <Gold.Chemscore.DEClash.Weighted>
1.5422

> <Gold.Chemscore.DEInternal.Weighted>
0.9587

> <Gold.Chemscore.Rot.Weighted>
3.4060

> <Gold.Chemscore.Internal.Correction.Weighted>
   9.000000E+99

> <Gold.Protein.RotatedTorsions>
[ 6907 6896 6895 6894 ] final  151.54 input  -60.11 | X-H torsion
[ 7974 7965 7964 7962 ] final -179.77 input  175.53 | X-H torsion
[ 8008 7997 7996 7995 ] final   23.67 input   59.86 | X-H torsion
[ 10167 10162 10161 10158 ] final -141.55 input  -65.29 | X-H torsion
[ 10718 10713 10712 10709 ] final   90.68 input   66.30 | X-H torsion
[ 10763 10752 10751 10750 ] final   -1.28 input  -60.55 | X-H torsion
[ 11005 11000 10999 10996 ] final  -45.65 input  -57.11 | X-H torsion

> <Gold.Protein.ActiveResidues>
 VAL166  LYS551  ARG553  GLY616  TRP617  ASP618  TYR619  PRO620  LYS621  CYS622 
 ASP623  PHE694  ASN695  SER759  ASP760  ASP761  ALA762  ILE779  LEU786  VAL792 
 PHE793  MET794  SER795  GLU796  ALA797  LYS798  CYS799  TRP800  GLU811  SER814 

> <Gold.Protein.RotatedAtoms>
  152.0992  133.4241  159.4578 H   0  0  0  0  0  0  0  0  0  0  0  0  # atno 6907 bound_to 6896
  150.6864  134.2780  159.4625 H   0  0  0  0  0  0  0  0  0  0  0  0  # atno 6908 bound_to 6896
  152.0639  134.9576  160.0625 H   0  0  0  0  0  0  0  0  0  0  0  0  # atno 6909 bound_to 6896
  144.7139  140.0668  143.6431 H   0  0  0  0  0  0  0  0  0  0  0  0  # atno 7974 bound_to 7965
  154.9845  140.3106  155.4932 H   0  0  0  0  0  0  0  0  0  0  0  0  # atno 8008 bound_to 7997
  156.2949  140.2260  156.4886 H   0  0  0  0  0  0  0  0  0  0  0  0  # atno 8009 bound_to 7997
  154.7759  140.0449  157.1077 H   0  0  0  0  0  0  0  0  0  0  0  0  # atno 8010 bound_to 7997
  139.8174  143.7620  152.2665 H   0  0  0  0  0  0  0  0  0  0  0  0  # atno 10167 bound_to 10162
  157.6959  131.0379  150.3614 H   0  0  0  0  0  0  0  0  0  0  0  0  # atno 10718 bound_to 10713
  153.3429  135.6981  153.6852 H   0  0  0  0  0  0  0  0  0  0  0  0  # atno 10763 bound_to 10752
  153.5610  135.3535  155.2800 H   0  0  0  0  0  0  0  0  0  0  0  0  # atno 10764 bound_to 10752
  154.8640  135.4249  154.2646 H   0  0  0  0  0  0  0  0  0  0  0  0  # atno 10765 bound_to 10752
  141.0529  133.6736  156.3042 H   0  0  0  0  0  0  0  0  0  0  0  0  # atno 11005 bound_to 11000
  145.9817  139.2946  143.1038 LP  0  0  0  0  0  0  0  0  0  0  0  0  # atno 17320 bound_to 7965
  145.9003  140.9247  143.0506 LP  0  0  0  0  0  0  0  0  0  0  0  0  # atno 17321 bound_to 7965
  139.7788  144.7451  151.0118 LP  0  0  0  0  0  0  0  0  0  0  0  0  # atno 17342 bound_to 10162
  140.7815  143.4564  151.0339 LP  0  0  0  0  0  0  0  0  0  0  0  0  # atno 17343 bound_to 10162
  156.4050  130.3923  149.6932 LP  0  0  0  0  0  0  0  0  0  0  0  0  # atno 17370 bound_to 10713
  156.4236  130.7781  151.2799 LP  0  0  0  0  0  0  0  0  0  0  0  0  # atno 17371 bound_to 10713
  140.6021  134.5544  157.5519 LP  0  0  0  0  0  0  0  0  0  0  0  0  # atno 17394 bound_to 11000
  139.9365  134.7866  156.0789 LP  0  0  0  0  0  0  0  0  0  0  0  0  # atno 17395 bound_to 11000

$$$$
