AV-unprocessed.smi:308|AV-procd|sdf|2290|dock1
  -GOLD-   2262022193D 1   1.00000     0.00000
 Structure written by MMmdl.
 50 51  0  0  0  0  0  0  0  0  4 V2000
  143.5465  133.7635  151.6810 C   0  0  0  0  0  0  0  0  0  0  0  0
  144.9491  134.0693  151.1270 C   0  0  2  0  0  0  0  0  0  0  0  0
  146.0756  133.6352  152.0829 C   0  0  0  0  0  0  0  0  0  0  0  0
  146.1996  134.5702  153.2991 C   0  0  0  0  0  0  0  0  0  0  0  0
  146.3890  135.9837  152.8714 N   0  3  2  0  0  0  0  0  0  0  0  0
  146.6753  136.9186  153.9935 C   0  0  0  0  0  0  0  0  0  0  0  0
  146.9457  138.3537  153.4999 C   0  0  0  0  0  0  0  0  0  0  0  0
  148.3286  138.7305  153.8034 N   0  5  0  0  0  0  0  0  0  0  0  0
  148.7076  139.9145  154.3548 C   0  0  0  0  0  0  0  0  0  0  0  0
  148.2661  141.0403  154.0992 O   0  0  0  0  0  0  0  0  0  0  0  0
  149.6912  139.7582  155.2590 N   0  0  0  0  0  0  0  0  0  0  0  0
  150.3293  140.7345  156.0712 C   0  0  0  0  0  0  0  0  0  0  0  0
  151.2181  140.2825  157.0678 C   0  0  0  0  0  0  0  0  0  0  0  0
  151.8577  141.2130  157.9123 C   0  0  0  0  0  0  0  0  0  0  0  0
  151.5956  142.5971  157.7623 C   0  0  0  0  0  0  0  0  0  0  0  0
  152.1943  143.5892  158.5686 N   0  0  0  0  0  0  0  0  0  0  0  0
  151.7797  144.9810  158.4324 C   0  0  0  0  0  0  0  0  0  0  0  0
  153.1951  143.2124  159.5582 C   0  0  0  0  0  0  0  0  0  0  0  0
  150.7222  142.9815  156.7996 N   0  3  0  0  0  0  0  0  0  0  0  0
  150.0890  142.1250  155.9695 C   0  0  0  0  0  0  0  0  0  0  0  0
  145.2769  136.4482  152.0034 C   0  0  0  0  0  0  0  0  0  0  0  0
  145.1327  135.5531  150.7596 C   0  0  0  0  0  0  0  0  0  0  0  0
  143.3413  134.3033  152.6051 H   0  0  0  0  0  0  0  0  0  0  0  0
  143.4326  132.6994  151.8890 H   0  0  0  0  0  0  0  0  0  0  0  0
  142.7755  134.0393  150.9610 H   0  0  0  0  0  0  0  0  0  0  0  0
  145.0520  133.4872  150.2103 H   0  0  0  0  0  0  0  0  0  0  0  0
  145.9164  132.6084  152.4139 H   0  0  0  0  0  0  0  0  0  0  0  0
  147.0229  133.6343  151.5420 H   0  0  0  0  0  0  0  0  0  0  0  0
  145.3148  134.4936  153.9319 H   0  0  0  0  0  0  0  0  0  0  0  0
  147.0448  134.2481  153.9080 H   0  0  0  0  0  0  0  0  0  0  0  0
  145.8299  136.9517  154.6827 H   0  0  0  0  0  0  0  0  0  0  0  0
  147.5184  136.5518  154.5806 H   0  0  0  0  0  0  0  0  0  0  0  0
  146.7490  138.4005  152.4288 H   0  0  0  0  0  0  0  0  0  0  0  0
  146.2191  139.0220  153.9637 H   0  0  0  0  0  0  0  0  0  0  0  0
  150.0627  138.8223  155.3321 H   0  0  0  0  0  0  0  0  0  0  0  0
  151.4160  139.2268  157.1846 H   0  0  0  0  0  0  0  0  0  0  0  0
  152.5403  140.8461  158.6639 H   0  0  0  0  0  0  0  0  0  0  0  0
  151.9764  145.3416  157.4222 H   0  0  0  0  0  0  0  0  0  0  0  0
  152.3175  145.6263  159.1273 H   0  0  0  0  0  0  0  0  0  0  0  0
  150.7138  145.0855  158.6376 H   0  0  0  0  0  0  0  0  0  0  0  0
  152.7758  142.5093  160.2785 H   0  0  0  0  0  0  0  0  0  0  0  0
  153.5532  144.0812  160.1110 H   0  0  0  0  0  0  0  0  0  0  0  0
  154.0552  142.7475  159.0757 H   0  0  0  0  0  0  0  0  0  0  0  0
  149.4089  142.5884  155.2709 H   0  0  0  0  0  0  0  0  0  0  0  0
  144.3489  136.4692  152.5759 H   0  0  0  0  0  0  0  0  0  0  0  0
  145.4709  137.4714  151.6791 H   0  0  0  0  0  0  0  0  0  0  0  0
  146.0273  135.6598  150.1441 H   0  0  0  0  0  0  0  0  0  0  0  0
  144.3005  135.8970  150.1439 H   0  0  0  0  0  0  0  0  0  0  0  0
  147.2187  136.0097  152.2944 H   0  0  0  0  0  0  0  0  0  0  0  0
  150.5271  143.9774  156.6967 H   0  0  0  0  0  0  0  0  0  0  0  0
  1  2  1  0  0  0  0
  1 23  1  0  0  0  0
  1 24  1  0  0  0  0
  1 25  1  0  0  0  0
  2 22  1  0  0  0  0
  2  3  1  0  0  0  0
  2 26  1  0  0  0  0
  3  4  1  0  0  0  0
  3 27  1  0  0  0  0
  3 28  1  0  0  0  0
  4  5  1  0  0  0  0
  4 29  1  0  0  0  0
  4 30  1  0  0  0  0
  5  6  1  0  0  0  0
  5 21  1  0  0  0  0
  5 49  1  0  0  0  0
  6  7  1  0  0  0  0
  6 31  1  0  0  0  0
  6 32  1  0  0  0  0
  7  8  1  0  0  0  0
  7 33  1  0  0  0  0
  7 34  1  0  0  0  0
  8  9  1  0  0  0  0
  9 10  2  0  0  0  0
  9 11  1  0  0  0  0
 11 12  1  0  0  0  0
 11 35  1  0  0  0  0
 12 20  1  0  0  0  0
 12 13  2  0  0  0  0
 13 14  1  0  0  0  0
 13 36  1  0  0  0  0
 14 15  2  0  0  0  0
 14 37  1  0  0  0  0
 15 16  1  0  0  0  0
 15 19  1  0  0  0  0
 16 17  1  0  0  0  0
 16 18  1  0  0  0  0
 17 38  1  0  0  0  0
 17 39  1  0  0  0  0
 17 40  1  0  0  0  0
 18 41  1  0  0  0  0
 18 42  1  0  0  0  0
 18 43  1  0  0  0  0
 19 20  2  0  0  0  0
 19 50  1  0  0  0  0
 20 44  1  0  0  0  0
 21 22  1  0  0  0  0
 21 45  1  0  0  0  0
 21 46  1  0  0  0  0
 22 47  1  0  0  0  0
 22 48  1  0  0  0  0
M  CHG  1   5   1
M  CHG  1   8  -1
M  CHG  1  19   1
M  END
> <s_m_source_file>
AV-unprocessed.smi

> <i_m_source_file_index>
308

> <i_lp_mmshare_version>
43012

> <i_f3d_flags>
0

> <s_epik_input>
W0NIM11bQ0hdMVtDSDJdW0NIMl1OKFtDSDJdW0NIMl0xKVtDSDJdW0NIMl1bTkhdQyg9TylbTkhdYzJbY0hdW2NIXWMoTihbQ0gzXSlbQ0gzXSluW2NIXTI=

> <s_epik_cmdline>
J2VwaWtfcHl0aG9uJywgJy1waCcsICc3LjAnLCAnLXRuJywgJzgnLCAnLW1hJywgJzIwMCcsICctbWV0YWxfYmluZGluZycsICctaW1hZScsICc8aW5maWxlLm1hZT4nLCAnLW9tYWUnLCAnPG91dGZpbGUubWFlPic=

> <r_lp_tautomer_probability>
0.999994

> <r_epik_Ionization_Penalty>
7.42107

> <r_epik_Ionization_Penalty_Charging>
7.42107

> <r_epik_Ionization_Penalty_Neutral>
3.68925e-06

> <r_epik_State_Penalty>
7.0982

> <r_epik_Charging_Adjusted_Penalty>
14.5193

> <i_epik_Tot_Q>
1

> <i_epik_Tot_abs_Q>
3

> <r_epik_Metal_State_Penalty>
3.28646

> <b_epik_Metal_Only>
1

> <s_lp_Force_Field>
OPLS_2005

> <r_lp_Energy>
21.4752

> <b_lp_Chiralities_Consistent>
1

> <s_lp_Variant>
AV-unprocessed.smi:308-6

> <Gold.Version>
5.8.1

> <Gold.Id.Protein>
6NUR|6NUR_protein|mol2

> <Gold.PLP.Fitness>
46.6522

> <Gold.PLP.PLP>
-38.9975

> <Gold.PLP.part.hbond>
-2.0000

> <Gold.PLP.part.metal>
0.0000

> <Gold.PLP.part.buried>
-4.6162

> <Gold.PLP.part.nonpolar>
-33.6058

> <Gold.PLP.part.repulsive>
0.4634

> <Gold.PLP.ligand.clash>
0.0000

> <Gold.PLP.ligand.torsion>
0.7957

> <Gold.PLP.Chemscore.Hbond>
3.0150

> <Gold.PLP.Chemscore.CHOScore>
0.0000

> <Gold.PLP.Chemscore.Metal>
0.0000

> <Gold.Chemscore.Hbonds>
donor molecule, donor type, donor heavy atom, donor atom, acceptor molecule, acceptor atom, score
      L1  H     5    49       P1  7948  2.00
      L1  H    19    50       P1  8028  0.92

> <Gold.PLP.Chemscore.Internal.Correction>
0.2010

> <Gold.Rescore>
     Score         DG    S(hbond)    S(metal)    S(lipo)     H(rot)  DE(clash)    DE(int)     intcor
     14.17     -17.68       1.55        0.00      91.21       1.42       1.31       2.19       ----

> <Gold.Chemscore.Fitness>
14.1713

> <Gold.Chemscore.DG>
-17.6756

> <Gold.Chemscore.ZeroCoef>
-5.4800

> <Gold.Chemscore.Hbond>
1.5479

> <Gold.Chemscore.Metal>
0.0000

> <Gold.Chemscore.Lipo>
91.2079

> <Gold.Chemscore.Internal_Hbond>
0.0000

> <Gold.Chemscore.DEClash>
1.3106

> <Gold.Chemscore.DEInternal>
2.1936

> <Gold.Chemscore.Rot>
1.4241

> <Gold.Chemscore.Internal.Correction>
   9.000000E+99

> <Gold.Chemscore.Hbonds>
donor molecule, donor type, donor heavy atom, donor atom, acceptor molecule, acceptor atom, score
      L1  H     5    49       P1  7948  1.00
      L1  H    19    50       P1  8028  0.44

> <Gold.Chemscore.Hbond.Weighted>
-5.1699

> <Gold.Chemscore.Metal.Weighted>
-0.0000

> <Gold.Chemscore.Lipo.Weighted>
-10.6713

> <Gold.Chemscore.Internal_Hbond.Weighted>
0.0000

> <Gold.Chemscore.DEClash.Weighted>
1.3106

> <Gold.Chemscore.DEInternal.Weighted>
2.1936

> <Gold.Chemscore.Rot.Weighted>
3.6456

> <Gold.Chemscore.Internal.Correction.Weighted>
   9.000000E+99

> <Gold.Protein.RotatedTorsions>
[ 6907 6896 6895 6894 ] final  104.37 input  -60.11 | X-H torsion
[ 7974 7965 7964 7962 ] final  -56.78 input  175.53 | X-H torsion
[ 8008 7997 7996 7995 ] final   -8.18 input   59.86 | X-H torsion
[ 10167 10162 10161 10158 ] final   50.59 input  -65.29 | X-H torsion
[ 10718 10713 10712 10709 ] final -124.55 input   66.30 | X-H torsion
[ 10763 10752 10751 10750 ] final  123.84 input  -60.55 | X-H torsion
[ 11005 11000 10999 10996 ] final -140.23 input  -57.11 | X-H torsion

> <Gold.Protein.ActiveResidues>
 VAL166  LYS551  ARG553  GLY616  TRP617  ASP618  TYR619  PRO620  LYS621  CYS622 
 ASP623  PHE694  ASN695  SER759  ASP760  ASP761  ALA762  ILE779  LEU786  VAL792 
 PHE793  MET794  SER795  GLU796  ALA797  LYS798  CYS799  TRP800  GLU811  SER814 

> <Gold.Protein.RotatedAtoms>
  152.5266  133.9687  159.7751 H   0  0  0  0  0  0  0  0  0  0  0  0  # atno 6907 bound_to 6896
  150.9963  133.6092  159.2708 H   0  0  0  0  0  0  0  0  0  0  0  0  # atno 6908 bound_to 6896
  151.3217  135.0826  159.9361 H   0  0  0  0  0  0  0  0  0  0  0  0  # atno 6909 bound_to 6896
  145.8587  140.8301  142.9948 H   0  0  0  0  0  0  0  0  0  0  0  0  # atno 7974 bound_to 7965
  154.5766  140.2388  155.8113 H   0  0  0  0  0  0  0  0  0  0  0  0  # atno 8008 bound_to 7997
  156.2148  140.3015  155.9771 H   0  0  0  0  0  0  0  0  0  0  0  0  # atno 8009 bound_to 7997
  155.2615  140.0414  157.2988 H   0  0  0  0  0  0  0  0  0  0  0  0  # atno 8010 bound_to 7997
  140.2709  144.3267  150.6290 H   0  0  0  0  0  0  0  0  0  0  0  0  # atno 10167 bound_to 10162
  156.1597  130.6593  151.0032 H   0  0  0  0  0  0  0  0  0  0  0  0  # atno 10718 bound_to 10713
  153.6519  135.3361  155.3102 H   0  0  0  0  0  0  0  0  0  0  0  0  # atno 10763 bound_to 10752
  154.8535  135.4343  154.1895 H   0  0  0  0  0  0  0  0  0  0  0  0  # atno 10764 bound_to 10752
  153.2840  135.7011  153.7432 H   0  0  0  0  0  0  0  0  0  0  0  0  # atno 10765 bound_to 10752
  140.8443  134.2364  157.4794 H   0  0  0  0  0  0  0  0  0  0  0  0  # atno 11005 bound_to 11000
  144.6727  140.1063  143.7458 LP  0  0  0  0  0  0  0  0  0  0  0  0  # atno 17320 bound_to 7965
  145.9273  139.2584  143.1346 LP  0  0  0  0  0  0  0  0  0  0  0  0  # atno 17321 bound_to 7965
  140.5891  143.2168  151.7287 LP  0  0  0  0  0  0  0  0  0  0  0  0  # atno 17342 bound_to 10162
  139.4989  144.3967  152.0224 LP  0  0  0  0  0  0  0  0  0  0  0  0  # atno 17343 bound_to 10162
  157.6723  131.0858  150.7582 LP  0  0  0  0  0  0  0  0  0  0  0  0  # atno 17370 bound_to 10713
  156.7645  130.4809  149.5430 LP  0  0  0  0  0  0  0  0  0  0  0  0  # atno 17371 bound_to 10713
  139.8703  134.9651  156.4518 LP  0  0  0  0  0  0  0  0  0  0  0  0  # atno 17394 bound_to 11000
  140.8861  133.7882  155.9519 LP  0  0  0  0  0  0  0  0  0  0  0  0  # atno 17395 bound_to 11000

$$$$
