AV-unprocessed.smi:828|AV-procd|sdf|3860|dock10
  -GOLD-   22720 1313D 1   1.00000     0.00000
 Structure written by MMmdl.
 35 36  0  0  0  0  0  0  0  0  2 V2000
  152.4738  140.0599  156.6531 C   0  0  0  0  0  0  0  0  0  0  0  0
  151.9623  138.7407  156.1851 C   0  0  0  0  0  0  0  0  0  0  0  0
  152.5013  137.5777  156.5714 N   0  0  0  0  0  0  0  0  0  0  0  0
  151.8606  136.4859  156.0019 N   0  0  0  0  0  0  0  0  0  0  0  0
  150.8544  136.8600  155.1997 C   0  0  0  0  0  0  0  0  0  0  0  0
  150.0351  135.9477  154.4839 N   0  0  0  0  0  0  0  0  0  0  0  0
  149.6995  134.6897  154.8190 C   0  0  0  0  0  0  0  0  0  0  0  0
  150.0356  134.1118  155.8532 O   0  0  0  0  0  0  0  0  0  0  0  0
  148.9391  134.1211  153.8726 N   0  0  0  0  0  0  0  0  0  0  0  0
  148.4083  132.7626  153.9297 C   0  0  0  0  0  0  0  0  0  0  0  0
  147.7812  132.3206  152.5829 C   0  0  2  0  0  0  0  0  0  0  0  0
  146.5264  133.1253  152.2041 C   0  0  0  0  0  0  0  0  0  0  0  0
  145.7028  132.1551  151.3688 C   0  0  0  0  0  0  0  0  0  0  0  0
  145.9823  130.8194  152.0490 C   0  0  0  0  0  0  0  0  0  0  0  0
  147.3956  130.8815  152.4800 N   0  3  2  0  0  0  0  0  0  0  0  0
  147.7039  129.9922  153.6242 C   0  0  0  0  0  0  0  0  0  0  0  0
  150.6068  138.5931  155.0730 S   0  0  0  0  0  0  0  0  0  0  0  0
  152.8269  139.9875  157.6822 H   0  0  0  0  0  0  0  0  0  0  0  0
  151.6831  140.8090  156.6092 H   0  0  0  0  0  0  0  0  0  0  0  0
  153.2998  140.3843  156.0201 H   0  0  0  0  0  0  0  0  0  0  0  0
  149.6693  136.2922  153.6085 H   0  0  0  0  0  0  0  0  0  0  0  0
  148.7077  134.6674  153.0555 H   0  0  0  0  0  0  0  0  0  0  0  0
  149.2106  132.0869  154.2292 H   0  0  0  0  0  0  0  0  0  0  0  0
  147.6617  132.7397  154.7236 H   0  0  0  0  0  0  0  0  0  0  0  0
  148.5206  132.4667  151.7944 H   0  0  0  0  0  0  0  0  0  0  0  0
  145.9646  133.3953  153.0994 H   0  0  0  0  0  0  0  0  0  0  0  0
  146.7620  134.0460  151.6693 H   0  0  0  0  0  0  0  0  0  0  0  0
  144.6420  132.4063  151.3467 H   0  0  0  0  0  0  0  0  0  0  0  0
  146.0709  132.1391  150.3419 H   0  0  0  0  0  0  0  0  0  0  0  0
  145.3349  130.7167  152.9216 H   0  0  0  0  0  0  0  0  0  0  0  0
  145.7995  129.9679  151.3930 H   0  0  0  0  0  0  0  0  0  0  0  0
  147.1768  130.3011  154.5273 H   0  0  0  0  0  0  0  0  0  0  0  0
  148.7745  129.9726  153.8289 H   0  0  0  0  0  0  0  0  0  0  0  0
  147.3995  128.9708  153.3939 H   0  0  0  0  0  0  0  0  0  0  0  0
  147.9327  130.5259  151.7015 H   0  0  0  0  0  0  0  0  0  0  0  0
  1  2  1  0  0  0  0
  1 18  1  0  0  0  0
  1 19  1  0  0  0  0
  1 20  1  0  0  0  0
  2 17  1  0  0  0  0
  2  3  2  0  0  0  0
  3  4  1  0  0  0  0
  4  5  2  0  0  0  0
  5  6  1  0  0  0  0
  5 17  1  0  0  0  0
  6  7  1  0  0  0  0
  6 21  1  0  0  0  0
  7  8  2  0  0  0  0
  7  9  1  0  0  0  0
  9 10  1  0  0  0  0
  9 22  1  0  0  0  0
 10 11  1  0  0  0  0
 10 23  1  0  0  0  0
 10 24  1  0  0  0  0
 11 15  1  0  0  0  0
 11 12  1  0  0  0  0
 11 25  1  0  0  0  0
 12 13  1  0  0  0  0
 12 26  1  0  0  0  0
 12 27  1  0  0  0  0
 13 14  1  0  0  0  0
 13 28  1  0  0  0  0
 13 29  1  0  0  0  0
 14 15  1  0  0  0  0
 14 30  1  0  0  0  0
 14 31  1  0  0  0  0
 15 16  1  0  0  0  0
 15 35  1  0  0  0  0
 16 32  1  0  0  0  0
 16 33  1  0  0  0  0
 16 34  1  0  0  0  0
M  CHG  1  15   1
M  END
> <s_m_source_file>
AV-unprocessed.smi

> <i_m_source_file_index>
828

> <i_lp_mmshare_version>
43012

> <i_f3d_flags>
0

> <s_epik_input>
W0NIM11jMW5uYyhzMSlbTkhdQyg9TylbTkhdW0NIMl1bQ0BASF0yW0NIMl1bQ0gyXVtDSDJdTjJbQ0gzXQ==

> <s_epik_cmdline>
J2VwaWtfcHl0aG9uJywgJy1waCcsICc3LjAnLCAnLXRuJywgJzgnLCAnLW1hJywgJzIwMCcsICctbWV0YWxfYmluZGluZycsICctaW1hZScsICc8aW5maWxlLm1hZT4nLCAnLW9tYWUnLCAnPG91dGZpbGUubWFlPic=

> <r_lp_tautomer_probability>
1

> <r_epik_Ionization_Penalty>
0.00466477

> <r_epik_Ionization_Penalty_Charging>
0.00372199

> <r_epik_Ionization_Penalty_Neutral>
0.000942783

> <r_epik_State_Penalty>
-0

> <r_epik_Charging_Adjusted_Penalty>
0.00372199

> <i_epik_Tot_Q>
1

> <i_epik_Tot_abs_Q>
1

> <r_epik_Metal_State_Penalty>
0.28212

> <b_epik_Metal_Only>
0

> <s_lp_Force_Field>
OPLS_2005

> <r_lp_Energy>
27.2564

> <b_lp_Chiralities_Consistent>
1

> <s_lp_Variant>
AV-unprocessed.smi:828-3

> <Gold.Version>
5.8.1

> <Gold.Id.Protein>
6NUR|6NUR_protein|mol2

> <Gold.PLP.Fitness>
36.3493

> <Gold.PLP.PLP>
-24.8849

> <Gold.PLP.part.hbond>
-4.5520

> <Gold.PLP.part.metal>
0.0000

> <Gold.PLP.part.buried>
0.7004

> <Gold.PLP.part.nonpolar>
-20.1057

> <Gold.PLP.part.repulsive>
0.1189

> <Gold.PLP.ligand.clash>
0.0000

> <Gold.PLP.ligand.torsion>
0.2574

> <Gold.PLP.Chemscore.Hbond>
3.9920

> <Gold.PLP.Chemscore.CHOScore>
0.0000

> <Gold.PLP.Chemscore.Metal>
0.0000

> <Gold.Chemscore.Hbonds>
donor molecule, donor type, donor heavy atom, donor atom, acceptor molecule, acceptor atom, score
      L1  H     6    21       P1  7948  1.00
      L1  H     9    22       P1  7948  0.95
      L1  H    15    35       P1 10747  0.99
      P1  H 10752 10765       L1     4  1.00

> <Gold.PLP.Chemscore.Internal.Correction>
0.0031

> <Gold.Rescore>
     Score         DG    S(hbond)    S(metal)    S(lipo)     H(rot)  DE(clash)    DE(int)     intcor
     18.42     -19.19       3.25        0.00      53.43       1.33       0.30       0.47       ----

> <Gold.Chemscore.Fitness>
18.4195

> <Gold.Chemscore.DG>
-19.1920

> <Gold.Chemscore.ZeroCoef>
-5.4800

> <Gold.Chemscore.Hbond>
3.2527

> <Gold.Chemscore.Metal>
0.0000

> <Gold.Chemscore.Lipo>
53.4312

> <Gold.Chemscore.Internal_Hbond>
0.0000

> <Gold.Chemscore.DEClash>
0.3023

> <Gold.Chemscore.DEInternal>
0.4702

> <Gold.Chemscore.Rot>
1.3294

> <Gold.Chemscore.Internal.Correction>
   9.000000E+99

> <Gold.Chemscore.Hbonds>
donor molecule, donor type, donor heavy atom, donor atom, acceptor molecule, acceptor atom, score
      L1  H     6    21       P1  7948  0.39
      L1  H     9    22       P1  7948  0.21
      L1  H    15    35       P1 10747  0.94
      P1  H 10752 10765       L1     4  0.45

> <Gold.Chemscore.Hbond.Weighted>
-10.8639

> <Gold.Chemscore.Metal.Weighted>
-0.0000

> <Gold.Chemscore.Lipo.Weighted>
-6.2514

> <Gold.Chemscore.Internal_Hbond.Weighted>
0.0000

> <Gold.Chemscore.DEClash.Weighted>
0.3023

> <Gold.Chemscore.DEInternal.Weighted>
0.4702

> <Gold.Chemscore.Rot.Weighted>
3.4033

> <Gold.Chemscore.Internal.Correction.Weighted>
   9.000000E+99

> <Gold.Protein.RotatedTorsions>
[ 6907 6896 6895 6894 ] final   46.90 input  -60.11 | X-H torsion
[ 7974 7965 7964 7962 ] final  128.05 input  175.53 | X-H torsion
[ 8008 7997 7996 7995 ] final -114.13 input   59.86 | X-H torsion
[ 10167 10162 10161 10158 ] final  179.00 input  -65.29 | X-H torsion
[ 10718 10713 10712 10709 ] final  107.32 input   66.30 | X-H torsion
[ 10763 10752 10751 10750 ] final -157.94 input  -60.55 | X-H torsion
[ 11005 11000 10999 10996 ] final  157.97 input  -57.11 | X-H torsion

> <Gold.Protein.ActiveResidues>
 VAL166  LYS551  ARG553  GLY616  TRP617  ASP618  TYR619  PRO620  LYS621  CYS622 
 ASP623  PHE694  ASN695  SER759  ASP760  ASP761  ALA762  ILE779  LEU786  VAL792 
 PHE793  MET794  SER795  GLU796  ALA797  LYS798  CYS799  TRP800  GLU811  SER814 

> <Gold.Protein.RotatedAtoms>
  152.2618  134.8026  160.0429 H   0  0  0  0  0  0  0  0  0  0  0  0  # atno 6907 bound_to 6896
  151.8669  133.3463  159.3730 H   0  0  0  0  0  0  0  0  0  0  0  0  # atno 6908 bound_to 6896
  150.7119  134.5078  159.5637 H   0  0  0  0  0  0  0  0  0  0  0  0  # atno 6909 bound_to 6896
  145.0438  139.3940  143.5088 H   0  0  0  0  0  0  0  0  0  0  0  0  # atno 7974 bound_to 7965
  155.0315  140.0393  157.2475 H   0  0  0  0  0  0  0  0  0  0  0  0  # atno 8008 bound_to 7997
  154.7293  140.2727  155.6447 H   0  0  0  0  0  0  0  0  0  0  0  0  # atno 8009 bound_to 7997
  156.2837  140.2687  156.1988 H   0  0  0  0  0  0  0  0  0  0  0  0  # atno 8010 bound_to 7997
  139.5317  144.2614  152.0704 H   0  0  0  0  0  0  0  0  0  0  0  0  # atno 10167 bound_to 10162
  157.6633  131.0870  150.6139 H   0  0  0  0  0  0  0  0  0  0  0  0  # atno 10718 bound_to 10713
  154.7597  135.3114  154.8403 H   0  0  0  0  0  0  0  0  0  0  0  0  # atno 10763 bound_to 10752
  153.9167  135.6800  153.4753 H   0  0  0  0  0  0  0  0  0  0  0  0  # atno 10764 bound_to 10752
  153.1196  135.4828  154.9105 H   0  0  0  0  0  0  0  0  0  0  0  0  # atno 10765 bound_to 10752
  140.1820  134.8468  157.2814 H   0  0  0  0  0  0  0  0  0  0  0  0  # atno 11005 bound_to 11000
  146.3512  140.0053  142.8672 LP  0  0  0  0  0  0  0  0  0  0  0  0  # atno 17320 bound_to 7965
  145.1614  140.9674  143.4375 LP  0  0  0  0  0  0  0  0  0  0  0  0  # atno 17321 bound_to 7965
  140.2078  144.4593  150.6400 LP  0  0  0  0  0  0  0  0  0  0  0  0  # atno 17342 bound_to 10162
  140.6500  143.2222  151.6099 LP  0  0  0  0  0  0  0  0  0  0  0  0  # atno 17343 bound_to 10162
  156.6441  130.4466  149.5742 LP  0  0  0  0  0  0  0  0  0  0  0  0  # atno 17370 bound_to 10713
  156.2187  130.6724  151.1346 LP  0  0  0  0  0  0  0  0  0  0  0  0  # atno 17371 bound_to 10713
  140.2256  134.3970  155.7545 LP  0  0  0  0  0  0  0  0  0  0  0  0  # atno 17394 bound_to 11000
  141.2223  133.7188  156.8560 LP  0  0  0  0  0  0  0  0  0  0  0  0  # atno 17395 bound_to 11000

$$$$
