AV-unprocessed.smi:3089|AV-procd|sdf|11771|dock10
  -GOLD-   2272017153D 1   1.00000     0.00000
 Structure written by MMmdl.
 25 25  0  0  0  0  0  0  0  0  2 V2000
  152.5185  138.4764  154.5210 C   0  0  0  0  0  0  0  0  0  0  0  0
  151.1253  138.8673  154.4850 N   0  0  0  0  0  0  0  0  0  0  0  0
  150.0183  138.0874  154.2315 C   0  0  0  0  0  0  0  0  0  0  0  0
  148.9153  138.8940  154.3059 C   0  0  0  0  0  0  0  0  0  0  0  0
  147.4597  138.5224  154.1145 C   0  0  2  0  0  0  0  0  0  0  0  0
  146.6727  138.7962  155.4077 C   0  0  0  0  0  0  0  0  0  0  0  0
  147.2976  137.1414  153.8483 O   0  0  0  0  0  0  0  0  0  0  0  0
  146.8377  139.2947  152.9299 C   0  0  0  0  0  0  0  0  0  0  0  0
  147.3460  138.8241  151.6276 N   0  3  0  0  0  0  0  0  0  0  0  0
  149.4715  140.1720  154.6099 C   0  0  0  0  0  0  0  0  0  0  0  0
  150.7892  140.1508  154.7213 N   0  0  0  0  0  0  0  0  0  0  0  0
  152.6143  137.4109  154.3109 H   0  0  0  0  0  0  0  0  0  0  0  0
  152.9349  138.6816  155.5078 H   0  0  0  0  0  0  0  0  0  0  0  0
  153.0789  139.0365  153.7720 H   0  0  0  0  0  0  0  0  0  0  0  0
  150.1044  137.0313  154.0218 H   0  0  0  0  0  0  0  0  0  0  0  0
  146.7081  139.8519  155.6795 H   0  0  0  0  0  0  0  0  0  0  0  0
  147.0780  138.2284  156.2464 H   0  0  0  0  0  0  0  0  0  0  0  0
  145.6220  138.5227  155.3028 H   0  0  0  0  0  0  0  0  0  0  0  0
  148.0727  136.8230  153.4107 H   0  0  0  0  0  0  0  0  0  0  0  0
  145.7508  139.2033  152.9358 H   0  0  0  0  0  0  0  0  0  0  0  0
  147.0626  140.3587  153.0132 H   0  0  0  0  0  0  0  0  0  0  0  0
  148.0474  139.4636  151.2833 H   0  0  0  0  0  0  0  0  0  0  0  0
  146.5806  138.7735  150.9703 H   0  0  0  0  0  0  0  0  0  0  0  0
  148.9575  141.1106  154.7570 H   0  0  0  0  0  0  0  0  0  0  0  0
  147.7504  137.9053  151.7393 H   0  0  0  0  0  0  0  0  0  0  0  0
  1  2  1  0  0  0  0
  1 12  1  0  0  0  0
  1 13  1  0  0  0  0
  1 14  1  0  0  0  0
  2 11  1  0  0  0  0
  2  3  1  0  0  0  0
  3  4  2  0  0  0  0
  3 15  1  0  0  0  0
  4  5  1  0  0  0  0
  4 10  1  0  0  0  0
  5  6  1  0  0  0  0
  5  7  1  0  0  0  0
  5  8  1  0  0  0  0
  6 16  1  0  0  0  0
  6 17  1  0  0  0  0
  6 18  1  0  0  0  0
  7 19  1  0  0  0  0
  8  9  1  0  0  0  0
  8 20  1  0  0  0  0
  8 21  1  0  0  0  0
  9 22  1  0  0  0  0
  9 23  1  0  0  0  0
  9 25  1  0  0  0  0
 10 11  2  0  0  0  0
 10 24  1  0  0  0  0
M  CHG  1   9   1
M  END
> <s_m_source_file>
AV-unprocessed.smi

> <i_m_source_file_index>
3089

> <i_lp_mmshare_version>
43012

> <i_f3d_flags>
0

> <s_epik_input>
W0NIM11uMVtjSF1jKFtjSF1uMSlbQ0BAXShbQ0gzXSkoW09IXSlbQ0gyXVtOSDJd

> <s_epik_cmdline>
J2VwaWtfcHl0aG9uJywgJy1waCcsICc3LjAnLCAnLXRuJywgJzgnLCAnLW1hJywgJzIwMCcsICctbWV0YWxfYmluZGluZycsICctaW1hZScsICc8aW5maWxlLm1hZT4nLCAnLW9tYWUnLCAnPG91dGZpbGUubWFlPic=

> <r_lp_tautomer_probability>
1

> <r_epik_Ionization_Penalty>
0.0140512

> <r_epik_Ionization_Penalty_Charging>
0.0140431

> <r_epik_Ionization_Penalty_Neutral>
8.10489e-06

> <r_epik_State_Penalty>
0.0109628

> <r_epik_Charging_Adjusted_Penalty>
0.0250059

> <i_epik_Tot_Q>
1

> <i_epik_Tot_abs_Q>
1

> <r_epik_Metal_State_Penalty>
0.0109638

> <b_epik_Metal_Only>
0

> <s_lp_Force_Field>
OPLS_2005

> <r_lp_Energy>
3.27267

> <b_lp_Chiralities_Consistent>
1

> <s_lp_Variant>
AV-unprocessed.smi:3089-2

> <Gold.Version>
5.8.1

> <Gold.Id.Protein>
6NUR|6NUR_protein|mol2

> <Gold.PLP.Fitness>
37.9656

> <Gold.PLP.PLP>
-21.0379

> <Gold.PLP.part.hbond>
-4.0000

> <Gold.PLP.part.metal>
0.0000

> <Gold.PLP.part.buried>
-3.3163

> <Gold.PLP.part.nonpolar>
-14.8863

> <Gold.PLP.part.repulsive>
0.7885

> <Gold.PLP.ligand.clash>
0.0000

> <Gold.PLP.ligand.torsion>
0.0992

> <Gold.PLP.Chemscore.Hbond>
5.0000

> <Gold.PLP.Chemscore.CHOScore>
0.7032

> <Gold.PLP.Chemscore.Metal>
0.0000

> <Gold.Chemscore.Hbonds>
donor molecule, donor type, donor heavy atom, donor atom, acceptor molecule, acceptor atom, score
      L1  H     7    19       P1  7948  1.00
      L1  H     9    22       P1  7957  1.00
      L1  H     9    25       P1  7948  2.00
      P1  H  7989  7998       L1    11  0.95
      L1  C     3    15       P1  7948  0.71

> <Gold.PLP.Chemscore.Internal.Correction>
0.0165

> <Gold.Rescore>
     Score         DG    S(hbond)    S(metal)    S(lipo)     H(rot)  DE(clash)    DE(int)     intcor
     17.33     -17.64       3.75        0.00      38.27       1.89       0.08       0.23       ----

> <Gold.Chemscore.Fitness>
17.3273

> <Gold.Chemscore.DG>
-17.6385

> <Gold.Chemscore.ZeroCoef>
-5.4800

> <Gold.Chemscore.Hbond>
3.7468

> <Gold.Chemscore.Metal>
0.0000

> <Gold.Chemscore.Lipo>
38.2744

> <Gold.Chemscore.Internal_Hbond>
0.0000

> <Gold.Chemscore.DEClash>
0.0805

> <Gold.Chemscore.DEInternal>
0.2306

> <Gold.Chemscore.Rot>
1.8883

> <Gold.Chemscore.Internal.Correction>
   9.000000E+99

> <Gold.Chemscore.Hbonds>
donor molecule, donor type, donor heavy atom, donor atom, acceptor molecule, acceptor atom, score
      L1  H     7    19       P1  7948  0.95
      L1  H     9    22       P1  7957  0.88
      L1  H     9    25       P1  7948  0.93
      P1  H  7989  7998       L1    11  0.20

> <Gold.Chemscore.Hbond.Weighted>
-12.5144

> <Gold.Chemscore.Metal.Weighted>
-0.0000

> <Gold.Chemscore.Lipo.Weighted>
-4.4781

> <Gold.Chemscore.Internal_Hbond.Weighted>
0.0000

> <Gold.Chemscore.DEClash.Weighted>
0.0805

> <Gold.Chemscore.DEInternal.Weighted>
0.2306

> <Gold.Chemscore.Rot.Weighted>
4.8341

> <Gold.Chemscore.Internal.Correction.Weighted>
   9.000000E+99

> <Gold.Protein.RotatedTorsions>
[ 6907 6896 6895 6894 ] final   53.15 input  -60.11 | X-H torsion
[ 7974 7965 7964 7962 ] final    1.17 input  175.53 | X-H torsion
[ 8008 7997 7996 7995 ] final  174.61 input   59.86 | X-H torsion
[ 10167 10162 10161 10158 ] final   89.86 input  -65.29 | X-H torsion
[ 10718 10713 10712 10709 ] final -164.52 input   66.30 | X-H torsion
[ 10763 10752 10751 10750 ] final -139.56 input  -60.55 | X-H torsion
[ 11005 11000 10999 10996 ] final   23.24 input  -57.11 | X-H torsion

> <Gold.Protein.ActiveResidues>
 VAL166  LYS551  ARG553  GLY616  TRP617  ASP618  TYR619  PRO620  LYS621  CYS622 
 ASP623  PHE694  ASN695  SER759  ASP760  ASP761  ALA762  ILE779  LEU786  VAL792 
 PHE793  MET794  SER795  GLU796  ALA797  LYS798  CYS799  TRP800  GLU811  SER814 

> <Gold.Protein.RotatedAtoms>
  152.3307  134.7263  160.0290 H   0  0  0  0  0  0  0  0  0  0  0  0  # atno 6907 bound_to 6896
  151.7681  133.3333  159.3444 H   0  0  0  0  0  0  0  0  0  0  0  0  # atno 6908 bound_to 6896
  150.7421  134.5976  159.6064 H   0  0  0  0  0  0  0  0  0  0  0  0  # atno 6909 bound_to 6896
  146.2439  140.1026  142.8347 H   0  0  0  0  0  0  0  0  0  0  0  0  # atno 7974 bound_to 7965
  156.0956  140.1430  156.9535 H   0  0  0  0  0  0  0  0  0  0  0  0  # atno 8008 bound_to 7997
  154.4669  140.0923  156.7091 H   0  0  0  0  0  0  0  0  0  0  0  0  # atno 8009 bound_to 7997
  155.4846  140.3446  155.4347 H   0  0  0  0  0  0  0  0  0  0  0  0  # atno 8010 bound_to 7997
  139.8531  144.6583  150.9146 H   0  0  0  0  0  0  0  0  0  0  0  0  # atno 10167 bound_to 10162
  156.6401  130.8965  151.2994 H   0  0  0  0  0  0  0  0  0  0  0  0  # atno 10718 bound_to 10713
  154.8605  135.3579  154.5567 H   0  0  0  0  0  0  0  0  0  0  0  0  # atno 10763 bound_to 10752
  153.6183  135.7007  153.5325 H   0  0  0  0  0  0  0  0  0  0  0  0  # atno 10764 bound_to 10752
  153.3150  135.4167  155.1329 H   0  0  0  0  0  0  0  0  0  0  0  0  # atno 10765 bound_to 10752
  140.3718  134.2014  155.7666 H   0  0  0  0  0  0  0  0  0  0  0  0  # atno 11005 bound_to 11000
  145.0555  140.9049  143.4970 LP  0  0  0  0  0  0  0  0  0  0  0  0  # atno 17320 bound_to 7965
  145.1132  139.2743  143.5626 LP  0  0  0  0  0  0  0  0  0  0  0  0  # atno 17321 bound_to 7965
  140.7785  143.3810  151.1477 LP  0  0  0  0  0  0  0  0  0  0  0  0  # atno 17342 bound_to 10162
  139.7446  143.8872  152.3060 LP  0  0  0  0  0  0  0  0  0  0  0  0  # atno 17343 bound_to 10162
  157.7173  130.9514  150.1305 LP  0  0  0  0  0  0  0  0  0  0  0  0  # atno 17370 bound_to 10713
  156.2165  130.3670  149.8607 LP  0  0  0  0  0  0  0  0  0  0  0  0  # atno 17371 bound_to 10713
  141.1952  133.8111  157.0725 LP  0  0  0  0  0  0  0  0  0  0  0  0  # atno 17394 bound_to 11000
  140.0546  134.9787  157.1197 LP  0  0  0  0  0  0  0  0  0  0  0  0  # atno 17395 bound_to 11000

$$$$
