AV-unprocessed.smi:2084|AV-procd|sdf|8515|dock5
  -GOLD-   2272011233D 1   1.00000     0.00000
 Structure written by MMmdl.
 38 39  0  0  0  0  0  0  0  0  3 V2000
  151.3701  138.0529  154.4306 C   0  0  0  0  0  0  0  0  0  0  0  0
  149.9928  137.4882  154.3750 N   0  3  0  0  0  0  0  0  0  0  0  0
  148.9917  138.5860  154.3360 C   0  0  0  0  0  0  0  0  0  0  0  0
  149.6882  136.3795  155.3523 C   0  0  0  0  0  0  0  0  0  0  0  0
  149.5976  136.9634  156.7988 C   0  0  0  0  0  0  0  0  0  0  0  0
  149.4079  135.9467  157.8343 N   0  0  0  0  0  0  0  0  0  0  0  0
  148.8866  136.1313  159.0552 C   0  0  0  0  0  0  0  0  0  0  0  0
  148.5277  137.2559  159.4112 O   0  0  0  0  0  0  0  0  0  0  0  0
  148.8001  134.9943  159.7806 N   0  5  0  0  0  0  0  0  0  0  0  0
  147.9177  134.9070  160.7892 C   0  0  0  0  0  0  0  0  0  0  0  0
  147.3254  135.9745  161.3364 N   0  0  0  0  0  0  0  0  0  0  0  0
  146.4491  135.6515  162.3742 C   0  0  0  0  0  0  0  0  0  0  0  0
  146.3799  134.3075  162.6290 C   0  0  0  0  0  0  0  0  0  0  0  0
  147.4182  133.4019  161.5657 S   0  0  0  0  0  0  0  0  0  0  0  0
  148.3438  135.6785  154.9839 C   0  0  0  0  0  0  0  0  0  0  0  0
  148.6995  134.2772  154.4824 C   0  0  0  0  0  0  0  0  0  0  0  0
  149.9747  133.9246  155.2384 C   0  0  0  0  0  0  0  0  0  0  0  0
  150.7501  135.2420  155.2962 C   0  0  0  0  0  0  0  0  0  0  0  0
  151.5363  138.6463  155.3287 H   0  0  0  0  0  0  0  0  0  0  0  0
  151.5316  138.7137  153.5785 H   0  0  0  0  0  0  0  0  0  0  0  0
  152.1517  137.2983  154.3767 H   0  0  0  0  0  0  0  0  0  0  0  0
  148.8398  139.0237  155.3229 H   0  0  0  0  0  0  0  0  0  0  0  0
  148.0309  138.2477  153.9507 H   0  0  0  0  0  0  0  0  0  0  0  0
  149.3167  139.3836  153.6669 H   0  0  0  0  0  0  0  0  0  0  0  0
  150.5266  137.4582  157.0772 H   0  0  0  0  0  0  0  0  0  0  0  0
  148.8220  137.7296  156.8440 H   0  0  0  0  0  0  0  0  0  0  0  0
  149.6868  135.0055  157.5983 H   0  0  0  0  0  0  0  0  0  0  0  0
  145.9164  136.4437  162.8788 H   0  0  0  0  0  0  0  0  0  0  0  0
  145.7865  133.7973  163.3723 H   0  0  0  0  0  0  0  0  0  0  0  0
  147.6994  135.5615  155.8528 H   0  0  0  0  0  0  0  0  0  0  0  0
  147.7315  136.2334  154.2735 H   0  0  0  0  0  0  0  0  0  0  0  0
  147.8994  133.5566  154.6540 H   0  0  0  0  0  0  0  0  0  0  0  0
  148.9013  134.3010  153.4111 H   0  0  0  0  0  0  0  0  0  0  0  0
  149.7242  133.5942  156.2475 H   0  0  0  0  0  0  0  0  0  0  0  0
  150.5400  133.1252  154.7588 H   0  0  0  0  0  0  0  0  0  0  0  0
  151.3771  135.3079  154.4091 H   0  0  0  0  0  0  0  0  0  0  0  0
  151.4365  135.2626  156.1435 H   0  0  0  0  0  0  0  0  0  0  0  0
  149.9342  137.0485  153.4676 H   0  0  0  0  0  0  0  0  0  0  0  0
  1  2  1  0  0  0  0
  1 19  1  0  0  0  0
  1 20  1  0  0  0  0
  1 21  1  0  0  0  0
  2  3  1  0  0  0  0
  2  4  1  0  0  0  0
  2 38  1  0  0  0  0
  3 22  1  0  0  0  0
  3 23  1  0  0  0  0
  3 24  1  0  0  0  0
  4 18  1  0  0  0  0
  4  5  1  0  0  0  0
  4 15  1  0  0  0  0
  5  6  1  0  0  0  0
  5 25  1  0  0  0  0
  5 26  1  0  0  0  0
  6  7  1  0  0  0  0
  6 27  1  0  0  0  0
  7  8  2  0  0  0  0
  7  9  1  0  0  0  0
  9 10  1  0  0  0  0
 10 14  1  0  0  0  0
 10 11  2  0  0  0  0
 11 12  1  0  0  0  0
 12 13  2  0  0  0  0
 12 28  1  0  0  0  0
 13 14  1  0  0  0  0
 13 29  1  0  0  0  0
 15 16  1  0  0  0  0
 15 30  1  0  0  0  0
 15 31  1  0  0  0  0
 16 17  1  0  0  0  0
 16 32  1  0  0  0  0
 16 33  1  0  0  0  0
 17 18  1  0  0  0  0
 17 34  1  0  0  0  0
 17 35  1  0  0  0  0
 18 36  1  0  0  0  0
 18 37  1  0  0  0  0
M  CHG  1   2   1
M  CHG  1   9  -1
M  END
> <s_m_source_file>
AV-unprocessed.smi

> <i_m_source_file_index>
2084

> <i_lp_mmshare_version>
43012

> <i_f3d_flags>
0

> <s_epik_input>
W0NIMl0xW0NIMl1bQ0gyXVtDSDJdQzEoTihbQ0gzXSlbQ0gzXSlbQ0gyXVtOSF1DKD1PKVtOSF1jMm5bY0hdW2NIXXMy

> <s_epik_cmdline>
J2VwaWtfcHl0aG9uJywgJy1waCcsICc3LjAnLCAnLXRuJywgJzgnLCAnLW1hJywgJzIwMCcsICctbWV0YWxfYmluZGluZycsICctaW1hZScsICc8aW5maWxlLm1hZT4nLCAnLW9tYWUnLCAnPG91dGZpbGUubWFlPic=

> <r_lp_tautomer_probability>
1

> <r_epik_Ionization_Penalty>
7.73928

> <r_epik_Ionization_Penalty_Charging>
6.33943

> <r_epik_Ionization_Penalty_Neutral>
1.39985

> <r_epik_State_Penalty>
6.33766

> <r_epik_Charging_Adjusted_Penalty>
12.6771

> <i_epik_Tot_Q>
0

> <i_epik_Tot_abs_Q>
2

> <r_epik_Metal_State_Penalty>
2.27131

> <b_epik_Metal_Only>
1

> <s_lp_Force_Field>
OPLS_2005

> <r_lp_Energy>
28.85

> <b_lp_Chiralities_Consistent>
1

> <s_lp_Variant>
AV-unprocessed.smi:2084-2

> <Gold.Version>
5.8.1

> <Gold.Id.Protein>
6NUR|6NUR_protein|mol2

> <Gold.PLP.Fitness>
46.3367

> <Gold.PLP.PLP>
-30.6447

> <Gold.PLP.part.hbond>
-6.0000

> <Gold.PLP.part.metal>
0.0000

> <Gold.PLP.part.buried>
-2.1823

> <Gold.PLP.part.nonpolar>
-22.3975

> <Gold.PLP.part.repulsive>
0.1134

> <Gold.PLP.ligand.clash>
0.0000

> <Gold.PLP.ligand.torsion>
0.4423

> <Gold.PLP.Chemscore.Hbond>
5.4802

> <Gold.PLP.Chemscore.CHOScore>
0.0000

> <Gold.PLP.Chemscore.Metal>
0.0000

> <Gold.Chemscore.Hbonds>
donor molecule, donor type, donor heavy atom, donor atom, acceptor molecule, acceptor atom, score
      L1  H     2    38       P1  7948  2.00
      P1  H  6896  6909       L1     9  1.32

> <Gold.PLP.Chemscore.Internal.Correction>
0.1359

> <Gold.Rescore>
     Score         DG    S(hbond)    S(metal)    S(lipo)     H(rot)  DE(clash)    DE(int)     intcor
     16.95     -18.17       2.90        0.00      59.81       1.55       0.18       1.04       ----

> <Gold.Chemscore.Fitness>
16.9468

> <Gold.Chemscore.DG>
-18.1694

> <Gold.Chemscore.ZeroCoef>
-5.4800

> <Gold.Chemscore.Hbond>
2.8957

> <Gold.Chemscore.Metal>
0.0000

> <Gold.Chemscore.Lipo>
59.8076

> <Gold.Chemscore.Internal_Hbond>
0.0000

> <Gold.Chemscore.DEClash>
0.1829

> <Gold.Chemscore.DEInternal>
1.0396

> <Gold.Chemscore.Rot>
1.5546

> <Gold.Chemscore.Internal.Correction>
   9.000000E+99

> <Gold.Chemscore.Hbonds>
donor molecule, donor type, donor heavy atom, donor atom, acceptor molecule, acceptor atom, score
      L1  H     2    38       P1  7948  0.33
      P1  H  6896  6909       L1     9  0.07

> <Gold.Chemscore.Hbond.Weighted>
-9.6717

> <Gold.Chemscore.Metal.Weighted>
-0.0000

> <Gold.Chemscore.Lipo.Weighted>
-6.9975

> <Gold.Chemscore.Internal_Hbond.Weighted>
0.0000

> <Gold.Chemscore.DEClash.Weighted>
0.1829

> <Gold.Chemscore.DEInternal.Weighted>
1.0396

> <Gold.Chemscore.Rot.Weighted>
3.9798

> <Gold.Chemscore.Internal.Correction.Weighted>
   9.000000E+99

> <Gold.Protein.RotatedTorsions>
[ 6907 6896 6895 6894 ] final   52.18 input  -60.11 | X-H torsion
[ 7974 7965 7964 7962 ] final   90.20 input  175.53 | X-H torsion
[ 8008 7997 7996 7995 ] final   -5.33 input   59.86 | X-H torsion
[ 10167 10162 10161 10158 ] final  -65.41 input  -65.29 | X-H torsion
[ 10718 10713 10712 10709 ] final -129.60 input   66.30 | X-H torsion
[ 10763 10752 10751 10750 ] final -149.01 input  -60.55 | X-H torsion
[ 11005 11000 10999 10996 ] final   91.60 input  -57.11 | X-H torsion

> <Gold.Protein.ActiveResidues>
 VAL166  LYS551  ARG553  GLY616  TRP617  ASP618  TYR619  PRO620  LYS621  CYS622 
 ASP623  PHE694  ASN695  SER759  ASP760  ASP761  ALA762  ILE779  LEU786  VAL792 
 PHE793  MET794  SER795  GLU796  ALA797  LYS798  CYS799  TRP800  GLU811  SER814 

> <Gold.Protein.RotatedAtoms>
  152.3205  134.7386  160.0314 H   0  0  0  0  0  0  0  0  0  0  0  0  # atno 6907 bound_to 6896
  151.7836  133.3347  159.3486 H   0  0  0  0  0  0  0  0  0  0  0  0  # atno 6908 bound_to 6896
  150.7367  134.5839  159.5997 H   0  0  0  0  0  0  0  0  0  0  0  0  # atno 6909 bound_to 6896
  145.5222  139.2280  143.2665 H   0  0  0  0  0  0  0  0  0  0  0  0  # atno 7974 bound_to 7965
  154.6051  140.2461  155.7742 H   0  0  0  0  0  0  0  0  0  0  0  0  # atno 8008 bound_to 7997
  156.2335  140.2958  156.0203 H   0  0  0  0  0  0  0  0  0  0  0  0  # atno 8009 bound_to 7997
  155.2146  140.0398  157.2929 H   0  0  0  0  0  0  0  0  0  0  0  0  # atno 8010 bound_to 7997
  140.5731  143.2319  151.6497 H   0  0  0  0  0  0  0  0  0  0  0  0  # atno 10167 bound_to 10162
  156.2063  130.6889  151.0597 H   0  0  0  0  0  0  0  0  0  0  0  0  # atno 10718 bound_to 10713
  154.8201  135.3320  154.7062 H   0  0  0  0  0  0  0  0  0  0  0  0  # atno 10763 bound_to 10752
  153.7697  135.6926  153.4913 H   0  0  0  0  0  0  0  0  0  0  0  0  # atno 10764 bound_to 10752
  153.2053  135.4501  155.0264 H   0  0  0  0  0  0  0  0  0  0  0  0  # atno 10765 bound_to 10752
  139.8836  134.8684  156.3452 H   0  0  0  0  0  0  0  0  0  0  0  0  # atno 11005 bound_to 11000
  146.2098  140.6035  142.9064 LP  0  0  0  0  0  0  0  0  0  0  0  0  # atno 17320 bound_to 7965
  144.7670  140.5552  143.6696 LP  0  0  0  0  0  0  0  0  0  0  0  0  # atno 17321 bound_to 7965
  139.5128  144.3464  152.0693 LP  0  0  0  0  0  0  0  0  0  0  0  0  # atno 17342 bound_to 10162
  140.2604  144.4073  150.6188 LP  0  0  0  0  0  0  0  0  0  0  0  0  # atno 17343 bound_to 10162
  157.7014  131.0774  150.6809 LP  0  0  0  0  0  0  0  0  0  0  0  0  # atno 17370 bound_to 10713
  156.6867  130.4583  149.5611 LP  0  0  0  0  0  0  0  0  0  0  0  0  # atno 17371 bound_to 10713
  140.9632  133.7375  156.0430 LP  0  0  0  0  0  0  0  0  0  0  0  0  # atno 17394 bound_to 11000
  140.7964  134.3559  157.5451 LP  0  0  0  0  0  0  0  0  0  0  0  0  # atno 17395 bound_to 11000

$$$$
