AV-unprocessed.smi:158|AV-procd|sdf|1338|dock7
  -GOLD-   2262019 33D 1   1.00000     0.00000
 Structure written by MMmdl.
 31 33  0  0  0  0  0  0  0  0  1 V2000
  147.8717  140.6160  152.8566 N   0  0  0  0  0  0  0  0  0  0  0  0
  147.8676  140.9666  154.1507 C   0  0  0  0  0  0  0  0  0  0  0  0
  146.7078  141.4009  154.6968 N   0  0  0  0  0  0  0  0  0  0  0  0
  146.6613  141.7616  155.9851 C   0  0  0  0  0  0  0  0  0  0  0  0
  145.1354  142.3022  156.5789 Cl  0  0  0  0  0  0  0  0  0  0  0  0
  147.6666  141.7516  156.8660 N   0  0  0  0  0  0  0  0  0  0  0  0
  148.8381  141.3137  156.3213 C   0  0  0  0  0  0  0  0  0  0  0  0
  149.0196  140.9048  154.9728 C   0  0  0  0  0  0  0  0  0  0  0  0
  150.3386  140.5248  154.7663 N   0  0  0  0  0  0  0  0  0  0  0  0
  150.9014  140.7012  155.9319 C   0  0  0  0  0  0  0  0  0  0  0  0
  150.0713  141.1716  156.9263 N   0  0  0  0  0  0  0  0  0  0  0  0
  150.4326  141.4660  158.3502 C   0  0  1  0  0  0  0  0  0  0  0  0
  151.1035  140.3542  158.8612 O   0  0  0  0  0  0  0  0  0  0  0  0
  152.2966  140.7614  159.5225 C   0  0  1  0  0  0  0  0  0  0  0  0
  153.3255  139.6203  159.4719 C   0  0  0  0  0  0  0  0  0  0  0  0
  154.6303  140.1367  159.3154 O   0  0  0  0  0  0  0  0  0  0  0  0
  152.7149  142.0408  158.7905 C   0  0  2  0  0  0  0  0  0  0  0  0
  153.4888  142.8908  159.6136 O   0  0  0  0  0  0  0  0  0  0  0  0
  151.3738  142.6776  158.4718 C   0  0  1  0  0  0  0  0  0  0  0  0
  151.4064  143.4025  157.3511 F   0  0  0  0  0  0  0  0  0  0  0  0
  149.4763  141.6133  158.8534 H   0  0  0  0  0  0  0  0  0  0  0  0
  152.0247  140.9864  160.5557 H   0  0  0  0  0  0  0  0  0  0  0  0
  153.2568  141.8085  157.8737 H   0  0  0  0  0  0  0  0  0  0  0  0
  151.0190  143.3114  159.2857 H   0  0  0  0  0  0  0  0  0  0  0  0
  148.7258  140.2896  152.4275 H   0  0  0  0  0  0  0  0  0  0  0  0
  147.0225  140.6773  152.3138 H   0  0  0  0  0  0  0  0  0  0  0  0
  151.9471  140.4880  156.1001 H   0  0  0  0  0  0  0  0  0  0  0  0
  153.2984  139.0525  160.4022 H   0  0  0  0  0  0  0  0  0  0  0  0
  153.1037  138.9230  158.6636 H   0  0  0  0  0  0  0  0  0  0  0  0
  155.2368  139.5574  159.7511 H   0  0  0  0  0  0  0  0  0  0  0  0
  153.1346  142.8684  160.4892 H   0  0  0  0  0  0  0  0  0  0  0  0
  1  2  1  0  0  0  0
  1 25  1  0  0  0  0
  1 26  1  0  0  0  0
  2  8  1  0  0  0  0
  2  3  2  0  0  0  0
  3  4  1  0  0  0  0
  4  5  1  0  0  0  0
  4  6  2  0  0  0  0
  6  7  1  0  0  0  0
  7 11  1  0  0  0  0
  7  8  2  0  0  0  0
  8  9  1  0  0  0  0
  9 10  2  0  0  0  0
 10 11  1  0  0  0  0
 10 27  1  0  0  0  0
 11 12  1  0  0  0  0
 12 21  1  0  0  0  0
 12 19  1  0  0  0  0
 12 13  1  0  0  0  0
 13 14  1  0  0  0  0
 14 22  1  0  0  0  0
 14 15  1  0  0  0  0
 14 17  1  0  0  0  0
 15 16  1  0  0  0  0
 15 28  1  0  0  0  0
 15 29  1  0  0  0  0
 16 30  1  0  0  0  0
 17 23  1  0  0  0  0
 17 18  1  0  0  0  0
 17 19  1  0  0  0  0
 18 31  1  0  0  0  0
 19 24  1  0  0  0  0
 19 20  1  0  0  0  0
M  END
> <s_m_source_file>
AV-unprocessed.smi

> <i_m_source_file_index>
158

> <i_lp_mmshare_version>
43012

> <i_f3d_flags>
0

> <s_epik_input>
Q2xjKG4xKW5jKFtOSDJdKWMoYzEyKW5bY0hdbjJbQ0BASF0zT1tDQEhdKFtDSDJdW09IXSlbQ0BASF0oW09IXSlbQ0BASF0zRg==

> <s_epik_cmdline>
J2VwaWtfcHl0aG9uJywgJy1waCcsICc3LjAnLCAnLXRuJywgJzgnLCAnLW1hJywgJzIwMCcsICctbWV0YWxfYmluZGluZycsICctaW1hZScsICc8aW5maWxlLm1hZT4nLCAnLW9tYWUnLCAnPG91dGZpbGUubWFlPic=

> <r_lp_tautomer_probability>
1

> <r_epik_Ionization_Penalty>
6.51543e-05

> <r_epik_Ionization_Penalty_Charging>
0

> <r_epik_Ionization_Penalty_Neutral>
6.51543e-05

> <r_epik_State_Penalty>
-0

> <r_epik_Charging_Adjusted_Penalty>
0

> <i_epik_Tot_Q>
0

> <i_epik_Tot_abs_Q>
0

> <r_epik_Metal_State_Penalty>
-0

> <b_epik_Metal_Only>
0

> <s_epik_Chemistry_Notes>
This compound contains an acetal/aminal-like group ( X-CH(R)-Y where X, Y are N, S, or O) that may be acid/base labile, releasing an aldehyde.

> <s_lp_Force_Field>
OPLS_2005

> <r_lp_Energy>
35.9184

> <b_lp_Chiralities_Consistent>
1

> <s_lp_Variant>
AV-unprocessed.smi:158-16

> <Gold.Version>
5.8.1

> <Gold.Id.Protein>
6NUR|6NUR_protein|mol2

> <Gold.PLP.Fitness>
35.8243

> <Gold.PLP.PLP>
-28.1996

> <Gold.PLP.part.hbond>
-2.8794

> <Gold.PLP.part.metal>
0.0000

> <Gold.PLP.part.buried>
-6.0637

> <Gold.PLP.part.nonpolar>
-20.2221

> <Gold.PLP.part.repulsive>
0.4603

> <Gold.PLP.ligand.clash>
0.0000

> <Gold.PLP.ligand.torsion>
0.6322

> <Gold.PLP.Chemscore.Hbond>
2.9520

> <Gold.PLP.Chemscore.CHOScore>
0.0000

> <Gold.PLP.Chemscore.Metal>
0.0000

> <Gold.Chemscore.Hbonds>
donor molecule, donor type, donor heavy atom, donor atom, acceptor molecule, acceptor atom, score
      L1  H     1    25       P1  7957  0.99
      P1  H  7989  7998       L1     9  0.96
      P1  H  7997  8009       L1    16  0.98

> <Gold.PLP.Chemscore.Internal.Correction>
0.0331

> <Gold.Rescore>
     Score         DG    S(hbond)    S(metal)    S(lipo)     H(rot)  DE(clash)    DE(int)     intcor
      7.86      -9.40       2.21        0.00      38.84       3.12       0.37       1.17       ----

> <Gold.Chemscore.Fitness>
7.8636

> <Gold.Chemscore.DG>
-9.4029

> <Gold.Chemscore.ZeroCoef>
-5.4800

> <Gold.Chemscore.Hbond>
2.2075

> <Gold.Chemscore.Metal>
0.0000

> <Gold.Chemscore.Lipo>
38.8435

> <Gold.Chemscore.Internal_Hbond>
0.0000

> <Gold.Chemscore.DEClash>
0.3684

> <Gold.Chemscore.DEInternal>
1.1710

> <Gold.Chemscore.Rot>
3.1230

> <Gold.Chemscore.Internal.Correction>
   9.000000E+99

> <Gold.Chemscore.Hbonds>
donor molecule, donor type, donor heavy atom, donor atom, acceptor molecule, acceptor atom, score
      L1  H     1    25       P1  7957  0.91
      P1  H  7989  7998       L1     9  0.56
      P1  H  7997  8009       L1    16  0.29

> <Gold.Chemscore.Hbond.Weighted>
-7.3732

> <Gold.Chemscore.Metal.Weighted>
-0.0000

> <Gold.Chemscore.Lipo.Weighted>
-4.5447

> <Gold.Chemscore.Internal_Hbond.Weighted>
0.0000

> <Gold.Chemscore.DEClash.Weighted>
0.3684

> <Gold.Chemscore.DEInternal.Weighted>
1.1710

> <Gold.Chemscore.Rot.Weighted>
7.9950

> <Gold.Chemscore.Internal.Correction.Weighted>
   9.000000E+99

> <Gold.Protein.RotatedTorsions>
[ 6907 6896 6895 6894 ] final  -11.37 input  -60.11 | X-H torsion
[ 7974 7965 7964 7962 ] final   62.89 input  175.53 | X-H torsion
[ 8008 7997 7996 7995 ] final  121.50 input   59.86 | X-H torsion
[ 10167 10162 10161 10158 ] final  -23.54 input  -65.29 | X-H torsion
[ 10718 10713 10712 10709 ] final -154.96 input   66.30 | X-H torsion
[ 10763 10752 10751 10750 ] final  124.47 input  -60.55 | X-H torsion
[ 11005 11000 10999 10996 ] final  130.47 input  -57.11 | X-H torsion

> <Gold.Protein.ActiveResidues>
 VAL166  LYS551  ARG553  GLY616  TRP617  ASP618  TYR619  PRO620  LYS621  CYS622 
 ASP623  PHE694  ASN695  SER759  ASP760  ASP761  ALA762  ILE779  LEU786  VAL792 
 PHE793  MET794  SER795  GLU796  ALA797  LYS798  CYS799  TRP800  GLU811  SER814 

> <Gold.Protein.RotatedAtoms>
  151.3872  135.0950  159.9514 H   0  0  0  0  0  0  0  0  0  0  0  0  # atno 6907 bound_to 6896
  152.5090  133.9015  159.7453 H   0  0  0  0  0  0  0  0  0  0  0  0  # atno 6908 bound_to 6896
  150.9460  133.6546  159.2810 H   0  0  0  0  0  0  0  0  0  0  0  0  # atno 6909 bound_to 6896
  145.8682  139.3360  143.0778 H   0  0  0  0  0  0  0  0  0  0  0  0  # atno 7974 bound_to 7965
  156.2689  140.2807  156.1319 H   0  0  0  0  0  0  0  0  0  0  0  0  # atno 8008 bound_to 7997
  155.1045  140.0390  157.2724 H   0  0  0  0  0  0  0  0  0  0  0  0  # atno 8009 bound_to 7997
  154.6789  140.2604  155.6934 H   0  0  0  0  0  0  0  0  0  0  0  0  # atno 8010 bound_to 7997
  140.7288  143.4434  151.0623 H   0  0  0  0  0  0  0  0  0  0  0  0  # atno 10167 bound_to 10162
  156.5063  130.8414  151.2629 H   0  0  0  0  0  0  0  0  0  0  0  0  # atno 10718 bound_to 10713
  153.6619  135.3345  155.3129 H   0  0  0  0  0  0  0  0  0  0  0  0  # atno 10763 bound_to 10752
  154.8512  135.4366  154.1795 H   0  0  0  0  0  0  0  0  0  0  0  0  # atno 10764 bound_to 10752
  153.2764  135.7005  153.7504 H   0  0  0  0  0  0  0  0  0  0  0  0  # atno 10765 bound_to 10752
  139.9674  134.9587  156.9298 H   0  0  0  0  0  0  0  0  0  0  0  0  # atno 11005 bound_to 11000
  145.9168  140.9142  143.0425 LP  0  0  0  0  0  0  0  0  0  0  0  0  # atno 17320 bound_to 7965
  144.6726  140.1235  143.7448 LP  0  0  0  0  0  0  0  0  0  0  0  0  # atno 17321 bound_to 7965
  139.8103  143.7960  152.3170 LP  0  0  0  0  0  0  0  0  0  0  0  0  # atno 17342 bound_to 10162
  139.8007  144.7375  150.9828 LP  0  0  0  0  0  0  0  0  0  0  0  0  # atno 17343 bound_to 10162
  157.7456  130.9964  150.2780 LP  0  0  0  0  0  0  0  0  0  0  0  0  # atno 17370 bound_to 10713
  156.3283  130.3796  149.7513 LP  0  0  0  0  0  0  0  0  0  0  0  0  # atno 17371 bound_to 10713
  140.5367  134.0760  155.7330 LP  0  0  0  0  0  0  0  0  0  0  0  0  # atno 17394 bound_to 11000
  141.1354  133.9231  157.2446 LP  0  0  0  0  0  0  0  0  0  0  0  0  # atno 17395 bound_to 11000

$$$$
