AV-unprocessed.smi:1605|AV-procd|sdf|6453|dock3
  -GOLD-   22720 7103D 1   1.00000     0.00000
 Structure written by MMmdl.
 51 53  0  0  0  0  0  0  0  0  2 V2000
  144.2469  137.2928  155.6587 C   0  0  0  0  0  0  0  0  0  0  0  0
  144.6668  137.8719  154.4328 O   0  0  0  0  0  0  0  0  0  0  0  0
  145.4825  137.0251  153.6310 C   0  0  2  0  0  0  0  0  0  0  0  0
  146.7323  136.6603  154.4468 C   0  0  0  0  0  0  0  0  0  0  0  0
  147.6397  137.8823  154.6757 C   0  0  0  0  0  0  0  0  0  0  0  0
  148.0250  138.5158  153.3884 N   0  3  2  0  0  0  0  0  0  0  0  0
  149.0123  139.6116  153.5697 C   0  0  0  0  0  0  0  0  0  0  0  0
  148.7090  140.4757  154.8095 C   0  0  2  0  0  0  0  0  0  0  0  0
  147.4589  141.1136  154.6279 O   0  0  0  0  0  0  0  0  0  0  0  0
  149.7937  141.5428  155.0509 C   0  0  0  0  0  0  0  0  0  0  0  0
  150.8078  141.0920  155.9869 N   0  0  0  0  0  0  0  0  0  0  0  0
  151.5895  139.9999  155.8823 C   0  0  0  0  0  0  0  0  0  0  0  0
  152.4626  139.7809  156.8612 N   0  0  0  0  0  0  0  0  0  0  0  0
  152.2162  140.8534  157.7013 C   0  0  0  0  0  0  0  0  0  0  0  0
  152.8123  141.2135  158.9295 C   0  0  0  0  0  0  0  0  0  0  0  0
  152.3945  142.3698  159.6266 C   0  0  0  0  0  0  0  0  0  0  0  0
  153.0639  142.7202  160.9439 C   0  0  0  0  0  0  0  0  0  0  0  0
  151.3637  143.1863  159.0956 C   0  0  0  0  0  0  0  0  0  0  0  0
  150.8963  144.4313  159.8287 C   0  0  0  0  0  0  0  0  0  0  0  0
  150.7592  142.8425  157.8683 C   0  0  0  0  0  0  0  0  0  0  0  0
  151.1841  141.6899  157.1844 C   0  0  0  0  0  0  0  0  0  0  0  0
  146.8297  138.9239  152.6026 C   0  0  0  0  0  0  0  0  0  0  0  0
  145.9118  137.7210  152.3253 C   0  0  0  0  0  0  0  0  0  0  0  0
  143.6604  138.0204  156.2195 H   0  0  0  0  0  0  0  0  0  0  0  0
  145.1006  137.0078  156.2747 H   0  0  0  0  0  0  0  0  0  0  0  0
  143.6200  136.4157  155.5011 H   0  0  0  0  0  0  0  0  0  0  0  0
  144.9396  136.1063  153.4028 H   0  0  0  0  0  0  0  0  0  0  0  0
  146.4400  136.2267  155.4040 H   0  0  0  0  0  0  0  0  0  0  0  0
  147.2950  135.8878  153.9210 H   0  0  0  0  0  0  0  0  0  0  0  0
  147.1369  138.6156  155.3081 H   0  0  0  0  0  0  0  0  0  0  0  0
  148.5347  137.5636  155.2114 H   0  0  0  0  0  0  0  0  0  0  0  0
  150.0136  139.1831  153.6358 H   0  0  0  0  0  0  0  0  0  0  0  0
  149.0187  140.2585  152.6910 H   0  0  0  0  0  0  0  0  0  0  0  0
  148.6402  139.8486  155.6975 H   0  0  0  0  0  0  0  0  0  0  0  0
  147.4551  141.5402  153.7844 H   0  0  0  0  0  0  0  0  0  0  0  0
  150.2903  141.7947  154.1129 H   0  0  0  0  0  0  0  0  0  0  0  0
  149.3511  142.4661  155.4277 H   0  0  0  0  0  0  0  0  0  0  0  0
  151.5174  139.3303  155.0375 H   0  0  0  0  0  0  0  0  0  0  0  0
  153.5969  140.5912  159.3339 H   0  0  0  0  0  0  0  0  0  0  0  0
  153.5361  143.7010  160.8834 H   0  0  0  0  0  0  0  0  0  0  0  0
  153.8338  141.9937  161.2050 H   0  0  0  0  0  0  0  0  0  0  0  0
  152.3327  142.7369  161.7524 H   0  0  0  0  0  0  0  0  0  0  0  0
  150.0860  144.9276  159.2936 H   0  0  0  0  0  0  0  0  0  0  0  0
  151.7152  145.1434  159.9325 H   0  0  0  0  0  0  0  0  0  0  0  0
  150.5315  144.1749  160.8235 H   0  0  0  0  0  0  0  0  0  0  0  0
  149.9745  143.4567  157.4522 H   0  0  0  0  0  0  0  0  0  0  0  0
  146.2818  139.6973  153.1433 H   0  0  0  0  0  0  0  0  0  0  0  0
  147.1296  139.3614  151.6513 H   0  0  0  0  0  0  0  0  0  0  0  0
  146.4438  137.0056  151.6971 H   0  0  0  0  0  0  0  0  0  0  0  0
  145.0450  138.0370  151.7459 H   0  0  0  0  0  0  0  0  0  0  0  0
  148.4985  137.8002  152.8550 H   0  0  0  0  0  0  0  0  0  0  0  0
  1  2  1  0  0  0  0
  1 24  1  0  0  0  0
  1 25  1  0  0  0  0
  1 26  1  0  0  0  0
  2  3  1  0  0  0  0
  3 23  1  0  0  0  0
  3  4  1  0  0  0  0
  3 27  1  0  0  0  0
  4  5  1  0  0  0  0
  4 28  1  0  0  0  0
  4 29  1  0  0  0  0
  5  6  1  0  0  0  0
  5 30  1  0  0  0  0
  5 31  1  0  0  0  0
  6  7  1  0  0  0  0
  6 22  1  0  0  0  0
  6 51  1  0  0  0  0
  7  8  1  0  0  0  0
  7 32  1  0  0  0  0
  7 33  1  0  0  0  0
  8  9  1  0  0  0  0
  8 10  1  0  0  0  0
  8 34  1  0  0  0  0
  9 35  1  0  0  0  0
 10 11  1  0  0  0  0
 10 36  1  0  0  0  0
 10 37  1  0  0  0  0
 11 21  1  0  0  0  0
 11 12  1  0  0  0  0
 12 13  2  0  0  0  0
 12 38  1  0  0  0  0
 13 14  1  0  0  0  0
 14 21  2  0  0  0  0
 14 15  1  0  0  0  0
 15 16  2  0  0  0  0
 15 39  1  0  0  0  0
 16 17  1  0  0  0  0
 16 18  1  0  0  0  0
 17 40  1  0  0  0  0
 17 41  1  0  0  0  0
 17 42  1  0  0  0  0
 18 19  1  0  0  0  0
 18 20  2  0  0  0  0
 19 43  1  0  0  0  0
 19 44  1  0  0  0  0
 19 45  1  0  0  0  0
 20 21  1  0  0  0  0
 20 46  1  0  0  0  0
 22 23  1  0  0  0  0
 22 47  1  0  0  0  0
 22 48  1  0  0  0  0
 23 49  1  0  0  0  0
 23 50  1  0  0  0  0
M  CHG  1   6   1
M  END
> <s_m_source_file>
AV-unprocessed.smi

> <i_m_source_file_index>
1605

> <i_lp_mmshare_version>
43012

> <i_f3d_flags>
0

> <s_epik_input>
W0NIM11PW0NIXTFbQ0gyXVtDSDJdTihbQ0gyXVtDSDJdMSlbQ0gyXVtDQEhdKFtPSF0pW0NIMl1uKFtjSF1uMiljKGMyMylbY0hdYyhbQ0gzXSljKFtjSF0zKVtDSDNd

> <s_epik_cmdline>
J2VwaWtfcHl0aG9uJywgJy1waCcsICc3LjAnLCAnLXRuJywgJzgnLCAnLW1hJywgJzIwMCcsICctbWV0YWxfYmluZGluZycsICctaW1hZScsICc8aW5maWxlLm1hZT4nLCAnLW9tYWUnLCAnPG91dGZpbGUubWFlPic=

> <r_epik_Ionization_Penalty>
0.110943

> <r_epik_Ionization_Penalty_Charging>
0.0229283

> <r_epik_Ionization_Penalty_Neutral>
0.0880146

> <r_epik_State_Penalty>
0.0947554

> <r_epik_Charging_Adjusted_Penalty>
0.117684

> <i_epik_Tot_Q>
1

> <i_epik_Tot_abs_Q>
1

> <r_epik_Metal_State_Penalty>
0.0192456

> <b_epik_Metal_Only>
0

> <s_lp_Force_Field>
OPLS_2005

> <r_lp_Energy>
23.6879

> <b_lp_Chiralities_Consistent>
1

> <s_lp_Variant>
AV-unprocessed.smi:1605-3

> <Gold.Version>
5.8.1

> <Gold.Id.Protein>
6NUR|6NUR_protein|mol2

> <Gold.PLP.Fitness>
47.2303

> <Gold.PLP.PLP>
-39.6147

> <Gold.PLP.part.hbond>
-2.8693

> <Gold.PLP.part.metal>
0.0000

> <Gold.PLP.part.buried>
-0.1834

> <Gold.PLP.part.nonpolar>
-36.8181

> <Gold.PLP.part.repulsive>
0.1386

> <Gold.PLP.ligand.clash>
0.0000

> <Gold.PLP.ligand.torsion>
0.7373

> <Gold.PLP.Chemscore.Hbond>
3.0000

> <Gold.PLP.Chemscore.CHOScore>
0.0000

> <Gold.PLP.Chemscore.Metal>
0.0000

> <Gold.Chemscore.Hbonds>
donor molecule, donor type, donor heavy atom, donor atom, acceptor molecule, acceptor atom, score
      L1  H     6    51       P1  7948  2.00
      P1  H  7997  8009       L1    13  1.00

> <Gold.PLP.Chemscore.Internal.Correction>
0.0901

> <Gold.Rescore>
     Score         DG    S(hbond)    S(metal)    S(lipo)     H(rot)  DE(clash)    DE(int)     intcor
     16.20     -18.96       1.62        0.00     117.35       2.22       1.93       0.83       ----

> <Gold.Chemscore.Fitness>
16.1987

> <Gold.Chemscore.DG>
-18.9555

> <Gold.Chemscore.ZeroCoef>
-5.4800

> <Gold.Chemscore.Hbond>
1.6229

> <Gold.Chemscore.Metal>
0.0000

> <Gold.Chemscore.Lipo>
117.3534

> <Gold.Chemscore.Internal_Hbond>
0.0000

> <Gold.Chemscore.DEClash>
1.9289

> <Gold.Chemscore.DEInternal>
0.8278

> <Gold.Chemscore.Rot>
2.2169

> <Gold.Chemscore.Internal.Correction>
   9.000000E+99

> <Gold.Chemscore.Hbonds>
donor molecule, donor type, donor heavy atom, donor atom, acceptor molecule, acceptor atom, score
      L1  H     6    51       P1  7948  1.00
      P1  H  7997  8009       L1    13  0.26

> <Gold.Chemscore.Hbond.Weighted>
-5.4205

> <Gold.Chemscore.Metal.Weighted>
-0.0000

> <Gold.Chemscore.Lipo.Weighted>
-13.7304

> <Gold.Chemscore.Internal_Hbond.Weighted>
0.0000

> <Gold.Chemscore.DEClash.Weighted>
1.9289

> <Gold.Chemscore.DEInternal.Weighted>
0.8278

> <Gold.Chemscore.Rot.Weighted>
5.6753

> <Gold.Chemscore.Internal.Correction.Weighted>
   9.000000E+99

> <Gold.Protein.RotatedTorsions>
[ 6907 6896 6895 6894 ] final   27.84 input  -60.11 | X-H torsion
[ 7974 7965 7964 7962 ] final   70.67 input  175.53 | X-H torsion
[ 8008 7997 7996 7995 ] final -162.37 input   59.86 | X-H torsion
[ 10167 10162 10161 10158 ] final   65.99 input  -65.29 | X-H torsion
[ 10718 10713 10712 10709 ] final  -42.70 input   66.30 | X-H torsion
[ 10763 10752 10751 10750 ] final -126.78 input  -60.55 | X-H torsion
[ 11005 11000 10999 10996 ] final  -84.07 input  -57.11 | X-H torsion

> <Gold.Protein.ActiveResidues>
 VAL166  LYS551  ARG553  GLY616  TRP617  ASP618  TYR619  PRO620  LYS621  CYS622 
 ASP623  PHE694  ASN695  SER759  ASP760  ASP761  ALA762  ILE779  LEU786  VAL792 
 PHE793  MET794  SER795  GLU796  ALA797  LYS798  CYS799  TRP800  GLU811  SER814 

> <Gold.Protein.RotatedAtoms>
  152.0082  134.9891  160.0567 H   0  0  0  0  0  0  0  0  0  0  0  0  # atno 6907 bound_to 6896
  152.1454  133.4484  159.4795 H   0  0  0  0  0  0  0  0  0  0  0  0  # atno 6908 bound_to 6896
  150.6869  134.2173  159.4426 H   0  0  0  0  0  0  0  0  0  0  0  0  # atno 6909 bound_to 6896
  145.7753  139.2862  143.1297 H   0  0  0  0  0  0  0  0  0  0  0  0  # atno 7974 bound_to 7965
  155.8058  140.0898  157.1931 H   0  0  0  0  0  0  0  0  0  0  0  0  # atno 8008 bound_to 7997
  154.3981  140.1464  156.3387 H   0  0  0  0  0  0  0  0  0  0  0  0  # atno 8009 bound_to 7997
  155.8416  140.3438  155.5638 H   0  0  0  0  0  0  0  0  0  0  0  0  # atno 8010 bound_to 7997
  140.1053  144.4867  150.7011 H   0  0  0  0  0  0  0  0  0  0  0  0  # atno 10167 bound_to 10162
  156.2568  130.4193  149.8587 H   0  0  0  0  0  0  0  0  0  0  0  0  # atno 10718 bound_to 10713
  154.8748  135.3984  154.3487 H   0  0  0  0  0  0  0  0  0  0  0  0  # atno 10763 bound_to 10752
  153.4276  135.7024  153.6257 H   0  0  0  0  0  0  0  0  0  0  0  0  # atno 10764 bound_to 10752
  153.4893  135.3752  155.2453 H   0  0  0  0  0  0  0  0  0  0  0  0  # atno 10765 bound_to 10752
  141.1653  133.7327  156.8814 H   0  0  0  0  0  0  0  0  0  0  0  0  # atno 11005 bound_to 11000
  146.0129  140.8419  142.9962 LP  0  0  0  0  0  0  0  0  0  0  0  0  # atno 17320 bound_to 7965
  144.6805  140.2516  143.7331 LP  0  0  0  0  0  0  0  0  0  0  0  0  # atno 17321 bound_to 7965
  140.6955  143.2401  151.5012 LP  0  0  0  0  0  0  0  0  0  0  0  0  # atno 17342 bound_to 10162
  139.5649  144.2067  152.1749 LP  0  0  0  0  0  0  0  0  0  0  0  0  # atno 17343 bound_to 10162
  156.6117  130.8589  151.3455 LP  0  0  0  0  0  0  0  0  0  0  0  0  # atno 17370 bound_to 10713
  157.7235  130.9591  150.1538 LP  0  0  0  0  0  0  0  0  0  0  0  0  # atno 17371 bound_to 10713
  140.1712  134.9098  157.2836 LP  0  0  0  0  0  0  0  0  0  0  0  0  # atno 17394 bound_to 11000
  140.2500  134.3694  155.7446 LP  0  0  0  0  0  0  0  0  0  0  0  0  # atno 17395 bound_to 11000

$$$$
