AV-unprocessed.smi:1833|AV-procd|sdf|7468|dock4
  -GOLD-   22720 9163D 1   1.00000     0.00000
 Structure written by MMmdl.
 42 43  0  0  0  0  0  0  0  0  2 V2000
  142.4703  137.0385  152.9038 C   0  0  0  0  0  0  0  0  0  0  0  0
  143.5311  137.2043  154.0016 C   0  0  0  0  0  0  0  0  0  0  0  0
  144.6427  138.1003  153.5929 N   0  3  2  0  0  0  0  0  0  0  0  0
  145.4377  137.5273  152.4750 C   0  0  0  0  0  0  0  0  0  0  0  0
  146.5001  138.5207  151.9763 C   0  0  0  0  0  0  0  0  0  0  0  0
  147.4153  138.9711  153.1216 C   0  0  0  0  0  0  0  0  0  0  0  0
  146.5723  139.5354  154.2752 C   0  0  2  0  0  0  0  0  0  0  0  0
  147.4381  139.8909  155.3969 N   0  0  0  0  0  0  0  0  0  0  0  0
  148.3166  140.9038  155.4164 C   0  0  0  0  0  0  0  0  0  0  0  0
  148.4908  141.6886  154.4841 O   0  0  0  0  0  0  0  0  0  0  0  0
  148.9917  140.9526  156.5732 N   0  0  0  0  0  0  0  0  0  0  0  0
  150.0455  141.9109  156.8857 C   0  0  0  0  0  0  0  0  0  0  0  0
  150.3924  141.8968  158.3832 C   0  0  0  0  0  0  0  0  0  0  0  0
  151.0779  143.1465  158.8235 C   0  0  0  0  0  0  0  0  0  0  0  0
  151.3339  143.4346  160.1028 N   0  0  0  0  0  0  0  0  0  0  0  0
  151.9600  144.6739  160.2564 C   0  0  0  0  0  0  0  0  0  0  0  0
  152.1644  145.3341  159.0716 C   0  0  0  0  0  0  0  0  0  0  0  0
  151.5718  144.4191  157.7121 S   0  0  0  0  0  0  0  0  0  0  0  0
  145.5141  138.5106  154.7271 C   0  0  0  0  0  0  0  0  0  0  0  0
  141.7232  136.3031  153.2030 H   0  0  0  0  0  0  0  0  0  0  0  0
  142.9174  136.6922  151.9715 H   0  0  0  0  0  0  0  0  0  0  0  0
  141.9406  137.9685  152.7001 H   0  0  0  0  0  0  0  0  0  0  0  0
  143.0767  137.5669  154.9249 H   0  0  0  0  0  0  0  0  0  0  0  0
  143.9320  136.2146  154.2244 H   0  0  0  0  0  0  0  0  0  0  0  0
  145.9128  136.6010  152.8021 H   0  0  0  0  0  0  0  0  0  0  0  0
  144.7766  137.2692  151.6468 H   0  0  0  0  0  0  0  0  0  0  0  0
  147.0936  138.0648  151.1831 H   0  0  0  0  0  0  0  0  0  0  0  0
  146.0107  139.3899  151.5349 H   0  0  0  0  0  0  0  0  0  0  0  0
  148.0095  138.1245  153.4693 H   0  0  0  0  0  0  0  0  0  0  0  0
  148.1197  139.7227  152.7627 H   0  0  0  0  0  0  0  0  0  0  0  0
  146.0496  140.4208  153.9081 H   0  0  0  0  0  0  0  0  0  0  0  0
  147.3785  139.3064  156.2180 H   0  0  0  0  0  0  0  0  0  0  0  0
  148.7778  140.2664  157.2822 H   0  0  0  0  0  0  0  0  0  0  0  0
  150.9327  141.7054  156.2843 H   0  0  0  0  0  0  0  0  0  0  0  0
  149.6963  142.9022  156.5954 H   0  0  0  0  0  0  0  0  0  0  0  0
  149.4872  141.7669  158.9779 H   0  0  0  0  0  0  0  0  0  0  0  0
  151.0404  141.0506  158.6142 H   0  0  0  0  0  0  0  0  0  0  0  0
  152.2242  145.0101  161.2481 H   0  0  0  0  0  0  0  0  0  0  0  0
  152.6222  146.2999  158.9169 H   0  0  0  0  0  0  0  0  0  0  0  0
  144.9125  138.9532  155.5206 H   0  0  0  0  0  0  0  0  0  0  0  0
  145.9958  137.6276  155.1512 H   0  0  0  0  0  0  0  0  0  0  0  0
  144.2142  138.9407  153.2313 H   0  0  0  0  0  0  0  0  0  0  0  0
  1  2  1  0  0  0  0
  1 20  1  0  0  0  0
  1 21  1  0  0  0  0
  1 22  1  0  0  0  0
  2  3  1  0  0  0  0
  2 23  1  0  0  0  0
  2 24  1  0  0  0  0
  3 19  1  0  0  0  0
  3  4  1  0  0  0  0
  3 42  1  0  0  0  0
  4  5  1  0  0  0  0
  4 25  1  0  0  0  0
  4 26  1  0  0  0  0
  5  6  1  0  0  0  0
  5 27  1  0  0  0  0
  5 28  1  0  0  0  0
  6  7  1  0  0  0  0
  6 29  1  0  0  0  0
  6 30  1  0  0  0  0
  7  8  1  0  0  0  0
  7 19  1  0  0  0  0
  7 31  1  0  0  0  0
  8  9  1  0  0  0  0
  8 32  1  0  0  0  0
  9 10  2  0  0  0  0
  9 11  1  0  0  0  0
 11 12  1  0  0  0  0
 11 33  1  0  0  0  0
 12 13  1  0  0  0  0
 12 34  1  0  0  0  0
 12 35  1  0  0  0  0
 13 14  1  0  0  0  0
 13 36  1  0  0  0  0
 13 37  1  0  0  0  0
 14 18  1  0  0  0  0
 14 15  2  0  0  0  0
 15 16  1  0  0  0  0
 16 17  2  0  0  0  0
 16 38  1  0  0  0  0
 17 18  1  0  0  0  0
 17 39  1  0  0  0  0
 19 40  1  0  0  0  0
 19 41  1  0  0  0  0
M  CHG  1   3   1
M  END
> <s_m_source_file>
AV-unprocessed.smi

> <i_m_source_file_index>
1833

> <i_lp_mmshare_version>
43012

> <i_f3d_flags>
0

> <s_epik_input>
W0NIM11bQ0gyXU4xW0NIMl1bQ0gyXVtDSDJdW0NASF0oW0NIMl0xKVtOSF1DKD1PKVtOSF1bQ0gyXVtDSDJdYzJuW2NIXVtjSF1zMg==

> <s_epik_cmdline>
J2VwaWtfcHl0aG9uJywgJy1waCcsICc3LjAnLCAnLXRuJywgJzgnLCAnLW1hJywgJzIwMCcsICctbWV0YWxfYmluZGluZycsICctaW1hZScsICc8aW5maWxlLm1hZT4nLCAnLW9tYWUnLCAnPG91dGZpbGUubWFlPic=

> <r_lp_tautomer_probability>
1

> <r_epik_Ionization_Penalty>
0.00269629

> <r_epik_Ionization_Penalty_Charging>
0.00233899

> <r_epik_Ionization_Penalty_Neutral>
0.000357304

> <r_epik_State_Penalty>
-0

> <r_epik_Charging_Adjusted_Penalty>
0.00233899

> <i_epik_Tot_Q>
1

> <i_epik_Tot_abs_Q>
1

> <r_epik_Metal_State_Penalty>
-0

> <b_epik_Metal_Only>
0

> <s_lp_Force_Field>
OPLS_2005

> <r_lp_Energy>
7.34013

> <b_lp_Chiralities_Consistent>
1

> <s_lp_Variant>
AV-unprocessed.smi:1833-4

> <Gold.Version>
5.8.1

> <Gold.Id.Protein>
6NUR|6NUR_protein|mol2

> <Gold.PLP.Fitness>
38.6486

> <Gold.PLP.PLP>
-33.3029

> <Gold.PLP.part.hbond>
-1.1919

> <Gold.PLP.part.metal>
0.0000

> <Gold.PLP.part.buried>
-4.9408

> <Gold.PLP.part.nonpolar>
-28.2525

> <Gold.PLP.part.repulsive>
0.2164

> <Gold.PLP.ligand.clash>
0.0000

> <Gold.PLP.ligand.torsion>
0.3633

> <Gold.PLP.Chemscore.Hbond>
2.0000

> <Gold.PLP.Chemscore.CHOScore>
0.0000

> <Gold.PLP.Chemscore.Metal>
0.0000

> <Gold.Chemscore.Hbonds>
donor molecule, donor type, donor heavy atom, donor atom, acceptor molecule, acceptor atom, score
      L1  H     3    42       P1 10175  2.00

> <Gold.PLP.Chemscore.Internal.Correction>
0.0723

> <Gold.Rescore>
     Score         DG    S(hbond)    S(metal)    S(lipo)     H(rot)  DE(clash)    DE(int)     intcor
     15.91     -16.43       1.16        0.00      97.93       1.71       0.22       0.29       ----

> <Gold.Chemscore.Fitness>
15.9108

> <Gold.Chemscore.DG>
-16.4272

> <Gold.Chemscore.ZeroCoef>
-5.4800

> <Gold.Chemscore.Hbond>
1.1615

> <Gold.Chemscore.Metal>
0.0000

> <Gold.Chemscore.Lipo>
97.9273

> <Gold.Chemscore.Internal_Hbond>
0.0000

> <Gold.Chemscore.DEClash>
0.2227

> <Gold.Chemscore.DEInternal>
0.2937

> <Gold.Chemscore.Rot>
1.7147

> <Gold.Chemscore.Internal.Correction>
   9.000000E+99

> <Gold.Chemscore.Hbonds>
donor molecule, donor type, donor heavy atom, donor atom, acceptor molecule, acceptor atom, score
      L1  H     3    42       P1 10175  1.00

> <Gold.Chemscore.Hbond.Weighted>
-3.8793

> <Gold.Chemscore.Metal.Weighted>
-0.0000

> <Gold.Chemscore.Lipo.Weighted>
-11.4575

> <Gold.Chemscore.Internal_Hbond.Weighted>
0.0000

> <Gold.Chemscore.DEClash.Weighted>
0.2227

> <Gold.Chemscore.DEInternal.Weighted>
0.2937

> <Gold.Chemscore.Rot.Weighted>
4.3896

> <Gold.Chemscore.Internal.Correction.Weighted>
   9.000000E+99

> <Gold.Protein.RotatedTorsions>
[ 6907 6896 6895 6894 ] final  -34.00 input  -60.11 | X-H torsion
[ 7974 7965 7964 7962 ] final  133.44 input  175.53 | X-H torsion
[ 8008 7997 7996 7995 ] final  154.05 input   59.86 | X-H torsion
[ 10167 10162 10161 10158 ] final  151.23 input  -65.29 | X-H torsion
[ 10718 10713 10712 10709 ] final   58.13 input   66.30 | X-H torsion
[ 10763 10752 10751 10750 ] final   75.39 input  -60.55 | X-H torsion
[ 11005 11000 10999 10996 ] final  165.71 input  -57.11 | X-H torsion

> <Gold.Protein.ActiveResidues>
 VAL166  LYS551  ARG553  GLY616  TRP617  ASP618  TYR619  PRO620  LYS621  CYS622 
 ASP623  PHE694  ASN695  SER759  ASP760  ASP761  ALA762  ILE779  LEU786  VAL792 
 PHE793  MET794  SER795  GLU796  ALA797  LYS798  CYS799  TRP800  GLU811  SER814 

> <Gold.Protein.RotatedAtoms>
  151.0583  134.9719  159.8247 H   0  0  0  0  0  0  0  0  0  0  0  0  # atno 6907 bound_to 6896
  152.5391  134.2450  159.8886 H   0  0  0  0  0  0  0  0  0  0  0  0  # atno 6908 bound_to 6896
  151.2468  133.4327  159.2643 H   0  0  0  0  0  0  0  0  0  0  0  0  # atno 6909 bound_to 6896
  144.9865  139.4450  143.5360 H   0  0  0  0  0  0  0  0  0  0  0  0  # atno 7974 bound_to 7965
  156.2551  140.1977  156.6586 H   0  0  0  0  0  0  0  0  0  0  0  0  # atno 8008 bound_to 7997
  154.6482  140.0575  156.9950 H   0  0  0  0  0  0  0  0  0  0  0  0  # atno 8009 bound_to 7997
  155.1459  140.3247  155.4444 H   0  0  0  0  0  0  0  0  0  0  0  0  # atno 8010 bound_to 7997
  139.4842  144.5458  151.7487 H   0  0  0  0  0  0  0  0  0  0  0  0  # atno 10167 bound_to 10162
  157.5571  130.8808  149.9053 H   0  0  0  0  0  0  0  0  0  0  0  0  # atno 10718 bound_to 10713
  153.0651  135.4990  154.8182 H   0  0  0  0  0  0  0  0  0  0  0  0  # atno 10763 bound_to 10752
  154.6941  135.2990  154.9439 H   0  0  0  0  0  0  0  0  0  0  0  0  # atno 10764 bound_to 10752
  154.0184  135.6745  153.4823 H   0  0  0  0  0  0  0  0  0  0  0  0  # atno 10765 bound_to 10752
  140.2589  134.7918  157.3572 H   0  0  0  0  0  0  0  0  0  0  0  0  # atno 11005 bound_to 11000
  146.3421  139.9170  142.8772 LP  0  0  0  0  0  0  0  0  0  0  0  0  # atno 17320 bound_to 7965
  145.2347  140.9986  143.3970 LP  0  0  0  0  0  0  0  0  0  0  0  0  # atno 17321 bound_to 7965
  140.5004  144.1178  150.5970 LP  0  0  0  0  0  0  0  0  0  0  0  0  # atno 17342 bound_to 10162
  140.4069  143.2676  151.9880 LP  0  0  0  0  0  0  0  0  0  0  0  0  # atno 17343 bound_to 10162
  156.0628  130.3697  150.0943 LP  0  0  0  0  0  0  0  0  0  0  0  0  # atno 17370 bound_to 10713
  156.9111  130.9652  151.3563 LP  0  0  0  0  0  0  0  0  0  0  0  0  # atno 17371 bound_to 10713
  140.1484  134.4882  155.7979 LP  0  0  0  0  0  0  0  0  0  0  0  0  # atno 17394 bound_to 11000
  141.2193  133.6852  156.7334 LP  0  0  0  0  0  0  0  0  0  0  0  0  # atno 17395 bound_to 11000

$$$$
