AV-unprocessed.smi:47|AV-procd|sdf|432|dock4
  -GOLD-   2262016303D 1   1.00000     0.00000
 Structure written by MMmdl.
 32 34  0  0  0  0  0  0  0  0  2 V2000
  145.5114  141.0638  154.3532 O   0  0  0  0  0  0  0  0  0  0  0  0
  146.8323  141.2936  153.9110 C   0  0  2  0  0  0  0  0  0  0  0  0
  147.5379  139.9972  153.4970 C   0  0  0  0  0  0  0  0  0  0  0  0
  148.9746  140.2080  153.7665 N   0  3  0  0  0  0  0  0  0  0  0  0
  149.1237  141.4688  154.5239 C   0  0  2  0  0  0  0  0  0  0  0  0
  150.1216  141.1706  155.6029 C   0  0  0  0  0  0  0  0  0  0  0  0
  150.8285  140.0358  155.6119 N   0  0  0  0  0  0  0  0  0  0  0  0
  151.6565  140.0280  156.6784 N   0  0  0  0  0  0  0  0  0  0  0  0
  151.3777  141.2015  157.2436 C   0  0  0  0  0  0  0  0  0  0  0  0
  152.0601  141.6556  158.4778 C   0  0  0  0  0  0  0  0  0  0  0  0
  151.9112  142.9835  158.9477 C   0  0  0  0  0  0  0  0  0  0  0  0
  152.5581  143.4195  160.1203 C   0  0  0  0  0  0  0  0  0  0  0  0
  153.3698  142.5318  160.8484 C   0  0  0  0  0  0  0  0  0  0  0  0
  153.5317  141.2095  160.3990 C   0  0  0  0  0  0  0  0  0  0  0  0
  152.8830  140.7783  159.2257 C   0  0  0  0  0  0  0  0  0  0  0  0
  150.4284  141.9676  156.6253 N   0  0  0  0  0  0  0  0  0  0  0  0
  147.7244  141.8365  155.0231 C   0  0  0  0  0  0  0  0  0  0  0  0
  146.8206  141.9931  153.0735 H   0  0  0  0  0  0  0  0  0  0  0  0
  149.5060  142.2376  153.8505 H   0  0  0  0  0  0  0  0  0  0  0  0
  144.9186  141.2078  153.6308 H   0  0  0  0  0  0  0  0  0  0  0  0
  147.2043  139.1619  154.1146 H   0  0  0  0  0  0  0  0  0  0  0  0
  147.3564  139.7375  152.4536 H   0  0  0  0  0  0  0  0  0  0  0  0
  149.3187  139.4401  154.3262 H   0  0  0  0  0  0  0  0  0  0  0  0
  151.2954  143.6887  158.4092 H   0  0  0  0  0  0  0  0  0  0  0  0
  152.4309  144.4368  160.4603 H   0  0  0  0  0  0  0  0  0  0  0  0
  153.8668  142.8640  161.7481 H   0  0  0  0  0  0  0  0  0  0  0  0
  154.1544  140.5237  160.9546 H   0  0  0  0  0  0  0  0  0  0  0  0
  153.0265  139.7569  158.9056 H   0  0  0  0  0  0  0  0  0  0  0  0
  147.6000  142.9042  155.2061 H   0  0  0  0  0  0  0  0  0  0  0  0
  147.5074  141.3078  155.9533 H   0  0  0  0  0  0  0  0  0  0  0  0
  149.4964  140.2627  152.9038 H   0  0  0  0  0  0  0  0  0  0  0  0
  150.7847  139.2778  154.9454 H   0  0  0  0  0  0  0  0  0  0  0  0
  1  2  1  0  0  0  0
  1 20  1  0  0  0  0
  2 18  1  0  0  0  0
  2 17  1  0  0  0  0
  2  3  1  0  0  0  0
  3  4  1  0  0  0  0
  3 21  1  0  0  0  0
  3 22  1  0  0  0  0
  4  5  1  0  0  0  0
  4 23  1  0  0  0  0
  4 31  1  0  0  0  0
  5 19  1  0  0  0  0
  5  6  1  0  0  0  0
  5 17  1  0  0  0  0
  6 16  2  0  0  0  0
  6  7  1  0  0  0  0
  7  8  1  0  0  0  0
  7 32  1  0  0  0  0
  8  9  2  0  0  0  0
  9 10  1  0  0  0  0
  9 16  1  0  0  0  0
 10 15  1  0  0  0  0
 10 11  2  0  0  0  0
 11 12  1  0  0  0  0
 11 24  1  0  0  0  0
 12 13  2  0  0  0  0
 12 25  1  0  0  0  0
 13 14  1  0  0  0  0
 13 26  1  0  0  0  0
 14 15  2  0  0  0  0
 14 27  1  0  0  0  0
 15 28  1  0  0  0  0
 17 29  1  0  0  0  0
 17 30  1  0  0  0  0
M  CHG  1   4   1
M  END
> <s_m_source_file>
AV-unprocessed.smi

> <i_m_source_file_index>
47

> <i_lp_mmshare_version>
43012

> <i_f3d_flags>
0

> <s_epik_input>
W09IXVtDQEhdMVtDSDJdW05IXVtDQEBIXShbQ0gyXTEpYzJuW25IXWMobjIpLWMzW2NIXVtjSF1bY0hdW2NIXVtjSF0z

> <s_epik_cmdline>
J2VwaWtfcHl0aG9uJywgJy1waCcsICc3LjAnLCAnLXRuJywgJzgnLCAnLW1hJywgJzIwMCcsICctbWV0YWxfYmluZGluZycsICctaW1hZScsICc8aW5maWxlLm1hZT4nLCAnLW9tYWUnLCAnPG91dGZpbGUubWFlPic=

> <r_epik_Ionization_Penalty>
1.14296

> <r_epik_Ionization_Penalty_Charging>
0.0688988

> <r_epik_Ionization_Penalty_Neutral>
1.07406

> <r_epik_State_Penalty>
1.72347

> <r_epik_Charging_Adjusted_Penalty>
1.79237

> <i_epik_Tot_Q>
1

> <i_epik_Tot_abs_Q>
1

> <r_epik_Metal_State_Penalty>
2.22085

> <b_epik_Metal_Only>
0

> <s_lp_Force_Field>
OPLS_2005

> <r_lp_Energy>
30.6831

> <b_lp_Chiralities_Consistent>
1

> <s_lp_Variant>
AV-unprocessed.smi:47-10

> <Gold.Version>
5.8.1

> <Gold.Id.Protein>
6NUR|6NUR_protein|mol2

> <Gold.PLP.Fitness>
41.4434

> <Gold.PLP.PLP>
-35.7868

> <Gold.PLP.part.hbond>
-2.0000

> <Gold.PLP.part.metal>
0.0000

> <Gold.PLP.part.buried>
-4.2149

> <Gold.PLP.part.nonpolar>
-29.8915

> <Gold.PLP.part.repulsive>
0.3535

> <Gold.PLP.ligand.clash>
0.0000

> <Gold.PLP.ligand.torsion>
0.1783

> <Gold.PLP.Chemscore.Hbond>
2.0000

> <Gold.PLP.Chemscore.CHOScore>
0.0000

> <Gold.PLP.Chemscore.Metal>
0.0000

> <Gold.Chemscore.Hbonds>
donor molecule, donor type, donor heavy atom, donor atom, acceptor molecule, acceptor atom, score
      L1  H     1    20       P1 10175  0.96
      L1  H     4    31       P1  7957  1.00

> <Gold.PLP.Chemscore.Internal.Correction>
0.0131

> <Gold.Rescore>
     Score         DG    S(hbond)    S(metal)    S(lipo)     H(rot)  DE(clash)    DE(int)     intcor
     18.72     -18.89       1.96        0.00      91.34       1.50       0.12       0.05       ----

> <Gold.Chemscore.Fitness>
18.7197

> <Gold.Chemscore.DG>
-18.8879

> <Gold.Chemscore.ZeroCoef>
-5.4800

> <Gold.Chemscore.Hbond>
1.9619

> <Gold.Chemscore.Metal>
0.0000

> <Gold.Chemscore.Lipo>
91.3363

> <Gold.Chemscore.Internal_Hbond>
0.0000

> <Gold.Chemscore.DEClash>
0.1184

> <Gold.Chemscore.DEInternal>
0.0499

> <Gold.Chemscore.Rot>
1.4966

> <Gold.Chemscore.Internal.Correction>
   9.000000E+99

> <Gold.Chemscore.Hbonds>
donor molecule, donor type, donor heavy atom, donor atom, acceptor molecule, acceptor atom, score
      L1  H     1    20       P1 10175  0.41
      L1  H     4    31       P1  7957  0.95

> <Gold.Chemscore.Hbond.Weighted>
-6.5528

> <Gold.Chemscore.Metal.Weighted>
-0.0000

> <Gold.Chemscore.Lipo.Weighted>
-10.6863

> <Gold.Chemscore.Internal_Hbond.Weighted>
0.0000

> <Gold.Chemscore.DEClash.Weighted>
0.1184

> <Gold.Chemscore.DEInternal.Weighted>
0.0499

> <Gold.Chemscore.Rot.Weighted>
3.8312

> <Gold.Chemscore.Internal.Correction.Weighted>
   9.000000E+99

> <Gold.Protein.RotatedTorsions>
[ 6907 6896 6895 6894 ] final -113.28 input  -60.11 | X-H torsion
[ 7974 7965 7964 7962 ] final   68.26 input  175.53 | X-H torsion
[ 8008 7997 7996 7995 ] final  -83.33 input   59.86 | X-H torsion
[ 10167 10162 10161 10158 ] final   63.02 input  -65.29 | X-H torsion
[ 10718 10713 10712 10709 ] final    3.30 input   66.30 | X-H torsion
[ 10763 10752 10751 10750 ] final   66.44 input  -60.55 | X-H torsion
[ 11005 11000 10999 10996 ] final  122.34 input  -57.11 | X-H torsion

> <Gold.Protein.ActiveResidues>
 VAL166  LYS551  ARG553  GLY616  TRP617  ASP618  TYR619  PRO620  LYS621  CYS622 
 ASP623  PHE694  ASN695  SER759  ASP760  ASP761  ALA762  ILE779  LEU786  VAL792 
 PHE793  MET794  SER795  GLU796  ALA797  LYS798  CYS799  TRP800  GLU811  SER814 

> <Gold.Protein.RotatedAtoms>
  150.7818  133.8968  159.3329 H   0  0  0  0  0  0  0  0  0  0  0  0  # atno 6907 bound_to 6896
  151.6828  135.0957  160.0229 H   0  0  0  0  0  0  0  0  0  0  0  0  # atno 6908 bound_to 6896
  152.3871  133.6588  159.6243 H   0  0  0  0  0  0  0  0  0  0  0  0  # atno 6909 bound_to 6896
  145.8047  139.3000  143.1134 H   0  0  0  0  0  0  0  0  0  0  0  0  # atno 7974 bound_to 7965
  154.6179  140.0620  156.9578 H   0  0  0  0  0  0  0  0  0  0  0  0  # atno 8008 bound_to 7997
  155.1865  140.3303  155.4347 H   0  0  0  0  0  0  0  0  0  0  0  0  # atno 8009 bound_to 7997
  156.2415  140.1888  156.6958 H   0  0  0  0  0  0  0  0  0  0  0  0  # atno 8010 bound_to 7997
  140.1376  144.4584  150.6829 H   0  0  0  0  0  0  0  0  0  0  0  0  # atno 10167 bound_to 10162
  156.8758  130.5636  149.5655 H   0  0  0  0  0  0  0  0  0  0  0  0  # atno 10718 bound_to 10713
  153.0140  135.5320  154.6825 H   0  0  0  0  0  0  0  0  0  0  0  0  # atno 10763 bound_to 10752
  154.5981  135.2865  155.0567 H   0  0  0  0  0  0  0  0  0  0  0  0  # atno 10764 bound_to 10752
  154.1634  135.6544  153.5044 H   0  0  0  0  0  0  0  0  0  0  0  0  # atno 10765 bound_to 10752
  139.9264  134.9641  156.8094 H   0  0  0  0  0  0  0  0  0  0  0  0  # atno 11005 bound_to 11000
  145.9841  140.8658  143.0099 LP  0  0  0  0  0  0  0  0  0  0  0  0  # atno 17320 bound_to 7965
  144.6764  140.2122  143.7376 LP  0  0  0  0  0  0  0  0  0  0  0  0  # atno 17321 bound_to 7965
  140.6780  143.2313  151.5458 LP  0  0  0  0  0  0  0  0  0  0  0  0  # atno 17342 bound_to 10162
  139.5488  144.2450  152.1492 LP  0  0  0  0  0  0  0  0  0  0  0  0  # atno 17343 bound_to 10162
  156.0703  130.5737  150.9369 LP  0  0  0  0  0  0  0  0  0  0  0  0  # atno 17370 bound_to 10713
  157.6169  131.0932  150.8693 LP  0  0  0  0  0  0  0  0  0  0  0  0  # atno 17371 bound_to 10713
  140.6325  133.9893  155.7668 LP  0  0  0  0  0  0  0  0  0  0  0  0  # atno 17394 bound_to 11000
  141.0824  134.0042  157.3365 LP  0  0  0  0  0  0  0  0  0  0  0  0  # atno 17395 bound_to 11000

$$$$
