AV-unprocessed.smi:2136|AV-procd|sdf|8704|dock4
  -GOLD-   2272011463D 1   1.00000     0.00000
 Structure written by MMmdl.
 43 44  0  0  0  0  0  0  0  0  2 V2000
  151.5183  138.2116  159.3507 C   0  0  0  0  0  0  0  0  0  0  0  0
  152.3184  139.2986  158.0972 S   0  0  0  0  0  0  0  0  0  0  0  0
  153.7144  138.8747  157.9078 O   0  0  0  0  0  0  0  0  0  0  0  0
  151.4135  139.3438  156.9380 O   0  0  0  0  0  0  0  0  0  0  0  0
  152.3142  140.8805  158.8481 N   0  0  0  0  0  0  0  0  0  0  0  0
  151.5213  141.9188  158.1450 C   0  0  0  0  0  0  0  0  0  0  0  0
  151.2797  143.1772  158.9885 C   0  0  0  0  0  0  0  0  0  0  0  0
  152.5942  143.7410  159.5136 C   0  0  0  0  0  0  0  0  0  0  0  0
  153.2621  142.6635  160.3620 C   0  0  0  0  0  0  0  0  0  0  0  0
  153.5384  141.3684  159.5592 C   0  0  1  0  0  0  0  0  0  0  0  0
  154.2104  140.3545  160.5005 C   0  0  0  0  0  0  0  0  0  0  0  0
  153.6524  139.2893  160.7679 O   0  0  0  0  0  0  0  0  0  0  0  0
  155.4097  140.6948  160.9978 N   0  0  0  0  0  0  0  0  0  0  0  0
  156.2129  139.8664  161.8880 C   0  0  0  0  0  0  0  0  0  0  0  0
  155.5849  139.7621  163.2883 C   0  0  0  0  0  0  0  0  0  0  0  0
  155.2553  138.3309  163.6655 C   0  0  0  0  0  0  0  0  0  0  0  0
  154.5350  137.5039  162.7754 C   0  0  0  0  0  0  0  0  0  0  0  0
  154.2414  136.1760  163.1490 C   0  0  0  0  0  0  0  0  0  0  0  0
  154.6727  135.7053  164.4061 C   0  0  0  0  0  0  0  0  0  0  0  0
  155.3585  136.5259  165.2320 N   0  3  0  0  0  0  0  0  0  0  0  0
  155.6611  137.8031  164.9105 C   0  0  0  0  0  0  0  0  0  0  0  0
  151.3131  137.2405  158.9008 H   0  0  0  0  0  0  0  0  0  0  0  0
  150.5810  138.6607  159.6781 H   0  0  0  0  0  0  0  0  0  0  0  0
  152.1737  138.0655  160.2061 H   0  0  0  0  0  0  0  0  0  0  0  0
  152.0358  142.1814  157.2198 H   0  0  0  0  0  0  0  0  0  0  0  0
  150.5504  141.5123  157.8627 H   0  0  0  0  0  0  0  0  0  0  0  0
  150.7657  143.9296  158.3896 H   0  0  0  0  0  0  0  0  0  0  0  0
  150.6173  142.9407  159.8224 H   0  0  0  0  0  0  0  0  0  0  0  0
  153.2424  144.0348  158.6872 H   0  0  0  0  0  0  0  0  0  0  0  0
  152.4111  144.6345  160.1110 H   0  0  0  0  0  0  0  0  0  0  0  0
  154.1955  143.0571  160.7673 H   0  0  0  0  0  0  0  0  0  0  0  0
  152.6241  142.4497  161.2215 H   0  0  0  0  0  0  0  0  0  0  0  0
  154.2633  141.6213  158.7830 H   0  0  0  0  0  0  0  0  0  0  0  0
  155.8028  141.5827  160.7191 H   0  0  0  0  0  0  0  0  0  0  0  0
  156.3466  138.8760  161.4493 H   0  0  0  0  0  0  0  0  0  0  0  0
  157.2057  140.3116  161.9579 H   0  0  0  0  0  0  0  0  0  0  0  0
  156.2617  140.1847  164.0322 H   0  0  0  0  0  0  0  0  0  0  0  0
  154.6679  140.3508  163.3392 H   0  0  0  0  0  0  0  0  0  0  0  0
  154.2124  137.8820  161.8160 H   0  0  0  0  0  0  0  0  0  0  0  0
  153.6924  135.5286  162.4807 H   0  0  0  0  0  0  0  0  0  0  0  0
  154.4916  134.7053  164.7731 H   0  0  0  0  0  0  0  0  0  0  0  0
  156.2141  138.3583  165.6545 H   0  0  0  0  0  0  0  0  0  0  0  0
  155.6608  136.1658  166.1377 H   0  0  0  0  0  0  0  0  0  0  0  0
  1  2  1  0  0  0  0
  1 22  1  0  0  0  0
  1 23  1  0  0  0  0
  1 24  1  0  0  0  0
  2  3  2  0  0  0  0
  2  4  2  0  0  0  0
  2  5  1  0  0  0  0
  5 10  1  0  0  0  0
  5  6  1  0  0  0  0
  6  7  1  0  0  0  0
  6 25  1  0  0  0  0
  6 26  1  0  0  0  0
  7  8  1  0  0  0  0
  7 27  1  0  0  0  0
  7 28  1  0  0  0  0
  8  9  1  0  0  0  0
  8 29  1  0  0  0  0
  8 30  1  0  0  0  0
  9 10  1  0  0  0  0
  9 31  1  0  0  0  0
  9 32  1  0  0  0  0
 10 11  1  0  0  0  0
 10 33  1  0  0  0  0
 11 12  2  0  0  0  0
 11 13  1  0  0  0  0
 13 14  1  0  0  0  0
 13 34  1  0  0  0  0
 14 15  1  0  0  0  0
 14 35  1  0  0  0  0
 14 36  1  0  0  0  0
 15 16  1  0  0  0  0
 15 37  1  0  0  0  0
 15 38  1  0  0  0  0
 16 21  1  0  0  0  0
 16 17  2  0  0  0  0
 17 18  1  0  0  0  0
 17 39  1  0  0  0  0
 18 19  2  0  0  0  0
 18 40  1  0  0  0  0
 19 20  1  0  0  0  0
 19 41  1  0  0  0  0
 20 21  2  0  0  0  0
 20 43  1  0  0  0  0
 21 42  1  0  0  0  0
M  CHG  1  20   1
M  END
> <s_m_source_file>
AV-unprocessed.smi

> <i_m_source_file_index>
2136

> <i_lp_mmshare_version>
43012

> <i_f3d_flags>
0

> <s_epik_input>
W0NIM11TKD1PKSg9TylOMVtDSDJdW0NIMl1bQ0gyXVtDSDJdW0NASF0xQyg9TylbTkhdW0NIMl1bQ0gyXWMyW2NIXVtjSF1bY0hdbltjSF0y

> <s_epik_cmdline>
J2VwaWtfcHl0aG9uJywgJy1waCcsICc3LjAnLCAnLXRuJywgJzgnLCAnLW1hJywgJzIwMCcsICctbWV0YWxfYmluZGluZycsICctaW1hZScsICc8aW5maWxlLm1hZT4nLCAnLW9tYWUnLCAnPG91dGZpbGUubWFlPic=

> <r_epik_Ionization_Penalty>
2.2835

> <r_epik_Ionization_Penalty_Charging>
2.2835

> <r_epik_Ionization_Penalty_Neutral>
1.35461e-07

> <r_epik_State_Penalty>
2.43297

> <r_epik_Charging_Adjusted_Penalty>
4.71647

> <i_epik_Tot_Q>
1

> <i_epik_Tot_abs_Q>
1

> <r_epik_Metal_State_Penalty>
2.44557

> <b_epik_Metal_Only>
0

> <s_lp_Force_Field>
OPLS_2005

> <r_lp_Energy>
13.1957

> <b_lp_Chiralities_Consistent>
1

> <s_lp_Variant>
AV-unprocessed.smi:2136-3

> <Gold.Version>
5.8.1

> <Gold.Id.Protein>
6NUR|6NUR_protein|mol2

> <Gold.PLP.Fitness>
42.6568

> <Gold.PLP.PLP>
-40.8244

> <Gold.PLP.part.hbond>
-2.9983

> <Gold.PLP.part.metal>
0.0000

> <Gold.PLP.part.buried>
-4.5262

> <Gold.PLP.part.nonpolar>
-32.7867

> <Gold.PLP.part.repulsive>
0.1254

> <Gold.PLP.ligand.clash>
0.0000

> <Gold.PLP.ligand.torsion>
1.6613

> <Gold.PLP.Chemscore.Hbond>
1.0000

> <Gold.PLP.Chemscore.CHOScore>
0.0000

> <Gold.PLP.Chemscore.Metal>
0.0000

> <Gold.Chemscore.Hbonds>
donor molecule, donor type, donor heavy atom, donor atom, acceptor molecule, acceptor atom, score
      P1  H  7997  8010       L1     3  1.00

> <Gold.PLP.Chemscore.Internal.Correction>
2.1551

> <Gold.Rescore>
     Score         DG    S(hbond)    S(metal)    S(lipo)     H(rot)  DE(clash)    DE(int)     intcor
      9.08     -16.21       0.94        0.00     101.03       1.65       0.25       6.88       ----

> <Gold.Chemscore.Fitness>
9.0832

> <Gold.Chemscore.DG>
-16.2083

> <Gold.Chemscore.ZeroCoef>
-5.4800

> <Gold.Chemscore.Hbond>
0.9406

> <Gold.Chemscore.Metal>
0.0000

> <Gold.Chemscore.Lipo>
101.0292

> <Gold.Chemscore.Internal_Hbond>
0.0000

> <Gold.Chemscore.DEClash>
0.2497

> <Gold.Chemscore.DEInternal>
6.8754

> <Gold.Chemscore.Rot>
1.6538

> <Gold.Chemscore.Internal.Correction>
   9.000000E+99

> <Gold.Chemscore.Hbonds>
donor molecule, donor type, donor heavy atom, donor atom, acceptor molecule, acceptor atom, score
      P1  H  7997  8010       L1     3  0.91

> <Gold.Chemscore.Hbond.Weighted>
-3.1416

> <Gold.Chemscore.Metal.Weighted>
-0.0000

> <Gold.Chemscore.Lipo.Weighted>
-11.8204

> <Gold.Chemscore.Internal_Hbond.Weighted>
0.0000

> <Gold.Chemscore.DEClash.Weighted>
0.2497

> <Gold.Chemscore.DEInternal.Weighted>
6.8754

> <Gold.Chemscore.Rot.Weighted>
4.2337

> <Gold.Chemscore.Internal.Correction.Weighted>
   9.000000E+99

> <Gold.Protein.RotatedTorsions>
[ 6907 6896 6895 6894 ] final    9.97 input  -60.11 | X-H torsion
[ 7974 7965 7964 7962 ] final  153.51 input  175.53 | X-H torsion
[ 8008 7997 7996 7995 ] final   26.16 input   59.86 | X-H torsion
[ 10167 10162 10161 10158 ] final   91.59 input  -65.29 | X-H torsion
[ 10718 10713 10712 10709 ] final  172.47 input   66.30 | X-H torsion
[ 10763 10752 10751 10750 ] final -146.80 input  -60.55 | X-H torsion
[ 11005 11000 10999 10996 ] final -139.81 input  -57.11 | X-H torsion

> <Gold.Protein.ActiveResidues>
 VAL166  LYS551  ARG553  GLY616  TRP617  ASP618  TYR619  PRO620  LYS621  CYS622 
 ASP623  PHE694  ASN695  SER759  ASP760  ASP761  ALA762  ILE779  LEU786  VAL792 
 PHE793  MET794  SER795  GLU796  ALA797  LYS798  CYS799  TRP800  GLU811  SER814 

> <Gold.Protein.RotatedAtoms>
  151.7308  135.0875  160.0299 H   0  0  0  0  0  0  0  0  0  0  0  0  # atno 6907 bound_to 6896
  152.3542  133.6213  159.5976 H   0  0  0  0  0  0  0  0  0  0  0  0  # atno 6908 bound_to 6896
  150.7560  133.9442  159.3507 H   0  0  0  0  0  0  0  0  0  0  0  0  # atno 6909 bound_to 6896
  144.8150  139.6810  143.6125 H   0  0  0  0  0  0  0  0  0  0  0  0  # atno 7974 bound_to 7965
  155.0230  140.3150  155.4786 H   0  0  0  0  0  0  0  0  0  0  0  0  # atno 8008 bound_to 7997
  156.2888  140.2194  156.5291 H   0  0  0  0  0  0  0  0  0  0  0  0  # atno 8009 bound_to 7997
  154.7435  140.0471  157.0820 H   0  0  0  0  0  0  0  0  0  0  0  0  # atno 8010 bound_to 7997
  139.8359  144.6664  150.9342 H   0  0  0  0  0  0  0  0  0  0  0  0  # atno 10167 bound_to 10162
  156.9785  131.0112  151.2887 H   0  0  0  0  0  0  0  0  0  0  0  0  # atno 10718 bound_to 10713
  154.8318  135.3377  154.6718 H   0  0  0  0  0  0  0  0  0  0  0  0  # atno 10763 bound_to 10752
  153.7337  135.6950  153.4988 H   0  0  0  0  0  0  0  0  0  0  0  0  # atno 10764 bound_to 10752
  153.2294  135.4422  155.0530 H   0  0  0  0  0  0  0  0  0  0  0  0  # atno 10765 bound_to 10752
  140.8483  134.2317  157.4774 H   0  0  0  0  0  0  0  0  0  0  0  0  # atno 11005 bound_to 11000
  146.2452  139.6083  142.9464 LP  0  0  0  0  0  0  0  0  0  0  0  0  # atno 17320 bound_to 7965
  145.5236  141.0430  143.2421 LP  0  0  0  0  0  0  0  0  0  0  0  0  # atno 17321 bound_to 7965
  140.7802  143.3957  151.1234 LP  0  0  0  0  0  0  0  0  0  0  0  0  # atno 17342 bound_to 10162
  139.7607  143.8640  152.3099 LP  0  0  0  0  0  0  0  0  0  0  0  0  # atno 17343 bound_to 10162
  157.5543  130.8203  149.8184 LP  0  0  0  0  0  0  0  0  0  0  0  0  # atno 17370 bound_to 10713
  156.0254  130.3781  150.1839 LP  0  0  0  0  0  0  0  0  0  0  0  0  # atno 17371 bound_to 10713
  139.8704  134.9670  156.4583 LP  0  0  0  0  0  0  0  0  0  0  0  0  # atno 17394 bound_to 11000
  140.8818  133.7912  155.9475 LP  0  0  0  0  0  0  0  0  0  0  0  0  # atno 17395 bound_to 11000

$$$$
