AV-unprocessed.smi:1753|AV-procd|sdf|7063|dock2
  -GOLD-   22720 8283D 1   1.00000     0.00000
 Structure written by MMmdl.
 37 38  0  0  0  0  0  0  0  0  1 V2000
  143.5111  132.4068  149.5338 C   0  0  0  0  0  0  0  0  0  0  0  0
  144.5713  133.1024  150.3355 C   0  0  0  0  0  0  0  0  0  0  0  0
  144.7773  134.5040  150.4892 C   0  0  0  0  0  0  0  0  0  0  0  0
  145.8659  134.5607  151.3164 C   0  0  0  0  0  0  0  0  0  0  0  0
  146.5107  135.6549  151.8022 N   0  0  0  0  0  0  0  0  0  0  0  0
  145.9890  136.8064  152.2603 C   0  0  0  0  0  0  0  0  0  0  0  0
  144.7882  137.0681  152.3321 O   0  0  0  0  0  0  0  0  0  0  0  0
  146.9548  137.6539  152.6436 N   0  0  0  0  0  0  0  0  0  0  0  0
  146.7439  138.9921  153.1884 C   0  0  0  0  0  0  0  0  0  0  0  0
  148.0735  139.6875  153.5380 C   0  0  1  0  0  0  0  0  0  0  0  0
  147.8608  141.1091  154.0932 C   0  0  0  0  0  0  0  0  0  0  0  0
  149.1930  141.6227  154.6481 C   0  0  0  0  0  0  0  0  0  0  0  0
  150.0359  140.1520  155.3396 S   0  0  0  0  0  0  0  0  0  0  0  0
  151.3818  140.0529  154.7553 O   0  0  0  0  0  0  0  0  0  0  0  0
  149.8372  140.1125  156.7963 O   0  0  0  0  0  0  0  0  0  0  0  0
  148.9329  138.9157  154.5549 C   0  0  0  0  0  0  0  0  0  0  0  0
  146.2622  133.2748  151.6177 N   0  0  0  0  0  0  0  0  0  0  0  0
  147.3537  132.8002  152.4465 C   0  0  0  0  0  0  0  0  0  0  0  0
  145.4564  132.3778  151.0102 N   0  0  0  0  0  0  0  0  0  0  0  0
  142.9680  133.1116  148.9038 H   0  0  0  0  0  0  0  0  0  0  0  0
  142.7865  131.9173  150.1848 H   0  0  0  0  0  0  0  0  0  0  0  0
  143.9435  131.6463  148.8829 H   0  0  0  0  0  0  0  0  0  0  0  0
  144.2094  135.3133  150.0559 H   0  0  0  0  0  0  0  0  0  0  0  0
  147.5176  135.5879  151.8154 H   0  0  0  0  0  0  0  0  0  0  0  0
  147.9136  137.3516  152.5495 H   0  0  0  0  0  0  0  0  0  0  0  0
  146.2162  139.5742  152.4323 H   0  0  0  0  0  0  0  0  0  0  0  0
  146.0868  138.9619  154.0594 H   0  0  0  0  0  0  0  0  0  0  0  0
  148.6602  139.7870  152.6233 H   0  0  0  0  0  0  0  0  0  0  0  0
  147.4597  141.7838  153.3363 H   0  0  0  0  0  0  0  0  0  0  0  0
  147.1326  141.0720  154.9048 H   0  0  0  0  0  0  0  0  0  0  0  0
  149.8162  142.0244  153.8489 H   0  0  0  0  0  0  0  0  0  0  0  0
  149.0722  142.3869  155.4159 H   0  0  0  0  0  0  0  0  0  0  0  0
  148.3145  138.4785  155.3395 H   0  0  0  0  0  0  0  0  0  0  0  0
  149.5240  138.1216  154.0984 H   0  0  0  0  0  0  0  0  0  0  0  0
  147.9557  133.6341  152.8074 H   0  0  0  0  0  0  0  0  0  0  0  0
  147.9921  132.1323  151.8672 H   0  0  0  0  0  0  0  0  0  0  0  0
  146.9539  132.2571  153.3032 H   0  0  0  0  0  0  0  0  0  0  0  0
  1  2  1  0  0  0  0
  1 20  1  0  0  0  0
  1 21  1  0  0  0  0
  1 22  1  0  0  0  0
  2 19  2  0  0  0  0
  2  3  1  0  0  0  0
  3  4  2  0  0  0  0
  3 23  1  0  0  0  0
  4  5  1  0  0  0  0
  4 17  1  0  0  0  0
  5  6  1  0  0  0  0
  5 24  1  0  0  0  0
  6  7  2  0  0  0  0
  6  8  1  0  0  0  0
  8  9  1  0  0  0  0
  8 25  1  0  0  0  0
  9 10  1  0  0  0  0
  9 26  1  0  0  0  0
  9 27  1  0  0  0  0
 10 16  1  0  0  0  0
 10 11  1  0  0  0  0
 10 28  1  0  0  0  0
 11 12  1  0  0  0  0
 11 29  1  0  0  0  0
 11 30  1  0  0  0  0
 12 13  1  0  0  0  0
 12 31  1  0  0  0  0
 12 32  1  0  0  0  0
 13 14  2  0  0  0  0
 13 15  2  0  0  0  0
 13 16  1  0  0  0  0
 16 33  1  0  0  0  0
 16 34  1  0  0  0  0
 17 18  1  0  0  0  0
 17 19  1  0  0  0  0
 18 35  1  0  0  0  0
 18 36  1  0  0  0  0
 18 37  1  0  0  0  0
M  END
> <s_m_source_file>
AV-unprocessed.smi

> <i_m_source_file_index>
1753

> <i_lp_mmshare_version>
43012

> <i_f3d_flags>
0

> <s_epik_input>
W0NIM11jMVtjSF1jKG4objEpW0NIM10pW05IXUMoPU8pW05IXVtDSDJdW0NAQEhdKFtDSDJdMilbQ0gyXVtDSDJdUzIoPU8pPU8=

> <s_epik_cmdline>
J2VwaWtfcHl0aG9uJywgJy1waCcsICc3LjAnLCAnLXRuJywgJzgnLCAnLW1hJywgJzIwMCcsICctbWV0YWxfYmluZGluZycsICctaW1hZScsICc8aW5maWxlLm1hZT4nLCAnLW9tYWUnLCAnPG91dGZpbGUubWFlPic=

> <r_lp_tautomer_probability>
1

> <r_epik_Ionization_Penalty>
9.06651e-05

> <r_epik_Ionization_Penalty_Charging>
0

> <r_epik_Ionization_Penalty_Neutral>
9.06651e-05

> <r_epik_State_Penalty>
-0

> <r_epik_Charging_Adjusted_Penalty>
0

> <i_epik_Tot_Q>
0

> <i_epik_Tot_abs_Q>
0

> <r_epik_Metal_State_Penalty>
-0

> <b_epik_Metal_Only>
0

> <s_lp_Force_Field>
OPLS_2005

> <r_lp_Energy>
6.63642

> <b_lp_Chiralities_Consistent>
1

> <s_lp_Variant>
AV-unprocessed.smi:1753-2

> <Gold.Version>
5.8.1

> <Gold.Id.Protein>
6NUR|6NUR_protein|mol2

> <Gold.PLP.Fitness>
40.0013

> <Gold.PLP.PLP>
-31.8785

> <Gold.PLP.part.hbond>
-2.7678

> <Gold.PLP.part.metal>
0.0000

> <Gold.PLP.part.buried>
-0.9678

> <Gold.PLP.part.nonpolar>
-29.3675

> <Gold.PLP.part.repulsive>
0.7933

> <Gold.PLP.ligand.clash>
0.0000

> <Gold.PLP.ligand.torsion>
0.3206

> <Gold.PLP.Chemscore.Hbond>
2.9193

> <Gold.PLP.Chemscore.CHOScore>
0.0000

> <Gold.PLP.Chemscore.Metal>
0.0000

> <Gold.Chemscore.Hbonds>
donor molecule, donor type, donor heavy atom, donor atom, acceptor molecule, acceptor atom, score
      L1  H     5    24       P1  7948  1.00
      L1  H     8    25       P1  7948  0.91
      P1  H  7989  7998       L1    14  0.96

> <Gold.PLP.Chemscore.Internal.Correction>
0.0062

> <Gold.Rescore>
     Score         DG    S(hbond)    S(metal)    S(lipo)     H(rot)  DE(clash)    DE(int)     intcor
     18.75     -19.18       2.93        0.00      62.21       1.31       0.14       0.30       ----

> <Gold.Chemscore.Fitness>
18.7493

> <Gold.Chemscore.DG>
-19.1835

> <Gold.Chemscore.ZeroCoef>
-5.4800

> <Gold.Chemscore.Hbond>
2.9263

> <Gold.Chemscore.Metal>
0.0000

> <Gold.Chemscore.Lipo>
62.2081

> <Gold.Chemscore.Internal_Hbond>
0.0000

> <Gold.Chemscore.DEClash>
0.1352

> <Gold.Chemscore.DEInternal>
0.2990

> <Gold.Chemscore.Rot>
1.3080

> <Gold.Chemscore.Internal.Correction>
   9.000000E+99

> <Gold.Chemscore.Hbonds>
donor molecule, donor type, donor heavy atom, donor atom, acceptor molecule, acceptor atom, score
      L1  H     5    24       P1  7948  0.90
      L1  H     8    25       P1  7948  0.89
      P1  H  7989  7998       L1    14  0.86

> <Gold.Chemscore.Hbond.Weighted>
-9.7737

> <Gold.Chemscore.Metal.Weighted>
-0.0000

> <Gold.Chemscore.Lipo.Weighted>
-7.2783

> <Gold.Chemscore.Internal_Hbond.Weighted>
0.0000

> <Gold.Chemscore.DEClash.Weighted>
0.1352

> <Gold.Chemscore.DEInternal.Weighted>
0.2990

> <Gold.Chemscore.Rot.Weighted>
3.3485

> <Gold.Chemscore.Internal.Correction.Weighted>
   9.000000E+99

> <Gold.Protein.RotatedTorsions>
[ 6907 6896 6895 6894 ] final  -24.12 input  -60.11 | X-H torsion
[ 7974 7965 7964 7962 ] final  -16.96 input  175.53 | X-H torsion
[ 8008 7997 7996 7995 ] final -102.91 input   59.86 | X-H torsion
[ 10167 10162 10161 10158 ] final   31.61 input  -65.29 | X-H torsion
[ 10718 10713 10712 10709 ] final  -48.33 input   66.30 | X-H torsion
[ 10763 10752 10751 10750 ] final -176.74 input  -60.55 | X-H torsion
[ 11005 11000 10999 10996 ] final  -25.85 input  -57.11 | X-H torsion

> <Gold.Protein.ActiveResidues>
 VAL166  LYS551  ARG553  GLY616  TRP617  ASP618  TYR619  PRO620  LYS621  CYS622 
 ASP623  PHE694  ASN695  SER759  ASP760  ASP761  ALA762  ILE779  LEU786  VAL792 
 PHE793  MET794  SER795  GLU796  ALA797  LYS798  CYS799  TRP800  GLU811  SER814 

> <Gold.Protein.RotatedAtoms>
  151.1942  135.0415  159.8844 H   0  0  0  0  0  0  0  0  0  0  0  0  # atno 6907 bound_to 6896
  152.5437  134.0922  159.8292 H   0  0  0  0  0  0  0  0  0  0  0  0  # atno 6908 bound_to 6896
  151.1055  133.5164  159.2640 H   0  0  0  0  0  0  0  0  0  0  0  0  # atno 6909 bound_to 6896
  146.1963  140.3711  142.8439 H   0  0  0  0  0  0  0  0  0  0  0  0  # atno 7974 bound_to 7965
  154.8634  140.0426  157.1679 H   0  0  0  0  0  0  0  0  0  0  0  0  # atno 8008 bound_to 7997
  154.8816  140.2973  155.5401 H   0  0  0  0  0  0  0  0  0  0  0  0  # atno 8009 bound_to 7997
  156.2999  140.2410  156.3819 H   0  0  0  0  0  0  0  0  0  0  0  0  # atno 8010 bound_to 7997
  140.4573  144.0959  150.6204 H   0  0  0  0  0  0  0  0  0  0  0  0  # atno 10167 bound_to 10162
  156.1998  130.4156  149.9256 H   0  0  0  0  0  0  0  0  0  0  0  0  # atno 10718 bound_to 10713
  154.5686  135.2826  155.0849 H   0  0  0  0  0  0  0  0  0  0  0  0  # atno 10763 bound_to 10752
  154.2230  135.6387  153.5154 H   0  0  0  0  0  0  0  0  0  0  0  0  # atno 10764 bound_to 10752
  153.0050  135.5519  154.6303 H   0  0  0  0  0  0  0  0  0  0  0  0  # atno 10765 bound_to 10752
  140.8976  133.7546  156.0501 H   0  0  0  0  0  0  0  0  0  0  0  0  # atno 11005 bound_to 11000
  144.8588  140.7109  143.6121 LP  0  0  0  0  0  0  0  0  0  0  0  0  # atno 17320 bound_to 7965
  145.3631  139.1677  143.4372 LP  0  0  0  0  0  0  0  0  0  0  0  0  # atno 17321 bound_to 7965
  140.4136  143.2645  151.9802 LP  0  0  0  0  0  0  0  0  0  0  0  0  # atno 17342 bound_to 10162
  139.4802  144.5893  151.7798 LP  0  0  0  0  0  0  0  0  0  0  0  0  # atno 17343 bound_to 10162
  156.6969  130.8918  151.3595 LP  0  0  0  0  0  0  0  0  0  0  0  0  # atno 17370 bound_to 10713
  157.6979  130.9301  150.0699 LP  0  0  0  0  0  0  0  0  0  0  0  0  # atno 17371 bound_to 10713
  140.8270  134.3223  157.5362 LP  0  0  0  0  0  0  0  0  0  0  0  0  # atno 17394 bound_to 11000
  139.8737  134.9342  156.3600 LP  0  0  0  0  0  0  0  0  0  0  0  0  # atno 17395 bound_to 11000

$$$$
