AV-unprocessed.smi:3354|AV-procd|sdf|12959|dock3
  -GOLD-   2272019393D 1   1.00000     0.00000
 Structure written by MMmdl.
 38 40  0  0  0  0  0  0  0  0  1 V2000
  143.8550  132.6592  148.9540 C   0  0  0  0  0  0  0  0  0  0  0  0
  144.5969  133.4882  149.9796 C   0  0  2  0  0  0  0  0  0  0  0  0
  144.8898  132.9116  151.3458 C   0  0  0  0  0  0  0  0  0  0  0  0
  143.8857  134.0311  151.2060 C   0  0  1  0  0  0  0  0  0  0  0  0
  144.2266  135.3091  151.7541 N   0  0  0  0  0  0  0  0  0  0  0  0
  145.4249  135.9792  151.2779 C   0  0  0  0  0  0  0  0  0  0  0  0
  145.5114  137.2884  152.0810 C   0  0  2  0  0  0  0  0  0  0  0  0
  146.8771  137.5300  152.5379 N   0  0  0  0  0  0  0  0  0  0  0  0
  147.2454  138.5254  153.3561 C   0  0  0  0  0  0  0  0  0  0  0  0
  146.4551  139.3459  153.8222 O   0  0  0  0  0  0  0  0  0  0  0  0
  148.5657  138.4860  153.6051 N   0  0  0  0  0  0  0  0  0  0  0  0
  149.3452  139.3717  154.3974 C   0  0  0  0  0  0  0  0  0  0  0  0
  148.8821  140.6135  154.8965 C   0  0  0  0  0  0  0  0  0  0  0  0
  149.7607  141.4119  155.6537 C   0  0  0  0  0  0  0  0  0  0  0  0
  151.0696  140.9440  155.8798 C   0  0  0  0  0  0  0  0  0  0  0  0
  151.5284  139.7688  155.4002 N   0  0  0  0  0  0  0  0  0  0  0  0
  150.6807  139.0094  154.6738 C   0  0  0  0  0  0  0  0  0  0  0  0
  144.5216  137.1171  153.2444 C   0  0  0  0  0  0  0  0  0  0  0  0
  143.7725  135.8420  152.8969 C   0  0  0  0  0  0  0  0  0  0  0  0
  142.8847  135.3842  153.6148 O   0  0  0  0  0  0  0  0  0  0  0  0
  143.0719  132.0657  149.4269 H   0  0  0  0  0  0  0  0  0  0  0  0
  144.5455  131.9842  148.4483 H   0  0  0  0  0  0  0  0  0  0  0  0
  143.3963  133.3104  148.2101 H   0  0  0  0  0  0  0  0  0  0  0  0
  145.3946  134.0930  149.5528 H   0  0  0  0  0  0  0  0  0  0  0  0
  144.5036  131.9200  151.5734 H   0  0  0  0  0  0  0  0  0  0  0  0
  145.8558  133.1464  151.7890 H   0  0  0  0  0  0  0  0  0  0  0  0
  142.8404  133.7471  151.3132 H   0  0  0  0  0  0  0  0  0  0  0  0
  146.2858  135.3324  151.4567 H   0  0  0  0  0  0  0  0  0  0  0  0
  145.3656  136.1709  150.2056 H   0  0  0  0  0  0  0  0  0  0  0  0
  145.1828  138.1142  151.4468 H   0  0  0  0  0  0  0  0  0  0  0  0
  147.5892  136.8956  152.2067 H   0  0  0  0  0  0  0  0  0  0  0  0
  149.0669  137.7003  153.2168 H   0  0  0  0  0  0  0  0  0  0  0  0
  147.8846  140.9762  154.7040 H   0  0  0  0  0  0  0  0  0  0  0  0
  149.4394  142.3645  156.0482 H   0  0  0  0  0  0  0  0  0  0  0  0
  151.7682  141.5328  156.4558 H   0  0  0  0  0  0  0  0  0  0  0  0
  151.0836  138.0780  154.3037 H   0  0  0  0  0  0  0  0  0  0  0  0
  145.0239  136.9875  154.2040 H   0  0  0  0  0  0  0  0  0  0  0  0
  143.8374  137.9627  153.3237 H   0  0  0  0  0  0  0  0  0  0  0  0
  1  2  1  0  0  0  0
  1 21  1  0  0  0  0
  1 22  1  0  0  0  0
  1 23  1  0  0  0  0
  2  4  1  0  0  0  0
  2  3  1  0  0  0  0
  2 24  1  0  0  0  0
  3  4  1  0  0  0  0
  3 25  1  0  0  0  0
  3 26  1  0  0  0  0
  4  5  1  0  0  0  0
  4 27  1  0  0  0  0
  5 19  1  0  0  0  0
  5  6  1  0  0  0  0
  6  7  1  0  0  0  0
  6 28  1  0  0  0  0
  6 29  1  0  0  0  0
  7  8  1  0  0  0  0
  7 18  1  0  0  0  0
  7 30  1  0  0  0  0
  8  9  1  0  0  0  0
  8 31  1  0  0  0  0
  9 10  2  0  0  0  0
  9 11  1  0  0  0  0
 11 12  1  0  0  0  0
 11 32  1  0  0  0  0
 12 17  1  0  0  0  0
 12 13  2  0  0  0  0
 13 14  1  0  0  0  0
 13 33  1  0  0  0  0
 14 15  2  0  0  0  0
 14 34  1  0  0  0  0
 15 16  1  0  0  0  0
 15 35  1  0  0  0  0
 16 17  2  0  0  0  0
 17 36  1  0  0  0  0
 18 19  1  0  0  0  0
 18 37  1  0  0  0  0
 18 38  1  0  0  0  0
 19 20  2  0  0  0  0
M  END
> <s_m_source_file>
AV-unprocessed.smi

> <i_m_source_file_index>
3354

> <i_lp_mmshare_version>
43012

> <i_f3d_flags>
0

> <s_epik_input>
W0NIM11bQ0BASF0xW0NIMl1bQ0BIXTFOMltDSDJdW0NASF0oW0NIMl1DMj1PKVtOSF1DKD1PKVtOSF1jM1tjSF1bY0hdW2NIXW5bY0hdMw==

> <s_epik_cmdline>
J2VwaWtfcHl0aG9uJywgJy1waCcsICc3LjAnLCAnLXRuJywgJzgnLCAnLW1hJywgJzIwMCcsICctbWV0YWxfYmluZGluZycsICctaW1hZScsICc8aW5maWxlLm1hZT4nLCAnLW9tYWUnLCAnPG91dGZpbGUubWFlPic=

> <r_epik_Ionization_Penalty>
0.00456191

> <r_epik_Ionization_Penalty_Charging>
0

> <r_epik_Ionization_Penalty_Neutral>
0.00456191

> <r_epik_State_Penalty>
0.00327094

> <r_epik_Charging_Adjusted_Penalty>
0.00327094

> <i_epik_Tot_Q>
0

> <i_epik_Tot_abs_Q>
0

> <r_epik_Metal_State_Penalty>
-0

> <b_epik_Metal_Only>
0

> <s_lp_Force_Field>
OPLS_2005

> <r_lp_Energy>
40.1113

> <b_lp_Chiralities_Consistent>
1

> <s_lp_Variant>
AV-unprocessed.smi:3354-5

> <Gold.Version>
5.8.1

> <Gold.Id.Protein>
6NUR|6NUR_protein|mol2

> <Gold.PLP.Fitness>
42.8611

> <Gold.PLP.PLP>
-37.1897

> <Gold.PLP.part.hbond>
-3.9793

> <Gold.PLP.part.metal>
0.0000

> <Gold.PLP.part.buried>
-2.5016

> <Gold.PLP.part.nonpolar>
-31.9529

> <Gold.PLP.part.repulsive>
0.3928

> <Gold.PLP.ligand.clash>
0.0000

> <Gold.PLP.ligand.torsion>
0.2441

> <Gold.PLP.Chemscore.Hbond>
1.9269

> <Gold.PLP.Chemscore.CHOScore>
0.0000

> <Gold.PLP.Chemscore.Metal>
0.0000

> <Gold.Chemscore.Hbonds>
donor molecule, donor type, donor heavy atom, donor atom, acceptor molecule, acceptor atom, score
      L1  H     8    31       P1  7948  1.00
      L1  H    11    32       P1  7948  0.88
      P1  H  7989  7998       L1    16  0.01

> <Gold.PLP.Chemscore.Internal.Correction>
0.3790

> <Gold.Rescore>
     Score         DG    S(hbond)    S(metal)    S(lipo)     H(rot)  DE(clash)    DE(int)     intcor
     16.20     -18.81       1.92        0.00      86.22       1.24       0.24       2.38       ----

> <Gold.Chemscore.Fitness>
16.1978

> <Gold.Chemscore.DG>
-18.8116

> <Gold.Chemscore.ZeroCoef>
-5.4800

> <Gold.Chemscore.Hbond>
1.9185

> <Gold.Chemscore.Metal>
0.0000

> <Gold.Chemscore.Lipo>
86.2230

> <Gold.Chemscore.Internal_Hbond>
0.0000

> <Gold.Chemscore.DEClash>
0.2371

> <Gold.Chemscore.DEInternal>
2.3768

> <Gold.Chemscore.Rot>
1.2361

> <Gold.Chemscore.Internal.Correction>
   9.000000E+99

> <Gold.Chemscore.Hbonds>
donor molecule, donor type, donor heavy atom, donor atom, acceptor molecule, acceptor atom, score
      L1  H     8    31       P1  7948  0.94
      L1  H    11    32       P1  7948  0.85

> <Gold.Chemscore.Hbond.Weighted>
-6.4079

> <Gold.Chemscore.Metal.Weighted>
-0.0000

> <Gold.Chemscore.Lipo.Weighted>
-10.0881

> <Gold.Chemscore.Internal_Hbond.Weighted>
0.0000

> <Gold.Chemscore.DEClash.Weighted>
0.2371

> <Gold.Chemscore.DEInternal.Weighted>
2.3768

> <Gold.Chemscore.Rot.Weighted>
3.1643

> <Gold.Chemscore.Internal.Correction.Weighted>
   9.000000E+99

> <Gold.Protein.RotatedTorsions>
[ 6907 6896 6895 6894 ] final  -39.99 input  -60.11 | X-H torsion
[ 7974 7965 7964 7962 ] final   46.79 input  175.53 | X-H torsion
[ 8008 7997 7996 7995 ] final    1.25 input   59.86 | X-H torsion
[ 10167 10162 10161 10158 ] final -153.84 input  -65.29 | X-H torsion
[ 10718 10713 10712 10709 ] final   77.86 input   66.30 | X-H torsion
[ 10763 10752 10751 10750 ] final   68.95 input  -60.55 | X-H torsion
[ 11005 11000 10999 10996 ] final  143.61 input  -57.11 | X-H torsion

> <Gold.Protein.ActiveResidues>
 VAL166  LYS551  ARG553  GLY616  TRP617  ASP618  TYR619  PRO620  LYS621  CYS622 
 ASP623  PHE694  ASN695  SER759  ASP760  ASP761  ALA762  ILE779  LEU786  VAL792 
 PHE793  MET794  SER795  GLU796  ALA797  LYS798  CYS799  TRP800  GLU811  SER814 

> <Gold.Protein.RotatedAtoms>
  150.9837  134.9187  159.7859 H   0  0  0  0  0  0  0  0  0  0  0  0  # atno 6907 bound_to 6896
  152.5230  134.3375  159.9215 H   0  0  0  0  0  0  0  0  0  0  0  0  # atno 6908 bound_to 6896
  151.3382  133.3932  159.2703 H   0  0  0  0  0  0  0  0  0  0  0  0  # atno 6909 bound_to 6896
  146.0357  139.4818  142.9810 H   0  0  0  0  0  0  0  0  0  0  0  0  # atno 7974 bound_to 7965
  154.6775  140.2625  155.6943 H   0  0  0  0  0  0  0  0  0  0  0  0  # atno 8008 bound_to 7997
  156.2684  140.2817  156.1229 H   0  0  0  0  0  0  0  0  0  0  0  0  # atno 8009 bound_to 7997
  155.1079  140.0375  157.2706 H   0  0  0  0  0  0  0  0  0  0  0  0  # atno 8010 bound_to 7997
  139.7063  143.9180  152.2450 H   0  0  0  0  0  0  0  0  0  0  0  0  # atno 10167 bound_to 10162
  157.6725  130.9841  150.1703 H   0  0  0  0  0  0  0  0  0  0  0  0  # atno 10718 bound_to 10713
  153.0262  135.5228  154.7214 H   0  0  0  0  0  0  0  0  0  0  0  0  # atno 10763 bound_to 10752
  154.6268  135.2895  155.0265 H   0  0  0  0  0  0  0  0  0  0  0  0  # atno 10764 bound_to 10752
  154.1231  135.6604  153.4959 H   0  0  0  0  0  0  0  0  0  0  0  0  # atno 10765 bound_to 10752
  140.0567  134.9226  157.1113 H   0  0  0  0  0  0  0  0  0  0  0  0  # atno 11005 bound_to 11000
  145.6967  141.0148  143.1526 LP  0  0  0  0  0  0  0  0  0  0  0  0  # atno 17320 bound_to 7965
  144.7051  139.8597  143.7432 LP  0  0  0  0  0  0  0  0  0  0  0  0  # atno 17321 bound_to 7965
  139.9037  144.6897  150.8637 LP  0  0  0  0  0  0  0  0  0  0  0  0  # atno 17342 bound_to 10162
  140.7722  143.3495  151.2044 LP  0  0  0  0  0  0  0  0  0  0  0  0  # atno 17343 bound_to 10162
  156.2459  130.3695  149.8286 LP  0  0  0  0  0  0  0  0  0  0  0  0  # atno 17370 bound_to 10713
  156.6073  130.8572  151.3446 LP  0  0  0  0  0  0  0  0  0  0  0  0  # atno 17371 bound_to 10713
  140.3833  134.2264  155.7170 LP  0  0  0  0  0  0  0  0  0  0  0  0  # atno 17394 bound_to 11000
  141.1955  133.8104  157.0711 LP  0  0  0  0  0  0  0  0  0  0  0  0  # atno 17395 bound_to 11000

$$$$
