AV-unprocessed.smi:1240|AV-procd|sdf|5214|dock7
  -GOLD-   22720 4313D 1   1.00000     0.00000
 Structure written by MMmdl.
 48 50  0  0  0  0  0  0  0  0  4 V2000
  147.6213  131.7532  152.8564 O   0  0  0  0  0  0  0  0  0  0  0  0
  147.8246  132.8586  153.3710 C   0  0  0  0  0  0  0  0  0  0  0  0
  148.8184  133.2023  154.2333 N   0  5  0  0  0  0  0  0  0  0  0  0
  149.7204  134.3440  154.0709 C   0  0  0  0  0  0  0  0  0  0  0  0
  149.3753  135.4851  155.0925 C   0  0  1  0  0  0  0  0  0  0  0  0
  149.8999  135.2408  156.5463 C   0  0  1  0  0  0  0  0  0  0  0  0
  149.2107  136.0935  157.6023 C   0  0  0  0  0  0  0  0  0  0  0  0
  149.5841  135.3802  158.8953 C   0  0  0  0  0  0  0  0  0  0  0  0
  149.6334  134.0000  158.5609 O   0  0  0  0  0  0  0  0  0  0  0  0
  149.6517  133.8441  157.1452 C   0  0  0  0  0  0  0  0  0  0  0  0
  149.7776  136.8638  154.6391 N   0  3  0  0  0  0  0  0  0  0  0  0
  149.1136  138.0356  155.2777 C   0  0  0  0  0  0  0  0  0  0  0  0
  149.4329  139.3115  154.4823 C   0  0  0  0  0  0  0  0  0  0  0  0
  150.8429  139.4859  154.4018 O   0  0  0  0  0  0  0  0  0  0  0  0
  151.4794  138.4107  153.7209 C   0  0  0  0  0  0  0  0  0  0  0  0
  151.2381  137.0969  154.4820 C   0  0  0  0  0  0  0  0  0  0  0  0
  147.0013  133.8905  153.1122 N   0  0  0  0  0  0  0  0  0  0  0  0
  145.8326  133.9180  152.3047 C   0  0  0  0  0  0  0  0  0  0  0  0
  145.1807  135.1593  152.1358 C   0  0  0  0  0  0  0  0  0  0  0  0
  144.0249  135.2331  151.3323 C   0  0  0  0  0  0  0  0  0  0  0  0
  143.5591  134.1229  150.7207 N   0  3  0  0  0  0  0  0  0  0  0  0
  144.1605  132.9191  150.8354 C   0  0  0  0  0  0  0  0  0  0  0  0
  145.3199  132.7838  151.6260 C   0  0  0  0  0  0  0  0  0  0  0  0
  150.7621  134.0527  154.2051 H   0  0  0  0  0  0  0  0  0  0  0  0
  149.6736  134.7543  153.0618 H   0  0  0  0  0  0  0  0  0  0  0  0
  148.2871  135.5266  155.1680 H   0  0  0  0  0  0  0  0  0  0  0  0
  150.9710  135.4462  156.6038 H   0  0  0  0  0  0  0  0  0  0  0  0
  149.5349  137.1345  157.5975 H   0  0  0  0  0  0  0  0  0  0  0  0
  148.1287  136.0723  157.4632 H   0  0  0  0  0  0  0  0  0  0  0  0
  150.5739  135.6927  159.2298 H   0  0  0  0  0  0  0  0  0  0  0  0
  148.8756  135.5735  159.7011 H   0  0  0  0  0  0  0  0  0  0  0  0
  148.6802  133.4560  156.8364 H   0  0  0  0  0  0  0  0  0  0  0  0
  150.4124  133.1210  156.8495 H   0  0  0  0  0  0  0  0  0  0  0  0
  148.0340  137.8940  155.3142 H   0  0  0  0  0  0  0  0  0  0  0  0
  149.4573  138.1603  156.3055 H   0  0  0  0  0  0  0  0  0  0  0  0
  149.0016  139.2640  153.4809 H   0  0  0  0  0  0  0  0  0  0  0  0
  148.9970  140.1805  154.9753 H   0  0  0  0  0  0  0  0  0  0  0  0
  151.1059  138.3418  152.6978 H   0  0  0  0  0  0  0  0  0  0  0  0
  152.5479  138.6166  153.6565 H   0  0  0  0  0  0  0  0  0  0  0  0
  151.7248  137.1461  155.4568 H   0  0  0  0  0  0  0  0  0  0  0  0
  151.6943  136.2705  153.9359 H   0  0  0  0  0  0  0  0  0  0  0  0
  147.1857  134.7303  153.6414 H   0  0  0  0  0  0  0  0  0  0  0  0
  145.5561  136.0465  152.6253 H   0  0  0  0  0  0  0  0  0  0  0  0
  143.4644  136.1403  151.1613 H   0  0  0  0  0  0  0  0  0  0  0  0
  143.7031  132.1060  150.2909 H   0  0  0  0  0  0  0  0  0  0  0  0
  145.8013  131.8197  151.6909 H   0  0  0  0  0  0  0  0  0  0  0  0
  149.4381  136.8846  153.6887 H   0  0  0  0  0  0  0  0  0  0  0  0
  142.7209  134.1974  150.1439 H   0  0  0  0  0  0  0  0  0  0  0  0
  1  2  2  0  0  0  0
  2  3  1  0  0  0  0
  2 17  1  0  0  0  0
  3  4  1  0  0  0  0
  4  5  1  0  0  0  0
  4 24  1  0  0  0  0
  4 25  1  0  0  0  0
  5  6  1  0  0  0  0
  5 11  1  0  0  0  0
  5 26  1  0  0  0  0
  6 10  1  0  0  0  0
  6  7  1  0  0  0  0
  6 27  1  0  0  0  0
  7  8  1  0  0  0  0
  7 28  1  0  0  0  0
  7 29  1  0  0  0  0
  8  9  1  0  0  0  0
  8 30  1  0  0  0  0
  8 31  1  0  0  0  0
  9 10  1  0  0  0  0
 10 32  1  0  0  0  0
 10 33  1  0  0  0  0
 11 16  1  0  0  0  0
 11 12  1  0  0  0  0
 11 47  1  0  0  0  0
 12 13  1  0  0  0  0
 12 34  1  0  0  0  0
 12 35  1  0  0  0  0
 13 14  1  0  0  0  0
 13 36  1  0  0  0  0
 13 37  1  0  0  0  0
 14 15  1  0  0  0  0
 15 16  1  0  0  0  0
 15 38  1  0  0  0  0
 15 39  1  0  0  0  0
 16 40  1  0  0  0  0
 16 41  1  0  0  0  0
 17 18  1  0  0  0  0
 17 42  1  0  0  0  0
 18 23  1  0  0  0  0
 18 19  2  0  0  0  0
 19 20  1  0  0  0  0
 19 43  1  0  0  0  0
 20 21  2  0  0  0  0
 20 44  1  0  0  0  0
 21 22  1  0  0  0  0
 21 48  1  0  0  0  0
 22 23  2  0  0  0  0
 22 45  1  0  0  0  0
 23 46  1  0  0  0  0
M  CHG  1   3  -1
M  CHG  1  11   1
M  CHG  1  21   1
M  END
> <s_m_source_file>
AV-unprocessed.smi

> <i_m_source_file_index>
1240

> <i_lp_mmshare_version>
43012

> <i_f3d_flags>
0

> <s_epik_input>
W2NIXTFbY0hdbltjSF1bY0hdYzFbTkhdQyg9TylbTkhdW0NIMl1bQ0BIXShbQ0BASF0yW0NIMl1bQ0gyXU9bQ0gyXTIpTjNbQ0gyXVtDSDJdT1tDSDJdW0NIMl0z

> <s_epik_cmdline>
J2VwaWtfcHl0aG9uJywgJy1waCcsICc3LjAnLCAnLXRuJywgJzgnLCAnLW1hJywgJzIwMCcsICctbWV0YWxfYmluZGluZycsICctaW1hZScsICc8aW5maWxlLm1hZT4nLCAnLW9tYWUnLCAnPG91dGZpbGUubWFlPic=

> <r_epik_Ionization_Penalty>
8.41087

> <r_epik_Ionization_Penalty_Charging>
8.41087

> <r_epik_Ionization_Penalty_Neutral>
3.12936e-06

> <r_epik_State_Penalty>
8.81894

> <r_epik_Charging_Adjusted_Penalty>
17.2298

> <i_epik_Tot_Q>
1

> <i_epik_Tot_abs_Q>
3

> <r_epik_Metal_State_Penalty>
4.82983

> <b_epik_Metal_Only>
1

> <s_lp_Force_Field>
OPLS_2005

> <r_lp_Energy>
49.5446

> <b_lp_Chiralities_Consistent>
1

> <s_lp_Variant>
AV-unprocessed.smi:1240-20

> <Gold.Version>
5.8.1

> <Gold.Id.Protein>
6NUR|6NUR_protein|mol2

> <Gold.PLP.Fitness>
45.2482

> <Gold.PLP.PLP>
-30.1223

> <Gold.PLP.part.hbond>
-4.3712

> <Gold.PLP.part.metal>
0.0000

> <Gold.PLP.part.buried>
-5.4180

> <Gold.PLP.part.nonpolar>
-21.3549

> <Gold.PLP.part.repulsive>
0.3465

> <Gold.PLP.ligand.clash>
0.0000

> <Gold.PLP.ligand.torsion>
1.0493

> <Gold.PLP.Chemscore.Hbond>
5.5820

> <Gold.PLP.Chemscore.CHOScore>
0.0000

> <Gold.PLP.Chemscore.Metal>
0.0000

> <Gold.Chemscore.Hbonds>
donor molecule, donor type, donor heavy atom, donor atom, acceptor molecule, acceptor atom, score
      L1  H    11    47       P1  7948  2.00
      L1  H    21    48       P1 10186  2.00
      P1  H  6896  6909       L1     9  0.08
      P1  H  7989  7998       L1    14  0.85

> <Gold.PLP.Chemscore.Internal.Correction>
0.4785

> <Gold.Rescore>
     Score         DG    S(hbond)    S(metal)    S(lipo)     H(rot)  DE(clash)    DE(int)     intcor
     14.55     -17.87       2.57        0.00      69.68       1.70       0.17       3.15       ----

> <Gold.Chemscore.Fitness>
14.5507

> <Gold.Chemscore.DG>
-17.8696

> <Gold.Chemscore.ZeroCoef>
-5.4800

> <Gold.Chemscore.Hbond>
2.5732

> <Gold.Chemscore.Metal>
0.0000

> <Gold.Chemscore.Lipo>
69.6821

> <Gold.Chemscore.Internal_Hbond>
0.0000

> <Gold.Chemscore.DEClash>
0.1653

> <Gold.Chemscore.DEInternal>
3.1537

> <Gold.Chemscore.Rot>
1.7021

> <Gold.Chemscore.Internal.Correction>
   9.000000E+99

> <Gold.Chemscore.Hbonds>
donor molecule, donor type, donor heavy atom, donor atom, acceptor molecule, acceptor atom, score
      L1  H    11    47       P1  7948  0.88
      L1  H    21    48       P1 10186  0.94
      P1  H  7989  7998       L1    14  0.15

> <Gold.Chemscore.Hbond.Weighted>
-8.5943

> <Gold.Chemscore.Metal.Weighted>
-0.0000

> <Gold.Chemscore.Lipo.Weighted>
-8.1528

> <Gold.Chemscore.Internal_Hbond.Weighted>
0.0000

> <Gold.Chemscore.DEClash.Weighted>
0.1653

> <Gold.Chemscore.DEInternal.Weighted>
3.1537

> <Gold.Chemscore.Rot.Weighted>
4.3575

> <Gold.Chemscore.Internal.Correction.Weighted>
   9.000000E+99

> <Gold.Protein.RotatedTorsions>
[ 6907 6896 6895 6894 ] final   12.56 input  -60.11 | X-H torsion
[ 7974 7965 7964 7962 ] final  -59.75 input  175.53 | X-H torsion
[ 8008 7997 7996 7995 ] final -105.72 input   59.86 | X-H torsion
[ 10167 10162 10161 10158 ] final -124.33 input  -65.29 | X-H torsion
[ 10718 10713 10712 10709 ] final  -33.37 input   66.30 | X-H torsion
[ 10763 10752 10751 10750 ] final -113.35 input  -60.55 | X-H torsion
[ 11005 11000 10999 10996 ] final  -32.74 input  -57.11 | X-H torsion

> <Gold.Protein.ActiveResidues>
 VAL166  LYS551  ARG553  GLY616  TRP617  ASP618  TYR619  PRO620  LYS621  CYS622 
 ASP623  PHE694  ASN695  SER759  ASP760  ASP761  ALA762  ILE779  LEU786  VAL792 
 PHE793  MET794  SER795  GLU796  ALA797  LYS798  CYS799  TRP800  GLU811  SER814 

> <Gold.Protein.RotatedAtoms>
  151.7723  135.0783  160.0361 H   0  0  0  0  0  0  0  0  0  0  0  0  # atno 6907 bound_to 6896
  152.3280  133.5922  159.5798 H   0  0  0  0  0  0  0  0  0  0  0  0  # atno 6908 bound_to 6896
  150.7406  133.9827  159.3623 H   0  0  0  0  0  0  0  0  0  0  0  0  # atno 6909 bound_to 6896
  145.8237  140.8524  143.0119 H   0  0  0  0  0  0  0  0  0  0  0  0  # atno 7974 bound_to 7965
  154.9040  140.0412  157.1909 H   0  0  0  0  0  0  0  0  0  0  0  0  # atno 8008 bound_to 7997
  154.8415  140.2915  155.5635 H   0  0  0  0  0  0  0  0  0  0  0  0  # atno 8009 bound_to 7997
  156.2992  140.2482  156.3359 H   0  0  0  0  0  0  0  0  0  0  0  0  # atno 8010 bound_to 7997
  139.9939  143.5611  152.2331 H   0  0  0  0  0  0  0  0  0  0  0  0  # atno 10167 bound_to 10162
  156.3635  130.4327  149.7604 H   0  0  0  0  0  0  0  0  0  0  0  0  # atno 10718 bound_to 10713
  154.8392  135.4457  154.1335 H   0  0  0  0  0  0  0  0  0  0  0  0  # atno 10763 bound_to 10752
  153.2539  135.6929  153.7656 H   0  0  0  0  0  0  0  0  0  0  0  0  # atno 10764 bound_to 10752
  153.6958  135.3380  155.3188 H   0  0  0  0  0  0  0  0  0  0  0  0  # atno 10765 bound_to 10752
  140.9577  133.7183  156.1319 H   0  0  0  0  0  0  0  0  0  0  0  0  # atno 11005 bound_to 11000
  144.6745  140.0571  143.7477 LP  0  0  0  0  0  0  0  0  0  0  0  0  # atno 17320 bound_to 7965
  145.9647  139.2826  143.1135 LP  0  0  0  0  0  0  0  0  0  0  0  0  # atno 17321 bound_to 7965
  139.6320  144.7645  151.2517 LP  0  0  0  0  0  0  0  0  0  0  0  0  # atno 17342 bound_to 10162
  140.7444  143.6464  150.8288 LP  0  0  0  0  0  0  0  0  0  0  0  0  # atno 17343 bound_to 10162
  156.4758  130.8018  151.3034 LP  0  0  0  0  0  0  0  0  0  0  0  0  # atno 17370 bound_to 10713
  157.7476  131.0021  150.2989 LP  0  0  0  0  0  0  0  0  0  0  0  0  # atno 17371 bound_to 10713
  140.7512  134.4042  157.5541 LP  0  0  0  0  0  0  0  0  0  0  0  0  # atno 17394 bound_to 11000
  139.8867  134.8901  156.2567 LP  0  0  0  0  0  0  0  0  0  0  0  0  # atno 17395 bound_to 11000

$$$$
