AV-unprocessed.smi:1721|AV-procd|sdf|6941|dock2
  -GOLD-   22720 8153D 1   1.00000     0.00000
 Structure written by MMmdl.
 44 46  0  0  0  0  0  0  0  0  2 V2000
  151.3402  138.1161  154.3422 C   0  0  0  0  0  0  0  0  0  0  0  0
  150.0012  138.1949  153.8657 O   0  0  0  0  0  0  0  0  0  0  0  0
  149.3375  139.4038  153.9584 C   0  0  0  0  0  0  0  0  0  0  0  0
  149.9718  140.4420  154.5588 N   0  0  0  0  0  0  0  0  0  0  0  0
  149.3292  141.6243  154.6465 C   0  0  0  0  0  0  0  0  0  0  0  0
  148.0343  141.8353  154.1398 C   0  0  0  0  0  0  0  0  0  0  0  0
  147.3742  140.7605  153.5156 C   0  0  0  0  0  0  0  0  0  0  0  0
  148.0304  139.5080  153.4261 C   0  0  0  0  0  0  0  0  0  0  0  0
  147.4713  138.3534  152.8084 N   0  0  0  0  0  0  0  0  0  0  0  0
  146.1814  138.0167  152.6393 C   0  0  0  0  0  0  0  0  0  0  0  0
  145.2113  138.6752  153.0125 O   0  0  0  0  0  0  0  0  0  0  0  0
  146.0681  136.8434  152.0007 N   0  0  0  0  0  0  0  0  0  0  0  0
  144.8006  136.2005  151.6626 C   0  0  2  0  0  0  0  0  0  0  0  0
  144.0181  135.7228  152.8791 C   0  0  0  0  0  0  0  0  0  0  0  0
  143.0320  134.7150  152.2790 C   0  0  0  0  0  0  0  0  0  0  0  0
  143.6648  134.1747  151.0504 N   0  3  2  0  0  0  0  0  0  0  0  0
  143.7858  132.6919  151.0332 C   0  0  0  0  0  0  0  0  0  0  0  0
  144.7784  132.2344  149.9540 C   0  0  0  0  0  0  0  0  0  0  0  0
  146.1944  132.7787  150.2220 C   0  0  0  0  0  0  0  0  0  0  0  0
  146.1821  134.0534  151.0869 C   0  0  0  0  0  0  0  0  0  0  0  0
  144.9311  134.9236  150.8096 C   0  0  2  0  0  0  0  0  0  0  0  0
  151.7154  137.1030  154.1982 H   0  0  0  0  0  0  0  0  0  0  0  0
  151.3989  138.3418  155.4079 H   0  0  0  0  0  0  0  0  0  0  0  0
  151.9988  138.7926  153.7956 H   0  0  0  0  0  0  0  0  0  0  0  0
  149.8655  142.4273  155.1301 H   0  0  0  0  0  0  0  0  0  0  0  0
  147.5594  142.8015  154.2240 H   0  0  0  0  0  0  0  0  0  0  0  0
  146.3887  140.9288  153.1120 H   0  0  0  0  0  0  0  0  0  0  0  0
  148.1485  137.6746  152.4918 H   0  0  0  0  0  0  0  0  0  0  0  0
  146.9142  136.3622  151.7323 H   0  0  0  0  0  0  0  0  0  0  0  0
  144.1739  136.9170  151.1268 H   0  0  0  0  0  0  0  0  0  0  0  0
  144.6818  135.2174  153.5824 H   0  0  0  0  0  0  0  0  0  0  0  0
  143.5201  136.5346  153.4102 H   0  0  0  0  0  0  0  0  0  0  0  0
  142.7590  133.9423  152.9991 H   0  0  0  0  0  0  0  0  0  0  0  0
  142.1130  135.2225  151.9841 H   0  0  0  0  0  0  0  0  0  0  0  0
  144.1225  132.3295  152.0062 H   0  0  0  0  0  0  0  0  0  0  0  0
  142.8012  132.2575  150.8581 H   0  0  0  0  0  0  0  0  0  0  0  0
  144.8032  131.1459  149.8919 H   0  0  0  0  0  0  0  0  0  0  0  0
  144.4301  132.5865  148.9819 H   0  0  0  0  0  0  0  0  0  0  0  0
  146.8005  132.0206  150.7196 H   0  0  0  0  0  0  0  0  0  0  0  0
  146.6841  132.9792  149.2683 H   0  0  0  0  0  0  0  0  0  0  0  0
  146.2009  133.7747  152.1415 H   0  0  0  0  0  0  0  0  0  0  0  0
  147.1008  134.6116  150.9053 H   0  0  0  0  0  0  0  0  0  0  0  0
  144.9574  135.2076  149.7564 H   0  0  0  0  0  0  0  0  0  0  0  0
  143.0520  134.4215  150.2863 H   0  0  0  0  0  0  0  0  0  0  0  0
  1  2  1  0  0  0  0
  1 22  1  0  0  0  0
  1 23  1  0  0  0  0
  1 24  1  0  0  0  0
  2  3  1  0  0  0  0
  3  8  1  0  0  0  0
  3  4  2  0  0  0  0
  4  5  1  0  0  0  0
  5  6  2  0  0  0  0
  5 25  1  0  0  0  0
  6  7  1  0  0  0  0
  6 26  1  0  0  0  0
  7  8  2  0  0  0  0
  7 27  1  0  0  0  0
  8  9  1  0  0  0  0
  9 10  1  0  0  0  0
  9 28  1  0  0  0  0
 10 11  2  0  0  0  0
 10 12  1  0  0  0  0
 12 13  1  0  0  0  0
 12 29  1  0  0  0  0
 13 21  1  0  0  0  0
 13 14  1  0  0  0  0
 13 30  1  0  0  0  0
 14 15  1  0  0  0  0
 14 31  1  0  0  0  0
 14 32  1  0  0  0  0
 15 16  1  0  0  0  0
 15 33  1  0  0  0  0
 15 34  1  0  0  0  0
 16 21  1  0  0  0  0
 16 17  1  0  0  0  0
 16 44  1  0  0  0  0
 17 18  1  0  0  0  0
 17 35  1  0  0  0  0
 17 36  1  0  0  0  0
 18 19  1  0  0  0  0
 18 37  1  0  0  0  0
 18 38  1  0  0  0  0
 19 20  1  0  0  0  0
 19 39  1  0  0  0  0
 19 40  1  0  0  0  0
 20 21  1  0  0  0  0
 20 41  1  0  0  0  0
 20 42  1  0  0  0  0
 21 43  1  0  0  0  0
M  CHG  1  16   1
M  END
> <s_m_source_file>
AV-unprocessed.smi

> <i_m_source_file_index>
1721

> <i_lp_mmshare_version>
43012

> <i_f3d_flags>
0

> <s_epik_input>
W0NIM11PYzFuW2NIXVtjSF1bY0hdYzFbTkhdQyg9TylbTkhdW0NASF0oW0NIMl1bQ0gyXTIpW0NAQEhdKE4yMylbQ0gyXVtDSDJdW0NIMl1bQ0gyXTM=

> <s_epik_cmdline>
J2VwaWtfcHl0aG9uJywgJy1waCcsICc3LjAnLCAnLXRuJywgJzgnLCAnLW1hJywgJzIwMCcsICctbWV0YWxfYmluZGluZycsICctaW1hZScsICc8aW5maWxlLm1hZT4nLCAnLW9tYWUnLCAnPG91dGZpbGUubWFlPic=

> <r_lp_tautomer_probability>
1

> <r_epik_Ionization_Penalty>
0.00104793

> <r_epik_Ionization_Penalty_Charging>
0.000974069

> <r_epik_Ionization_Penalty_Neutral>
7.38649e-05

> <r_epik_State_Penalty>
0.000633842

> <r_epik_Charging_Adjusted_Penalty>
0.00160791

> <i_epik_Tot_Q>
1

> <i_epik_Tot_abs_Q>
1

> <r_epik_Metal_State_Penalty>
-0

> <b_epik_Metal_Only>
0

> <s_lp_Force_Field>
OPLS_2005

> <r_lp_Energy>
43.7012

> <b_lp_Chiralities_Consistent>
1

> <s_lp_Variant>
AV-unprocessed.smi:1721-7

> <Gold.Version>
5.8.1

> <Gold.Id.Protein>
6NUR|6NUR_protein|mol2

> <Gold.PLP.Fitness>
51.3784

> <Gold.PLP.PLP>
-36.7268

> <Gold.PLP.part.hbond>
-4.3767

> <Gold.PLP.part.metal>
0.0000

> <Gold.PLP.part.buried>
-2.1130

> <Gold.PLP.part.nonpolar>
-36.2026

> <Gold.PLP.part.repulsive>
6.0723

> <Gold.PLP.ligand.clash>
0.0000

> <Gold.PLP.ligand.torsion>
0.1941

> <Gold.PLP.Chemscore.Hbond>
4.1539

> <Gold.PLP.Chemscore.CHOScore>
0.8579

> <Gold.PLP.Chemscore.Metal>
0.0000

> <Gold.Chemscore.Hbonds>
donor molecule, donor type, donor heavy atom, donor atom, acceptor molecule, acceptor atom, score
      L1  H     9    28       P1  7948  1.00
      L1  H    12    29       P1  7948  0.98
      L1  H    16    44       P1 10186  1.22
      P1  H  7989  7998       L1     4  0.90
      L1  C     5    25       P1  8028  0.87

> <Gold.PLP.Chemscore.Internal.Correction>
0.0042

> <Gold.Rescore>
     Score         DG    S(hbond)    S(metal)    S(lipo)     H(rot)  DE(clash)    DE(int)     intcor
     17.40     -21.01       2.38        0.00      91.92       1.25       2.69       0.92       ----

> <Gold.Chemscore.Fitness>
17.3994

> <Gold.Chemscore.DG>
-21.0066

> <Gold.Chemscore.ZeroCoef>
-5.4800

> <Gold.Chemscore.Hbond>
2.3850

> <Gold.Chemscore.Metal>
0.0000

> <Gold.Chemscore.Lipo>
91.9160

> <Gold.Chemscore.Internal_Hbond>
0.0000

> <Gold.Chemscore.DEClash>
2.6867

> <Gold.Chemscore.DEInternal>
0.9204

> <Gold.Chemscore.Rot>
1.2474

> <Gold.Chemscore.Internal.Correction>
   9.000000E+99

> <Gold.Chemscore.Hbonds>
donor molecule, donor type, donor heavy atom, donor atom, acceptor molecule, acceptor atom, score
      L1  H     9    28       P1  7948  1.00
      L1  H    12    29       P1  7948  0.88
      L1  H    16    44       P1 10186  0.47
      P1  H  7989  7998       L1     4  0.22

> <Gold.Chemscore.Hbond.Weighted>
-7.9658

> <Gold.Chemscore.Metal.Weighted>
-0.0000

> <Gold.Chemscore.Lipo.Weighted>
-10.7542

> <Gold.Chemscore.Internal_Hbond.Weighted>
0.0000

> <Gold.Chemscore.DEClash.Weighted>
2.6867

> <Gold.Chemscore.DEInternal.Weighted>
0.9204

> <Gold.Chemscore.Rot.Weighted>
3.1934

> <Gold.Chemscore.Internal.Correction.Weighted>
   9.000000E+99

> <Gold.Protein.RotatedTorsions>
[ 6907 6896 6895 6894 ] final   79.68 input  -60.11 | X-H torsion
[ 7974 7965 7964 7962 ] final  156.72 input  175.53 | X-H torsion
[ 8008 7997 7996 7995 ] final  -69.06 input   59.86 | X-H torsion
[ 10167 10162 10161 10158 ] final  -46.25 input  -65.29 | X-H torsion
[ 10718 10713 10712 10709 ] final  -30.09 input   66.30 | X-H torsion
[ 10763 10752 10751 10750 ] final  -10.51 input  -60.55 | X-H torsion
[ 11005 11000 10999 10996 ] final   88.58 input  -57.11 | X-H torsion

> <Gold.Protein.ActiveResidues>
 VAL166  LYS551  ARG553  GLY616  TRP617  ASP618  TYR619  PRO620  LYS621  CYS622 
 ASP623  PHE694  ASN695  SER759  ASP760  ASP761  ALA762  ILE779  LEU786  VAL792 
 PHE793  MET794  SER795  GLU796  ALA797  LYS798  CYS799  TRP800  GLU811  SER814 

> <Gold.Protein.RotatedAtoms>
  152.5207  134.3474  159.9238 H   0  0  0  0  0  0  0  0  0  0  0  0  # atno 6907 bound_to 6896
  151.3425  133.3950  159.2680 H   0  0  0  0  0  0  0  0  0  0  0  0  # atno 6908 bound_to 6896
  150.9792  134.9169  159.7892 H   0  0  0  0  0  0  0  0  0  0  0  0  # atno 6909 bound_to 6896
  144.7946  139.7242  143.6207 H   0  0  0  0  0  0  0  0  0  0  0  0  # atno 7974 bound_to 7965
  154.4912  140.0861  156.7597 H   0  0  0  0  0  0  0  0  0  0  0  0  # atno 8008 bound_to 7997
  155.4227  140.3446  155.4254 H   0  0  0  0  0  0  0  0  0  0  0  0  # atno 8009 bound_to 7997
  156.1332  140.1507  156.9022 H   0  0  0  0  0  0  0  0  0  0  0  0  # atno 8010 bound_to 7997
  140.6825  143.2840  151.3756 H   0  0  0  0  0  0  0  0  0  0  0  0  # atno 10167 bound_to 10162
  156.4042  130.4396  149.7299 H   0  0  0  0  0  0  0  0  0  0  0  0  # atno 10718 bound_to 10713
  153.4702  135.7016  153.5998 H   0  0  0  0  0  0  0  0  0  0  0  0  # atno 10763 bound_to 10752
  153.4255  135.3815  155.2138 H   0  0  0  0  0  0  0  0  0  0  0  0  # atno 10764 bound_to 10752
  154.8725  135.3938  154.4139 H   0  0  0  0  0  0  0  0  0  0  0  0  # atno 10765 bound_to 10752
  139.8893  134.8497  156.3021 H   0  0  0  0  0  0  0  0  0  0  0  0  # atno 11005 bound_to 11000
  146.2210  139.5636  142.9618 LP  0  0  0  0  0  0  0  0  0  0  0  0  # atno 17320 bound_to 7965
  145.5706  141.0394  143.2176 LP  0  0  0  0  0  0  0  0  0  0  0  0  # atno 17321 bound_to 7965
  139.6158  144.1007  152.2343 LP  0  0  0  0  0  0  0  0  0  0  0  0  # atno 17342 bound_to 10162
  140.0435  144.5989  150.7392 LP  0  0  0  0  0  0  0  0  0  0  0  0  # atno 17343 bound_to 10162
  156.4303  130.7812  151.2832 LP  0  0  0  0  0  0  0  0  0  0  0  0  # atno 17370 bound_to 10713
  157.7505  131.0156  150.3510 LP  0  0  0  0  0  0  0  0  0  0  0  0  # atno 17371 bound_to 10713
  140.9906  133.7211  156.0808 LP  0  0  0  0  0  0  0  0  0  0  0  0  # atno 17394 bound_to 11000
  140.7630  134.3918  157.5522 LP  0  0  0  0  0  0  0  0  0  0  0  0  # atno 17395 bound_to 11000

$$$$
