AV-unprocessed.smi:2024|AV-procd|sdf|8195|dock9
  -GOLD-   2272010453D 1   1.00000     0.00000
 Structure written by MMmdl.
 43 44  0  0  0  0  0  0  0  0  3 V2000
  146.1511  131.6486  152.7737 C   0  0  0  0  0  0  0  0  0  0  0  0
  146.7669  132.7385  152.0244 N   0  0  0  0  0  0  0  0  0  0  0  0
  146.3430  134.0622  152.4798 C   0  0  0  0  0  0  0  0  0  0  0  0
  146.9366  134.4269  153.8568 C   0  0  0  0  0  0  0  0  0  0  0  0
  148.4261  134.3692  153.8214 N   0  3  0  0  0  0  0  0  0  0  0  0
  149.1340  134.9147  155.0351 C   0  0  0  0  0  0  0  0  0  0  0  0
  150.6583  134.9907  154.7666 C   0  0  0  0  0  0  0  0  0  0  0  0
  148.6729  136.3729  155.2853 C   0  0  0  0  0  0  0  0  0  0  0  0
  148.8663  134.0297  156.2899 C   0  0  0  0  0  0  0  0  0  0  0  0
  149.1278  134.7200  157.5520 N   0  0  0  0  0  0  0  0  0  0  0  0
  148.3545  134.6993  158.6471 C   0  0  0  0  0  0  0  0  0  0  0  0
  147.3097  134.0442  158.6528 O   0  0  0  0  0  0  0  0  0  0  0  0
  148.8365  135.4491  159.6630 N   0  5  0  0  0  0  0  0  0  0  0  0
  148.1357  135.5652  160.8025 C   0  0  0  0  0  0  0  0  0  0  0  0
  148.1787  136.6541  161.5784 N   0  0  0  0  0  0  0  0  0  0  0  0
  147.3697  136.5597  162.7123 C   0  0  0  0  0  0  0  0  0  0  0  0
  146.6877  135.3750  162.7966 C   0  0  0  0  0  0  0  0  0  0  0  0
  147.0416  134.3368  161.4453 S   0  0  0  0  0  0  0  0  0  0  0  0
  148.8504  133.0120  153.3739 C   0  0  0  0  0  0  0  0  0  0  0  0
  148.2275  132.6704  152.0039 C   0  0  0  0  0  0  0  0  0  0  0  0
  145.0647  131.7097  152.7032 H   0  0  0  0  0  0  0  0  0  0  0  0
  146.4208  131.6591  153.8291 H   0  0  0  0  0  0  0  0  0  0  0  0
  146.4544  130.6872  152.3581 H   0  0  0  0  0  0  0  0  0  0  0  0
  146.6578  134.8006  151.7411 H   0  0  0  0  0  0  0  0  0  0  0  0
  145.2536  134.1051  152.5123 H   0  0  0  0  0  0  0  0  0  0  0  0
  146.5874  135.4281  154.0996 H   0  0  0  0  0  0  0  0  0  0  0  0
  146.5409  133.7661  154.6275 H   0  0  0  0  0  0  0  0  0  0  0  0
  151.1754  135.5643  155.5370 H   0  0  0  0  0  0  0  0  0  0  0  0
  150.8711  135.4741  153.8124 H   0  0  0  0  0  0  0  0  0  0  0  0
  151.1284  134.0076  154.7600 H   0  0  0  0  0  0  0  0  0  0  0  0
  149.3081  136.8793  156.0127 H   0  0  0  0  0  0  0  0  0  0  0  0
  147.6596  136.4257  155.6829 H   0  0  0  0  0  0  0  0  0  0  0  0
  148.7074  136.9643  154.3696 H   0  0  0  0  0  0  0  0  0  0  0  0
  147.8482  133.6406  156.2890 H   0  0  0  0  0  0  0  0  0  0  0  0
  149.5161  133.1554  156.2841 H   0  0  0  0  0  0  0  0  0  0  0  0
  149.9736  135.2689  157.6022 H   0  0  0  0  0  0  0  0  0  0  0  0
  147.3395  137.3852  163.4078 H   0  0  0  0  0  0  0  0  0  0  0  0
  146.0017  135.0517  163.5648 H   0  0  0  0  0  0  0  0  0  0  0  0
  149.9300  132.9572  153.2533 H   0  0  0  0  0  0  0  0  0  0  0  0
  148.5819  132.2594  154.1147 H   0  0  0  0  0  0  0  0  0  0  0  0
  148.5422  131.6774  151.6809 H   0  0  0  0  0  0  0  0  0  0  0  0
  148.5962  133.3697  151.2523 H   0  0  0  0  0  0  0  0  0  0  0  0
  148.6953  134.9894  153.0714 H   0  0  0  0  0  0  0  0  0  0  0  0
  1  2  1  0  0  0  0
  1 21  1  0  0  0  0
  1 22  1  0  0  0  0
  1 23  1  0  0  0  0
  2 20  1  0  0  0  0
  2  3  1  0  0  0  0
  3  4  1  0  0  0  0
  3 24  1  0  0  0  0
  3 25  1  0  0  0  0
  4  5  1  0  0  0  0
  4 26  1  0  0  0  0
  4 27  1  0  0  0  0
  5  6  1  0  0  0  0
  5 19  1  0  0  0  0
  5 43  1  0  0  0  0
  6  7  1  0  0  0  0
  6  8  1  0  0  0  0
  6  9  1  0  0  0  0
  7 28  1  0  0  0  0
  7 29  1  0  0  0  0
  7 30  1  0  0  0  0
  8 31  1  0  0  0  0
  8 32  1  0  0  0  0
  8 33  1  0  0  0  0
  9 10  1  0  0  0  0
  9 34  1  0  0  0  0
  9 35  1  0  0  0  0
 10 11  1  0  0  0  0
 10 36  1  0  0  0  0
 11 12  2  0  0  0  0
 11 13  1  0  0  0  0
 13 14  1  0  0  0  0
 14 18  1  0  0  0  0
 14 15  2  0  0  0  0
 15 16  1  0  0  0  0
 16 17  2  0  0  0  0
 16 37  1  0  0  0  0
 17 18  1  0  0  0  0
 17 38  1  0  0  0  0
 19 20  1  0  0  0  0
 19 39  1  0  0  0  0
 19 40  1  0  0  0  0
 20 41  1  0  0  0  0
 20 42  1  0  0  0  0
M  CHG  1   5   1
M  CHG  1  13  -1
M  END
> <s_m_source_file>
AV-unprocessed.smi

> <i_m_source_file_index>
2024

> <i_lp_mmshare_version>
43012

> <i_f3d_flags>
0

> <s_epik_input>
W0NIM11OMVtDSDJdW0NIMl1OKFtDSDJdW0NIMl0xKUMoW0NIM10pKFtDSDNdKVtDSDJdW05IXUMoPU8pW05IXWMybltjSF1bY0hdczI=

> <s_epik_cmdline>
J2VwaWtfcHl0aG9uJywgJy1waCcsICc3LjAnLCAnLXRuJywgJzgnLCAnLW1hJywgJzIwMCcsICctbWV0YWxfYmluZGluZycsICctaW1hZScsICc8aW5maWxlLm1hZT4nLCAnLW9tYWUnLCAnPG91dGZpbGUubWFlPic=

> <r_epik_Ionization_Penalty>
6.29536

> <r_epik_Ionization_Penalty_Charging>
5.46232

> <r_epik_Ionization_Penalty_Neutral>
0.833035

> <r_epik_State_Penalty>
6.42136

> <r_epik_Charging_Adjusted_Penalty>
11.8837

> <i_epik_Tot_Q>
0

> <i_epik_Tot_abs_Q>
2

> <r_epik_Metal_State_Penalty>
2.42657

> <b_epik_Metal_Only>
1

> <s_lp_Force_Field>
OPLS_2005

> <r_lp_Energy>
16.4996

> <b_lp_Chiralities_Consistent>
1

> <s_lp_Variant>
AV-unprocessed.smi:2024-5

> <Gold.Version>
5.8.1

> <Gold.Id.Protein>
6NUR|6NUR_protein|mol2

> <Gold.PLP.Fitness>
42.1663

> <Gold.PLP.PLP>
-28.2585

> <Gold.PLP.part.hbond>
-3.0000

> <Gold.PLP.part.metal>
0.0000

> <Gold.PLP.part.buried>
-2.2853

> <Gold.PLP.part.nonpolar>
-23.5090

> <Gold.PLP.part.repulsive>
0.2103

> <Gold.PLP.ligand.clash>
0.0000

> <Gold.PLP.ligand.torsion>
0.6038

> <Gold.PLP.Chemscore.Hbond>
5.0000

> <Gold.PLP.Chemscore.CHOScore>
0.0000

> <Gold.PLP.Chemscore.Metal>
0.0000

> <Gold.Chemscore.Hbonds>
donor molecule, donor type, donor heavy atom, donor atom, acceptor molecule, acceptor atom, score
      L1  H     5    43       P1  7948  2.00
      P1  H  6896  6909       L1    13  1.80
      P1  H  6931  6943       L1    15  1.00

> <Gold.PLP.Chemscore.Internal.Correction>
0.1154

> <Gold.Rescore>
     Score         DG    S(hbond)    S(metal)    S(lipo)     H(rot)  DE(clash)    DE(int)     intcor
     13.12     -15.16       1.84        0.00      64.57       1.57       0.04       2.00       ----

> <Gold.Chemscore.Fitness>
13.1202

> <Gold.Chemscore.DG>
-15.1568

> <Gold.Chemscore.ZeroCoef>
-5.4800

> <Gold.Chemscore.Hbond>
1.8370

> <Gold.Chemscore.Metal>
0.0000

> <Gold.Chemscore.Lipo>
64.5699

> <Gold.Chemscore.Internal_Hbond>
0.0000

> <Gold.Chemscore.DEClash>
0.0411

> <Gold.Chemscore.DEInternal>
1.9955

> <Gold.Chemscore.Rot>
1.5678

> <Gold.Chemscore.Internal.Correction>
   9.000000E+99

> <Gold.Chemscore.Hbonds>
donor molecule, donor type, donor heavy atom, donor atom, acceptor molecule, acceptor atom, score
      L1  H     5    43       P1  7948  0.45
      P1  H  6896  6909       L1    13  0.16
      P1  H  6931  6943       L1    15  0.26

> <Gold.Chemscore.Hbond.Weighted>
-6.1357

> <Gold.Chemscore.Metal.Weighted>
-0.0000

> <Gold.Chemscore.Lipo.Weighted>
-7.5547

> <Gold.Chemscore.Internal_Hbond.Weighted>
0.0000

> <Gold.Chemscore.DEClash.Weighted>
0.0411

> <Gold.Chemscore.DEInternal.Weighted>
1.9955

> <Gold.Chemscore.Rot.Weighted>
4.0136

> <Gold.Chemscore.Internal.Correction.Weighted>
   9.000000E+99

> <Gold.Protein.RotatedTorsions>
[ 6907 6896 6895 6894 ] final   60.64 input  -60.11 | X-H torsion
[ 7974 7965 7964 7962 ] final   70.22 input  175.53 | X-H torsion
[ 8008 7997 7996 7995 ] final -137.47 input   59.86 | X-H torsion
[ 10167 10162 10161 10158 ] final  152.39 input  -65.29 | X-H torsion
[ 10718 10713 10712 10709 ] final  -48.23 input   66.30 | X-H torsion
[ 10763 10752 10751 10750 ] final   34.25 input  -60.55 | X-H torsion
[ 11005 11000 10999 10996 ] final -125.97 input  -57.11 | X-H torsion

> <Gold.Protein.ActiveResidues>
 VAL166  LYS551  ARG553  GLY616  TRP617  ASP618  TYR619  PRO620  LYS621  CYS622 
 ASP623  PHE694  ASN695  SER759  ASP760  ASP761  ALA762  ILE779  LEU786  VAL792 
 PHE793  MET794  SER795  GLU796  ALA797  LYS798  CYS799  TRP800  GLU811  SER814 

> <Gold.Protein.RotatedAtoms>
  152.4020  134.6270  160.0065 H   0  0  0  0  0  0  0  0  0  0  0  0  # atno 6907 bound_to 6896
  151.6472  133.3317  159.3151 H   0  0  0  0  0  0  0  0  0  0  0  0  # atno 6908 bound_to 6896
  150.7919  134.6992  159.6585 H   0  0  0  0  0  0  0  0  0  0  0  0  # atno 6909 bound_to 6896
  145.7808  139.2887  143.1267 H   0  0  0  0  0  0  0  0  0  0  0  0  # atno 7974 bound_to 7965
  155.4123  140.0513  157.3031 H   0  0  0  0  0  0  0  0  0  0  0  0  # atno 8008 bound_to 7997
  154.4940  140.2131  155.9445 H   0  0  0  0  0  0  0  0  0  0  0  0  # atno 8009 bound_to 7997
  156.1381  140.3159  155.8458 H   0  0  0  0  0  0  0  0  0  0  0  0  # atno 8010 bound_to 7997
  139.4833  144.5362  151.7642 H   0  0  0  0  0  0  0  0  0  0  0  0  # atno 10167 bound_to 10162
  156.2007  130.4156  149.9244 H   0  0  0  0  0  0  0  0  0  0  0  0  # atno 10718 bound_to 10713
  153.0173  135.6365  154.1640 H   0  0  0  0  0  0  0  0  0  0  0  0  # atno 10763 bound_to 10752
  154.1378  135.2836  155.3170 H   0  0  0  0  0  0  0  0  0  0  0  0  # atno 10764 bound_to 10752
  154.6147  135.5545  153.7572 H   0  0  0  0  0  0  0  0  0  0  0  0  # atno 10765 bound_to 10752
  140.9719  134.0793  157.3860 H   0  0  0  0  0  0  0  0  0  0  0  0  # atno 11005 bound_to 11000
  146.0076  140.8464  142.9987 LP  0  0  0  0  0  0  0  0  0  0  0  0  # atno 17320 bound_to 7965
  144.6797  140.2443  143.7340 LP  0  0  0  0  0  0  0  0  0  0  0  0  # atno 17321 bound_to 7965
  140.4894  144.1332  150.5947 LP  0  0  0  0  0  0  0  0  0  0  0  0  # atno 17342 bound_to 10162
  140.4188  143.2621  151.9742 LP  0  0  0  0  0  0  0  0  0  0  0  0  # atno 17343 bound_to 10162
  156.6955  130.8912  151.3593 LP  0  0  0  0  0  0  0  0  0  0  0  0  # atno 17370 bound_to 10713
  157.6984  130.9306  150.0712 LP  0  0  0  0  0  0  0  0  0  0  0  0  # atno 17371 bound_to 10713
  139.8915  135.0119  156.6798 LP  0  0  0  0  0  0  0  0  0  0  0  0  # atno 17394 bound_to 11000
  140.7316  133.9054  155.8215 LP  0  0  0  0  0  0  0  0  0  0  0  0  # atno 17395 bound_to 11000

$$$$
