AV-unprocessed.smi:3045|AV-procd|sdf|11609|dock10
  -GOLD-   2272016593D 1   1.00000     0.00000
 Structure written by MMmdl.
 35 36  0  0  0  0  0  0  0  0  1 V2000
  145.9211  143.4162  153.8406 C   0  0  0  0  0  0  0  0  0  0  0  0
  146.6145  142.2235  154.3077 N   0  0  0  0  0  0  0  0  0  0  0  0
  147.6773  141.6186  153.5240 C   0  0  0  0  0  0  0  0  0  0  0  0
  148.2579  140.4944  154.4101 C   0  0  1  0  0  0  0  0  0  0  0  0
  149.6795  140.8130  154.8989 C   0  0  0  0  0  0  0  0  0  0  0  0
  150.6212  140.0824  154.5882 O   0  0  0  0  0  0  0  0  0  0  0  0
  149.8184  141.9035  155.6682 N   0  0  0  0  0  0  0  0  0  0  0  0
  151.0764  142.3679  156.2398 C   0  0  0  0  0  0  0  0  0  0  0  0
  151.2255  141.9314  157.7062 C   0  0  0  0  0  0  0  0  0  0  0  0
  151.4740  143.1078  158.6288 C   0  0  0  0  0  0  0  0  0  0  0  0
  151.9771  142.9109  159.9313 C   0  0  0  0  0  0  0  0  0  0  0  0
  152.1947  144.0349  160.7511 C   0  0  0  0  0  0  0  0  0  0  0  0
  151.8996  145.3112  160.2313 C   0  0  0  0  0  0  0  0  0  0  0  0
  151.4191  145.5116  158.9852 N   0  0  0  0  0  0  0  0  0  0  0  0
  151.2127  144.4284  158.2058 C   0  0  0  0  0  0  0  0  0  0  0  0
  147.2704  140.3586  155.5875 C   0  0  0  0  0  0  0  0  0  0  0  0
  146.3394  141.5487  155.4270 C   0  0  0  0  0  0  0  0  0  0  0  0
  145.4637  141.8270  156.2447 O   0  0  0  0  0  0  0  0  0  0  0  0
  144.8834  143.1837  153.5999 H   0  0  0  0  0  0  0  0  0  0  0  0
  146.3943  143.8211  152.9457 H   0  0  0  0  0  0  0  0  0  0  0  0
  145.9315  144.1916  154.6073 H   0  0  0  0  0  0  0  0  0  0  0  0
  147.2586  141.2093  152.6037 H   0  0  0  0  0  0  0  0  0  0  0  0
  148.4191  142.3687  153.2432 H   0  0  0  0  0  0  0  0  0  0  0  0
  148.2784  139.5623  153.8426 H   0  0  0  0  0  0  0  0  0  0  0  0
  148.9939  142.4487  155.8748 H   0  0  0  0  0  0  0  0  0  0  0  0
  151.9148  142.0034  155.6435 H   0  0  0  0  0  0  0  0  0  0  0  0
  151.0968  143.4560  156.1719 H   0  0  0  0  0  0  0  0  0  0  0  0
  150.3278  141.4051  158.0335 H   0  0  0  0  0  0  0  0  0  0  0  0
  152.0504  141.2253  157.8109 H   0  0  0  0  0  0  0  0  0  0  0  0
  152.1942  141.9175  160.2957 H   0  0  0  0  0  0  0  0  0  0  0  0
  152.5785  143.9218  161.7541 H   0  0  0  0  0  0  0  0  0  0  0  0
  152.0548  146.1949  160.8324 H   0  0  0  0  0  0  0  0  0  0  0  0
  150.8293  144.6226  157.2147 H   0  0  0  0  0  0  0  0  0  0  0  0
  146.6956  139.4351  155.5139 H   0  0  0  0  0  0  0  0  0  0  0  0
  147.7492  140.3793  156.5680 H   0  0  0  0  0  0  0  0  0  0  0  0
  1  2  1  0  0  0  0
  1 19  1  0  0  0  0
  1 20  1  0  0  0  0
  1 21  1  0  0  0  0
  2 17  1  0  0  0  0
  2  3  1  0  0  0  0
  3  4  1  0  0  0  0
  3 22  1  0  0  0  0
  3 23  1  0  0  0  0
  4  5  1  0  0  0  0
  4 16  1  0  0  0  0
  4 24  1  0  0  0  0
  5  6  2  0  0  0  0
  5  7  1  0  0  0  0
  7  8  1  0  0  0  0
  7 25  1  0  0  0  0
  8  9  1  0  0  0  0
  8 26  1  0  0  0  0
  8 27  1  0  0  0  0
  9 10  1  0  0  0  0
  9 28  1  0  0  0  0
  9 29  1  0  0  0  0
 10 15  1  0  0  0  0
 10 11  2  0  0  0  0
 11 12  1  0  0  0  0
 11 30  1  0  0  0  0
 12 13  2  0  0  0  0
 12 31  1  0  0  0  0
 13 14  1  0  0  0  0
 13 32  1  0  0  0  0
 14 15  2  0  0  0  0
 15 33  1  0  0  0  0
 16 17  1  0  0  0  0
 16 34  1  0  0  0  0
 16 35  1  0  0  0  0
 17 18  2  0  0  0  0
M  END
> <s_m_source_file>
AV-unprocessed.smi

> <i_m_source_file_index>
3045

> <i_lp_mmshare_version>
43012

> <i_f3d_flags>
0

> <s_epik_input>
W0NIM11OMVtDSDJdW0NASF0oW0NIMl1DMT1PKUMoPU8pW05IXVtDSDJdW0NIMl1jMltjSF1bY0hdW2NIXW5bY0hdMg==

> <s_epik_cmdline>
J2VwaWtfcHl0aG9uJywgJy1waCcsICc3LjAnLCAnLXRuJywgJzgnLCAnLW1hJywgJzIwMCcsICctbWV0YWxfYmluZGluZycsICctaW1hZScsICc8aW5maWxlLm1hZT4nLCAnLW9tYWUnLCAnPG91dGZpbGUubWFlPic=

> <r_epik_Ionization_Penalty>
0.0130932

> <r_epik_Ionization_Penalty_Charging>
0

> <r_epik_Ionization_Penalty_Neutral>
0.0130932

> <r_epik_State_Penalty>
0.0101714

> <r_epik_Charging_Adjusted_Penalty>
0.0101714

> <i_epik_Tot_Q>
0

> <i_epik_Tot_abs_Q>
0

> <r_epik_Metal_State_Penalty>
0.00995082

> <b_epik_Metal_Only>
0

> <s_lp_Force_Field>
OPLS_2005

> <r_lp_Energy>
9.14953

> <b_lp_Chiralities_Consistent>
1

> <s_lp_Variant>
AV-unprocessed.smi:3045-1

> <Gold.Version>
5.8.1

> <Gold.Id.Protein>
6NUR|6NUR_protein|mol2

> <Gold.PLP.Fitness>
45.6254

> <Gold.PLP.PLP>
-40.4886

> <Gold.PLP.part.hbond>
-3.0000

> <Gold.PLP.part.metal>
0.0000

> <Gold.PLP.part.buried>
-5.7300

> <Gold.PLP.part.nonpolar>
-30.7689

> <Gold.PLP.part.repulsive>
0.4373

> <Gold.PLP.ligand.clash>
0.0000

> <Gold.PLP.ligand.torsion>
0.7526

> <Gold.PLP.Chemscore.Hbond>
1.2106

> <Gold.PLP.Chemscore.CHOScore>
1.0000

> <Gold.PLP.Chemscore.Metal>
0.0000

> <Gold.Chemscore.Hbonds>
donor molecule, donor type, donor heavy atom, donor atom, acceptor molecule, acceptor atom, score
      L1  H     7    25       P1  8028  0.18
      P1  H  7989  7998       L1     6  1.00
      L1  C    15    33       P1  8028  1.00

> <Gold.PLP.Chemscore.Internal.Correction>
0.0102

> <Gold.Rescore>
     Score         DG    S(hbond)    S(metal)    S(lipo)     H(rot)  DE(clash)    DE(int)     intcor
     15.60     -16.59       1.21        0.00      95.86       1.62       0.24       0.76       ----

> <Gold.Chemscore.Fitness>
15.5961

> <Gold.Chemscore.DG>
-16.5891

> <Gold.Chemscore.ZeroCoef>
-5.4800

> <Gold.Chemscore.Hbond>
1.2106

> <Gold.Chemscore.Metal>
0.0000

> <Gold.Chemscore.Lipo>
95.8600

> <Gold.Chemscore.Internal_Hbond>
0.0000

> <Gold.Chemscore.DEClash>
0.2374

> <Gold.Chemscore.DEInternal>
0.7555

> <Gold.Chemscore.Rot>
1.6210

> <Gold.Chemscore.Internal.Correction>
   9.000000E+99

> <Gold.Chemscore.Hbonds>
donor molecule, donor type, donor heavy atom, donor atom, acceptor molecule, acceptor atom, score
      L1  H     7    25       P1  8028  0.18
      P1  H  7989  7998       L1     6  0.74

> <Gold.Chemscore.Hbond.Weighted>
-4.0432

> <Gold.Chemscore.Metal.Weighted>
-0.0000

> <Gold.Chemscore.Lipo.Weighted>
-11.2156

> <Gold.Chemscore.Internal_Hbond.Weighted>
0.0000

> <Gold.Chemscore.DEClash.Weighted>
0.2374

> <Gold.Chemscore.DEInternal.Weighted>
0.7555

> <Gold.Chemscore.Rot.Weighted>
4.1498

> <Gold.Chemscore.Internal.Correction.Weighted>
   9.000000E+99

> <Gold.Protein.RotatedTorsions>
[ 6907 6896 6895 6894 ] final   84.62 input  -60.11 | X-H torsion
[ 7974 7965 7964 7962 ] final   90.31 input  175.53 | X-H torsion
[ 8008 7997 7996 7995 ] final   81.87 input   59.86 | X-H torsion
[ 10167 10162 10161 10158 ] final -114.85 input  -65.29 | X-H torsion
[ 10718 10713 10712 10709 ] final   43.06 input   66.30 | X-H torsion
[ 10763 10752 10751 10750 ] final  -53.18 input  -60.55 | X-H torsion
[ 11005 11000 10999 10996 ] final -110.34 input  -57.11 | X-H torsion

> <Gold.Protein.ActiveResidues>
 VAL166  LYS551  ARG553  GLY616  TRP617  ASP618  TYR619  PRO620  LYS621  CYS622 
 ASP623  PHE694  ASN695  SER759  ASP760  ASP761  ALA762  ILE779  LEU786  VAL792 
 PHE793  MET794  SER795  GLU796  ALA797  LYS798  CYS799  TRP800  GLU811  SER814 

> <Gold.Protein.RotatedAtoms>
  152.5356  134.2712  159.8972 H   0  0  0  0  0  0  0  0  0  0  0  0  # atno 6907 bound_to 6896
  151.2669  133.4268  159.2626 H   0  0  0  0  0  0  0  0  0  0  0  0  # atno 6908 bound_to 6896
  151.0402  134.9617  159.8214 H   0  0  0  0  0  0  0  0  0  0  0  0  # atno 6909 bound_to 6896
  145.5207  139.2279  143.2673 H   0  0  0  0  0  0  0  0  0  0  0  0  # atno 7974 bound_to 7965
  155.9029  140.3432  155.6040 H   0  0  0  0  0  0  0  0  0  0  0  0  # atno 8008 bound_to 7997
  155.7478  140.0816  157.2234 H   0  0  0  0  0  0  0  0  0  0  0  0  # atno 8009 bound_to 7997
  154.4046  140.1559  156.2677 H   0  0  0  0  0  0  0  0  0  0  0  0  # atno 8010 bound_to 7997
  140.0964  143.4652  152.1839 H   0  0  0  0  0  0  0  0  0  0  0  0  # atno 10167 bound_to 10162
  157.4118  130.7918  149.7437 H   0  0  0  0  0  0  0  0  0  0  0  0  # atno 10718 bound_to 10713
  154.1547  135.6484  153.4972 H   0  0  0  0  0  0  0  0  0  0  0  0  # atno 10763 bound_to 10752
  153.0127  135.5346  154.6772 H   0  0  0  0  0  0  0  0  0  0  0  0  # atno 10764 bound_to 10752
  154.6069  135.2949  155.0446 H   0  0  0  0  0  0  0  0  0  0  0  0  # atno 10765 bound_to 10752
  141.0797  133.9241  157.2315 H   0  0  0  0  0  0  0  0  0  0  0  0  # atno 11005 bound_to 11000
  146.2108  140.6019  142.9060 LP  0  0  0  0  0  0  0  0  0  0  0  0  # atno 17320 bound_to 7965
  144.7677  140.5569  143.6691 LP  0  0  0  0  0  0  0  0  0  0  0  0  # atno 17321 bound_to 7965
  139.5695  144.7455  151.3929 LP  0  0  0  0  0  0  0  0  0  0  0  0  # atno 17342 bound_to 10162
  140.7001  143.7653  150.7389 LP  0  0  0  0  0  0  0  0  0  0  0  0  # atno 17343 bound_to 10162
  155.9853  130.3984  150.3269 LP  0  0  0  0  0  0  0  0  0  0  0  0  # atno 17370 bound_to 10713
  157.1408  131.0296  151.2928 LP  0  0  0  0  0  0  0  0  0  0  0  0  # atno 17371 bound_to 10713
  139.9610  135.0154  156.9261 LP  0  0  0  0  0  0  0  0  0  0  0  0  # atno 17394 bound_to 11000
  140.5495  134.0641  155.7365 LP  0  0  0  0  0  0  0  0  0  0  0  0  # atno 17395 bound_to 11000

$$$$
