AV-unprocessed.smi:3287|AV-procd|sdf|12593|dock7
  -GOLD-   2272018513D 1   1.00000     0.00000
 Structure written by MMmdl.
 43 44  0  0  0  0  0  0  0  0  2 V2000
  153.6879  142.2390  160.6793 C   0  0  0  0  0  0  0  0  0  0  0  0
  152.3813  142.3602  159.8780 C   0  0  1  0  0  0  0  0  0  0  0  0
  152.4902  143.4146  158.7594 C   0  0  0  0  0  0  0  0  0  0  0  0
  151.1555  143.5919  158.0176 C   0  0  0  0  0  0  0  0  0  0  0  0
  150.6277  142.2542  157.4590 C   0  0  2  0  0  0  0  0  0  0  0  0
  149.3033  142.4182  156.8199 N   0  3  0  0  0  0  0  0  0  0  0  0
  148.9087  141.3364  155.8921 C   0  0  0  0  0  0  0  0  0  0  0  0
  149.8766  141.2384  154.7000 C   0  0  2  0  0  0  0  0  0  0  0  0
  149.1560  141.4694  153.5047 O   0  0  0  0  0  0  0  0  0  0  0  0
  150.5847  139.8933  154.6790 C   0  0  0  0  0  0  0  0  0  0  0  0
  149.8905  138.7253  154.3000 C   0  0  0  0  0  0  0  0  0  0  0  0
  150.5884  137.5010  154.2870 C   0  0  0  0  0  0  0  0  0  0  0  0
  151.8925  137.3874  154.6180 N   0  0  0  0  0  0  0  0  0  0  0  0
  152.5532  138.5082  154.9782 C   0  0  0  0  0  0  0  0  0  0  0  0
  151.9493  139.7808  155.0237 C   0  0  0  0  0  0  0  0  0  0  0  0
  150.5307  141.2066  158.5860 C   0  0  0  0  0  0  0  0  0  0  0  0
  151.8665  141.0040  159.3321 C   0  0  1  0  0  0  0  0  0  0  0  0
  152.8915  140.2378  158.4713 C   0  0  0  0  0  0  0  0  0  0  0  0
  154.5299  141.9681  160.0423 H   0  0  0  0  0  0  0  0  0  0  0  0
  153.6017  141.4848  161.4619 H   0  0  0  0  0  0  0  0  0  0  0  0
  153.9370  143.1845  161.1618 H   0  0  0  0  0  0  0  0  0  0  0  0
  151.6281  142.7217  160.5802 H   0  0  0  0  0  0  0  0  0  0  0  0
  152.7956  144.3721  159.1831 H   0  0  0  0  0  0  0  0  0  0  0  0
  153.2711  143.1349  158.0519 H   0  0  0  0  0  0  0  0  0  0  0  0
  150.4201  144.0203  158.7001 H   0  0  0  0  0  0  0  0  0  0  0  0
  151.2918  144.3180  157.2164 H   0  0  0  0  0  0  0  0  0  0  0  0
  151.3202  141.8826  156.7027 H   0  0  0  0  0  0  0  0  0  0  0  0
  148.6091  142.4418  157.5536 H   0  0  0  0  0  0  0  0  0  0  0  0
  148.9048  140.3884  156.4303 H   0  0  0  0  0  0  0  0  0  0  0  0
  147.8906  141.5089  155.5399 H   0  0  0  0  0  0  0  0  0  0  0  0
  150.6299  142.0232  154.7827 H   0  0  0  0  0  0  0  0  0  0  0  0
  149.1735  140.6783  152.9870 H   0  0  0  0  0  0  0  0  0  0  0  0
  148.8467  138.7599  154.0241 H   0  0  0  0  0  0  0  0  0  0  0  0
  150.0857  136.5887  154.0010 H   0  0  0  0  0  0  0  0  0  0  0  0
  153.5951  138.3885  155.2359 H   0  0  0  0  0  0  0  0  0  0  0  0
  152.5249  140.6468  155.3159 H   0  0  0  0  0  0  0  0  0  0  0  0
  149.7712  141.5215  159.3036 H   0  0  0  0  0  0  0  0  0  0  0  0
  150.1841  140.2542  158.1826 H   0  0  0  0  0  0  0  0  0  0  0  0
  151.6540  140.3667  160.1917 H   0  0  0  0  0  0  0  0  0  0  0  0
  153.2310  140.8209  157.6158 H   0  0  0  0  0  0  0  0  0  0  0  0
  152.4618  139.3126  158.0866 H   0  0  0  0  0  0  0  0  0  0  0  0
  153.7712  139.9601  159.0514 H   0  0  0  0  0  0  0  0  0  0  0  0
  149.2810  143.3023  156.3321 H   0  0  0  0  0  0  0  0  0  0  0  0
  1  2  1  0  0  0  0
  1 19  1  0  0  0  0
  1 20  1  0  0  0  0
  1 21  1  0  0  0  0
  2 17  1  0  0  0  0
  2  3  1  0  0  0  0
  2 22  1  0  0  0  0
  3  4  1  0  0  0  0
  3 23  1  0  0  0  0
  3 24  1  0  0  0  0
  4  5  1  0  0  0  0
  4 25  1  0  0  0  0
  4 26  1  0  0  0  0
  5  6  1  0  0  0  0
  5 16  1  0  0  0  0
  5 27  1  0  0  0  0
  6  7  1  0  0  0  0
  6 28  1  0  0  0  0
  6 43  1  0  0  0  0
  7  8  1  0  0  0  0
  7 29  1  0  0  0  0
  7 30  1  0  0  0  0
  8  9  1  0  0  0  0
  8 10  1  0  0  0  0
  8 31  1  0  0  0  0
  9 32  1  0  0  0  0
 10 15  1  0  0  0  0
 10 11  2  0  0  0  0
 11 12  1  0  0  0  0
 11 33  1  0  0  0  0
 12 13  2  0  0  0  0
 12 34  1  0  0  0  0
 13 14  1  0  0  0  0
 14 15  2  0  0  0  0
 14 35  1  0  0  0  0
 15 36  1  0  0  0  0
 16 17  1  0  0  0  0
 16 37  1  0  0  0  0
 16 38  1  0  0  0  0
 17 18  1  0  0  0  0
 17 39  1  0  0  0  0
 18 40  1  0  0  0  0
 18 41  1  0  0  0  0
 18 42  1  0  0  0  0
M  CHG  1   6   1
M  END
> <s_m_source_file>
AV-unprocessed.smi

> <i_m_source_file_index>
3287

> <i_lp_mmshare_version>
43012

> <i_f3d_flags>
0

> <s_epik_input>
W0NIM11bQ0BASF0xW0NIMl1bQ0gyXVtDQEhdKFtDSDJdW0NASF0xW0NIM10pW05IXVtDSDJdW0NASF0oW09IXSljMltjSF1bY0hdbltjSF1bY0hdMg==

> <s_epik_cmdline>
J2VwaWtfcHl0aG9uJywgJy1waCcsICc3LjAnLCAnLXRuJywgJzgnLCAnLW1hJywgJzIwMCcsICctbWV0YWxfYmluZGluZycsICctaW1hZScsICc8aW5maWxlLm1hZT4nLCAnLW9tYWUnLCAnPG91dGZpbGUubWFlPic=

> <r_lp_tautomer_probability>
1

> <r_epik_Ionization_Penalty>
0.00537262

> <r_epik_Ionization_Penalty_Charging>
0.00321624

> <r_epik_Ionization_Penalty_Neutral>
0.00215638

> <r_epik_State_Penalty>
-0

> <r_epik_Charging_Adjusted_Penalty>
0.00321624

> <i_epik_Tot_Q>
1

> <i_epik_Tot_abs_Q>
1

> <r_epik_Metal_State_Penalty>
-0

> <b_epik_Metal_Only>
0

> <s_lp_Force_Field>
OPLS_2005

> <r_lp_Energy>
18.3798

> <b_lp_Chiralities_Consistent>
1

> <s_lp_Variant>
AV-unprocessed.smi:3287-4

> <Gold.Version>
5.8.1

> <Gold.Id.Protein>
6NUR|6NUR_protein|mol2

> <Gold.PLP.Fitness>
54.3934

> <Gold.PLP.PLP>
-40.5230

> <Gold.PLP.part.hbond>
-5.0000

> <Gold.PLP.part.metal>
0.0000

> <Gold.PLP.part.buried>
2.7558

> <Gold.PLP.part.nonpolar>
-37.0372

> <Gold.PLP.part.repulsive>
0.1310

> <Gold.PLP.ligand.clash>
0.0000

> <Gold.PLP.ligand.torsion>
1.1597

> <Gold.PLP.Chemscore.Hbond>
4.5920

> <Gold.PLP.Chemscore.CHOScore>
0.7981

> <Gold.PLP.Chemscore.Metal>
0.0000

> <Gold.Chemscore.Hbonds>
donor molecule, donor type, donor heavy atom, donor atom, acceptor molecule, acceptor atom, score
      L1  H     6    43       P1  8028  2.00
      L1  H     9    32       P1  7957  0.82
      P1  H  8011  8017       L1     9  0.65
      P1  H 10752 10763       L1    13  0.90
      L1  C    12    34       P1  7948  0.89
      L1  C    12    34       P1  7949  0.02

> <Gold.PLP.Chemscore.Internal.Correction>
0.0196

> <Gold.Rescore>
     Score         DG    S(hbond)    S(metal)    S(lipo)     H(rot)  DE(clash)    DE(int)     intcor
     22.69     -24.35       3.00        0.00     117.39       1.90       0.72       0.93       ----

> <Gold.Chemscore.Fitness>
22.6930

> <Gold.Chemscore.DG>
-24.3453

> <Gold.Chemscore.ZeroCoef>
-5.4800

> <Gold.Chemscore.Hbond>
2.9950

> <Gold.Chemscore.Metal>
0.0000

> <Gold.Chemscore.Lipo>
117.3920

> <Gold.Chemscore.Internal_Hbond>
0.0000

> <Gold.Chemscore.DEClash>
0.7232

> <Gold.Chemscore.DEInternal>
0.9291

> <Gold.Chemscore.Rot>
1.9035

> <Gold.Chemscore.Internal.Correction>
   9.000000E+99

> <Gold.Chemscore.Hbonds>
donor molecule, donor type, donor heavy atom, donor atom, acceptor molecule, acceptor atom, score
      L1  H     6    43       P1  8028  0.99
      L1  H     9    32       P1  7957  0.78
      P1  H  8011  8017       L1     9  0.08
      P1  H 10752 10763       L1    13  0.78

> <Gold.Chemscore.Hbond.Weighted>
-10.0033

> <Gold.Chemscore.Metal.Weighted>
-0.0000

> <Gold.Chemscore.Lipo.Weighted>
-13.7349

> <Gold.Chemscore.Internal_Hbond.Weighted>
0.0000

> <Gold.Chemscore.DEClash.Weighted>
0.7232

> <Gold.Chemscore.DEInternal.Weighted>
0.9291

> <Gold.Chemscore.Rot.Weighted>
4.8729

> <Gold.Chemscore.Internal.Correction.Weighted>
   9.000000E+99

> <Gold.Protein.RotatedTorsions>
[ 6907 6896 6895 6894 ] final  -85.08 input  -60.11 | X-H torsion
[ 7974 7965 7964 7962 ] final  128.55 input  175.53 | X-H torsion
[ 8008 7997 7996 7995 ] final  178.33 input   59.86 | X-H torsion
[ 10167 10162 10161 10158 ] final  -49.47 input  -65.29 | X-H torsion
[ 10718 10713 10712 10709 ] final   67.42 input   66.30 | X-H torsion
[ 10763 10752 10751 10750 ] final   42.46 input  -60.55 | X-H torsion
[ 11005 11000 10999 10996 ] final -152.66 input  -57.11 | X-H torsion

> <Gold.Protein.ActiveResidues>
 VAL166  LYS551  ARG553  GLY616  TRP617  ASP618  TYR619  PRO620  LYS621  CYS622 
 ASP623  PHE694  ASN695  SER759  ASP760  ASP761  ALA762  ILE779  LEU786  VAL792 
 PHE793  MET794  SER795  GLU796  ALA797  LYS798  CYS799  TRP800  GLU811  SER814 

> <Gold.Protein.RotatedAtoms>
  150.6872  134.3260  159.4806 H   0  0  0  0  0  0  0  0  0  0  0  0  # atno 6907 bound_to 6896
  152.1130  134.9258  160.0575 H   0  0  0  0  0  0  0  0  0  0  0  0  # atno 6908 bound_to 6896
  152.0493  133.3977  159.4407 H   0  0  0  0  0  0  0  0  0  0  0  0  # atno 6909 bound_to 6896
  145.0384  139.3985  143.5114 H   0  0  0  0  0  0  0  0  0  0  0  0  # atno 7974 bound_to 7965
  156.0558  140.1336  156.9998 H   0  0  0  0  0  0  0  0  0  0  0  0  # atno 8008 bound_to 7997
  154.4457  140.1001  156.6514 H   0  0  0  0  0  0  0  0  0  0  0  0  # atno 8009 bound_to 7997
  155.5454  140.3462  155.4458 H   0  0  0  0  0  0  0  0  0  0  0  0  # atno 8010 bound_to 7997
  140.6683  143.2696  151.4219 H   0  0  0  0  0  0  0  0  0  0  0  0  # atno 10167 bound_to 10162
  157.6229  130.9320  150.0240 H   0  0  0  0  0  0  0  0  0  0  0  0  # atno 10718 bound_to 10713
  152.9882  135.6131  154.2953 H   0  0  0  0  0  0  0  0  0  0  0  0  # atno 10763 bound_to 10752
  154.2676  135.2780  155.2753 H   0  0  0  0  0  0  0  0  0  0  0  0  # atno 10764 bound_to 10752
  154.5150  135.5830  153.6692 H   0  0  0  0  0  0  0  0  0  0  0  0  # atno 10765 bound_to 10752
  140.7165  134.3774  157.5190 H   0  0  0  0  0  0  0  0  0  0  0  0  # atno 11005 bound_to 11000
  146.3506  139.9971  142.8680 LP  0  0  0  0  0  0  0  0  0  0  0  0  # atno 17320 bound_to 7965
  145.1680  140.9706  143.4338 LP  0  0  0  0  0  0  0  0  0  0  0  0  # atno 17321 bound_to 7965
  139.5941  144.1435  152.2123 LP  0  0  0  0  0  0  0  0  0  0  0  0  # atno 17342 bound_to 10162
  140.0799  144.5709  150.7130 LP  0  0  0  0  0  0  0  0  0  0  0  0  # atno 17343 bound_to 10162
  156.1384  130.3642  149.9620 LP  0  0  0  0  0  0  0  0  0  0  0  0  # atno 17370 bound_to 10713
  156.7666  130.9171  151.3643 LP  0  0  0  0  0  0  0  0  0  0  0  0  # atno 17371 bound_to 10713
  139.8858  134.8926  156.2619 LP  0  0  0  0  0  0  0  0  0  0  0  0  # atno 17394 bound_to 11000
  141.0040  133.7135  156.1005 LP  0  0  0  0  0  0  0  0  0  0  0  0  # atno 17395 bound_to 11000

$$$$
