AV-unprocessed.smi:2783|AV-procd|sdf|10724|dock5
  -GOLD-   2272015163D 1   1.00000     0.00000
 Structure written by MMmdl.
 29 29  0  0  0  0  0  0  0  0  1 V2000
  154.5068  133.7756  157.8358 C   0  0  0  0  0  0  0  0  0  0  0  0
  153.8985  135.0228  157.5053 O   0  0  0  0  0  0  0  0  0  0  0  0
  154.4125  136.2117  158.1241 C   0  0  0  0  0  0  0  0  0  0  0  0
  154.2822  136.1265  159.6633 C   0  0  0  0  0  0  0  0  0  0  0  0
  155.9026  136.2646  157.7428 C   0  0  0  0  0  0  0  0  0  0  0  0
  153.7107  137.4704  157.5631 C   0  0  0  0  0  0  0  0  0  0  0  0
  154.0165  138.5816  157.9967 O   0  0  0  0  0  0  0  0  0  0  0  0
  152.8112  137.2648  156.5816 N   0  0  0  0  0  0  0  0  0  0  0  0
  152.0086  138.2103  155.8849 C   0  0  0  0  0  0  0  0  0  0  0  0
  151.7432  139.5175  156.3604 C   0  0  0  0  0  0  0  0  0  0  0  0
  150.9160  140.3614  155.5932 C   0  0  0  0  0  0  0  0  0  0  0  0
  150.3508  139.9888  154.4260 N   0  0  0  0  0  0  0  0  0  0  0  0
  150.5922  138.7377  153.9824 C   0  0  0  0  0  0  0  0  0  0  0  0
  151.4033  137.8120  154.6707 C   0  0  0  0  0  0  0  0  0  0  0  0
  151.5934  136.5594  154.1581 O   0  0  0  0  0  0  0  0  0  0  0  0
  153.9286  132.9692  157.3853 H   0  0  0  0  0  0  0  0  0  0  0  0
  154.5418  133.5932  158.9097 H   0  0  0  0  0  0  0  0  0  0  0  0
  155.5191  133.7065  157.4377 H   0  0  0  0  0  0  0  0  0  0  0  0
  154.8357  136.9276  160.1550 H   0  0  0  0  0  0  0  0  0  0  0  0
  154.6793  135.1826  160.0375 H   0  0  0  0  0  0  0  0  0  0  0  0
  153.2455  136.2049  159.9928 H   0  0  0  0  0  0  0  0  0  0  0  0
  156.3960  137.1386  158.1704 H   0  0  0  0  0  0  0  0  0  0  0  0
  156.0374  136.3046  156.6610 H   0  0  0  0  0  0  0  0  0  0  0  0
  156.4302  135.3811  158.1034 H   0  0  0  0  0  0  0  0  0  0  0  0
  152.7320  136.3124  156.2548 H   0  0  0  0  0  0  0  0  0  0  0  0
  152.1405  139.8828  157.2946 H   0  0  0  0  0  0  0  0  0  0  0  0
  150.6963  141.3633  155.9318 H   0  0  0  0  0  0  0  0  0  0  0  0
  150.1212  138.4657  153.0492 H   0  0  0  0  0  0  0  0  0  0  0  0
  150.9199  136.3038  153.5460 H   0  0  0  0  0  0  0  0  0  0  0  0
  1  2  1  0  0  0  0
  1 16  1  0  0  0  0
  1 17  1  0  0  0  0
  1 18  1  0  0  0  0
  2  3  1  0  0  0  0
  3  4  1  0  0  0  0
  3  5  1  0  0  0  0
  3  6  1  0  0  0  0
  4 19  1  0  0  0  0
  4 20  1  0  0  0  0
  4 21  1  0  0  0  0
  5 22  1  0  0  0  0
  5 23  1  0  0  0  0
  5 24  1  0  0  0  0
  6  7  2  0  0  0  0
  6  8  1  0  0  0  0
  8  9  1  0  0  0  0
  8 25  1  0  0  0  0
  9 14  1  0  0  0  0
  9 10  2  0  0  0  0
 10 11  1  0  0  0  0
 10 26  1  0  0  0  0
 11 12  2  0  0  0  0
 11 27  1  0  0  0  0
 12 13  1  0  0  0  0
 13 14  2  0  0  0  0
 13 28  1  0  0  0  0
 14 15  1  0  0  0  0
 15 29  1  0  0  0  0
M  END
> <s_m_source_file>
AV-unprocessed.smi

> <i_m_source_file_index>
2783

> <i_lp_mmshare_version>
43012

> <i_f3d_flags>
0

> <s_epik_input>
W0NIM11PQyhbQ0gzXSkoW0NIM10pQyg9TylbTkhdYzFbY0hdW2NIXW5bY0hdYzFbT0hd

> <s_epik_cmdline>
J2VwaWtfcHl0aG9uJywgJy1waCcsICc3LjAnLCAnLXRuJywgJzgnLCAnLW1hJywgJzIwMCcsICctbWV0YWxfYmluZGluZycsICctaW1hZScsICc8aW5maWxlLm1hZT4nLCAnLW9tYWUnLCAnPG91dGZpbGUubWFlPic=

> <r_lp_tautomer_probability>
0.43658

> <r_epik_Ionization_Penalty>
0.0236053

> <r_epik_Ionization_Penalty_Charging>
0

> <r_epik_Ionization_Penalty_Neutral>
0.0236053

> <r_epik_State_Penalty>
0.499983

> <r_epik_Charging_Adjusted_Penalty>
0.499983

> <i_epik_Tot_Q>
0

> <i_epik_Tot_abs_Q>
0

> <r_epik_Metal_State_Penalty>
0.746226

> <b_epik_Metal_Only>
0

> <s_lp_Force_Field>
OPLS_2005

> <r_lp_Energy>
14.4929

> <b_lp_Chiralities_Consistent>
1

> <s_lp_Variant>
AV-unprocessed.smi:2783-2

> <Gold.Version>
5.8.1

> <Gold.Id.Protein>
6NUR|6NUR_protein|mol2

> <Gold.PLP.Fitness>
35.7898

> <Gold.PLP.PLP>
-21.4755

> <Gold.PLP.part.hbond>
-5.0000

> <Gold.PLP.part.metal>
0.0000

> <Gold.PLP.part.buried>
-3.1953

> <Gold.PLP.part.nonpolar>
-13.6984

> <Gold.PLP.part.repulsive>
0.5446

> <Gold.PLP.ligand.clash>
0.0000

> <Gold.PLP.ligand.torsion>
0.1495

> <Gold.PLP.Chemscore.Hbond>
3.6578

> <Gold.PLP.Chemscore.CHOScore>
1.2019

> <Gold.PLP.Chemscore.Metal>
0.0000

> <Gold.Chemscore.Hbonds>
donor molecule, donor type, donor heavy atom, donor atom, acceptor molecule, acceptor atom, score
      L1  H    15    29       P1  7949  0.38
      P1  H  7989  7998       L1    12  0.52
      P1  H  7997  8010       L1     7  0.80
      P1  H 10752 10764       L1    15  1.00
      P1  H 10752 10765       L1     2  0.70
      L1  C    13    28       P1  7948  0.49
      L1  C    13    28       P1  7957  0.92

> <Gold.PLP.Chemscore.Internal.Correction>
0.0344

> <Gold.Rescore>
     Score         DG    S(hbond)    S(metal)    S(lipo)     H(rot)  DE(clash)    DE(int)     intcor
     14.54     -15.92       2.84        0.00      46.54       1.75       0.00       1.38       ----

> <Gold.Chemscore.Fitness>
14.5384

> <Gold.Chemscore.DG>
-15.9211

> <Gold.Chemscore.ZeroCoef>
-5.4800

> <Gold.Chemscore.Hbond>
2.8376

> <Gold.Chemscore.Metal>
0.0000

> <Gold.Chemscore.Lipo>
46.5414

> <Gold.Chemscore.Internal_Hbond>
0.0000

> <Gold.Chemscore.DEClash>
0.0000

> <Gold.Chemscore.DEInternal>
1.3827

> <Gold.Chemscore.Rot>
1.7507

> <Gold.Chemscore.Internal.Correction>
   9.000000E+99

> <Gold.Chemscore.Hbonds>
donor molecule, donor type, donor heavy atom, donor atom, acceptor molecule, acceptor atom, score
      L1  H    15    29       P1  7949  0.07
      P1  H  7989  7998       L1    12  0.01
      P1  H  7997  8010       L1     7  0.79
      P1  H 10752 10764       L1    15  0.94
      P1  H 10752 10765       L1     2  0.25

> <Gold.Chemscore.Hbond.Weighted>
-9.4775

> <Gold.Chemscore.Metal.Weighted>
-0.0000

> <Gold.Chemscore.Lipo.Weighted>
-5.4453

> <Gold.Chemscore.Internal_Hbond.Weighted>
0.0000

> <Gold.Chemscore.DEClash.Weighted>
0.0000

> <Gold.Chemscore.DEInternal.Weighted>
1.3827

> <Gold.Chemscore.Rot.Weighted>
4.4817

> <Gold.Chemscore.Internal.Correction.Weighted>
   9.000000E+99

> <Gold.Protein.RotatedTorsions>
[ 6907 6896 6895 6894 ] final -124.38 input  -60.11 | X-H torsion
[ 7974 7965 7964 7962 ] final -123.08 input  175.53 | X-H torsion
[ 8008 7997 7996 7995 ] final   -1.96 input   59.86 | X-H torsion
[ 10167 10162 10161 10158 ] final  -46.53 input  -65.29 | X-H torsion
[ 10718 10713 10712 10709 ] final   46.58 input   66.30 | X-H torsion
[ 10763 10752 10751 10750 ] final  -85.86 input  -60.55 | X-H torsion
[ 11005 11000 10999 10996 ] final    0.55 input  -57.11 | X-H torsion

> <Gold.Protein.ActiveResidues>
 VAL166  LYS551  ARG553  GLY616  TRP617  ASP618  TYR619  PRO620  LYS621  CYS622 
 ASP623  PHE694  ASN695  SER759  ASP760  ASP761  ALA762  ILE779  LEU786  VAL792 
 PHE793  MET794  SER795  GLU796  ALA797  LYS798  CYS799  TRP800  GLU811  SER814 

> <Gold.Protein.RotatedAtoms>
  150.8762  133.7435  159.2945 H   0  0  0  0  0  0  0  0  0  0  0  0  # atno 6907 bound_to 6896
  151.5031  135.1061  159.9844 H   0  0  0  0  0  0  0  0  0  0  0  0  # atno 6908 bound_to 6896
  152.4729  133.8026  159.7016 H   0  0  0  0  0  0  0  0  0  0  0  0  # atno 6909 bound_to 6896
  145.0225  140.8000  143.4372 H   0  0  0  0  0  0  0  0  0  0  0  0  # atno 7974 bound_to 7965
  154.6410  140.2546  155.7322 H   0  0  0  0  0  0  0  0  0  0  0  0  # atno 8008 bound_to 7997
  156.2528  140.2887  156.0724 H   0  0  0  0  0  0  0  0  0  0  0  0  # atno 8009 bound_to 7997
  155.1597  140.0384  157.2830 H   0  0  0  0  0  0  0  0  0  0  0  0  # atno 8010 bound_to 7997
  140.6813  143.2826  151.3796 H   0  0  0  0  0  0  0  0  0  0  0  0  # atno 10167 bound_to 10162
  157.4495  130.8130  149.7774 H   0  0  0  0  0  0  0  0  0  0  0  0  # atno 10718 bound_to 10713
  154.6159  135.5470  153.7523 H   0  0  0  0  0  0  0  0  0  0  0  0  # atno 10763 bound_to 10752
  153.0216  135.6401  154.1511 H   0  0  0  0  0  0  0  0  0  0  0  0  # atno 10764 bound_to 10752
  154.1447  135.2906  155.3131 H   0  0  0  0  0  0  0  0  0  0  0  0  # atno 10765 bound_to 10752
  140.6253  133.9624  155.8246 H   0  0  0  0  0  0  0  0  0  0  0  0  # atno 11005 bound_to 11000
  145.1877  139.2318  143.5259 LP  0  0  0  0  0  0  0  0  0  0  0  0  # atno 17320 bound_to 7965
  146.3487  140.1665  142.8590 LP  0  0  0  0  0  0  0  0  0  0  0  0  # atno 17321 bound_to 7965
  139.6138  144.1044  152.2325 LP  0  0  0  0  0  0  0  0  0  0  0  0  # atno 17342 bound_to 10162
  140.0466  144.5965  150.7369 LP  0  0  0  0  0  0  0  0  0  0  0  0  # atno 17343 bound_to 10162
  155.9981  130.3896  150.2714 LP  0  0  0  0  0  0  0  0  0  0  0  0  # atno 17370 bound_to 10713
  157.0884  131.0163  151.3131 LP  0  0  0  0  0  0  0  0  0  0  0  0  # atno 17371 bound_to 10713
  141.0714  134.0200  157.3521 LP  0  0  0  0  0  0  0  0  0  0  0  0  # atno 17394 bound_to 11000
  139.9137  135.0194  156.7796 LP  0  0  0  0  0  0  0  0  0  0  0  0  # atno 17395 bound_to 11000

$$$$
