AV-unprocessed.smi:218|AV-procd|sdf|1671|dock5
  -GOLD-   2262020 83D 1   1.00000     0.00000
 Structure written by MMmdl.
 54 57  0  0  0  0  0  0  0  0  1 V2000
  152.8289  143.1295  161.1296 C   0  0  0  0  0  0  0  0  0  0  0  0
  152.6529  143.0167  159.6104 C   0  0  0  0  0  0  0  0  0  0  0  0
  152.1456  144.3388  159.0091 C   0  0  0  0  0  0  0  0  0  0  0  0
  151.7078  141.9705  159.3772 O   0  0  0  0  0  0  0  0  0  0  0  0
  151.3963  141.5913  158.0854 C   0  0  0  0  0  0  0  0  0  0  0  0
  150.0900  141.8350  157.6139 C   0  0  0  0  0  0  0  0  0  0  0  0
  149.7567  141.4468  156.3007 C   0  0  0  0  0  0  0  0  0  0  0  0
  148.3687  141.6998  155.7529 C   0  0  0  0  0  0  0  0  0  0  0  0
  147.3241  141.1544  156.6040 N   0  0  0  0  0  0  0  0  0  0  0  0
  146.6182  140.0681  156.2255 C   0  0  0  0  0  0  0  0  0  0  0  0
  145.8752  139.4893  157.1992 N   0  0  0  0  0  0  0  0  0  0  0  0
  145.1379  138.4089  156.9292 C   0  0  0  0  0  0  0  0  0  0  0  0
  145.0039  137.7597  155.7720 N   0  0  0  0  0  0  0  0  0  0  0  0
  145.7486  138.3354  154.7845 C   0  0  0  0  0  0  0  0  0  0  0  0
  146.5802  139.4838  154.9240 C   0  0  0  0  0  0  0  0  0  0  0  0
  147.1797  139.7642  153.7000 N   0  0  0  0  0  0  0  0  0  0  0  0
  146.7292  138.8398  152.8963 C   0  0  0  0  0  0  0  0  0  0  0  0
  145.8547  137.9438  153.4659 N   0  0  0  0  0  0  0  0  0  0  0  0
  145.1793  136.7835  152.8129 C   0  0  1  0  0  0  0  0  0  0  0  0
  145.5732  136.7672  151.4773 O   0  0  0  0  0  0  0  0  0  0  0  0
  145.7268  135.4268  151.0371 C   0  0  2  0  0  0  0  0  0  0  0  0
  144.4619  134.9644  150.2828 C   0  0  0  0  0  0  0  0  0  0  0  0
  144.6624  133.7796  149.5399 O   0  0  0  0  0  0  0  0  0  0  0  0
  146.1053  134.6172  152.2865 C   0  0  1  0  0  0  0  0  0  0  0  0
  147.5122  134.4828  152.3398 O   0  0  0  0  0  0  0  0  0  0  0  0
  145.6049  135.4536  153.4661 C   0  0  2  0  0  0  0  0  0  0  0  0
  144.5045  134.8068  154.0733 O   0  0  0  0  0  0  0  0  0  0  0  0
  150.7440  140.8325  155.5053 C   0  0  0  0  0  0  0  0  0  0  0  0
  152.0208  140.6300  156.0634 C   0  0  0  0  0  0  0  0  0  0  0  0
  152.3461  140.9963  157.3212 N   0  0  0  0  0  0  0  0  0  0  0  0
  144.1105  136.9895  152.8903 H   0  0  0  0  0  0  0  0  0  0  0  0
  146.5427  135.4201  150.3124 H   0  0  0  0  0  0  0  0  0  0  0  0
  145.6814  133.6121  152.2653 H   0  0  0  0  0  0  0  0  0  0  0  0
  146.3801  135.6127  154.2177 H   0  0  0  0  0  0  0  0  0  0  0  0
  153.5498  143.9067  161.3850 H   0  0  0  0  0  0  0  0  0  0  0  0
  153.1909  142.1911  161.5505 H   0  0  0  0  0  0  0  0  0  0  0  0
  151.8864  143.3730  161.6207 H   0  0  0  0  0  0  0  0  0  0  0  0
  153.6289  142.7671  159.1916 H   0  0  0  0  0  0  0  0  0  0  0  0
  152.8434  145.1518  159.2112 H   0  0  0  0  0  0  0  0  0  0  0  0
  151.1794  144.6169  159.4307 H   0  0  0  0  0  0  0  0  0  0  0  0
  152.0274  144.2730  157.9278 H   0  0  0  0  0  0  0  0  0  0  0  0
  149.3585  142.3116  158.2503 H   0  0  0  0  0  0  0  0  0  0  0  0
  148.2206  142.7742  155.6359 H   0  0  0  0  0  0  0  0  0  0  0  0
  148.3029  141.2505  154.7614 H   0  0  0  0  0  0  0  0  0  0  0  0
  147.1473  141.6592  157.4602 H   0  0  0  0  0  0  0  0  0  0  0  0
  144.5737  138.0080  157.7583 H   0  0  0  0  0  0  0  0  0  0  0  0
  147.0228  138.7884  151.8578 H   0  0  0  0  0  0  0  0  0  0  0  0
  143.6325  134.8238  150.9765 H   0  0  0  0  0  0  0  0  0  0  0  0
  144.1567  135.7403  149.5803 H   0  0  0  0  0  0  0  0  0  0  0  0
  145.1253  133.9976  148.7453 H   0  0  0  0  0  0  0  0  0  0  0  0
  147.8962  135.3446  152.2727 H   0  0  0  0  0  0  0  0  0  0  0  0
  143.8117  134.7316  153.4352 H   0  0  0  0  0  0  0  0  0  0  0  0
  150.5324  140.5243  154.4919 H   0  0  0  0  0  0  0  0  0  0  0  0
  152.8026  140.1618  155.4840 H   0  0  0  0  0  0  0  0  0  0  0  0
  1  2  1  0  0  0  0
  1 35  1  0  0  0  0
  1 36  1  0  0  0  0
  1 37  1  0  0  0  0
  2  3  1  0  0  0  0
  2  4  1  0  0  0  0
  2 38  1  0  0  0  0
  3 39  1  0  0  0  0
  3 40  1  0  0  0  0
  3 41  1  0  0  0  0
  4  5  1  0  0  0  0
  5 30  1  0  0  0  0
  5  6  2  0  0  0  0
  6  7  1  0  0  0  0
  6 42  1  0  0  0  0
  7  8  1  0  0  0  0
  7 28  2  0  0  0  0
  8  9  1  0  0  0  0
  8 43  1  0  0  0  0
  8 44  1  0  0  0  0
  9 10  1  0  0  0  0
  9 45  1  0  0  0  0
 10 15  1  0  0  0  0
 10 11  2  0  0  0  0
 11 12  1  0  0  0  0
 12 13  2  0  0  0  0
 12 46  1  0  0  0  0
 13 14  1  0  0  0  0
 14 18  1  0  0  0  0
 14 15  2  0  0  0  0
 15 16  1  0  0  0  0
 16 17  2  0  0  0  0
 17 18  1  0  0  0  0
 17 47  1  0  0  0  0
 18 19  1  0  0  0  0
 19 31  1  0  0  0  0
 19 26  1  0  0  0  0
 19 20  1  0  0  0  0
 20 21  1  0  0  0  0
 21 32  1  0  0  0  0
 21 22  1  0  0  0  0
 21 24  1  0  0  0  0
 22 23  1  0  0  0  0
 22 48  1  0  0  0  0
 22 49  1  0  0  0  0
 23 50  1  0  0  0  0
 24 33  1  0  0  0  0
 24 25  1  0  0  0  0
 24 26  1  0  0  0  0
 25 51  1  0  0  0  0
 26 34  1  0  0  0  0
 26 27  1  0  0  0  0
 27 52  1  0  0  0  0
 28 29  1  0  0  0  0
 28 53  1  0  0  0  0
 29 30  2  0  0  0  0
 29 54  1  0  0  0  0
M  END
> <s_m_source_file>
AV-unprocessed.smi

> <i_m_source_file_index>
218

> <i_lp_mmshare_version>
43012

> <i_f3d_flags>
0

> <s_epik_input>
W0NIM11bQ0hdKFtDSDNdKU9jMVtjSF1jKFtjSF1bY0hdbjEpW0NIMl1bTkhdYyhuW2NIXW4yKWMoYzIzKW5bY0hdbjNbQ0BASF00T1tDQEhdKFtDSDJdW09IXSlbQ0BASF0oW09IXSlbQ0BIXTRbT0hd

> <s_epik_cmdline>
J2VwaWtfcHl0aG9uJywgJy1waCcsICc3LjAnLCAnLXRuJywgJzgnLCAnLW1hJywgJzIwMCcsICctbWV0YWxfYmluZGluZycsICctaW1hZScsICc8aW5maWxlLm1hZT4nLCAnLW9tYWUnLCAnPG91dGZpbGUubWFlPic=

> <r_lp_tautomer_probability>
1

> <r_epik_Ionization_Penalty>
0.00457014

> <r_epik_Ionization_Penalty_Charging>
0

> <r_epik_Ionization_Penalty_Neutral>
0.00457014

> <r_epik_State_Penalty>
-0

> <r_epik_Charging_Adjusted_Penalty>
0

> <i_epik_Tot_Q>
0

> <i_epik_Tot_abs_Q>
0

> <r_epik_Metal_State_Penalty>
-0

> <b_epik_Metal_Only>
0

> <s_epik_Chemistry_Notes>
This compound contains an acetal/aminal-like group ( X-CH(R)-Y where X, Y are N, S, or O) that may be acid/base labile, releasing an aldehyde.

> <s_lp_Force_Field>
OPLS_2005

> <r_lp_Energy>
37.7133

> <b_lp_Chiralities_Consistent>
1

> <s_lp_Variant>
AV-unprocessed.smi:218-10

> <Gold.Version>
5.8.1

> <Gold.Id.Protein>
6NUR|6NUR_protein|mol2

> <Gold.PLP.Fitness>
49.4691

> <Gold.PLP.PLP>
-41.0625

> <Gold.PLP.part.hbond>
-2.7234

> <Gold.PLP.part.metal>
0.0000

> <Gold.PLP.part.buried>
-3.2930

> <Gold.PLP.part.nonpolar>
-36.2761

> <Gold.PLP.part.repulsive>
2.0145

> <Gold.PLP.ligand.clash>
0.0000

> <Gold.PLP.ligand.torsion>
0.3003

> <Gold.PLP.Chemscore.Hbond>
1.9879

> <Gold.PLP.Chemscore.CHOScore>
0.9559

> <Gold.PLP.Chemscore.Metal>
0.0000

> <Gold.Chemscore.Hbonds>
donor molecule, donor type, donor heavy atom, donor atom, acceptor molecule, acceptor atom, score
      L1  H    23    50       P1  7921  1.00
      L1  H    25    51       P1  7948  0.69
      L1  C    17    47       P1  7957  0.03

> <Gold.PLP.Chemscore.Internal.Correction>
0.1757

> <Gold.Rescore>
     Score         DG    S(hbond)    S(metal)    S(lipo)     H(rot)  DE(clash)    DE(int)     intcor
      7.82      -9.53       1.89        0.00      88.03       4.90       0.63       1.08       ----

> <Gold.Chemscore.Fitness>
7.8183

> <Gold.Chemscore.DG>
-9.5297

> <Gold.Chemscore.ZeroCoef>
-5.4800

> <Gold.Chemscore.Hbond>
1.8868

> <Gold.Chemscore.Metal>
0.0000

> <Gold.Chemscore.Lipo>
88.0274

> <Gold.Chemscore.Internal_Hbond>
0.0000

> <Gold.Chemscore.DEClash>
0.6299

> <Gold.Chemscore.DEInternal>
1.0814

> <Gold.Chemscore.Rot>
4.9029

> <Gold.Chemscore.Internal.Correction>
   9.000000E+99

> <Gold.Chemscore.Hbonds>
donor molecule, donor type, donor heavy atom, donor atom, acceptor molecule, acceptor atom, score
      L1  H    23    50       P1  7921  0.97
      L1  H    25    51       P1  7948  0.64

> <Gold.Chemscore.Hbond.Weighted>
-6.3020

> <Gold.Chemscore.Metal.Weighted>
-0.0000

> <Gold.Chemscore.Lipo.Weighted>
-10.2992

> <Gold.Chemscore.Internal_Hbond.Weighted>
0.0000

> <Gold.Chemscore.DEClash.Weighted>
0.6299

> <Gold.Chemscore.DEInternal.Weighted>
1.0814

> <Gold.Chemscore.Rot.Weighted>
12.5515

> <Gold.Chemscore.Internal.Correction.Weighted>
   9.000000E+99

> <Gold.Protein.RotatedTorsions>
[ 6907 6896 6895 6894 ] final   96.84 input  -60.11 | X-H torsion
[ 7974 7965 7964 7962 ] final -120.11 input  175.53 | X-H torsion
[ 8008 7997 7996 7995 ] final  -94.72 input   59.86 | X-H torsion
[ 10167 10162 10161 10158 ] final  151.64 input  -65.29 | X-H torsion
[ 10718 10713 10712 10709 ] final  -48.40 input   66.30 | X-H torsion
[ 10763 10752 10751 10750 ] final   67.68 input  -60.55 | X-H torsion
[ 11005 11000 10999 10996 ] final -178.43 input  -57.11 | X-H torsion

> <Gold.Protein.ActiveResidues>
 VAL166  LYS551  ARG553  GLY616  TRP617  ASP618  TYR619  PRO620  LYS621  CYS622 
 ASP623  PHE694  ASN695  SER759  ASP760  ASP761  ALA762  ILE779  LEU786  VAL792 
 PHE793  MET794  SER795  GLU796  ALA797  LYS798  CYS799  TRP800  GLU811  SER814 

> <Gold.Protein.RotatedAtoms>
  152.5430  134.0825  159.8241 H   0  0  0  0  0  0  0  0  0  0  0  0  # atno 6907 bound_to 6896
  151.0925  133.5298  159.2621 H   0  0  0  0  0  0  0  0  0  0  0  0  # atno 6908 bound_to 6896
  151.2083  135.0480  159.8955 H   0  0  0  0  0  0  0  0  0  0  0  0  # atno 6909 bound_to 6896
  145.0550  140.8247  143.4186 H   0  0  0  0  0  0  0  0  0  0  0  0  # atno 7974 bound_to 7965
  154.7521  140.0486  157.0902 H   0  0  0  0  0  0  0  0  0  0  0  0  # atno 8008 bound_to 7997
  155.0044  140.3128  155.4835 H   0  0  0  0  0  0  0  0  0  0  0  0  # atno 8009 bound_to 7997
  156.2887  140.2195  156.5155 H   0  0  0  0  0  0  0  0  0  0  0  0  # atno 8010 bound_to 7997
  139.4839  144.5424  151.7542 H   0  0  0  0  0  0  0  0  0  0  0  0  # atno 10167 bound_to 10162
  156.1991  130.4155  149.9265 H   0  0  0  0  0  0  0  0  0  0  0  0  # atno 10718 bound_to 10713
  153.0198  135.5275  154.7018 H   0  0  0  0  0  0  0  0  0  0  0  0  # atno 10763 bound_to 10752
  154.6124  135.2880  155.0419 H   0  0  0  0  0  0  0  0  0  0  0  0  # atno 10764 bound_to 10752
  154.1436  135.6574  153.5000 H   0  0  0  0  0  0  0  0  0  0  0  0  # atno 10765 bound_to 10752
  140.4299  134.6528  157.4706 H   0  0  0  0  0  0  0  0  0  0  0  0  # atno 11005 bound_to 11000
  145.1479  139.2532  143.5456 LP  0  0  0  0  0  0  0  0  0  0  0  0  # atno 17320 bound_to 7965
  146.3520  140.1174  142.8601 LP  0  0  0  0  0  0  0  0  0  0  0  0  # atno 17321 bound_to 7965
  140.4965  144.1233  150.5961 LP  0  0  0  0  0  0  0  0  0  0  0  0  # atno 17342 bound_to 10162
  140.4111  143.2656  151.9831 LP  0  0  0  0  0  0  0  0  0  0  0  0  # atno 17343 bound_to 10162
  156.6981  130.8922  151.3596 LP  0  0  0  0  0  0  0  0  0  0  0  0  # atno 17370 bound_to 10713
  157.6975  130.9297  150.0687 LP  0  0  0  0  0  0  0  0  0  0  0  0  # atno 17371 bound_to 10713
  140.0141  134.6645  155.9335 LP  0  0  0  0  0  0  0  0  0  0  0  0  # atno 17394 bound_to 11000
  141.1750  133.6539  156.4793 LP  0  0  0  0  0  0  0  0  0  0  0  0  # atno 17395 bound_to 11000

$$$$
