AV-unprocessed.smi:287|AV-procd|sdf|2205|dock3
  -GOLD-   2262022 33D 1   1.00000     0.00000
 Structure written by MMmdl.
 55 58  0  0  0  0  0  0  0  0  1 V2000
  152.0868  141.8915  158.8591 C   0  0  0  0  0  0  0  0  0  0  0  0
  151.6578  141.0309  157.7208 C   0  0  0  0  0  0  0  0  0  0  0  0
  150.5697  141.0270  156.8982 C   0  0  0  0  0  0  0  0  0  0  0  0
  150.7219  139.9331  155.9948 C   0  0  0  0  0  0  0  0  0  0  0  0
  149.7356  139.5368  154.9039 C   0  0  1  0  0  0  0  0  0  0  0  0
  148.7666  140.6984  154.6264 C   0  0  0  0  0  0  0  0  0  0  0  0
  150.3617  139.2707  153.6638 O   0  0  0  0  0  0  0  0  0  0  0  0
  148.9466  138.2586  155.2694 C   0  0  0  0  0  0  0  0  0  0  0  0
  147.5030  138.4723  155.2838 N   0  0  0  0  0  0  0  0  0  0  0  0
  146.7010  137.7537  154.4710 C   0  0  0  0  0  0  0  0  0  0  0  0
  145.7974  138.3634  153.6605 N   0  0  0  0  0  0  0  0  0  0  0  0
  145.0104  137.6280  152.8697 C   0  0  0  0  0  0  0  0  0  0  0  0
  144.9653  136.3003  152.7399 N   0  0  0  0  0  0  0  0  0  0  0  0
  145.8727  135.6823  153.5504 C   0  0  0  0  0  0  0  0  0  0  0  0
  146.7707  136.3373  154.4389 C   0  0  0  0  0  0  0  0  0  0  0  0
  147.5426  135.3972  155.1082 N   0  0  0  0  0  0  0  0  0  0  0  0
  147.1211  134.2535  154.6404 C   0  0  0  0  0  0  0  0  0  0  0  0
  146.1156  134.3300  153.7019 N   0  0  0  0  0  0  0  0  0  0  0  0
  145.4401  133.1845  153.0080 C   0  0  2  0  0  0  0  0  0  0  0  0
  145.9880  131.9772  153.4522 O   0  0  0  0  0  0  0  0  0  0  0  0
  146.5615  131.2544  152.3624 C   0  0  1  0  0  0  0  0  0  0  0  0
  146.4286  129.7443  152.6122 C   0  0  0  0  0  0  0  0  0  0  0  0
  147.0747  129.0231  151.5854 O   0  0  0  0  0  0  0  0  0  0  0  0
  145.7503  131.7498  151.1639 C   0  0  2  0  0  0  0  0  0  0  0  0
  146.3802  131.5140  149.9193 O   0  0  0  0  0  0  0  0  0  0  0  0
  145.5857  133.2300  151.4748 C   0  0  2  0  0  0  0  0  0  0  0  0
  146.6883  134.0067  151.0299 O   0  0  0  0  0  0  0  0  0  0  0  0
  151.9197  139.3553  156.3424 C   0  0  0  0  0  0  0  0  0  0  0  0
  152.6980  138.1886  155.8299 C   0  0  0  0  0  0  0  0  0  0  0  0
  152.4921  140.0142  157.3887 O   0  0  0  0  0  0  0  0  0  0  0  0
  144.4009  133.2384  153.3348 H   0  0  0  0  0  0  0  0  0  0  0  0
  147.6068  131.5419  152.2371 H   0  0  0  0  0  0  0  0  0  0  0  0
  144.7701  131.2702  151.1625 H   0  0  0  0  0  0  0  0  0  0  0  0
  144.6766  133.6396  151.0330 H   0  0  0  0  0  0  0  0  0  0  0  0
  151.3489  142.6687  159.0591 H   0  0  0  0  0  0  0  0  0  0  0  0
  153.0380  142.3766  158.6401 H   0  0  0  0  0  0  0  0  0  0  0  0
  152.2084  141.2999  159.7664 H   0  0  0  0  0  0  0  0  0  0  0  0
  149.7481  141.7265  156.9435 H   0  0  0  0  0  0  0  0  0  0  0  0
  148.1983  140.9624  155.5190 H   0  0  0  0  0  0  0  0  0  0  0  0
  148.0483  140.4429  153.8463 H   0  0  0  0  0  0  0  0  0  0  0  0
  149.3017  141.5924  154.3032 H   0  0  0  0  0  0  0  0  0  0  0  0
  149.8012  139.5863  152.9716 H   0  0  0  0  0  0  0  0  0  0  0  0
  149.1509  137.4991  154.5129 H   0  0  0  0  0  0  0  0  0  0  0  0
  149.2824  137.8474  156.2226 H   0  0  0  0  0  0  0  0  0  0  0  0
  147.1775  139.2480  155.8433 H   0  0  0  0  0  0  0  0  0  0  0  0
  144.3164  138.1810  152.2543 H   0  0  0  0  0  0  0  0  0  0  0  0
  147.5334  133.3124  154.9744 H   0  0  0  0  0  0  0  0  0  0  0  0
  146.8327  129.4657  153.5858 H   0  0  0  0  0  0  0  0  0  0  0  0
  145.3777  129.4535  152.6024 H   0  0  0  0  0  0  0  0  0  0  0  0
  147.7173  129.5853  151.1806 H   0  0  0  0  0  0  0  0  0  0  0  0
  147.3141  131.4795  150.0635 H   0  0  0  0  0  0  0  0  0  0  0  0
  147.4721  133.4842  151.1055 H   0  0  0  0  0  0  0  0  0  0  0  0
  152.9105  138.3029  154.7670 H   0  0  0  0  0  0  0  0  0  0  0  0
  152.1405  137.2620  155.9676 H   0  0  0  0  0  0  0  0  0  0  0  0
  153.6496  138.0879  156.3527 H   0  0  0  0  0  0  0  0  0  0  0  0
  1  2  1  0  0  0  0
  1 35  1  0  0  0  0
  1 36  1  0  0  0  0
  1 37  1  0  0  0  0
  2 30  1  0  0  0  0
  2  3  2  0  0  0  0
  3  4  1  0  0  0  0
  3 38  1  0  0  0  0
  4  5  1  0  0  0  0
  4 28  2  0  0  0  0
  5  6  1  0  0  0  0
  5  7  1  0  0  0  0
  5  8  1  0  0  0  0
  6 39  1  0  0  0  0
  6 40  1  0  0  0  0
  6 41  1  0  0  0  0
  7 42  1  0  0  0  0
  8  9  1  0  0  0  0
  8 43  1  0  0  0  0
  8 44  1  0  0  0  0
  9 10  1  0  0  0  0
  9 45  1  0  0  0  0
 10 15  1  0  0  0  0
 10 11  2  0  0  0  0
 11 12  1  0  0  0  0
 12 13  2  0  0  0  0
 12 46  1  0  0  0  0
 13 14  1  0  0  0  0
 14 18  1  0  0  0  0
 14 15  2  0  0  0  0
 15 16  1  0  0  0  0
 16 17  2  0  0  0  0
 17 18  1  0  0  0  0
 17 47  1  0  0  0  0
 18 19  1  0  0  0  0
 19 31  1  0  0  0  0
 19 26  1  0  0  0  0
 19 20  1  0  0  0  0
 20 21  1  0  0  0  0
 21 32  1  0  0  0  0
 21 22  1  0  0  0  0
 21 24  1  0  0  0  0
 22 23  1  0  0  0  0
 22 48  1  0  0  0  0
 22 49  1  0  0  0  0
 23 50  1  0  0  0  0
 24 33  1  0  0  0  0
 24 25  1  0  0  0  0
 24 26  1  0  0  0  0
 25 51  1  0  0  0  0
 26 34  1  0  0  0  0
 26 27  1  0  0  0  0
 27 52  1  0  0  0  0
 28 29  1  0  0  0  0
 28 30  1  0  0  0  0
 29 53  1  0  0  0  0
 29 54  1  0  0  0  0
 29 55  1  0  0  0  0
M  END
> <s_m_source_file>
AV-unprocessed.smi

> <i_m_source_file_index>
287

> <i_lp_mmshare_version>
43012

> <i_f3d_flags>
0

> <s_epik_input>
W0NIM11jMVtjSF1jKGMobzEpW0NIM10pW0NAQF0oW0NIM10pKFtPSF0pW0NIMl1bTkhdYyhuW2NIXW4yKWMoYzIzKW5bY0hdbjNbQ0BASF00T1tDQEhdKFtDSDJdW09IXSlbQ0BASF0oW09IXSlbQ0BIXTRbT0hd

> <s_epik_cmdline>
J2VwaWtfcHl0aG9uJywgJy1waCcsICc3LjAnLCAnLXRuJywgJzgnLCAnLW1hJywgJzIwMCcsICctbWV0YWxfYmluZGluZycsICctaW1hZScsICc8aW5maWxlLm1hZT4nLCAnLW9tYWUnLCAnPG91dGZpbGUubWFlPic=

> <r_lp_tautomer_probability>
1

> <r_epik_Ionization_Penalty>
0.000992612

> <r_epik_Ionization_Penalty_Charging>
0

> <r_epik_Ionization_Penalty_Neutral>
0.000992612

> <r_epik_State_Penalty>
-0

> <r_epik_Charging_Adjusted_Penalty>
0

> <i_epik_Tot_Q>
0

> <i_epik_Tot_abs_Q>
0

> <r_epik_Metal_State_Penalty>
-0

> <b_epik_Metal_Only>
0

> <s_epik_Chemistry_Notes>
This compound contains an acetal/aminal-like group ( X-CH(R)-Y where X, Y are N, S, or O) that may be acid/base labile, releasing an aldehyde.

> <s_lp_Force_Field>
OPLS_2005

> <r_lp_Energy>
50.5208

> <b_lp_Chiralities_Consistent>
1

> <s_lp_Variant>
AV-unprocessed.smi:287-29

> <Gold.Version>
5.8.1

> <Gold.Id.Protein>
6NUR|6NUR_protein|mol2

> <Gold.PLP.Fitness>
47.3328

> <Gold.PLP.PLP>
-35.6068

> <Gold.PLP.part.hbond>
-5.1558

> <Gold.PLP.part.metal>
0.0000

> <Gold.PLP.part.buried>
-1.2302

> <Gold.PLP.part.nonpolar>
-28.4099

> <Gold.PLP.part.repulsive>
0.5525

> <Gold.PLP.ligand.clash>
3.8212

> <Gold.PLP.ligand.torsion>
2.1601

> <Gold.PLP.Chemscore.Hbond>
4.6160

> <Gold.PLP.Chemscore.CHOScore>
1.9337

> <Gold.PLP.Chemscore.Metal>
0.0000

> <Gold.Chemscore.Hbonds>
donor molecule, donor type, donor heavy atom, donor atom, acceptor molecule, acceptor atom, score
      L1  H     7    42       P1  7957  0.94
      L1  H    23    50       P1 10747  1.00
      L1  H    25    51       P1 10747  1.00
      P1  H  7989  7998       L1     7  0.56
      P1  H  7997  8008       L1    30  1.00
      L1  C    12    46       P1 10171  1.00
      L1  C    12    46       P1 10175  0.98

> <Gold.PLP.Chemscore.Internal.Correction>
0.2183

> <Gold.Rescore>
     Score         DG    S(hbond)    S(metal)    S(lipo)     H(rot)  DE(clash)    DE(int)     intcor
     11.43     -14.27       3.64        0.00      86.38       5.27       0.60       2.24       ----

> <Gold.Chemscore.Fitness>
11.4310

> <Gold.Chemscore.DG>
-14.2691

> <Gold.Chemscore.ZeroCoef>
-5.4800

> <Gold.Chemscore.Hbond>
3.6426

> <Gold.Chemscore.Metal>
0.0000

> <Gold.Chemscore.Lipo>
86.3826

> <Gold.Chemscore.Internal_Hbond>
0.0000

> <Gold.Chemscore.DEClash>
0.5967

> <Gold.Chemscore.DEInternal>
2.2414

> <Gold.Chemscore.Rot>
5.2672

> <Gold.Chemscore.Internal.Correction>
   9.000000E+99

> <Gold.Chemscore.Hbonds>
donor molecule, donor type, donor heavy atom, donor atom, acceptor molecule, acceptor atom, score
      L1  H     7    42       P1  7957  0.91
      L1  H    23    50       P1 10747  0.93
      L1  H    25    51       P1 10747  1.00
      P1  H  7989  7998       L1     7  0.01
      P1  H  7997  8008       L1    30  0.24

> <Gold.Chemscore.Hbond.Weighted>
-12.1663

> <Gold.Chemscore.Metal.Weighted>
-0.0000

> <Gold.Chemscore.Lipo.Weighted>
-10.1068

> <Gold.Chemscore.Internal_Hbond.Weighted>
0.0000

> <Gold.Chemscore.DEClash.Weighted>
0.5967

> <Gold.Chemscore.DEInternal.Weighted>
2.2414

> <Gold.Chemscore.Rot.Weighted>
13.4839

> <Gold.Chemscore.Internal.Correction.Weighted>
   9.000000E+99

> <Gold.Protein.RotatedTorsions>
[ 6907 6896 6895 6894 ] final  115.76 input  -60.11 | X-H torsion
[ 7974 7965 7964 7962 ] final   26.90 input  175.53 | X-H torsion
[ 8008 7997 7996 7995 ] final  -66.31 input   59.86 | X-H torsion
[ 10167 10162 10161 10158 ] final   -3.65 input  -65.29 | X-H torsion
[ 10718 10713 10712 10709 ] final  -69.97 input   66.30 | X-H torsion
[ 10763 10752 10751 10750 ] final  106.64 input  -60.55 | X-H torsion
[ 11005 11000 10999 10996 ] final -137.48 input  -57.11 | X-H torsion

> <Gold.Protein.ActiveResidues>
 VAL166  LYS551  ARG553  GLY616  TRP617  ASP618  TYR619  PRO620  LYS621  CYS622 
 ASP623  PHE694  ASN695  SER759  ASP760  ASP761  ALA762  ILE779  LEU786  VAL792 
 PHE793  MET794  SER795  GLU796  ALA797  LYS798  CYS799  TRP800  GLU811  SER814 

> <Gold.Protein.RotatedAtoms>
  152.4721  133.8054  159.6974 H   0  0  0  0  0  0  0  0  0  0  0  0  # atno 6907 bound_to 6896
  150.8716  133.7487  159.2966 H   0  0  0  0  0  0  0  0  0  0  0  0  # atno 6908 bound_to 6896
  151.5020  135.1065  159.9883 H   0  0  0  0  0  0  0  0  0  0  0  0  # atno 6909 bound_to 6896
  146.1813  139.7265  142.8898 H   0  0  0  0  0  0  0  0  0  0  0  0  # atno 7974 bound_to 7965
  154.4726  140.0915  156.7183 H   0  0  0  0  0  0  0  0  0  0  0  0  # atno 8008 bound_to 7997
  155.4682  140.3463  155.4303 H   0  0  0  0  0  0  0  0  0  0  0  0  # atno 8009 bound_to 7997
  156.1065  140.1436  156.9386 H   0  0  0  0  0  0  0  0  0  0  0  0  # atno 8010 bound_to 7997
  140.6898  143.6515  150.8346 H   0  0  0  0  0  0  0  0  0  0  0  0  # atno 10167 bound_to 10162
  156.0430  130.4322  150.2226 H   0  0  0  0  0  0  0  0  0  0  0  0  # atno 10718 bound_to 10713
  153.3958  135.3870  155.1954 H   0  0  0  0  0  0  0  0  0  0  0  0  # atno 10763 bound_to 10752
  154.8724  135.3759  154.4680 H   0  0  0  0  0  0  0  0  0  0  0  0  # atno 10764 bound_to 10752
  153.5172  135.7087  153.5812 H   0  0  0  0  0  0  0  0  0  0  0  0  # atno 10765 bound_to 10752
  140.8707  134.2054  157.4653 H   0  0  0  0  0  0  0  0  0  0  0  0  # atno 11005 bound_to 11000
  145.4068  141.0392  143.3039 LP  0  0  0  0  0  0  0  0  0  0  0  0  # atno 17320 bound_to 7965
  144.8320  139.5613  143.6939 LP  0  0  0  0  0  0  0  0  0  0  0  0  # atno 17321 bound_to 7965
  140.0227  143.5526  152.2794 LP  0  0  0  0  0  0  0  0  0  0  0  0  # atno 17342 bound_to 10162
  139.6290  144.7641  151.2577 LP  0  0  0  0  0  0  0  0  0  0  0  0  # atno 17343 bound_to 10162
  157.0319  131.0010  151.3309 LP  0  0  0  0  0  0  0  0  0  0  0  0  # atno 17370 bound_to 10713
  157.5271  130.8035  149.7875 LP  0  0  0  0  0  0  0  0  0  0  0  0  # atno 17371 bound_to 10713
  139.8712  134.9773  156.4952 LP  0  0  0  0  0  0  0  0  0  0  0  0  # atno 17394 bound_to 11000
  140.8577  133.8084  155.9233 LP  0  0  0  0  0  0  0  0  0  0  0  0  # atno 17395 bound_to 11000

$$$$
