AV-unprocessed.smi:169|AV-procd|sdf|1400|dock4
  -GOLD-   2262019143D 1   1.00000     0.00000
 Structure written by MMmdl.
 56 60  0  0  0  0  0  0  0  0  2 V2000
  142.1160  134.6616  164.1884 C   0  0  0  0  0  0  0  0  0  0  0  0
  142.6702  134.1910  162.8318 C   0  0  0  0  0  0  0  0  0  0  0  0
  143.9974  134.7642  162.4884 N   0  3  2  0  0  0  0  0  0  0  0  0
  145.1120  134.2795  163.3767 C   0  0  0  0  0  0  0  0  0  0  0  0
  146.5053  134.1527  162.6709 C   0  0  0  0  0  0  0  0  0  0  0  0
  147.1013  135.3605  161.8736 C   0  0  2  0  0  0  0  0  0  0  0  0
  147.5526  136.6150  162.6908 C   0  0  0  0  0  0  0  0  0  0  0  0
  146.4126  137.6662  162.4818 C   0  0  0  0  0  0  0  0  0  0  0  0
  145.3359  136.7933  161.8219 C   0  0  3  0  0  0  0  0  0  0  0  0
  143.9506  136.2526  162.2476 C   0  0  0  0  0  0  0  0  0  0  0  0
  146.0760  135.8709  160.9737 N   0  0  0  0  0  0  0  0  0  0  0  0
  146.3951  136.3401  159.7350 C   0  0  0  0  0  0  0  0  0  0  0  0
  145.4124  136.6048  158.8332 N   0  0  0  0  0  0  0  0  0  0  0  0
  145.7119  137.0502  157.6103 C   0  0  0  0  0  0  0  0  0  0  0  0
  146.9117  137.3048  157.0879 N   0  0  0  0  0  0  0  0  0  0  0  0
  147.9054  137.0610  157.9881 C   0  0  0  0  0  0  0  0  0  0  0  0
  147.7374  136.5804  159.3186 C   0  0  0  0  0  0  0  0  0  0  0  0
  148.9791  136.4566  159.9305 N   0  0  0  0  0  0  0  0  0  0  0  0
  149.8291  136.8331  159.0148 C   0  0  0  0  0  0  0  0  0  0  0  0
  149.2703  137.2271  157.8203 N   0  0  0  0  0  0  0  0  0  0  0  0
  149.9799  137.6860  156.6339 C   0  0  0  0  0  0  0  0  0  0  0  0
  150.6375  136.5604  155.8052 C   0  0  0  0  0  0  0  0  0  0  0  0
  150.9443  137.0470  154.3795 C   0  0  0  0  0  0  0  0  0  0  0  0
  151.5760  136.0359  153.6210 O   0  0  0  0  0  0  0  0  0  0  0  0
  151.7848  135.8088  156.4975 C   0  0  0  0  0  0  0  0  0  0  0  0
  150.9556  134.6592  156.7664 O   0  0  0  0  0  0  0  0  0  0  0  0
  149.9359  135.1984  155.8994 C   0  0  0  0  0  0  0  0  0  0  0  0
  141.1529  134.1911  164.3878 H   0  0  0  0  0  0  0  0  0  0  0  0
  141.9577  135.7391  164.2147 H   0  0  0  0  0  0  0  0  0  0  0  0
  142.7801  134.3983  165.0117 H   0  0  0  0  0  0  0  0  0  0  0  0
  142.7507  133.1034  162.8322 H   0  0  0  0  0  0  0  0  0  0  0  0
  141.9611  134.4369  162.0403 H   0  0  0  0  0  0  0  0  0  0  0  0
  145.1806  134.9058  164.2678 H   0  0  0  0  0  0  0  0  0  0  0  0
  144.8574  133.2855  163.7475 H   0  0  0  0  0  0  0  0  0  0  0  0
  147.2395  133.8314  163.4102 H   0  0  0  0  0  0  0  0  0  0  0  0
  146.4292  133.3199  161.9708 H   0  0  0  0  0  0  0  0  0  0  0  0
  147.9657  134.9707  161.3361 H   0  0  0  0  0  0  0  0  0  0  0  0
  147.6920  136.3692  163.7441 H   0  0  0  0  0  0  0  0  0  0  0  0
  148.4982  137.0084  162.3160 H   0  0  0  0  0  0  0  0  0  0  0  0
  146.1094  138.1780  163.4006 H   0  0  0  0  0  0  0  0  0  0  0  0
  146.7414  138.4340  161.7802 H   0  0  0  0  0  0  0  0  0  0  0  0
  145.4204  136.4685  162.8457 H   0  0  0  0  0  0  0  0  0  0  0  0
  143.2426  136.4290  161.4383 H   0  0  0  0  0  0  0  0  0  0  0  0
  143.5471  136.7926  163.1092 H   0  0  0  0  0  0  0  0  0  0  0  0
  144.8703  137.2284  156.9570 H   0  0  0  0  0  0  0  0  0  0  0  0
  150.8950  136.8301  159.1892 H   0  0  0  0  0  0  0  0  0  0  0  0
  149.2666  138.2366  156.0190 H   0  0  0  0  0  0  0  0  0  0  0  0
  150.7218  138.4235  156.9419 H   0  0  0  0  0  0  0  0  0  0  0  0
  150.0445  137.3785  153.8620 H   0  0  0  0  0  0  0  0  0  0  0  0
  151.6126  137.9082  154.4016 H   0  0  0  0  0  0  0  0  0  0  0  0
  150.9404  135.6593  153.0316 H   0  0  0  0  0  0  0  0  0  0  0  0
  152.6162  135.5604  155.8359 H   0  0  0  0  0  0  0  0  0  0  0  0
  152.1487  136.2750  157.4118 H   0  0  0  0  0  0  0  0  0  0  0  0
  148.9566  135.2360  156.3784 H   0  0  0  0  0  0  0  0  0  0  0  0
  149.8833  134.6588  154.9525 H   0  0  0  0  0  0  0  0  0  0  0  0
  144.2122  134.3675  161.5845 H   0  0  0  0  0  0  0  0  0  0  0  0
  1  2  1  0  0  0  0
  1 28  1  0  0  0  0
  1 29  1  0  0  0  0
  1 30  1  0  0  0  0
  2  3  1  0  0  0  0
  2 31  1  0  0  0  0
  2 32  1  0  0  0  0
  3 10  1  0  0  0  0
  3  4  1  0  0  0  0
  3 56  1  0  0  0  0
  4  5  1  0  0  0  0
  4 33  1  0  0  0  0
  4 34  1  0  0  0  0
  5  6  1  0  0  0  0
  5 35  1  0  0  0  0
  5 36  1  0  0  0  0
  6 11  1  0  0  0  0
  6  7  1  0  0  0  0
  6 37  1  0  0  0  0
  7  8  1  0  0  0  0
  7 38  1  0  0  0  0
  7 39  1  0  0  0  0
  8  9  1  0  0  0  0
  8 40  1  0  0  0  0
  8 41  1  0  0  0  0
  9 10  1  0  0  0  0
  9 11  1  0  0  0  0
  9 42  1  0  0  0  0
 10 43  1  0  0  0  0
 10 44  1  0  0  0  0
 11 12  1  0  0  0  0
 12 17  1  0  0  0  0
 12 13  2  0  0  0  0
 13 14  1  0  0  0  0
 14 15  2  0  0  0  0
 14 45  1  0  0  0  0
 15 16  1  0  0  0  0
 16 20  1  0  0  0  0
 16 17  2  0  0  0  0
 17 18  1  0  0  0  0
 18 19  2  0  0  0  0
 19 20  1  0  0  0  0
 19 46  1  0  0  0  0
 20 21  1  0  0  0  0
 21 22  1  0  0  0  0
 21 47  1  0  0  0  0
 21 48  1  0  0  0  0
 22 27  1  0  0  0  0
 22 23  1  0  0  0  0
 22 25  1  0  0  0  0
 23 24  1  0  0  0  0
 23 49  1  0  0  0  0
 23 50  1  0  0  0  0
 24 51  1  0  0  0  0
 25 26  1  0  0  0  0
 25 52  1  0  0  0  0
 25 53  1  0  0  0  0
 26 27  1  0  0  0  0
 27 54  1  0  0  0  0
 27 55  1  0  0  0  0
M  CHG  1   3   1
M  END
> <s_m_source_file>
AV-unprocessed.smi

> <i_m_source_file_index>
169

> <i_lp_mmshare_version>
43012

> <i_f3d_flags>
0

> <s_epik_input>
W0NASF0xMltDSDJdW0NIMl1OKFtDSDJdW0NIM10pW0NIMl1bQ0BIXShbQ0gyXVtDSDJdMSlOMmMobltjSF1uMyljKGMzNCluW2NIXW40W0NIMl1DNShbQ0gyXVtPSF0pW0NIMl1PW0NIMl01

> <s_epik_cmdline>
J2VwaWtfcHl0aG9uJywgJy1waCcsICc3LjAnLCAnLXRuJywgJzgnLCAnLW1hJywgJzIwMCcsICctbWV0YWxfYmluZGluZycsICctaW1hZScsICc8aW5maWxlLm1hZT4nLCAnLW9tYWUnLCAnPG91dGZpbGUubWFlPic=

> <r_lp_tautomer_probability>
1

> <r_epik_Ionization_Penalty>
0.00274162

> <r_epik_Ionization_Penalty_Charging>
0.00243722

> <r_epik_Ionization_Penalty_Neutral>
0.000304399

> <r_epik_State_Penalty>
-0

> <r_epik_Charging_Adjusted_Penalty>
0.00243722

> <i_epik_Tot_Q>
1

> <i_epik_Tot_abs_Q>
1

> <r_epik_Metal_State_Penalty>
-0

> <b_epik_Metal_Only>
0

> <s_lp_Force_Field>
OPLS_2005

> <r_lp_Energy>
131.332

> <b_lp_Chiralities_Consistent>
1

> <s_lp_Variant>
AV-unprocessed.smi:169-3

> <Gold.Version>
5.8.1

> <Gold.Id.Protein>
6NUR|6NUR_protein|mol2

> <Gold.PLP.Fitness>
45.1231

> <Gold.PLP.PLP>
-39.8194

> <Gold.PLP.part.hbond>
-2.9822

> <Gold.PLP.part.metal>
0.0000

> <Gold.PLP.part.buried>
-4.0203

> <Gold.PLP.part.nonpolar>
-32.7668

> <Gold.PLP.part.repulsive>
0.0226

> <Gold.PLP.ligand.clash>
0.0000

> <Gold.PLP.ligand.torsion>
0.7883

> <Gold.PLP.Chemscore.Hbond>
2.1504

> <Gold.PLP.Chemscore.CHOScore>
0.0000

> <Gold.PLP.Chemscore.Metal>
0.0000

> <Gold.Chemscore.Hbonds>
donor molecule, donor type, donor heavy atom, donor atom, acceptor molecule, acceptor atom, score
      L1  H    24    51       P1  7949  0.21
      P1  H 10752 10764       L1    24  0.99

> <Gold.PLP.Chemscore.Internal.Correction>
0.4290

> <Gold.Rescore>
     Score         DG    S(hbond)    S(metal)    S(lipo)     H(rot)  DE(clash)    DE(int)     intcor
     12.66     -14.82       1.63        0.00      90.58       2.62       0.13       2.04       ----

> <Gold.Chemscore.Fitness>
12.6582

> <Gold.Chemscore.DG>
-14.8201

> <Gold.Chemscore.ZeroCoef>
-5.4800

> <Gold.Chemscore.Hbond>
1.6324

> <Gold.Chemscore.Metal>
0.0000

> <Gold.Chemscore.Lipo>
90.5831

> <Gold.Chemscore.Internal_Hbond>
0.0000

> <Gold.Chemscore.DEClash>
0.1260

> <Gold.Chemscore.DEInternal>
2.0360

> <Gold.Chemscore.Rot>
2.6212

> <Gold.Chemscore.Internal.Correction>
   9.000000E+99

> <Gold.Chemscore.Hbonds>
donor molecule, donor type, donor heavy atom, donor atom, acceptor molecule, acceptor atom, score
      L1  H    24    51       P1  7949  0.02
      P1  H 10752 10764       L1    24  0.79

> <Gold.Chemscore.Hbond.Weighted>
-5.4521

> <Gold.Chemscore.Metal.Weighted>
-0.0000

> <Gold.Chemscore.Lipo.Weighted>
-10.5982

> <Gold.Chemscore.Internal_Hbond.Weighted>
0.0000

> <Gold.Chemscore.DEClash.Weighted>
0.1260

> <Gold.Chemscore.DEInternal.Weighted>
2.0360

> <Gold.Chemscore.Rot.Weighted>
6.7102

> <Gold.Chemscore.Internal.Correction.Weighted>
   9.000000E+99

> <Gold.Protein.RotatedTorsions>
[ 6907 6896 6895 6894 ] final  -45.42 input  -60.11 | X-H torsion
[ 7974 7965 7964 7962 ] final -117.36 input  175.53 | X-H torsion
[ 8008 7997 7996 7995 ] final -177.29 input   59.86 | X-H torsion
[ 10167 10162 10161 10158 ] final  -35.09 input  -65.29 | X-H torsion
[ 10718 10713 10712 10709 ] final -109.78 input   66.30 | X-H torsion
[ 10763 10752 10751 10750 ] final  -82.51 input  -60.55 | X-H torsion
[ 11005 11000 10999 10996 ] final -113.17 input  -57.11 | X-H torsion

> <Gold.Protein.ActiveResidues>
 VAL166  LYS551  ARG553  GLY616  TRP617  ASP618  TYR619  PRO620  LYS621  CYS622 
 ASP623  PHE694  ASN695  SER759  ASP760  ASP761  ALA762  ILE779  LEU786  VAL792 
 PHE793  MET794  SER795  GLU796  ALA797  LYS798  CYS799  TRP800  GLU811  SER814 

> <Gold.Protein.RotatedAtoms>
  150.9222  134.8639  159.7495 H   0  0  0  0  0  0  0  0  0  0  0  0  # atno 6907 bound_to 6896
  152.4998  134.4202  159.9488 H   0  0  0  0  0  0  0  0  0  0  0  0  # atno 6908 bound_to 6896
  151.4235  133.3651  159.2794 H   0  0  0  0  0  0  0  0  0  0  0  0  # atno 6909 bound_to 6896
  145.0862  140.8459  143.4010 H   0  0  0  0  0  0  0  0  0  0  0  0  # atno 7974 bound_to 7965
  156.0052  140.1229  157.0508 H   0  0  0  0  0  0  0  0  0  0  0  0  # atno 8008 bound_to 7997
  154.4256  140.1099  156.5821 H   0  0  0  0  0  0  0  0  0  0  0  0  # atno 8009 bound_to 7997
  155.6157  140.3472  155.4638 H   0  0  0  0  0  0  0  0  0  0  0  0  # atno 8010 bound_to 7997
  140.7172  143.3502  151.2172 H   0  0  0  0  0  0  0  0  0  0  0  0  # atno 10167 bound_to 10162
  156.0555  130.5781  150.8146 H   0  0  0  0  0  0  0  0  0  0  0  0  # atno 10718 bound_to 10713
  154.5766  135.5588  153.7146 H   0  0  0  0  0  0  0  0  0  0  0  0  # atno 10763 bound_to 10752
  153.0067  135.6310  154.2040 H   0  0  0  0  0  0  0  0  0  0  0  0  # atno 10764 bound_to 10752
  154.1980  135.2879  155.2980 H   0  0  0  0  0  0  0  0  0  0  0  0  # atno 10765 bound_to 10752
  141.0631  133.9504  157.2630 H   0  0  0  0  0  0  0  0  0  0  0  0  # atno 11005 bound_to 11000
  145.1120  139.2751  143.5632 LP  0  0  0  0  0  0  0  0  0  0  0  0  # atno 17320 bound_to 7965
  146.3531  140.0718  142.8623 LP  0  0  0  0  0  0  0  0  0  0  0  0  # atno 17321 bound_to 7965
  139.7031  143.9500  152.2914 LP  0  0  0  0  0  0  0  0  0  0  0  0  # atno 17342 bound_to 10162
  139.9200  144.6805  150.8471 LP  0  0  0  0  0  0  0  0  0  0  0  0  # atno 17343 bound_to 10162
  157.5521  131.0944  150.9681 LP  0  0  0  0  0  0  0  0  0  0  0  0  # atno 17370 bound_to 10713
  156.9938  130.5573  149.5305 LP  0  0  0  0  0  0  0  0  0  0  0  0  # atno 17371 bound_to 10713
  139.9451  135.0185  156.8826 LP  0  0  0  0  0  0  0  0  0  0  0  0  # atno 17394 bound_to 11000
  140.5829  134.0335  155.7471 LP  0  0  0  0  0  0  0  0  0  0  0  0  # atno 17395 bound_to 11000

$$$$
