AV-unprocessed.smi:1492|AV-procd|sdf|6046|dock10
  -GOLD-   22720 6163D 1   1.00000     0.00000
 Structure written by MMmdl.
 52 53  0  0  0  0  0  0  0  0  3 V2000
  143.5411  135.9261  153.4161 C   0  0  0  0  0  0  0  0  0  0  0  0
  144.2328  136.9462  152.4928 C   0  0  0  0  0  0  0  0  0  0  0  0
  145.7992  136.9598  152.4775 C   0  0  1  0  0  0  0  0  0  0  0  0
  146.2795  137.9801  151.4160 C   0  0  0  0  0  0  0  0  0  0  0  0
  146.3228  137.4194  153.8747 C   0  0  0  0  0  0  0  0  0  0  0  0
  147.7543  137.6938  153.8450 N   0  0  0  0  0  0  0  0  0  0  0  0
  148.4620  138.3536  154.7730 C   0  0  0  0  0  0  0  0  0  0  0  0
  148.0350  138.6289  155.8932 O   0  0  0  0  0  0  0  0  0  0  0  0
  149.8433  138.8384  154.3293 C   0  0  0  0  0  0  0  0  0  0  0  0
  150.6344  139.5357  155.4371 C   0  0  0  0  0  0  0  0  0  0  0  0
  150.1885  140.6346  156.1114 C   0  0  0  0  0  0  0  0  0  0  0  0
  148.8795  141.3332  155.7880 C   0  0  0  0  0  0  0  0  0  0  0  0
  150.9179  141.1714  157.1857 N   0  0  0  0  0  0  0  0  0  0  0  0
  152.0025  140.6053  157.5567 C   0  0  0  0  0  0  0  0  0  0  0  0
  152.7709  141.1767  158.7290 C   0  0  0  0  0  0  0  0  0  0  0  0
  152.5278  139.4839  156.9554 N   0  5  0  0  0  0  0  0  0  0  0  0
  151.9022  138.9302  155.8791 C   0  0  0  0  0  0  0  0  0  0  0  0
  152.3530  137.9462  155.2949 O   0  0  0  0  0  0  0  0  0  0  0  0
  146.3203  135.5722  152.1654 N   0  3  0  0  0  0  0  0  0  0  0  0
  146.2852  134.5852  153.2853 C   0  0  0  0  0  0  0  0  0  0  0  0
  146.9479  133.2544  152.8825 C   0  0  0  0  0  0  0  0  0  0  0  0
  146.3488  132.7382  151.7035 O   0  0  0  0  0  0  0  0  0  0  0  0
  146.4984  133.6335  150.6124 C   0  0  0  0  0  0  0  0  0  0  0  0
  145.7604  134.9401  150.9361 C   0  0  0  0  0  0  0  0  0  0  0  0
  142.4623  136.0823  153.4045 H   0  0  0  0  0  0  0  0  0  0  0  0
  143.8684  136.0181  154.4509 H   0  0  0  0  0  0  0  0  0  0  0  0
  143.7119  134.8997  153.0923 H   0  0  0  0  0  0  0  0  0  0  0  0
  143.8574  136.7830  151.4812 H   0  0  0  0  0  0  0  0  0  0  0  0
  143.8636  137.9266  152.7942 H   0  0  0  0  0  0  0  0  0  0  0  0
  145.8819  138.9758  151.6092 H   0  0  0  0  0  0  0  0  0  0  0  0
  145.9664  137.7004  150.4103 H   0  0  0  0  0  0  0  0  0  0  0  0
  147.3639  138.0885  151.4090 H   0  0  0  0  0  0  0  0  0  0  0  0
  145.7686  138.2751  154.2583 H   0  0  0  0  0  0  0  0  0  0  0  0
  146.1499  136.6458  154.6220 H   0  0  0  0  0  0  0  0  0  0  0  0
  148.2216  137.4991  152.9709 H   0  0  0  0  0  0  0  0  0  0  0  0
  150.4187  137.9965  153.9413 H   0  0  0  0  0  0  0  0  0  0  0  0
  149.7088  139.5069  153.4797 H   0  0  0  0  0  0  0  0  0  0  0  0
  148.9056  141.7405  154.7772 H   0  0  0  0  0  0  0  0  0  0  0  0
  148.6925  142.1589  156.4756 H   0  0  0  0  0  0  0  0  0  0  0  0
  148.0406  140.6416  155.8635 H   0  0  0  0  0  0  0  0  0  0  0  0
  153.8424  141.1748  158.5252 H   0  0  0  0  0  0  0  0  0  0  0  0
  152.5873  140.5804  159.6233 H   0  0  0  0  0  0  0  0  0  0  0  0
  152.4666  142.2044  158.9323 H   0  0  0  0  0  0  0  0  0  0  0  0
  146.8249  134.9469  154.1585 H   0  0  0  0  0  0  0  0  0  0  0  0
  145.2540  134.4049  153.5898 H   0  0  0  0  0  0  0  0  0  0  0  0
  148.0192  133.3792  152.7297 H   0  0  0  0  0  0  0  0  0  0  0  0
  146.8320  132.5240  153.6835 H   0  0  0  0  0  0  0  0  0  0  0  0
  147.5531  133.8166  150.4023 H   0  0  0  0  0  0  0  0  0  0  0  0
  146.0716  133.1741  149.7205 H   0  0  0  0  0  0  0  0  0  0  0  0
  144.7020  134.7180  151.0728 H   0  0  0  0  0  0  0  0  0  0  0  0
  145.8391  135.5942  150.0717 H   0  0  0  0  0  0  0  0  0  0  0  0
  147.3036  135.7061  151.9734 H   0  0  0  0  0  0  0  0  0  0  0  0
  1  2  1  0  0  0  0
  1 25  1  0  0  0  0
  1 26  1  0  0  0  0
  1 27  1  0  0  0  0
  2  3  1  0  0  0  0
  2 28  1  0  0  0  0
  2 29  1  0  0  0  0
  3  4  1  0  0  0  0
  3  5  1  0  0  0  0
  3 19  1  0  0  0  0
  4 30  1  0  0  0  0
  4 31  1  0  0  0  0
  4 32  1  0  0  0  0
  5  6  1  0  0  0  0
  5 33  1  0  0  0  0
  5 34  1  0  0  0  0
  6  7  1  0  0  0  0
  6 35  1  0  0  0  0
  7  8  2  0  0  0  0
  7  9  1  0  0  0  0
  9 10  1  0  0  0  0
  9 36  1  0  0  0  0
  9 37  1  0  0  0  0
 10 17  1  0  0  0  0
 10 11  2  0  0  0  0
 11 12  1  0  0  0  0
 11 13  1  0  0  0  0
 12 38  1  0  0  0  0
 12 39  1  0  0  0  0
 12 40  1  0  0  0  0
 13 14  2  0  0  0  0
 14 15  1  0  0  0  0
 14 16  1  0  0  0  0
 15 41  1  0  0  0  0
 15 42  1  0  0  0  0
 15 43  1  0  0  0  0
 16 17  1  0  0  0  0
 17 18  2  0  0  0  0
 19 24  1  0  0  0  0
 19 20  1  0  0  0  0
 19 52  1  0  0  0  0
 20 21  1  0  0  0  0
 20 44  1  0  0  0  0
 20 45  1  0  0  0  0
 21 22  1  0  0  0  0
 21 46  1  0  0  0  0
 21 47  1  0  0  0  0
 22 23  1  0  0  0  0
 23 24  1  0  0  0  0
 23 48  1  0  0  0  0
 23 49  1  0  0  0  0
 24 50  1  0  0  0  0
 24 51  1  0  0  0  0
M  CHG  1  16  -1
M  CHG  1  19   1
M  END
> <s_m_source_file>
AV-unprocessed.smi

> <i_m_source_file_index>
1492

> <i_lp_mmshare_version>
43012

> <i_f3d_flags>
0

> <s_epik_input>
W0NIMl0xW0NIMl1PW0NIMl1bQ0gyXU4xW0NAQF0oW0NIM10pKFtDSDJdW0NIM10pW0NIMl1bTkhdQyg9TylbQ0gyXWMyYyhbQ0gzXSluYyhbQ0gzXSlbbkhdYzI9Tw==

> <s_epik_cmdline>
J2VwaWtfcHl0aG9uJywgJy1waCcsICc3LjAnLCAnLXRuJywgJzgnLCAnLW1hJywgJzIwMCcsICctbWV0YWxfYmluZGluZycsICctaW1hZScsICc8aW5maWxlLm1hZT4nLCAnLW9tYWUnLCAnPG91dGZpbGUubWFlPic=

> <r_lp_tautomer_probability>
0.839158

> <r_epik_Ionization_Penalty>
6.90614

> <r_epik_Ionization_Penalty_Charging>
0.570079

> <r_epik_Ionization_Penalty_Neutral>
6.33607

> <r_epik_State_Penalty>
4.81716

> <r_epik_Charging_Adjusted_Penalty>
5.38724

> <i_epik_Tot_Q>
0

> <i_epik_Tot_abs_Q>
2

> <r_epik_Metal_State_Penalty>
1.25629

> <b_epik_Metal_Only>
1

> <s_lp_Force_Field>
OPLS_2005

> <r_lp_Energy>
28.2979

> <b_lp_Chiralities_Consistent>
1

> <s_lp_Variant>
AV-unprocessed.smi:1492-11

> <Gold.Version>
5.8.1

> <Gold.Id.Protein>
6NUR|6NUR_protein|mol2

> <Gold.PLP.Fitness>
46.9655

> <Gold.PLP.PLP>
-32.7650

> <Gold.PLP.part.hbond>
-3.0970

> <Gold.PLP.part.metal>
0.0000

> <Gold.PLP.part.buried>
-3.4018

> <Gold.PLP.part.nonpolar>
-26.9367

> <Gold.PLP.part.repulsive>
0.2308

> <Gold.PLP.ligand.clash>
0.0000

> <Gold.PLP.ligand.torsion>
0.4725

> <Gold.PLP.Chemscore.Hbond>
4.9920

> <Gold.PLP.Chemscore.CHOScore>
0.0000

> <Gold.PLP.Chemscore.Metal>
0.0000

> <Gold.Chemscore.Hbonds>
donor molecule, donor type, donor heavy atom, donor atom, acceptor molecule, acceptor atom, score
      L1  H     6    35       P1  7948  0.96
      L1  H    19    52       P1  7948  2.00
      P1  H  7997  8009       L1    16  1.92

> <Gold.PLP.Chemscore.Internal.Correction>
0.1696

> <Gold.Rescore>
     Score         DG    S(hbond)    S(metal)    S(lipo)     H(rot)  DE(clash)    DE(int)     intcor
     15.54     -16.76       2.29        0.00      77.56       2.12       0.60       0.62       ----

> <Gold.Chemscore.Fitness>
15.5443

> <Gold.Chemscore.DG>
-16.7580

> <Gold.Chemscore.ZeroCoef>
-5.4800

> <Gold.Chemscore.Hbond>
2.2873

> <Gold.Chemscore.Metal>
0.0000

> <Gold.Chemscore.Lipo>
77.5585

> <Gold.Chemscore.Internal_Hbond>
0.0000

> <Gold.Chemscore.DEClash>
0.5985

> <Gold.Chemscore.DEInternal>
0.6153

> <Gold.Chemscore.Rot>
2.1235

> <Gold.Chemscore.Internal.Correction>
   9.000000E+99

> <Gold.Chemscore.Hbonds>
donor molecule, donor type, donor heavy atom, donor atom, acceptor molecule, acceptor atom, score
      L1  H     6    35       P1  7948  0.92
      L1  H    19    52       P1  7948  1.00
      P1  H  7997  8009       L1    16  0.19

> <Gold.Chemscore.Hbond.Weighted>
-7.6397

> <Gold.Chemscore.Metal.Weighted>
-0.0000

> <Gold.Chemscore.Lipo.Weighted>
-9.0743

> <Gold.Chemscore.Internal_Hbond.Weighted>
0.0000

> <Gold.Chemscore.DEClash.Weighted>
0.5985

> <Gold.Chemscore.DEInternal.Weighted>
0.6153

> <Gold.Chemscore.Rot.Weighted>
5.4360

> <Gold.Chemscore.Internal.Correction.Weighted>
   9.000000E+99

> <Gold.Protein.RotatedTorsions>
[ 6907 6896 6895 6894 ] final -109.96 input  -60.11 | X-H torsion
[ 7974 7965 7964 7962 ] final   78.22 input  175.53 | X-H torsion
[ 8008 7997 7996 7995 ] final -156.45 input   59.86 | X-H torsion
[ 10167 10162 10161 10158 ] final -133.51 input  -65.29 | X-H torsion
[ 10718 10713 10712 10709 ] final   51.80 input   66.30 | X-H torsion
[ 10763 10752 10751 10750 ] final  -95.51 input  -60.55 | X-H torsion
[ 11005 11000 10999 10996 ] final  -11.61 input  -57.11 | X-H torsion

> <Gold.Protein.ActiveResidues>
 VAL166  LYS551  ARG553  GLY616  TRP617  ASP618  TYR619  PRO620  LYS621  CYS622 
 ASP623  PHE694  ASN695  SER759  ASP760  ASP761  ALA762  ILE779  LEU786  VAL792 
 PHE793  MET794  SER795  GLU796  ALA797  LYS798  CYS799  TRP800  GLU811  SER814 

> <Gold.Protein.RotatedAtoms>
  150.7594  133.9453  159.3468 H   0  0  0  0  0  0  0  0  0  0  0  0  # atno 6907 bound_to 6896
  151.7365  135.0861  160.0318 H   0  0  0  0  0  0  0  0  0  0  0  0  # atno 6908 bound_to 6896
  152.3556  133.6196  159.6013 H   0  0  0  0  0  0  0  0  0  0  0  0  # atno 6909 bound_to 6896
  145.6800  139.2521  143.1819 H   0  0  0  0  0  0  0  0  0  0  0  0  # atno 7974 bound_to 7965
  155.7173  140.0785  157.2346 H   0  0  0  0  0  0  0  0  0  0  0  0  # atno 8008 bound_to 7997
  154.4050  140.1619  156.2417 H   0  0  0  0  0  0  0  0  0  0  0  0  # atno 8009 bound_to 7997
  155.9228  140.3396  155.6189 H   0  0  0  0  0  0  0  0  0  0  0  0  # atno 8010 bound_to 7997
  139.8975  143.6647  152.2601 H   0  0  0  0  0  0  0  0  0  0  0  0  # atno 10167 bound_to 10162
  157.5014  130.8440  149.8322 H   0  0  0  0  0  0  0  0  0  0  0  0  # atno 10718 bound_to 10713
  154.7155  135.5118  153.8730 H   0  0  0  0  0  0  0  0  0  0  0  0  # atno 10763 bound_to 10752
  153.0816  135.6633  154.0042 H   0  0  0  0  0  0  0  0  0  0  0  0  # atno 10764 bound_to 10752
  153.9875  135.3023  155.3394 H   0  0  0  0  0  0  0  0  0  0  0  0  # atno 10765 bound_to 10752
  140.7571  133.8545  155.9093 H   0  0  0  0  0  0  0  0  0  0  0  0  # atno 11005 bound_to 11000
  146.0972  140.7586  142.9566 LP  0  0  0  0  0  0  0  0  0  0  0  0  # atno 17320 bound_to 7965
  144.7029  140.3730  143.7141 LP  0  0  0  0  0  0  0  0  0  0  0  0  # atno 17321 bound_to 7965
  139.7054  144.7629  151.1201 LP  0  0  0  0  0  0  0  0  0  0  0  0  # atno 17342 bound_to 10162
  140.7714  143.5401  150.9322 LP  0  0  0  0  0  0  0  0  0  0  0  0  # atno 17343 bound_to 10162
  156.0232  130.3788  150.1901 LP  0  0  0  0  0  0  0  0  0  0  0  0  # atno 17370 bound_to 10713
  157.0090  130.9945  151.3371 LP  0  0  0  0  0  0  0  0  0  0  0  0  # atno 17371 bound_to 10713
  140.9698  134.1546  157.4586 LP  0  0  0  0  0  0  0  0  0  0  0  0  # atno 17394 bound_to 11000
  139.8777  134.9974  156.5847 LP  0  0  0  0  0  0  0  0  0  0  0  0  # atno 17395 bound_to 11000

$$$$
