AV-unprocessed.smi:2971|AV-procd|sdf|11333|dock2
  -GOLD-   2272016243D 1   1.00000     0.00000
 Structure written by MMmdl.
 36 38  0  0  0  0  0  0  0  0  1 V2000
  152.9670  139.5092  157.5358 O   0  0  0  0  0  0  0  0  0  0  0  0
  151.7356  140.1985  157.4389 C   0  0  1  0  0  0  0  0  0  0  0  0
  151.7669  141.3899  158.4093 C   0  0  0  0  0  0  0  0  0  0  0  0
  152.7224  141.1284  159.4290 O   0  0  0  0  0  0  0  0  0  0  0  0
  152.7998  142.0015  160.4938 C   0  0  0  0  0  0  0  0  0  0  0  0
  152.1072  143.2377  160.5603 C   0  0  0  0  0  0  0  0  0  0  0  0
  152.2424  144.0720  161.6871 C   0  0  0  0  0  0  0  0  0  0  0  0
  153.0667  143.6843  162.7592 C   0  0  0  0  0  0  0  0  0  0  0  0
  153.7569  142.4595  162.7031 C   0  0  0  0  0  0  0  0  0  0  0  0
  153.6237  141.6249  161.5762 C   0  0  0  0  0  0  0  0  0  0  0  0
  154.2952  140.4493  161.5344 F   0  0  0  0  0  0  0  0  0  0  0  0
  151.5294  140.6521  155.9805 C   0  0  0  0  0  0  0  0  0  0  0  0
  150.5153  139.8735  155.2913 N   0  0  0  0  0  0  0  0  0  0  0  0
  150.5267  138.5447  155.0722 C   0  0  0  0  0  0  0  0  0  0  0  0
  149.4903  138.0248  154.4207 N   0  0  0  0  0  0  0  0  0  0  0  0
  148.7151  139.1481  154.1886 C   0  0  0  0  0  0  0  0  0  0  0  0
  147.4688  139.2831  153.5357 C   0  0  0  0  0  0  0  0  0  0  0  0
  146.8579  140.5488  153.4166 C   0  0  0  0  0  0  0  0  0  0  0  0
  147.4826  141.6970  153.9457 C   0  0  0  0  0  0  0  0  0  0  0  0
  148.7242  141.5874  154.6007 C   0  0  0  0  0  0  0  0  0  0  0  0
  149.3293  140.3225  154.7198 C   0  0  0  0  0  0  0  0  0  0  0  0
  153.1432  139.3400  158.4490 H   0  0  0  0  0  0  0  0  0  0  0  0
  150.9271  139.5209  157.7171 H   0  0  0  0  0  0  0  0  0  0  0  0
  151.9863  142.3174  157.8768 H   0  0  0  0  0  0  0  0  0  0  0  0
  150.7872  141.4980  158.8778 H   0  0  0  0  0  0  0  0  0  0  0  0
  151.4648  143.5703  159.7595 H   0  0  0  0  0  0  0  0  0  0  0  0
  151.7116  145.0119  161.7280 H   0  0  0  0  0  0  0  0  0  0  0  0
  153.1696  144.3249  163.6228 H   0  0  0  0  0  0  0  0  0  0  0  0
  154.3897  142.1590  163.5251 H   0  0  0  0  0  0  0  0  0  0  0  0
  151.2264  141.6996  155.9516 H   0  0  0  0  0  0  0  0  0  0  0  0
  152.4642  140.5850  155.4221 H   0  0  0  0  0  0  0  0  0  0  0  0
  151.3428  137.9237  155.4117 H   0  0  0  0  0  0  0  0  0  0  0  0
  146.9820  138.4107  153.1254 H   0  0  0  0  0  0  0  0  0  0  0  0
  145.9053  140.6395  152.9160 H   0  0  0  0  0  0  0  0  0  0  0  0
  147.0081  142.6625  153.8474 H   0  0  0  0  0  0  0  0  0  0  0  0
  149.2078  142.4647  155.0042 H   0  0  0  0  0  0  0  0  0  0  0  0
  1  2  1  0  0  0  0
  1 22  1  0  0  0  0
  2  3  1  0  0  0  0
  2 12  1  0  0  0  0
  2 23  1  0  0  0  0
  3  4  1  0  0  0  0
  3 24  1  0  0  0  0
  3 25  1  0  0  0  0
  4  5  1  0  0  0  0
  5 10  1  0  0  0  0
  5  6  2  0  0  0  0
  6  7  1  0  0  0  0
  6 26  1  0  0  0  0
  7  8  2  0  0  0  0
  7 27  1  0  0  0  0
  8  9  1  0  0  0  0
  8 28  1  0  0  0  0
  9 10  2  0  0  0  0
  9 29  1  0  0  0  0
 10 11  1  0  0  0  0
 12 13  1  0  0  0  0
 12 30  1  0  0  0  0
 12 31  1  0  0  0  0
 13 21  1  0  0  0  0
 13 14  1  0  0  0  0
 14 15  2  0  0  0  0
 14 32  1  0  0  0  0
 15 16  1  0  0  0  0
 16 21  2  0  0  0  0
 16 17  1  0  0  0  0
 17 18  2  0  0  0  0
 17 33  1  0  0  0  0
 18 19  1  0  0  0  0
 18 34  1  0  0  0  0
 19 20  2  0  0  0  0
 19 35  1  0  0  0  0
 20 21  1  0  0  0  0
 20 36  1  0  0  0  0
M  END
> <s_m_source_file>
AV-unprocessed.smi

> <i_m_source_file_index>
2971

> <i_lp_mmshare_version>
43012

> <i_f3d_flags>
0

> <s_epik_input>
W2NIXTFbY0hdW2NIXVtjSF1jKGMxMiluKFtjSF1uMilbQ0gyXVtDQEhdKFtPSF0pW0NIMl1PYzNbY0hdW2NIXVtjSF1bY0hdYzNG

> <s_epik_cmdline>
J2VwaWtfcHl0aG9uJywgJy1waCcsICc3LjAnLCAnLXRuJywgJzgnLCAnLW1hJywgJzIwMCcsICctbWV0YWxfYmluZGluZycsICctaW1hZScsICc8aW5maWxlLm1hZT4nLCAnLW9tYWUnLCAnPG91dGZpbGUubWFlPic=

> <r_lp_tautomer_probability>
1

> <r_epik_Ionization_Penalty>
0.0600913

> <r_epik_Ionization_Penalty_Charging>
0

> <r_epik_Ionization_Penalty_Neutral>
0.0600913

> <r_epik_State_Penalty>
0.0520726

> <r_epik_Charging_Adjusted_Penalty>
0.0520726

> <i_epik_Tot_Q>
0

> <i_epik_Tot_abs_Q>
0

> <r_epik_Metal_State_Penalty>
5.44269e-05

> <b_epik_Metal_Only>
0

> <s_lp_Force_Field>
OPLS_2005

> <r_lp_Energy>
16.3694

> <b_lp_Chiralities_Consistent>
1

> <s_lp_Variant>
AV-unprocessed.smi:2971-2

> <Gold.Version>
5.8.1

> <Gold.Id.Protein>
6NUR|6NUR_protein|mol2

> <Gold.PLP.Fitness>
52.3003

> <Gold.PLP.PLP>
-51.7010

> <Gold.PLP.part.hbond>
-1.0000

> <Gold.PLP.part.metal>
0.0000

> <Gold.PLP.part.buried>
-3.4072

> <Gold.PLP.part.nonpolar>
-45.1954

> <Gold.PLP.part.repulsive>
0.5608

> <Gold.PLP.ligand.clash>
0.0000

> <Gold.PLP.ligand.torsion>
1.2543

> <Gold.PLP.Chemscore.Hbond>
1.0000

> <Gold.PLP.Chemscore.CHOScore>
0.0000

> <Gold.PLP.Chemscore.Metal>
0.0000

> <Gold.Chemscore.Hbonds>
donor molecule, donor type, donor heavy atom, donor atom, acceptor molecule, acceptor atom, score
      P1  H  7997  8009       L1     1  1.00

> <Gold.PLP.Chemscore.Internal.Correction>
0.1077

> <Gold.Rescore>
     Score         DG    S(hbond)    S(metal)    S(lipo)     H(rot)  DE(clash)    DE(int)     intcor
     15.72     -17.32       0.84        0.00     129.17       2.37       0.33       1.26       ----

> <Gold.Chemscore.Fitness>
15.7174

> <Gold.Chemscore.DG>
-17.3159

> <Gold.Chemscore.ZeroCoef>
-5.4800

> <Gold.Chemscore.Hbond>
0.8380

> <Gold.Chemscore.Metal>
0.0000

> <Gold.Chemscore.Lipo>
129.1723

> <Gold.Chemscore.Internal_Hbond>
0.0000

> <Gold.Chemscore.DEClash>
0.3341

> <Gold.Chemscore.DEInternal>
1.2644

> <Gold.Chemscore.Rot>
2.3735

> <Gold.Chemscore.Internal.Correction>
   9.000000E+99

> <Gold.Chemscore.Hbonds>
donor molecule, donor type, donor heavy atom, donor atom, acceptor molecule, acceptor atom, score
      P1  H  7997  8009       L1     1  0.60

> <Gold.Chemscore.Hbond.Weighted>
-2.7990

> <Gold.Chemscore.Metal.Weighted>
-0.0000

> <Gold.Chemscore.Lipo.Weighted>
-15.1132

> <Gold.Chemscore.Internal_Hbond.Weighted>
0.0000

> <Gold.Chemscore.DEClash.Weighted>
0.3341

> <Gold.Chemscore.DEInternal.Weighted>
1.2644

> <Gold.Chemscore.Rot.Weighted>
6.0762

> <Gold.Chemscore.Internal.Correction.Weighted>
   9.000000E+99

> <Gold.Protein.RotatedTorsions>
[ 6907 6896 6895 6894 ] final   -3.95 input  -60.11 | X-H torsion
[ 7974 7965 7964 7962 ] final -107.35 input  175.53 | X-H torsion
[ 8008 7997 7996 7995 ] final  167.89 input   59.86 | X-H torsion
[ 10167 10162 10161 10158 ] final  -74.09 input  -65.29 | X-H torsion
[ 10718 10713 10712 10709 ] final    9.56 input   66.30 | X-H torsion
[ 10763 10752 10751 10750 ] final  -55.88 input  -60.55 | X-H torsion
[ 11005 11000 10999 10996 ] final -157.79 input  -57.11 | X-H torsion

> <Gold.Protein.ActiveResidues>
 VAL166  LYS551  ARG553  GLY616  TRP617  ASP618  TYR619  PRO620  LYS621  CYS622 
 ASP623  PHE694  ASN695  SER759  ASP760  ASP761  ALA762  ILE779  LEU786  VAL792 
 PHE793  MET794  SER795  GLU796  ALA797  LYS798  CYS799  TRP800  GLU811  SER814 

> <Gold.Protein.RotatedAtoms>
  151.5055  135.1063  159.9839 H   0  0  0  0  0  0  0  0  0  0  0  0  # atno 6907 bound_to 6896
  152.4684  133.7970  159.6943 H   0  0  0  0  0  0  0  0  0  0  0  0  # atno 6908 bound_to 6896
  150.8679  133.7484  159.2996 H   0  0  0  0  0  0  0  0  0  0  0  0  # atno 6909 bound_to 6896
  145.2064  140.9078  143.3340 H   0  0  0  0  0  0  0  0  0  0  0  0  # atno 7974 bound_to 7965
  156.1594  140.1605  156.8637 H   0  0  0  0  0  0  0  0  0  0  0  0  # atno 8008 bound_to 7997
  154.5146  140.0792  156.8092 H   0  0  0  0  0  0  0  0  0  0  0  0  # atno 8009 bound_to 7997
  155.3737  140.3401  155.4246 H   0  0  0  0  0  0  0  0  0  0  0  0  # atno 8010 bound_to 7997
  140.5056  143.2353  151.7680 H   0  0  0  0  0  0  0  0  0  0  0  0  # atno 10167 bound_to 10162
  156.9682  130.5959  149.5667 H   0  0  0  0  0  0  0  0  0  0  0  0  # atno 10718 bound_to 10713
  154.1978  135.6416  153.5078 H   0  0  0  0  0  0  0  0  0  0  0  0  # atno 10763 bound_to 10752
  153.0019  135.5444  154.6347 H   0  0  0  0  0  0  0  0  0  0  0  0  # atno 10764 bound_to 10752
  154.5752  135.2920  155.0760 H   0  0  0  0  0  0  0  0  0  0  0  0  # atno 10765 bound_to 10752
  140.6608  134.4352  157.5234 H   0  0  0  0  0  0  0  0  0  0  0  0  # atno 11005 bound_to 11000
  144.9898  139.3701  143.6220 LP  0  0  0  0  0  0  0  0  0  0  0  0  # atno 17320 bound_to 7965
  146.3407  139.9076  142.8785 LP  0  0  0  0  0  0  0  0  0  0  0  0  # atno 17321 bound_to 7965
  139.4883  144.4462  151.9707 LP  0  0  0  0  0  0  0  0  0  0  0  0  # atno 17342 bound_to 10162
  140.3553  144.3040  150.5942 LP  0  0  0  0  0  0  0  0  0  0  0  0  # atno 17343 bound_to 10162
  156.0294  130.5386  150.8493 LP  0  0  0  0  0  0  0  0  0  0  0  0  # atno 17370 bound_to 10713
  157.5611  131.0946  150.9557 LP  0  0  0  0  0  0  0  0  0  0  0  0  # atno 17371 bound_to 10713
  139.9014  134.8548  156.1882 LP  0  0  0  0  0  0  0  0  0  0  0  0  # atno 17394 bound_to 11000
  141.0467  133.6910  156.1696 LP  0  0  0  0  0  0  0  0  0  0  0  0  # atno 17395 bound_to 11000

$$$$
