AV-unprocessed.smi:861|AV-procd|sdf|3968|dock1
  -GOLD-   22720 1443D 1   1.00000     0.00000
 Structure written by MMmdl.
 44 45  0  0  0  0  0  0  0  0  2 V2000
  151.2198  140.3422  155.8138 C   0  0  0  0  0  0  0  0  0  0  0  0
  150.3081  140.1421  154.5916 C   0  0  0  0  0  0  0  0  0  0  0  0
  149.3576  141.3386  154.4324 C   0  0  0  0  0  0  0  0  0  0  0  0
  149.5131  138.8222  154.6595 C   0  0  0  0  0  0  0  0  0  0  0  0
  150.3972  137.5594  154.6875 C   0  0  0  0  0  0  0  0  0  0  0  0
  149.6077  136.3039  154.5725 N   0  3  1  0  0  0  0  0  0  0  0  0
  150.4239  135.0764  154.7351 C   0  0  0  0  0  0  0  0  0  0  0  0
  150.7305  134.8049  156.2190 C   0  0  0  0  0  0  0  0  0  0  0  0
  149.5116  134.7219  156.9475 O   0  0  0  0  0  0  0  0  0  0  0  0
  148.7640  135.9332  156.9092 C   0  0  2  0  0  0  0  0  0  0  0  0
  147.5321  135.7381  157.8114 C   0  0  0  0  0  0  0  0  0  0  0  0
  147.8133  134.9101  158.9796 N   0  0  0  0  0  0  0  0  0  0  0  0
  147.7263  135.4046  160.2892 C   0  0  0  0  0  0  0  0  0  0  0  0
  147.4363  134.5059  161.3348 C   0  0  0  0  0  0  0  0  0  0  0  0
  147.3642  135.0230  162.6398 C   0  0  0  0  0  0  0  0  0  0  0  0
  147.5890  136.4022  162.8007 C   0  0  0  0  0  0  0  0  0  0  0  0
  147.8631  137.2208  161.7601 N   0  0  0  0  0  0  0  0  0  0  0  0
  147.9275  136.7267  160.5187 N   0  0  0  0  0  0  0  0  0  0  0  0
  148.4018  136.2391  155.4372 C   0  0  0  0  0  0  0  0  0  0  0  0
  150.6478  140.3315  156.7421 H   0  0  0  0  0  0  0  0  0  0  0  0
  151.7427  141.2975  155.7583 H   0  0  0  0  0  0  0  0  0  0  0  0
  151.9818  139.5661  155.8811 H   0  0  0  0  0  0  0  0  0  0  0  0
  150.9411  140.1130  153.7036 H   0  0  0  0  0  0  0  0  0  0  0  0
  148.6882  141.4296  155.2886 H   0  0  0  0  0  0  0  0  0  0  0  0
  148.7418  141.2384  153.5382 H   0  0  0  0  0  0  0  0  0  0  0  0
  149.9120  142.2735  154.3441 H   0  0  0  0  0  0  0  0  0  0  0  0
  148.8606  138.8530  155.5318 H   0  0  0  0  0  0  0  0  0  0  0  0
  148.8558  138.7633  153.7908 H   0  0  0  0  0  0  0  0  0  0  0  0
  151.0857  137.6132  153.8434 H   0  0  0  0  0  0  0  0  0  0  0  0
  151.0140  137.5364  155.5851 H   0  0  0  0  0  0  0  0  0  0  0  0
  149.8637  134.2353  154.3250 H   0  0  0  0  0  0  0  0  0  0  0  0
  151.3442  135.1432  154.1535 H   0  0  0  0  0  0  0  0  0  0  0  0
  151.2646  133.8604  156.3223 H   0  0  0  0  0  0  0  0  0  0  0  0
  151.3731  135.5787  156.6413 H   0  0  0  0  0  0  0  0  0  0  0  0
  149.3761  136.7329  157.3291 H   0  0  0  0  0  0  0  0  0  0  0  0
  147.0971  136.6982  158.0901 H   0  0  0  0  0  0  0  0  0  0  0  0
  146.7601  135.2187  157.2432 H   0  0  0  0  0  0  0  0  0  0  0  0
  148.1002  133.9531  158.8322 H   0  0  0  0  0  0  0  0  0  0  0  0
  147.2748  133.4545  161.1464 H   0  0  0  0  0  0  0  0  0  0  0  0
  147.1456  134.3873  163.4849 H   0  0  0  0  0  0  0  0  0  0  0  0
  147.5490  136.8572  163.7792 H   0  0  0  0  0  0  0  0  0  0  0  0
  147.8241  137.1576  155.3594 H   0  0  0  0  0  0  0  0  0  0  0  0
  147.7564  135.4472  155.0544 H   0  0  0  0  0  0  0  0  0  0  0  0
  149.2759  136.2898  153.6184 H   0  0  0  0  0  0  0  0  0  0  0  0
  1  2  1  0  0  0  0
  1 20  1  0  0  0  0
  1 21  1  0  0  0  0
  1 22  1  0  0  0  0
  2  3  1  0  0  0  0
  2  4  1  0  0  0  0
  2 23  1  0  0  0  0
  3 24  1  0  0  0  0
  3 25  1  0  0  0  0
  3 26  1  0  0  0  0
  4  5  1  0  0  0  0
  4 27  1  0  0  0  0
  4 28  1  0  0  0  0
  5  6  1  0  0  0  0
  5 29  1  0  0  0  0
  5 30  1  0  0  0  0
  6 19  1  0  0  0  0
  6  7  1  0  0  0  0
  6 44  1  0  0  0  0
  7  8  1  0  0  0  0
  7 31  1  0  0  0  0
  7 32  1  0  0  0  0
  8  9  1  0  0  0  0
  8 33  1  0  0  0  0
  8 34  1  0  0  0  0
  9 10  1  0  0  0  0
 10 11  1  0  0  0  0
 10 19  1  0  0  0  0
 10 35  1  0  0  0  0
 11 12  1  0  0  0  0
 11 36  1  0  0  0  0
 11 37  1  0  0  0  0
 12 13  1  0  0  0  0
 12 38  1  0  0  0  0
 13 18  1  0  0  0  0
 13 14  2  0  0  0  0
 14 15  1  0  0  0  0
 14 39  1  0  0  0  0
 15 16  2  0  0  0  0
 15 40  1  0  0  0  0
 16 17  1  0  0  0  0
 16 41  1  0  0  0  0
 17 18  2  0  0  0  0
 19 42  1  0  0  0  0
 19 43  1  0  0  0  0
M  CHG  1   6   1
M  END
> <s_m_source_file>
AV-unprocessed.smi

> <i_m_source_file_index>
861

> <i_lp_mmshare_version>
43012

> <i_f3d_flags>
0

> <s_epik_input>
W0NIM11bQ0hdKFtDSDNdKVtDSDJdW0NIMl1OMVtDSDJdW0NIMl1PW0NASF0oW0NIMl0xKVtDSDJdW05IXWMyW2NIXVtjSF1bY0hdbm4y

> <s_epik_cmdline>
J2VwaWtfcHl0aG9uJywgJy1waCcsICc3LjAnLCAnLXRuJywgJzgnLCAnLW1hJywgJzIwMCcsICctbWV0YWxfYmluZGluZycsICctaW1hZScsICc8aW5maWxlLm1hZT4nLCAnLW9tYWUnLCAnPG91dGZpbGUubWFlPic=

> <r_lp_tautomer_probability>
0.999978

> <r_epik_Ionization_Penalty>
0.114704

> <r_epik_Ionization_Penalty_Charging>
0.0953451

> <r_epik_Ionization_Penalty_Neutral>
0.0193593

> <r_epik_State_Penalty>
0.104983

> <r_epik_Charging_Adjusted_Penalty>
0.200328

> <i_epik_Tot_Q>
1

> <i_epik_Tot_abs_Q>
1

> <r_epik_Metal_State_Penalty>
0.100113

> <b_epik_Metal_Only>
0

> <s_lp_Force_Field>
OPLS_2005

> <r_lp_Energy>
26.2812

> <b_lp_Chiralities_Consistent>
1

> <s_lp_Variant>
AV-unprocessed.smi:861-3

> <Gold.Version>
5.8.1

> <Gold.Id.Protein>
6NUR|6NUR_protein|mol2

> <Gold.PLP.Fitness>
42.8274

> <Gold.PLP.PLP>
-33.6920

> <Gold.PLP.part.hbond>
-3.1223

> <Gold.PLP.part.metal>
0.0000

> <Gold.PLP.part.buried>
-2.9727

> <Gold.PLP.part.nonpolar>
-27.1114

> <Gold.PLP.part.repulsive>
0.0905

> <Gold.PLP.ligand.clash>
0.0000

> <Gold.PLP.ligand.torsion>
0.5238

> <Gold.PLP.Chemscore.Hbond>
3.3432

> <Gold.PLP.Chemscore.CHOScore>
0.0000

> <Gold.PLP.Chemscore.Metal>
0.0000

> <Gold.Chemscore.Hbonds>
donor molecule, donor type, donor heavy atom, donor atom, acceptor molecule, acceptor atom, score
      L1  H     6    44       P1  7948  2.00
      P1  H  6931  6943       L1    17  1.00
      P1  H  6934  6947       L1    17  0.24

> <Gold.PLP.Chemscore.Internal.Correction>
0.1535

> <Gold.Rescore>
     Score         DG    S(hbond)    S(metal)    S(lipo)     H(rot)  DE(clash)    DE(int)     intcor
     15.47     -16.13       1.83        0.00      76.34       1.71       0.05       0.61       ----

> <Gold.Chemscore.Fitness>
15.4657

> <Gold.Chemscore.DG>
-16.1298

> <Gold.Chemscore.ZeroCoef>
-5.4800

> <Gold.Chemscore.Hbond>
1.8271

> <Gold.Chemscore.Metal>
0.0000

> <Gold.Chemscore.Lipo>
76.3387

> <Gold.Chemscore.Internal_Hbond>
0.0000

> <Gold.Chemscore.DEClash>
0.0493

> <Gold.Chemscore.DEInternal>
0.6148

> <Gold.Chemscore.Rot>
1.7127

> <Gold.Chemscore.Internal.Correction>
   9.000000E+99

> <Gold.Chemscore.Hbonds>
donor molecule, donor type, donor heavy atom, donor atom, acceptor molecule, acceptor atom, score
      L1  H     6    44       P1  7948  0.88
      P1  H  6931  6943       L1    17  0.59
      P1  H  6934  6947       L1    17  0.01

> <Gold.Chemscore.Hbond.Weighted>
-6.1026

> <Gold.Chemscore.Metal.Weighted>
-0.0000

> <Gold.Chemscore.Lipo.Weighted>
-8.9316

> <Gold.Chemscore.Internal_Hbond.Weighted>
0.0000

> <Gold.Chemscore.DEClash.Weighted>
0.0493

> <Gold.Chemscore.DEInternal.Weighted>
0.6148

> <Gold.Chemscore.Rot.Weighted>
4.3844

> <Gold.Chemscore.Internal.Correction.Weighted>
   9.000000E+99

> <Gold.Protein.RotatedTorsions>
[ 6907 6896 6895 6894 ] final  -71.03 input  -60.11 | X-H torsion
[ 7974 7965 7964 7962 ] final  -94.93 input  175.53 | X-H torsion
[ 8008 7997 7996 7995 ] final   67.55 input   59.86 | X-H torsion
[ 10167 10162 10161 10158 ] final -157.34 input  -65.29 | X-H torsion
[ 10718 10713 10712 10709 ] final -169.58 input   66.30 | X-H torsion
[ 10763 10752 10751 10750 ] final  -13.10 input  -60.55 | X-H torsion
[ 11005 11000 10999 10996 ] final  -41.68 input  -57.11 | X-H torsion

> <Gold.Protein.ActiveResidues>
 VAL166  LYS551  ARG553  GLY616  TRP617  ASP618  TYR619  PRO620  LYS621  CYS622 
 ASP623  PHE694  ASN695  SER759  ASP760  ASP761  ALA762  ILE779  LEU786  VAL792 
 PHE793  MET794  SER795  GLU796  ALA797  LYS798  CYS799  TRP800  GLU811  SER814 

> <Gold.Protein.RotatedAtoms>
  150.7231  134.5368  159.5727 H   0  0  0  0  0  0  0  0  0  0  0  0  # atno 6907 bound_to 6896
  152.2888  134.7742  160.0391 H   0  0  0  0  0  0  0  0  0  0  0  0  # atno 6908 bound_to 6896
  151.8363  133.3381  159.3666 H   0  0  0  0  0  0  0  0  0  0  0  0  # atno 6909 bound_to 6896
  145.3668  140.9500  143.2469 H   0  0  0  0  0  0  0  0  0  0  0  0  # atno 7974 bound_to 7965
  155.6947  140.3496  155.4908 H   0  0  0  0  0  0  0  0  0  0  0  0  # atno 8008 bound_to 7997
  155.9493  140.1116  157.1012 H   0  0  0  0  0  0  0  0  0  0  0  0  # atno 8009 bound_to 7997
  154.4118  140.1197  156.5018 H   0  0  0  0  0  0  0  0  0  0  0  0  # atno 8010 bound_to 7997
  139.6778  143.9633  152.2320 H   0  0  0  0  0  0  0  0  0  0  0  0  # atno 10167 bound_to 10162
  156.7137  130.9243  151.3091 H   0  0  0  0  0  0  0  0  0  0  0  0  # atno 10718 bound_to 10713
  153.5083  135.7016  153.5794 H   0  0  0  0  0  0  0  0  0  0  0  0  # atno 10763 bound_to 10752
  153.3896  135.3899  155.1914 H   0  0  0  0  0  0  0  0  0  0  0  0  # atno 10764 bound_to 10752
  154.8705  135.3855  154.4560 H   0  0  0  0  0  0  0  0  0  0  0  0  # atno 10765 bound_to 10752
  141.0263  133.6840  156.2491 H   0  0  0  0  0  0  0  0  0  0  0  0  # atno 11005 bound_to 11000
  144.8606  139.5184  143.6814 LP  0  0  0  0  0  0  0  0  0  0  0  0  # atno 17320 bound_to 7965
  146.2903  139.7120  142.9166 LP  0  0  0  0  0  0  0  0  0  0  0  0  # atno 17321 bound_to 7965
  139.9415  144.6678  150.8262 LP  0  0  0  0  0  0  0  0  0  0  0  0  # atno 17342 bound_to 10162
  140.7641  143.3241  151.2555 LP  0  0  0  0  0  0  0  0  0  0  0  0  # atno 17343 bound_to 10162
  157.6926  130.9249  150.0555 LP  0  0  0  0  0  0  0  0  0  0  0  0  # atno 17370 bound_to 10713
  156.1643  130.3644  149.9255 LP  0  0  0  0  0  0  0  0  0  0  0  0  # atno 17371 bound_to 10713
  140.6486  134.5091  157.5575 LP  0  0  0  0  0  0  0  0  0  0  0  0  # atno 17394 bound_to 11000
  139.9178  134.8210  156.1309 LP  0  0  0  0  0  0  0  0  0  0  0  0  # atno 17395 bound_to 11000

$$$$
