AV-unprocessed.smi:910|AV-procd|sdf|4130|dock1
  -GOLD-   22720 2 33D 1   1.00000     0.00000
 Structure written by MMmdl.
 47 48  0  0  0  0  0  0  0  0  2 V2000
  150.1416  132.1252  152.8451 C   0  0  0  0  0  0  0  0  0  0  0  0
  150.5680  133.2374  153.7510 C   0  0  0  0  0  0  0  0  0  0  0  0
  150.3102  134.5835  153.6381 N   0  3  0  0  0  0  0  0  0  0  0  0
  150.8756  135.2312  154.6536 C   0  0  0  0  0  0  0  0  0  0  0  0
  150.7872  136.6275  154.8534 N   0  0  0  0  0  0  0  0  0  0  0  0
  151.2325  137.2837  155.9349 C   0  0  0  0  0  0  0  0  0  0  0  0
  151.9217  136.7781  156.8215 O   0  0  0  0  0  0  0  0  0  0  0  0
  150.8213  138.5606  155.9463 N   0  0  0  0  0  0  0  0  0  0  0  0
  151.0101  139.4853  157.0603 C   0  0  0  0  0  0  0  0  0  0  0  0
  151.6251  140.8098  156.5816 C   0  0  0  0  0  0  0  0  0  0  0  0
  152.3500  141.3926  157.6534 O   0  0  0  0  0  0  0  0  0  0  0  0
  151.6069  141.5968  158.8478 C   0  0  2  0  0  0  0  0  0  0  0  0
  150.5118  142.6326  158.5336 C   0  0  0  0  0  0  0  0  0  0  0  0
  151.1059  144.0118  158.1994 C   0  0  0  0  0  0  0  0  0  0  0  0
  152.0272  144.5094  159.3229 C   0  0  0  0  0  0  0  0  0  0  0  0
  153.1297  143.4858  159.6358 C   0  0  0  0  0  0  0  0  0  0  0  0
  152.5386  142.1027  159.9770 C   0  0  2  0  0  0  0  0  0  0  0  0
  153.6377  141.0946  160.3452 C   0  0  0  0  0  0  0  0  0  0  0  0
  151.5195  134.3609  155.4769 O   0  0  0  0  0  0  0  0  0  0  0  0
  151.3175  133.1230  154.9023 C   0  0  0  0  0  0  0  0  0  0  0  0
  151.9188  131.9501  155.5996 C   0  0  0  0  0  0  0  0  0  0  0  0
  150.9981  131.5399  152.5098 H   0  0  0  0  0  0  0  0  0  0  0  0
  149.6362  132.5069  151.9577 H   0  0  0  0  0  0  0  0  0  0  0  0
  149.4543  131.4472  153.3514 H   0  0  0  0  0  0  0  0  0  0  0  0
  149.7676  134.9802  152.8814 H   0  0  0  0  0  0  0  0  0  0  0  0
  150.2728  138.8967  155.1681 H   0  0  0  0  0  0  0  0  0  0  0  0
  150.0701  139.6634  157.5854 H   0  0  0  0  0  0  0  0  0  0  0  0
  151.6802  139.0115  157.7778 H   0  0  0  0  0  0  0  0  0  0  0  0
  152.3023  140.6321  155.7452 H   0  0  0  0  0  0  0  0  0  0  0  0
  150.8398  141.4786  156.2272 H   0  0  0  0  0  0  0  0  0  0  0  0
  151.1183  140.6723  159.1625 H   0  0  0  0  0  0  0  0  0  0  0  0
  149.8959  142.2831  157.7046 H   0  0  0  0  0  0  0  0  0  0  0  0
  149.8453  142.7264  159.3919 H   0  0  0  0  0  0  0  0  0  0  0  0
  151.6675  143.9543  157.2660 H   0  0  0  0  0  0  0  0  0  0  0  0
  150.3034  144.7305  158.0311 H   0  0  0  0  0  0  0  0  0  0  0  0
  152.4746  145.4630  159.0414 H   0  0  0  0  0  0  0  0  0  0  0  0
  151.4382  144.6977  160.2213 H   0  0  0  0  0  0  0  0  0  0  0  0
  153.8028  143.4033  158.7821 H   0  0  0  0  0  0  0  0  0  0  0  0
  153.7345  143.8482  160.4675 H   0  0  0  0  0  0  0  0  0  0  0  0
  151.9207  142.2268  160.8675 H   0  0  0  0  0  0  0  0  0  0  0  0
  154.3380  140.9471  159.5234 H   0  0  0  0  0  0  0  0  0  0  0  0
  153.2115  140.1245  160.6023 H   0  0  0  0  0  0  0  0  0  0  0  0
  154.2108  141.4401  161.2061 H   0  0  0  0  0  0  0  0  0  0  0  0
  151.5463  131.0130  155.1859 H   0  0  0  0  0  0  0  0  0  0  0  0
  151.6782  131.9672  156.6627 H   0  0  0  0  0  0  0  0  0  0  0  0
  153.0040  131.9566  155.4976 H   0  0  0  0  0  0  0  0  0  0  0  0
  150.2767  137.1532  154.1596 H   0  0  0  0  0  0  0  0  0  0  0  0
  1 22  1  0  0  0  0
  1 23  1  0  0  0  0
  1 24  1  0  0  0  0
  1  2  1  0  0  0  0
  2  3  1  0  0  0  0
  2 20  2  0  0  0  0
  3 25  1  0  0  0  0
  3  4  2  0  0  0  0
  4 19  1  0  0  0  0
  4  5  1  0  0  0  0
  5  6  1  0  0  0  0
  5 47  1  0  0  0  0
  6  8  1  0  0  0  0
  6  7  2  0  0  0  0
  8  9  1  0  0  0  0
  8 26  1  0  0  0  0
  9 10  1  0  0  0  0
  9 27  1  0  0  0  0
  9 28  1  0  0  0  0
 10 11  1  0  0  0  0
 10 29  1  0  0  0  0
 10 30  1  0  0  0  0
 11 12  1  0  0  0  0
 12 17  1  0  0  0  0
 12 13  1  0  0  0  0
 12 31  1  0  0  0  0
 13 14  1  0  0  0  0
 13 32  1  0  0  0  0
 13 33  1  0  0  0  0
 14 15  1  0  0  0  0
 14 34  1  0  0  0  0
 14 35  1  0  0  0  0
 15 16  1  0  0  0  0
 15 36  1  0  0  0  0
 15 37  1  0  0  0  0
 16 17  1  0  0  0  0
 16 38  1  0  0  0  0
 16 39  1  0  0  0  0
 17 18  1  0  0  0  0
 17 40  1  0  0  0  0
 18 41  1  0  0  0  0
 18 42  1  0  0  0  0
 18 43  1  0  0  0  0
 19 20  1  0  0  0  0
 20 21  1  0  0  0  0
 21 44  1  0  0  0  0
 21 45  1  0  0  0  0
 21 46  1  0  0  0  0
M  CHG  1   3   1
M  END
> <s_m_source_file>
AV-unprocessed.smi

> <i_m_source_file_index>
910

> <i_lp_mmshare_version>
43012

> <i_f3d_flags>
0

> <s_epik_input>
W0NIM11jMW5jKG9jMVtDSDNdKVtOSF1DKD1PKVtOSF1bQ0gyXVtDSDJdT1tDQEBIXTJbQ0gyXVtDSDJdW0NIMl1bQ0gyXVtDQEhdMltDSDNd

> <s_epik_cmdline>
J2VwaWtfcHl0aG9uJywgJy1waCcsICc3LjAnLCAnLXRuJywgJzgnLCAnLW1hJywgJzIwMCcsICctbWV0YWxfYmluZGluZycsICctaW1hZScsICc8aW5maWxlLm1hZT4nLCAnLW9tYWUnLCAnPG91dGZpbGUubWFlPic=

> <r_epik_Ionization_Penalty>
7.32931

> <r_epik_Ionization_Penalty_Charging>
7.12214

> <r_epik_Ionization_Penalty_Neutral>
0.207166

> <r_epik_State_Penalty>
2.61278

> <r_epik_Charging_Adjusted_Penalty>
9.73492

> <i_epik_Tot_Q>
1

> <i_epik_Tot_abs_Q>
1

> <r_epik_Metal_State_Penalty>
2.64585

> <b_epik_Metal_Only>
0

> <s_lp_Force_Field>
OPLS_2005

> <r_lp_Energy>
15.8254

> <b_lp_Chiralities_Consistent>
1

> <s_lp_Variant>
AV-unprocessed.smi:910-15

> <Gold.Version>
5.8.1

> <Gold.Id.Protein>
6NUR|6NUR_protein|mol2

> <Gold.PLP.Fitness>
43.5547

> <Gold.PLP.PLP>
-38.0007

> <Gold.PLP.part.hbond>
-1.0000

> <Gold.PLP.part.metal>
0.0000

> <Gold.PLP.part.buried>
-2.1783

> <Gold.PLP.part.nonpolar>
-34.0848

> <Gold.PLP.part.repulsive>
0.1044

> <Gold.PLP.ligand.clash>
0.0000

> <Gold.PLP.ligand.torsion>
0.2318

> <Gold.PLP.Chemscore.Hbond>
1.9840

> <Gold.PLP.Chemscore.CHOScore>
0.0000

> <Gold.PLP.Chemscore.Metal>
0.0000

> <Gold.PLP.Chemscore.Internal.Correction>
0.0656

> <Gold.Rescore>
     Score         DG    S(hbond)    S(metal)    S(lipo)     H(rot)  DE(clash)    DE(int)     intcor
     13.93     -15.79       0.88        0.00     100.09       1.69       0.19       1.67       ----

> <Gold.Chemscore.Fitness>
13.9310

> <Gold.Chemscore.DG>
-15.7942

> <Gold.Chemscore.ZeroCoef>
-5.4800

> <Gold.Chemscore.Hbond>
0.8811

> <Gold.Chemscore.Metal>
0.0000

> <Gold.Chemscore.Lipo>
100.0876

> <Gold.Chemscore.Internal_Hbond>
0.0000

> <Gold.Chemscore.DEClash>
0.1891

> <Gold.Chemscore.DEInternal>
1.6741

> <Gold.Chemscore.Rot>
1.6949

> <Gold.Chemscore.Internal.Correction>
   9.000000E+99

> <Gold.Chemscore.Hbond.Weighted>
-2.9430

> <Gold.Chemscore.Metal.Weighted>
-0.0000

> <Gold.Chemscore.Lipo.Weighted>
-11.7103

> <Gold.Chemscore.Internal_Hbond.Weighted>
0.0000

> <Gold.Chemscore.DEClash.Weighted>
0.1891

> <Gold.Chemscore.DEInternal.Weighted>
1.6741

> <Gold.Chemscore.Rot.Weighted>
4.3390

> <Gold.Chemscore.Internal.Correction.Weighted>
   9.000000E+99

> <Gold.Protein.RotatedTorsions>
[ 6907 6896 6895 6894 ] final  129.17 input  -60.11 | X-H torsion
[ 7974 7965 7964 7962 ] final -119.62 input  175.53 | X-H torsion
[ 8008 7997 7996 7995 ] final  -84.15 input   59.86 | X-H torsion
[ 10167 10162 10161 10158 ] final  136.91 input  -65.29 | X-H torsion
[ 10718 10713 10712 10709 ] final -136.00 input   66.30 | X-H torsion
[ 10763 10752 10751 10750 ] final   26.14 input  -60.55 | X-H torsion
[ 11005 11000 10999 10996 ] final -141.75 input  -57.11 | X-H torsion

> <Gold.Protein.ActiveResidues>
 VAL166  LYS551  ARG553  GLY616  TRP617  ASP618  TYR619  PRO620  LYS621  CYS622 
 ASP623  PHE694  ASN695  SER759  ASP760  ASP761  ALA762  ILE779  LEU786  VAL792 
 PHE793  MET794  SER795  GLU796  ALA797  LYS798  CYS799  TRP800  GLU811  SER814 

> <Gold.Protein.RotatedAtoms>
  152.3650  133.6344  159.6043 H   0  0  0  0  0  0  0  0  0  0  0  0  # atno 6907 bound_to 6896
  150.7627  133.9363  159.3451 H   0  0  0  0  0  0  0  0  0  0  0  0  # atno 6908 bound_to 6896
  151.7195  135.0898  160.0333 H   0  0  0  0  0  0  0  0  0  0  0  0  # atno 6909 bound_to 6896
  145.0605  140.8286  143.4155 H   0  0  0  0  0  0  0  0  0  0  0  0  # atno 7974 bound_to 7965
  154.6267  140.0609  156.9682 H   0  0  0  0  0  0  0  0  0  0  0  0  # atno 8008 bound_to 7997
  155.1730  140.3292  155.4370 H   0  0  0  0  0  0  0  0  0  0  0  0  # atno 8009 bound_to 7997
  156.2461  140.1911  156.6831 H   0  0  0  0  0  0  0  0  0  0  0  0  # atno 8010 bound_to 7997
  139.5163  144.6439  151.5494 H   0  0  0  0  0  0  0  0  0  0  0  0  # atno 10167 bound_to 10162
  156.2723  130.7272  151.1243 H   0  0  0  0  0  0  0  0  0  0  0  0  # atno 10718 bound_to 10713
  153.0643  135.6567  154.0391 H   0  0  0  0  0  0  0  0  0  0  0  0  # atno 10763 bound_to 10752
  154.0052  135.2933  155.3400 H   0  0  0  0  0  0  0  0  0  0  0  0  # atno 10764 bound_to 10752
  154.6994  135.5251  153.8573 H   0  0  0  0  0  0  0  0  0  0  0  0  # atno 10765 bound_to 10752
  140.8293  134.2536  157.4864 H   0  0  0  0  0  0  0  0  0  0  0  0  # atno 11005 bound_to 11000
  145.1415  139.2570  143.5488 LP  0  0  0  0  0  0  0  0  0  0  0  0  # atno 17320 bound_to 7965
  146.3524  140.1093  142.8604 LP  0  0  0  0  0  0  0  0  0  0  0  0  # atno 17321 bound_to 7965
  140.6216  143.9247  150.6531 LP  0  0  0  0  0  0  0  0  0  0  0  0  # atno 17342 bound_to 10162
  140.2522  143.3584  152.1395 LP  0  0  0  0  0  0  0  0  0  0  0  0  # atno 17343 bound_to 10162
  157.7288  131.0629  150.5804 LP  0  0  0  0  0  0  0  0  0  0  0  0  # atno 17370 bound_to 10713
  156.5902  130.4327  149.5940 LP  0  0  0  0  0  0  0  0  0  0  0  0  # atno 17371 bound_to 10713
  139.8705  134.9577  156.4278 LP  0  0  0  0  0  0  0  0  0  0  0  0  # atno 17394 bound_to 11000
  140.9015  133.7776  155.9686 LP  0  0  0  0  0  0  0  0  0  0  0  0  # atno 17395 bound_to 11000

$$$$
