AV-unprocessed.smi:1817|AV-procd|sdf|7377|dock9
  -GOLD-   22720 9 43D 1   1.00000     0.00000
 Structure written by MMmdl.
 42 43  0  0  0  0  0  0  0  0  3 V2000
  143.8813  132.6030  149.0898 C   0  0  0  0  0  0  0  0  0  0  0  0
  144.4291  133.0377  150.4572 C   0  0  0  0  0  0  0  0  0  0  0  0
  145.5661  133.9522  150.3275 N   0  0  0  0  0  0  0  0  0  0  0  0
  145.4355  135.2111  151.0700 C   0  0  0  0  0  0  0  0  0  0  0  0
  145.5298  135.0034  152.5963 C   0  0  0  0  0  0  0  0  0  0  0  0
  146.8133  134.3464  152.9456 N   0  3  0  0  0  0  0  0  0  0  0  0
  147.0773  134.2799  154.4117 C   0  0  1  0  0  0  0  0  0  0  0  0
  146.1252  133.3199  155.1581 C   0  0  0  0  0  0  0  0  0  0  0  0
  148.5682  133.9695  154.6783 C   0  0  0  0  0  0  0  0  0  0  0  0
  149.4361  135.1076  154.3938 N   0  0  0  0  0  0  0  0  0  0  0  0
  150.4590  135.5192  155.1560 C   0  0  0  0  0  0  0  0  0  0  0  0
  150.7146  134.9321  156.2099 O   0  0  0  0  0  0  0  0  0  0  0  0
  151.1250  136.5791  154.6464 N   0  5  0  0  0  0  0  0  0  0  0  0
  150.5426  137.7894  154.6225 C   0  0  0  0  0  0  0  0  0  0  0  0
  151.2479  138.9209  154.4646 N   0  0  0  0  0  0  0  0  0  0  0  0
  150.4574  140.0621  154.4674 N   0  0  0  0  0  0  0  0  0  0  0  0
  149.1683  139.7598  154.6192 C   0  0  0  0  0  0  0  0  0  0  0  0
  148.8028  138.0538  154.7690 S   0  0  0  0  0  0  0  0  0  0  0  0
  146.9567  133.0676  152.2032 C   0  0  0  0  0  0  0  0  0  0  0  0
  146.8384  133.3181  150.6850 C   0  0  0  0  0  0  0  0  0  0  0  0
  143.1294  131.8232  149.2123 H   0  0  0  0  0  0  0  0  0  0  0  0
  144.6716  132.2000  148.4555 H   0  0  0  0  0  0  0  0  0  0  0  0
  143.4052  133.4263  148.5580 H   0  0  0  0  0  0  0  0  0  0  0  0
  143.6323  133.4686  151.0624 H   0  0  0  0  0  0  0  0  0  0  0  0
  144.7657  132.1430  150.9822 H   0  0  0  0  0  0  0  0  0  0  0  0
  146.2340  135.8814  150.7489 H   0  0  0  0  0  0  0  0  0  0  0  0
  144.5048  135.7149  150.8121 H   0  0  0  0  0  0  0  0  0  0  0  0
  145.4733  135.9761  153.0857 H   0  0  0  0  0  0  0  0  0  0  0  0
  144.6863  134.4207  152.9664 H   0  0  0  0  0  0  0  0  0  0  0  0
  146.8928  135.2811  154.8038 H   0  0  0  0  0  0  0  0  0  0  0  0
  146.2407  133.4161  156.2380 H   0  0  0  0  0  0  0  0  0  0  0  0
  146.3212  132.2776  154.9062 H   0  0  0  0  0  0  0  0  0  0  0  0
  145.0803  133.5306  154.9324 H   0  0  0  0  0  0  0  0  0  0  0  0
  148.7232  133.7011  155.7228 H   0  0  0  0  0  0  0  0  0  0  0  0
  148.8908  133.1092  154.0893 H   0  0  0  0  0  0  0  0  0  0  0  0
  149.2580  135.6195  153.5418 H   0  0  0  0  0  0  0  0  0  0  0  0
  148.4279  140.5455  154.6395 H   0  0  0  0  0  0  0  0  0  0  0  0
  147.9288  132.6225  152.4125 H   0  0  0  0  0  0  0  0  0  0  0  0
  146.2069  132.3458  152.5274 H   0  0  0  0  0  0  0  0  0  0  0  0
  146.9510  132.3825  150.1361 H   0  0  0  0  0  0  0  0  0  0  0  0
  147.6542  133.9642  150.3578 H   0  0  0  0  0  0  0  0  0  0  0  0
  147.5273  134.9602  152.5802 H   0  0  0  0  0  0  0  0  0  0  0  0
  1  2  1  0  0  0  0
  1 21  1  0  0  0  0
  1 22  1  0  0  0  0
  1 23  1  0  0  0  0
  2  3  1  0  0  0  0
  2 24  1  0  0  0  0
  2 25  1  0  0  0  0
  3 20  1  0  0  0  0
  3  4  1  0  0  0  0
  4  5  1  0  0  0  0
  4 26  1  0  0  0  0
  4 27  1  0  0  0  0
  5  6  1  0  0  0  0
  5 28  1  0  0  0  0
  5 29  1  0  0  0  0
  6  7  1  0  0  0  0
  6 19  1  0  0  0  0
  6 42  1  0  0  0  0
  7  8  1  0  0  0  0
  7  9  1  0  0  0  0
  7 30  1  0  0  0  0
  8 31  1  0  0  0  0
  8 32  1  0  0  0  0
  8 33  1  0  0  0  0
  9 10  1  0  0  0  0
  9 34  1  0  0  0  0
  9 35  1  0  0  0  0
 10 11  1  0  0  0  0
 10 36  1  0  0  0  0
 11 12  2  0  0  0  0
 11 13  1  0  0  0  0
 13 14  1  0  0  0  0
 14 18  1  0  0  0  0
 14 15  2  0  0  0  0
 15 16  1  0  0  0  0
 16 17  2  0  0  0  0
 17 18  1  0  0  0  0
 17 37  1  0  0  0  0
 19 20  1  0  0  0  0
 19 38  1  0  0  0  0
 19 39  1  0  0  0  0
 20 40  1  0  0  0  0
 20 41  1  0  0  0  0
M  CHG  1   6   1
M  CHG  1  13  -1
M  END
> <s_m_source_file>
AV-unprocessed.smi

> <i_m_source_file_index>
1817

> <i_lp_mmshare_version>
43012

> <i_f3d_flags>
0

> <s_epik_input>
W0NIM11bQ0gyXU4xW0NIMl1bQ0gyXU4oW0NIMl1bQ0gyXTEpW0NASF0oW0NIM10pW0NIMl1bTkhdQyg9TylbTkhdYzJubltjSF1zMg==

> <s_epik_cmdline>
J2VwaWtfcHl0aG9uJywgJy1waCcsICc3LjAnLCAnLXRuJywgJzgnLCAnLW1hJywgJzIwMCcsICctbWV0YWxfYmluZGluZycsICctaW1hZScsICc8aW5maWxlLm1hZT4nLCAnLW9tYWUnLCAnPG91dGZpbGUubWFlPic=

> <r_epik_Ionization_Penalty>
3.16835

> <r_epik_Ionization_Penalty_Charging>
3.13468

> <r_epik_Ionization_Penalty_Neutral>
0.0336711

> <r_epik_State_Penalty>
3.95884

> <r_epik_Charging_Adjusted_Penalty>
7.09351

> <i_epik_Tot_Q>
0

> <i_epik_Tot_abs_Q>
2

> <r_epik_Metal_State_Penalty>
1.39003

> <b_epik_Metal_Only>
1

> <s_lp_Force_Field>
OPLS_2005

> <r_lp_Energy>
12.939

> <b_lp_Chiralities_Consistent>
1

> <s_lp_Variant>
AV-unprocessed.smi:1817-10

> <Gold.Version>
5.8.1

> <Gold.Id.Protein>
6NUR|6NUR_protein|mol2

> <Gold.PLP.Fitness>
45.4366

> <Gold.PLP.PLP>
-30.8372

> <Gold.PLP.part.hbond>
-4.3091

> <Gold.PLP.part.metal>
0.0000

> <Gold.PLP.part.buried>
-6.7316

> <Gold.PLP.part.nonpolar>
-22.3986

> <Gold.PLP.part.repulsive>
2.2057

> <Gold.PLP.ligand.clash>
0.0000

> <Gold.PLP.ligand.torsion>
1.7851

> <Gold.PLP.Chemscore.Hbond>
6.0000

> <Gold.PLP.Chemscore.CHOScore>
0.0000

> <Gold.PLP.Chemscore.Metal>
0.0000

> <Gold.Chemscore.Hbonds>
donor molecule, donor type, donor heavy atom, donor atom, acceptor molecule, acceptor atom, score
      L1  H     6    42       P1  7948  2.00
      L1  H    10    36       P1  7948  1.00
      P1  H  7989  7998       L1    16  0.50
      P1  H 10752 10764       L1    13  1.70

> <Gold.PLP.Chemscore.Internal.Correction>
0.1695

> <Gold.Rescore>
     Score         DG    S(hbond)    S(metal)    S(lipo)     H(rot)  DE(clash)    DE(int)     intcor
     15.28     -18.48       3.08        0.00      64.53       1.88       1.48       1.72       ----

> <Gold.Chemscore.Fitness>
15.2817

> <Gold.Chemscore.DG>
-18.4816

> <Gold.Chemscore.ZeroCoef>
-5.4800

> <Gold.Chemscore.Hbond>
3.0751

> <Gold.Chemscore.Metal>
0.0000

> <Gold.Chemscore.Lipo>
64.5278

> <Gold.Chemscore.Internal_Hbond>
0.0000

> <Gold.Chemscore.DEClash>
1.4840

> <Gold.Chemscore.DEInternal>
1.7159

> <Gold.Chemscore.Rot>
1.8825

> <Gold.Chemscore.Internal.Correction>
   9.000000E+99

> <Gold.Chemscore.Hbonds>
donor molecule, donor type, donor heavy atom, donor atom, acceptor molecule, acceptor atom, score
      L1  H     6    42       P1  7948  0.94
      L1  H    10    36       P1  7948  0.50
      P1  H  7989  7998       L1    16  0.02
      P1  H 10752 10764       L1    13  0.19

> <Gold.Chemscore.Hbond.Weighted>
-10.2709

> <Gold.Chemscore.Metal.Weighted>
-0.0000

> <Gold.Chemscore.Lipo.Weighted>
-7.5497

> <Gold.Chemscore.Internal_Hbond.Weighted>
0.0000

> <Gold.Chemscore.DEClash.Weighted>
1.4840

> <Gold.Chemscore.DEInternal.Weighted>
1.7159

> <Gold.Chemscore.Rot.Weighted>
4.8191

> <Gold.Chemscore.Internal.Correction.Weighted>
   9.000000E+99

> <Gold.Protein.RotatedTorsions>
[ 6907 6896 6895 6894 ] final   55.31 input  -60.11 | X-H torsion
[ 7974 7965 7964 7962 ] final  -85.45 input  175.53 | X-H torsion
[ 8008 7997 7996 7995 ] final  -73.89 input   59.86 | X-H torsion
[ 10167 10162 10161 10158 ] final  156.86 input  -65.29 | X-H torsion
[ 10718 10713 10712 10709 ] final   32.31 input   66.30 | X-H torsion
[ 10763 10752 10751 10750 ] final  -80.14 input  -60.55 | X-H torsion
[ 11005 11000 10999 10996 ] final  -74.85 input  -57.11 | X-H torsion

> <Gold.Protein.ActiveResidues>
 VAL166  LYS551  ARG553  GLY616  TRP617  ASP618  TYR619  PRO620  LYS621  CYS622 
 ASP623  PHE694  ASN695  SER759  ASP760  ASP761  ALA762  ILE779  LEU786  VAL792 
 PHE793  MET794  SER795  GLU796  ALA797  LYS798  CYS799  TRP800  GLU811  SER814 

> <Gold.Protein.RotatedAtoms>
  152.3526  134.6985  160.0231 H   0  0  0  0  0  0  0  0  0  0  0  0  # atno 6907 bound_to 6896
  151.7334  133.3313  159.3354 H   0  0  0  0  0  0  0  0  0  0  0  0  # atno 6908 bound_to 6896
  150.7550  134.6276  159.6214 H   0  0  0  0  0  0  0  0  0  0  0  0  # atno 6909 bound_to 6896
  145.4932  140.9551  143.1801 H   0  0  0  0  0  0  0  0  0  0  0  0  # atno 7974 bound_to 7965
  154.5285  140.0771  156.8302 H   0  0  0  0  0  0  0  0  0  0  0  0  # atno 8008 bound_to 7997
  155.3425  140.3408  155.4221 H   0  0  0  0  0  0  0  0  0  0  0  0  # atno 8009 bound_to 7997
  156.1757  140.1635  156.8354 H   0  0  0  0  0  0  0  0  0  0  0  0  # atno 8010 bound_to 7997
  139.4822  144.4970  151.8224 H   0  0  0  0  0  0  0  0  0  0  0  0  # atno 10167 bound_to 10162
  157.2836  130.7267  149.6570 H   0  0  0  0  0  0  0  0  0  0  0  0  # atno 10718 bound_to 10713
  154.5474  135.5671  153.6892 H   0  0  0  0  0  0  0  0  0  0  0  0  # atno 10763 bound_to 10752
  152.9980  135.6242  154.2420 H   0  0  0  0  0  0  0  0  0  0  0  0  # atno 10764 bound_to 10752
  154.2353  135.2864  155.2854 H   0  0  0  0  0  0  0  0  0  0  0  0  # atno 10765 bound_to 10752
  141.1639  133.6925  156.7426 H   0  0  0  0  0  0  0  0  0  0  0  0  # atno 11005 bound_to 11000
  144.7822  139.6502  143.7149 LP  0  0  0  0  0  0  0  0  0  0  0  0  # atno 17320 bound_to 7965
  146.2272  139.5744  142.9579 LP  0  0  0  0  0  0  0  0  0  0  0  0  # atno 17321 bound_to 7965
  140.4460  144.1921  150.5894 LP  0  0  0  0  0  0  0  0  0  0  0  0  # atno 17342 bound_to 10162
  140.4634  143.2440  151.9188 LP  0  0  0  0  0  0  0  0  0  0  0  0  # atno 17343 bound_to 10162
  155.9665  130.4330  150.4989 LP  0  0  0  0  0  0  0  0  0  0  0  0  # atno 17370 bound_to 10713
  157.2938  131.0631  151.2115 LP  0  0  0  0  0  0  0  0  0  0  0  0  # atno 17371 bound_to 10713
  140.2663  134.8427  157.3805 LP  0  0  0  0  0  0  0  0  0  0  0  0  # atno 17394 bound_to 11000
  140.1564  134.4785  155.7925 LP  0  0  0  0  0  0  0  0  0  0  0  0  # atno 17395 bound_to 11000

$$$$
