AV-unprocessed.smi:3056|AV-procd|sdf|11656|dock5
  -GOLD-   2272017 53D 1   1.00000     0.00000
 Structure written by MMmdl.
 47 48  0  0  0  0  0  0  0  0  1 V2000
  141.9753  136.0590  153.5022 C   0  0  0  0  0  0  0  0  0  0  0  0
  142.7819  135.3091  152.4814 C   0  0  0  0  0  0  0  0  0  0  0  0
  143.7613  135.8255  151.5872 C   0  0  0  0  0  0  0  0  0  0  0  0
  144.2827  134.8963  150.8034 N   0  0  0  0  0  0  0  0  0  0  0  0
  143.6727  133.7506  151.1771 N   0  0  0  0  0  0  0  0  0  0  0  0
  143.9860  132.5079  150.4767 C   0  0  1  0  0  0  0  0  0  0  0  0
  143.7379  132.6407  148.9591 C   0  0  0  0  0  0  0  0  0  0  0  0
  145.4010  131.9867  150.8472 C   0  0  1  0  0  0  0  0  0  0  0  0
  146.5085  133.0056  150.5108 C   0  0  0  0  0  0  0  0  0  0  0  0
  145.4197  131.6147  152.2598 N   0  0  0  0  0  0  0  0  0  0  0  0
  146.7320  131.1813  152.7559 C   0  0  0  0  0  0  0  0  0  0  0  0
  147.5370  132.3717  153.2909 C   0  0  0  0  0  0  0  0  0  0  0  0
  147.0175  133.4864  153.2353 O   0  0  0  0  0  0  0  0  0  0  0  0
  148.7833  132.1752  153.7877 N   0  0  0  0  0  0  0  0  0  0  0  0
  149.3661  130.8461  153.9827 C   0  0  0  0  0  0  0  0  0  0  0  0
  149.4816  130.5992  155.4986 C   0  0  0  0  0  0  0  0  0  0  0  0
  150.2633  131.6304  156.1019 O   0  0  0  0  0  0  0  0  0  0  0  0
  149.7419  132.9419  155.8854 C   0  0  1  0  0  0  0  0  0  0  0  0
  150.6492  133.9517  156.5952 C   0  0  0  0  0  0  0  0  0  0  0  0
  149.6588  133.1977  154.3672 C   0  0  0  0  0  0  0  0  0  0  0  0
  142.7509  133.9773  152.1814 C   0  0  0  0  0  0  0  0  0  0  0  0
  141.9322  137.1253  153.2803 H   0  0  0  0  0  0  0  0  0  0  0  0
  142.3968  135.9552  154.5020 H   0  0  0  0  0  0  0  0  0  0  0  0
  140.9472  135.6994  153.5469 H   0  0  0  0  0  0  0  0  0  0  0  0
  144.1017  136.8451  151.4805 H   0  0  0  0  0  0  0  0  0  0  0  0
  143.2697  131.7656  150.8342 H   0  0  0  0  0  0  0  0  0  0  0  0
  143.8074  131.6755  148.4577 H   0  0  0  0  0  0  0  0  0  0  0  0
  144.4554  133.3099  148.4839 H   0  0  0  0  0  0  0  0  0  0  0  0
  142.7398  133.0319  148.7609 H   0  0  0  0  0  0  0  0  0  0  0  0
  145.5810  131.0855  150.2588 H   0  0  0  0  0  0  0  0  0  0  0  0
  146.3907  133.3867  149.4960 H   0  0  0  0  0  0  0  0  0  0  0  0
  147.5006  132.5578  150.5636 H   0  0  0  0  0  0  0  0  0  0  0  0
  146.4933  133.8588  151.1897 H   0  0  0  0  0  0  0  0  0  0  0  0
  144.7342  130.8850  152.3944 H   0  0  0  0  0  0  0  0  0  0  0  0
  146.5937  130.4558  153.5590 H   0  0  0  0  0  0  0  0  0  0  0  0
  147.3057  130.6824  151.9755 H   0  0  0  0  0  0  0  0  0  0  0  0
  148.7788  130.0517  153.5207 H   0  0  0  0  0  0  0  0  0  0  0  0
  150.3514  130.8051  153.5162 H   0  0  0  0  0  0  0  0  0  0  0  0
  148.4939  130.5654  155.9613 H   0  0  0  0  0  0  0  0  0  0  0  0
  149.9570  129.6371  155.6898 H   0  0  0  0  0  0  0  0  0  0  0  0
  148.7451  133.0034  156.3259 H   0  0  0  0  0  0  0  0  0  0  0  0
  150.2759  134.9683  156.4688 H   0  0  0  0  0  0  0  0  0  0  0  0
  151.6653  133.9153  156.2012 H   0  0  0  0  0  0  0  0  0  0  0  0
  150.6982  133.7468  157.6648 H   0  0  0  0  0  0  0  0  0  0  0  0
  150.6498  133.1213  153.9174 H   0  0  0  0  0  0  0  0  0  0  0  0
  149.3295  134.2168  154.1724 H   0  0  0  0  0  0  0  0  0  0  0  0
  142.1483  133.1818  152.5943 H   0  0  0  0  0  0  0  0  0  0  0  0
  1  2  1  0  0  0  0
  1 22  1  0  0  0  0
  1 23  1  0  0  0  0
  1 24  1  0  0  0  0
  2 21  2  0  0  0  0
  2  3  1  0  0  0  0
  3  4  2  0  0  0  0
  3 25  1  0  0  0  0
  4  5  1  0  0  0  0
  5  6  1  0  0  0  0
  5 21  1  0  0  0  0
  6  7  1  0  0  0  0
  6  8  1  0  0  0  0
  6 26  1  0  0  0  0
  7 27  1  0  0  0  0
  7 28  1  0  0  0  0
  7 29  1  0  0  0  0
  8  9  1  0  0  0  0
  8 10  1  0  0  0  0
  8 30  1  0  0  0  0
  9 31  1  0  0  0  0
  9 32  1  0  0  0  0
  9 33  1  0  0  0  0
 10 11  1  0  0  0  0
 10 34  1  0  0  0  0
 11 12  1  0  0  0  0
 11 35  1  0  0  0  0
 11 36  1  0  0  0  0
 12 13  2  0  0  0  0
 12 14  1  0  0  0  0
 14 20  1  0  0  0  0
 14 15  1  0  0  0  0
 15 16  1  0  0  0  0
 15 37  1  0  0  0  0
 15 38  1  0  0  0  0
 16 17  1  0  0  0  0
 16 39  1  0  0  0  0
 16 40  1  0  0  0  0
 17 18  1  0  0  0  0
 18 19  1  0  0  0  0
 18 20  1  0  0  0  0
 18 41  1  0  0  0  0
 19 42  1  0  0  0  0
 19 43  1  0  0  0  0
 19 44  1  0  0  0  0
 20 45  1  0  0  0  0
 20 46  1  0  0  0  0
 21 47  1  0  0  0  0
M  END
> <s_m_source_file>
AV-unprocessed.smi

> <i_m_source_file_index>
3056

> <i_lp_mmshare_version>
43012

> <i_f3d_flags>
0

> <s_epik_input>
W0NIM11jMVtjSF1ubihbY0hdMSlbQ0BIXShbQ0gzXSlbQ0BIXShbQ0gzXSlbTkhdW0NIMl1DKD1PKU4yW0NIMl1bQ0gyXU9bQ0BASF0oW0NIM10pW0NIMl0y

> <s_epik_cmdline>
J2VwaWtfcHl0aG9uJywgJy1waCcsICc3LjAnLCAnLXRuJywgJzgnLCAnLW1hJywgJzIwMCcsICctbWV0YWxfYmluZGluZycsICctaW1hZScsICc8aW5maWxlLm1hZT4nLCAnLW9tYWUnLCAnPG91dGZpbGUubWFlPic=

> <r_lp_tautomer_probability>
1

> <r_epik_Ionization_Penalty>
0.667689

> <r_epik_Ionization_Penalty_Charging>
0

> <r_epik_Ionization_Penalty_Neutral>
0.667689

> <r_epik_State_Penalty>
0.684601

> <r_epik_Charging_Adjusted_Penalty>
0.684601

> <i_epik_Tot_Q>
0

> <i_epik_Tot_abs_Q>
0

> <r_epik_Metal_State_Penalty>
0.681448

> <b_epik_Metal_Only>
0

> <s_lp_Force_Field>
OPLS_2005

> <r_lp_Energy>
30.7947

> <b_lp_Chiralities_Consistent>
1

> <s_lp_Variant>
AV-unprocessed.smi:3056-12

> <Gold.Version>
5.8.1

> <Gold.Id.Protein>
6NUR|6NUR_protein|mol2

> <Gold.PLP.Fitness>
44.7465

> <Gold.PLP.PLP>
-39.3657

> <Gold.PLP.part.hbond>
0.0000

> <Gold.PLP.part.metal>
0.0000

> <Gold.PLP.part.buried>
-5.7345

> <Gold.PLP.part.nonpolar>
-33.6184

> <Gold.PLP.part.repulsive>
0.3150

> <Gold.PLP.ligand.clash>
0.0000

> <Gold.PLP.ligand.torsion>
0.4038

> <Gold.PLP.Chemscore.Hbond>
0.0000

> <Gold.PLP.Chemscore.CHOScore>
2.0000

> <Gold.PLP.Chemscore.Metal>
0.0000

> <Gold.Chemscore.Hbonds>
donor molecule, donor type, donor heavy atom, donor atom, acceptor molecule, acceptor atom, score
      L1  C     3    25       P1 10171  1.00
      L1  C    21    47       P1 10957  0.72

> <Gold.PLP.Chemscore.Internal.Correction>
0.1884

> <Gold.Rescore>
     Score         DG    S(hbond)    S(metal)    S(lipo)     H(rot)  DE(clash)    DE(int)     intcor
     11.52     -12.16       0.00        0.00      93.86       1.68       0.07       0.57       ----

> <Gold.Chemscore.Fitness>
11.5179

> <Gold.Chemscore.DG>
-12.1626

> <Gold.Chemscore.ZeroCoef>
-5.4800

> <Gold.Chemscore.Hbond>
0.0000

> <Gold.Chemscore.Metal>
0.0000

> <Gold.Chemscore.Lipo>
93.8602

> <Gold.Chemscore.Internal_Hbond>
0.0000

> <Gold.Chemscore.DEClash>
0.0709

> <Gold.Chemscore.DEInternal>
0.5739

> <Gold.Chemscore.Rot>
1.6793

> <Gold.Chemscore.Internal.Correction>
   9.000000E+99

> <Gold.Chemscore.Hbond.Weighted>
-0.0000

> <Gold.Chemscore.Metal.Weighted>
-0.0000

> <Gold.Chemscore.Lipo.Weighted>
-10.9816

> <Gold.Chemscore.Internal_Hbond.Weighted>
0.0000

> <Gold.Chemscore.DEClash.Weighted>
0.0709

> <Gold.Chemscore.DEInternal.Weighted>
0.5739

> <Gold.Chemscore.Rot.Weighted>
4.2990

> <Gold.Chemscore.Internal.Correction.Weighted>
   9.000000E+99

> <Gold.Protein.RotatedTorsions>
[ 6907 6896 6895 6894 ] final -139.08 input  -60.11 | X-H torsion
[ 7974 7965 7964 7962 ] final -160.13 input  175.53 | X-H torsion
[ 8008 7997 7996 7995 ] final  -87.25 input   59.86 | X-H torsion
[ 10167 10162 10161 10158 ] final  138.52 input  -65.29 | X-H torsion
[ 10718 10713 10712 10709 ] final  172.74 input   66.30 | X-H torsion
[ 10763 10752 10751 10750 ] final  -65.49 input  -60.55 | X-H torsion
[ 11005 11000 10999 10996 ] final  147.79 input  -57.11 | X-H torsion

> <Gold.Protein.ActiveResidues>
 VAL166  LYS551  ARG553  GLY616  TRP617  ASP618  TYR619  PRO620  LYS621  CYS622 
 ASP623  PHE694  ASN695  SER759  ASP760  ASP761  ALA762  ILE779  LEU786  VAL792 
 PHE793  MET794  SER795  GLU796  ALA797  LYS798  CYS799  TRP800  GLU811  SER814 

> <Gold.Protein.RotatedAtoms>
  151.0432  133.5688  159.2648 H   0  0  0  0  0  0  0  0  0  0  0  0  # atno 6907 bound_to 6896
  151.2726  135.0688  159.9149 H   0  0  0  0  0  0  0  0  0  0  0  0  # atno 6908 bound_to 6896
  152.5368  134.0160  159.8014 H   0  0  0  0  0  0  0  0  0  0  0  0  # atno 6909 bound_to 6896
  144.7439  140.3586  143.6101 H   0  0  0  0  0  0  0  0  0  0  0  0  # atno 7974 bound_to 7965
  154.6611  140.0568  157.0063 H   0  0  0  0  0  0  0  0  0  0  0  0  # atno 8008 bound_to 7997
  155.1228  140.3249  155.4474 H   0  0  0  0  0  0  0  0  0  0  0  0  # atno 8009 bound_to 7997
  156.2618  140.1994  156.6349 H   0  0  0  0  0  0  0  0  0  0  0  0  # atno 8010 bound_to 7997
  139.5108  144.6348  151.5723 H   0  0  0  0  0  0  0  0  0  0  0  0  # atno 10167 bound_to 10162
  156.9746  131.0100  151.2897 H   0  0  0  0  0  0  0  0  0  0  0  0  # atno 10718 bound_to 10713
  154.3458  135.6147  153.5618 H   0  0  0  0  0  0  0  0  0  0  0  0  # atno 10763 bound_to 10752
  152.9801  135.5780  154.4800 H   0  0  0  0  0  0  0  0  0  0  0  0  # atno 10764 bound_to 10752
  154.4512  135.2853  155.1757 H   0  0  0  0  0  0  0  0  0  0  0  0  # atno 10765 bound_to 10752
  140.0905  134.9044  157.1643 H   0  0  0  0  0  0  0  0  0  0  0  0  # atno 11005 bound_to 11000
  145.7201  139.1707  143.2489 LP  0  0  0  0  0  0  0  0  0  0  0  0  # atno 17320 bound_to 7965
  146.1283  140.7219  142.9424 LP  0  0  0  0  0  0  0  0  0  0  0  0  # atno 17321 bound_to 7965
  140.6094  143.9464  150.6442 LP  0  0  0  0  0  0  0  0  0  0  0  0  # atno 17342 bound_to 10162
  140.2702  143.3461  152.1245 LP  0  0  0  0  0  0  0  0  0  0  0  0  # atno 17343 bound_to 10162
  157.5569  130.8219  149.8215 LP  0  0  0  0  0  0  0  0  0  0  0  0  # atno 17370 bound_to 10713
  156.0269  130.3777  150.1798 LP  0  0  0  0  0  0  0  0  0  0  0  0  # atno 17371 bound_to 10713
  140.3359  134.2758  155.7220 LP  0  0  0  0  0  0  0  0  0  0  0  0  # atno 17394 bound_to 11000
  141.2076  133.7800  157.0108 LP  0  0  0  0  0  0  0  0  0  0  0  0  # atno 17395 bound_to 11000

$$$$
