AV-unprocessed.smi:2563|AV-procd|sdf|10061|dock7
  -GOLD-   2272014103D 1   1.00000     0.00000
 Structure written by MMmdl.
 34 35  0  0  0  0  0  0  0  0  1 V2000
  153.1669  137.7180  160.0580 C   0  0  0  0  0  0  0  0  0  0  0  0
  153.4860  138.4325  158.7380 C   0  0  0  0  0  0  0  0  0  0  0  0
  152.3806  139.2775  158.2831 N   0  0  0  0  0  0  0  0  0  0  0  0
  151.9185  140.3520  159.1611 C   0  0  0  0  0  0  0  0  0  0  0  0
  152.1974  141.7500  158.5804 C   0  0  1  0  0  0  0  0  0  0  0  0
  150.9919  142.2744  157.7738 C   0  0  0  0  0  0  0  0  0  0  0  0
  151.2513  143.6276  157.2843 N   0  0  0  0  0  0  0  0  0  0  0  0
  151.6046  144.5298  158.3785 C   0  0  0  0  0  0  0  0  0  0  0  0
  152.7831  143.9551  159.1823 C   0  0  0  0  0  0  0  0  0  0  0  0
  152.4421  142.6563  159.6531 O   0  0  0  0  0  0  0  0  0  0  0  0
  151.8381  139.1079  156.9850 C   0  0  0  0  0  0  0  0  0  0  0  0
  150.8806  138.1048  156.6937 C   0  0  0  0  0  0  0  0  0  0  0  0
  150.3969  138.0092  155.3779 C   0  0  0  0  0  0  0  0  0  0  0  0
  150.8996  138.9218  154.4360 C   0  0  0  0  0  0  0  0  0  0  0  0
  151.8129  139.8628  154.7558 N   0  0  0  0  0  0  0  0  0  0  0  0
  152.2707  139.9493  156.0090 N   0  0  0  0  0  0  0  0  0  0  0  0
  154.0046  137.0945  160.3702 H   0  0  0  0  0  0  0  0  0  0  0  0
  152.2929  137.0737  159.9602 H   0  0  0  0  0  0  0  0  0  0  0  0
  152.9695  138.4312  160.8586 H   0  0  0  0  0  0  0  0  0  0  0  0
  154.4060  139.0102  158.8302 H   0  0  0  0  0  0  0  0  0  0  0  0
  153.6911  137.6841  157.9723 H   0  0  0  0  0  0  0  0  0  0  0  0
  150.8402  140.2352  159.2733 H   0  0  0  0  0  0  0  0  0  0  0  0
  152.3152  140.2563  160.1709 H   0  0  0  0  0  0  0  0  0  0  0  0
  153.0738  141.7031  157.9310 H   0  0  0  0  0  0  0  0  0  0  0  0
  150.7855  141.6105  156.9340 H   0  0  0  0  0  0  0  0  0  0  0  0
  150.0994  142.2727  158.4007 H   0  0  0  0  0  0  0  0  0  0  0  0
  150.4289  143.9799  156.8050 H   0  0  0  0  0  0  0  0  0  0  0  0
  151.8618  145.5136  157.9856 H   0  0  0  0  0  0  0  0  0  0  0  0
  150.7462  144.6687  159.0370 H   0  0  0  0  0  0  0  0  0  0  0  0
  153.6897  143.9132  158.5763 H   0  0  0  0  0  0  0  0  0  0  0  0
  153.0015  144.5945  160.0377 H   0  0  0  0  0  0  0  0  0  0  0  0
  150.5172  137.4101  157.4344 H   0  0  0  0  0  0  0  0  0  0  0  0
  149.6683  137.2619  155.1006 H   0  0  0  0  0  0  0  0  0  0  0  0
  150.5664  138.8971  153.4091 H   0  0  0  0  0  0  0  0  0  0  0  0
  1  2  1  0  0  0  0
  1 17  1  0  0  0  0
  1 18  1  0  0  0  0
  1 19  1  0  0  0  0
  2  3  1  0  0  0  0
  2 20  1  0  0  0  0
  2 21  1  0  0  0  0
  3  4  1  0  0  0  0
  3 11  1  0  0  0  0
  4  5  1  0  0  0  0
  4 22  1  0  0  0  0
  4 23  1  0  0  0  0
  5 10  1  0  0  0  0
  5  6  1  0  0  0  0
  5 24  1  0  0  0  0
  6  7  1  0  0  0  0
  6 25  1  0  0  0  0
  6 26  1  0  0  0  0
  7  8  1  0  0  0  0
  7 27  1  0  0  0  0
  8  9  1  0  0  0  0
  8 28  1  0  0  0  0
  8 29  1  0  0  0  0
  9 10  1  0  0  0  0
  9 30  1  0  0  0  0
  9 31  1  0  0  0  0
 11 16  1  0  0  0  0
 11 12  2  0  0  0  0
 12 13  1  0  0  0  0
 12 32  1  0  0  0  0
 13 14  2  0  0  0  0
 13 33  1  0  0  0  0
 14 15  1  0  0  0  0
 14 34  1  0  0  0  0
 15 16  2  0  0  0  0
M  END
> <s_m_source_file>
AV-unprocessed.smi

> <i_m_source_file_index>
2563

> <i_lp_mmshare_version>
43012

> <i_f3d_flags>
0

> <s_epik_input>
bjFuW2NIXVtjSF1bY0hdYzFOKFtDSDJdW0NIM10pW0NIMl1bQ0BASF0yW0NIMl1bTkhdW0NIMl1bQ0gyXU8y

> <s_epik_cmdline>
J2VwaWtfcHl0aG9uJywgJy1waCcsICc3LjAnLCAnLXRuJywgJzgnLCAnLW1hJywgJzIwMCcsICctbWV0YWxfYmluZGluZycsICctaW1hZScsICc8aW5maWxlLm1hZT4nLCAnLW9tYWUnLCAnPG91dGZpbGUubWFlPic=

> <r_lp_tautomer_probability>
1

> <r_epik_Ionization_Penalty>
2.34719

> <r_epik_Ionization_Penalty_Charging>
0

> <r_epik_Ionization_Penalty_Neutral>
2.34719

> <r_epik_State_Penalty>
2.60452

> <r_epik_Charging_Adjusted_Penalty>
2.60452

> <i_epik_Tot_Q>
0

> <i_epik_Tot_abs_Q>
0

> <r_epik_Metal_State_Penalty>
2.56937

> <b_epik_Metal_Only>
0

> <s_lp_Force_Field>
OPLS_2005

> <r_lp_Energy>
25.3459

> <b_lp_Chiralities_Consistent>
1

> <s_lp_Variant>
AV-unprocessed.smi:2563-6

> <Gold.Version>
5.8.1

> <Gold.Id.Protein>
6NUR|6NUR_protein|mol2

> <Gold.PLP.Fitness>
36.3196

> <Gold.PLP.PLP>
-29.6503

> <Gold.PLP.part.hbond>
-2.9658

> <Gold.PLP.part.metal>
0.0000

> <Gold.PLP.part.buried>
-4.5833

> <Gold.PLP.part.nonpolar>
-21.2173

> <Gold.PLP.part.repulsive>
0.0652

> <Gold.PLP.ligand.clash>
0.0000

> <Gold.PLP.ligand.torsion>
1.9109

> <Gold.PLP.Chemscore.Hbond>
2.9440

> <Gold.PLP.Chemscore.CHOScore>
0.5451

> <Gold.PLP.Chemscore.Metal>
0.0000

> <Gold.Chemscore.Hbonds>
donor molecule, donor type, donor heavy atom, donor atom, acceptor molecule, acceptor atom, score
      L1  H     7    27       P1  8028  0.98
      P1  H  7989  7998       L1    15  0.99
      P1  H  7997  8009       L1    16  0.86
      L1  C    14    34       P1  7957  0.62

> <Gold.PLP.Chemscore.Internal.Correction>
0.0237

> <Gold.Rescore>
     Score         DG    S(hbond)    S(metal)    S(lipo)     H(rot)  DE(clash)    DE(int)     intcor
     17.17     -19.21       2.42        0.00      78.02       1.36       0.04       2.00       ----

> <Gold.Chemscore.Fitness>
17.1733

> <Gold.Chemscore.DG>
-19.2091

> <Gold.Chemscore.ZeroCoef>
-5.4800

> <Gold.Chemscore.Hbond>
2.4212

> <Gold.Chemscore.Metal>
0.0000

> <Gold.Chemscore.Lipo>
78.0208

> <Gold.Chemscore.Internal_Hbond>
0.0000

> <Gold.Chemscore.DEClash>
0.0370

> <Gold.Chemscore.DEInternal>
1.9988

> <Gold.Chemscore.Rot>
1.3618

> <Gold.Chemscore.Internal.Correction>
   9.000000E+99

> <Gold.Chemscore.Hbonds>
donor molecule, donor type, donor heavy atom, donor atom, acceptor molecule, acceptor atom, score
      L1  H     7    27       P1  8028  0.92
      P1  H  7989  7998       L1    15  0.28
      P1  H  7997  8009       L1    16  0.51

> <Gold.Chemscore.Hbond.Weighted>
-8.0868

> <Gold.Chemscore.Metal.Weighted>
-0.0000

> <Gold.Chemscore.Lipo.Weighted>
-9.1284

> <Gold.Chemscore.Internal_Hbond.Weighted>
0.0000

> <Gold.Chemscore.DEClash.Weighted>
0.0370

> <Gold.Chemscore.DEInternal.Weighted>
1.9988

> <Gold.Chemscore.Rot.Weighted>
3.4861

> <Gold.Chemscore.Internal.Correction.Weighted>
   9.000000E+99

> <Gold.Protein.RotatedTorsions>
[ 6907 6896 6895 6894 ] final   86.50 input  -60.11 | X-H torsion
[ 7974 7965 7964 7962 ] final  137.96 input  175.53 | X-H torsion
[ 8008 7997 7996 7995 ] final -155.01 input   59.86 | X-H torsion
[ 10167 10162 10161 10158 ] final   29.69 input  -65.29 | X-H torsion
[ 10718 10713 10712 10709 ] final  -52.94 input   66.30 | X-H torsion
[ 10763 10752 10751 10750 ] final   47.05 input  -60.55 | X-H torsion
[ 11005 11000 10999 10996 ] final  -44.99 input  -57.11 | X-H torsion

> <Gold.Protein.ActiveResidues>
 VAL166  LYS551  ARG553  GLY616  TRP617  ASP618  TYR619  PRO620  LYS621  CYS622 
 ASP623  PHE694  ASN695  SER759  ASP760  ASP761  ALA762  ILE779  LEU786  VAL792 
 PHE793  MET794  SER795  GLU796  ALA797  LYS798  CYS799  TRP800  GLU811  SER814 

> <Gold.Protein.RotatedAtoms>
  152.5395  134.2421  159.8865 H   0  0  0  0  0  0  0  0  0  0  0  0  # atno 6907 bound_to 6896
  151.2388  133.4404  159.2614 H   0  0  0  0  0  0  0  0  0  0  0  0  # atno 6908 bound_to 6896
  151.0646  134.9773  159.8334 H   0  0  0  0  0  0  0  0  0  0  0  0  # atno 6909 bound_to 6896
  144.9418  139.4922  143.5568 H   0  0  0  0  0  0  0  0  0  0  0  0  # atno 7974 bound_to 7965
  155.6953  140.0760  157.2432 H   0  0  0  0  0  0  0  0  0  0  0  0  # atno 8008 bound_to 7997
  154.4082  140.1657  156.2184 H   0  0  0  0  0  0  0  0  0  0  0  0  # atno 8009 bound_to 7997
  155.9416  140.3384  155.6335 H   0  0  0  0  0  0  0  0  0  0  0  0  # atno 8010 bound_to 7997
  140.4744  144.0713  150.6246 H   0  0  0  0  0  0  0  0  0  0  0  0  # atno 10167 bound_to 10162
  156.1578  130.4150  149.9841 H   0  0  0  0  0  0  0  0  0  0  0  0  # atno 10718 bound_to 10713
  152.9804  135.5989  154.3699 H   0  0  0  0  0  0  0  0  0  0  0  0  # atno 10763 bound_to 10752
  154.3373  135.2768  155.2443 H   0  0  0  0  0  0  0  0  0  0  0  0  # atno 10764 bound_to 10752
  154.4540  135.5982  153.6266 H   0  0  0  0  0  0  0  0  0  0  0  0  # atno 10765 bound_to 10752
  141.0486  133.6751  156.2950 H   0  0  0  0  0  0  0  0  0  0  0  0  # atno 11005 bound_to 11000
  146.3288  139.8442  142.8885 LP  0  0  0  0  0  0  0  0  0  0  0  0  # atno 17320 bound_to 7965
  145.2980  141.0186  143.3625 LP  0  0  0  0  0  0  0  0  0  0  0  0  # atno 17321 bound_to 7965
  140.3937  143.2739  152.0030 LP  0  0  0  0  0  0  0  0  0  0  0  0  # atno 17342 bound_to 10162
  139.4823  144.6056  151.7528 LP  0  0  0  0  0  0  0  0  0  0  0  0  # atno 17343 bound_to 10162
  156.7680  130.9175  151.3643 LP  0  0  0  0  0  0  0  0  0  0  0  0  # atno 17370 bound_to 10713
  157.6708  130.9050  150.0037 LP  0  0  0  0  0  0  0  0  0  0  0  0  # atno 17371 bound_to 10713
  140.6098  134.5470  157.5531 LP  0  0  0  0  0  0  0  0  0  0  0  0  # atno 17394 bound_to 11000
  139.9332  134.7924  156.0873 LP  0  0  0  0  0  0  0  0  0  0  0  0  # atno 17395 bound_to 11000

$$$$
