AV-unprocessed.smi:1232|AV-procd|sdf|5170|dock9
  -GOLD-   22720 4243D 1   1.00000     0.00000
 Structure written by MMmdl.
 53 54  0  0  0  0  0  0  0  0  1 V2000
  149.4063  134.4681  155.1058 C   0  0  0  0  0  0  0  0  0  0  0  0
  147.9351  134.8452  154.9710 C   0  0  0  0  0  0  0  0  0  0  0  0
  147.1538  134.5951  155.8870 O   0  0  0  0  0  0  0  0  0  0  0  0
  147.5839  135.4396  153.8164 N   0  0  0  0  0  0  0  0  0  0  0  0
  146.2669  135.9462  153.4046 C   0  0  1  0  0  0  0  0  0  0  0  0
  146.1695  137.4694  153.6081 C   0  0  0  0  0  0  0  0  0  0  0  0
  145.2468  137.9542  154.2637 O   0  0  0  0  0  0  0  0  0  0  0  0
  147.1423  138.2132  153.0577 N   0  0  0  0  0  0  0  0  0  0  0  0
  147.2365  139.6666  153.1496 C   0  0  0  0  0  0  0  0  0  0  0  0
  148.1898  140.1705  154.2246 C   0  0  0  0  0  0  0  0  0  0  0  0
  147.7331  140.8382  155.3802 C   0  0  0  0  0  0  0  0  0  0  0  0
  148.6726  141.2821  156.3300 C   0  0  0  0  0  0  0  0  0  0  0  0
  150.0500  141.0489  156.1022 C   0  0  0  0  0  0  0  0  0  0  0  0
  151.0111  141.4808  157.0428 N   0  0  0  0  0  0  0  0  0  0  0  0
  151.2441  140.6438  158.2184 C   0  0  0  0  0  0  0  0  0  0  0  0
  152.5054  141.1074  158.9652 C   0  0  0  0  0  0  0  0  0  0  0  0
  152.3923  142.4900  159.2847 O   0  0  0  0  0  0  0  0  0  0  0  0
  152.2813  143.3023  158.1193 C   0  0  2  0  0  0  0  0  0  0  0  0
  152.2593  144.7706  158.5573 C   0  0  0  0  0  0  0  0  0  0  0  0
  151.0077  142.9104  157.3446 C   0  0  0  0  0  0  0  0  0  0  0  0
  150.4847  140.4196  154.9824 N   0  0  0  0  0  0  0  0  0  0  0  0
  149.5798  139.9953  154.0754 C   0  0  0  0  0  0  0  0  0  0  0  0
  145.7799  135.4214  152.0173 C   0  0  0  0  0  0  0  0  0  0  0  0
  144.3447  135.8706  151.6783 C   0  0  0  0  0  0  0  0  0  0  0  0
  145.8664  133.8861  151.9137 C   0  0  0  0  0  0  0  0  0  0  0  0
  149.7634  133.9755  154.2007 H   0  0  0  0  0  0  0  0  0  0  0  0
  149.5559  133.7875  155.9445 H   0  0  0  0  0  0  0  0  0  0  0  0
  150.0100  135.3599  155.2763 H   0  0  0  0  0  0  0  0  0  0  0  0
  148.3231  135.5719  153.1419 H   0  0  0  0  0  0  0  0  0  0  0  0
  145.5899  135.5076  154.1398 H   0  0  0  0  0  0  0  0  0  0  0  0
  147.8706  137.7388  152.5435 H   0  0  0  0  0  0  0  0  0  0  0  0
  147.5230  140.0760  152.1793 H   0  0  0  0  0  0  0  0  0  0  0  0
  146.2422  140.0575  153.3664 H   0  0  0  0  0  0  0  0  0  0  0  0
  146.6804  141.0161  155.5416 H   0  0  0  0  0  0  0  0  0  0  0  0
  148.3274  141.8059  157.2086 H   0  0  0  0  0  0  0  0  0  0  0  0
  150.3777  140.7000  158.8792 H   0  0  0  0  0  0  0  0  0  0  0  0
  151.3636  139.6005  157.9233 H   0  0  0  0  0  0  0  0  0  0  0  0
  152.6253  140.5387  159.8872 H   0  0  0  0  0  0  0  0  0  0  0  0
  153.3999  140.9327  158.3649 H   0  0  0  0  0  0  0  0  0  0  0  0
  153.1574  143.1428  157.4880 H   0  0  0  0  0  0  0  0  0  0  0  0
  152.1862  145.4358  157.6967 H   0  0  0  0  0  0  0  0  0  0  0  0
  153.1688  145.0287  159.1003 H   0  0  0  0  0  0  0  0  0  0  0  0
  151.4113  144.9745  159.2115 H   0  0  0  0  0  0  0  0  0  0  0  0
  150.9463  143.5126  156.4394 H   0  0  0  0  0  0  0  0  0  0  0  0
  150.1212  143.1403  157.9375 H   0  0  0  0  0  0  0  0  0  0  0  0
  149.9807  139.4990  153.2039 H   0  0  0  0  0  0  0  0  0  0  0  0
  146.4171  135.8386  151.2381 H   0  0  0  0  0  0  0  0  0  0  0  0
  143.6360  135.5398  152.4379 H   0  0  0  0  0  0  0  0  0  0  0  0
  144.0209  135.4579  150.7225 H   0  0  0  0  0  0  0  0  0  0  0  0
  144.2660  136.9547  151.5950 H   0  0  0  0  0  0  0  0  0  0  0  0
  145.2490  133.4038  152.6718 H   0  0  0  0  0  0  0  0  0  0  0  0
  146.8867  133.5241  152.0365 H   0  0  0  0  0  0  0  0  0  0  0  0
  145.5231  133.5393  150.9389 H   0  0  0  0  0  0  0  0  0  0  0  0
  1  2  1  0  0  0  0
  1 26  1  0  0  0  0
  1 27  1  0  0  0  0
  1 28  1  0  0  0  0
  2  3  2  0  0  0  0
  2  4  1  0  0  0  0
  4  5  1  0  0  0  0
  4 29  1  0  0  0  0
  5  6  1  0  0  0  0
  5 23  1  0  0  0  0
  5 30  1  0  0  0  0
  6  7  2  0  0  0  0
  6  8  1  0  0  0  0
  8  9  1  0  0  0  0
  8 31  1  0  0  0  0
  9 10  1  0  0  0  0
  9 32  1  0  0  0  0
  9 33  1  0  0  0  0
 10 22  1  0  0  0  0
 10 11  2  0  0  0  0
 11 12  1  0  0  0  0
 11 34  1  0  0  0  0
 12 13  2  0  0  0  0
 12 35  1  0  0  0  0
 13 14  1  0  0  0  0
 13 21  1  0  0  0  0
 14 20  1  0  0  0  0
 14 15  1  0  0  0  0
 15 16  1  0  0  0  0
 15 36  1  0  0  0  0
 15 37  1  0  0  0  0
 16 17  1  0  0  0  0
 16 38  1  0  0  0  0
 16 39  1  0  0  0  0
 17 18  1  0  0  0  0
 18 19  1  0  0  0  0
 18 20  1  0  0  0  0
 18 40  1  0  0  0  0
 19 41  1  0  0  0  0
 19 42  1  0  0  0  0
 19 43  1  0  0  0  0
 20 44  1  0  0  0  0
 20 45  1  0  0  0  0
 21 22  2  0  0  0  0
 22 46  1  0  0  0  0
 23 24  1  0  0  0  0
 23 25  1  0  0  0  0
 23 47  1  0  0  0  0
 24 48  1  0  0  0  0
 24 49  1  0  0  0  0
 24 50  1  0  0  0  0
 25 51  1  0  0  0  0
 25 52  1  0  0  0  0
 25 53  1  0  0  0  0
M  END
> <s_m_source_file>
AV-unprocessed.smi

> <i_m_source_file_index>
1232

> <i_lp_mmshare_version>
43012

> <i_f3d_flags>
0

> <s_epik_input>
W0NIM11DKD1PKVtOSF1bQ0BASF0oW0NIXShbQ0gzXSlbQ0gzXSlDKD1PKVtOSF1bQ0gyXWMxW2NIXVtjSF1jKG5bY0hdMSlOMltDSDJdW0NIMl1PW0NAQEhdKFtDSDNdKVtDSDJdMg==

> <s_epik_cmdline>
J2VwaWtfcHl0aG9uJywgJy1waCcsICc3LjAnLCAnLXRuJywgJzgnLCAnLW1hJywgJzIwMCcsICctbWV0YWxfYmluZGluZycsICctaW1hZScsICc8aW5maWxlLm1hZT4nLCAnLW9tYWUnLCAnPG91dGZpbGUubWFlPic=

> <r_lp_tautomer_probability>
1

> <r_epik_Ionization_Penalty>
0.00557618

> <r_epik_Ionization_Penalty_Charging>
0

> <r_epik_Ionization_Penalty_Neutral>
0.00557618

> <r_epik_State_Penalty>
0.00408363

> <r_epik_Charging_Adjusted_Penalty>
0.00408363

> <i_epik_Tot_Q>
0

> <i_epik_Tot_abs_Q>
0

> <r_epik_Metal_State_Penalty>
-0

> <b_epik_Metal_Only>
0

> <s_lp_Force_Field>
OPLS_2005

> <r_lp_Energy>
20.9167

> <b_lp_Chiralities_Consistent>
1

> <s_lp_Variant>
AV-unprocessed.smi:1232-4

> <Gold.Version>
5.8.1

> <Gold.Id.Protein>
6NUR|6NUR_protein|mol2

> <Gold.PLP.Fitness>
45.1237

> <Gold.PLP.PLP>
-35.9122

> <Gold.PLP.part.hbond>
-2.8816

> <Gold.PLP.part.metal>
0.0000

> <Gold.PLP.part.buried>
-2.9077

> <Gold.PLP.part.nonpolar>
-30.5934

> <Gold.PLP.part.repulsive>
0.2616

> <Gold.PLP.ligand.clash>
0.0000

> <Gold.PLP.ligand.torsion>
1.0563

> <Gold.PLP.Chemscore.Hbond>
2.5500

> <Gold.PLP.Chemscore.CHOScore>
1.0000

> <Gold.PLP.Chemscore.Metal>
0.0000

> <Gold.Chemscore.Hbonds>
donor molecule, donor type, donor heavy atom, donor atom, acceptor molecule, acceptor atom, score
      L1  H     4    29       P1  7948  1.00
      L1  H     8    31       P1  7948  1.00
      P1  H  7989  7998       L1    21  0.35
      L1  C    22    46       P1  7957  0.94

> <Gold.PLP.Chemscore.Internal.Correction>
0.6741

> <Gold.Rescore>
     Score         DG    S(hbond)    S(metal)    S(lipo)     H(rot)  DE(clash)    DE(int)     intcor
     16.30     -17.73       1.97        0.00      95.17       2.13       0.45       0.98       ----

> <Gold.Chemscore.Fitness>
16.3023

> <Gold.Chemscore.DG>
-17.7289

> <Gold.Chemscore.ZeroCoef>
-5.4800

> <Gold.Chemscore.Hbond>
1.9675

> <Gold.Chemscore.Metal>
0.0000

> <Gold.Chemscore.Lipo>
95.1694

> <Gold.Chemscore.Internal_Hbond>
0.0000

> <Gold.Chemscore.DEClash>
0.4515

> <Gold.Chemscore.DEInternal>
0.9751

> <Gold.Chemscore.Rot>
2.1317

> <Gold.Chemscore.Internal.Correction>
   9.000000E+99

> <Gold.Chemscore.Hbonds>
donor molecule, donor type, donor heavy atom, donor atom, acceptor molecule, acceptor atom, score
      L1  H     4    29       P1  7948  0.94
      L1  H     8    31       P1  7948  0.98
      P1  H  7989  7998       L1    21  0.01

> <Gold.Chemscore.Hbond.Weighted>
-6.5713

> <Gold.Chemscore.Metal.Weighted>
-0.0000

> <Gold.Chemscore.Lipo.Weighted>
-11.1348

> <Gold.Chemscore.Internal_Hbond.Weighted>
0.0000

> <Gold.Chemscore.DEClash.Weighted>
0.4515

> <Gold.Chemscore.DEInternal.Weighted>
0.9751

> <Gold.Chemscore.Rot.Weighted>
5.4572

> <Gold.Chemscore.Internal.Correction.Weighted>
   9.000000E+99

> <Gold.Protein.RotatedTorsions>
[ 6907 6896 6895 6894 ] final  158.81 input  -60.11 | X-H torsion
[ 7974 7965 7964 7962 ] final  136.80 input  175.53 | X-H torsion
[ 8008 7997 7996 7995 ] final    6.03 input   59.86 | X-H torsion
[ 10167 10162 10161 10158 ] final -136.65 input  -65.29 | X-H torsion
[ 10718 10713 10712 10709 ] final  -16.72 input   66.30 | X-H torsion
[ 10763 10752 10751 10750 ] final  132.16 input  -60.55 | X-H torsion
[ 11005 11000 10999 10996 ] final   83.37 input  -57.11 | X-H torsion

> <Gold.Protein.ActiveResidues>
 VAL166  LYS551  ARG553  GLY616  TRP617  ASP618  TYR619  PRO620  LYS621  CYS622 
 ASP623  PHE694  ASN695  SER759  ASP760  ASP761  ALA762  ILE779  LEU786  VAL792 
 PHE793  MET794  SER795  GLU796  ALA797  LYS798  CYS799  TRP800  GLU811  SER814 

> <Gold.Protein.RotatedAtoms>
  151.9949  133.3804  159.4158 H   0  0  0  0  0  0  0  0  0  0  0  0  # atno 6907 bound_to 6896
  150.6917  134.3896  159.5080 H   0  0  0  0  0  0  0  0  0  0  0  0  # atno 6908 bound_to 6896
  152.1635  134.8892  160.0590 H   0  0  0  0  0  0  0  0  0  0  0  0  # atno 6909 bound_to 6896
  144.9530  139.4797  143.5516 H   0  0  0  0  0  0  0  0  0  0  0  0  # atno 7974 bound_to 7965
  154.7358  140.2739  155.6416 H   0  0  0  0  0  0  0  0  0  0  0  0  # atno 8008 bound_to 7997
  156.2861  140.2707  156.1997 H   0  0  0  0  0  0  0  0  0  0  0  0  # atno 8009 bound_to 7997
  155.0322  140.0371  157.2468 H   0  0  0  0  0  0  0  0  0  0  0  0  # atno 8010 bound_to 7997
  139.8656  143.7022  152.2645 H   0  0  0  0  0  0  0  0  0  0  0  0  # atno 10167 bound_to 10162
  156.5836  130.4780  149.6310 H   0  0  0  0  0  0  0  0  0  0  0  0  # atno 10718 bound_to 10713
  153.7861  135.3161  155.3372 H   0  0  0  0  0  0  0  0  0  0  0  0  # atno 10763 bound_to 10752
  154.8143  135.4646  154.0604 H   0  0  0  0  0  0  0  0  0  0  0  0  # atno 10764 bound_to 10752
  153.1908  135.6908  153.8441 H   0  0  0  0  0  0  0  0  0  0  0  0  # atno 10765 bound_to 10752
  139.9033  134.8139  156.2299 H   0  0  0  0  0  0  0  0  0  0  0  0  # atno 11005 bound_to 11000
  146.3327  139.8628  142.8853 LP  0  0  0  0  0  0  0  0  0  0  0  0  # atno 17320 bound_to 7965
  145.2815  141.0140  143.3715 LP  0  0  0  0  0  0  0  0  0  0  0  0  # atno 17321 bound_to 7965
  139.7332  144.7577  151.0769 LP  0  0  0  0  0  0  0  0  0  0  0  0  # atno 17342 bound_to 10162
  140.7768  143.5062  150.9709 LP  0  0  0  0  0  0  0  0  0  0  0  0  # atno 17343 bound_to 10162
  156.2610  130.6962  151.1731 LP  0  0  0  0  0  0  0  0  0  0  0  0  # atno 17370 bound_to 10713
  157.7321  131.0603  150.5647 LP  0  0  0  0  0  0  0  0  0  0  0  0  # atno 17371 bound_to 10713
  141.0352  133.6967  156.1499 LP  0  0  0  0  0  0  0  0  0  0  0  0  # atno 17394 bound_to 11000
  140.7038  134.4535  157.5585 LP  0  0  0  0  0  0  0  0  0  0  0  0  # atno 17395 bound_to 11000

$$$$
