AV-unprocessed.smi:2962|AV-procd|sdf|11318|dock8
  -GOLD-   2272016223D 1   1.00000     0.00000
 Structure written by MMmdl.
 37 38  0  0  0  0  0  0  0  0  2 V2000
  153.5159  138.0953  160.3323 C   0  0  0  0  0  0  0  0  0  0  0  0
  152.3618  137.8958  159.5358 O   0  0  0  0  0  0  0  0  0  0  0  0
  151.7194  139.1135  159.1941 C   0  0  0  0  0  0  0  0  0  0  0  0
  152.3851  139.7132  157.9479 C   0  0  0  0  0  0  0  0  0  0  0  0
  151.7858  140.9979  157.5611 N   0  0  0  0  0  0  0  0  0  0  0  0
  151.0482  141.3367  156.4678 C   0  0  0  0  0  0  0  0  0  0  0  0
  150.5734  140.2690  155.1494 S   0  0  0  0  0  0  0  0  0  0  0  0
  148.7601  140.2225  155.2227 C   0  0  1  0  0  0  0  0  0  0  0  0
  148.1622  141.4124  154.4561 C   0  0  0  0  0  0  0  0  0  0  0  0
  148.2120  138.8892  154.6984 C   0  0  0  0  0  0  0  0  0  0  0  0
  148.5155  138.5567  153.4406 N   0  0  0  0  0  0  0  0  0  0  0  0
  147.5086  138.1750  155.4099 O   0  0  0  0  0  0  0  0  0  0  0  0
  150.7208  142.6529  156.5787 N   0  3  0  0  0  0  0  0  0  0  0  0
  151.2642  143.1683  157.7569 C   0  0  0  0  0  0  0  0  0  0  0  0
  151.2092  144.4470  158.3029 C   0  0  0  0  0  0  0  0  0  0  0  0
  151.8783  144.6406  159.5294 C   0  0  0  0  0  0  0  0  0  0  0  0
  152.5665  143.5870  160.1655 C   0  0  0  0  0  0  0  0  0  0  0  0
  152.6147  142.2941  159.6038 C   0  0  0  0  0  0  0  0  0  0  0  0
  151.9505  142.1109  158.3916 C   0  0  0  0  0  0  0  0  0  0  0  0
  153.9637  137.1323  160.5769 H   0  0  0  0  0  0  0  0  0  0  0  0
  153.2685  138.5985  161.2680 H   0  0  0  0  0  0  0  0  0  0  0  0
  154.2622  138.6885  159.8019 H   0  0  0  0  0  0  0  0  0  0  0  0
  150.6608  138.9369  158.9979 H   0  0  0  0  0  0  0  0  0  0  0  0
  151.7838  139.8146  160.0275 H   0  0  0  0  0  0  0  0  0  0  0  0
  153.4457  139.8831  158.1361 H   0  0  0  0  0  0  0  0  0  0  0  0
  152.3285  139.0272  157.1022 H   0  0  0  0  0  0  0  0  0  0  0  0
  148.4805  140.3244  156.2725 H   0  0  0  0  0  0  0  0  0  0  0  0
  147.0720  141.3967  154.4867 H   0  0  0  0  0  0  0  0  0  0  0  0
  148.4674  141.4105  153.4088 H   0  0  0  0  0  0  0  0  0  0  0  0
  148.4875  142.3576  154.8917 H   0  0  0  0  0  0  0  0  0  0  0  0
  148.1663  137.6964  153.0445 H   0  0  0  0  0  0  0  0  0  0  0  0
  149.0841  139.1788  152.8841 H   0  0  0  0  0  0  0  0  0  0  0  0
  150.6841  145.2565  157.8174 H   0  0  0  0  0  0  0  0  0  0  0  0
  151.8643  145.6172  159.9912 H   0  0  0  0  0  0  0  0  0  0  0  0
  153.0681  143.7742  161.1039 H   0  0  0  0  0  0  0  0  0  0  0  0
  153.1456  141.4936  160.0977 H   0  0  0  0  0  0  0  0  0  0  0  0
  150.1734  143.1589  155.8946 H   0  0  0  0  0  0  0  0  0  0  0  0
  1  2  1  0  0  0  0
  1 20  1  0  0  0  0
  1 21  1  0  0  0  0
  1 22  1  0  0  0  0
  2  3  1  0  0  0  0
  3  4  1  0  0  0  0
  3 23  1  0  0  0  0
  3 24  1  0  0  0  0
  4  5  1  0  0  0  0
  4 25  1  0  0  0  0
  4 26  1  0  0  0  0
  5 19  1  0  0  0  0
  5  6  1  0  0  0  0
  6  7  1  0  0  0  0
  6 13  2  0  0  0  0
  7  8  1  0  0  0  0
  8  9  1  0  0  0  0
  8 10  1  0  0  0  0
  8 27  1  0  0  0  0
  9 28  1  0  0  0  0
  9 29  1  0  0  0  0
  9 30  1  0  0  0  0
 10 11  1  0  0  0  0
 10 12  2  0  0  0  0
 11 31  1  0  0  0  0
 11 32  1  0  0  0  0
 13 14  1  0  0  0  0
 13 37  1  0  0  0  0
 14 19  2  0  0  0  0
 14 15  1  0  0  0  0
 15 16  2  0  0  0  0
 15 33  1  0  0  0  0
 16 17  1  0  0  0  0
 16 34  1  0  0  0  0
 17 18  2  0  0  0  0
 17 35  1  0  0  0  0
 18 19  1  0  0  0  0
 18 36  1  0  0  0  0
M  CHG  1  13   1
M  END
> <s_m_source_file>
AV-unprocessed.smi

> <i_m_source_file_index>
2962

> <i_lp_mmshare_version>
43012

> <i_f3d_flags>
0

> <s_epik_input>
W2NIXTFbY0hdW2NIXVtjSF1jKGMxMiluKFtDSDJdW0NIMl1PW0NIM10pYyhuMilTW0NASF0oW0NIM10pQyg9TylbTkgyXQ==

> <s_epik_cmdline>
J2VwaWtfcHl0aG9uJywgJy1waCcsICc3LjAnLCAnLXRuJywgJzgnLCAnLW1hJywgJzIwMCcsICctbWV0YWxfYmluZGluZycsICctaW1hZScsICc8aW5maWxlLm1hZT4nLCAnLW9tYWUnLCAnPG91dGZpbGUubWFlPic=

> <r_epik_Ionization_Penalty>
2.01771

> <r_epik_Ionization_Penalty_Charging>
2.01771

> <r_epik_Ionization_Penalty_Neutral>
3.318e-07

> <r_epik_State_Penalty>
2.14773

> <r_epik_Charging_Adjusted_Penalty>
4.16544

> <i_epik_Tot_Q>
1

> <i_epik_Tot_abs_Q>
1

> <r_epik_Metal_State_Penalty>
2.1675

> <b_epik_Metal_Only>
0

> <s_lp_Force_Field>
OPLS_2005

> <r_lp_Energy>
8.26224

> <b_lp_Chiralities_Consistent>
1

> <s_lp_Variant>
AV-unprocessed.smi:2962-4

> <Gold.Version>
5.8.1

> <Gold.Id.Protein>
6NUR|6NUR_protein|mol2

> <Gold.PLP.Fitness>
49.3707

> <Gold.PLP.PLP>
-40.0436

> <Gold.PLP.part.hbond>
-3.0000

> <Gold.PLP.part.metal>
0.0000

> <Gold.PLP.part.buried>
-3.7886

> <Gold.PLP.part.nonpolar>
-33.6591

> <Gold.PLP.part.repulsive>
0.1943

> <Gold.PLP.ligand.clash>
0.0000

> <Gold.PLP.ligand.torsion>
0.5490

> <Gold.PLP.Chemscore.Hbond>
3.4560

> <Gold.PLP.Chemscore.CHOScore>
0.0000

> <Gold.PLP.Chemscore.Metal>
0.0000

> <Gold.Chemscore.Hbonds>
donor molecule, donor type, donor heavy atom, donor atom, acceptor molecule, acceptor atom, score
      L1  H    11    31       P1  7948  0.69
      L1  H    11    32       P1  7957  1.00
      L1  H    13    37       P1  8028  1.71

> <Gold.PLP.Chemscore.Internal.Correction>
0.0570

> <Gold.Rescore>
     Score         DG    S(hbond)    S(metal)    S(lipo)     H(rot)  DE(clash)    DE(int)     intcor
     18.32     -19.68       2.75        0.00      99.14       2.57       0.85       0.50       ----

> <Gold.Chemscore.Fitness>
18.3226

> <Gold.Chemscore.DG>
-19.6753

> <Gold.Chemscore.ZeroCoef>
-5.4800

> <Gold.Chemscore.Hbond>
2.7488

> <Gold.Chemscore.Metal>
0.0000

> <Gold.Chemscore.Lipo>
99.1387

> <Gold.Chemscore.Internal_Hbond>
0.0000

> <Gold.Chemscore.DEClash>
0.8508

> <Gold.Chemscore.DEInternal>
0.5020

> <Gold.Chemscore.Rot>
2.5723

> <Gold.Chemscore.Internal.Correction>
   9.000000E+99

> <Gold.Chemscore.Hbonds>
donor molecule, donor type, donor heavy atom, donor atom, acceptor molecule, acceptor atom, score
      L1  H    11    31       P1  7948  0.64
      L1  H    11    32       P1  7957  0.93
      L1  H    13    37       P1  8028  0.80

> <Gold.Chemscore.Hbond.Weighted>
-9.1811

> <Gold.Chemscore.Metal.Weighted>
-0.0000

> <Gold.Chemscore.Lipo.Weighted>
-11.5992

> <Gold.Chemscore.Internal_Hbond.Weighted>
0.0000

> <Gold.Chemscore.DEClash.Weighted>
0.8508

> <Gold.Chemscore.DEInternal.Weighted>
0.5020

> <Gold.Chemscore.Rot.Weighted>
6.5850

> <Gold.Chemscore.Internal.Correction.Weighted>
   9.000000E+99

> <Gold.Protein.RotatedTorsions>
[ 6907 6896 6895 6894 ] final   82.93 input  -60.11 | X-H torsion
[ 7974 7965 7964 7962 ] final  -99.48 input  175.53 | X-H torsion
[ 8008 7997 7996 7995 ] final  124.90 input   59.86 | X-H torsion
[ 10167 10162 10161 10158 ] final   51.82 input  -65.29 | X-H torsion
[ 10718 10713 10712 10709 ] final  147.21 input   66.30 | X-H torsion
[ 10763 10752 10751 10750 ] final   43.83 input  -60.55 | X-H torsion
[ 11005 11000 10999 10996 ] final -105.98 input  -57.11 | X-H torsion

> <Gold.Protein.ActiveResidues>
 VAL166  LYS551  ARG553  GLY616  TRP617  ASP618  TYR619  PRO620  LYS621  CYS622 
 ASP623  PHE694  ASN695  SER759  ASP760  ASP761  ALA762  ILE779  LEU786  VAL792 
 PHE793  MET794  SER795  GLU796  ALA797  LYS798  CYS799  TRP800  GLU811  SER814 

> <Gold.Protein.RotatedAtoms>
  152.5313  134.2973  159.9065 H   0  0  0  0  0  0  0  0  0  0  0  0  # atno 6907 bound_to 6896
  151.2924  133.4153  159.2641 H   0  0  0  0  0  0  0  0  0  0  0  0  # atno 6908 bound_to 6896
  151.0189  134.9470  159.8105 H   0  0  0  0  0  0  0  0  0  0  0  0  # atno 6909 bound_to 6896
  145.3070  140.9391  143.2791 H   0  0  0  0  0  0  0  0  0  0  0  0  # atno 7974 bound_to 7965
  156.2817  140.2729  156.1862 H   0  0  0  0  0  0  0  0  0  0  0  0  # atno 8008 bound_to 7997
  155.0505  140.0386  157.2560 H   0  0  0  0  0  0  0  0  0  0  0  0  # atno 8009 bound_to 7997
  154.7199  140.2685  155.6556 H   0  0  0  0  0  0  0  0  0  0  0  0  # atno 8010 bound_to 7997
  140.2579  144.3406  150.6327 H   0  0  0  0  0  0  0  0  0  0  0  0  # atno 10167 bound_to 10162
  157.3237  131.0908  151.1219 H   0  0  0  0  0  0  0  0  0  0  0  0  # atno 10718 bound_to 10713
  152.9853  135.6089  154.3175 H   0  0  0  0  0  0  0  0  0  0  0  0  # atno 10763 bound_to 10752
  154.2887  135.2775  155.2666 H   0  0  0  0  0  0  0  0  0  0  0  0  # atno 10764 bound_to 10752
  154.4972  135.5876  153.6560 H   0  0  0  0  0  0  0  0  0  0  0  0  # atno 10765 bound_to 10752
  141.1027  133.8854  157.1800 H   0  0  0  0  0  0  0  0  0  0  0  0  # atno 11005 bound_to 11000
  144.9047  139.4604  143.6616 LP  0  0  0  0  0  0  0  0  0  0  0  0  # atno 17320 bound_to 7965
  146.3132  139.7821  142.9004 LP  0  0  0  0  0  0  0  0  0  0  0  0  # atno 17321 bound_to 7965
  140.5989  143.2167  151.7110 LP  0  0  0  0  0  0  0  0  0  0  0  0  # atno 17342 bound_to 10162
  139.5026  144.3823  152.0363 LP  0  0  0  0  0  0  0  0  0  0  0  0  # atno 17343 bound_to 10162
  157.2494  130.6607  149.5925 LP  0  0  0  0  0  0  0  0  0  0  0  0  # atno 17370 bound_to 10713
  155.9688  130.4543  150.5845 LP  0  0  0  0  0  0  0  0  0  0  0  0  # atno 17371 bound_to 10713
  139.9885  135.0073  156.9919 LP  0  0  0  0  0  0  0  0  0  0  0  0  # atno 17394 bound_to 11000
  140.4981  134.1125  155.7245 LP  0  0  0  0  0  0  0  0  0  0  0  0  # atno 17395 bound_to 11000

$$$$
