AV-unprocessed.smi:3170|AV-procd|sdf|12109|dock5
  -GOLD-   2272017543D 1   1.00000     0.00000
 Structure written by MMmdl.
 35 36  0  0  0  0  0  0  0  0  1 V2000
  145.1681  137.4831  153.4795 O   0  0  0  0  0  0  0  0  0  0  0  0
  146.2152  136.9414  153.1250 C   0  0  0  0  0  0  0  0  0  0  0  0
  146.2737  135.8734  152.3182 N   0  0  0  0  0  0  0  0  0  0  0  0
  145.1255  135.2352  151.6812 C   0  0  0  0  0  0  0  0  0  0  0  0
  145.2669  133.7016  151.6017 C   0  0  0  0  0  0  0  0  0  0  0  0
  144.8973  133.1791  150.2992 N   0  0  0  0  0  0  0  0  0  0  0  0
  143.7419  133.4542  149.5805 C   0  0  0  0  0  0  0  0  0  0  0  0
  143.8236  132.7281  148.4136 C   0  0  0  0  0  0  0  0  0  0  0  0
  145.0137  132.0044  148.3931 N   0  0  0  0  0  0  0  0  0  0  0  0
  145.5981  132.3249  149.5402 C   0  0  0  0  0  0  0  0  0  0  0  0
  147.4371  137.3689  153.4696 N   0  0  0  0  0  0  0  0  0  0  0  0
  147.7122  138.5720  154.2471 C   0  0  0  0  0  0  0  0  0  0  0  0
  149.1961  138.9803  154.1637 C   0  0  2  0  0  0  0  0  0  0  0  0
  150.1451  138.1004  154.9542 C   0  0  0  0  0  0  0  0  0  0  0  0
  151.3749  138.9950  155.0677 C   0  0  0  0  0  0  0  0  0  0  0  0
  150.8777  140.3294  155.1208 O   0  0  0  0  0  0  0  0  0  0  0  0
  149.4990  140.3543  154.7606 C   0  0  0  0  0  0  0  0  0  0  0  0
  147.1839  135.5037  152.0854 H   0  0  0  0  0  0  0  0  0  0  0  0
  144.2340  135.4956  152.2522 H   0  0  0  0  0  0  0  0  0  0  0  0
  144.9848  135.6510  150.6825 H   0  0  0  0  0  0  0  0  0  0  0  0
  146.2980  133.4124  151.8065 H   0  0  0  0  0  0  0  0  0  0  0  0
  144.6542  133.2152  152.3618 H   0  0  0  0  0  0  0  0  0  0  0  0
  142.9777  134.1220  149.9498 H   0  0  0  0  0  0  0  0  0  0  0  0
  143.1224  132.6699  147.5941 H   0  0  0  0  0  0  0  0  0  0  0  0
  146.5543  131.9216  149.8402 H   0  0  0  0  0  0  0  0  0  0  0  0
  148.2360  136.8542  153.1290 H   0  0  0  0  0  0  0  0  0  0  0  0
  147.0746  139.3897  153.9069 H   0  0  0  0  0  0  0  0  0  0  0  0
  147.4339  138.3747  155.2827 H   0  0  0  0  0  0  0  0  0  0  0  0
  149.5168  138.9838  153.1205 H   0  0  0  0  0  0  0  0  0  0  0  0
  149.7387  137.8942  155.9456 H   0  0  0  0  0  0  0  0  0  0  0  0
  150.3582  137.1484  154.4667 H   0  0  0  0  0  0  0  0  0  0  0  0
  151.9842  138.7595  155.9405 H   0  0  0  0  0  0  0  0  0  0  0  0
  152.0008  138.8933  154.1801 H   0  0  0  0  0  0  0  0  0  0  0  0
  149.2848  141.1661  154.0650 H   0  0  0  0  0  0  0  0  0  0  0  0
  148.9130  140.5220  155.6654 H   0  0  0  0  0  0  0  0  0  0  0  0
  1  2  2  0  0  0  0
  2  3  1  0  0  0  0
  2 11  1  0  0  0  0
  3  4  1  0  0  0  0
  3 18  1  0  0  0  0
  4  5  1  0  0  0  0
  4 19  1  0  0  0  0
  4 20  1  0  0  0  0
  5  6  1  0  0  0  0
  5 21  1  0  0  0  0
  5 22  1  0  0  0  0
  6 10  1  0  0  0  0
  6  7  1  0  0  0  0
  7  8  2  0  0  0  0
  7 23  1  0  0  0  0
  8  9  1  0  0  0  0
  8 24  1  0  0  0  0
  9 10  2  0  0  0  0
 10 25  1  0  0  0  0
 11 12  1  0  0  0  0
 11 26  1  0  0  0  0
 12 13  1  0  0  0  0
 12 27  1  0  0  0  0
 12 28  1  0  0  0  0
 13 17  1  0  0  0  0
 13 14  1  0  0  0  0
 13 29  1  0  0  0  0
 14 15  1  0  0  0  0
 14 30  1  0  0  0  0
 14 31  1  0  0  0  0
 15 16  1  0  0  0  0
 15 32  1  0  0  0  0
 15 33  1  0  0  0  0
 16 17  1  0  0  0  0
 17 34  1  0  0  0  0
 17 35  1  0  0  0  0
M  END
> <s_m_source_file>
AV-unprocessed.smi

> <i_m_source_file_index>
3170

> <i_lp_mmshare_version>
43012

> <i_f3d_flags>
0

> <s_epik_input>
W0NIMl0xT1tDSDJdW0NIMl1bQ0BIXTFbQ0gyXVtOSF1DKD1PKVtOSF1bQ0gyXVtDSDJdbjJbY0hdW2NIXW5bY0hdMg==

> <s_epik_cmdline>
J2VwaWtfcHl0aG9uJywgJy1waCcsICc3LjAnLCAnLXRuJywgJzgnLCAnLW1hJywgJzIwMCcsICctbWV0YWxfYmluZGluZycsICctaW1hZScsICc8aW5maWxlLm1hZT4nLCAnLW9tYWUnLCAnPG91dGZpbGUubWFlPic=

> <r_lp_tautomer_probability>
1

> <r_epik_Ionization_Penalty>
0.621287

> <r_epik_Ionization_Penalty_Charging>
0.621234

> <r_epik_Ionization_Penalty_Neutral>
5.30999e-05

> <r_epik_State_Penalty>
0.637278

> <r_epik_Charging_Adjusted_Penalty>
1.25851

> <i_epik_Tot_Q>
0

> <i_epik_Tot_abs_Q>
0

> <r_epik_Metal_State_Penalty>
0.306756

> <b_epik_Metal_Only>
0

> <s_lp_Force_Field>
OPLS_2005

> <r_lp_Energy>
17.5777

> <b_lp_Chiralities_Consistent>
1

> <s_lp_Variant>
AV-unprocessed.smi:3170-3

> <Gold.Version>
5.8.1

> <Gold.Id.Protein>
6NUR|6NUR_protein|mol2

> <Gold.PLP.Fitness>
45.0388

> <Gold.PLP.PLP>
-31.0731

> <Gold.PLP.part.hbond>
-4.7373

> <Gold.PLP.part.metal>
0.0000

> <Gold.PLP.part.buried>
0.0255

> <Gold.PLP.part.nonpolar>
-25.8296

> <Gold.PLP.part.repulsive>
0.6483

> <Gold.PLP.ligand.clash>
0.0000

> <Gold.PLP.ligand.torsion>
0.7493

> <Gold.PLP.Chemscore.Hbond>
2.4460

> <Gold.PLP.Chemscore.CHOScore>
2.6937

> <Gold.PLP.Chemscore.Metal>
0.0000

> <Gold.Chemscore.Hbonds>
donor molecule, donor type, donor heavy atom, donor atom, acceptor molecule, acceptor atom, score
      L1  H     3    18       P1  7948  0.74
      L1  H    11    26       P1  7948  0.93
      P1  H  7989  7998       L1    16  0.80
      L1  C     7    23       P1 10186  1.00
      L1  C     8    24       P1 10195  1.00
      L1  C    10    25       P1 10747  0.66

> <Gold.PLP.Chemscore.Internal.Correction>
0.0450

> <Gold.Rescore>
     Score         DG    S(hbond)    S(metal)    S(lipo)     H(rot)  DE(clash)    DE(int)     intcor
     12.38     -13.22       1.87        0.00      62.00       2.25       0.14       0.70       ----

> <Gold.Chemscore.Fitness>
12.3802

> <Gold.Chemscore.DG>
-13.2177

> <Gold.Chemscore.ZeroCoef>
-5.4800

> <Gold.Chemscore.Hbond>
1.8674

> <Gold.Chemscore.Metal>
0.0000

> <Gold.Chemscore.Lipo>
61.9970

> <Gold.Chemscore.Internal_Hbond>
0.0000

> <Gold.Chemscore.DEClash>
0.1351

> <Gold.Chemscore.DEInternal>
0.7024

> <Gold.Chemscore.Rot>
2.2474

> <Gold.Chemscore.Internal.Correction>
   9.000000E+99

> <Gold.Chemscore.Hbonds>
donor molecule, donor type, donor heavy atom, donor atom, acceptor molecule, acceptor atom, score
      L1  H     3    18       P1  7948  0.74
      L1  H    11    26       P1  7948  0.88
      P1  H  7989  7998       L1    16  0.03

> <Gold.Chemscore.Hbond.Weighted>
-6.2373

> <Gold.Chemscore.Metal.Weighted>
-0.0000

> <Gold.Chemscore.Lipo.Weighted>
-7.2536

> <Gold.Chemscore.Internal_Hbond.Weighted>
0.0000

> <Gold.Chemscore.DEClash.Weighted>
0.1351

> <Gold.Chemscore.DEInternal.Weighted>
0.7024

> <Gold.Chemscore.Rot.Weighted>
5.7532

> <Gold.Chemscore.Internal.Correction.Weighted>
   9.000000E+99

> <Gold.Protein.RotatedTorsions>
[ 6907 6896 6895 6894 ] final  175.20 input  -60.11 | X-H torsion
[ 7974 7965 7964 7962 ] final   53.71 input  175.53 | X-H torsion
[ 8008 7997 7996 7995 ] final  -53.74 input   59.86 | X-H torsion
[ 10167 10162 10161 10158 ] final   58.58 input  -65.29 | X-H torsion
[ 10718 10713 10712 10709 ] final  -67.51 input   66.30 | X-H torsion
[ 10763 10752 10751 10750 ] final -127.02 input  -60.55 | X-H torsion
[ 11005 11000 10999 10996 ] final -119.28 input  -57.11 | X-H torsion

> <Gold.Protein.ActiveResidues>
 VAL166  LYS551  ARG553  GLY616  TRP617  ASP618  TYR619  PRO620  LYS621  CYS622 
 ASP623  PHE694  ASN695  SER759  ASP760  ASP761  ALA762  ILE779  LEU786  VAL792 
 PHE793  MET794  SER795  GLU796  ALA797  LYS798  CYS799  TRP800  GLU811  SER814 

> <Gold.Protein.RotatedAtoms>
  151.7400  133.3321  159.3362 H   0  0  0  0  0  0  0  0  0  0  0  0  # atno 6907 bound_to 6896
  150.7577  134.6287  159.6184 H   0  0  0  0  0  0  0  0  0  0  0  0  # atno 6908 bound_to 6896
  152.3537  134.6972  160.0280 H   0  0  0  0  0  0  0  0  0  0  0  0  # atno 6909 bound_to 6896
  145.9684  139.4125  143.0205 H   0  0  0  0  0  0  0  0  0  0  0  0  # atno 7974 bound_to 7965
  154.4142  140.1193  156.5203 H   0  0  0  0  0  0  0  0  0  0  0  0  # atno 8008 bound_to 7997
  155.6710  140.3496  155.4799 H   0  0  0  0  0  0  0  0  0  0  0  0  # atno 8009 bound_to 7997
  155.9633  140.1127  157.0866 H   0  0  0  0  0  0  0  0  0  0  0  0  # atno 8010 bound_to 7997
  140.1857  144.4137  150.6594 H   0  0  0  0  0  0  0  0  0  0  0  0  # atno 10167 bound_to 10162
  156.0554  130.4279  150.1865 H   0  0  0  0  0  0  0  0  0  0  0  0  # atno 10718 bound_to 10713
  154.8750  135.3976  154.3525 H   0  0  0  0  0  0  0  0  0  0  0  0  # atno 10763 bound_to 10752
  153.4309  135.7025  153.6237 H   0  0  0  0  0  0  0  0  0  0  0  0  # atno 10764 bound_to 10752
  153.4859  135.3759  155.2436 H   0  0  0  0  0  0  0  0  0  0  0  0  # atno 10765 bound_to 10752
  141.0226  134.0101  157.3260 H   0  0  0  0  0  0  0  0  0  0  0  0  # atno 11005 bound_to 11000
  145.7941  140.9801  143.1033 LP  0  0  0  0  0  0  0  0  0  0  0  0  # atno 17320 bound_to 7965
  144.6831  139.9720  143.7482 LP  0  0  0  0  0  0  0  0  0  0  0  0  # atno 17321 bound_to 7965
  140.6490  143.2220  151.6121 LP  0  0  0  0  0  0  0  0  0  0  0  0  # atno 17342 bound_to 10162
  139.5277  144.3009  152.1074 LP  0  0  0  0  0  0  0  0  0  0  0  0  # atno 17343 bound_to 10162
  156.9942  130.9902  151.3407 LP  0  0  0  0  0  0  0  0  0  0  0  0  # atno 17370 bound_to 10713
  157.5519  130.8188  149.8155 LP  0  0  0  0  0  0  0  0  0  0  0  0  # atno 17371 bound_to 10713
  139.9156  135.0196  156.7867 LP  0  0  0  0  0  0  0  0  0  0  0  0  # atno 17394 bound_to 11000
  140.6546  133.9700  155.7773 LP  0  0  0  0  0  0  0  0  0  0  0  0  # atno 17395 bound_to 11000

$$$$
