AV-unprocessed.smi:1870|AV-procd|sdf|7598|dock2
  -GOLD-   22720 9313D 1   1.00000     0.00000
 Structure written by MMmdl.
 47 49  0  0  0  0  0  0  0  0  1 V2000
  147.4996  139.0897  158.4508 C   0  0  0  0  0  0  0  0  0  0  0  0
  148.5411  138.1415  157.9209 C   0  0  0  0  0  0  0  0  0  0  0  0
  149.2970  138.5826  156.9698 N   0  0  0  0  0  0  0  0  0  0  0  0
  150.2797  137.7930  156.4068 N   0  0  0  0  0  0  0  0  0  0  0  0
  151.0370  138.4552  155.3368 C   0  0  0  0  0  0  0  0  0  0  0  0
  152.5549  138.4724  155.6272 C   0  0  1  0  0  0  0  0  0  0  0  0
  153.1369  139.4879  154.8342 O   0  0  0  0  0  0  0  0  0  0  0  0
  152.9346  138.7991  157.0866 C   0  0  0  0  0  0  0  0  0  0  0  0
  152.8696  140.2210  157.4300 N   0  0  0  0  0  0  0  0  0  0  0  0
  154.0212  140.6558  158.2193 C   0  0  0  0  0  0  0  0  0  0  0  0
  154.0822  142.1872  158.3275 C   0  0  0  0  0  0  0  0  0  0  0  0
  152.7354  142.7866  158.7000 C   0  0  0  0  0  0  0  0  0  0  0  0
  152.6503  144.1291  159.1220 C   0  0  0  0  0  0  0  0  0  0  0  0
  151.3988  144.6905  159.4409 C   0  0  0  0  0  0  0  0  0  0  0  0
  150.2301  143.9114  159.3390 C   0  0  0  0  0  0  0  0  0  0  0  0
  150.3109  142.5696  158.9184 C   0  0  0  0  0  0  0  0  0  0  0  0
  151.5606  142.0038  158.5923 C   0  0  0  0  0  0  0  0  0  0  0  0
  151.6460  140.5422  158.1680 C   0  0  0  0  0  0  0  0  0  0  0  0
  150.5497  136.5077  156.7759 C   0  0  0  0  0  0  0  0  0  0  0  0
  151.4309  135.8345  156.2389 O   0  0  0  0  0  0  0  0  0  0  0  0
  149.6939  136.0162  157.8581 C   0  0  0  0  0  0  0  0  0  0  0  0
  149.9437  134.6747  158.2771 C   0  0  0  0  0  0  0  0  0  0  0  0
  150.1651  133.5878  158.6088 N   0  0  0  0  0  0  0  0  0  0  0  0
  148.7276  136.7835  158.4218 C   0  0  0  0  0  0  0  0  0  0  0  0
  147.8111  136.3186  159.5453 C   0  0  0  0  0  0  0  0  0  0  0  0
  146.5059  138.6446  158.3959 H   0  0  0  0  0  0  0  0  0  0  0  0
  147.4724  140.0219  157.8843 H   0  0  0  0  0  0  0  0  0  0  0  0
  147.7012  139.3418  159.4922 H   0  0  0  0  0  0  0  0  0  0  0  0
  150.8376  137.9914  154.3687 H   0  0  0  0  0  0  0  0  0  0  0  0
  150.6571  139.4719  155.2500 H   0  0  0  0  0  0  0  0  0  0  0  0
  153.0085  137.5191  155.3528 H   0  0  0  0  0  0  0  0  0  0  0  0
  154.0568  139.5402  155.0444 H   0  0  0  0  0  0  0  0  0  0  0  0
  152.2367  138.2493  157.7206 H   0  0  0  0  0  0  0  0  0  0  0  0
  153.9178  138.3917  157.3291 H   0  0  0  0  0  0  0  0  0  0  0  0
  153.9588  140.2228  159.2192 H   0  0  0  0  0  0  0  0  0  0  0  0
  154.9556  140.2911  157.7972 H   0  0  0  0  0  0  0  0  0  0  0  0
  154.8329  142.4816  159.0617 H   0  0  0  0  0  0  0  0  0  0  0  0
  154.3891  142.6113  157.3708 H   0  0  0  0  0  0  0  0  0  0  0  0
  153.5434  144.7318  159.1976 H   0  0  0  0  0  0  0  0  0  0  0  0
  151.3353  145.7194  159.7628 H   0  0  0  0  0  0  0  0  0  0  0  0
  149.2711  144.3428  159.5853 H   0  0  0  0  0  0  0  0  0  0  0  0
  149.4115  141.9754  158.8486 H   0  0  0  0  0  0  0  0  0  0  0  0
  150.7760  140.3085  157.5529 H   0  0  0  0  0  0  0  0  0  0  0  0
  151.5749  139.9239  159.0643 H   0  0  0  0  0  0  0  0  0  0  0  0
  148.0920  135.3375  159.9272 H   0  0  0  0  0  0  0  0  0  0  0  0
  146.7811  136.2540  159.1933 H   0  0  0  0  0  0  0  0  0  0  0  0
  147.8450  137.0140  160.3848 H   0  0  0  0  0  0  0  0  0  0  0  0
  1  2  1  0  0  0  0
  1 26  1  0  0  0  0
  1 27  1  0  0  0  0
  1 28  1  0  0  0  0
  2 24  1  0  0  0  0
  2  3  2  0  0  0  0
  3  4  1  0  0  0  0
  4  5  1  0  0  0  0
  4 19  1  0  0  0  0
  5  6  1  0  0  0  0
  5 29  1  0  0  0  0
  5 30  1  0  0  0  0
  6  7  1  0  0  0  0
  6  8  1  0  0  0  0
  6 31  1  0  0  0  0
  7 32  1  0  0  0  0
  8  9  1  0  0  0  0
  8 33  1  0  0  0  0
  8 34  1  0  0  0  0
  9 18  1  0  0  0  0
  9 10  1  0  0  0  0
 10 11  1  0  0  0  0
 10 35  1  0  0  0  0
 10 36  1  0  0  0  0
 11 12  1  0  0  0  0
 11 37  1  0  0  0  0
 11 38  1  0  0  0  0
 12 17  2  0  0  0  0
 12 13  1  0  0  0  0
 13 14  2  0  0  0  0
 13 39  1  0  0  0  0
 14 15  1  0  0  0  0
 14 40  1  0  0  0  0
 15 16  2  0  0  0  0
 15 41  1  0  0  0  0
 16 17  1  0  0  0  0
 16 42  1  0  0  0  0
 17 18  1  0  0  0  0
 18 43  1  0  0  0  0
 18 44  1  0  0  0  0
 19 20  2  0  0  0  0
 19 21  1  0  0  0  0
 21 22  1  0  0  0  0
 21 24  2  0  0  0  0
 22 23  3  0  0  0  0
 24 25  1  0  0  0  0
 25 45  1  0  0  0  0
 25 46  1  0  0  0  0
 25 47  1  0  0  0  0
M  END
> <s_m_source_file>
AV-unprocessed.smi

> <i_m_source_file_index>
1870

> <i_lp_mmshare_version>
43012

> <i_f3d_flags>
0

> <s_epik_input>
TiNDYyhjMVtDSDNdKWMoPU8pbihuYzFbQ0gzXSlbQ0gyXVtDQEhdKFtPSF0pW0NIMl1OKFtDSDJdW0NIMl0yKVtDSDJdYyhjMjMpW2NIXVtjSF1bY0hdW2NIXTM=

> <s_epik_cmdline>
J2VwaWtfcHl0aG9uJywgJy1waCcsICc3LjAnLCAnLXRuJywgJzgnLCAnLW1hJywgJzIwMCcsICctbWV0YWxfYmluZGluZycsICctaW1hZScsICc8aW5maWxlLm1hZT4nLCAnLW9tYWUnLCAnPG91dGZpbGUubWFlPic=

> <r_epik_Ionization_Penalty>
2.30251

> <r_epik_Ionization_Penalty_Charging>
1.06171e-10

> <r_epik_Ionization_Penalty_Neutral>
2.30251

> <r_epik_State_Penalty>
2.45335

> <r_epik_Charging_Adjusted_Penalty>
2.45335

> <i_epik_Tot_Q>
0

> <i_epik_Tot_abs_Q>
0

> <r_epik_Metal_State_Penalty>
2.45335

> <b_epik_Metal_Only>
0

> <s_lp_Force_Field>
OPLS_2005

> <r_lp_Energy>
48.2343

> <b_lp_Chiralities_Consistent>
1

> <s_lp_Variant>
AV-unprocessed.smi:1870-6

> <Gold.Version>
5.8.1

> <Gold.Id.Protein>
6NUR|6NUR_protein|mol2

> <Gold.PLP.Fitness>
49.9303

> <Gold.PLP.PLP>
-47.4281

> <Gold.PLP.part.hbond>
-1.5685

> <Gold.PLP.part.metal>
0.0000

> <Gold.PLP.part.buried>
-4.8249

> <Gold.PLP.part.nonpolar>
-42.0494

> <Gold.PLP.part.repulsive>
0.3202

> <Gold.PLP.ligand.clash>
0.0000

> <Gold.PLP.ligand.torsion>
0.9521

> <Gold.PLP.Chemscore.Hbond>
1.4640

> <Gold.PLP.Chemscore.CHOScore>
0.0000

> <Gold.PLP.Chemscore.Metal>
0.0000

> <Gold.Chemscore.Hbonds>
donor molecule, donor type, donor heavy atom, donor atom, acceptor molecule, acceptor atom, score
      P1  H  7989  7998       L1     7  0.03

> <Gold.PLP.Chemscore.Internal.Correction>
0.0144

> <Gold.Rescore>
     Score         DG    S(hbond)    S(metal)    S(lipo)     H(rot)  DE(clash)    DE(int)     intcor
     17.52     -18.83       0.94        0.00     133.06       2.10       0.03       1.28       ----

> <Gold.Chemscore.Fitness>
17.5234

> <Gold.Chemscore.DG>
-18.8250

> <Gold.Chemscore.ZeroCoef>
-5.4800

> <Gold.Chemscore.Hbond>
0.9419

> <Gold.Chemscore.Metal>
0.0000

> <Gold.Chemscore.Lipo>
133.0578

> <Gold.Chemscore.Internal_Hbond>
0.0000

> <Gold.Chemscore.DEClash>
0.0261

> <Gold.Chemscore.DEInternal>
1.2755

> <Gold.Chemscore.Rot>
2.0971

> <Gold.Chemscore.Internal.Correction>
   9.000000E+99

> <Gold.Chemscore.Hbonds>
donor molecule, donor type, donor heavy atom, donor atom, acceptor molecule, acceptor atom, score
      P1  H  7989  7998       L1     7  0.04

> <Gold.Chemscore.Hbond.Weighted>
-3.1458

> <Gold.Chemscore.Metal.Weighted>
-0.0000

> <Gold.Chemscore.Lipo.Weighted>
-15.5678

> <Gold.Chemscore.Internal_Hbond.Weighted>
0.0000

> <Gold.Chemscore.DEClash.Weighted>
0.0261

> <Gold.Chemscore.DEInternal.Weighted>
1.2755

> <Gold.Chemscore.Rot.Weighted>
5.3685

> <Gold.Chemscore.Internal.Correction.Weighted>
   9.000000E+99

> <Gold.Protein.RotatedTorsions>
[ 6907 6896 6895 6894 ] final  104.89 input  -60.11 | X-H torsion
[ 7974 7965 7964 7962 ] final  -76.21 input  175.53 | X-H torsion
[ 8008 7997 7996 7995 ] final   59.17 input   59.86 | X-H torsion
[ 10167 10162 10161 10158 ] final  -37.28 input  -65.29 | X-H torsion
[ 10718 10713 10712 10709 ] final    6.01 input   66.30 | X-H torsion
[ 10763 10752 10751 10750 ] final  -96.11 input  -60.55 | X-H torsion
[ 11005 11000 10999 10996 ] final   98.89 input  -57.11 | X-H torsion

> <Gold.Protein.ActiveResidues>
 VAL166  LYS551  ARG553  GLY616  TRP617  ASP618  TYR619  PRO620  LYS621  CYS622 
 ASP623  PHE694  ASN695  SER759  ASP760  ASP761  ALA762  ILE779  LEU786  VAL792 
 PHE793  MET794  SER795  GLU796  ALA797  LYS798  CYS799  TRP800  GLU811  SER814 

> <Gold.Protein.RotatedAtoms>
  152.5249  133.9610  159.7716 H   0  0  0  0  0  0  0  0  0  0  0  0  # atno 6907 bound_to 6896
  150.9901  133.6150  159.2716 H   0  0  0  0  0  0  0  0  0  0  0  0  # atno 6908 bound_to 6896
  151.3297  135.0844  159.9387 H   0  0  0  0  0  0  0  0  0  0  0  0  # atno 6909 bound_to 6896
  145.6159  140.9375  143.1164 H   0  0  0  0  0  0  0  0  0  0  0  0  # atno 7974 bound_to 7965
  155.5618  140.3488  155.4493 H   0  0  0  0  0  0  0  0  0  0  0  0  # atno 8008 bound_to 7997
  156.0508  140.1317  157.0077 H   0  0  0  0  0  0  0  0  0  0  0  0  # atno 8009 bound_to 7997
  154.4433  140.1005  156.6359 H   0  0  0  0  0  0  0  0  0  0  0  0  # atno 8010 bound_to 7997
  140.7122  143.3353  151.2478 H   0  0  0  0  0  0  0  0  0  0  0  0  # atno 10167 bound_to 10162
  156.9159  130.5773  149.5647 H   0  0  0  0  0  0  0  0  0  0  0  0  # atno 10718 bound_to 10713
  154.7210  135.5095  153.8812 H   0  0  0  0  0  0  0  0  0  0  0  0  # atno 10763 bound_to 10752
  153.0862  135.6646  153.9953 H   0  0  0  0  0  0  0  0  0  0  0  0  # atno 10764 bound_to 10752
  153.9775  135.3032  155.3402 H   0  0  0  0  0  0  0  0  0  0  0  0  # atno 10765 bound_to 10752
  139.8771  134.9070  156.4523 H   0  0  0  0  0  0  0  0  0  0  0  0  # atno 11005 bound_to 11000
  144.7251  139.7903  143.7368 LP  0  0  0  0  0  0  0  0  0  0  0  0  # atno 17320 bound_to 7965
  146.1469  139.4540  143.0074 LP  0  0  0  0  0  0  0  0  0  0  0  0  # atno 17321 bound_to 7965
  139.6846  143.9796  152.2827 LP  0  0  0  0  0  0  0  0  0  0  0  0  # atno 17342 bound_to 10162
  139.9437  144.6665  150.8240 LP  0  0  0  0  0  0  0  0  0  0  0  0  # atno 17343 bound_to 10162
  156.0514  130.5582  150.8996 LP  0  0  0  0  0  0  0  0  0  0  0  0  # atno 17370 bound_to 10713
  157.5938  131.0943  150.9075 LP  0  0  0  0  0  0  0  0  0  0  0  0  # atno 17371 bound_to 10713
  140.8923  133.7839  155.9585 LP  0  0  0  0  0  0  0  0  0  0  0  0  # atno 17394 bound_to 11000
  140.8740  134.2691  157.5177 LP  0  0  0  0  0  0  0  0  0  0  0  0  # atno 17395 bound_to 11000

$$$$
