AV-unprocessed.smi:867|AV-procd|sdf|3997|dock5
  -GOLD-   22720 1473D 1   1.00000     0.00000
 Structure written by MMmdl.
 53 56  0  0  0  0  0  0  0  0  2 V2000
  152.6058  139.4910  155.7105 O   0  0  0  0  0  0  0  0  0  0  0  0
  151.4521  139.6671  155.3175 C   0  0  0  0  0  0  0  0  0  0  0  0
  150.7188  140.7313  155.6881 N   0  0  0  0  0  0  0  0  0  0  0  0
  151.1555  141.7982  156.5858 C   0  0  0  0  0  0  0  0  0  0  0  0
  150.2689  141.9012  157.8416 C   0  0  0  0  0  0  0  0  0  0  0  0
  150.8494  142.7938  158.9245 C   0  0  0  0  0  0  0  0  0  0  0  0
  151.8562  142.3232  159.7929 C   0  0  0  0  0  0  0  0  0  0  0  0
  152.3790  143.1989  160.7633 C   0  0  0  0  0  0  0  0  0  0  0  0
  151.8673  144.5104  160.8279 C   0  0  0  0  0  0  0  0  0  0  0  0
  150.9012  144.9708  160.0048 N   0  0  0  0  0  0  0  0  0  0  0  0
  150.4068  144.1253  159.0753 C   0  0  0  0  0  0  0  0  0  0  0  0
  150.7861  138.7652  154.5552 N   0  0  0  0  0  0  0  0  0  0  0  0
  151.2447  137.4085  154.2311 C   0  0  0  0  0  0  0  0  0  0  0  0
  150.4546  136.3946  155.0801 C   0  0  0  0  0  0  0  0  0  0  0  0
  148.9817  136.5467  154.8985 N   0  3  0  0  0  0  0  0  0  0  0  0
  148.1856  135.5871  155.7163 C   0  0  1  0  0  0  0  0  0  0  0  0
  146.7216  135.4067  155.2445 C   0  0  0  0  0  0  0  0  0  0  0  0
  146.5622  133.8760  155.1750 C   0  0  1  0  0  0  0  0  0  0  0  0
  147.2837  133.3601  153.9185 C   0  0  0  0  0  0  0  0  0  0  0  0
  148.7663  133.5468  154.2853 C   0  0  0  0  0  0  0  0  0  0  0  0
  148.7008  134.1257  155.7161 C   0  0  2  0  0  0  0  0  0  0  0  0
  147.4895  133.3938  156.2842 C   0  0  0  0  0  0  0  0  0  0  0  0
  148.5367  137.9584  155.0794 C   0  0  0  0  0  0  0  0  0  0  0  0
  149.3695  138.9277  154.2229 C   0  0  0  0  0  0  0  0  0  0  0  0
  149.7702  140.7896  155.3478 H   0  0  0  0  0  0  0  0  0  0  0  0
  152.1990  141.6592  156.8729 H   0  0  0  0  0  0  0  0  0  0  0  0
  151.1171  142.7390  156.0363 H   0  0  0  0  0  0  0  0  0  0  0  0
  149.2861  142.2845  157.5646 H   0  0  0  0  0  0  0  0  0  0  0  0
  150.0992  140.9055  158.2535 H   0  0  0  0  0  0  0  0  0  0  0  0
  152.2292  141.3127  159.7124 H   0  0  0  0  0  0  0  0  0  0  0  0
  153.1535  142.8743  161.4419 H   0  0  0  0  0  0  0  0  0  0  0  0
  152.2449  145.2084  161.5605 H   0  0  0  0  0  0  0  0  0  0  0  0
  149.6412  144.5257  158.4271 H   0  0  0  0  0  0  0  0  0  0  0  0
  151.0739  137.2197  153.1702 H   0  0  0  0  0  0  0  0  0  0  0  0
  152.3129  137.2560  154.3854 H   0  0  0  0  0  0  0  0  0  0  0  0
  150.7714  135.3905  154.8002 H   0  0  0  0  0  0  0  0  0  0  0  0
  150.7026  136.5230  156.1351 H   0  0  0  0  0  0  0  0  0  0  0  0
  148.1829  135.9480  156.7469 H   0  0  0  0  0  0  0  0  0  0  0  0
  146.0313  135.8420  155.9680 H   0  0  0  0  0  0  0  0  0  0  0  0
  146.5163  135.8610  154.2747 H   0  0  0  0  0  0  0  0  0  0  0  0
  145.5288  133.5376  155.2547 H   0  0  0  0  0  0  0  0  0  0  0  0
  147.0609  132.3056  153.7493 H   0  0  0  0  0  0  0  0  0  0  0  0
  147.0027  133.9088  153.0187 H   0  0  0  0  0  0  0  0  0  0  0  0
  149.2800  132.5846  154.2834 H   0  0  0  0  0  0  0  0  0  0  0  0
  149.2880  134.1985  153.5846 H   0  0  0  0  0  0  0  0  0  0  0  0
  149.6150  133.9788  156.2921 H   0  0  0  0  0  0  0  0  0  0  0  0
  147.1955  133.7408  157.2764 H   0  0  0  0  0  0  0  0  0  0  0  0
  147.6091  132.3090  156.3065 H   0  0  0  0  0  0  0  0  0  0  0  0
  147.4863  138.0685  154.8128 H   0  0  0  0  0  0  0  0  0  0  0  0
  148.6225  138.2323  156.1324 H   0  0  0  0  0  0  0  0  0  0  0  0
  149.0209  139.9516  154.3665 H   0  0  0  0  0  0  0  0  0  0  0  0
  149.2216  138.7136  153.1632 H   0  0  0  0  0  0  0  0  0  0  0  0
  148.7977  136.3158  153.9325 H   0  0  0  0  0  0  0  0  0  0  0  0
  1  2  2  0  0  0  0
  2  3  1  0  0  0  0
  2 12  1  0  0  0  0
  3  4  1  0  0  0  0
  3 25  1  0  0  0  0
  4  5  1  0  0  0  0
  4 26  1  0  0  0  0
  4 27  1  0  0  0  0
  5  6  1  0  0  0  0
  5 28  1  0  0  0  0
  5 29  1  0  0  0  0
  6 11  1  0  0  0  0
  6  7  2  0  0  0  0
  7  8  1  0  0  0  0
  7 30  1  0  0  0  0
  8  9  2  0  0  0  0
  8 31  1  0  0  0  0
  9 10  1  0  0  0  0
  9 32  1  0  0  0  0
 10 11  2  0  0  0  0
 11 33  1  0  0  0  0
 12 24  1  0  0  0  0
 12 13  1  0  0  0  0
 13 14  1  0  0  0  0
 13 34  1  0  0  0  0
 13 35  1  0  0  0  0
 14 15  1  0  0  0  0
 14 36  1  0  0  0  0
 14 37  1  0  0  0  0
 15 16  1  0  0  0  0
 15 23  1  0  0  0  0
 15 53  1  0  0  0  0
 16 21  1  0  0  0  0
 16 17  1  0  0  0  0
 16 38  1  0  0  0  0
 17 18  1  0  0  0  0
 17 39  1  0  0  0  0
 17 40  1  0  0  0  0
 18 22  1  0  0  0  0
 18 19  1  0  0  0  0
 18 41  1  0  0  0  0
 19 20  1  0  0  0  0
 19 42  1  0  0  0  0
 19 43  1  0  0  0  0
 20 21  1  0  0  0  0
 20 44  1  0  0  0  0
 20 45  1  0  0  0  0
 21 22  1  0  0  0  0
 21 46  1  0  0  0  0
 22 47  1  0  0  0  0
 22 48  1  0  0  0  0
 23 24  1  0  0  0  0
 23 49  1  0  0  0  0
 23 50  1  0  0  0  0
 24 51  1  0  0  0  0
 24 52  1  0  0  0  0
M  CHG  1  15   1
M  END
> <s_m_source_file>
AV-unprocessed.smi

> <i_m_source_file_index>
867

> <i_lp_mmshare_version>
43012

> <i_f3d_flags>
0

> <s_epik_input>
W0NIMl0xW0NIMl1bQ0BASF0oW0NIMl0yKVtDQEBIXShbQ0gyXVtDQEhdMTIpTihbQ0gyXVtDSDJdMylbQ0gyXVtDSDJdTjNDKD1PKVtOSF1bQ0gyXVtDSDJdYzRbY0hdW2NIXVtjSF1uW2NIXTQ=

> <s_epik_cmdline>
J2VwaWtfcHl0aG9uJywgJy1waCcsICc3LjAnLCAnLXRuJywgJzgnLCAnLW1hJywgJzIwMCcsICctbWV0YWxfYmluZGluZycsICctaW1hZScsICc8aW5maWxlLm1hZT4nLCAnLW9tYWUnLCAnPG91dGZpbGUubWFlPic=

> <r_epik_Ionization_Penalty>
0.0161279

> <r_epik_Ionization_Penalty_Charging>
0.00262064

> <r_epik_Ionization_Penalty_Neutral>
0.0135072

> <r_epik_State_Penalty>
0.0104914

> <r_epik_Charging_Adjusted_Penalty>
0.013112

> <i_epik_Tot_Q>
1

> <i_epik_Tot_abs_Q>
1

> <r_epik_Metal_State_Penalty>
0.0102536

> <b_epik_Metal_Only>
0

> <s_lp_Force_Field>
OPLS_2005

> <r_lp_Energy>
96.5484

> <b_lp_Chiralities_Consistent>
1

> <s_lp_Variant>
AV-unprocessed.smi:867-4

> <Gold.Version>
5.8.1

> <Gold.Id.Protein>
6NUR|6NUR_protein|mol2

> <Gold.PLP.Fitness>
48.8774

> <Gold.PLP.PLP>
-40.0796

> <Gold.PLP.part.hbond>
-3.0000

> <Gold.PLP.part.metal>
0.0000

> <Gold.PLP.part.buried>
-1.2190

> <Gold.PLP.part.nonpolar>
-36.4262

> <Gold.PLP.part.repulsive>
0.3308

> <Gold.PLP.ligand.clash>
2.2605

> <Gold.PLP.ligand.torsion>
0.5271

> <Gold.PLP.Chemscore.Hbond>
3.0000

> <Gold.PLP.Chemscore.CHOScore>
1.0000

> <Gold.PLP.Chemscore.Metal>
0.0000

> <Gold.Chemscore.Hbonds>
donor molecule, donor type, donor heavy atom, donor atom, acceptor molecule, acceptor atom, score
      L1  H    15    53       P1  7948  1.82
      P1  H  7997  8008       L1     1  1.00
      L1  C    11    33       P1  8028  0.08
      L1  C    11    33       P1  8029  1.00

> <Gold.PLP.Chemscore.Internal.Correction>
0.1125

> <Gold.Rescore>
     Score         DG    S(hbond)    S(metal)    S(lipo)     H(rot)  DE(clash)    DE(int)     intcor
     20.51     -21.33       1.96        0.00     109.56       1.37       0.18       0.64       ----

> <Gold.Chemscore.Fitness>
20.5118

> <Gold.Chemscore.DG>
-21.3323

> <Gold.Chemscore.ZeroCoef>
-5.4800

> <Gold.Chemscore.Hbond>
1.9607

> <Gold.Chemscore.Metal>
0.0000

> <Gold.Chemscore.Lipo>
109.5610

> <Gold.Chemscore.Internal_Hbond>
0.0000

> <Gold.Chemscore.DEClash>
0.1798

> <Gold.Chemscore.DEInternal>
0.6406

> <Gold.Chemscore.Rot>
1.3731

> <Gold.Chemscore.Internal.Correction>
   9.000000E+99

> <Gold.Chemscore.Hbonds>
donor molecule, donor type, donor heavy atom, donor atom, acceptor molecule, acceptor atom, score
      L1  H    15    53       P1  7948  0.87
      P1  H  7997  8008       L1     1  1.00

> <Gold.Chemscore.Hbond.Weighted>
-6.5488

> <Gold.Chemscore.Metal.Weighted>
-0.0000

> <Gold.Chemscore.Lipo.Weighted>
-12.8186

> <Gold.Chemscore.Internal_Hbond.Weighted>
0.0000

> <Gold.Chemscore.DEClash.Weighted>
0.1798

> <Gold.Chemscore.DEInternal.Weighted>
0.6406

> <Gold.Chemscore.Rot.Weighted>
3.5152

> <Gold.Chemscore.Internal.Correction.Weighted>
   9.000000E+99

> <Gold.Protein.RotatedTorsions>
[ 6907 6896 6895 6894 ] final  -50.57 input  -60.11 | X-H torsion
[ 7974 7965 7964 7962 ] final  166.98 input  175.53 | X-H torsion
[ 8008 7997 7996 7995 ] final  -35.85 input   59.86 | X-H torsion
[ 10167 10162 10161 10158 ] final -136.44 input  -65.29 | X-H torsion
[ 10718 10713 10712 10709 ] final  -23.96 input   66.30 | X-H torsion
[ 10763 10752 10751 10750 ] final   78.30 input  -60.55 | X-H torsion
[ 11005 11000 10999 10996 ] final  -24.21 input  -57.11 | X-H torsion

> <Gold.Protein.ActiveResidues>
 VAL166  LYS551  ARG553  GLY616  TRP617  ASP618  TYR619  PRO620  LYS621  CYS622 
 ASP623  PHE694  ASN695  SER759  ASP760  ASP761  ALA762  ILE779  LEU786  VAL792 
 PHE793  MET794  SER795  GLU796  ALA797  LYS798  CYS799  TRP800  GLU811  SER814 

> <Gold.Protein.RotatedAtoms>
  150.8694  134.8065  159.7143 H   0  0  0  0  0  0  0  0  0  0  0  0  # atno 6907 bound_to 6896
  152.4704  134.4971  159.9723 H   0  0  0  0  0  0  0  0  0  0  0  0  # atno 6908 bound_to 6896
  151.5062  133.3456  159.2913 H   0  0  0  0  0  0  0  0  0  0  0  0  # atno 6909 bound_to 6896
  144.7441  139.8694  143.6387 H   0  0  0  0  0  0  0  0  0  0  0  0  # atno 7974 bound_to 7965
  154.4086  140.1646  156.2279 H   0  0  0  0  0  0  0  0  0  0  0  0  # atno 8008 bound_to 7997
  155.9308  140.3415  155.6224 H   0  0  0  0  0  0  0  0  0  0  0  0  # atno 8009 bound_to 7997
  155.7109  140.0756  157.2362 H   0  0  0  0  0  0  0  0  0  0  0  0  # atno 8010 bound_to 7997
  139.8677  143.6996  152.2643 H   0  0  0  0  0  0  0  0  0  0  0  0  # atno 10167 bound_to 10162
  156.4840  130.4551  149.6795 H   0  0  0  0  0  0  0  0  0  0  0  0  # atno 10718 bound_to 10713
  153.0864  135.4882  154.8605 H   0  0  0  0  0  0  0  0  0  0  0  0  # atno 10763 bound_to 10752
  154.7215  135.3040  154.9041 H   0  0  0  0  0  0  0  0  0  0  0  0  # atno 10764 bound_to 10752
  153.9704  135.6802  153.4800 H   0  0  0  0  0  0  0  0  0  0  0  0  # atno 10765 bound_to 10752
  140.8824  133.7645  156.0318 H   0  0  0  0  0  0  0  0  0  0  0  0  # atno 11005 bound_to 11000
  146.1291  139.4323  143.0180 LP  0  0  0  0  0  0  0  0  0  0  0  0  # atno 17320 bound_to 7965
  145.7190  141.0081  143.1412 LP  0  0  0  0  0  0  0  0  0  0  0  0  # atno 17321 bound_to 7965
  139.7313  144.7581  151.0797 LP  0  0  0  0  0  0  0  0  0  0  0  0  # atno 17342 bound_to 10162
  140.7765  143.5085  150.9682 LP  0  0  0  0  0  0  0  0  0  0  0  0  # atno 17343 bound_to 10162
  156.3493  130.7423  151.2380 LP  0  0  0  0  0  0  0  0  0  0  0  0  # atno 17370 bound_to 10713
  157.7480  131.0381  150.4490 LP  0  0  0  0  0  0  0  0  0  0  0  0  # atno 17371 bound_to 10713
  140.8445  134.3027  157.5300 LP  0  0  0  0  0  0  0  0  0  0  0  0  # atno 17394 bound_to 11000
  139.8721  134.9434  156.3853 LP  0  0  0  0  0  0  0  0  0  0  0  0  # atno 17395 bound_to 11000

$$$$
