AV-unprocessed.smi:47|AV-procd|sdf|446|dock9
  -GOLD-   2262016313D 1   1.00000     0.00000
 Structure written by MMmdl.
 30 32  0  0  0  0  0  0  0  0  2 V2000
  147.7571  136.7035  154.4035 O   0  0  0  0  0  0  0  0  0  0  0  0
  148.4748  137.8640  154.7664 C   0  0  2  0  0  0  0  0  0  0  0  0
  148.2836  139.0021  153.7728 C   0  0  0  0  0  0  0  0  0  0  0  0
  149.4123  139.8890  154.0163 N   0  0  0  0  0  0  0  0  0  0  0  0
  150.5490  139.0615  154.4368 C   0  0  1  0  0  0  0  0  0  0  0  0
  151.2862  139.6421  155.6301 C   0  0  0  0  0  0  0  0  0  0  0  0
  152.3568  139.0821  156.2299 N   0  0  0  0  0  0  0  0  0  0  0  0
  152.7182  139.9137  157.1888 N   0  5  0  0  0  0  0  0  0  0  0  0
  151.8820  140.9624  157.1551 C   0  0  0  0  0  0  0  0  0  0  0  0
  152.0004  142.0967  158.0947 C   0  0  0  0  0  0  0  0  0  0  0  0
  151.4535  143.3588  157.7659 C   0  0  0  0  0  0  0  0  0  0  0  0
  151.5586  144.4497  158.6507 C   0  0  0  0  0  0  0  0  0  0  0  0
  152.2155  144.2944  159.8846 C   0  0  0  0  0  0  0  0  0  0  0  0
  152.7658  143.0465  160.2287 C   0  0  0  0  0  0  0  0  0  0  0  0
  152.6579  141.9587  159.3404 C   0  0  0  0  0  0  0  0  0  0  0  0
  150.9842  140.8241  156.1896 N   0  0  0  0  0  0  0  0  0  0  0  0
  149.9864  137.6605  154.7397 C   0  0  0  0  0  0  0  0  0  0  0  0
  148.1634  138.1873  155.7609 H   0  0  0  0  0  0  0  0  0  0  0  0
  151.2619  138.9814  153.6152 H   0  0  0  0  0  0  0  0  0  0  0  0
  148.1512  136.3413  153.6247 H   0  0  0  0  0  0  0  0  0  0  0  0
  148.3322  138.6187  152.7525 H   0  0  0  0  0  0  0  0  0  0  0  0
  147.3283  139.5130  153.8947 H   0  0  0  0  0  0  0  0  0  0  0  0
  149.6411  140.3783  153.1574 H   0  0  0  0  0  0  0  0  0  0  0  0
  150.9448  143.4978  156.8231 H   0  0  0  0  0  0  0  0  0  0  0  0
  151.1345  145.4054  158.3807 H   0  0  0  0  0  0  0  0  0  0  0  0
  152.2971  145.1294  160.5647 H   0  0  0  0  0  0  0  0  0  0  0  0
  153.2716  142.9217  161.1748 H   0  0  0  0  0  0  0  0  0  0  0  0
  153.0878  141.0100  159.6261 H   0  0  0  0  0  0  0  0  0  0  0  0
  150.3700  137.2251  155.6634 H   0  0  0  0  0  0  0  0  0  0  0  0
  150.2569  136.9880  153.9242 H   0  0  0  0  0  0  0  0  0  0  0  0
  1  2  1  0  0  0  0
  1 20  1  0  0  0  0
  2 18  1  0  0  0  0
  2 17  1  0  0  0  0
  2  3  1  0  0  0  0
  3  4  1  0  0  0  0
  3 21  1  0  0  0  0
  3 22  1  0  0  0  0
  4  5  1  0  0  0  0
  4 23  1  0  0  0  0
  5 19  1  0  0  0  0
  5  6  1  0  0  0  0
  5 17  1  0  0  0  0
  6 16  1  0  0  0  0
  6  7  2  0  0  0  0
  7  8  1  0  0  0  0
  8  9  1  0  0  0  0
  9 10  1  0  0  0  0
  9 16  2  0  0  0  0
 10 15  1  0  0  0  0
 10 11  2  0  0  0  0
 11 12  1  0  0  0  0
 11 24  1  0  0  0  0
 12 13  2  0  0  0  0
 12 25  1  0  0  0  0
 13 14  1  0  0  0  0
 13 26  1  0  0  0  0
 14 15  2  0  0  0  0
 14 27  1  0  0  0  0
 15 28  1  0  0  0  0
 17 29  1  0  0  0  0
 17 30  1  0  0  0  0
M  CHG  1   8  -1
M  END
> <s_m_source_file>
AV-unprocessed.smi

> <i_m_source_file_index>
47

> <i_lp_mmshare_version>
43012

> <i_f3d_flags>
0

> <s_epik_input>
W09IXVtDQEhdMVtDSDJdW05IXVtDQEBIXShbQ0gyXTEpYzJuW25IXWMobjIpLWMzW2NIXVtjSF1bY0hdW2NIXVtjSF0z

> <s_epik_cmdline>
J2VwaWtfcHl0aG9uJywgJy1waCcsICc3LjAnLCAnLXRuJywgJzgnLCAnLW1hJywgJzIwMCcsICctbWV0YWxfYmluZGluZycsICctaW1hZScsICc8aW5maWxlLm1hZT4nLCAnLW9tYWUnLCAnPG91dGZpbGUubWFlPic=

> <r_epik_Ionization_Penalty>
16.1968

> <r_epik_Ionization_Penalty_Charging>
13.1522

> <r_epik_Ionization_Penalty_Neutral>
3.04463

> <r_epik_State_Penalty>
6.32428

> <r_epik_Charging_Adjusted_Penalty>
19.4764

> <i_epik_Tot_Q>
-1

> <i_epik_Tot_abs_Q>
1

> <r_epik_Metal_State_Penalty>
2.82187

> <b_epik_Metal_Only>
1

> <s_lp_Force_Field>
OPLS_2005

> <r_lp_Energy>
30.4729

> <b_lp_Chiralities_Consistent>
1

> <s_lp_Variant>
AV-unprocessed.smi:47-24

> <Gold.Version>
5.8.1

> <Gold.Id.Protein>
6NUR|6NUR_protein|mol2

> <Gold.PLP.Fitness>
45.7523

> <Gold.PLP.PLP>
-34.8045

> <Gold.PLP.part.hbond>
-3.4003

> <Gold.PLP.part.metal>
0.0000

> <Gold.PLP.part.buried>
-4.2767

> <Gold.PLP.part.nonpolar>
-27.0431

> <Gold.PLP.part.repulsive>
0.0257

> <Gold.PLP.ligand.clash>
0.0000

> <Gold.PLP.ligand.torsion>
0.2313

> <Gold.PLP.Chemscore.Hbond>
3.8000

> <Gold.PLP.Chemscore.CHOScore>
0.0000

> <Gold.PLP.Chemscore.Metal>
0.0000

> <Gold.Chemscore.Hbonds>
donor molecule, donor type, donor heavy atom, donor atom, acceptor molecule, acceptor atom, score
      L1  H     1    20       P1  7948  1.00
      L1  H     4    23       P1  7957  0.78
      P1  H  7997  8008       L1     8  2.00

> <Gold.PLP.Chemscore.Internal.Correction>
0.0103

> <Gold.Rescore>
     Score         DG    S(hbond)    S(metal)    S(lipo)     H(rot)  DE(clash)    DE(int)     intcor
     20.35     -20.54       2.56        0.00      87.57       1.46       0.06       0.12       ----

> <Gold.Chemscore.Fitness>
20.3540

> <Gold.Chemscore.DG>
-20.5414

> <Gold.Chemscore.ZeroCoef>
-5.4800

> <Gold.Chemscore.Hbond>
2.5625

> <Gold.Chemscore.Metal>
0.0000

> <Gold.Chemscore.Lipo>
87.5690

> <Gold.Chemscore.Internal_Hbond>
0.0000

> <Gold.Chemscore.DEClash>
0.0640

> <Gold.Chemscore.DEInternal>
0.1234

> <Gold.Chemscore.Rot>
1.4621

> <Gold.Chemscore.Internal.Correction>
   9.000000E+99

> <Gold.Chemscore.Hbonds>
donor molecule, donor type, donor heavy atom, donor atom, acceptor molecule, acceptor atom, score
      L1  H     1    20       P1  7948  0.99
      L1  H     4    23       P1  7957  0.73
      P1  H  7997  8008       L1     8  0.29

> <Gold.Chemscore.Hbond.Weighted>
-8.5587

> <Gold.Chemscore.Metal.Weighted>
-0.0000

> <Gold.Chemscore.Lipo.Weighted>
-10.2456

> <Gold.Chemscore.Internal_Hbond.Weighted>
0.0000

> <Gold.Chemscore.DEClash.Weighted>
0.0640

> <Gold.Chemscore.DEInternal.Weighted>
0.1234

> <Gold.Chemscore.Rot.Weighted>
3.7429

> <Gold.Chemscore.Internal.Correction.Weighted>
   9.000000E+99

> <Gold.Protein.RotatedTorsions>
[ 6907 6896 6895 6894 ] final  -51.46 input  -60.11 | X-H torsion
[ 7974 7965 7964 7962 ] final   82.10 input  175.53 | X-H torsion
[ 8008 7997 7996 7995 ] final  -74.50 input   59.86 | X-H torsion
[ 10167 10162 10161 10158 ] final  -44.97 input  -65.29 | X-H torsion
[ 10718 10713 10712 10709 ] final  -92.48 input   66.30 | X-H torsion
[ 10763 10752 10751 10750 ] final -172.96 input  -60.55 | X-H torsion
[ 11005 11000 10999 10996 ] final   69.50 input  -57.11 | X-H torsion

> <Gold.Protein.ActiveResidues>
 VAL166  LYS551  ARG553  GLY616  TRP617  ASP618  TYR619  PRO620  LYS621  CYS622 
 ASP623  PHE694  ASN695  SER759  ASP760  ASP761  ALA762  ILE779  LEU786  VAL792 
 PHE793  MET794  SER795  GLU796  ALA797  LYS798  CYS799  TRP800  GLU811  SER814 

> <Gold.Protein.RotatedAtoms>
  150.8609  134.7961  159.7081 H   0  0  0  0  0  0  0  0  0  0  0  0  # atno 6907 bound_to 6896
  152.4646  134.5101  159.9761 H   0  0  0  0  0  0  0  0  0  0  0  0  # atno 6908 bound_to 6896
  151.5205  133.3429  159.2936 H   0  0  0  0  0  0  0  0  0  0  0  0  # atno 6909 bound_to 6896
  145.6294  139.2402  143.2093 H   0  0  0  0  0  0  0  0  0  0  0  0  # atno 7974 bound_to 7965
  154.5336  140.0760  156.8388 H   0  0  0  0  0  0  0  0  0  0  0  0  # atno 8008 bound_to 7997
  155.3324  140.3402  155.4221 H   0  0  0  0  0  0  0  0  0  0  0  0  # atno 8009 bound_to 7997
  156.1806  140.1651  156.8268 H   0  0  0  0  0  0  0  0  0  0  0  0  # atno 8010 bound_to 7997
  140.6876  143.2903  151.3571 H   0  0  0  0  0  0  0  0  0  0  0  0  # atno 10167 bound_to 10162
  156.0003  130.4989  150.5632 H   0  0  0  0  0  0  0  0  0  0  0  0  # atno 10718 bound_to 10713
  154.6133  135.2867  155.0408 H   0  0  0  0  0  0  0  0  0  0  0  0  # atno 10763 bound_to 10752
  154.1630  135.6485  153.4994 H   0  0  0  0  0  0  0  0  0  0  0  0  # atno 10764 bound_to 10752
  153.0204  135.5383  154.6894 H   0  0  0  0  0  0  0  0  0  0  0  0  # atno 10765 bound_to 10752
  139.9650  134.6996  156.0565 H   0  0  0  0  0  0  0  0  0  0  0  0  # atno 11005 bound_to 11000
  146.1368  140.7111  142.9386 LP  0  0  0  0  0  0  0  0  0  0  0  0  # atno 17320 bound_to 7965
  144.7199  140.4339  143.7016 LP  0  0  0  0  0  0  0  0  0  0  0  0  # atno 17321 bound_to 7965
  139.6249  144.0834  152.2425 LP  0  0  0  0  0  0  0  0  0  0  0  0  # atno 17342 bound_to 10162
  140.0290  144.6095  150.7503 LP  0  0  0  0  0  0  0  0  0  0  0  0  # atno 17343 bound_to 10162
  157.3538  131.0738  151.1692 LP  0  0  0  0  0  0  0  0  0  0  0  0  # atno 17370 bound_to 10713
  157.2499  130.6609  149.5927 LP  0  0  0  0  0  0  0  0  0  0  0  0  # atno 17371 bound_to 10713
  141.1329  133.6582  156.3514 LP  0  0  0  0  0  0  0  0  0  0  0  0  # atno 17394 bound_to 11000
  140.5416  134.6114  157.5381 LP  0  0  0  0  0  0  0  0  0  0  0  0  # atno 17395 bound_to 11000

$$$$
