AV-unprocessed.smi:2263|AV-procd|sdf|9140|dock10
  -GOLD-   2272012343D 1   1.00000     0.00000
 Structure written by MMmdl.
 40 41  0  0  0  0  0  0  0  0  1 V2000
  145.2283  135.7835  151.2463 C   0  0  0  0  0  0  0  0  0  0  0  0
  145.3112  136.7380  152.4328 C   0  0  0  0  0  0  0  0  0  0  0  0
  144.2866  137.2400  152.8939 O   0  0  0  0  0  0  0  0  0  0  0  0
  146.5388  136.9815  152.9156 N   0  0  0  0  0  0  0  0  0  0  0  0
  146.8363  137.8691  154.0338 C   0  0  0  0  0  0  0  0  0  0  0  0
  147.4960  139.1735  153.5585 C   0  0  0  0  0  0  0  0  0  0  0  0
  148.7315  139.5000  154.3277 C   0  0  0  0  0  0  0  0  0  0  0  0
  148.9220  140.6612  154.9596 N   0  0  0  0  0  0  0  0  0  0  0  0
  150.1730  140.7380  155.5797 C   0  0  0  0  0  0  0  0  0  0  0  0
  150.5541  141.9673  156.3477 C   0  0  0  0  0  0  0  0  0  0  0  0
  151.2467  141.6317  157.6783 C   0  0  0  0  0  0  0  0  0  0  0  0
  151.2117  142.7898  158.6916 C   0  0  0  0  0  0  0  0  0  0  0  0
  151.6441  144.1339  158.0974 C   0  0  0  0  0  0  0  0  0  0  0  0
  152.0835  144.9932  159.2903 C   0  0  0  0  0  0  0  0  0  0  0  0
  152.3043  144.0272  160.4638 C   0  0  0  0  0  0  0  0  0  0  0  0
  152.1557  142.6183  159.8848 C   0  0  0  0  0  0  0  0  0  0  0  0
  150.9367  139.6120  155.3980 C   0  0  0  0  0  0  0  0  0  0  0  0
  150.1135  138.4164  154.4351 S   0  0  0  0  0  0  0  0  0  0  0  0
  145.8545  136.1378  150.4268 H   0  0  0  0  0  0  0  0  0  0  0  0
  144.2032  135.7056  150.8822 H   0  0  0  0  0  0  0  0  0  0  0  0
  145.5650  134.7873  151.5343 H   0  0  0  0  0  0  0  0  0  0  0  0
  147.3231  136.5236  152.4744 H   0  0  0  0  0  0  0  0  0  0  0  0
  145.9250  138.0831  154.5950 H   0  0  0  0  0  0  0  0  0  0  0  0
  147.5041  137.3424  154.7163 H   0  0  0  0  0  0  0  0  0  0  0  0
  147.7499  139.1033  152.5000 H   0  0  0  0  0  0  0  0  0  0  0  0
  146.8010  140.0079  153.6574 H   0  0  0  0  0  0  0  0  0  0  0  0
  151.2149  142.5901  155.7436 H   0  0  0  0  0  0  0  0  0  0  0  0
  149.6664  142.5714  156.5371 H   0  0  0  0  0  0  0  0  0  0  0  0
  150.7922  140.7423  158.1173 H   0  0  0  0  0  0  0  0  0  0  0  0
  152.2871  141.3732  157.4765 H   0  0  0  0  0  0  0  0  0  0  0  0
  150.1943  142.9021  159.0706 H   0  0  0  0  0  0  0  0  0  0  0  0
  152.4934  143.9878  157.4284 H   0  0  0  0  0  0  0  0  0  0  0  0
  150.8493  144.6048  157.5180 H   0  0  0  0  0  0  0  0  0  0  0  0
  152.9920  145.5480  159.0526 H   0  0  0  0  0  0  0  0  0  0  0  0
  151.3142  145.7231  159.5457 H   0  0  0  0  0  0  0  0  0  0  0  0
  153.2741  144.1701  160.9411 H   0  0  0  0  0  0  0  0  0  0  0  0
  151.5392  144.1950  161.2228 H   0  0  0  0  0  0  0  0  0  0  0  0
  151.7804  141.9071  160.6212 H   0  0  0  0  0  0  0  0  0  0  0  0
  153.1279  142.2598  159.5432 H   0  0  0  0  0  0  0  0  0  0  0  0
  151.9316  139.4152  155.7688 H   0  0  0  0  0  0  0  0  0  0  0  0
  1  2  1  0  0  0  0
  1 19  1  0  0  0  0
  1 20  1  0  0  0  0
  1 21  1  0  0  0  0
  2  3  2  0  0  0  0
  2  4  1  0  0  0  0
  4  5  1  0  0  0  0
  4 22  1  0  0  0  0
  5  6  1  0  0  0  0
  5 23  1  0  0  0  0
  5 24  1  0  0  0  0
  6  7  1  0  0  0  0
  6 25  1  0  0  0  0
  6 26  1  0  0  0  0
  7 18  1  0  0  0  0
  7  8  2  0  0  0  0
  8  9  1  0  0  0  0
  9 10  1  0  0  0  0
  9 17  2  0  0  0  0
 10 11  1  0  0  0  0
 10 27  1  0  0  0  0
 10 28  1  0  0  0  0
 11 12  1  0  0  0  0
 11 29  1  0  0  0  0
 11 30  1  0  0  0  0
 12 16  1  0  0  0  0
 12 13  1  0  0  0  0
 12 31  1  0  0  0  0
 13 14  1  0  0  0  0
 13 32  1  0  0  0  0
 13 33  1  0  0  0  0
 14 15  1  0  0  0  0
 14 34  1  0  0  0  0
 14 35  1  0  0  0  0
 15 16  1  0  0  0  0
 15 36  1  0  0  0  0
 15 37  1  0  0  0  0
 16 38  1  0  0  0  0
 16 39  1  0  0  0  0
 17 18  1  0  0  0  0
 17 40  1  0  0  0  0
M  END
> <s_m_source_file>
AV-unprocessed.smi

> <i_m_source_file_index>
2263

> <i_lp_mmshare_version>
43012

> <i_f3d_flags>
0

> <s_epik_input>
W0NIM11DKD1PKVtOSF1bQ0gyXVtDSDJdYzFuYyhbY0hdczEpW0NIMl1bQ0gyXVtDSF0yW0NIMl1bQ0gyXVtDSDJdW0NIMl0y

> <s_epik_cmdline>
J2VwaWtfcHl0aG9uJywgJy1waCcsICc3LjAnLCAnLXRuJywgJzgnLCAnLW1hJywgJzIwMCcsICctbWV0YWxfYmluZGluZycsICctaW1hZScsICc8aW5maWxlLm1hZT4nLCAnLW9tYWUnLCAnPG91dGZpbGUubWFlPic=

> <r_epik_Ionization_Penalty>
0.00116713

> <r_epik_Ionization_Penalty_Charging>
0

> <r_epik_Ionization_Penalty_Neutral>
0.00116713

> <r_epik_State_Penalty>
0.000768465

> <r_epik_Charging_Adjusted_Penalty>
0.000768465

> <i_epik_Tot_Q>
0

> <i_epik_Tot_abs_Q>
0

> <r_epik_Metal_State_Penalty>
-0

> <b_epik_Metal_Only>
0

> <s_lp_Force_Field>
OPLS_2005

> <r_lp_Energy>
10.4461

> <b_lp_Chiralities_Consistent>
1

> <s_lp_Variant>
AV-unprocessed.smi:2263-1

> <Gold.Version>
5.8.1

> <Gold.Id.Protein>
6NUR|6NUR_protein|mol2

> <Gold.PLP.Fitness>
43.2968

> <Gold.PLP.PLP>
-41.8954

> <Gold.PLP.part.hbond>
-1.0000

> <Gold.PLP.part.metal>
0.0000

> <Gold.PLP.part.buried>
-3.5241

> <Gold.PLP.part.nonpolar>
-38.3277

> <Gold.PLP.part.repulsive>
0.3435

> <Gold.PLP.ligand.clash>
0.0000

> <Gold.PLP.ligand.torsion>
0.8319

> <Gold.PLP.Chemscore.Hbond>
1.0000

> <Gold.PLP.Chemscore.CHOScore>
0.0000

> <Gold.PLP.Chemscore.Metal>
0.0000

> <Gold.Chemscore.Hbonds>
donor molecule, donor type, donor heavy atom, donor atom, acceptor molecule, acceptor atom, score
      L1  H     4    22       P1  7948  1.00

> <Gold.PLP.Chemscore.Internal.Correction>
0.0652

> <Gold.Rescore>
     Score         DG    S(hbond)    S(metal)    S(lipo)     H(rot)  DE(clash)    DE(int)     intcor
     17.28     -18.11       0.99        0.00     118.92       1.80       0.03       0.80       ----

> <Gold.Chemscore.Fitness>
17.2808

> <Gold.Chemscore.DG>
-18.1076

> <Gold.Chemscore.ZeroCoef>
-5.4800

> <Gold.Chemscore.Hbond>
0.9926

> <Gold.Chemscore.Metal>
0.0000

> <Gold.Chemscore.Lipo>
118.9172

> <Gold.Chemscore.Internal_Hbond>
0.0000

> <Gold.Chemscore.DEClash>
0.0260

> <Gold.Chemscore.DEInternal>
0.8009

> <Gold.Chemscore.Rot>
1.7972

> <Gold.Chemscore.Internal.Correction>
   9.000000E+99

> <Gold.Chemscore.Hbonds>
donor molecule, donor type, donor heavy atom, donor atom, acceptor molecule, acceptor atom, score
      L1  H     4    22       P1  7948  1.00

> <Gold.Chemscore.Hbond.Weighted>
-3.3151

> <Gold.Chemscore.Metal.Weighted>
-0.0000

> <Gold.Chemscore.Lipo.Weighted>
-13.9133

> <Gold.Chemscore.Internal_Hbond.Weighted>
0.0000

> <Gold.Chemscore.DEClash.Weighted>
0.0260

> <Gold.Chemscore.DEInternal.Weighted>
0.8009

> <Gold.Chemscore.Rot.Weighted>
4.6008

> <Gold.Chemscore.Internal.Correction.Weighted>
   9.000000E+99

> <Gold.Protein.RotatedTorsions>
[ 6907 6896 6895 6894 ] final  160.30 input  -60.11 | X-H torsion
[ 7974 7965 7964 7962 ] final  -58.44 input  175.53 | X-H torsion
[ 8008 7997 7996 7995 ] final -120.21 input   59.86 | X-H torsion
[ 10167 10162 10161 10158 ] final  -94.10 input  -65.29 | X-H torsion
[ 10718 10713 10712 10709 ] final   20.39 input   66.30 | X-H torsion
[ 10763 10752 10751 10750 ] final -168.07 input  -60.55 | X-H torsion
[ 11005 11000 10999 10996 ] final  -53.95 input  -57.11 | X-H torsion

> <Gold.Protein.ActiveResidues>
 VAL166  LYS551  ARG553  GLY616  TRP617  ASP618  TYR619  PRO620  LYS621  CYS622 
 ASP623  PHE694  ASN695  SER759  ASP760  ASP761  ALA762  ILE779  LEU786  VAL792 
 PHE793  MET794  SER795  GLU796  ALA797  LYS798  CYS799  TRP800  GLU811  SER814 

> <Gold.Protein.RotatedAtoms>
  151.9727  133.3731  159.4077 H   0  0  0  0  0  0  0  0  0  0  0  0  # atno 6907 bound_to 6896
  150.6946  134.4123  159.5176 H   0  0  0  0  0  0  0  0  0  0  0  0  # atno 6908 bound_to 6896
  152.1829  134.8738  160.0575 H   0  0  0  0  0  0  0  0  0  0  0  0  # atno 6909 bound_to 6896
  145.8393  140.8428  143.0043 H   0  0  0  0  0  0  0  0  0  0  0  0  # atno 7974 bound_to 7965
  155.1282  140.0399  157.2768 H   0  0  0  0  0  0  0  0  0  0  0  0  # atno 8008 bound_to 7997
  154.6562  140.2580  155.7132 H   0  0  0  0  0  0  0  0  0  0  0  0  # atno 8009 bound_to 7997
  156.2599  140.2826  156.1016 H   0  0  0  0  0  0  0  0  0  0  0  0  # atno 8010 bound_to 7997
  140.3178  143.3066  152.0079 H   0  0  0  0  0  0  0  0  0  0  0  0  # atno 10167 bound_to 10162
  157.1238  130.6561  149.5931 H   0  0  0  0  0  0  0  0  0  0  0  0  # atno 10718 bound_to 10713
  154.6666  135.2933  154.9797 H   0  0  0  0  0  0  0  0  0  0  0  0  # atno 10763 bound_to 10752
  154.0838  135.6600  153.4846 H   0  0  0  0  0  0  0  0  0  0  0  0  # atno 10764 bound_to 10752
  153.0461  135.5203  154.7642 H   0  0  0  0  0  0  0  0  0  0  0  0  # atno 10765 bound_to 10752
  141.1002  133.6619  156.4248 H   0  0  0  0  0  0  0  0  0  0  0  0  # atno 11005 bound_to 11000
  144.6734  140.0788  143.7470 LP  0  0  0  0  0  0  0  0  0  0  0  0  # atno 17320 bound_to 7965
  145.9483  139.2716  143.1227 LP  0  0  0  0  0  0  0  0  0  0  0  0  # atno 17321 bound_to 7965
  139.4880  144.6334  151.7024 LP  0  0  0  0  0  0  0  0  0  0  0  0  # atno 17342 bound_to 10162
  140.5510  144.0425  150.6127 LP  0  0  0  0  0  0  0  0  0  0  0  0  # atno 17343 bound_to 10162
  155.9823  130.4835  150.6872 LP  0  0  0  0  0  0  0  0  0  0  0  0  # atno 17370 bound_to 10713
  157.4453  131.0866  151.0902 LP  0  0  0  0  0  0  0  0  0  0  0  0  # atno 17371 bound_to 10713
  140.5042  134.6457  157.5260 LP  0  0  0  0  0  0  0  0  0  0  0  0  # atno 17394 bound_to 11000
  139.9850  134.7075  155.9790 LP  0  0  0  0  0  0  0  0  0  0  0  0  # atno 17395 bound_to 11000

$$$$
