AV-unprocessed.smi:1112|AV-procd|sdf|4797|dock8
  -GOLD-   22720 3343D 1   1.00000     0.00000
 Structure written by MMmdl.
 50 52  0  0  0  0  0  0  0  0  2 V2000
  145.2499  138.4303  153.9334 O   0  0  0  0  0  0  0  0  0  0  0  0
  145.8605  137.6937  153.1595 C   0  0  0  0  0  0  0  0  0  0  0  0
  147.1023  137.9399  152.7189 N   0  0  0  0  0  0  0  0  0  0  0  0
  147.9359  139.0809  153.0952 C   0  0  0  0  0  0  0  0  0  0  0  0
  148.5922  138.9101  154.4911 C   0  0  0  0  0  0  0  0  0  0  0  0
  149.1051  137.5915  154.5330 O   0  0  0  0  0  0  0  0  0  0  0  0
  149.8092  139.8504  154.6630 C   0  0  0  0  0  0  0  0  0  0  0  0
  149.4021  141.3208  154.8757 C   0  0  0  0  0  0  0  0  0  0  0  0
  148.4207  141.4686  156.0489 C   0  0  0  0  0  0  0  0  0  0  0  0
  147.1978  140.5552  155.8742 C   0  0  0  0  0  0  0  0  0  0  0  0
  147.6245  139.0891  155.6878 C   0  0  0  0  0  0  0  0  0  0  0  0
  145.3798  136.5539  152.6351 N   0  0  0  0  0  0  0  0  0  0  0  0
  144.1042  135.9515  152.8373 C   0  0  0  0  0  0  0  0  0  0  0  0
  143.1121  136.5324  153.6689 C   0  0  0  0  0  0  0  0  0  0  0  0
  141.8700  135.8890  153.8323 C   0  0  0  0  0  0  0  0  0  0  0  0
  141.6400  134.6698  153.1709 C   0  0  0  0  0  0  0  0  0  0  0  0
  142.6100  134.1334  152.4020 N   0  3  0  0  0  0  0  0  0  0  0  0
  143.8233  134.7078  152.2074 C   0  0  0  0  0  0  0  0  0  0  0  0
  144.7751  134.0378  151.4100 N   0  0  0  0  0  0  0  0  0  0  0  0
  145.9491  133.5839  152.1523 C   0  0  0  0  0  0  0  0  0  0  0  0
  146.3206  132.2109  151.5868 C   0  0  0  0  0  0  0  0  0  0  0  0
  144.9990  131.6918  151.0337 C   0  0  0  0  0  0  0  0  0  0  0  0
  144.3386  132.9675  150.5150 C   0  0  0  0  0  0  0  0  0  0  0  0
  147.5204  137.2770  152.0828 H   0  0  0  0  0  0  0  0  0  0  0  0
  148.7049  139.2043  152.3316 H   0  0  0  0  0  0  0  0  0  0  0  0
  147.3481  139.9982  153.0633 H   0  0  0  0  0  0  0  0  0  0  0  0
  148.9483  137.1818  153.6959 H   0  0  0  0  0  0  0  0  0  0  0  0
  150.3956  139.5322  155.5267 H   0  0  0  0  0  0  0  0  0  0  0  0
  150.4752  139.7722  153.8024 H   0  0  0  0  0  0  0  0  0  0  0  0
  150.2909  141.9241  155.0626 H   0  0  0  0  0  0  0  0  0  0  0  0
  148.9521  141.7226  153.9678 H   0  0  0  0  0  0  0  0  0  0  0  0
  148.9287  141.2214  156.9821 H   0  0  0  0  0  0  0  0  0  0  0  0
  148.1009  142.5071  156.1379 H   0  0  0  0  0  0  0  0  0  0  0  0
  146.5455  140.6419  156.7435 H   0  0  0  0  0  0  0  0  0  0  0  0
  146.6113  140.8868  155.0173 H   0  0  0  0  0  0  0  0  0  0  0  0
  146.7452  138.4528  155.5872 H   0  0  0  0  0  0  0  0  0  0  0  0
  148.1187  138.7594  156.6031 H   0  0  0  0  0  0  0  0  0  0  0  0
  145.9660  136.1061  151.9461 H   0  0  0  0  0  0  0  0  0  0  0  0
  143.2843  137.4567  154.1984 H   0  0  0  0  0  0  0  0  0  0  0  0
  141.1068  136.3239  154.4612 H   0  0  0  0  0  0  0  0  0  0  0  0
  140.7214  134.1054  153.2412 H   0  0  0  0  0  0  0  0  0  0  0  0
  146.7747  134.2890  152.0515 H   0  0  0  0  0  0  0  0  0  0  0  0
  145.7135  133.4965  153.2145 H   0  0  0  0  0  0  0  0  0  0  0  0
  147.0389  132.3270  150.7736 H   0  0  0  0  0  0  0  0  0  0  0  0
  146.7611  131.5496  152.3336 H   0  0  0  0  0  0  0  0  0  0  0  0
  145.1265  130.9335  150.2607 H   0  0  0  0  0  0  0  0  0  0  0  0
  144.4013  131.2615  151.8386 H   0  0  0  0  0  0  0  0  0  0  0  0
  143.2571  132.8601  150.4291 H   0  0  0  0  0  0  0  0  0  0  0  0
  144.7117  133.1987  149.5168 H   0  0  0  0  0  0  0  0  0  0  0  0
  142.4210  133.2410  151.9452 H   0  0  0  0  0  0  0  0  0  0  0  0
  1  2  2  0  0  0  0
  2  3  1  0  0  0  0
  2 12  1  0  0  0  0
  3  4  1  0  0  0  0
  3 24  1  0  0  0  0
  4  5  1  0  0  0  0
  4 25  1  0  0  0  0
  4 26  1  0  0  0  0
  5 11  1  0  0  0  0
  5  6  1  0  0  0  0
  5  7  1  0  0  0  0
  6 27  1  0  0  0  0
  7  8  1  0  0  0  0
  7 28  1  0  0  0  0
  7 29  1  0  0  0  0
  8  9  1  0  0  0  0
  8 30  1  0  0  0  0
  8 31  1  0  0  0  0
  9 10  1  0  0  0  0
  9 32  1  0  0  0  0
  9 33  1  0  0  0  0
 10 11  1  0  0  0  0
 10 34  1  0  0  0  0
 10 35  1  0  0  0  0
 11 36  1  0  0  0  0
 11 37  1  0  0  0  0
 12 13  1  0  0  0  0
 12 38  1  0  0  0  0
 13 18  1  0  0  0  0
 13 14  2  0  0  0  0
 14 15  1  0  0  0  0
 14 39  1  0  0  0  0
 15 16  2  0  0  0  0
 15 40  1  0  0  0  0
 16 17  1  0  0  0  0
 16 41  1  0  0  0  0
 17 18  2  0  0  0  0
 17 50  1  0  0  0  0
 18 19  1  0  0  0  0
 19 23  1  0  0  0  0
 19 20  1  0  0  0  0
 20 21  1  0  0  0  0
 20 42  1  0  0  0  0
 20 43  1  0  0  0  0
 21 22  1  0  0  0  0
 21 44  1  0  0  0  0
 21 45  1  0  0  0  0
 22 23  1  0  0  0  0
 22 46  1  0  0  0  0
 22 47  1  0  0  0  0
 23 48  1  0  0  0  0
 23 49  1  0  0  0  0
M  CHG  1  17   1
M  END
> <s_m_source_file>
AV-unprocessed.smi

> <i_m_source_file_index>
1112

> <i_lp_mmshare_version>
43012

> <i_f3d_flags>
0

> <s_epik_input>
W0NIMl0xW0NIMl1bQ0gyXVtDSDJdW0NIMl1DMShbT0hdKVtDSDJdW05IXUMoPU8pW05IXWMyW2NIXVtjSF1bY0hdbmMyTjNbQ0gyXVtDSDJdW0NIMl1bQ0gyXTM=

> <s_epik_cmdline>
J2VwaWtfcHl0aG9uJywgJy1waCcsICc3LjAnLCAnLXRuJywgJzgnLCAnLW1hJywgJzIwMCcsICctbWV0YWxfYmluZGluZycsICctaW1hZScsICc8aW5maWxlLm1hZT4nLCAnLW9tYWUnLCAnPG91dGZpbGUubWFlPic=

> <r_lp_tautomer_probability>
0.999994

> <r_epik_Ionization_Penalty>
1.10443

> <r_epik_Ionization_Penalty_Charging>
1.1044

> <r_epik_Ionization_Penalty_Neutral>
2.27493e-05

> <r_epik_State_Penalty>
1.16183

> <r_epik_Charging_Adjusted_Penalty>
2.26623

> <i_epik_Tot_Q>
1

> <i_epik_Tot_abs_Q>
1

> <r_epik_Metal_State_Penalty>
1.24855

> <b_epik_Metal_Only>
0

> <s_lp_Force_Field>
OPLS_2005

> <r_lp_Energy>
50.1983

> <b_lp_Chiralities_Consistent>
1

> <s_lp_Variant>
AV-unprocessed.smi:1112-2

> <Gold.Version>
5.8.1

> <Gold.Id.Protein>
6NUR|6NUR_protein|mol2

> <Gold.PLP.Fitness>
38.2827

> <Gold.PLP.PLP>
-34.3549

> <Gold.PLP.part.hbond>
-2.6517

> <Gold.PLP.part.metal>
0.0000

> <Gold.PLP.part.buried>
-3.4472

> <Gold.PLP.part.nonpolar>
-29.5168

> <Gold.PLP.part.repulsive>
1.5797

> <Gold.PLP.ligand.clash>
0.0000

> <Gold.PLP.ligand.torsion>
0.5687

> <Gold.PLP.Chemscore.Hbond>
1.6400

> <Gold.PLP.Chemscore.CHOScore>
0.0000

> <Gold.PLP.Chemscore.Metal>
0.0000

> <Gold.Chemscore.Hbonds>
donor molecule, donor type, donor heavy atom, donor atom, acceptor molecule, acceptor atom, score
      L1  H     3    24       P1  7948  0.88
      L1  H     6    27       P1  7948  0.94

> <Gold.PLP.Chemscore.Internal.Correction>
0.1452

> <Gold.Rescore>
     Score         DG    S(hbond)    S(metal)    S(lipo)     H(rot)  DE(clash)    DE(int)     intcor
     13.02     -15.73       1.88        0.00      76.05       1.92       0.70       2.02       ----

> <Gold.Chemscore.Fitness>
13.0174

> <Gold.Chemscore.DG>
-15.7321

> <Gold.Chemscore.ZeroCoef>
-5.4800

> <Gold.Chemscore.Hbond>
1.8751

> <Gold.Chemscore.Metal>
0.0000

> <Gold.Chemscore.Lipo>
76.0487

> <Gold.Chemscore.Internal_Hbond>
0.0000

> <Gold.Chemscore.DEClash>
0.6954

> <Gold.Chemscore.DEInternal>
2.0194

> <Gold.Chemscore.Rot>
1.9173

> <Gold.Chemscore.Internal.Correction>
   9.000000E+99

> <Gold.Chemscore.Hbonds>
donor molecule, donor type, donor heavy atom, donor atom, acceptor molecule, acceptor atom, score
      L1  H     3    24       P1  7948  0.87
      L1  H     6    27       P1  7948  0.90

> <Gold.Chemscore.Hbond.Weighted>
-6.2628

> <Gold.Chemscore.Metal.Weighted>
-0.0000

> <Gold.Chemscore.Lipo.Weighted>
-8.8977

> <Gold.Chemscore.Internal_Hbond.Weighted>
0.0000

> <Gold.Chemscore.DEClash.Weighted>
0.6954

> <Gold.Chemscore.DEInternal.Weighted>
2.0194

> <Gold.Chemscore.Rot.Weighted>
4.9084

> <Gold.Chemscore.Internal.Correction.Weighted>
   9.000000E+99

> <Gold.Protein.RotatedTorsions>
[ 6907 6896 6895 6894 ] final  -75.95 input  -60.11 | X-H torsion
[ 7974 7965 7964 7962 ] final  115.20 input  175.53 | X-H torsion
[ 8008 7997 7996 7995 ] final  155.12 input   59.86 | X-H torsion
[ 10167 10162 10161 10158 ] final  115.32 input  -65.29 | X-H torsion
[ 10718 10713 10712 10709 ] final  -76.24 input   66.30 | X-H torsion
[ 10763 10752 10751 10750 ] final  147.51 input  -60.55 | X-H torsion
[ 11005 11000 10999 10996 ] final   19.02 input  -57.11 | X-H torsion

> <Gold.Protein.ActiveResidues>
 VAL166  LYS551  ARG553  GLY616  TRP617  ASP618  TYR619  PRO620  LYS621  CYS622 
 ASP623  PHE694  ASN695  SER759  ASP760  ASP761  ALA762  ILE779  LEU786  VAL792 
 PHE793  MET794  SER795  GLU796  ALA797  LYS798  CYS799  TRP800  GLU811  SER814 

> <Gold.Protein.RotatedAtoms>
  150.7042  134.4645  159.5395 H   0  0  0  0  0  0  0  0  0  0  0  0  # atno 6907 bound_to 6896
  152.2313  134.8316  160.0482 H   0  0  0  0  0  0  0  0  0  0  0  0  # atno 6908 bound_to 6896
  151.9131  133.3531  159.3907 H   0  0  0  0  0  0  0  0  0  0  0  0  # atno 6909 bound_to 6896
  145.1949  139.2981  143.4348 H   0  0  0  0  0  0  0  0  0  0  0  0  # atno 7974 bound_to 7965
  156.2495  140.1948  156.6752 H   0  0  0  0  0  0  0  0  0  0  0  0  # atno 8008 bound_to 7997
  154.6363  140.0589  156.9818 H   0  0  0  0  0  0  0  0  0  0  0  0  # atno 8009 bound_to 7997
  155.1632  140.3261  155.4410 H   0  0  0  0  0  0  0  0  0  0  0  0  # atno 8010 bound_to 7997
  139.6326  144.7116  151.2401 H   0  0  0  0  0  0  0  0  0  0  0  0  # atno 10167 bound_to 10162
  156.0181  130.4461  150.3164 H   0  0  0  0  0  0  0  0  0  0  0  0  # atno 10718 bound_to 10713
  154.0395  135.2891  155.3357 H   0  0  0  0  0  0  0  0  0  0  0  0  # atno 10763 bound_to 10752
  154.6938  135.5216  153.8433 H   0  0  0  0  0  0  0  0  0  0  0  0  # atno 10764 bound_to 10752
  153.0606  135.6612  154.0600 H   0  0  0  0  0  0  0  0  0  0  0  0  # atno 10765 bound_to 10752
  140.4183  134.1545  155.7671 H   0  0  0  0  0  0  0  0  0  0  0  0  # atno 11005 bound_to 11000
  146.3429  140.2174  142.8591 LP  0  0  0  0  0  0  0  0  0  0  0  0  # atno 17320 bound_to 7965
  145.0004  140.8627  143.5285 LP  0  0  0  0  0  0  0  0  0  0  0  0  # atno 17321 bound_to 7965
  140.7447  143.6454  150.8297 LP  0  0  0  0  0  0  0  0  0  0  0  0  # atno 17342 bound_to 10162
  140.0081  143.5672  152.2850 LP  0  0  0  0  0  0  0  0  0  0  0  0  # atno 17343 bound_to 10162
  157.1265  131.0260  151.2987 LP  0  0  0  0  0  0  0  0  0  0  0  0  # atno 17370 bound_to 10713
  157.4585  130.7639  149.7215 LP  0  0  0  0  0  0  0  0  0  0  0  0  # atno 17371 bound_to 10713
  141.1794  133.8446  157.1311 LP  0  0  0  0  0  0  0  0  0  0  0  0  # atno 17394 bound_to 11000
  140.0218  134.9942  157.0607 LP  0  0  0  0  0  0  0  0  0  0  0  0  # atno 17395 bound_to 11000

$$$$
