AV-unprocessed.smi:193|AV-procd|sdf|1501|dock2
  -GOLD-   2262019333D 1   1.00000     0.00000
 Structure written by MMmdl.
 62 66  0  0  0  0  0  0  0  0  2 V2000
  148.1946  141.1973  154.3190 C   0  0  0  0  0  0  0  0  0  0  0  0
  149.3577  140.6101  155.1332 C   0  0  1  0  0  0  0  0  0  0  0  0
  150.0406  139.4953  154.3084 C   0  0  0  0  0  0  0  0  0  0  0  0
  150.9884  138.6855  155.0728 N   0  0  0  0  0  0  0  0  0  0  0  0
  150.5476  137.5315  155.6419 C   0  0  0  0  0  0  0  0  0  0  0  0
  151.3166  136.4123  155.5683 N   0  0  0  0  0  0  0  0  0  0  0  0
  150.8922  135.2625  156.0999 C   0  0  0  0  0  0  0  0  0  0  0  0
  149.7494  135.0123  156.7402 N   0  0  0  0  0  0  0  0  0  0  0  0
  148.9750  136.1310  156.8260 C   0  0  0  0  0  0  0  0  0  0  0  0
  149.2957  137.4201  156.3126 C   0  0  0  0  0  0  0  0  0  0  0  0
  148.2722  138.3126  156.6108 N   0  0  0  0  0  0  0  0  0  0  0  0
  147.3946  137.5917  157.2532 C   0  0  0  0  0  0  0  0  0  0  0  0
  147.7300  136.2667  157.4152 N   0  0  0  0  0  0  0  0  0  0  0  0
  146.9393  135.2425  158.0805 C   0  0  0  0  0  0  0  0  0  0  0  0
  147.3813  134.9535  159.5372 C   0  0  0  0  0  0  0  0  0  0  0  0
  148.6341  134.2929  159.4881 O   0  0  0  0  0  0  0  0  0  0  0  0
  147.5580  136.2732  160.3152 C   0  0  0  0  0  0  0  0  0  0  0  0
  147.8254  136.0343  161.8119 C   0  0  0  0  0  0  0  0  0  0  0  0
  146.7851  135.2416  162.3704 O   0  0  0  0  0  0  0  0  0  0  0  0
  146.7127  133.9442  161.7924 C   0  0  0  0  0  0  0  0  0  0  0  0
  146.3831  134.0482  160.2926 C   0  0  0  0  0  0  0  0  0  0  0  0
  152.0843  139.3705  155.7545 C   0  0  0  0  0  0  0  0  0  0  0  0
  151.5969  140.1095  157.0146 C   0  0  0  0  0  0  0  0  0  0  0  0
  151.1240  141.4976  156.7691 N   0  3  2  0  0  0  0  0  0  0  0  0
  150.4237  142.0522  157.9524 C   0  0  1  0  0  0  0  0  0  0  0  0
  151.3348  142.3556  159.1206 C   0  0  0  0  0  0  0  0  0  0  0  0
  150.7682  143.4907  158.2958 C   0  0  1  0  0  0  0  0  0  0  0  0
  151.6876  144.3565  157.4534 C   0  0  0  0  0  0  0  0  0  0  0  0
  150.3594  141.7273  155.5113 C   0  0  0  0  0  0  0  0  0  0  0  0
  148.5469  141.6516  153.3921 H   0  0  0  0  0  0  0  0  0  0  0  0
  147.6627  141.9630  154.8847 H   0  0  0  0  0  0  0  0  0  0  0  0
  147.4697  140.4262  154.0568 H   0  0  0  0  0  0  0  0  0  0  0  0
  148.9195  140.1887  156.0386 H   0  0  0  0  0  0  0  0  0  0  0  0
  149.2870  138.8435  153.8635 H   0  0  0  0  0  0  0  0  0  0  0  0
  150.5722  139.9334  153.4630 H   0  0  0  0  0  0  0  0  0  0  0  0
  151.5627  134.4224  155.9948 H   0  0  0  0  0  0  0  0  0  0  0  0
  146.4679  138.0071  157.6219 H   0  0  0  0  0  0  0  0  0  0  0  0
  145.8921  135.5469  158.0549 H   0  0  0  0  0  0  0  0  0  0  0  0
  147.0027  134.3316  157.4840 H   0  0  0  0  0  0  0  0  0  0  0  0
  148.7313  133.8941  158.6370 H   0  0  0  0  0  0  0  0  0  0  0  0
  148.3629  136.8685  159.8819 H   0  0  0  0  0  0  0  0  0  0  0  0
  146.6514  136.8724  160.2197 H   0  0  0  0  0  0  0  0  0  0  0  0
  148.7914  135.5514  161.9681 H   0  0  0  0  0  0  0  0  0  0  0  0
  147.8613  136.9870  162.3403 H   0  0  0  0  0  0  0  0  0  0  0  0
  147.6501  133.4096  161.9522 H   0  0  0  0  0  0  0  0  0  0  0  0
  145.9361  133.3758  162.3044 H   0  0  0  0  0  0  0  0  0  0  0  0
  145.3773  134.4567  160.1863 H   0  0  0  0  0  0  0  0  0  0  0  0
  146.3561  133.0486  159.8573 H   0  0  0  0  0  0  0  0  0  0  0  0
  152.8459  138.6492  156.0454 H   0  0  0  0  0  0  0  0  0  0  0  0
  152.5839  140.0542  155.0676 H   0  0  0  0  0  0  0  0  0  0  0  0
  150.8265  139.5304  157.5264 H   0  0  0  0  0  0  0  0  0  0  0  0
  152.4288  140.1762  157.7159 H   0  0  0  0  0  0  0  0  0  0  0  0
  149.4220  141.6658  158.1339 H   0  0  0  0  0  0  0  0  0  0  0  0
  150.9301  142.2195  160.1213 H   0  0  0  0  0  0  0  0  0  0  0  0
  152.3972  142.1413  159.0192 H   0  0  0  0  0  0  0  0  0  0  0  0
  149.9642  144.0571  158.7621 H   0  0  0  0  0  0  0  0  0  0  0  0
  152.5363  143.7867  157.0746 H   0  0  0  0  0  0  0  0  0  0  0  0
  152.0729  145.1804  158.0543 H   0  0  0  0  0  0  0  0  0  0  0  0
  151.1405  144.7748  156.6085 H   0  0  0  0  0  0  0  0  0  0  0  0
  151.0692  141.8773  154.6972 H   0  0  0  0  0  0  0  0  0  0  0  0
  149.8376  142.6812  155.6021 H   0  0  0  0  0  0  0  0  0  0  0  0
  151.9595  142.0558  156.6678 H   0  0  0  0  0  0  0  0  0  0  0  0
  1  2  1  0  0  0  0
  1 30  1  0  0  0  0
  1 31  1  0  0  0  0
  1 32  1  0  0  0  0
  2 29  1  0  0  0  0
  2  3  1  0  0  0  0
  2 33  1  0  0  0  0
  3  4  1  0  0  0  0
  3 34  1  0  0  0  0
  3 35  1  0  0  0  0
  4  5  1  0  0  0  0
  4 22  1  0  0  0  0
  5 10  1  0  0  0  0
  5  6  2  0  0  0  0
  6  7  1  0  0  0  0
  7  8  2  0  0  0  0
  7 36  1  0  0  0  0
  8  9  1  0  0  0  0
  9 13  1  0  0  0  0
  9 10  2  0  0  0  0
 10 11  1  0  0  0  0
 11 12  2  0  0  0  0
 12 13  1  0  0  0  0
 12 37  1  0  0  0  0
 13 14  1  0  0  0  0
 14 15  1  0  0  0  0
 14 38  1  0  0  0  0
 14 39  1  0  0  0  0
 15 21  1  0  0  0  0
 15 16  1  0  0  0  0
 15 17  1  0  0  0  0
 16 40  1  0  0  0  0
 17 18  1  0  0  0  0
 17 41  1  0  0  0  0
 17 42  1  0  0  0  0
 18 19  1  0  0  0  0
 18 43  1  0  0  0  0
 18 44  1  0  0  0  0
 19 20  1  0  0  0  0
 20 21  1  0  0  0  0
 20 45  1  0  0  0  0
 20 46  1  0  0  0  0
 21 47  1  0  0  0  0
 21 48  1  0  0  0  0
 22 23  1  0  0  0  0
 22 49  1  0  0  0  0
 22 50  1  0  0  0  0
 23 24  1  0  0  0  0
 23 51  1  0  0  0  0
 23 52  1  0  0  0  0
 24 25  1  0  0  0  0
 24 29  1  0  0  0  0
 24 62  1  0  0  0  0
 25 27  1  0  0  0  0
 25 26  1  0  0  0  0
 25 53  1  0  0  0  0
 26 27  1  0  0  0  0
 26 54  1  0  0  0  0
 26 55  1  0  0  0  0
 27 28  1  0  0  0  0
 27 56  1  0  0  0  0
 28 57  1  0  0  0  0
 28 58  1  0  0  0  0
 28 59  1  0  0  0  0
 29 60  1  0  0  0  0
 29 61  1  0  0  0  0
M  CHG  1  24   1
M  END
> <s_m_source_file>
AV-unprocessed.smi

> <i_m_source_file_index>
193

> <i_lp_mmshare_version>
43012

> <i_f3d_flags>
0

> <s_epik_input>
W0NIM11bQ0BASF0xW0NIMl1bQ0BIXTFOKFtDSDJdMilbQ0gyXVtDSDJdTihbQ0gyXVtDQEhdMltDSDNdKWMobltjSF1uMyljKGMzNCluW2NIXW40W0NIMl1DNShbT0hdKVtDSDJdW0NIMl1PW0NIMl1bQ0gyXTU=

> <s_epik_cmdline>
J2VwaWtfcHl0aG9uJywgJy1waCcsICc3LjAnLCAnLXRuJywgJzgnLCAnLW1hJywgJzIwMCcsICctbWV0YWxfYmluZGluZycsICctaW1hZScsICc8aW5maWxlLm1hZT4nLCAnLW9tYWUnLCAnPG91dGZpbGUubWFlPic=

> <r_lp_tautomer_probability>
1

> <r_epik_Ionization_Penalty>
0.0540825

> <r_epik_Ionization_Penalty_Charging>
0.0538476

> <r_epik_Ionization_Penalty_Neutral>
0.000234891

> <r_epik_State_Penalty>
0.0200719

> <r_epik_Charging_Adjusted_Penalty>
0.0739194

> <i_epik_Tot_Q>
1

> <i_epik_Tot_abs_Q>
1

> <r_epik_Metal_State_Penalty>
0.0199414

> <b_epik_Metal_Only>
0

> <s_lp_Force_Field>
OPLS_2005

> <r_lp_Energy>
56.4216

> <b_lp_Chiralities_Consistent>
1

> <s_lp_Variant>
AV-unprocessed.smi:193-6

> <Gold.Version>
5.8.1

> <Gold.Id.Protein>
6NUR|6NUR_protein|mol2

> <Gold.PLP.Fitness>
42.6277

> <Gold.PLP.PLP>
-41.0243

> <Gold.PLP.part.hbond>
-1.9726

> <Gold.PLP.part.metal>
0.0000

> <Gold.PLP.part.buried>
-4.5395

> <Gold.PLP.part.nonpolar>
-33.6978

> <Gold.PLP.part.repulsive>
0.1915

> <Gold.PLP.ligand.clash>
0.0000

> <Gold.PLP.ligand.torsion>
2.0451

> <Gold.PLP.Chemscore.Hbond>
1.3914

> <Gold.PLP.Chemscore.CHOScore>
0.0000

> <Gold.PLP.Chemscore.Metal>
0.0000

> <Gold.Chemscore.Hbonds>
donor molecule, donor type, donor heavy atom, donor atom, acceptor molecule, acceptor atom, score
      P1  H  6896  6909       L1    16  0.34
      P1  H 10752 10764       L1     6  0.71

> <Gold.PLP.Chemscore.Internal.Correction>
1.5193

> <Gold.Rescore>
     Score         DG    S(hbond)    S(metal)    S(lipo)     H(rot)  DE(clash)    DE(int)     intcor
     11.45     -14.96       0.35        0.00     113.38       1.93       0.17       3.35       ----

> <Gold.Chemscore.Fitness>
11.4509

> <Gold.Chemscore.DG>
-14.9624

> <Gold.Chemscore.ZeroCoef>
-5.4800

> <Gold.Chemscore.Hbond>
0.3459

> <Gold.Chemscore.Metal>
0.0000

> <Gold.Chemscore.Lipo>
113.3794

> <Gold.Chemscore.Internal_Hbond>
0.0000

> <Gold.Chemscore.DEClash>
0.1660

> <Gold.Chemscore.DEInternal>
3.3454

> <Gold.Chemscore.Rot>
1.9290

> <Gold.Chemscore.Internal.Correction>
   9.000000E+99

> <Gold.Chemscore.Hbonds>
donor molecule, donor type, donor heavy atom, donor atom, acceptor molecule, acceptor atom, score
      P1  H  6896  6909       L1    16  0.01
      P1  H 10752 10764       L1     6  0.08

> <Gold.Chemscore.Hbond.Weighted>
-1.1553

> <Gold.Chemscore.Metal.Weighted>
-0.0000

> <Gold.Chemscore.Lipo.Weighted>
-13.2654

> <Gold.Chemscore.Internal_Hbond.Weighted>
0.0000

> <Gold.Chemscore.DEClash.Weighted>
0.1660

> <Gold.Chemscore.DEInternal.Weighted>
3.3454

> <Gold.Chemscore.Rot.Weighted>
4.9383

> <Gold.Chemscore.Internal.Correction.Weighted>
   9.000000E+99

> <Gold.Protein.RotatedTorsions>
[ 6907 6896 6895 6894 ] final   46.38 input  -60.11 | X-H torsion
[ 7974 7965 7964 7962 ] final  -34.76 input  175.53 | X-H torsion
[ 8008 7997 7996 7995 ] final  -67.10 input   59.86 | X-H torsion
[ 10167 10162 10161 10158 ] final  116.33 input  -65.29 | X-H torsion
[ 10718 10713 10712 10709 ] final  -98.13 input   66.30 | X-H torsion
[ 10763 10752 10751 10750 ] final  -58.31 input  -60.55 | X-H torsion
[ 11005 11000 10999 10996 ] final   55.27 input  -57.11 | X-H torsion

> <Gold.Protein.ActiveResidues>
 VAL166  LYS551  ARG553  GLY616  TRP617  ASP618  TYR619  PRO620  LYS621  CYS622 
 ASP623  PHE694  ASN695  SER759  ASP760  ASP761  ALA762  ILE779  LEU786  VAL792 
 PHE793  MET794  SER795  GLU796  ALA797  LYS798  CYS799  TRP800  GLU811  SER814 

> <Gold.Protein.RotatedAtoms>
  152.2558  134.8086  160.0438 H   0  0  0  0  0  0  0  0  0  0  0  0  # atno 6907 bound_to 6896
  151.8750  133.3478  159.3755 H   0  0  0  0  0  0  0  0  0  0  0  0  # atno 6908 bound_to 6896
  150.7099  134.5002  159.5602 H   0  0  0  0  0  0  0  0  0  0  0  0  # atno 6909 bound_to 6896
  146.0803  140.6077  142.8911 H   0  0  0  0  0  0  0  0  0  0  0  0  # atno 7974 bound_to 7965
  154.4777  140.0899  156.7303 H   0  0  0  0  0  0  0  0  0  0  0  0  # atno 8008 bound_to 7997
  155.4552  140.3459  155.4287 H   0  0  0  0  0  0  0  0  0  0  0  0  # atno 8009 bound_to 7997
  156.1143  140.1456  156.9283 H   0  0  0  0  0  0  0  0  0  0  0  0  # atno 8010 bound_to 7997
  139.6254  144.7107  151.2544 H   0  0  0  0  0  0  0  0  0  0  0  0  # atno 10167 bound_to 10162
  156.0100  130.5224  150.6477 H   0  0  0  0  0  0  0  0  0  0  0  0  # atno 10718 bound_to 10713
  154.2360  135.6352  153.5191 H   0  0  0  0  0  0  0  0  0  0  0  0  # atno 10763 bound_to 10752
  152.9939  135.5531  154.5961 H   0  0  0  0  0  0  0  0  0  0  0  0  # atno 10764 bound_to 10752
  154.5455  135.2898  155.1031 H   0  0  0  0  0  0  0  0  0  0  0  0  # atno 10765 bound_to 10752
  140.0620  134.5589  155.9141 H   0  0  0  0  0  0  0  0  0  0  0  0  # atno 11005 bound_to 11000
  144.7289  140.4610  143.6953 LP  0  0  0  0  0  0  0  0  0  0  0  0  # atno 17320 bound_to 7965
  145.6230  139.1526  143.3012 LP  0  0  0  0  0  0  0  0  0  0  0  0  # atno 17321 bound_to 7965
  140.7408  143.6577  150.8192 LP  0  0  0  0  0  0  0  0  0  0  0  0  # atno 17342 bound_to 10162
  140.0194  143.5558  152.2806 LP  0  0  0  0  0  0  0  0  0  0  0  0  # atno 17343 bound_to 10162
  157.4245  131.0841  151.1099 LP  0  0  0  0  0  0  0  0  0  0  0  0  # atno 17370 bound_to 10713
  157.1691  130.6259  149.5635 LP  0  0  0  0  0  0  0  0  0  0  0  0  # atno 17371 bound_to 10713
  141.1977  133.6598  156.5755 LP  0  0  0  0  0  0  0  0  0  0  0  0  # atno 17394 bound_to 11000
  140.3755  134.7568  157.4627 LP  0  0  0  0  0  0  0  0  0  0  0  0  # atno 17395 bound_to 11000

$$$$
