AV-unprocessed.smi:274|AV-procd|sdf|2060|dock1
  -GOLD-   2262021303D 1   1.00000     0.00000
 Structure written by MMmdl.
 50 53  0  0  0  0  0  0  0  0  1 V2000
  151.1294  141.8421  156.0857 C   0  0  0  0  0  0  0  0  0  0  0  0
  149.6491  141.5683  156.4196 C   0  0  0  0  0  0  0  0  0  0  0  0
  149.4191  141.8297  157.9221 C   0  0  0  0  0  0  0  0  0  0  0  0
  149.1684  140.1452  155.9927 C   0  0  2  0  0  0  0  0  0  0  0  0
  149.4392  139.8472  154.4959 C   0  0  0  0  0  0  0  0  0  0  0  0
  150.5756  139.5639  154.1226 O   0  0  0  0  0  0  0  0  0  0  0  0
  148.4118  139.8708  153.6276 N   0  0  0  0  0  0  0  0  0  0  0  0
  147.0068  140.1104  153.9580 C   0  0  0  0  0  0  0  0  0  0  0  0
  146.7957  140.6226  155.3941 C   0  0  0  0  0  0  0  0  0  0  0  0
  147.7389  139.9842  156.3092 N   0  0  0  0  0  0  0  0  0  0  0  0
  147.3075  138.8068  156.8319 C   0  0  0  0  0  0  0  0  0  0  0  0
  146.0874  138.3118  156.4921 N   0  0  0  0  0  0  0  0  0  0  0  0
  145.6531  137.1653  157.0229 C   0  0  0  0  0  0  0  0  0  0  0  0
  146.2644  136.3681  157.9010 N   0  0  0  0  0  0  0  0  0  0  0  0
  147.4894  136.8590  158.2458 C   0  0  0  0  0  0  0  0  0  0  0  0
  148.0839  138.0566  157.7580 C   0  0  0  0  0  0  0  0  0  0  0  0
  149.3459  138.2209  158.3159 N   0  0  0  0  0  0  0  0  0  0  0  0
  149.4865  137.1828  159.0940 C   0  0  0  0  0  0  0  0  0  0  0  0
  148.4124  136.3217  159.1268 N   0  0  0  0  0  0  0  0  0  0  0  0
  148.2961  135.0974  159.9053 C   0  0  0  0  0  0  0  0  0  0  0  0
  147.9966  135.3257  161.4096 C   0  0  2  0  0  0  0  0  0  0  0  0
  148.9415  136.2341  161.9446 O   0  0  0  0  0  0  0  0  0  0  0  0
  148.0001  134.0469  162.2509 C   0  0  0  0  0  0  0  0  0  0  0  0
  146.5209  133.7107  162.3706 C   0  0  0  0  0  0  0  0  0  0  0  0
  145.9335  134.9887  162.5318 O   0  0  0  0  0  0  0  0  0  0  0  0
  146.5723  135.8782  161.6245 C   0  0  0  0  0  0  0  0  0  0  0  0
  151.7805  141.0852  156.5239 H   0  0  0  0  0  0  0  0  0  0  0  0
  151.4454  142.8119  156.4708 H   0  0  0  0  0  0  0  0  0  0  0  0
  151.3109  141.8628  155.0117 H   0  0  0  0  0  0  0  0  0  0  0  0
  149.0658  142.3107  155.8740 H   0  0  0  0  0  0  0  0  0  0  0  0
  149.9416  141.0942  158.5345 H   0  0  0  0  0  0  0  0  0  0  0  0
  148.3622  141.7939  158.1872 H   0  0  0  0  0  0  0  0  0  0  0  0
  149.7811  142.8171  158.2100 H   0  0  0  0  0  0  0  0  0  0  0  0
  149.7528  139.4305  156.5753 H   0  0  0  0  0  0  0  0  0  0  0  0
  148.6185  139.6690  152.6601 H   0  0  0  0  0  0  0  0  0  0  0  0
  146.5713  140.8022  153.2370 H   0  0  0  0  0  0  0  0  0  0  0  0
  146.4840  139.1612  153.8356 H   0  0  0  0  0  0  0  0  0  0  0  0
  146.9587  141.6996  155.4269 H   0  0  0  0  0  0  0  0  0  0  0  0
  145.7576  140.4753  155.6931 H   0  0  0  0  0  0  0  0  0  0  0  0
  144.6748  136.8417  156.6994 H   0  0  0  0  0  0  0  0  0  0  0  0
  150.3834  137.0186  159.6735 H   0  0  0  0  0  0  0  0  0  0  0  0
  147.5102  134.4870  159.4578 H   0  0  0  0  0  0  0  0  0  0  0  0
  149.2218  134.5324  159.7885 H   0  0  0  0  0  0  0  0  0  0  0  0
  149.1725  135.9477  162.8150 H   0  0  0  0  0  0  0  0  0  0  0  0
  148.5808  133.2280  161.8302 H   0  0  0  0  0  0  0  0  0  0  0  0
  148.3939  134.2420  163.2499 H   0  0  0  0  0  0  0  0  0  0  0  0
  146.1477  133.2417  161.4586 H   0  0  0  0  0  0  0  0  0  0  0  0
  146.3023  133.0559  163.2143 H   0  0  0  0  0  0  0  0  0  0  0  0
  146.5579  136.8950  162.0189 H   0  0  0  0  0  0  0  0  0  0  0  0
  146.0054  135.8836  160.6927 H   0  0  0  0  0  0  0  0  0  0  0  0
  1  2  1  0  0  0  0
  1 27  1  0  0  0  0
  1 28  1  0  0  0  0
  1 29  1  0  0  0  0
  2  3  1  0  0  0  0
  2  4  1  0  0  0  0
  2 30  1  0  0  0  0
  3 31  1  0  0  0  0
  3 32  1  0  0  0  0
  3 33  1  0  0  0  0
  4 10  1  0  0  0  0
  4  5  1  0  0  0  0
  4 34  1  0  0  0  0
  5  6  2  0  0  0  0
  5  7  1  0  0  0  0
  7  8  1  0  0  0  0
  7 35  1  0  0  0  0
  8  9  1  0  0  0  0
  8 36  1  0  0  0  0
  8 37  1  0  0  0  0
  9 10  1  0  0  0  0
  9 38  1  0  0  0  0
  9 39  1  0  0  0  0
 10 11  1  0  0  0  0
 11 16  1  0  0  0  0
 11 12  2  0  0  0  0
 12 13  1  0  0  0  0
 13 14  2  0  0  0  0
 13 40  1  0  0  0  0
 14 15  1  0  0  0  0
 15 19  1  0  0  0  0
 15 16  2  0  0  0  0
 16 17  1  0  0  0  0
 17 18  2  0  0  0  0
 18 19  1  0  0  0  0
 18 41  1  0  0  0  0
 19 20  1  0  0  0  0
 20 21  1  0  0  0  0
 20 42  1  0  0  0  0
 20 43  1  0  0  0  0
 21 26  1  0  0  0  0
 21 22  1  0  0  0  0
 21 23  1  0  0  0  0
 22 44  1  0  0  0  0
 23 24  1  0  0  0  0
 23 45  1  0  0  0  0
 23 46  1  0  0  0  0
 24 25  1  0  0  0  0
 24 47  1  0  0  0  0
 24 48  1  0  0  0  0
 25 26  1  0  0  0  0
 26 49  1  0  0  0  0
 26 50  1  0  0  0  0
M  END
> <s_m_source_file>
AV-unprocessed.smi

> <i_m_source_file_index>
274

> <i_lp_mmshare_version>
43012

> <i_f3d_flags>
0

> <s_epik_input>
W0NIM11bQ0hdKFtDSDNdKVtDQEBIXTFDKD1PKVtOSF1bQ0gyXVtDSDJdTjFjKG5bY0hdbjIpYyhjMjMpbltjSF1uM1tDSDJdW0NAQF00KFtPSF0pW0NIMl1bQ0gyXU9bQ0gyXTQ=

> <s_epik_cmdline>
J2VwaWtfcHl0aG9uJywgJy1waCcsICc3LjAnLCAnLXRuJywgJzgnLCAnLW1hJywgJzIwMCcsICctbWV0YWxfYmluZGluZycsICctaW1hZScsICc8aW5maWxlLm1hZT4nLCAnLW9tYWUnLCAnPG91dGZpbGUubWFlPic=

> <r_lp_tautomer_probability>
1

> <r_epik_Ionization_Penalty>
0.000690079

> <r_epik_Ionization_Penalty_Charging>
0

> <r_epik_Ionization_Penalty_Neutral>
0.000690079

> <r_epik_State_Penalty>
0.000321372

> <r_epik_Charging_Adjusted_Penalty>
0.000321372

> <i_epik_Tot_Q>
0

> <i_epik_Tot_abs_Q>
0

> <r_epik_Metal_State_Penalty>
-0

> <b_epik_Metal_Only>
0

> <s_lp_Force_Field>
OPLS_2005

> <r_lp_Energy>
42.4

> <b_lp_Chiralities_Consistent>
1

> <s_lp_Variant>
AV-unprocessed.smi:274-3

> <Gold.Version>
5.8.1

> <Gold.Id.Protein>
6NUR|6NUR_protein|mol2

> <Gold.PLP.Fitness>
40.5628

> <Gold.PLP.PLP>
-32.1672

> <Gold.PLP.part.hbond>
-3.2343

> <Gold.PLP.part.metal>
0.0000

> <Gold.PLP.part.buried>
-5.6910

> <Gold.PLP.part.nonpolar>
-23.3462

> <Gold.PLP.part.repulsive>
0.2052

> <Gold.PLP.ligand.clash>
0.0000

> <Gold.PLP.ligand.torsion>
0.5989

> <Gold.PLP.Chemscore.Hbond>
3.0000

> <Gold.PLP.Chemscore.CHOScore>
0.0000

> <Gold.PLP.Chemscore.Metal>
0.0000

> <Gold.Chemscore.Hbonds>
donor molecule, donor type, donor heavy atom, donor atom, acceptor molecule, acceptor atom, score
      L1  H     7    35       P1  7957  0.99
      P1  H  6931  6943       L1    22  1.00
      P1  H  7989  7998       L1     6  1.00

> <Gold.PLP.Chemscore.Internal.Correction>
0.5935

> <Gold.Rescore>
     Score         DG    S(hbond)    S(metal)    S(lipo)     H(rot)  DE(clash)    DE(int)     intcor
     15.78     -16.41       2.86        0.00      66.56       2.50       0.07       0.56       ----

> <Gold.Chemscore.Fitness>
15.7795

> <Gold.Chemscore.DG>
-16.4092

> <Gold.Chemscore.ZeroCoef>
-5.4800

> <Gold.Chemscore.Hbond>
2.8558

> <Gold.Chemscore.Metal>
0.0000

> <Gold.Chemscore.Lipo>
66.5618

> <Gold.Chemscore.Internal_Hbond>
0.0000

> <Gold.Chemscore.DEClash>
0.0725

> <Gold.Chemscore.DEInternal>
0.5572

> <Gold.Chemscore.Rot>
2.4988

> <Gold.Chemscore.Internal.Correction>
   9.000000E+99

> <Gold.Chemscore.Hbonds>
donor molecule, donor type, donor heavy atom, donor atom, acceptor molecule, acceptor atom, score
      L1  H     7    35       P1  7957  0.93
      P1  H  6931  6943       L1    22  0.58
      P1  H  7989  7998       L1     6  0.97

> <Gold.Chemscore.Hbond.Weighted>
-9.5385

> <Gold.Chemscore.Metal.Weighted>
-0.0000

> <Gold.Chemscore.Lipo.Weighted>
-7.7877

> <Gold.Chemscore.Internal_Hbond.Weighted>
0.0000

> <Gold.Chemscore.DEClash.Weighted>
0.0725

> <Gold.Chemscore.DEInternal.Weighted>
0.5572

> <Gold.Chemscore.Rot.Weighted>
6.3970

> <Gold.Chemscore.Internal.Correction.Weighted>
   9.000000E+99

> <Gold.Protein.RotatedTorsions>
[ 6907 6896 6895 6894 ] final  119.07 input  -60.11 | X-H torsion
[ 7974 7965 7964 7962 ] final  146.78 input  175.53 | X-H torsion
[ 8008 7997 7996 7995 ] final  146.29 input   59.86 | X-H torsion
[ 10167 10162 10161 10158 ] final   29.50 input  -65.29 | X-H torsion
[ 10718 10713 10712 10709 ] final -117.61 input   66.30 | X-H torsion
[ 10763 10752 10751 10750 ] final -152.86 input  -60.55 | X-H torsion
[ 11005 11000 10999 10996 ] final  144.74 input  -57.11 | X-H torsion

> <Gold.Protein.ActiveResidues>
 VAL166  LYS551  ARG553  GLY616  TRP617  ASP618  TYR619  PRO620  LYS621  CYS622 
 ASP623  PHE694  ASN695  SER759  ASP760  ASP761  ALA762  ILE779  LEU786  VAL792 
 PHE793  MET794  SER795  GLU796  ALA797  LYS798  CYS799  TRP800  GLU811  SER814 

> <Gold.Protein.RotatedAtoms>
  152.4498  133.7607  159.6744 H   0  0  0  0  0  0  0  0  0  0  0  0  # atno 6907 bound_to 6896
  150.8407  133.7930  159.3068 H   0  0  0  0  0  0  0  0  0  0  0  0  # atno 6908 bound_to 6896
  151.5556  135.1069  160.0012 H   0  0  0  0  0  0  0  0  0  0  0  0  # atno 6909 bound_to 6896
  144.8644  139.5947  143.5916 H   0  0  0  0  0  0  0  0  0  0  0  0  # atno 7974 bound_to 7965
  156.2859  140.2186  156.5352 H   0  0  0  0  0  0  0  0  0  0  0  0  # atno 8008 bound_to 7997
  154.7415  140.0487  157.0838 H   0  0  0  0  0  0  0  0  0  0  0  0  # atno 8009 bound_to 7997
  155.0224  140.3125  155.4791 H   0  0  0  0  0  0  0  0  0  0  0  0  # atno 8010 bound_to 7997
  140.4760  144.0689  150.6251 H   0  0  0  0  0  0  0  0  0  0  0  0  # atno 10167 bound_to 10162
  156.1046  130.6200  150.9186 H   0  0  0  0  0  0  0  0  0  0  0  0  # atno 10718 bound_to 10713
  154.7966  135.3226  154.7652 H   0  0  0  0  0  0  0  0  0  0  0  0  # atno 10763 bound_to 10752
  153.8329  135.6878  153.4816 H   0  0  0  0  0  0  0  0  0  0  0  0  # atno 10764 bound_to 10752
  153.1661  135.4641  154.9781 H   0  0  0  0  0  0  0  0  0  0  0  0  # atno 10765 bound_to 10752
  140.0656  134.9180  157.1259 H   0  0  0  0  0  0  0  0  0  0  0  0  # atno 11005 bound_to 11000
  146.2884  139.7070  142.9178 LP  0  0  0  0  0  0  0  0  0  0  0  0  # atno 17320 bound_to 7965
  145.4251  141.0410  143.2942 LP  0  0  0  0  0  0  0  0  0  0  0  0  # atno 17321 bound_to 7965
  140.3918  143.2749  152.0051 LP  0  0  0  0  0  0  0  0  0  0  0  0  # atno 17342 bound_to 10162
  139.4825  144.6071  151.7501 LP  0  0  0  0  0  0  0  0  0  0  0  0  # atno 17343 bound_to 10162
  157.6221  131.0929  150.8602 LP  0  0  0  0  0  0  0  0  0  0  0  0  # atno 17370 bound_to 10713
  156.8723  130.5150  149.5296 LP  0  0  0  0  0  0  0  0  0  0  0  0  # atno 17371 bound_to 10713
  140.3703  134.2397  155.7178 LP  0  0  0  0  0  0  0  0  0  0  0  0  # atno 17394 bound_to 11000
  141.1991  133.8019  157.0550 LP  0  0  0  0  0  0  0  0  0  0  0  0  # atno 17395 bound_to 11000

$$$$
