AV-unprocessed.smi:2055|AV-procd|sdf|8335|dock3
  -GOLD-   2272011 03D 1   1.00000     0.00000
 Structure written by MMmdl.
 43 44  0  0  0  0  0  0  0  0  1 V2000
  145.5187  136.2920  155.0702 C   0  0  0  0  0  0  0  0  0  0  0  0
  145.8175  136.4459  153.5709 C   0  0  1  0  0  0  0  0  0  0  0  0
  144.7014  137.2055  152.8259 C   0  0  0  0  0  0  0  0  0  0  0  0
  145.2206  137.8548  151.6849 O   0  0  0  0  0  0  0  0  0  0  0  0
  147.0930  137.1377  153.4076 N   0  0  0  0  0  0  0  0  0  0  0  0
  147.3366  138.4074  153.7613 C   0  0  0  0  0  0  0  0  0  0  0  0
  146.4962  139.1634  154.2487 O   0  0  0  0  0  0  0  0  0  0  0  0
  148.6153  138.7458  153.5454 N   0  0  0  0  0  0  0  0  0  0  0  0
  149.2067  140.0349  153.8922 C   0  0  0  0  0  0  0  0  0  0  0  0
  150.3456  139.9764  154.9051 C   0  0  0  0  0  0  0  0  0  0  0  0
  151.3217  138.9687  154.7853 C   0  0  0  0  0  0  0  0  0  0  0  0
  152.3629  138.9252  155.7297 C   0  0  0  0  0  0  0  0  0  0  0  0
  152.4761  139.8036  156.7471 N   0  0  0  0  0  0  0  0  0  0  0  0
  151.5464  140.7799  156.8792 C   0  0  0  0  0  0  0  0  0  0  0  0
  151.7295  141.6850  157.9481 N   0  0  0  0  0  0  0  0  0  0  0  0
  152.7816  141.4186  158.9251 C   0  0  0  0  0  0  0  0  0  0  0  0
  152.5876  142.2926  160.1755 C   0  0  0  0  0  0  0  0  0  0  0  0
  152.5124  143.6627  159.7972 O   0  0  0  0  0  0  0  0  0  0  0  0
  151.3992  143.9141  158.9459 C   0  0  0  0  0  0  0  0  0  0  0  0
  151.5408  143.1029  157.6466 C   0  0  0  0  0  0  0  0  0  0  0  0
  150.4576  140.8912  155.9778 C   0  0  0  0  0  0  0  0  0  0  0  0
  144.5923  135.7411  155.2340 H   0  0  0  0  0  0  0  0  0  0  0  0
  145.4188  137.2624  155.5574 H   0  0  0  0  0  0  0  0  0  0  0  0
  146.3160  135.7460  155.5750 H   0  0  0  0  0  0  0  0  0  0  0  0
  145.9125  135.4464  153.1417 H   0  0  0  0  0  0  0  0  0  0  0  0
  143.8968  136.5317  152.5300 H   0  0  0  0  0  0  0  0  0  0  0  0
  144.2599  137.9699  153.4664 H   0  0  0  0  0  0  0  0  0  0  0  0
  144.5103  138.0202  151.0839 H   0  0  0  0  0  0  0  0  0  0  0  0
  147.8522  136.6001  153.0159 H   0  0  0  0  0  0  0  0  0  0  0  0
  149.2312  138.0556  153.1417 H   0  0  0  0  0  0  0  0  0  0  0  0
  149.5891  140.4863  152.9766 H   0  0  0  0  0  0  0  0  0  0  0  0
  148.4287  140.7044  154.2634 H   0  0  0  0  0  0  0  0  0  0  0  0
  151.2762  138.2435  153.9860 H   0  0  0  0  0  0  0  0  0  0  0  0
  153.1271  138.1649  155.6663 H   0  0  0  0  0  0  0  0  0  0  0  0
  152.7672  140.3691  159.2215 H   0  0  0  0  0  0  0  0  0  0  0  0
  153.7531  141.6219  158.4728 H   0  0  0  0  0  0  0  0  0  0  0  0
  151.6848  142.0031  160.7158 H   0  0  0  0  0  0  0  0  0  0  0  0
  153.4244  142.1576  160.8607 H   0  0  0  0  0  0  0  0  0  0  0  0
  150.4702  143.6633  159.4607 H   0  0  0  0  0  0  0  0  0  0  0  0
  151.3591  144.9796  158.7196 H   0  0  0  0  0  0  0  0  0  0  0  0
  152.4008  143.4570  157.0770 H   0  0  0  0  0  0  0  0  0  0  0  0
  150.6589  143.2703  157.0285 H   0  0  0  0  0  0  0  0  0  0  0  0
  149.7124  141.6612  156.1017 H   0  0  0  0  0  0  0  0  0  0  0  0
  1  2  1  0  0  0  0
  1 22  1  0  0  0  0
  1 23  1  0  0  0  0
  1 24  1  0  0  0  0
  2  3  1  0  0  0  0
  2  5  1  0  0  0  0
  2 25  1  0  0  0  0
  3  4  1  0  0  0  0
  3 26  1  0  0  0  0
  3 27  1  0  0  0  0
  4 28  1  0  0  0  0
  5  6  1  0  0  0  0
  5 29  1  0  0  0  0
  6  7  2  0  0  0  0
  6  8  1  0  0  0  0
  8  9  1  0  0  0  0
  8 30  1  0  0  0  0
  9 10  1  0  0  0  0
  9 31  1  0  0  0  0
  9 32  1  0  0  0  0
 10 21  1  0  0  0  0
 10 11  2  0  0  0  0
 11 12  1  0  0  0  0
 11 33  1  0  0  0  0
 12 13  2  0  0  0  0
 12 34  1  0  0  0  0
 13 14  1  0  0  0  0
 14 15  1  0  0  0  0
 14 21  2  0  0  0  0
 15 20  1  0  0  0  0
 15 16  1  0  0  0  0
 16 17  1  0  0  0  0
 16 35  1  0  0  0  0
 16 36  1  0  0  0  0
 17 18  1  0  0  0  0
 17 37  1  0  0  0  0
 17 38  1  0  0  0  0
 18 19  1  0  0  0  0
 19 20  1  0  0  0  0
 19 39  1  0  0  0  0
 19 40  1  0  0  0  0
 20 41  1  0  0  0  0
 20 42  1  0  0  0  0
 21 43  1  0  0  0  0
M  END
> <s_m_source_file>
AV-unprocessed.smi

> <i_m_source_file_index>
2055

> <i_lp_mmshare_version>
43012

> <i_f3d_flags>
0

> <s_epik_input>
W09IXVtDSDJdW0NAQEhdKFtDSDNdKVtOSF1DKD1PKVtOSF1bQ0gyXWMxW2NIXVtjSF1uYyhbY0hdMSlOMltDSDJdW0NIMl1PW0NIMl1bQ0gyXTI=

> <s_epik_cmdline>
J2VwaWtfcHl0aG9uJywgJy1waCcsICc3LjAnLCAnLXRuJywgJzgnLCAnLW1hJywgJzIwMCcsICctbWV0YWxfYmluZGluZycsICctaW1hZScsICc8aW5maWxlLm1hZT4nLCAnLW9tYWUnLCAnPG91dGZpbGUubWFlPic=

> <r_lp_tautomer_probability>
1

> <r_epik_Ionization_Penalty>
0.0122173

> <r_epik_Ionization_Penalty_Charging>
0

> <r_epik_Ionization_Penalty_Neutral>
0.0122173

> <r_epik_State_Penalty>
0.00940497

> <r_epik_Charging_Adjusted_Penalty>
0.00940497

> <i_epik_Tot_Q>
0

> <i_epik_Tot_abs_Q>
0

> <r_epik_Metal_State_Penalty>
0.00921475

> <b_epik_Metal_Only>
0

> <s_lp_Force_Field>
OPLS_2005

> <r_lp_Energy>
11.6971

> <b_lp_Chiralities_Consistent>
1

> <s_lp_Variant>
AV-unprocessed.smi:2055-2

> <Gold.Version>
5.8.1

> <Gold.Id.Protein>
6NUR|6NUR_protein|mol2

> <Gold.PLP.Fitness>
44.9953

> <Gold.PLP.PLP>
-36.0063

> <Gold.PLP.part.hbond>
-5.4705

> <Gold.PLP.part.metal>
0.0000

> <Gold.PLP.part.buried>
-2.3314

> <Gold.PLP.part.nonpolar>
-28.4649

> <Gold.PLP.part.repulsive>
0.1935

> <Gold.PLP.ligand.clash>
0.0000

> <Gold.PLP.ligand.torsion>
0.8256

> <Gold.PLP.Chemscore.Hbond>
3.3628

> <Gold.PLP.Chemscore.CHOScore>
0.0000

> <Gold.PLP.Chemscore.Metal>
0.0000

> <Gold.Chemscore.Hbonds>
donor molecule, donor type, donor heavy atom, donor atom, acceptor molecule, acceptor atom, score
      L1  H     4    28       P1 10171  1.00
      L1  H     5    29       P1  7948  1.00
      L1  H     8    30       P1  7948  0.39
      P1  H  7997  8009       L1    13  1.00

> <Gold.PLP.Chemscore.Internal.Correction>
0.5519

> <Gold.Rescore>
     Score         DG    S(hbond)    S(metal)    S(lipo)     H(rot)  DE(clash)    DE(int)     intcor
     16.44     -19.43       3.27        0.00      85.02       2.70       1.49       1.50       ----

> <Gold.Chemscore.Fitness>
16.4406

> <Gold.Chemscore.DG>
-19.4268

> <Gold.Chemscore.ZeroCoef>
-5.4800

> <Gold.Chemscore.Hbond>
3.2692

> <Gold.Chemscore.Metal>
0.0000

> <Gold.Chemscore.Lipo>
85.0220

> <Gold.Chemscore.Internal_Hbond>
0.0000

> <Gold.Chemscore.DEClash>
1.4881

> <Gold.Chemscore.DEInternal>
1.4982

> <Gold.Chemscore.Rot>
2.7031

> <Gold.Chemscore.Internal.Correction>
   9.000000E+99

> <Gold.Chemscore.Hbonds>
donor molecule, donor type, donor heavy atom, donor atom, acceptor molecule, acceptor atom, score
      L1  H     4    28       P1 10171  0.92
      L1  H     5    29       P1  7948  0.97
      L1  H     8    30       P1  7948  0.38
      P1  H  7997  8009       L1    13  0.28

> <Gold.Chemscore.Hbond.Weighted>
-10.9192

> <Gold.Chemscore.Metal.Weighted>
-0.0000

> <Gold.Chemscore.Lipo.Weighted>
-9.9476

> <Gold.Chemscore.Internal_Hbond.Weighted>
0.0000

> <Gold.Chemscore.DEClash.Weighted>
1.4881

> <Gold.Chemscore.DEInternal.Weighted>
1.4982

> <Gold.Chemscore.Rot.Weighted>
6.9199

> <Gold.Chemscore.Internal.Correction.Weighted>
   9.000000E+99

> <Gold.Protein.RotatedTorsions>
[ 6907 6896 6895 6894 ] final  170.59 input  -60.11 | X-H torsion
[ 7974 7965 7964 7962 ] final   -8.60 input  175.53 | X-H torsion
[ 8008 7997 7996 7995 ] final  170.07 input   59.86 | X-H torsion
[ 10167 10162 10161 10158 ] final -155.56 input  -65.29 | X-H torsion
[ 10718 10713 10712 10709 ] final   26.41 input   66.30 | X-H torsion
[ 10763 10752 10751 10750 ] final   40.06 input  -60.55 | X-H torsion
[ 11005 11000 10999 10996 ] final  -64.22 input  -57.11 | X-H torsion

> <Gold.Protein.ActiveResidues>
 VAL166  LYS551  ARG553  GLY616  TRP617  ASP618  TYR619  PRO620  LYS621  CYS622 
 ASP623  PHE694  ASN695  SER759  ASP760  ASP761  ALA762  ILE779  LEU786  VAL792 
 PHE793  MET794  SER795  GLU796  ALA797  LYS798  CYS799  TRP800  GLU811  SER814 

> <Gold.Protein.RotatedAtoms>
  151.8136  133.3385  159.3562 H   0  0  0  0  0  0  0  0  0  0  0  0  # atno 6907 bound_to 6896
  150.7317  134.5640  159.5866 H   0  0  0  0  0  0  0  0  0  0  0  0  # atno 6908 bound_to 6896
  152.3057  134.7559  160.0399 H   0  0  0  0  0  0  0  0  0  0  0  0  # atno 6909 bound_to 6896
  146.2276  140.2492  142.8346 H   0  0  0  0  0  0  0  0  0  0  0  0  # atno 7974 bound_to 7965
  156.1399  140.1547  156.8936 H   0  0  0  0  0  0  0  0  0  0  0  0  # atno 8008 bound_to 7997
  154.4979  140.0833  156.7774 H   0  0  0  0  0  0  0  0  0  0  0  0  # atno 8009 bound_to 7997
  155.4097  140.3418  155.4265 H   0  0  0  0  0  0  0  0  0  0  0  0  # atno 8010 bound_to 7997
  139.6921  143.9403  152.2390 H   0  0  0  0  0  0  0  0  0  0  0  0  # atno 10167 bound_to 10162
  157.2064  130.6914  149.6210 H   0  0  0  0  0  0  0  0  0  0  0  0  # atno 10718 bound_to 10713
  152.9948  135.6202  154.2565 H   0  0  0  0  0  0  0  0  0  0  0  0  # atno 10763 bound_to 10752
  154.2302  135.2792  155.2894 H   0  0  0  0  0  0  0  0  0  0  0  0  # atno 10764 bound_to 10752
  154.5456  135.5748  153.6935 H   0  0  0  0  0  0  0  0  0  0  0  0  # atno 10765 bound_to 10752
  141.1418  133.6663  156.5800 H   0  0  0  0  0  0  0  0  0  0  0  0  # atno 11005 bound_to 11000
  144.9424  140.8093  143.5622 LP  0  0  0  0  0  0  0  0  0  0  0  0  # atno 17320 bound_to 7965
  145.2445  139.2058  143.4975 LP  0  0  0  0  0  0  0  0  0  0  0  0  # atno 17321 bound_to 7965
  139.9222  144.6793  150.8450 LP  0  0  0  0  0  0  0  0  0  0  0  0  # atno 17342 bound_to 10162
  140.7686  143.3367  151.2294 LP  0  0  0  0  0  0  0  0  0  0  0  0  # atno 17343 bound_to 10162
  155.9695  130.4565  150.5929 LP  0  0  0  0  0  0  0  0  0  0  0  0  # atno 17370 bound_to 10713
  157.3716  131.0766  151.1553 LP  0  0  0  0  0  0  0  0  0  0  0  0  # atno 17371 bound_to 10713
  140.3845  134.7494  157.4682 LP  0  0  0  0  0  0  0  0  0  0  0  0  # atno 17394 bound_to 11000
  140.0613  134.5992  155.8746 LP  0  0  0  0  0  0  0  0  0  0  0  0  # atno 17395 bound_to 11000

$$$$
