AV-unprocessed.smi:3226|AV-procd|sdf|12316|dock9
  -GOLD-   2272018163D 1   1.00000     0.00000
 Structure written by MMmdl.
 41 43  0  0  0  0  0  0  0  0  2 V2000
  152.1419  129.3907  155.9298 C   0  0  0  0  0  0  0  0  0  0  0  0
  150.9092  130.2168  155.5461 C   0  0  0  0  0  0  0  0  0  0  0  0
  150.7740  131.4622  156.3666 C   0  0  0  0  0  0  0  0  0  0  0  0
  151.5666  131.7460  157.4071 N   0  0  0  0  0  0  0  0  0  0  0  0
  151.1474  132.9765  157.8715 N   0  0  0  0  0  0  0  0  0  0  0  0
  150.1500  133.3187  157.0585 C   0  0  0  0  0  0  0  0  0  0  0  0
  149.8617  132.4218  156.1025 N   0  0  0  0  0  0  0  0  0  0  0  0
  148.8391  132.5004  155.0730 C   0  0  0  0  0  0  0  0  0  0  0  0
  149.0881  133.6533  154.0869 C   0  0  0  0  0  0  0  0  0  0  0  0
  147.8747  133.9810  153.3111 N   0  3  0  0  0  0  0  0  0  0  0  0
  147.1379  132.8003  152.8203 C   0  0  0  0  0  0  0  0  0  0  0  0
  146.1734  133.1791  151.6812 C   0  0  1  0  0  0  0  0  0  0  0  0
  146.7285  132.8748  150.2532 C   0  0  0  0  0  0  0  0  0  0  0  0
  145.6284  131.9859  149.6284 C   0  0  2  0  0  0  0  0  0  0  0  0
  144.3692  132.8161  149.4925 C   0  0  0  0  0  0  0  0  0  0  0  0
  143.9030  133.0337  150.7237 C   0  0  0  0  0  0  0  0  0  0  0  0
  144.8551  132.3612  151.6913 C   0  0  1  0  0  0  0  0  0  0  0  0
  145.2592  131.1422  150.8513 C   0  0  0  0  0  0  0  0  0  0  0  0
  152.2118  128.4898  155.3198 H   0  0  0  0  0  0  0  0  0  0  0  0
  152.0994  129.0828  156.9751 H   0  0  0  0  0  0  0  0  0  0  0  0
  153.0594  129.9619  155.7860 H   0  0  0  0  0  0  0  0  0  0  0  0
  150.9449  130.4734  154.4877 H   0  0  0  0  0  0  0  0  0  0  0  0
  150.0107  129.6135  155.6813 H   0  0  0  0  0  0  0  0  0  0  0  0
  149.6111  134.2487  157.1662 H   0  0  0  0  0  0  0  0  0  0  0  0
  148.8009  131.5473  154.5437 H   0  0  0  0  0  0  0  0  0  0  0  0
  147.8688  132.6224  155.5550 H   0  0  0  0  0  0  0  0  0  0  0  0
  149.4014  134.5391  154.6410 H   0  0  0  0  0  0  0  0  0  0  0  0
  149.9003  133.4025  153.4033 H   0  0  0  0  0  0  0  0  0  0  0  0
  147.2563  134.5258  153.8953 H   0  0  0  0  0  0  0  0  0  0  0  0
  147.8486  132.0408  152.4934 H   0  0  0  0  0  0  0  0  0  0  0  0
  146.5732  132.3730  153.6501 H   0  0  0  0  0  0  0  0  0  0  0  0
  145.9353  134.2408  151.7734 H   0  0  0  0  0  0  0  0  0  0  0  0
  146.8968  133.7842  149.6748 H   0  0  0  0  0  0  0  0  0  0  0  0
  147.6739  132.3321  150.2972 H   0  0  0  0  0  0  0  0  0  0  0  0
  145.9070  131.4234  148.7371 H   0  0  0  0  0  0  0  0  0  0  0  0
  143.9636  133.1747  148.5579 H   0  0  0  0  0  0  0  0  0  0  0  0
  143.0361  133.6104  151.0106 H   0  0  0  0  0  0  0  0  0  0  0  0
  144.4250  132.1388  152.6682 H   0  0  0  0  0  0  0  0  0  0  0  0
  144.4268  130.4612  150.6621 H   0  0  0  0  0  0  0  0  0  0  0  0
  146.0918  130.5676  151.2600 H   0  0  0  0  0  0  0  0  0  0  0  0
  148.1434  134.5412  152.5147 H   0  0  0  0  0  0  0  0  0  0  0  0
  1  2  1  0  0  0  0
  1 19  1  0  0  0  0
  1 20  1  0  0  0  0
  1 21  1  0  0  0  0
  2  3  1  0  0  0  0
  2 22  1  0  0  0  0
  2 23  1  0  0  0  0
  3  7  1  0  0  0  0
  3  4  2  0  0  0  0
  4  5  1  0  0  0  0
  5  6  2  0  0  0  0
  6  7  1  0  0  0  0
  6 24  1  0  0  0  0
  7  8  1  0  0  0  0
  8  9  1  0  0  0  0
  8 25  1  0  0  0  0
  8 26  1  0  0  0  0
  9 10  1  0  0  0  0
  9 27  1  0  0  0  0
  9 28  1  0  0  0  0
 10 11  1  0  0  0  0
 10 29  1  0  0  0  0
 10 41  1  0  0  0  0
 11 12  1  0  0  0  0
 11 30  1  0  0  0  0
 11 31  1  0  0  0  0
 12 17  1  0  0  0  0
 12 13  1  0  0  0  0
 12 32  1  0  0  0  0
 13 14  1  0  0  0  0
 13 33  1  0  0  0  0
 13 34  1  0  0  0  0
 14 18  1  0  0  0  0
 14 15  1  0  0  0  0
 14 35  1  0  0  0  0
 15 16  2  0  0  0  0
 15 36  1  0  0  0  0
 16 17  1  0  0  0  0
 16 37  1  0  0  0  0
 17 18  1  0  0  0  0
 17 38  1  0  0  0  0
 18 39  1  0  0  0  0
 18 40  1  0  0  0  0
M  CHG  1  10   1
M  END
> <s_m_source_file>
AV-unprocessed.smi

> <i_m_source_file_index>
3226

> <i_lp_mmshare_version>
43012

> <i_f3d_flags>
0

> <s_epik_input>
W0NIM11bQ0gyXWMxbm5bY0hdbjFbQ0gyXVtDSDJdW05IXVtDSDJdW0NASF0oW0NIMl1bQ0BASF0yMylbQ0BASF0oW0NIMl0zKVtDSF09W0NIXTI=

> <s_epik_cmdline>
J2VwaWtfcHl0aG9uJywgJy1waCcsICc3LjAnLCAnLXRuJywgJzgnLCAnLW1hJywgJzIwMCcsICctbWV0YWxfYmluZGluZycsICctaW1hZScsICc8aW5maWxlLm1hZT4nLCAnLW9tYWUnLCAnPG91dGZpbGUubWFlPic=

> <r_lp_tautomer_probability>
1

> <r_epik_Ionization_Penalty>
0.00175008

> <r_epik_Ionization_Penalty_Charging>
0.00173932

> <r_epik_Ionization_Penalty_Neutral>
1.07546e-05

> <r_epik_State_Penalty>
-0

> <r_epik_Charging_Adjusted_Penalty>
0.00173932

> <i_epik_Tot_Q>
1

> <i_epik_Tot_abs_Q>
1

> <r_epik_Metal_State_Penalty>
-0

> <b_epik_Metal_Only>
0

> <s_lp_Force_Field>
OPLS_2005

> <r_lp_Energy>
64.6894

> <b_lp_Chiralities_Consistent>
1

> <s_lp_Variant>
AV-unprocessed.smi:3226-4

> <Gold.Version>
5.8.1

> <Gold.Id.Protein>
6NUR|6NUR_protein|mol2

> <Gold.PLP.Fitness>
46.8143

> <Gold.PLP.PLP>
-39.3865

> <Gold.PLP.part.hbond>
-2.0000

> <Gold.PLP.part.metal>
0.0000

> <Gold.PLP.part.buried>
-4.3987

> <Gold.PLP.part.nonpolar>
-32.5681

> <Gold.PLP.part.repulsive>
0.0000

> <Gold.PLP.ligand.clash>
0.0000

> <Gold.PLP.ligand.torsion>
0.7965

> <Gold.PLP.Chemscore.Hbond>
2.9840

> <Gold.PLP.Chemscore.CHOScore>
0.0000

> <Gold.PLP.Chemscore.Metal>
0.0000

> <Gold.Chemscore.Hbonds>
donor molecule, donor type, donor heavy atom, donor atom, acceptor molecule, acceptor atom, score
      L1  H    10    41       P1  7948  1.95
      P1  H  6896  6909       L1     5  0.67

> <Gold.PLP.Chemscore.Internal.Correction>
0.0688

> <Gold.Rescore>
     Score         DG    S(hbond)    S(metal)    S(lipo)     H(rot)  DE(clash)    DE(int)     intcor
     14.42     -15.34       1.47        0.00      87.47       2.06       0.05       0.88       ----

> <Gold.Chemscore.Fitness>
14.4175

> <Gold.Chemscore.DG>
-15.3407

> <Gold.Chemscore.ZeroCoef>
-5.4800

> <Gold.Chemscore.Hbond>
1.4688

> <Gold.Chemscore.Metal>
0.0000

> <Gold.Chemscore.Lipo>
87.4747

> <Gold.Chemscore.Internal_Hbond>
0.0000

> <Gold.Chemscore.DEClash>
0.0464

> <Gold.Chemscore.DEInternal>
0.8769

> <Gold.Chemscore.Rot>
2.0623

> <Gold.Chemscore.Internal.Correction>
   9.000000E+99

> <Gold.Chemscore.Hbonds>
donor molecule, donor type, donor heavy atom, donor atom, acceptor molecule, acceptor atom, score
      L1  H    10    41       P1  7948  0.32
      P1  H  6896  6909       L1     5  0.55

> <Gold.Chemscore.Hbond.Weighted>
-4.9058

> <Gold.Chemscore.Metal.Weighted>
-0.0000

> <Gold.Chemscore.Lipo.Weighted>
-10.2345

> <Gold.Chemscore.Internal_Hbond.Weighted>
0.0000

> <Gold.Chemscore.DEClash.Weighted>
0.0464

> <Gold.Chemscore.DEInternal.Weighted>
0.8769

> <Gold.Chemscore.Rot.Weighted>
5.2796

> <Gold.Chemscore.Internal.Correction.Weighted>
   9.000000E+99

> <Gold.Protein.RotatedTorsions>
[ 6907 6896 6895 6894 ] final  -61.55 input  -60.11 | X-H torsion
[ 7974 7965 7964 7962 ] final   81.19 input  175.53 | X-H torsion
[ 8008 7997 7996 7995 ] final   -4.65 input   59.86 | X-H torsion
[ 10167 10162 10161 10158 ] final  -96.01 input  -65.29 | X-H torsion
[ 10718 10713 10712 10709 ] final  141.39 input   66.30 | X-H torsion
[ 10763 10752 10751 10750 ] final  131.94 input  -60.55 | X-H torsion
[ 11005 11000 10999 10996 ] final    4.66 input  -57.11 | X-H torsion

> <Gold.Protein.ActiveResidues>
 VAL166  LYS551  ARG553  GLY616  TRP617  ASP618  TYR619  PRO620  LYS621  CYS622 
 ASP623  PHE694  ASN695  SER759  ASP760  ASP761  ALA762  ILE779  LEU786  VAL792 
 PHE793  MET794  SER795  GLU796  ALA797  LYS798  CYS799  TRP800  GLU811  SER814 

> <Gold.Protein.RotatedAtoms>
  150.7777  134.6689  159.6380 H   0  0  0  0  0  0  0  0  0  0  0  0  # atno 6907 bound_to 6896
  152.3852  134.6526  160.0137 H   0  0  0  0  0  0  0  0  0  0  0  0  # atno 6908 bound_to 6896
  151.6843  133.3275  159.3263 H   0  0  0  0  0  0  0  0  0  0  0  0  # atno 6909 bound_to 6896
  145.6414  139.2426  143.2029 H   0  0  0  0  0  0  0  0  0  0  0  0  # atno 7974 bound_to 7965
  154.6121  140.2478  155.7656 H   0  0  0  0  0  0  0  0  0  0  0  0  # atno 8008 bound_to 7997
  156.2377  140.2944  156.0307 H   0  0  0  0  0  0  0  0  0  0  0  0  # atno 8009 bound_to 7997
  155.2035  140.0395  157.2912 H   0  0  0  0  0  0  0  0  0  0  0  0  # atno 8010 bound_to 7997
  140.2982  143.3179  152.0276 H   0  0  0  0  0  0  0  0  0  0  0  0  # atno 10167 bound_to 10162
  157.3926  131.1006  151.0632 H   0  0  0  0  0  0  0  0  0  0  0  0  # atno 10718 bound_to 10713
  153.7825  135.3166  155.3368 H   0  0  0  0  0  0  0  0  0  0  0  0  # atno 10763 bound_to 10752
  154.8156  135.4638  154.0637 H   0  0  0  0  0  0  0  0  0  0  0  0  # atno 10764 bound_to 10752
  153.1930  135.6911  153.8414 H   0  0  0  0  0  0  0  0  0  0  0  0  # atno 10765 bound_to 10752
  140.5794  134.0027  155.8041 H   0  0  0  0  0  0  0  0  0  0  0  0  # atno 11005 bound_to 11000
  146.1278  140.7225  142.9427 LP  0  0  0  0  0  0  0  0  0  0  0  0  # atno 17320 bound_to 7965
  144.7156  140.4197  143.7047 LP  0  0  0  0  0  0  0  0  0  0  0  0  # atno 17321 bound_to 7965
  139.4921  144.6475  151.6746 LP  0  0  0  0  0  0  0  0  0  0  0  0  # atno 17342 bound_to 10162
  140.5674  144.0167  150.6199 LP  0  0  0  0  0  0  0  0  0  0  0  0  # atno 17343 bound_to 10162
  157.1660  130.6246  149.5625 LP  0  0  0  0  0  0  0  0  0  0  0  0  # atno 17370 bound_to 10713
  155.9802  130.4801  150.6759 LP  0  0  0  0  0  0  0  0  0  0  0  0  # atno 17371 bound_to 10713
  141.1006  133.9774  157.3085 LP  0  0  0  0  0  0  0  0  0  0  0  0  # atno 17394 bound_to 11000
  139.9324  135.0199  156.8445 LP  0  0  0  0  0  0  0  0  0  0  0  0  # atno 17395 bound_to 11000

$$$$
