AV-unprocessed.smi:2061|AV-procd|sdf|8365|dock4
  -GOLD-   2272011 33D 1   1.00000     0.00000
 Structure written by MMmdl.
 45 46  0  0  0  0  0  0  0  0  1 V2000
  144.1370  142.9333  162.7110 C   0  0  0  0  0  0  0  0  0  0  0  0
  144.9207  142.4869  161.5248 C   0  0  0  0  0  0  0  0  0  0  0  0
  145.6229  143.1620  160.5662 C   0  0  0  0  0  0  0  0  0  0  0  0
  146.1196  142.1190  159.7397 C   0  0  0  0  0  0  0  0  0  0  0  0
  146.9168  142.4082  158.6028 N   0  0  0  0  0  0  0  0  0  0  0  0
  147.7762  141.5874  157.9752 C   0  0  0  0  0  0  0  0  0  0  0  0
  148.0210  140.4283  158.3102 O   0  0  0  0  0  0  0  0  0  0  0  0
  148.3504  142.1958  156.9267 N   0  0  0  0  0  0  0  0  0  0  0  0
  149.3336  141.5952  156.0272 C   0  0  0  0  0  0  0  0  0  0  0  0
  150.5648  141.0095  156.7754 C   0  0  1  0  0  0  0  0  0  0  0  0
  151.6719  140.6756  155.7423 C   0  0  0  0  0  0  0  0  0  0  0  0
  151.0533  141.8784  157.8733 N   0  0  0  0  0  0  0  0  0  0  0  0
  151.2785  143.2608  157.4346 C   0  0  0  0  0  0  0  0  0  0  0  0
  151.8112  144.1877  158.5451 C   0  0  1  0  0  0  0  0  0  0  0  0
  150.7427  144.5753  159.5817 C   0  0  0  0  0  0  0  0  0  0  0  0
  152.9657  143.6179  159.1568 O   0  0  0  0  0  0  0  0  0  0  0  0
  152.7920  142.2871  159.6304 C   0  0  2  0  0  0  0  0  0  0  0  0
  154.1330  141.8091  160.1971 C   0  0  0  0  0  0  0  0  0  0  0  0
  152.2958  141.3913  158.4807 C   0  0  0  0  0  0  0  0  0  0  0  0
  145.7531  140.9165  160.1557 N   0  0  0  0  0  0  0  0  0  0  0  0
  144.9822  141.1461  161.3013 O   0  0  0  0  0  0  0  0  0  0  0  0
  144.3313  143.9827  162.9331 H   0  0  0  0  0  0  0  0  0  0  0  0
  144.3994  142.3474  163.5922 H   0  0  0  0  0  0  0  0  0  0  0  0
  143.0678  142.8172  162.5328 H   0  0  0  0  0  0  0  0  0  0  0  0
  145.7574  144.2294  160.4742 H   0  0  0  0  0  0  0  0  0  0  0  0
  146.8194  143.3389  158.2252 H   0  0  0  0  0  0  0  0  0  0  0  0
  148.0875  143.1509  156.7322 H   0  0  0  0  0  0  0  0  0  0  0  0
  148.8834  140.8298  155.3927 H   0  0  0  0  0  0  0  0  0  0  0  0
  149.6248  142.4088  155.3658 H   0  0  0  0  0  0  0  0  0  0  0  0
  150.2460  140.0630  157.2151 H   0  0  0  0  0  0  0  0  0  0  0  0
  151.3063  140.0556  154.9251 H   0  0  0  0  0  0  0  0  0  0  0  0
  152.4915  140.1053  156.1760 H   0  0  0  0  0  0  0  0  0  0  0  0
  152.0870  141.5834  155.3032 H   0  0  0  0  0  0  0  0  0  0  0  0
  151.9864  143.2632  156.6043 H   0  0  0  0  0  0  0  0  0  0  0  0
  150.3589  143.7061  157.0602 H   0  0  0  0  0  0  0  0  0  0  0  0
  152.1433  145.1133  158.0741 H   0  0  0  0  0  0  0  0  0  0  0  0
  149.9237  145.1176  159.1087 H   0  0  0  0  0  0  0  0  0  0  0  0
  151.1645  145.2215  160.3516 H   0  0  0  0  0  0  0  0  0  0  0  0
  150.3123  143.7037  160.0743 H   0  0  0  0  0  0  0  0  0  0  0  0
  152.0598  142.2806  160.4384 H   0  0  0  0  0  0  0  0  0  0  0  0
  154.0548  140.7951  160.5900 H   0  0  0  0  0  0  0  0  0  0  0  0
  154.4640  142.4551  161.0106 H   0  0  0  0  0  0  0  0  0  0  0  0
  154.9093  141.8136  159.4315 H   0  0  0  0  0  0  0  0  0  0  0  0
  152.1546  140.3975  158.9007 H   0  0  0  0  0  0  0  0  0  0  0  0
  153.0713  141.3072  157.7177 H   0  0  0  0  0  0  0  0  0  0  0  0
  1  2  1  0  0  0  0
  1 22  1  0  0  0  0
  1 23  1  0  0  0  0
  1 24  1  0  0  0  0
  2 21  1  0  0  0  0
  2  3  2  0  0  0  0
  3  4  1  0  0  0  0
  3 25  1  0  0  0  0
  4  5  1  0  0  0  0
  4 20  2  0  0  0  0
  5  6  1  0  0  0  0
  5 26  1  0  0  0  0
  6  7  2  0  0  0  0
  6  8  1  0  0  0  0
  8  9  1  0  0  0  0
  8 27  1  0  0  0  0
  9 10  1  0  0  0  0
  9 28  1  0  0  0  0
  9 29  1  0  0  0  0
 10 11  1  0  0  0  0
 10 12  1  0  0  0  0
 10 30  1  0  0  0  0
 11 31  1  0  0  0  0
 11 32  1  0  0  0  0
 11 33  1  0  0  0  0
 12 19  1  0  0  0  0
 12 13  1  0  0  0  0
 13 14  1  0  0  0  0
 13 34  1  0  0  0  0
 13 35  1  0  0  0  0
 14 15  1  0  0  0  0
 14 16  1  0  0  0  0
 14 36  1  0  0  0  0
 15 37  1  0  0  0  0
 15 38  1  0  0  0  0
 15 39  1  0  0  0  0
 16 17  1  0  0  0  0
 17 18  1  0  0  0  0
 17 19  1  0  0  0  0
 17 40  1  0  0  0  0
 18 41  1  0  0  0  0
 18 42  1  0  0  0  0
 18 43  1  0  0  0  0
 19 44  1  0  0  0  0
 19 45  1  0  0  0  0
 20 21  1  0  0  0  0
M  END
> <s_m_source_file>
AV-unprocessed.smi

> <i_m_source_file_index>
2061

> <i_lp_mmshare_version>
43012

> <i_f3d_flags>
0

> <s_epik_input>
W0NIM11jMVtjSF1jKG5vMSlbTkhdQyg9TylbTkhdW0NIMl1bQ0BIXShbQ0gzXSlOMltDSDJdW0NAQEhdKFtDSDNdKU9bQ0BASF0oW0NIM10pW0NIMl0y

> <s_epik_cmdline>
J2VwaWtfcHl0aG9uJywgJy1waCcsICc3LjAnLCAnLXRuJywgJzgnLCAnLW1hJywgJzIwMCcsICctbWV0YWxfYmluZGluZycsICctaW1hZScsICc8aW5maWxlLm1hZT4nLCAnLW9tYWUnLCAnPG91dGZpbGUubWFlPic=

> <r_epik_Ionization_Penalty>
0.214073

> <r_epik_Ionization_Penalty_Charging>
0

> <r_epik_Ionization_Penalty_Neutral>
0.214073

> <r_epik_State_Penalty>
0.204211

> <r_epik_Charging_Adjusted_Penalty>
0.204211

> <i_epik_Tot_Q>
0

> <i_epik_Tot_abs_Q>
0

> <r_epik_Metal_State_Penalty>
0.217067

> <b_epik_Metal_Only>
0

> <s_lp_Force_Field>
OPLS_2005

> <r_lp_Energy>
29.5026

> <b_lp_Chiralities_Consistent>
1

> <s_lp_Variant>
AV-unprocessed.smi:2061-6

> <Gold.Version>
5.8.1

> <Gold.Id.Protein>
6NUR|6NUR_protein|mol2

> <Gold.PLP.Fitness>
45.7814

> <Gold.PLP.PLP>
-40.6723

> <Gold.PLP.part.hbond>
-3.4589

> <Gold.PLP.part.metal>
0.0000

> <Gold.PLP.part.buried>
-5.6208

> <Gold.PLP.part.nonpolar>
-31.7638

> <Gold.PLP.part.repulsive>
0.1572

> <Gold.PLP.ligand.clash>
0.0000

> <Gold.PLP.ligand.torsion>
0.3314

> <Gold.PLP.Chemscore.Hbond>
1.9120

> <Gold.PLP.Chemscore.CHOScore>
0.0000

> <Gold.PLP.Chemscore.Metal>
0.0000

> <Gold.Chemscore.Hbonds>
donor molecule, donor type, donor heavy atom, donor atom, acceptor molecule, acceptor atom, score
      L1  H     8    27       P1  8028  0.66
      P1  H  6934  6946       L1    20  0.08

> <Gold.PLP.Chemscore.Internal.Correction>
0.0358

> <Gold.Rescore>
     Score         DG    S(hbond)    S(metal)    S(lipo)     H(rot)  DE(clash)    DE(int)     intcor
     14.11     -17.16       1.34        0.00      95.51       1.55       0.38       2.67       ----

> <Gold.Chemscore.Fitness>
14.1112

> <Gold.Chemscore.DG>
-17.1617

> <Gold.Chemscore.ZeroCoef>
-5.4800

> <Gold.Chemscore.Hbond>
1.3378

> <Gold.Chemscore.Metal>
0.0000

> <Gold.Chemscore.Lipo>
95.5092

> <Gold.Chemscore.Internal_Hbond>
0.0000

> <Gold.Chemscore.DEClash>
0.3773

> <Gold.Chemscore.DEInternal>
2.6732

> <Gold.Chemscore.Rot>
1.5474

> <Gold.Chemscore.Internal.Correction>
   9.000000E+99

> <Gold.Chemscore.Hbonds>
donor molecule, donor type, donor heavy atom, donor atom, acceptor molecule, acceptor atom, score
      L1  H     8    27       P1  8028  0.12

> <Gold.Chemscore.Hbond.Weighted>
-4.4684

> <Gold.Chemscore.Metal.Weighted>
-0.0000

> <Gold.Chemscore.Lipo.Weighted>
-11.1746

> <Gold.Chemscore.Internal_Hbond.Weighted>
0.0000

> <Gold.Chemscore.DEClash.Weighted>
0.3773

> <Gold.Chemscore.DEInternal.Weighted>
2.6732

> <Gold.Chemscore.Rot.Weighted>
3.9612

> <Gold.Chemscore.Internal.Correction.Weighted>
   9.000000E+99

> <Gold.Protein.RotatedTorsions>
[ 6907 6896 6895 6894 ] final  143.57 input  -60.11 | X-H torsion
[ 7974 7965 7964 7962 ] final   10.80 input  175.53 | X-H torsion
[ 8008 7997 7996 7995 ] final   89.60 input   59.86 | X-H torsion
[ 10167 10162 10161 10158 ] final -140.23 input  -65.29 | X-H torsion
[ 10718 10713 10712 10709 ] final  -63.66 input   66.30 | X-H torsion
[ 10763 10752 10751 10750 ] final   74.27 input  -60.55 | X-H torsion
[ 11005 11000 10999 10996 ] final  175.19 input  -57.11 | X-H torsion

> <Gold.Protein.ActiveResidues>
 VAL166  LYS551  ARG553  GLY616  TRP617  ASP618  TYR619  PRO620  LYS621  CYS622 
 ASP623  PHE694  ASN695  SER759  ASP760  ASP761  ALA762  ILE779  LEU786  VAL792 
 PHE793  MET794  SER795  GLU796  ALA797  LYS798  CYS799  TRP800  GLU811  SER814 

> <Gold.Protein.RotatedAtoms>
  152.2046  133.4866  159.5076 H   0  0  0  0  0  0  0  0  0  0  0  0  # atno 6907 bound_to 6896
  150.6977  134.1547  159.4162 H   0  0  0  0  0  0  0  0  0  0  0  0  # atno 6908 bound_to 6896
  151.9465  135.0189  160.0590 H   0  0  0  0  0  0  0  0  0  0  0  0  # atno 6909 bound_to 6896
  146.2382  139.9579  142.8462 H   0  0  0  0  0  0  0  0  0  0  0  0  # atno 7974 bound_to 7965
  156.0019  140.3359  155.6854 H   0  0  0  0  0  0  0  0  0  0  0  0  # atno 8008 bound_to 7997
  155.6278  140.0682  157.2676 H   0  0  0  0  0  0  0  0  0  0  0  0  # atno 8009 bound_to 7997
  154.4252  140.1765  156.1428 H   0  0  0  0  0  0  0  0  0  0  0  0  # atno 8010 bound_to 7997
  139.8302  143.7457  152.2666 H   0  0  0  0  0  0  0  0  0  0  0  0  # atno 10167 bound_to 10162
  156.0777  130.4223  150.1309 H   0  0  0  0  0  0  0  0  0  0  0  0  # atno 10718 bound_to 10713
  153.0575  135.5032  154.8017 H   0  0  0  0  0  0  0  0  0  0  0  0  # atno 10763 bound_to 10752
  154.6831  135.2971  154.9587 H   0  0  0  0  0  0  0  0  0  0  0  0  # atno 10764 bound_to 10752
  154.0367  135.6722  153.4838 H   0  0  0  0  0  0  0  0  0  0  0  0  # atno 10765 bound_to 10752
  140.3595  134.7125  157.4321 H   0  0  0  0  0  0  0  0  0  0  0  0  # atno 11005 bound_to 11000
  145.1798  140.9762  143.4272 LP  0  0  0  0  0  0  0  0  0  0  0  0  # atno 17320 bound_to 7965
  144.9952  139.3651  143.6195 LP  0  0  0  0  0  0  0  0  0  0  0  0  # atno 17321 bound_to 7965
  139.7662  144.7491  151.0290 LP  0  0  0  0  0  0  0  0  0  0  0  0  # atno 17342 bound_to 10162
  140.7807  143.4695  151.0166 LP  0  0  0  0  0  0  0  0  0  0  0  0  # atno 17343 bound_to 10162
  156.9347  130.9725  151.3527 LP  0  0  0  0  0  0  0  0  0  0  0  0  # atno 17370 bound_to 10713
  157.5880  130.8423  149.8617 LP  0  0  0  0  0  0  0  0  0  0  0  0  # atno 17371 bound_to 10713
  140.0638  134.5958  155.8718 LP  0  0  0  0  0  0  0  0  0  0  0  0  # atno 17394 bound_to 11000
  141.1988  133.6603  156.5813 LP  0  0  0  0  0  0  0  0  0  0  0  0  # atno 17395 bound_to 11000

$$$$
