AV-unprocessed.smi:2078|AV-procd|sdf|8465|dock2
  -GOLD-   2272011163D 1   1.00000     0.00000
 Structure written by MMmdl.
 42 43  0  0  0  0  0  0  0  0  2 V2000
  150.8797  142.3012  156.4662 C   0  0  0  0  0  0  0  0  0  0  0  0
  150.6183  141.1420  155.5671 C   0  0  0  0  0  0  0  0  0  0  0  0
  149.4923  140.6823  154.9434 C   0  0  0  0  0  0  0  0  0  0  0  0
  149.9608  139.5409  154.2399 C   0  0  0  0  0  0  0  0  0  0  0  0
  149.0829  138.7652  153.4401 N   0  0  0  0  0  0  0  0  0  0  0  0
  147.7466  138.8788  153.3511 C   0  0  0  0  0  0  0  0  0  0  0  0
  147.0647  139.7217  153.9350 O   0  0  0  0  0  0  0  0  0  0  0  0
  147.2263  137.9470  152.5391 N   0  0  0  0  0  0  0  0  0  0  0  0
  145.8050  137.8100  152.2420 C   0  0  0  0  0  0  0  0  0  0  0  0
  145.4386  136.3576  151.8773 C   0  0  0  0  0  0  0  0  0  0  0  0
  146.1742  135.3672  152.7022 N   0  3  1  0  0  0  0  0  0  0  0  0
  145.9359  135.5568  154.1562 C   0  0  0  0  0  0  0  0  0  0  0  0
  146.8264  134.6221  154.9903 C   0  0  0  0  0  0  0  0  0  0  0  0
  146.6227  133.1556  154.5832 C   0  0  0  0  0  0  0  0  0  0  0  0
  146.8045  132.9653  153.0658 C   0  0  2  0  0  0  0  0  0  0  0  0
  148.2779  133.0314  152.6268 C   0  0  0  0  0  0  0  0  0  0  0  0
  145.9196  133.9603  152.2873 C   0  0  0  0  0  0  0  0  0  0  0  0
  151.2543  139.3222  154.4202 N   0  0  0  0  0  0  0  0  0  0  0  0
  151.6822  140.3469  155.2722 O   0  0  0  0  0  0  0  0  0  0  0  0
  149.9673  142.8702  156.6451 H   0  0  0  0  0  0  0  0  0  0  0  0
  151.6157  142.9733  156.0245 H   0  0  0  0  0  0  0  0  0  0  0  0
  151.2633  141.9648  157.4294 H   0  0  0  0  0  0  0  0  0  0  0  0
  148.4973  141.0997  154.9837 H   0  0  0  0  0  0  0  0  0  0  0  0
  149.5169  138.0346  152.8955 H   0  0  0  0  0  0  0  0  0  0  0  0
  147.8548  137.2943  152.0931 H   0  0  0  0  0  0  0  0  0  0  0  0
  145.2293  138.1688  153.0956 H   0  0  0  0  0  0  0  0  0  0  0  0
  145.5671  138.4721  151.4091 H   0  0  0  0  0  0  0  0  0  0  0  0
  144.3658  136.2347  152.0330 H   0  0  0  0  0  0  0  0  0  0  0  0
  145.6189  136.1537  150.8207 H   0  0  0  0  0  0  0  0  0  0  0  0
  146.1469  136.5899  154.4355 H   0  0  0  0  0  0  0  0  0  0  0  0
  144.8833  135.3763  154.3804 H   0  0  0  0  0  0  0  0  0  0  0  0
  147.8726  134.9022  154.8648 H   0  0  0  0  0  0  0  0  0  0  0  0
  146.6025  134.7459  156.0502 H   0  0  0  0  0  0  0  0  0  0  0  0
  147.3056  132.5092  155.1355 H   0  0  0  0  0  0  0  0  0  0  0  0
  145.6154  132.8457  154.8645 H   0  0  0  0  0  0  0  0  0  0  0  0
  146.4577  131.9602  152.8218 H   0  0  0  0  0  0  0  0  0  0  0  0
  148.7150  134.0126  152.8114 H   0  0  0  0  0  0  0  0  0  0  0  0
  148.3770  132.8231  151.5611 H   0  0  0  0  0  0  0  0  0  0  0  0
  148.8789  132.2944  153.1604 H   0  0  0  0  0  0  0  0  0  0  0  0
  144.8674  133.7257  152.4563 H   0  0  0  0  0  0  0  0  0  0  0  0
  146.0924  133.8351  151.2189 H   0  0  0  0  0  0  0  0  0  0  0  0
  147.1571  135.5456  152.5537 H   0  0  0  0  0  0  0  0  0  0  0  0
  1  2  1  0  0  0  0
  1 20  1  0  0  0  0
  1 21  1  0  0  0  0
  1 22  1  0  0  0  0
  2 19  1  0  0  0  0
  2  3  2  0  0  0  0
  3  4  1  0  0  0  0
  3 23  1  0  0  0  0
  4  5  1  0  0  0  0
  4 18  2  0  0  0  0
  5  6  1  0  0  0  0
  5 24  1  0  0  0  0
  6  7  2  0  0  0  0
  6  8  1  0  0  0  0
  8  9  1  0  0  0  0
  8 25  1  0  0  0  0
  9 10  1  0  0  0  0
  9 26  1  0  0  0  0
  9 27  1  0  0  0  0
 10 11  1  0  0  0  0
 10 28  1  0  0  0  0
 10 29  1  0  0  0  0
 11 17  1  0  0  0  0
 11 12  1  0  0  0  0
 11 42  1  0  0  0  0
 12 13  1  0  0  0  0
 12 30  1  0  0  0  0
 12 31  1  0  0  0  0
 13 14  1  0  0  0  0
 13 32  1  0  0  0  0
 13 33  1  0  0  0  0
 14 15  1  0  0  0  0
 14 34  1  0  0  0  0
 14 35  1  0  0  0  0
 15 16  1  0  0  0  0
 15 17  1  0  0  0  0
 15 36  1  0  0  0  0
 16 37  1  0  0  0  0
 16 38  1  0  0  0  0
 16 39  1  0  0  0  0
 17 40  1  0  0  0  0
 17 41  1  0  0  0  0
 18 19  1  0  0  0  0
M  CHG  1  11   1
M  END
> <s_m_source_file>
AV-unprocessed.smi

> <i_m_source_file_index>
2078

> <i_lp_mmshare_version>
43012

> <i_f3d_flags>
0

> <s_epik_input>
W0NIM11jMVtjSF1jKG5vMSlbTkhdQyg9TylbTkhdW0NIMl1bQ0gyXU4yW0NIMl1bQ0gyXVtDSDJdW0NAQEhdKFtDSDNdKVtDSDJdMg==

> <s_epik_cmdline>
J2VwaWtfcHl0aG9uJywgJy1waCcsICc3LjAnLCAnLXRuJywgJzgnLCAnLW1hJywgJzIwMCcsICctbWV0YWxfYmluZGluZycsICctaW1hZScsICc8aW5maWxlLm1hZT4nLCAnLW9tYWUnLCAnPG91dGZpbGUubWFlPic=

> <r_epik_Ionization_Penalty>
0.00216453

> <r_epik_Ionization_Penalty_Charging>
0.00212879

> <r_epik_Ionization_Penalty_Neutral>
3.57418e-05

> <r_epik_State_Penalty>
0.00146033

> <r_epik_Charging_Adjusted_Penalty>
0.00358912

> <i_epik_Tot_Q>
1

> <i_epik_Tot_abs_Q>
1

> <r_epik_Metal_State_Penalty>
0.0215827

> <b_epik_Metal_Only>
0

> <s_lp_Force_Field>
OPLS_2005

> <r_lp_Energy>
15.3695

> <b_lp_Chiralities_Consistent>
1

> <s_lp_Variant>
AV-unprocessed.smi:2078-3

> <Gold.Version>
5.8.1

> <Gold.Id.Protein>
6NUR|6NUR_protein|mol2

> <Gold.PLP.Fitness>
39.7025

> <Gold.PLP.PLP>
-29.3991

> <Gold.PLP.part.hbond>
-5.9341

> <Gold.PLP.part.metal>
0.0000

> <Gold.PLP.part.buried>
-1.8355

> <Gold.PLP.part.nonpolar>
-22.6246

> <Gold.PLP.part.repulsive>
0.4171

> <Gold.PLP.ligand.clash>
0.0000

> <Gold.PLP.ligand.torsion>
0.3115

> <Gold.PLP.Chemscore.Hbond>
3.6368

> <Gold.PLP.Chemscore.CHOScore>
0.0000

> <Gold.PLP.Chemscore.Metal>
0.0000

> <Gold.Chemscore.Hbonds>
donor molecule, donor type, donor heavy atom, donor atom, acceptor molecule, acceptor atom, score
      L1  H     5    24       P1  7948  0.64
      L1  H     8    25       P1  7948  0.99
      L1  H    11    42       P1  7948  2.00

> <Gold.PLP.Chemscore.Internal.Correction>
0.0162

> <Gold.Rescore>
     Score         DG    S(hbond)    S(metal)    S(lipo)     H(rot)  DE(clash)    DE(int)     intcor
     14.72     -16.67       2.56        0.00      56.85       1.57       0.23       1.72       ----

> <Gold.Chemscore.Fitness>
14.7216

> <Gold.Chemscore.DG>
-16.6739

> <Gold.Chemscore.ZeroCoef>
-5.4800

> <Gold.Chemscore.Hbond>
2.5631

> <Gold.Chemscore.Metal>
0.0000

> <Gold.Chemscore.Lipo>
56.8497

> <Gold.Chemscore.Internal_Hbond>
0.0000

> <Gold.Chemscore.DEClash>
0.2290

> <Gold.Chemscore.DEInternal>
1.7233

> <Gold.Chemscore.Rot>
1.5697

> <Gold.Chemscore.Internal.Correction>
   9.000000E+99

> <Gold.Chemscore.Hbonds>
donor molecule, donor type, donor heavy atom, donor atom, acceptor molecule, acceptor atom, score
      L1  H     5    24       P1  7948  0.51
      L1  H     8    25       P1  7948  0.92
      L1  H    11    42       P1  7948  0.93

> <Gold.Chemscore.Hbond.Weighted>
-8.5609

> <Gold.Chemscore.Metal.Weighted>
-0.0000

> <Gold.Chemscore.Lipo.Weighted>
-6.6514

> <Gold.Chemscore.Internal_Hbond.Weighted>
0.0000

> <Gold.Chemscore.DEClash.Weighted>
0.2290

> <Gold.Chemscore.DEInternal.Weighted>
1.7233

> <Gold.Chemscore.Rot.Weighted>
4.0185

> <Gold.Chemscore.Internal.Correction.Weighted>
   9.000000E+99

> <Gold.Protein.RotatedTorsions>
[ 6907 6896 6895 6894 ] final  174.60 input  -60.11 | X-H torsion
[ 7974 7965 7964 7962 ] final  173.03 input  175.53 | X-H torsion
[ 8008 7997 7996 7995 ] final -127.63 input   59.86 | X-H torsion
[ 10167 10162 10161 10158 ] final -175.28 input  -65.29 | X-H torsion
[ 10718 10713 10712 10709 ] final -162.75 input   66.30 | X-H torsion
[ 10763 10752 10751 10750 ] final  -27.48 input  -60.55 | X-H torsion
[ 11005 11000 10999 10996 ] final -178.58 input  -57.11 | X-H torsion

> <Gold.Protein.ActiveResidues>
 VAL166  LYS551  ARG553  GLY616  TRP617  ASP618  TYR619  PRO620  LYS621  CYS622 
 ASP623  PHE694  ASN695  SER759  ASP760  ASP761  ALA762  ILE779  LEU786  VAL792 
 PHE793  MET794  SER795  GLU796  ALA797  LYS798  CYS799  TRP800  GLU811  SER814 

> <Gold.Protein.RotatedAtoms>
  151.7496  133.3326  159.3387 H   0  0  0  0  0  0  0  0  0  0  0  0  # atno 6907 bound_to 6896
  150.7540  134.6204  159.6142 H   0  0  0  0  0  0  0  0  0  0  0  0  # atno 6908 bound_to 6896
  152.3477  134.7050  160.0297 H   0  0  0  0  0  0  0  0  0  0  0  0  # atno 6909 bound_to 6896
  144.7253  139.9587  143.6434 H   0  0  0  0  0  0  0  0  0  0  0  0  # atno 7974 bound_to 7965
  155.2494  140.0431  157.2985 H   0  0  0  0  0  0  0  0  0  0  0  0  # atno 8008 bound_to 7997
  154.5778  140.2392  155.8067 H   0  0  0  0  0  0  0  0  0  0  0  0  # atno 8009 bound_to 7997
  156.2171  140.2981  155.9873 H   0  0  0  0  0  0  0  0  0  0  0  0  # atno 8010 bound_to 7997
  139.5589  144.1919  152.1206 H   0  0  0  0  0  0  0  0  0  0  0  0  # atno 10167 bound_to 10162
  156.6149  130.8866  151.2944 H   0  0  0  0  0  0  0  0  0  0  0  0  # atno 10718 bound_to 10713
  153.7328  135.6937  153.4985 H   0  0  0  0  0  0  0  0  0  0  0  0  # atno 10763 bound_to 10752
  153.2124  135.4398  155.0394 H   0  0  0  0  0  0  0  0  0  0  0  0  # atno 10764 bound_to 10752
  154.8247  135.3440  154.6857 H   0  0  0  0  0  0  0  0  0  0  0  0  # atno 10765 bound_to 10752
  140.4282  134.6543  157.4698 H   0  0  0  0  0  0  0  0  0  0  0  0  # atno 11005 bound_to 11000
  146.0654  139.3645  143.0555 LP  0  0  0  0  0  0  0  0  0  0  0  0  # atno 17320 bound_to 7965
  145.8038  140.9758  143.0985 LP  0  0  0  0  0  0  0  0  0  0  0  0  # atno 17321 bound_to 7965
  140.1429  144.5185  150.6733 LP  0  0  0  0  0  0  0  0  0  0  0  0  # atno 17342 bound_to 10162
  140.6866  143.2353  151.5244 LP  0  0  0  0  0  0  0  0  0  0  0  0  # atno 17343 bound_to 10162
  157.7244  130.9602  150.1572 LP  0  0  0  0  0  0  0  0  0  0  0  0  # atno 17370 bound_to 10713
  156.2359  130.3686  149.8391 LP  0  0  0  0  0  0  0  0  0  0  0  0  # atno 17371 bound_to 10713
  140.0152  134.6629  155.9320 LP  0  0  0  0  0  0  0  0  0  0  0  0  # atno 17394 bound_to 11000
  141.1756  133.6540  156.4817 LP  0  0  0  0  0  0  0  0  0  0  0  0  # atno 17395 bound_to 11000

$$$$
