AV-unprocessed.smi:103|AV-procd|sdf|990|dock2
  -GOLD-   2262017563D 1   1.00000     0.00000
 Structure written by MMmdl.
 53 55  0  0  0  0  0  0  0  0  1 V2000
  146.5670  134.3675  161.3820 C   0  0  0  0  0  0  0  0  0  0  0  0
  146.9697  135.5771  160.5480 C   0  0  0  0  0  0  0  0  0  0  0  0
  147.4611  136.5776  161.0708 O   0  0  0  0  0  0  0  0  0  0  0  0
  146.7241  135.4041  159.2380 O   0  0  0  0  0  0  0  0  0  0  0  0
  147.2498  136.3158  158.2849 C   0  0  0  0  0  0  0  0  0  0  0  0
  148.7765  136.1733  158.2339 C   0  0  1  0  0  0  0  0  0  0  0  0
  149.0905  134.9233  157.6146 O   0  0  0  0  0  0  0  0  0  0  0  0
  149.9540  135.1033  156.5377 C   0  0  1  0  0  0  0  0  0  0  0  0
  149.5938  134.1359  155.4570 N   0  0  0  0  0  0  0  0  0  0  0  0
  150.1385  132.9021  155.1619 C   0  0  0  0  0  0  0  0  0  0  0  0
  151.4505  132.0773  156.0566 S   0  0  0  0  0  0  0  0  0  0  0  0
  152.0606  130.8726  154.8087 C   0  0  0  0  0  0  0  0  0  0  0  0
  152.4942  133.0822  156.3135 O   0  0  0  0  0  0  0  0  0  0  0  0
  150.8267  131.3476  157.1709 O   0  0  0  0  0  0  0  0  0  0  0  0
  149.5760  132.2303  154.1939 N   0  0  0  0  0  0  0  0  0  0  0  0
  148.5950  133.0991  153.7371 C   0  0  0  0  0  0  0  0  0  0  0  0
  147.6265  133.0373  152.7036 C   0  0  0  0  0  0  0  0  0  0  0  0
  147.4911  131.9804  151.8911 N   0  0  0  0  0  0  0  0  0  0  0  0
  146.7989  134.0939  152.5278 N   0  0  0  0  0  0  0  0  0  0  0  0
  146.9135  135.1603  153.3260 C   0  0  0  0  0  0  0  0  0  0  0  0
  147.7678  135.3611  154.3325 N   0  0  0  0  0  0  0  0  0  0  0  0
  148.6018  134.2953  154.5102 C   0  0  0  0  0  0  0  0  0  0  0  0
  149.7828  136.5400  156.0620 C   0  0  2  0  0  0  0  0  0  0  0  0
  150.9674  137.0096  155.4332 O   0  0  0  0  0  0  0  0  0  0  0  0
  151.1478  138.3229  155.2294 C   0  0  0  0  0  0  0  0  0  0  0  0
  152.5132  138.6328  154.6314 C   0  0  0  0  0  0  0  0  0  0  0  0
  150.3372  139.2141  155.4829 O   0  0  0  0  0  0  0  0  0  0  0  0
  149.4254  137.2648  157.3582 C   0  0  2  0  0  0  0  0  0  0  0  0
  150.4842  138.0137  157.9749 O   0  0  0  0  0  0  0  0  0  0  0  0
  151.4172  137.4943  158.8067 C   0  0  0  0  0  0  0  0  0  0  0  0
  152.4442  138.5350  159.2314 C   0  0  0  0  0  0  0  0  0  0  0  0
  151.4835  136.3356  159.2124 O   0  0  0  0  0  0  0  0  0  0  0  0
  145.7115  134.6130  162.0109 H   0  0  0  0  0  0  0  0  0  0  0  0
  147.3921  134.0610  162.0247 H   0  0  0  0  0  0  0  0  0  0  0  0
  146.2963  133.5257  160.7441 H   0  0  0  0  0  0  0  0  0  0  0  0
  146.8314  136.1586  157.2903 H   0  0  0  0  0  0  0  0  0  0  0  0
  146.9771  137.3267  158.5889 H   0  0  0  0  0  0  0  0  0  0  0  0
  149.1708  136.1894  159.2501 H   0  0  0  0  0  0  0  0  0  0  0  0
  150.9660  134.8499  156.8414 H   0  0  0  0  0  0  0  0  0  0  0  0
  152.8828  130.2970  155.2328 H   0  0  0  0  0  0  0  0  0  0  0  0
  152.4102  131.4097  153.9272 H   0  0  0  0  0  0  0  0  0  0  0  0
  151.2538  130.1975  154.5245 H   0  0  0  0  0  0  0  0  0  0  0  0
  148.0965  131.1799  152.0026 H   0  0  0  0  0  0  0  0  0  0  0  0
  146.7856  131.9870  151.1685 H   0  0  0  0  0  0  0  0  0  0  0  0
  146.2213  135.9669  153.1331 H   0  0  0  0  0  0  0  0  0  0  0  0
  148.9286  136.5679  155.3835 H   0  0  0  0  0  0  0  0  0  0  0  0
  152.5582  138.2908  153.5973 H   0  0  0  0  0  0  0  0  0  0  0  0
  153.2985  138.1315  155.1973 H   0  0  0  0  0  0  0  0  0  0  0  0
  152.7048  139.7057  154.6506 H   0  0  0  0  0  0  0  0  0  0  0  0
  148.6759  138.0183  157.1151 H   0  0  0  0  0  0  0  0  0  0  0  0
  151.9515  139.3819  159.7089 H   0  0  0  0  0  0  0  0  0  0  0  0
  152.9953  138.8974  158.3637 H   0  0  0  0  0  0  0  0  0  0  0  0
  153.1553  138.1058  159.9376 H   0  0  0  0  0  0  0  0  0  0  0  0
  1  2  1  0  0  0  0
  1 33  1  0  0  0  0
  1 34  1  0  0  0  0
  1 35  1  0  0  0  0
  2  3  2  0  0  0  0
  2  4  1  0  0  0  0
  4  5  1  0  0  0  0
  5  6  1  0  0  0  0
  5 36  1  0  0  0  0
  5 37  1  0  0  0  0
  6 28  1  0  0  0  0
  6  7  1  0  0  0  0
  6 38  1  0  0  0  0
  7  8  1  0  0  0  0
  8  9  1  0  0  0  0
  8 23  1  0  0  0  0
  8 39  1  0  0  0  0
  9 22  1  0  0  0  0
  9 10  1  0  0  0  0
 10 11  1  0  0  0  0
 10 15  2  0  0  0  0
 11 12  1  0  0  0  0
 11 13  2  0  0  0  0
 11 14  2  0  0  0  0
 12 40  1  0  0  0  0
 12 41  1  0  0  0  0
 12 42  1  0  0  0  0
 15 16  1  0  0  0  0
 16 22  2  0  0  0  0
 16 17  1  0  0  0  0
 17 18  1  0  0  0  0
 17 19  2  0  0  0  0
 18 43  1  0  0  0  0
 18 44  1  0  0  0  0
 19 20  1  0  0  0  0
 20 21  2  0  0  0  0
 20 45  1  0  0  0  0
 21 22  1  0  0  0  0
 23 24  1  0  0  0  0
 23 28  1  0  0  0  0
 23 46  1  0  0  0  0
 24 25  1  0  0  0  0
 25 26  1  0  0  0  0
 25 27  2  0  0  0  0
 26 47  1  0  0  0  0
 26 48  1  0  0  0  0
 26 49  1  0  0  0  0
 28 29  1  0  0  0  0
 28 50  1  0  0  0  0
 29 30  1  0  0  0  0
 30 31  1  0  0  0  0
 30 32  2  0  0  0  0
 31 51  1  0  0  0  0
 31 52  1  0  0  0  0
 31 53  1  0  0  0  0
M  END
> <s_m_source_file>
AV-unprocessed.smi

> <i_m_source_file_index>
103

> <i_lp_mmshare_version>
43012

> <i_f3d_flags>
0

> <s_epik_input>
W0NIM11DKD1PKU9bQ0gyXVtDQEBIXTFPW0NASF0oW0NAQEhdKE9DKD1PKVtDSDNdKVtDQEhdMU9DKD1PKVtDSDNdKW4oYyhuMilTKD1PKSg9TylbQ0gzXSljKGMyMyluW2NIXW5jM1tOSDJd

> <s_epik_cmdline>
J2VwaWtfcHl0aG9uJywgJy1waCcsICc3LjAnLCAnLXRuJywgJzgnLCAnLW1hJywgJzIwMCcsICctbWV0YWxfYmluZGluZycsICctaW1hZScsICc8aW5maWxlLm1hZT4nLCAnLW9tYWUnLCAnPG91dGZpbGUubWFlPic=

> <r_lp_tautomer_probability>
1

> <r_epik_Ionization_Penalty>
1.51338e-05

> <r_epik_Ionization_Penalty_Charging>
0

> <r_epik_Ionization_Penalty_Neutral>
1.51338e-05

> <r_epik_State_Penalty>
-0

> <r_epik_Charging_Adjusted_Penalty>
0

> <i_epik_Tot_Q>
0

> <i_epik_Tot_abs_Q>
0

> <r_epik_Metal_State_Penalty>
-0

> <b_epik_Metal_Only>
0

> <s_epik_Chemistry_Notes>
This compound has an ester and may undergo hydrolysis at high or low pH. This compound contains an acetal/aminal-like group ( X-CH(R)-Y where X, Y are N, S, or O) that may be acid/base labile, releasing an aldehyde.

> <s_lp_Force_Field>
OPLS_2005

> <r_lp_Energy>
20.3067

> <b_lp_Chiralities_Consistent>
1

> <s_lp_Variant>
AV-unprocessed.smi:103-14

> <Gold.Version>
5.8.1

> <Gold.Id.Protein>
6NUR|6NUR_protein|mol2

> <Gold.PLP.Fitness>
47.1885

> <Gold.PLP.PLP>
-39.1260

> <Gold.PLP.part.hbond>
-6.5636

> <Gold.PLP.part.metal>
0.0000

> <Gold.PLP.part.buried>
-5.1690

> <Gold.PLP.part.nonpolar>
-27.7645

> <Gold.PLP.part.repulsive>
0.3525

> <Gold.PLP.ligand.clash>
0.0000

> <Gold.PLP.ligand.torsion>
2.4216

> <Gold.PLP.Chemscore.Hbond>
3.4960

> <Gold.PLP.Chemscore.CHOScore>
0.0000

> <Gold.PLP.Chemscore.Metal>
0.0000

> <Gold.Chemscore.Hbonds>
donor molecule, donor type, donor heavy atom, donor atom, acceptor molecule, acceptor atom, score
      L1  H    18    43       P1 10747  0.18
      P1  H  6896  6907       L1    32  0.59

> <Gold.PLP.Chemscore.Internal.Correction>
2.4178

> <Gold.Rescore>
     Score         DG    S(hbond)    S(metal)    S(lipo)     H(rot)  DE(clash)    DE(int)     intcor
     -0.02      -8.54       2.74        0.00      40.81       4.25       0.00       8.56       ----

> <Gold.Chemscore.Fitness>
-0.0242

> <Gold.Chemscore.DG>
-8.5362

> <Gold.Chemscore.ZeroCoef>
-5.4800

> <Gold.Chemscore.Hbond>
2.7396

> <Gold.Chemscore.Metal>
0.0000

> <Gold.Chemscore.Lipo>
40.8098

> <Gold.Chemscore.Internal_Hbond>
0.0000

> <Gold.Chemscore.DEClash>
0.0021

> <Gold.Chemscore.DEInternal>
8.5583

> <Gold.Chemscore.Rot>
4.2456

> <Gold.Chemscore.Internal.Correction>
   9.000000E+99

> <Gold.Chemscore.Hbonds>
donor molecule, donor type, donor heavy atom, donor atom, acceptor molecule, acceptor atom, score
      L1  H    18    43       P1 10747  0.18
      P1  H  6896  6907       L1    32  0.60
      P1  H  6931  6943       L1     3  0.05
      P1  H  6934  6947       L1     3  0.04

> <Gold.Chemscore.Hbond.Weighted>
-9.1501

> <Gold.Chemscore.Metal.Weighted>
-0.0000

> <Gold.Chemscore.Lipo.Weighted>
-4.7748

> <Gold.Chemscore.Internal_Hbond.Weighted>
0.0000

> <Gold.Chemscore.DEClash.Weighted>
0.0021

> <Gold.Chemscore.DEInternal.Weighted>
8.5583

> <Gold.Chemscore.Rot.Weighted>
10.8687

> <Gold.Chemscore.Internal.Correction.Weighted>
   9.000000E+99

> <Gold.Protein.RotatedTorsions>
[ 6907 6896 6895 6894 ] final  -27.80 input  -60.11 | X-H torsion
[ 7974 7965 7964 7962 ] final -106.54 input  175.53 | X-H torsion
[ 8008 7997 7996 7995 ] final  -60.30 input   59.86 | X-H torsion
[ 10167 10162 10161 10158 ] final  140.20 input  -65.29 | X-H torsion
[ 10718 10713 10712 10709 ] final  -71.93 input   66.30 | X-H torsion
[ 10763 10752 10751 10750 ] final   82.45 input  -60.55 | X-H torsion
[ 11005 11000 10999 10996 ] final  -43.86 input  -57.11 | X-H torsion

> <Gold.Protein.ActiveResidues>
 VAL166  LYS551  ARG553  GLY616  TRP617  ASP618  TYR619  PRO620  LYS621  CYS622 
 ASP623  PHE694  ASN695  SER759  ASP760  ASP761  ALA762  ILE779  LEU786  VAL792 
 PHE793  MET794  SER795  GLU796  ALA797  LYS798  CYS799  TRP800  GLU811  SER814 

> <Gold.Protein.RotatedAtoms>
  151.1418  135.0183  159.8628 H   0  0  0  0  0  0  0  0  0  0  0  0  # atno 6907 bound_to 6896
  152.5452  134.1490  159.8520 H   0  0  0  0  0  0  0  0  0  0  0  0  # atno 6908 bound_to 6896
  151.1566  133.4827  159.2627 H   0  0  0  0  0  0  0  0  0  0  0  0  # atno 6909 bound_to 6896
  145.2166  140.9118  143.3283 H   0  0  0  0  0  0  0  0  0  0  0  0  # atno 7974 bound_to 7965
  154.4392  140.1042  156.6252 H   0  0  0  0  0  0  0  0  0  0  0  0  # atno 8008 bound_to 7997
  155.5664  140.3488  155.4485 H   0  0  0  0  0  0  0  0  0  0  0  0  # atno 8009 bound_to 7997
  156.0422  140.1284  157.0133 H   0  0  0  0  0  0  0  0  0  0  0  0  # atno 8010 bound_to 7997
  139.5056  144.6248  151.5963 H   0  0  0  0  0  0  0  0  0  0  0  0  # atno 10167 bound_to 10162
  156.0342  130.4361  150.2517 H   0  0  0  0  0  0  0  0  0  0  0  0  # atno 10718 bound_to 10713
  153.1204  135.4728  154.9186 H   0  0  0  0  0  0  0  0  0  0  0  0  # atno 10763 bound_to 10752
  154.7570  135.3121  154.8454 H   0  0  0  0  0  0  0  0  0  0  0  0  # atno 10764 bound_to 10752
  153.9019  135.6874  153.4808 H   0  0  0  0  0  0  0  0  0  0  0  0  # atno 10765 bound_to 10752
  141.0412  133.6779  156.2792 H   0  0  0  0  0  0  0  0  0  0  0  0  # atno 11005 bound_to 11000
  144.9805  139.3788  143.6264 LP  0  0  0  0  0  0  0  0  0  0  0  0  # atno 17320 bound_to 7965
  146.3385  139.8943  142.8804 LP  0  0  0  0  0  0  0  0  0  0  0  0  # atno 17321 bound_to 7965
  140.5962  143.9692  150.6356 LP  0  0  0  0  0  0  0  0  0  0  0  0  # atno 17342 bound_to 10162
  140.2888  143.3338  152.1082 LP  0  0  0  0  0  0  0  0  0  0  0  0  # atno 17343 bound_to 10162
  157.0618  131.0092  151.3220 LP  0  0  0  0  0  0  0  0  0  0  0  0  # atno 17370 bound_to 10713
  157.5065  130.7912  149.7659 LP  0  0  0  0  0  0  0  0  0  0  0  0  # atno 17371 bound_to 10713
  140.6231  134.5341  157.5550 LP  0  0  0  0  0  0  0  0  0  0  0  0  # atno 17394 bound_to 11000
  139.9277  134.8024  156.1020 LP  0  0  0  0  0  0  0  0  0  0  0  0  # atno 17395 bound_to 11000

$$$$
