AV-unprocessed.smi:2913|AV-procd|sdf|11183|dock2
  -GOLD-   2272016 73D 1   1.00000     0.00000
 Structure written by MMmdl.
 41 42  0  0  0  0  0  0  0  0  1 V2000
  151.2813  144.6962  158.2564 C   0  0  0  0  0  0  0  0  0  0  0  0
  151.7374  143.2708  158.5208 C   0  0  0  0  0  0  0  0  0  0  0  0
  152.8144  143.0456  159.3059 C   0  0  0  0  0  0  0  0  0  0  0  0
  153.3104  141.7012  159.6037 C   0  0  0  0  0  0  0  0  0  0  0  0
  154.2903  141.5064  160.3237 O   0  0  0  0  0  0  0  0  0  0  0  0
  152.6169  140.6798  159.0304 N   0  0  0  0  0  0  0  0  0  0  0  0
  153.0380  139.2953  159.2620 C   0  0  0  0  0  0  0  0  0  0  0  0
  151.4960  140.8997  158.2117 C   0  0  0  0  0  0  0  0  0  0  0  0
  151.0272  142.1382  157.9396 C   0  0  0  0  0  0  0  0  0  0  0  0
  149.9148  142.4084  157.1234 N   0  0  0  0  0  0  0  0  0  0  0  0
  149.0793  141.5602  156.4949 C   0  0  0  0  0  0  0  0  0  0  0  0
  149.1277  140.3315  156.5393 O   0  0  0  0  0  0  0  0  0  0  0  0
  148.1530  142.2370  155.8002 N   0  0  0  0  0  0  0  0  0  0  0  0
  147.0676  141.6543  155.0114 C   0  0  1  0  0  0  0  0  0  0  0  0
  146.3478  142.7679  154.2369 C   0  0  0  0  0  0  0  0  0  0  0  0
  147.5955  140.5492  154.0729 C   0  0  2  0  0  0  0  0  0  0  0  0
  146.7821  140.3196  152.7967 C   0  0  0  0  0  0  0  0  0  0  0  0
  147.1877  138.9089  152.4362 C   0  0  0  0  0  0  0  0  0  0  0  0
  147.2716  138.2476  153.8095 C   0  0  0  0  0  0  0  0  0  0  0  0
  147.6255  139.2812  154.7257 O   0  0  0  0  0  0  0  0  0  0  0  0
  151.9093  145.4243  158.7711 H   0  0  0  0  0  0  0  0  0  0  0  0
  150.2560  144.8360  158.6000 H   0  0  0  0  0  0  0  0  0  0  0  0
  151.3204  144.9146  157.1889 H   0  0  0  0  0  0  0  0  0  0  0  0
  153.3393  143.8850  159.7379 H   0  0  0  0  0  0  0  0  0  0  0  0
  152.4103  138.5682  158.7464 H   0  0  0  0  0  0  0  0  0  0  0  0
  153.0018  139.0573  160.3262 H   0  0  0  0  0  0  0  0  0  0  0  0
  154.0612  139.1434  158.9153 H   0  0  0  0  0  0  0  0  0  0  0  0
  151.0659  139.9897  157.8268 H   0  0  0  0  0  0  0  0  0  0  0  0
  149.7129  143.3907  157.0080 H   0  0  0  0  0  0  0  0  0  0  0  0
  148.1962  143.2454  155.8186 H   0  0  0  0  0  0  0  0  0  0  0  0
  146.3280  141.1990  155.6722 H   0  0  0  0  0  0  0  0  0  0  0  0
  145.5168  142.3676  153.6558 H   0  0  0  0  0  0  0  0  0  0  0  0
  147.0227  143.2743  153.5458 H   0  0  0  0  0  0  0  0  0  0  0  0
  145.9417  143.5186  154.9155 H   0  0  0  0  0  0  0  0  0  0  0  0
  148.6205  140.7843  153.7810 H   0  0  0  0  0  0  0  0  0  0  0  0
  145.7100  140.3526  152.9919 H   0  0  0  0  0  0  0  0  0  0  0  0
  147.0084  141.0434  152.0133 H   0  0  0  0  0  0  0  0  0  0  0  0
  146.4829  138.4159  151.7664 H   0  0  0  0  0  0  0  0  0  0  0  0
  148.1692  138.9121  151.9598 H   0  0  0  0  0  0  0  0  0  0  0  0
  146.2990  137.8482  154.0994 H   0  0  0  0  0  0  0  0  0  0  0  0
  147.9934  137.4310  153.8326 H   0  0  0  0  0  0  0  0  0  0  0  0
  1  2  1  0  0  0  0
  1 21  1  0  0  0  0
  1 22  1  0  0  0  0
  1 23  1  0  0  0  0
  2  9  1  0  0  0  0
  2  3  2  0  0  0  0
  3  4  1  0  0  0  0
  3 24  1  0  0  0  0
  4  5  2  0  0  0  0
  4  6  1  0  0  0  0
  6  7  1  0  0  0  0
  6  8  1  0  0  0  0
  7 25  1  0  0  0  0
  7 26  1  0  0  0  0
  7 27  1  0  0  0  0
  8  9  2  0  0  0  0
  8 28  1  0  0  0  0
  9 10  1  0  0  0  0
 10 11  1  0  0  0  0
 10 29  1  0  0  0  0
 11 12  2  0  0  0  0
 11 13  1  0  0  0  0
 13 14  1  0  0  0  0
 13 30  1  0  0  0  0
 14 15  1  0  0  0  0
 14 16  1  0  0  0  0
 14 31  1  0  0  0  0
 15 32  1  0  0  0  0
 15 33  1  0  0  0  0
 15 34  1  0  0  0  0
 16 20  1  0  0  0  0
 16 17  1  0  0  0  0
 16 35  1  0  0  0  0
 17 18  1  0  0  0  0
 17 36  1  0  0  0  0
 17 37  1  0  0  0  0
 18 19  1  0  0  0  0
 18 38  1  0  0  0  0
 18 39  1  0  0  0  0
 19 20  1  0  0  0  0
 19 40  1  0  0  0  0
 19 41  1  0  0  0  0
M  END
> <s_m_source_file>
AV-unprocessed.smi

> <i_m_source_file_index>
2913

> <i_lp_mmshare_version>
43012

> <i_f3d_flags>
0

> <s_epik_input>
W0NIM11jMVtjSF1jKD1PKW4oW0NIM10pW2NIXWMxW05IXUMoPU8pW05IXVtDQEhdKFtDSDNdKVtDQEBIXTJbQ0gyXVtDSDJdW0NIMl1PMg==

> <s_epik_cmdline>
J2VwaWtfcHl0aG9uJywgJy1waCcsICc3LjAnLCAnLXRuJywgJzgnLCAnLW1hJywgJzIwMCcsICctbWV0YWxfYmluZGluZycsICctaW1hZScsICc8aW5maWxlLm1hZT4nLCAnLW9tYWUnLCAnPG91dGZpbGUubWFlPic=

> <r_lp_tautomer_probability>
1

> <r_epik_Ionization_Penalty>
2.72039e-05

> <r_epik_Ionization_Penalty_Charging>
8.03976e-06

> <r_epik_Ionization_Penalty_Neutral>
1.91642e-05

> <r_epik_State_Penalty>
-0

> <r_epik_Charging_Adjusted_Penalty>
8.03976e-06

> <i_epik_Tot_Q>
0

> <i_epik_Tot_abs_Q>
0

> <r_epik_Metal_State_Penalty>
-0

> <b_epik_Metal_Only>
0

> <s_lp_Force_Field>
OPLS_2005

> <r_lp_Energy>
32.4224

> <b_lp_Chiralities_Consistent>
1

> <s_lp_Variant>
AV-unprocessed.smi:2913-2

> <Gold.Version>
5.8.1

> <Gold.Id.Protein>
6NUR|6NUR_protein|mol2

> <Gold.PLP.Fitness>
42.2054

> <Gold.PLP.PLP>
-38.0738

> <Gold.PLP.part.hbond>
-1.9612

> <Gold.PLP.part.metal>
0.0000

> <Gold.PLP.part.buried>
-3.3622

> <Gold.PLP.part.nonpolar>
-33.2893

> <Gold.PLP.part.repulsive>
0.2044

> <Gold.PLP.ligand.clash>
0.0000

> <Gold.PLP.ligand.torsion>
0.7721

> <Gold.PLP.Chemscore.Hbond>
1.8873

> <Gold.PLP.Chemscore.CHOScore>
0.0000

> <Gold.PLP.Chemscore.Metal>
0.0000

> <Gold.Chemscore.Hbonds>
donor molecule, donor type, donor heavy atom, donor atom, acceptor molecule, acceptor atom, score
      L1  H    10    29       P1  8028  0.79
      L1  H    13    30       P1  8028  1.00

> <Gold.PLP.Chemscore.Internal.Correction>
0.0140

> <Gold.Rescore>
     Score         DG    S(hbond)    S(metal)    S(lipo)     H(rot)  DE(clash)    DE(int)     intcor
     14.91     -19.50       1.83        0.00      93.91       1.21       0.52       4.06       ----

> <Gold.Chemscore.Fitness>
14.9094

> <Gold.Chemscore.DG>
-19.4953

> <Gold.Chemscore.ZeroCoef>
-5.4800

> <Gold.Chemscore.Hbond>
1.8341

> <Gold.Chemscore.Metal>
0.0000

> <Gold.Chemscore.Lipo>
93.9092

> <Gold.Chemscore.Internal_Hbond>
0.0000

> <Gold.Chemscore.DEClash>
0.5240

> <Gold.Chemscore.DEInternal>
4.0620

> <Gold.Chemscore.Rot>
1.2101

> <Gold.Chemscore.Internal.Correction>
   9.000000E+99

> <Gold.Chemscore.Hbonds>
donor molecule, donor type, donor heavy atom, donor atom, acceptor molecule, acceptor atom, score
      L1  H    10    29       P1  8028  0.72
      L1  H    13    30       P1  8028  0.77

> <Gold.Chemscore.Hbond.Weighted>
-6.1259

> <Gold.Chemscore.Metal.Weighted>
-0.0000

> <Gold.Chemscore.Lipo.Weighted>
-10.9874

> <Gold.Chemscore.Internal_Hbond.Weighted>
0.0000

> <Gold.Chemscore.DEClash.Weighted>
0.5240

> <Gold.Chemscore.DEInternal.Weighted>
4.0620

> <Gold.Chemscore.Rot.Weighted>
3.0979

> <Gold.Chemscore.Internal.Correction.Weighted>
   9.000000E+99

> <Gold.Protein.RotatedTorsions>
[ 6907 6896 6895 6894 ] final  152.91 input  -60.11 | X-H torsion
[ 7974 7965 7964 7962 ] final  162.75 input  175.53 | X-H torsion
[ 8008 7997 7996 7995 ] final  -75.63 input   59.86 | X-H torsion
[ 10167 10162 10161 10158 ] final  -56.76 input  -65.29 | X-H torsion
[ 10718 10713 10712 10709 ] final  -87.70 input   66.30 | X-H torsion
[ 10763 10752 10751 10750 ] final  179.66 input  -60.55 | X-H torsion
[ 11005 11000 10999 10996 ] final    2.51 input  -57.11 | X-H torsion

> <Gold.Protein.ActiveResidues>
 VAL166  LYS551  ARG553  GLY616  TRP617  ASP618  TYR619  PRO620  LYS621  CYS622 
 ASP623  PHE694  ASN695  SER759  ASP760  ASP761  ALA762  ILE779  LEU786  VAL792 
 PHE793  MET794  SER795  GLU796  ALA797  LYS798  CYS799  TRP800  GLU811  SER814 

> <Gold.Protein.RotatedAtoms>
  152.0801  133.4148  159.4497 H   0  0  0  0  0  0  0  0  0  0  0  0  # atno 6907 bound_to 6896
  150.6862  134.2992  159.4708 H   0  0  0  0  0  0  0  0  0  0  0  0  # atno 6908 bound_to 6896
  152.0833  134.9456  160.0624 H   0  0  0  0  0  0  0  0  0  0  0  0  # atno 6909 bound_to 6896
  144.7622  139.8084  143.6328 H   0  0  0  0  0  0  0  0  0  0  0  0  # atno 7974 bound_to 7965
  154.5433  140.0741  156.8547 H   0  0  0  0  0  0  0  0  0  0  0  0  # atno 8008 bound_to 7997
  155.3136  140.3392  155.4225 H   0  0  0  0  0  0  0  0  0  0  0  0  # atno 8009 bound_to 7997
  156.1895  140.1681  156.8106 H   0  0  0  0  0  0  0  0  0  0  0  0  # atno 8010 bound_to 7997
  140.6298  143.2454  151.5269 H   0  0  0  0  0  0  0  0  0  0  0  0  # atno 10167 bound_to 10162
  155.9985  130.4809  150.4907 H   0  0  0  0  0  0  0  0  0  0  0  0  # atno 10718 bound_to 10713
  154.5236  135.2795  155.1241 H   0  0  0  0  0  0  0  0  0  0  0  0  # atno 10763 bound_to 10752
  154.2789  135.6289  153.5343 H   0  0  0  0  0  0  0  0  0  0  0  0  # atno 10764 bound_to 10752
  152.9942  135.5646  154.5731 H   0  0  0  0  0  0  0  0  0  0  0  0  # atno 10765 bound_to 10752
  140.6035  133.9814  155.8143 H   0  0  0  0  0  0  0  0  0  0  0  0  # atno 11005 bound_to 11000
  146.1696  139.4841  142.9936 LP  0  0  0  0  0  0  0  0  0  0  0  0  # atno 17320 bound_to 7965
  145.6583  141.0246  143.1722 LP  0  0  0  0  0  0  0  0  0  0  0  0  # atno 17321 bound_to 7965
  139.5514  144.2386  152.1536 LP  0  0  0  0  0  0  0  0  0  0  0  0  # atno 17342 bound_to 10162
  140.1627  144.5010  150.6623 LP  0  0  0  0  0  0  0  0  0  0  0  0  # atno 17343 bound_to 10162
  157.2902  131.0625  151.2139 LP  0  0  0  0  0  0  0  0  0  0  0  0  # atno 17370 bound_to 10713
  157.3154  130.6910  149.6239 LP  0  0  0  0  0  0  0  0  0  0  0  0  # atno 17371 bound_to 10713
  141.0856  133.9995  157.3318 LP  0  0  0  0  0  0  0  0  0  0  0  0  # atno 17394 bound_to 11000
  139.9222  135.0201  156.8106 LP  0  0  0  0  0  0  0  0  0  0  0  0  # atno 17395 bound_to 11000

$$$$
