AV-unprocessed.smi:2424|AV-procd|sdf|9571|dock3
  -GOLD-   2272013203D 1   1.00000     0.00000
 Structure written by MMmdl.
 49 50  0  0  0  0  0  0  0  0  2 V2000
  147.1742  141.1088  153.3059 C   0  0  0  0  0  0  0  0  0  0  0  0
  147.0652  139.5869  153.5012 C   0  0  0  0  0  0  0  0  0  0  0  0
  147.7088  139.0446  154.7999 C   0  0  0  0  0  0  0  0  0  0  0  0
  147.1835  139.8647  156.0088 C   0  0  0  0  0  0  0  0  0  0  0  0
  147.6888  139.4383  157.3999 C   0  0  0  0  0  0  0  0  0  0  0  0
  147.6441  137.5063  155.0433 C   0  0  1  0  0  0  0  0  0  0  0  0
  147.5182  136.7143  153.8162 N   0  0  0  0  0  0  0  0  0  0  0  0
  146.5552  135.8179  153.5652 C   0  0  0  0  0  0  0  0  0  0  0  0
  145.6399  135.5695  154.3491 O   0  0  0  0  0  0  0  0  0  0  0  0
  146.7419  135.2486  152.3617 N   0  0  0  0  0  0  0  0  0  0  0  0
  145.9570  134.2843  151.7176 C   0  0  0  0  0  0  0  0  0  0  0  0
  144.9945  134.6677  150.8062 C   0  0  0  0  0  0  0  0  0  0  0  0
  144.1494  133.8947  150.0905 N   0  5  0  0  0  0  0  0  0  0  0  0
  144.2170  132.5431  150.2584 C   0  0  0  0  0  0  0  0  0  0  0  0
  143.4828  131.7763  149.6364 O   0  0  0  0  0  0  0  0  0  0  0  0
  145.1989  131.9924  151.2144 C   0  0  0  0  0  0  0  0  0  0  0  0
  145.2619  130.4869  151.4090 C   0  0  0  0  0  0  0  0  0  0  0  0
  146.0155  132.8339  151.8967 C   0  0  0  0  0  0  0  0  0  0  0  0
  149.1004  137.5367  155.5410 C   0  0  1  0  0  0  0  0  0  0  0  0
  150.0364  136.3595  155.2757 C   0  0  0  0  0  0  0  0  0  0  0  0
  149.2464  138.8360  154.7342 C   0  0  2  0  0  0  0  0  0  0  0  0
  149.9951  139.8516  155.3835 O   0  0  0  0  0  0  0  0  0  0  0  0
  151.3928  139.6206  155.3584 C   0  0  0  0  0  0  0  0  0  0  0  0
  146.6125  141.4223  152.4260 H   0  0  0  0  0  0  0  0  0  0  0  0
  148.2057  141.4266  153.1586 H   0  0  0  0  0  0  0  0  0  0  0  0
  146.7763  141.6550  154.1605 H   0  0  0  0  0  0  0  0  0  0  0  0
  146.0075  139.3242  153.4722 H   0  0  0  0  0  0  0  0  0  0  0  0
  147.4798  139.0833  152.6286 H   0  0  0  0  0  0  0  0  0  0  0  0
  147.4098  140.9218  155.8680 H   0  0  0  0  0  0  0  0  0  0  0  0
  146.0947  139.8253  156.0365 H   0  0  0  0  0  0  0  0  0  0  0  0
  147.1713  139.9995  158.1779 H   0  0  0  0  0  0  0  0  0  0  0  0
  148.7534  139.6338  157.5250 H   0  0  0  0  0  0  0  0  0  0  0  0
  147.5170  138.3809  157.5949 H   0  0  0  0  0  0  0  0  0  0  0  0
  146.9438  137.2238  155.8314 H   0  0  0  0  0  0  0  0  0  0  0  0
  148.2264  136.8543  153.1111 H   0  0  0  0  0  0  0  0  0  0  0  0
  147.5555  135.5464  151.8436 H   0  0  0  0  0  0  0  0  0  0  0  0
  144.8918  135.7587  150.6202 H   0  0  0  0  0  0  0  0  0  0  0  0
  146.0194  130.2118  152.1434 H   0  0  0  0  0  0  0  0  0  0  0  0
  145.5080  129.9913  150.4693 H   0  0  0  0  0  0  0  0  0  0  0  0
  144.3012  130.1070  151.7581 H   0  0  0  0  0  0  0  0  0  0  0  0
  146.7144  132.3973  152.5910 H   0  0  0  0  0  0  0  0  0  0  0  0
  149.0940  137.7700  156.6068 H   0  0  0  0  0  0  0  0  0  0  0  0
  150.2293  136.2276  154.2108 H   0  0  0  0  0  0  0  0  0  0  0  0
  149.6128  135.4284  155.6523 H   0  0  0  0  0  0  0  0  0  0  0  0
  150.9990  136.5005  155.7661 H   0  0  0  0  0  0  0  0  0  0  0  0
  149.5850  138.6560  153.7110 H   0  0  0  0  0  0  0  0  0  0  0  0
  151.9074  140.4522  155.8395 H   0  0  0  0  0  0  0  0  0  0  0  0
  151.7621  139.5446  154.3350 H   0  0  0  0  0  0  0  0  0  0  0  0
  151.6579  138.7109  155.8961 H   0  0  0  0  0  0  0  0  0  0  0  0
  1  2  1  0  0  0  0
  1 24  1  0  0  0  0
  1 25  1  0  0  0  0
  1 26  1  0  0  0  0
  2  3  1  0  0  0  0
  2 27  1  0  0  0  0
  2 28  1  0  0  0  0
  3 21  1  0  0  0  0
  3  4  1  0  0  0  0
  3  6  1  0  0  0  0
  4  5  1  0  0  0  0
  4 29  1  0  0  0  0
  4 30  1  0  0  0  0
  5 31  1  0  0  0  0
  5 32  1  0  0  0  0
  5 33  1  0  0  0  0
  6  7  1  0  0  0  0
  6 19  1  0  0  0  0
  6 34  1  0  0  0  0
  7  8  1  0  0  0  0
  7 35  1  0  0  0  0
  8  9  2  0  0  0  0
  8 10  1  0  0  0  0
 10 11  1  0  0  0  0
 10 36  1  0  0  0  0
 11 18  1  0  0  0  0
 11 12  2  0  0  0  0
 12 13  1  0  0  0  0
 12 37  1  0  0  0  0
 13 14  1  0  0  0  0
 14 15  2  0  0  0  0
 14 16  1  0  0  0  0
 16 17  1  0  0  0  0
 16 18  2  0  0  0  0
 17 38  1  0  0  0  0
 17 39  1  0  0  0  0
 17 40  1  0  0  0  0
 18 41  1  0  0  0  0
 19 20  1  0  0  0  0
 19 21  1  0  0  0  0
 19 42  1  0  0  0  0
 20 43  1  0  0  0  0
 20 44  1  0  0  0  0
 20 45  1  0  0  0  0
 21 22  1  0  0  0  0
 21 46  1  0  0  0  0
 22 23  1  0  0  0  0
 23 47  1  0  0  0  0
 23 48  1  0  0  0  0
 23 49  1  0  0  0  0
M  CHG  1  13  -1
M  END
> <s_m_source_file>
AV-unprocessed.smi

> <i_m_source_file_index>
2424

> <i_lp_mmshare_version>
43012

> <i_f3d_flags>
0

> <s_epik_input>
W0NIM11PW0NAQEhdMVtDQEhdKFtDSDNdKVtDQEBIXShDMShbQ0gyXVtDSDNdKVtDSDJdW0NIM10pW05IXUMoPU8pW05IXWMyW2NIXVtuSF1jKD1PKWMoW0NIM10pW2NIXTI=

> <s_epik_cmdline>
J2VwaWtfcHl0aG9uJywgJy1waCcsICc3LjAnLCAnLXRuJywgJzgnLCAnLW1hJywgJzIwMCcsICctbWV0YWxfYmluZGluZycsICctaW1hZScsICc8aW5maWxlLm1hZT4nLCAnLW9tYWUnLCAnPG91dGZpbGUubWFlPic=

> <r_lp_tautomer_probability>
1

> <r_epik_Ionization_Penalty>
7.6122

> <r_epik_Ionization_Penalty_Charging>
1.53843

> <r_epik_Ionization_Penalty_Neutral>
6.07377

> <r_epik_State_Penalty>
6.07371

> <r_epik_Charging_Adjusted_Penalty>
7.61214

> <i_epik_Tot_Q>
-1

> <i_epik_Tot_abs_Q>
1

> <r_epik_Metal_State_Penalty>
2.02136

> <b_epik_Metal_Only>
1

> <s_lp_Force_Field>
OPLS_2005

> <r_lp_Energy>
40.0486

> <b_lp_Chiralities_Consistent>
1

> <s_lp_Variant>
AV-unprocessed.smi:2424-13

> <Gold.Version>
5.8.1

> <Gold.Id.Protein>
6NUR|6NUR_protein|mol2

> <Gold.PLP.Fitness>
36.8456

> <Gold.PLP.PLP>
-29.7496

> <Gold.PLP.part.hbond>
-2.5651

> <Gold.PLP.part.metal>
0.0000

> <Gold.PLP.part.buried>
-5.7240

> <Gold.PLP.part.nonpolar>
-23.3051

> <Gold.PLP.part.repulsive>
1.2328

> <Gold.PLP.ligand.clash>
0.0000

> <Gold.PLP.ligand.torsion>
1.1213

> <Gold.PLP.Chemscore.Hbond>
2.9193

> <Gold.PLP.Chemscore.CHOScore>
0.0000

> <Gold.PLP.Chemscore.Metal>
0.0000

> <Gold.Chemscore.Hbonds>
donor molecule, donor type, donor heavy atom, donor atom, acceptor molecule, acceptor atom, score
      L1  H     7    35       P1  7948  0.93
      L1  H    10    36       P1  7948  0.98
      P1  H 10785 10796       L1    15  1.00

> <Gold.PLP.Chemscore.Internal.Correction>
0.5809

> <Gold.Rescore>
     Score         DG    S(hbond)    S(metal)    S(lipo)     H(rot)  DE(clash)    DE(int)     intcor
     16.91     -19.21       2.77        0.00      71.46       1.52       0.20       2.10       ----

> <Gold.Chemscore.Fitness>
16.9096

> <Gold.Chemscore.DG>
-19.2119

> <Gold.Chemscore.ZeroCoef>
-5.4800

> <Gold.Chemscore.Hbond>
2.7735

> <Gold.Chemscore.Metal>
0.0000

> <Gold.Chemscore.Lipo>
71.4586

> <Gold.Chemscore.Internal_Hbond>
0.0000

> <Gold.Chemscore.DEClash>
0.1983

> <Gold.Chemscore.DEInternal>
2.1039

> <Gold.Chemscore.Rot>
1.5204

> <Gold.Chemscore.Internal.Correction>
   9.000000E+99

> <Gold.Chemscore.Hbonds>
donor molecule, donor type, donor heavy atom, donor atom, acceptor molecule, acceptor atom, score
      L1  H     7    35       P1  7948  0.87
      L1  H    10    36       P1  7948  0.86
      P1  H 10785 10796       L1    15  0.95

> <Gold.Chemscore.Hbond.Weighted>
-9.2635

> <Gold.Chemscore.Metal.Weighted>
-0.0000

> <Gold.Chemscore.Lipo.Weighted>
-8.3607

> <Gold.Chemscore.Internal_Hbond.Weighted>
0.0000

> <Gold.Chemscore.DEClash.Weighted>
0.1983

> <Gold.Chemscore.DEInternal.Weighted>
2.1039

> <Gold.Chemscore.Rot.Weighted>
3.8922

> <Gold.Chemscore.Internal.Correction.Weighted>
   9.000000E+99

> <Gold.Protein.RotatedTorsions>
[ 6907 6896 6895 6894 ] final  -26.71 input  -60.11 | X-H torsion
[ 7974 7965 7964 7962 ] final   -4.71 input  175.53 | X-H torsion
[ 8008 7997 7996 7995 ] final -173.06 input   59.86 | X-H torsion
[ 10167 10162 10161 10158 ] final   35.01 input  -65.29 | X-H torsion
[ 10718 10713 10712 10709 ] final  164.06 input   66.30 | X-H torsion
[ 10763 10752 10751 10750 ] final -156.22 input  -60.55 | X-H torsion
[ 11005 11000 10999 10996 ] final -162.58 input  -57.11 | X-H torsion

> <Gold.Protein.ActiveResidues>
 VAL166  LYS551  ARG553  GLY616  TRP617  ASP618  TYR619  PRO620  LYS621  CYS622 
 ASP623  PHE694  ASN695  SER759  ASP760  ASP761  ALA762  ILE779  LEU786  VAL792 
 PHE793  MET794  SER795  GLU796  ALA797  LYS798  CYS799  TRP800  GLU811  SER814 

> <Gold.Protein.RotatedAtoms>
  151.1571  135.0255  159.8693 H   0  0  0  0  0  0  0  0  0  0  0  0  # atno 6907 bound_to 6896
  152.5452  134.1322  159.8454 H   0  0  0  0  0  0  0  0  0  0  0  0  # atno 6908 bound_to 6896
  151.1413  133.4923  159.2629 H   0  0  0  0  0  0  0  0  0  0  0  0  # atno 6909 bound_to 6896
  146.2367  140.1912  142.8332 H   0  0  0  0  0  0  0  0  0  0  0  0  # atno 7974 bound_to 7965
  155.9526  140.1129  157.0964 H   0  0  0  0  0  0  0  0  0  0  0  0  # atno 8008 bound_to 7997
  154.4113  140.1197  156.5139 H   0  0  0  0  0  0  0  0  0  0  0  0  # atno 8009 bound_to 7997
  155.6823  140.3473  155.4862 H   0  0  0  0  0  0  0  0  0  0  0  0  # atno 8010 bound_to 7997
  140.4261  144.1390  150.6153 H   0  0  0  0  0  0  0  0  0  0  0  0  # atno 10167 bound_to 10162
  157.0997  131.0439  151.2503 H   0  0  0  0  0  0  0  0  0  0  0  0  # atno 10718 bound_to 10713
  154.7729  135.3150  154.8152 H   0  0  0  0  0  0  0  0  0  0  0  0  # atno 10763 bound_to 10752
  153.8883  135.6828  153.4766 H   0  0  0  0  0  0  0  0  0  0  0  0  # atno 10764 bound_to 10752
  153.1346  135.4765  154.9338 H   0  0  0  0  0  0  0  0  0  0  0  0  # atno 10765 bound_to 10752
  140.6076  134.4882  157.5212 H   0  0  0  0  0  0  0  0  0  0  0  0  # atno 11005 bound_to 11000
  144.9856  140.8500  143.5370 LP  0  0  0  0  0  0  0  0  0  0  0  0  # atno 17320 bound_to 7965
  145.1911  139.2301  143.5242 LP  0  0  0  0  0  0  0  0  0  0  0  0  # atno 17321 bound_to 7965
  140.4479  143.2499  151.9387 LP  0  0  0  0  0  0  0  0  0  0  0  0  # atno 17342 bound_to 10162
  139.4783  144.5591  151.8267 LP  0  0  0  0  0  0  0  0  0  0  0  0  # atno 17343 bound_to 10162
  157.4651  130.7676  149.7272 LP  0  0  0  0  0  0  0  0  0  0  0  0  # atno 17370 bound_to 10713
  155.9877  130.3965  150.3154 LP  0  0  0  0  0  0  0  0  0  0  0  0  # atno 17371 bound_to 10713
  139.9205  134.8158  156.1225 LP  0  0  0  0  0  0  0  0  0  0  0  0  # atno 17394 bound_to 11000
  141.0830  133.6746  156.2375 LP  0  0  0  0  0  0  0  0  0  0  0  0  # atno 17395 bound_to 11000

$$$$
