AV-unprocessed.smi:2195|AV-procd|sdf|8906|dock5
  -GOLD-   2272012123D 1   1.00000     0.00000
 Structure written by MMmdl.
 40 42  0  0  0  0  0  0  0  0  2 V2000
  145.3348  142.1648  155.7965 C   0  0  0  0  0  0  0  0  0  0  0  0
  146.6824  141.5934  155.4059 C   0  0  0  0  0  0  0  0  0  0  0  0
  147.2383  141.8728  154.1418 C   0  0  0  0  0  0  0  0  0  0  0  0
  148.4917  141.3377  153.7878 C   0  0  0  0  0  0  0  0  0  0  0  0
  149.2077  140.5188  154.6853 C   0  0  0  0  0  0  0  0  0  0  0  0
  150.4266  140.0392  154.2567 O   0  0  0  0  0  0  0  0  0  0  0  0
  151.1088  139.0992  155.0775 C   0  0  0  0  0  0  0  0  0  0  0  0
  151.9964  139.8364  156.0940 C   0  0  2  0  0  0  0  0  0  0  0  0
  153.1698  139.0815  156.3235 O   0  0  0  0  0  0  0  0  0  0  0  0
  151.2693  140.1811  157.4099 C   0  0  0  0  0  0  0  0  0  0  0  0
  151.1023  141.6275  157.6089 N   0  0  0  0  0  0  0  0  0  0  0  0
  150.4845  142.5474  156.8194 C   0  0  0  0  0  0  0  0  0  0  0  0
  150.5872  143.7566  157.4374 N   0  3  0  0  0  0  0  0  0  0  0  0
  151.2823  143.6082  158.6395 C   0  0  0  0  0  0  0  0  0  0  0  0
  151.6345  144.5419  159.6093 C   0  0  0  0  0  0  0  0  0  0  0  0
  152.3505  144.0577  160.7238 C   0  0  0  0  0  0  0  0  0  0  0  0
  152.6911  142.6945  160.8422 C   0  0  0  0  0  0  0  0  0  0  0  0
  152.3283  141.7565  159.8534 C   0  0  0  0  0  0  0  0  0  0  0  0
  151.6184  142.2424  158.7557 C   0  0  0  0  0  0  0  0  0  0  0  0
  148.6415  140.2396  155.9548 C   0  0  0  0  0  0  0  0  0  0  0  0
  147.3874  140.7741  156.3093 C   0  0  0  0  0  0  0  0  0  0  0  0
  144.9722  142.8729  155.0509 H   0  0  0  0  0  0  0  0  0  0  0  0
  145.4057  142.6858  156.7516 H   0  0  0  0  0  0  0  0  0  0  0  0
  144.5998  141.3656  155.8944 H   0  0  0  0  0  0  0  0  0  0  0  0
  146.7075  142.4977  153.4386 H   0  0  0  0  0  0  0  0  0  0  0  0
  148.9095  141.5589  152.8166 H   0  0  0  0  0  0  0  0  0  0  0  0
  150.4046  138.4432  155.5925 H   0  0  0  0  0  0  0  0  0  0  0  0
  151.7449  138.4739  154.4488 H   0  0  0  0  0  0  0  0  0  0  0  0
  152.3248  140.7668  155.6292 H   0  0  0  0  0  0  0  0  0  0  0  0
  153.2139  138.3911  155.6794 H   0  0  0  0  0  0  0  0  0  0  0  0
  150.2709  139.7420  157.4039 H   0  0  0  0  0  0  0  0  0  0  0  0
  151.7815  139.7599  158.2755 H   0  0  0  0  0  0  0  0  0  0  0  0
  149.9984  142.3529  155.8741 H   0  0  0  0  0  0  0  0  0  0  0  0
  151.3767  145.5871  159.5202 H   0  0  0  0  0  0  0  0  0  0  0  0
  152.6458  144.7456  161.5026 H   0  0  0  0  0  0  0  0  0  0  0  0
  153.2434  142.3609  161.7087 H   0  0  0  0  0  0  0  0  0  0  0  0
  152.6000  140.7158  159.9508 H   0  0  0  0  0  0  0  0  0  0  0  0
  149.1487  139.6174  156.6763 H   0  0  0  0  0  0  0  0  0  0  0  0
  146.9672  140.5522  157.2793 H   0  0  0  0  0  0  0  0  0  0  0  0
  150.2094  144.6180  157.0640 H   0  0  0  0  0  0  0  0  0  0  0  0
  1  2  1  0  0  0  0
  1 22  1  0  0  0  0
  1 23  1  0  0  0  0
  1 24  1  0  0  0  0
  2 21  1  0  0  0  0
  2  3  2  0  0  0  0
  3  4  1  0  0  0  0
  3 25  1  0  0  0  0
  4  5  2  0  0  0  0
  4 26  1  0  0  0  0
  5  6  1  0  0  0  0
  5 20  1  0  0  0  0
  6  7  1  0  0  0  0
  7  8  1  0  0  0  0
  7 27  1  0  0  0  0
  7 28  1  0  0  0  0
  8  9  1  0  0  0  0
  8 10  1  0  0  0  0
  8 29  1  0  0  0  0
  9 30  1  0  0  0  0
 10 11  1  0  0  0  0
 10 31  1  0  0  0  0
 10 32  1  0  0  0  0
 11 19  1  0  0  0  0
 11 12  1  0  0  0  0
 12 13  2  0  0  0  0
 12 33  1  0  0  0  0
 13 14  1  0  0  0  0
 13 40  1  0  0  0  0
 14 19  2  0  0  0  0
 14 15  1  0  0  0  0
 15 16  2  0  0  0  0
 15 34  1  0  0  0  0
 16 17  1  0  0  0  0
 16 35  1  0  0  0  0
 17 18  2  0  0  0  0
 17 36  1  0  0  0  0
 18 19  1  0  0  0  0
 18 37  1  0  0  0  0
 20 21  2  0  0  0  0
 20 38  1  0  0  0  0
 21 39  1  0  0  0  0
M  CHG  1  13   1
M  END
> <s_m_source_file>
AV-unprocessed.smi

> <i_m_source_file_index>
2195

> <i_lp_mmshare_version>
43012

> <i_f3d_flags>
0

> <s_epik_input>
W0NIM11jMVtjSF1bY0hdYyhbY0hdW2NIXTEpT1tDSDJdW0NASF0oW09IXSlbQ0gyXW4oW2NIXW4yKWMoYzIzKVtjSF1bY0hdW2NIXVtjSF0z

> <s_epik_cmdline>
J2VwaWtfcHl0aG9uJywgJy1waCcsICc3LjAnLCAnLXRuJywgJzgnLCAnLW1hJywgJzIwMCcsICctbWV0YWxfYmluZGluZycsICctaW1hZScsICc8aW5maWxlLm1hZT4nLCAnLW9tYWUnLCAnPG91dGZpbGUubWFlPic=

> <r_lp_tautomer_probability>
1

> <r_epik_Ionization_Penalty>
1.3774

> <r_epik_Ionization_Penalty_Charging>
1.37739

> <r_epik_Ionization_Penalty_Neutral>
2.3993e-06

> <r_epik_State_Penalty>
1.45762

> <r_epik_Charging_Adjusted_Penalty>
2.83501

> <i_epik_Tot_Q>
1

> <i_epik_Tot_abs_Q>
1

> <r_epik_Metal_State_Penalty>
5.49752

> <b_epik_Metal_Only>
0

> <s_lp_Force_Field>
OPLS_2005

> <r_lp_Energy>
21.3932

> <b_lp_Chiralities_Consistent>
1

> <s_lp_Variant>
AV-unprocessed.smi:2195-3

> <Gold.Version>
5.8.1

> <Gold.Id.Protein>
6NUR|6NUR_protein|mol2

> <Gold.PLP.Fitness>
52.3468

> <Gold.PLP.PLP>
-45.1816

> <Gold.PLP.part.hbond>
-3.0000

> <Gold.PLP.part.metal>
0.0000

> <Gold.PLP.part.buried>
-4.0641

> <Gold.PLP.part.nonpolar>
-38.9450

> <Gold.PLP.part.repulsive>
0.1295

> <Gold.PLP.ligand.clash>
0.0000

> <Gold.PLP.ligand.torsion>
1.3655

> <Gold.PLP.Chemscore.Hbond>
2.9600

> <Gold.PLP.Chemscore.CHOScore>
0.3210

> <Gold.PLP.Chemscore.Metal>
0.0000

> <Gold.Chemscore.Hbonds>
donor molecule, donor type, donor heavy atom, donor atom, acceptor molecule, acceptor atom, score
      L1  H    13    40       P1  8028  1.06
      P1  H  7989  7998       L1     6  1.00
      P1  H  7997  8010       L1     9  1.00
      L1  C    12    33       P1  8028  0.24

> <Gold.PLP.Chemscore.Internal.Correction>
0.0533

> <Gold.Rescore>
     Score         DG    S(hbond)    S(metal)    S(lipo)     H(rot)  DE(clash)    DE(int)     intcor
     18.04     -20.38       2.15        0.00     115.66       2.27       0.98       1.36       ----

> <Gold.Chemscore.Fitness>
18.0433

> <Gold.Chemscore.DG>
-20.3840

> <Gold.Chemscore.ZeroCoef>
-5.4800

> <Gold.Chemscore.Hbond>
2.1524

> <Gold.Chemscore.Metal>
0.0000

> <Gold.Chemscore.Lipo>
115.6566

> <Gold.Chemscore.Internal_Hbond>
0.0000

> <Gold.Chemscore.DEClash>
0.9806

> <Gold.Chemscore.DEInternal>
1.3601

> <Gold.Chemscore.Rot>
2.2723

> <Gold.Chemscore.Internal.Correction>
   9.000000E+99

> <Gold.Chemscore.Hbonds>
donor molecule, donor type, donor heavy atom, donor atom, acceptor molecule, acceptor atom, score
      L1  H    13    40       P1  8028  0.29
      P1  H  7989  7998       L1     6  0.49
      P1  H  7997  8010       L1     9  0.69

> <Gold.Chemscore.Hbond.Weighted>
-7.1892

> <Gold.Chemscore.Metal.Weighted>
-0.0000

> <Gold.Chemscore.Lipo.Weighted>
-13.5318

> <Gold.Chemscore.Internal_Hbond.Weighted>
0.0000

> <Gold.Chemscore.DEClash.Weighted>
0.9806

> <Gold.Chemscore.DEInternal.Weighted>
1.3601

> <Gold.Chemscore.Rot.Weighted>
5.8170

> <Gold.Chemscore.Internal.Correction.Weighted>
   9.000000E+99

> <Gold.Protein.RotatedTorsions>
[ 6907 6896 6895 6894 ] final  -82.54 input  -60.11 | X-H torsion
[ 7974 7965 7964 7962 ] final   46.83 input  175.53 | X-H torsion
[ 8008 7997 7996 7995 ] final   57.26 input   59.86 | X-H torsion
[ 10167 10162 10161 10158 ] final -159.65 input  -65.29 | X-H torsion
[ 10718 10713 10712 10709 ] final  169.76 input   66.30 | X-H torsion
[ 10763 10752 10751 10750 ] final -112.83 input  -60.55 | X-H torsion
[ 11005 11000 10999 10996 ] final  114.84 input  -57.11 | X-H torsion

> <Gold.Protein.ActiveResidues>
 VAL166  LYS551  ARG553  GLY616  TRP617  ASP618  TYR619  PRO620  LYS621  CYS622 
 ASP623  PHE694  ASN695  SER759  ASP760  ASP761  ALA762  ILE779  LEU786  VAL792 
 PHE793  MET794  SER795  GLU796  ALA797  LYS798  CYS799  TRP800  GLU811  SER814 

> <Gold.Protein.RotatedAtoms>
  150.6896  134.3649  159.4966 H   0  0  0  0  0  0  0  0  0  0  0  0  # atno 6907 bound_to 6896
  152.1472  134.9013  160.0559 H   0  0  0  0  0  0  0  0  0  0  0  0  # atno 6908 bound_to 6896
  152.0125  133.3832  159.4262 H   0  0  0  0  0  0  0  0  0  0  0  0  # atno 6909 bound_to 6896
  146.0353  139.4814  142.9812 H   0  0  0  0  0  0  0  0  0  0  0  0  # atno 7974 bound_to 7965
  155.5309  140.3482  155.4426 H   0  0  0  0  0  0  0  0  0  0  0  0  # atno 8008 bound_to 7997
  156.0719  140.1365  156.9845 H   0  0  0  0  0  0  0  0  0  0  0  0  # atno 8009 bound_to 7997
  154.4532  140.0964  156.6656 H   0  0  0  0  0  0  0  0  0  0  0  0  # atno 8010 bound_to 7997
  139.6599  143.9931  152.2218 H   0  0  0  0  0  0  0  0  0  0  0  0  # atno 10167 bound_to 10162
  157.0180  131.0223  151.2783 H   0  0  0  0  0  0  0  0  0  0  0  0  # atno 10718 bound_to 10713
  154.8368  135.4476  154.1255 H   0  0  0  0  0  0  0  0  0  0  0  0  # atno 10763 bound_to 10752
  153.2479  135.6923  153.7717 H   0  0  0  0  0  0  0  0  0  0  0  0  # atno 10764 bound_to 10752
  153.7040  135.3367  155.3207 H   0  0  0  0  0  0  0  0  0  0  0  0  # atno 10765 bound_to 10752
  139.8992  134.9574  156.6954 H   0  0  0  0  0  0  0  0  0  0  0  0  # atno 11005 bound_to 11000
  145.6973  141.0146  143.1523 LP  0  0  0  0  0  0  0  0  0  0  0  0  # atno 17320 bound_to 7965
  144.7049  139.8603  143.7433 LP  0  0  0  0  0  0  0  0  0  0  0  0  # atno 17321 bound_to 7965
  139.9667  144.6521  150.8027 LP  0  0  0  0  0  0  0  0  0  0  0  0  # atno 17342 bound_to 10162
  140.7575  143.3088  151.2895 LP  0  0  0  0  0  0  0  0  0  0  0  0  # atno 17343 bound_to 10162
  157.5271  130.8035  149.7874 LP  0  0  0  0  0  0  0  0  0  0  0  0  # atno 17370 bound_to 10713
  156.0112  130.3832  150.2258 LP  0  0  0  0  0  0  0  0  0  0  0  0  # atno 17371 bound_to 10713
  140.7192  133.9156  155.8135 LP  0  0  0  0  0  0  0  0  0  0  0  0  # atno 17394 bound_to 11000
  141.0241  134.0848  157.4088 LP  0  0  0  0  0  0  0  0  0  0  0  0  # atno 17395 bound_to 11000

$$$$
