AV-unprocessed.smi:2635|AV-procd|sdf|10256|dock10
  -GOLD-   2272014263D 1   1.00000     0.00000
 Structure written by MMmdl.
 31 32  0  0  0  0  0  0  0  0  2 V2000
  148.8745  136.6554  157.0134 C   0  0  0  0  0  0  0  0  0  0  0  0
  149.9644  137.5142  156.3984 C   0  0  0  0  0  0  0  0  0  0  0  0
  149.9420  138.8624  156.4429 C   0  0  0  0  0  0  0  0  0  0  0  0
  150.9562  139.6472  155.8698 N   0  0  0  0  0  0  0  0  0  0  0  0
  150.8353  141.0942  155.9240 C   0  0  0  0  0  0  0  0  0  0  0  0
  150.8012  141.4959  157.2545 O   0  0  0  0  0  0  0  0  0  0  0  0
  151.3324  142.7956  157.4533 C   0  0  0  0  0  0  0  0  0  0  0  0
  151.7996  142.9963  158.8814 C   0  0  0  0  0  0  0  0  0  0  0  0
  151.4742  144.1843  159.5693 C   0  0  0  0  0  0  0  0  0  0  0  0
  151.9185  144.3814  160.8914 C   0  0  0  0  0  0  0  0  0  0  0  0
  152.6928  143.3930  161.5294 C   0  0  0  0  0  0  0  0  0  0  0  0
  153.0246  142.2083  160.8439 C   0  0  0  0  0  0  0  0  0  0  0  0
  152.5816  142.0112  159.5213 C   0  0  0  0  0  0  0  0  0  0  0  0
  151.9917  139.0561  155.2026 C   0  0  0  0  0  0  0  0  0  0  0  0
  152.8501  139.7641  154.6739 O   0  0  0  0  0  0  0  0  0  0  0  0
  152.0394  137.6896  155.1526 N   0  5  0  0  0  0  0  0  0  0  0  0
  151.0942  136.8798  155.7140 C   0  0  0  0  0  0  0  0  0  0  0  0
  151.1626  135.6522  155.6610 O   0  0  0  0  0  0  0  0  0  0  0  0
  148.1169  137.2701  157.5004 H   0  0  0  0  0  0  0  0  0  0  0  0
  149.2952  135.9815  157.7602 H   0  0  0  0  0  0  0  0  0  0  0  0
  148.3833  136.0567  156.2456 H   0  0  0  0  0  0  0  0  0  0  0  0
  149.1461  139.4191  156.9153 H   0  0  0  0  0  0  0  0  0  0  0  0
  151.6851  141.5507  155.4141 H   0  0  0  0  0  0  0  0  0  0  0  0
  149.9239  141.3911  155.4003 H   0  0  0  0  0  0  0  0  0  0  0  0
  152.1631  142.9637  156.7661 H   0  0  0  0  0  0  0  0  0  0  0  0
  150.5716  143.5463  157.2341 H   0  0  0  0  0  0  0  0  0  0  0  0
  150.8821  144.9461  159.0831 H   0  0  0  0  0  0  0  0  0  0  0  0
  151.6664  145.2912  161.4160 H   0  0  0  0  0  0  0  0  0  0  0  0
  153.0333  143.5442  162.5431 H   0  0  0  0  0  0  0  0  0  0  0  0
  153.6198  141.4508  161.3317 H   0  0  0  0  0  0  0  0  0  0  0  0
  152.8427  141.1007  159.0024 H   0  0  0  0  0  0  0  0  0  0  0  0
  1  2  1  0  0  0  0
  1 19  1  0  0  0  0
  1 20  1  0  0  0  0
  1 21  1  0  0  0  0
  2 17  1  0  0  0  0
  2  3  2  0  0  0  0
  3  4  1  0  0  0  0
  3 22  1  0  0  0  0
  4  5  1  0  0  0  0
  4 14  1  0  0  0  0
  5  6  1  0  0  0  0
  5 23  1  0  0  0  0
  5 24  1  0  0  0  0
  6  7  1  0  0  0  0
  7  8  1  0  0  0  0
  7 25  1  0  0  0  0
  7 26  1  0  0  0  0
  8 13  1  0  0  0  0
  8  9  2  0  0  0  0
  9 10  1  0  0  0  0
  9 27  1  0  0  0  0
 10 11  2  0  0  0  0
 10 28  1  0  0  0  0
 11 12  1  0  0  0  0
 11 29  1  0  0  0  0
 12 13  2  0  0  0  0
 12 30  1  0  0  0  0
 13 31  1  0  0  0  0
 14 15  2  0  0  0  0
 14 16  1  0  0  0  0
 16 17  1  0  0  0  0
 17 18  2  0  0  0  0
M  CHG  1  16  -1
M  END
> <s_m_source_file>
AV-unprocessed.smi

> <i_m_source_file_index>
2635

> <i_lp_mmshare_version>
43012

> <i_f3d_flags>
0

> <s_epik_input>
Tz1jMVtuSF1jKD1PKW4oW2NIXWMxW0NIM10pW0NIMl1PW0NIMl1jMltjSF1bY0hdW2NIXVtjSF1bY0hdMg==

> <s_epik_cmdline>
J2VwaWtfcHl0aG9uJywgJy1waCcsICc3LjAnLCAnLXRuJywgJzgnLCAnLW1hJywgJzIwMCcsICctbWV0YWxfYmluZGluZycsICctaW1hZScsICc8aW5maWxlLm1hZT4nLCAnLW9tYWUnLCAnPG91dGZpbGUubWFlPic=

> <r_lp_tautomer_probability>
0.999537

> <r_epik_Ionization_Penalty>
3.41553

> <r_epik_Ionization_Penalty_Charging>
6.94296e-08

> <r_epik_Ionization_Penalty_Neutral>
3.41553

> <r_epik_State_Penalty>
3.41493

> <r_epik_Charging_Adjusted_Penalty>
3.41493

> <i_epik_Tot_Q>
-1

> <i_epik_Tot_abs_Q>
1

> <r_epik_Metal_State_Penalty>
0.16353

> <b_epik_Metal_Only>
1

> <s_epik_Chemistry_Notes>
This compound contains an acetal/aminal-like group ( X-CH(R)-Y where X, Y are N, S, or O) that may be acid/base labile, releasing an aldehyde.

> <s_lp_Force_Field>
OPLS_2005

> <r_lp_Energy>
15.2245

> <b_lp_Chiralities_Consistent>
1

> <s_lp_Variant>
AV-unprocessed.smi:2635-2

> <Gold.Version>
5.8.1

> <Gold.Id.Protein>
6NUR|6NUR_protein|mol2

> <Gold.PLP.Fitness>
43.5588

> <Gold.PLP.PLP>
-37.5186

> <Gold.PLP.part.hbond>
-3.6877

> <Gold.PLP.part.metal>
0.0000

> <Gold.PLP.part.buried>
-3.9595

> <Gold.PLP.part.nonpolar>
-30.0041

> <Gold.PLP.part.repulsive>
0.1975

> <Gold.PLP.ligand.clash>
0.0000

> <Gold.PLP.ligand.torsion>
0.4822

> <Gold.PLP.Chemscore.Hbond>
2.3283

> <Gold.PLP.Chemscore.CHOScore>
0.0000

> <Gold.PLP.Chemscore.Metal>
0.0000

> <Gold.Chemscore.Hbonds>
donor molecule, donor type, donor heavy atom, donor atom, acceptor molecule, acceptor atom, score
      P1  H  7989  7998       L1    15  0.42
      P1  H  7997  8008       L1    15  0.73
      P1  H 10752 10764       L1    18  0.91

> <Gold.PLP.Chemscore.Internal.Correction>
0.0199

> <Gold.Rescore>
     Score         DG    S(hbond)    S(metal)    S(lipo)     H(rot)  DE(clash)    DE(int)     intcor
     14.97     -15.41       1.47        0.00      84.49       1.90       0.04       0.40       ----

> <Gold.Chemscore.Fitness>
14.9715

> <Gold.Chemscore.DG>
-15.4078

> <Gold.Chemscore.ZeroCoef>
-5.4800

> <Gold.Chemscore.Hbond>
1.4692

> <Gold.Chemscore.Metal>
0.0000

> <Gold.Chemscore.Lipo>
84.4923

> <Gold.Chemscore.Internal_Hbond>
0.0000

> <Gold.Chemscore.DEClash>
0.0383

> <Gold.Chemscore.DEInternal>
0.3979

> <Gold.Chemscore.Rot>
1.9004

> <Gold.Chemscore.Internal.Correction>
   9.000000E+99

> <Gold.Chemscore.Hbonds>
donor molecule, donor type, donor heavy atom, donor atom, acceptor molecule, acceptor atom, score
      P1  H  7989  7998       L1    15  0.10
      P1  H  7997  8008       L1    15  0.68
      P1  H 10752 10764       L1    18  0.19

> <Gold.Chemscore.Hbond.Weighted>
-4.9073

> <Gold.Chemscore.Metal.Weighted>
-0.0000

> <Gold.Chemscore.Lipo.Weighted>
-9.8856

> <Gold.Chemscore.Internal_Hbond.Weighted>
0.0000

> <Gold.Chemscore.DEClash.Weighted>
0.0383

> <Gold.Chemscore.DEInternal.Weighted>
0.3979

> <Gold.Chemscore.Rot.Weighted>
4.8651

> <Gold.Chemscore.Internal.Correction.Weighted>
   9.000000E+99

> <Gold.Protein.RotatedTorsions>
[ 6907 6896 6895 6894 ] final   54.85 input  -60.11 | X-H torsion
[ 7974 7965 7964 7962 ] final  -90.57 input  175.53 | X-H torsion
[ 8008 7997 7996 7995 ] final    9.84 input   59.86 | X-H torsion
[ 10167 10162 10161 10158 ] final   75.26 input  -65.29 | X-H torsion
[ 10718 10713 10712 10709 ] final  -39.73 input   66.30 | X-H torsion
[ 10763 10752 10751 10750 ] final  -33.24 input  -60.55 | X-H torsion
[ 11005 11000 10999 10996 ] final  102.15 input  -57.11 | X-H torsion

> <Gold.Protein.ActiveResidues>
 VAL166  LYS551  ARG553  GLY616  TRP617  ASP618  TYR619  PRO620  LYS621  CYS622 
 ASP623  PHE694  ASN695  SER759  ASP760  ASP761  ALA762  ILE779  LEU786  VAL792 
 PHE793  MET794  SER795  GLU796  ALA797  LYS798  CYS799  TRP800  GLU811  SER814 

> <Gold.Protein.RotatedAtoms>
  152.3480  134.7044  160.0244 H   0  0  0  0  0  0  0  0  0  0  0  0  # atno 6907 bound_to 6896
  151.7407  133.3316  159.3373 H   0  0  0  0  0  0  0  0  0  0  0  0  # atno 6908 bound_to 6896
  150.7522  134.6213  159.6182 H   0  0  0  0  0  0  0  0  0  0  0  0  # atno 6909 bound_to 6896
  145.4247  140.9553  143.2161 H   0  0  0  0  0  0  0  0  0  0  0  0  # atno 7974 bound_to 7965
  154.7855  140.2826  155.6031 H   0  0  0  0  0  0  0  0  0  0  0  0  # atno 8008 bound_to 7997
  156.2956  140.2615  156.2618 H   0  0  0  0  0  0  0  0  0  0  0  0  # atno 8009 bound_to 7997
  154.9733  140.0376  157.2234 H   0  0  0  0  0  0  0  0  0  0  0  0  # atno 8010 bound_to 7997
  140.0048  144.5659  150.7707 H   0  0  0  0  0  0  0  0  0  0  0  0  # atno 10167 bound_to 10162
  156.2892  130.4226  149.8256 H   0  0  0  0  0  0  0  0  0  0  0  0  # atno 10718 bound_to 10713
  153.8269  135.6869  153.4819 H   0  0  0  0  0  0  0  0  0  0  0  0  # atno 10763 bound_to 10752
  153.1535  135.4608  154.9668 H   0  0  0  0  0  0  0  0  0  0  0  0  # atno 10764 bound_to 10752
  154.7903  135.3299  154.7736 H   0  0  0  0  0  0  0  0  0  0  0  0  # atno 10765 bound_to 10752
  139.8776  134.9212  156.5015 H   0  0  0  0  0  0  0  0  0  0  0  0  # atno 11005 bound_to 11000
  144.8222  139.5772  143.6982 LP  0  0  0  0  0  0  0  0  0  0  0  0  # atno 17320 bound_to 7965
  146.2638  139.6472  142.9343 LP  0  0  0  0  0  0  0  0  0  0  0  0  # atno 17321 bound_to 7965
  140.7404  143.2805  151.3614 LP  0  0  0  0  0  0  0  0  0  0  0  0  # atno 17342 bound_to 10162
  139.6246  144.0839  152.2422 LP  0  0  0  0  0  0  0  0  0  0  0  0  # atno 17343 bound_to 10162
  156.5675  130.8410  151.3347 LP  0  0  0  0  0  0  0  0  0  0  0  0  # atno 17370 bound_to 10713
  157.7337  130.9735  150.1993 LP  0  0  0  0  0  0  0  0  0  0  0  0  # atno 17371 bound_to 10713
  140.8586  133.8077  155.9242 LP  0  0  0  0  0  0  0  0  0  0  0  0  # atno 17394 bound_to 11000
  140.9072  134.2305  157.5007 LP  0  0  0  0  0  0  0  0  0  0  0  0  # atno 17395 bound_to 11000

$$$$
