AV-unprocessed.smi:652|AV-procd|sdf|3199|dock7
  -GOLD-   22720 0133D 1   1.00000     0.00000
 Structure written by MMmdl.
 49 50  0  0  0  0  0  0  0  0  3 V2000
  144.4657  135.2878  153.2072 C   0  0  0  0  0  0  0  0  0  0  0  0
  145.4672  135.7559  152.1428 C   0  0  0  0  0  0  0  0  0  0  0  0
  144.9145  135.5612  150.7218 C   0  0  0  0  0  0  0  0  0  0  0  0
  146.7239  135.0302  152.3067 N   0  0  0  0  0  0  0  0  0  0  0  0
  146.8378  133.7108  152.5261 C   0  0  0  0  0  0  0  0  0  0  0  0
  145.8696  132.9547  152.6095 O   0  0  0  0  0  0  0  0  0  0  0  0
  148.2651  133.1719  152.6733 C   0  0  0  0  0  0  0  0  0  0  0  0
  148.6391  132.8439  154.1340 C   0  0  0  0  0  0  0  0  0  0  0  0
  149.3617  133.9605  154.8002 N   0  3  2  0  0  0  0  0  0  0  0  0
  150.6371  133.5449  155.4344 C   0  0  0  0  0  0  0  0  0  0  0  0
  150.3845  132.8162  156.7666 C   0  0  0  0  0  0  0  0  0  0  0  0
  149.6444  133.6628  157.6382 O   0  0  0  0  0  0  0  0  0  0  0  0
  148.3717  134.0188  157.1070 C   0  0  1  0  0  0  0  0  0  0  0  0
  147.6085  134.8380  158.1628 C   0  0  0  0  0  0  0  0  0  0  0  0
  147.4594  134.1250  159.4242 N   0  0  0  0  0  0  0  0  0  0  0  0
  147.5315  134.8137  160.6424 C   0  0  0  0  0  0  0  0  0  0  0  0
  147.4001  134.2003  161.9100 C   0  0  0  0  0  0  0  0  0  0  0  0
  147.4965  135.0098  163.0548 C   0  0  0  0  0  0  0  0  0  0  0  0
  147.7182  136.3852  162.8636 C   0  0  0  0  0  0  0  0  0  0  0  0
  147.8405  136.9525  161.6428 N   0  0  0  0  0  0  0  0  0  0  0  0
  147.7437  136.1517  160.5671 N   0  3  0  0  0  0  0  0  0  0  0  0
  148.5455  134.7539  155.7559 C   0  0  0  0  0  0  0  0  0  0  0  0
  143.5260  135.8351  153.1271 H   0  0  0  0  0  0  0  0  0  0  0  0
  144.8551  135.4498  154.2130 H   0  0  0  0  0  0  0  0  0  0  0  0
  144.2411  134.2255  153.1027 H   0  0  0  0  0  0  0  0  0  0  0  0
  145.6482  136.8205  152.3030 H   0  0  0  0  0  0  0  0  0  0  0  0
  143.9772  136.1026  150.5896 H   0  0  0  0  0  0  0  0  0  0  0  0
  144.7220  134.5086  150.5115 H   0  0  0  0  0  0  0  0  0  0  0  0
  145.6125  135.9299  149.9696 H   0  0  0  0  0  0  0  0  0  0  0  0
  147.5712  135.5764  152.2486 H   0  0  0  0  0  0  0  0  0  0  0  0
  148.3538  132.2760  152.0574 H   0  0  0  0  0  0  0  0  0  0  0  0
  148.9540  133.9075  152.2583 H   0  0  0  0  0  0  0  0  0  0  0  0
  147.7542  132.5601  154.7040 H   0  0  0  0  0  0  0  0  0  0  0  0
  149.2916  131.9693  154.1308 H   0  0  0  0  0  0  0  0  0  0  0  0
  151.2215  132.9218  154.7561 H   0  0  0  0  0  0  0  0  0  0  0  0
  151.2367  134.4370  155.6199 H   0  0  0  0  0  0  0  0  0  0  0  0
  149.8542  131.8755  156.6109 H   0  0  0  0  0  0  0  0  0  0  0  0
  151.3334  132.5682  157.2423 H   0  0  0  0  0  0  0  0  0  0  0  0
  147.8022  133.1025  156.9461 H   0  0  0  0  0  0  0  0  0  0  0  0
  148.1331  135.7769  158.3445 H   0  0  0  0  0  0  0  0  0  0  0  0
  146.6198  135.0922  157.7785 H   0  0  0  0  0  0  0  0  0  0  0  0
  147.0919  133.1843  159.4070 H   0  0  0  0  0  0  0  0  0  0  0  0
  147.2286  133.1396  162.0174 H   0  0  0  0  0  0  0  0  0  0  0  0
  147.4031  134.5921  164.0465 H   0  0  0  0  0  0  0  0  0  0  0  0
  147.7991  137.0497  163.7114 H   0  0  0  0  0  0  0  0  0  0  0  0
  149.0618  135.7011  155.9153 H   0  0  0  0  0  0  0  0  0  0  0  0
  147.5762  135.0089  155.3296 H   0  0  0  0  0  0  0  0  0  0  0  0
  149.6211  134.5865  154.0508 H   0  0  0  0  0  0  0  0  0  0  0  0
  147.8366  136.5738  159.6428 H   0  0  0  0  0  0  0  0  0  0  0  0
  1  2  1  0  0  0  0
  1 23  1  0  0  0  0
  1 24  1  0  0  0  0
  1 25  1  0  0  0  0
  2  3  1  0  0  0  0
  2  4  1  0  0  0  0
  2 26  1  0  0  0  0
  3 27  1  0  0  0  0
  3 28  1  0  0  0  0
  3 29  1  0  0  0  0
  4  5  1  0  0  0  0
  4 30  1  0  0  0  0
  5  6  2  0  0  0  0
  5  7  1  0  0  0  0
  7  8  1  0  0  0  0
  7 31  1  0  0  0  0
  7 32  1  0  0  0  0
  8  9  1  0  0  0  0
  8 33  1  0  0  0  0
  8 34  1  0  0  0  0
  9 22  1  0  0  0  0
  9 10  1  0  0  0  0
  9 48  1  0  0  0  0
 10 11  1  0  0  0  0
 10 35  1  0  0  0  0
 10 36  1  0  0  0  0
 11 12  1  0  0  0  0
 11 37  1  0  0  0  0
 11 38  1  0  0  0  0
 12 13  1  0  0  0  0
 13 14  1  0  0  0  0
 13 22  1  0  0  0  0
 13 39  1  0  0  0  0
 14 15  1  0  0  0  0
 14 40  1  0  0  0  0
 14 41  1  0  0  0  0
 15 16  1  0  0  0  0
 15 42  1  0  0  0  0
 16 21  1  0  0  0  0
 16 17  2  0  0  0  0
 17 18  1  0  0  0  0
 17 43  1  0  0  0  0
 18 19  2  0  0  0  0
 18 44  1  0  0  0  0
 19 20  1  0  0  0  0
 19 45  1  0  0  0  0
 20 21  2  0  0  0  0
 21 49  1  0  0  0  0
 22 46  1  0  0  0  0
 22 47  1  0  0  0  0
M  CHG  1   9   1
M  CHG  1  21   1
M  END
> <s_m_source_file>
AV-unprocessed.smi

> <i_m_source_file_index>
652

> <i_lp_mmshare_version>
43012

> <i_f3d_flags>
0

> <s_epik_input>
W0NIM11bQ0hdKFtDSDNdKVtOSF1DKD1PKVtDSDJdW0NIMl1OMVtDSDJdW0NIMl1PW0NASF0oW0NIMl0xKVtDSDJdW05IXWMyW2NIXVtjSF1bY0hdbm4y

> <s_epik_cmdline>
J2VwaWtfcHl0aG9uJywgJy1waCcsICc3LjAnLCAnLXRuJywgJzgnLCAnLW1hJywgJzIwMCcsICctbWV0YWxfYmluZGluZycsICctaW1hZScsICc8aW5maWxlLm1hZT4nLCAnLW9tYWUnLCAnPG91dGZpbGUubWFlPic=

> <r_lp_tautomer_probability>
0.966961

> <r_epik_Ionization_Penalty>
2.79885

> <r_epik_Ionization_Penalty_Charging>
2.79884

> <r_epik_Ionization_Penalty_Neutral>
3.2567e-06

> <r_epik_State_Penalty>
2.43203

> <r_epik_Charging_Adjusted_Penalty>
5.23087

> <i_epik_Tot_Q>
2

> <i_epik_Tot_abs_Q>
2

> <r_epik_Metal_State_Penalty>
2.43963

> <b_epik_Metal_Only>
0

> <s_lp_Force_Field>
OPLS_2005

> <r_lp_Energy>
35.8493

> <b_lp_Chiralities_Consistent>
1

> <s_lp_Variant>
AV-unprocessed.smi:652-8

> <Gold.Version>
5.8.1

> <Gold.Id.Protein>
6NUR|6NUR_protein|mol2

> <Gold.PLP.Fitness>
44.2359

> <Gold.PLP.PLP>
-36.3465

> <Gold.PLP.part.hbond>
-4.0000

> <Gold.PLP.part.metal>
0.0000

> <Gold.PLP.part.buried>
-4.8945

> <Gold.PLP.part.nonpolar>
-27.7349

> <Gold.PLP.part.repulsive>
0.3546

> <Gold.PLP.ligand.clash>
0.2491

> <Gold.PLP.ligand.torsion>
1.5005

> <Gold.PLP.Chemscore.Hbond>
3.6832

> <Gold.PLP.Chemscore.CHOScore>
0.0000

> <Gold.PLP.Chemscore.Metal>
0.0000

> <Gold.Chemscore.Hbonds>
donor molecule, donor type, donor heavy atom, donor atom, acceptor molecule, acceptor atom, score
      L1  H     4    30       P1  7948  1.00
      P1  H  6896  6909       L1    12  1.00
      P1  H  6931  6943       L1    20  1.00
      P1  H  6934  6947       L1    20  0.27

> <Gold.PLP.Chemscore.Internal.Correction>
0.0898

> <Gold.Rescore>
     Score         DG    S(hbond)    S(metal)    S(lipo)     H(rot)  DE(clash)    DE(int)     intcor
     14.01     -16.91       2.68        0.00      72.12       2.33       0.00       2.90       ----

> <Gold.Chemscore.Fitness>
14.0052

> <Gold.Chemscore.DG>
-16.9081

> <Gold.Chemscore.ZeroCoef>
-5.4800

> <Gold.Chemscore.Hbond>
2.6830

> <Gold.Chemscore.Metal>
0.0000

> <Gold.Chemscore.Lipo>
72.1224

> <Gold.Chemscore.Internal_Hbond>
0.0000

> <Gold.Chemscore.DEClash>
0.0000

> <Gold.Chemscore.DEInternal>
2.9029

> <Gold.Chemscore.Rot>
2.3326

> <Gold.Chemscore.Internal.Correction>
   9.000000E+99

> <Gold.Chemscore.Hbonds>
donor molecule, donor type, donor heavy atom, donor atom, acceptor molecule, acceptor atom, score
      L1  H     4    30       P1  7948  0.95
      P1  H  6896  6909       L1    12  0.59
      P1  H  6931  6943       L1    20  0.39
      P1  H  6934  6947       L1    20  0.15

> <Gold.Chemscore.Hbond.Weighted>
-8.9611

> <Gold.Chemscore.Metal.Weighted>
-0.0000

> <Gold.Chemscore.Lipo.Weighted>
-8.4383

> <Gold.Chemscore.Internal_Hbond.Weighted>
0.0000

> <Gold.Chemscore.DEClash.Weighted>
0.0000

> <Gold.Chemscore.DEInternal.Weighted>
2.9029

> <Gold.Chemscore.Rot.Weighted>
5.9714

> <Gold.Chemscore.Internal.Correction.Weighted>
   9.000000E+99

> <Gold.Protein.RotatedTorsions>
[ 6907 6896 6895 6894 ] final    6.56 input  -60.11 | X-H torsion
[ 7974 7965 7964 7962 ] final   33.93 input  175.53 | X-H torsion
[ 8008 7997 7996 7995 ] final -128.14 input   59.86 | X-H torsion
[ 10167 10162 10161 10158 ] final    0.29 input  -65.29 | X-H torsion
[ 10718 10713 10712 10709 ] final -112.65 input   66.30 | X-H torsion
[ 10763 10752 10751 10750 ] final -113.51 input  -60.55 | X-H torsion
[ 11005 11000 10999 10996 ] final   12.96 input  -57.11 | X-H torsion

> <Gold.Protein.ActiveResidues>
 VAL166  LYS551  ARG553  GLY616  TRP617  ASP618  TYR619  PRO620  LYS621  CYS622 
 ASP623  PHE694  ASN695  SER759  ASP760  ASP761  ALA762  ILE779  LEU786  VAL792 
 PHE793  MET794  SER795  GLU796  ALA797  LYS798  CYS799  TRP800  GLU811  SER814 

> <Gold.Protein.RotatedAtoms>
  151.6757  135.0969  160.0206 H   0  0  0  0  0  0  0  0  0  0  0  0  # atno 6907 bound_to 6896
  152.3865  133.6614  159.6211 H   0  0  0  0  0  0  0  0  0  0  0  0  # atno 6908 bound_to 6896
  150.7790  133.8943  159.3363 H   0  0  0  0  0  0  0  0  0  0  0  0  # atno 6909 bound_to 6896
  146.1388  139.6334  142.9177 H   0  0  0  0  0  0  0  0  0  0  0  0  # atno 7974 bound_to 7965
  155.2577  140.0435  157.2994 H   0  0  0  0  0  0  0  0  0  0  0  0  # atno 8008 bound_to 7997
  154.5730  140.2379  155.8133 H   0  0  0  0  0  0  0  0  0  0  0  0  # atno 8009 bound_to 7997
  156.2136  140.2991  155.9797 H   0  0  0  0  0  0  0  0  0  0  0  0  # atno 8010 bound_to 7997
  140.6735  143.6981  150.7973 H   0  0  0  0  0  0  0  0  0  0  0  0  # atno 10167 bound_to 10162
  156.0718  130.5931  150.8536 H   0  0  0  0  0  0  0  0  0  0  0  0  # atno 10718 bound_to 10713
  154.8399  135.4451  154.1360 H   0  0  0  0  0  0  0  0  0  0  0  0  # atno 10763 bound_to 10752
  153.2558  135.6931  153.7637 H   0  0  0  0  0  0  0  0  0  0  0  0  # atno 10764 bound_to 10752
  153.6932  135.3384  155.3182 H   0  0  0  0  0  0  0  0  0  0  0  0  # atno 10765 bound_to 10752
  140.4861  134.0887  155.7761 H   0  0  0  0  0  0  0  0  0  0  0  0  # atno 11005 bound_to 11000
  145.5095  141.0436  143.2495 LP  0  0  0  0  0  0  0  0  0  0  0  0  # atno 17320 bound_to 7965
  144.7769  139.6611  143.7171 LP  0  0  0  0  0  0  0  0  0  0  0  0  # atno 17321 bound_to 7965
  140.0671  143.5098  152.2599 LP  0  0  0  0  0  0  0  0  0  0  0  0  # atno 17342 bound_to 10162
  139.6015  144.7584  151.3160 LP  0  0  0  0  0  0  0  0  0  0  0  0  # atno 17343 bound_to 10162
  157.5793  131.0946  150.9296 LP  0  0  0  0  0  0  0  0  0  0  0  0  # atno 17370 bound_to 10713
  156.9495  130.5414  149.5282 LP  0  0  0  0  0  0  0  0  0  0  0  0  # atno 17371 bound_to 10713
  141.1507  133.8973  157.2104 LP  0  0  0  0  0  0  0  0  0  0  0  0  # atno 17394 bound_to 11000
  139.9797  135.0102  156.9720 LP  0  0  0  0  0  0  0  0  0  0  0  0  # atno 17395 bound_to 11000

$$$$
