AV-unprocessed.smi:1437|AV-procd|sdf|5864|dock1
  -GOLD-   22720 5533D 1   1.00000     0.00000
 Structure written by MMmdl.
 36 37  0  0  0  0  0  0  0  0  2 V2000
  140.2070  138.6378  153.3021 C   0  0  0  0  0  0  0  0  0  0  0  0
  140.7090  137.2408  153.4328 C   0  0  0  0  0  0  0  0  0  0  0  0
  141.9191  136.6599  153.1758 C   0  0  0  0  0  0  0  0  0  0  0  0
  141.6997  135.2993  153.5185 C   0  0  0  0  0  0  0  0  0  0  0  0
  142.7363  134.3400  153.3895 N   0  0  0  0  0  0  0  0  0  0  0  0
  143.9354  134.5052  152.8054 C   0  0  0  0  0  0  0  0  0  0  0  0
  144.3287  135.5428  152.2720 O   0  0  0  0  0  0  0  0  0  0  0  0
  144.6688  133.3843  152.8707 N   0  0  0  0  0  0  0  0  0  0  0  0
  146.0277  133.2337  152.3503 C   0  0  2  0  0  0  0  0  0  0  0  0
  146.0376  132.6368  150.9280 C   0  0  0  0  0  0  0  0  0  0  0  0
  145.6342  131.1518  150.9229 C   0  0  0  0  0  0  0  0  0  0  0  0
  146.4996  130.3623  151.8340 N   0  3  2  0  0  0  0  0  0  0  0  0
  146.2226  128.9118  151.7581 C   0  0  0  0  0  0  0  0  0  0  0  0
  146.4543  130.8726  153.2268 C   0  0  0  0  0  0  0  0  0  0  0  0
  146.8708  132.3538  153.2906 C   0  0  0  0  0  0  0  0  0  0  0  0
  140.4678  135.0701  153.9467 N   0  0  0  0  0  0  0  0  0  0  0  0
  139.8263  136.3131  153.8936 O   0  0  0  0  0  0  0  0  0  0  0  0
  141.0333  139.3488  153.2971 H   0  0  0  0  0  0  0  0  0  0  0  0
  139.5472  138.8935  154.1315 H   0  0  0  0  0  0  0  0  0  0  0  0
  139.6489  138.7606  152.3739 H   0  0  0  0  0  0  0  0  0  0  0  0
  142.8136  137.1354  152.8016 H   0  0  0  0  0  0  0  0  0  0  0  0
  142.5451  133.4340  153.7904 H   0  0  0  0  0  0  0  0  0  0  0  0
  144.2652  132.5823  153.3322 H   0  0  0  0  0  0  0  0  0  0  0  0
  146.4842  134.2249  152.3180 H   0  0  0  0  0  0  0  0  0  0  0  0
  145.3834  133.2051  150.2658 H   0  0  0  0  0  0  0  0  0  0  0  0
  147.0407  132.7320  150.5099 H   0  0  0  0  0  0  0  0  0  0  0  0
  144.5901  131.0411  151.2201 H   0  0  0  0  0  0  0  0  0  0  0  0
  145.7171  130.7583  149.9090 H   0  0  0  0  0  0  0  0  0  0  0  0
  145.2084  128.6889  152.0920 H   0  0  0  0  0  0  0  0  0  0  0  0
  146.9193  128.3538  152.3849 H   0  0  0  0  0  0  0  0  0  0  0  0
  146.3342  128.5503  150.7354 H   0  0  0  0  0  0  0  0  0  0  0  0
  145.4492  130.7431  153.6314 H   0  0  0  0  0  0  0  0  0  0  0  0
  147.1243  130.2820  153.8526 H   0  0  0  0  0  0  0  0  0  0  0  0
  147.9218  132.4386  153.0107 H   0  0  0  0  0  0  0  0  0  0  0  0
  146.8016  132.7193  154.3160 H   0  0  0  0  0  0  0  0  0  0  0  0
  147.4484  130.4893  151.5107 H   0  0  0  0  0  0  0  0  0  0  0  0
  1  2  1  0  0  0  0
  1 18  1  0  0  0  0
  1 19  1  0  0  0  0
  1 20  1  0  0  0  0
  2 17  1  0  0  0  0
  2  3  2  0  0  0  0
  3  4  1  0  0  0  0
  3 21  1  0  0  0  0
  4  5  1  0  0  0  0
  4 16  2  0  0  0  0
  5  6  1  0  0  0  0
  5 22  1  0  0  0  0
  6  7  2  0  0  0  0
  6  8  1  0  0  0  0
  8  9  1  0  0  0  0
  8 23  1  0  0  0  0
  9 15  1  0  0  0  0
  9 10  1  0  0  0  0
  9 24  1  0  0  0  0
 10 11  1  0  0  0  0
 10 25  1  0  0  0  0
 10 26  1  0  0  0  0
 11 12  1  0  0  0  0
 11 27  1  0  0  0  0
 11 28  1  0  0  0  0
 12 13  1  0  0  0  0
 12 14  1  0  0  0  0
 12 36  1  0  0  0  0
 13 29  1  0  0  0  0
 13 30  1  0  0  0  0
 13 31  1  0  0  0  0
 14 15  1  0  0  0  0
 14 32  1  0  0  0  0
 14 33  1  0  0  0  0
 15 34  1  0  0  0  0
 15 35  1  0  0  0  0
 16 17  1  0  0  0  0
M  CHG  1  12   1
M  END
> <s_m_source_file>
AV-unprocessed.smi

> <i_m_source_file_index>
1437

> <i_lp_mmshare_version>
43012

> <i_f3d_flags>
0

> <s_epik_input>
W0NIM11jMVtjSF1jKG5vMSlbTkhdQyg9TylbTkhdW0NIXTJbQ0gyXVtDSDJdTihbQ0gzXSlbQ0gyXVtDSDJdMg==

> <s_epik_cmdline>
J2VwaWtfcHl0aG9uJywgJy1waCcsICc3LjAnLCAnLXRuJywgJzgnLCAnLW1hJywgJzIwMCcsICctbWV0YWxfYmluZGluZycsICctaW1hZScsICc8aW5maWxlLm1hZT4nLCAnLW9tYWUnLCAnPG91dGZpbGUubWFlPic=

> <r_epik_Ionization_Penalty>
0.00408962

> <r_epik_Ionization_Penalty_Charging>
0.00405645

> <r_epik_Ionization_Penalty_Neutral>
3.31706e-05

> <r_epik_State_Penalty>
0.00290716

> <r_epik_Charging_Adjusted_Penalty>
0.00696361

> <i_epik_Tot_Q>
1

> <i_epik_Tot_abs_Q>
1

> <r_epik_Metal_State_Penalty>
0.0142111

> <b_epik_Metal_Only>
0

> <s_lp_Force_Field>
OPLS_2005

> <r_lp_Energy>
12.346

> <b_lp_Chiralities_Consistent>
1

> <s_lp_Variant>
AV-unprocessed.smi:1437-2

> <Gold.Version>
5.8.1

> <Gold.Id.Protein>
6NUR|6NUR_protein|mol2

> <Gold.PLP.Fitness>
40.1390

> <Gold.PLP.PLP>
-30.8378

> <Gold.PLP.part.hbond>
-4.4329

> <Gold.PLP.part.metal>
0.0000

> <Gold.PLP.part.buried>
-7.0170

> <Gold.PLP.part.nonpolar>
-19.6967

> <Gold.PLP.part.repulsive>
0.4251

> <Gold.PLP.ligand.clash>
0.0000

> <Gold.PLP.ligand.torsion>
0.3510

> <Gold.PLP.Chemscore.Hbond>
3.3331

> <Gold.PLP.Chemscore.CHOScore>
0.0000

> <Gold.PLP.Chemscore.Metal>
0.0000

> <Gold.Chemscore.Hbonds>
donor molecule, donor type, donor heavy atom, donor atom, acceptor molecule, acceptor atom, score
      L1  H     5    22       P1 10957  1.00
      L1  H     8    23       P1 10957  0.33
      L1  H    12    36       P1 10747  1.00
      P1  H 11000 11005       L1    16  1.00

> <Gold.PLP.Chemscore.Internal.Correction>
0.0039

> <Gold.Rescore>
     Score         DG    S(hbond)    S(metal)    S(lipo)     H(rot)  DE(clash)    DE(int)     intcor
     17.86     -19.61       2.99        0.00      57.32       1.00       0.00       1.75       ----

> <Gold.Chemscore.Fitness>
17.8576

> <Gold.Chemscore.DG>
-19.6070

> <Gold.Chemscore.ZeroCoef>
-5.4800

> <Gold.Chemscore.Hbond>
2.9882

> <Gold.Chemscore.Metal>
0.0000

> <Gold.Chemscore.Lipo>
57.3210

> <Gold.Chemscore.Internal_Hbond>
0.0000

> <Gold.Chemscore.DEClash>
0.0000

> <Gold.Chemscore.DEInternal>
1.7494

> <Gold.Chemscore.Rot>
1.0000

> <Gold.Chemscore.Internal.Correction>
   9.000000E+99

> <Gold.Chemscore.Hbonds>
donor molecule, donor type, donor heavy atom, donor atom, acceptor molecule, acceptor atom, score
      L1  H     5    22       P1 10957  0.99
      L1  H     8    23       P1 10957  0.08
      L1  H    12    36       P1 10747  0.96
      P1  H 11000 11005       L1    16  0.73

> <Gold.Chemscore.Hbond.Weighted>
-9.9804

> <Gold.Chemscore.Metal.Weighted>
-0.0000

> <Gold.Chemscore.Lipo.Weighted>
-6.7066

> <Gold.Chemscore.Internal_Hbond.Weighted>
0.0000

> <Gold.Chemscore.DEClash.Weighted>
0.0000

> <Gold.Chemscore.DEInternal.Weighted>
1.7494

> <Gold.Chemscore.Rot.Weighted>
2.5600

> <Gold.Chemscore.Internal.Correction.Weighted>
   9.000000E+99

> <Gold.Protein.RotatedTorsions>
[ 6907 6896 6895 6894 ] final   86.42 input  -60.11 | X-H torsion
[ 7974 7965 7964 7962 ] final -178.17 input  175.53 | X-H torsion
[ 8008 7997 7996 7995 ] final   67.84 input   59.86 | X-H torsion
[ 10167 10162 10161 10158 ] final -163.66 input  -65.29 | X-H torsion
[ 10718 10713 10712 10709 ] final  -89.19 input   66.30 | X-H torsion
[ 10763 10752 10751 10750 ] final   18.44 input  -60.55 | X-H torsion
[ 11005 11000 10999 10996 ] final   20.13 input  -57.11 | X-H torsion

> <Gold.Protein.ActiveResidues>
 VAL166  LYS551  ARG553  GLY616  TRP617  ASP618  TYR619  PRO620  LYS621  CYS622 
 ASP623  PHE694  ASN695  SER759  ASP760  ASP761  ALA762  ILE779  LEU786  VAL792 
 PHE793  MET794  SER795  GLU796  ALA797  LYS798  CYS799  TRP800  GLU811  SER814 

> <Gold.Protein.RotatedAtoms>
  152.5394  134.2434  159.8870 H   0  0  0  0  0  0  0  0  0  0  0  0  # atno 6907 bound_to 6896
  151.2400  133.4398  159.2614 H   0  0  0  0  0  0  0  0  0  0  0  0  # atno 6908 bound_to 6896
  151.0635  134.9766  159.8329 H   0  0  0  0  0  0  0  0  0  0  0  0  # atno 6909 bound_to 6896
  144.7130  140.0909  143.6421 H   0  0  0  0  0  0  0  0  0  0  0  0  # atno 7974 bound_to 7965
  155.6992  140.3495  155.4926 H   0  0  0  0  0  0  0  0  0  0  0  0  # atno 8008 bound_to 7997
  155.9456  140.1109  157.1042 H   0  0  0  0  0  0  0  0  0  0  0  0  # atno 8009 bound_to 7997
  154.4111  140.1204  156.4971 H   0  0  0  0  0  0  0  0  0  0  0  0  # atno 8010 bound_to 7997
  139.6305  144.0449  152.2012 H   0  0  0  0  0  0  0  0  0  0  0  0  # atno 10167 bound_to 10162
  155.9984  130.4863  150.5133 H   0  0  0  0  0  0  0  0  0  0  0  0  # atno 10718 bound_to 10713
  153.1249  135.6727  153.9273 H   0  0  0  0  0  0  0  0  0  0  0  0  # atno 10763 bound_to 10752
  153.8777  135.3062  155.3445 H   0  0  0  0  0  0  0  0  0  0  0  0  # atno 10764 bound_to 10752
  154.7656  135.4966  153.9628 H   0  0  0  0  0  0  0  0  0  0  0  0  # atno 10765 bound_to 10752
  140.4060  134.1668  155.7665 H   0  0  0  0  0  0  0  0  0  0  0  0  # atno 11005 bound_to 11000
  145.9621  139.2808  143.1149 LP  0  0  0  0  0  0  0  0  0  0  0  0  # atno 17320 bound_to 7965
  145.9209  140.9116  143.0405 LP  0  0  0  0  0  0  0  0  0  0  0  0  # atno 17321 bound_to 7965
  140.0113  144.6222  150.7645 LP  0  0  0  0  0  0  0  0  0  0  0  0  # atno 17342 bound_to 10162
  140.7436  143.2849  151.3493 LP  0  0  0  0  0  0  0  0  0  0  0  0  # atno 17343 bound_to 10162
  157.3103  131.0662  151.2005 LP  0  0  0  0  0  0  0  0  0  0  0  0  # atno 17370 bound_to 10713
  157.2953  130.6816  149.6135 LP  0  0  0  0  0  0  0  0  0  0  0  0  # atno 17371 bound_to 10713
  141.1839  133.8355  157.1158 LP  0  0  0  0  0  0  0  0  0  0  0  0  # atno 17394 bound_to 11000
  140.0302  134.9905  157.0765 LP  0  0  0  0  0  0  0  0  0  0  0  0  # atno 17395 bound_to 11000

$$$$
