AV-unprocessed.smi:2120|AV-procd|sdf|8639|dock5
  -GOLD-   2272011383D 1   1.00000     0.00000
 Structure written by MMmdl.
 46 49  0  0  0  0  0  0  0  0  2 V2000
  143.7854  136.0220  152.2269 O   0  0  0  0  0  0  0  0  0  0  0  0
  143.6976  134.8708  152.6564 C   0  0  0  0  0  0  0  0  0  0  0  0
  142.8126  134.5312  153.6091 N   0  0  0  0  0  0  0  0  0  0  0  0
  141.8749  135.4467  154.2479 C   0  0  0  0  0  0  0  0  0  0  0  0
  140.5816  135.6019  153.4291 C   0  0  0  0  0  0  0  0  0  0  0  0
  140.0149  137.0062  153.5098 C   0  0  0  0  0  0  0  0  0  0  0  0
  138.7381  137.2299  154.0710 C   0  0  0  0  0  0  0  0  0  0  0  0
  138.2313  138.5445  154.1358 C   0  0  0  0  0  0  0  0  0  0  0  0
  139.0145  139.6068  153.6403 C   0  0  0  0  0  0  0  0  0  0  0  0
  140.2323  139.3548  153.1116 N   0  3  0  0  0  0  0  0  0  0  0  0
  140.7522  138.1102  153.0294 C   0  0  0  0  0  0  0  0  0  0  0  0
  144.6231  133.7693  152.0871 C   0  0  0  0  0  0  0  0  0  0  0  0
  145.3380  133.0481  153.2622 C   0  0  0  0  0  0  0  0  0  0  0  0
  146.2306  131.9065  152.7289 C   0  0  1  0  0  0  0  0  0  0  0  0
  145.3597  130.8807  151.9738 C   0  0  0  0  0  0  0  0  0  0  0  0
  144.6616  131.5812  150.7893 C   0  0  2  0  0  0  0  0  0  0  0  0
  145.7226  132.1567  149.8290 C   0  0  0  0  0  0  0  0  0  0  0  0
  146.5942  133.1780  150.5885 C   0  0  2  0  0  0  0  0  0  0  0  0
  147.2963  132.4834  151.7739 C   0  0  0  0  0  0  0  0  0  0  0  0
  145.7068  134.3258  151.1154 C   0  0  0  0  0  0  0  0  0  0  0  0
  143.7677  132.7231  151.3190 C   0  0  0  0  0  0  0  0  0  0  0  0
  142.7953  133.5691  153.9158 H   0  0  0  0  0  0  0  0  0  0  0  0
  141.6424  135.0570  155.2394 H   0  0  0  0  0  0  0  0  0  0  0  0
  142.3547  136.4152  154.3991 H   0  0  0  0  0  0  0  0  0  0  0  0
  140.7644  135.3683  152.3795 H   0  0  0  0  0  0  0  0  0  0  0  0
  139.8332  134.8878  153.7757 H   0  0  0  0  0  0  0  0  0  0  0  0
  138.1521  136.4031  154.4462 H   0  0  0  0  0  0  0  0  0  0  0  0
  137.2560  138.7346  154.5600 H   0  0  0  0  0  0  0  0  0  0  0  0
  138.7059  140.6421  153.6508 H   0  0  0  0  0  0  0  0  0  0  0  0
  141.7347  138.0378  152.5859 H   0  0  0  0  0  0  0  0  0  0  0  0
  145.9459  133.7561  153.8281 H   0  0  0  0  0  0  0  0  0  0  0  0
  144.6104  132.6414  153.9668 H   0  0  0  0  0  0  0  0  0  0  0  0
  146.7251  131.4134  153.5665 H   0  0  0  0  0  0  0  0  0  0  0  0
  145.9737  130.0535  151.6158 H   0  0  0  0  0  0  0  0  0  0  0  0
  144.6187  130.4464  152.6460 H   0  0  0  0  0  0  0  0  0  0  0  0
  144.0443  130.8584  150.2550 H   0  0  0  0  0  0  0  0  0  0  0  0
  146.3430  131.3546  149.4271 H   0  0  0  0  0  0  0  0  0  0  0  0
  145.2402  132.6322  148.9740 H   0  0  0  0  0  0  0  0  0  0  0  0
  147.3461  133.5843  149.9113 H   0  0  0  0  0  0  0  0  0  0  0  0
  147.9357  133.1910  152.3031 H   0  0  0  0  0  0  0  0  0  0  0  0
  147.9503  131.6885  151.4130 H   0  0  0  0  0  0  0  0  0  0  0  0
  145.2404  134.8397  150.2731 H   0  0  0  0  0  0  0  0  0  0  0  0
  146.3363  135.0617  151.6184 H   0  0  0  0  0  0  0  0  0  0  0  0
  142.9943  132.3036  151.9646 H   0  0  0  0  0  0  0  0  0  0  0  0
  143.2449  133.1980  150.4873 H   0  0  0  0  0  0  0  0  0  0  0  0
  140.7834  140.1384  152.7599 H   0  0  0  0  0  0  0  0  0  0  0  0
  1  2  2  0  0  0  0
  2  3  1  0  0  0  0
  2 12  1  0  0  0  0
  3  4  1  0  0  0  0
  3 22  1  0  0  0  0
  4  5  1  0  0  0  0
  4 23  1  0  0  0  0
  4 24  1  0  0  0  0
  5  6  1  0  0  0  0
  5 25  1  0  0  0  0
  5 26  1  0  0  0  0
  6 11  1  0  0  0  0
  6  7  2  0  0  0  0
  7  8  1  0  0  0  0
  7 27  1  0  0  0  0
  8  9  2  0  0  0  0
  8 28  1  0  0  0  0
  9 10  1  0  0  0  0
  9 29  1  0  0  0  0
 10 11  2  0  0  0  0
 10 46  1  0  0  0  0
 11 30  1  0  0  0  0
 12 20  1  0  0  0  0
 12 21  1  0  0  0  0
 12 13  1  0  0  0  0
 13 14  1  0  0  0  0
 13 31  1  0  0  0  0
 13 32  1  0  0  0  0
 14 19  1  0  0  0  0
 14 15  1  0  0  0  0
 14 33  1  0  0  0  0
 15 16  1  0  0  0  0
 15 34  1  0  0  0  0
 15 35  1  0  0  0  0
 16 17  1  0  0  0  0
 16 21  1  0  0  0  0
 16 36  1  0  0  0  0
 17 18  1  0  0  0  0
 17 37  1  0  0  0  0
 17 38  1  0  0  0  0
 18 19  1  0  0  0  0
 18 20  1  0  0  0  0
 18 39  1  0  0  0  0
 19 40  1  0  0  0  0
 19 41  1  0  0  0  0
 20 42  1  0  0  0  0
 20 43  1  0  0  0  0
 21 44  1  0  0  0  0
 21 45  1  0  0  0  0
M  CHG  1  10   1
M  END
> <s_m_source_file>
AV-unprocessed.smi

> <i_m_source_file_index>
2120

> <i_lp_mmshare_version>
43012

> <i_f3d_flags>
0

> <s_epik_input>
W0NIMl0xW0NASF0oW0NIMl0yKVtDSDJdW0NASF0oW0NIMl0zKVtDSDJdW0NAQEhdMVtDSDJdQzIzQyg9TylbTkhdW0NIMl1bQ0gyXWM0W2NIXVtjSF1bY0hdbltjSF00

> <s_epik_cmdline>
J2VwaWtfcHl0aG9uJywgJy1waCcsICc3LjAnLCAnLXRuJywgJzgnLCAnLW1hJywgJzIwMCcsICctbWV0YWxfYmluZGluZycsICctaW1hZScsICc8aW5maWxlLm1hZT4nLCAnLW9tYWUnLCAnPG91dGZpbGUubWFlPic=

> <r_epik_Ionization_Penalty>
2.23732

> <r_epik_Ionization_Penalty_Charging>
2.23732

> <r_epik_Ionization_Penalty_Neutral>
2.68417e-08

> <r_epik_State_Penalty>
2.38345

> <r_epik_Charging_Adjusted_Penalty>
4.62076

> <i_epik_Tot_Q>
1

> <i_epik_Tot_abs_Q>
1

> <r_epik_Metal_State_Penalty>
2.39692

> <b_epik_Metal_Only>
0

> <s_lp_Force_Field>
OPLS_2005

> <r_lp_Energy>
42.1143

> <b_lp_Chiralities_Consistent>
1

> <s_lp_Variant>
AV-unprocessed.smi:2120-2

> <Gold.Version>
5.8.1

> <Gold.Id.Protein>
6NUR|6NUR_protein|mol2

> <Gold.PLP.Fitness>
42.9372

> <Gold.PLP.PLP>
-38.7072

> <Gold.PLP.part.hbond>
-2.0000

> <Gold.PLP.part.metal>
0.0000

> <Gold.PLP.part.buried>
-1.8272

> <Gold.PLP.part.nonpolar>
-36.0941

> <Gold.PLP.part.repulsive>
0.2363

> <Gold.PLP.ligand.clash>
0.0000

> <Gold.PLP.ligand.torsion>
0.5541

> <Gold.PLP.Chemscore.Hbond>
1.7753

> <Gold.PLP.Chemscore.CHOScore>
0.0000

> <Gold.PLP.Chemscore.Metal>
0.0000

> <Gold.Chemscore.Hbonds>
donor molecule, donor type, donor heavy atom, donor atom, acceptor molecule, acceptor atom, score
      L1  H     3    22       P1 10957  1.00
      L1  H    10    46       P1 10160  0.27

> <Gold.PLP.Chemscore.Internal.Correction>
0.0124

> <Gold.Rescore>
     Score         DG    S(hbond)    S(metal)    S(lipo)     H(rot)  DE(clash)    DE(int)     intcor
     19.98     -21.85       1.95        0.00     115.22       1.41       1.18       0.68       ----

> <Gold.Chemscore.Fitness>
19.9840

> <Gold.Chemscore.DG>
-21.8459

> <Gold.Chemscore.ZeroCoef>
-5.4800

> <Gold.Chemscore.Hbond>
1.9480

> <Gold.Chemscore.Metal>
0.0000

> <Gold.Chemscore.Lipo>
115.2198

> <Gold.Chemscore.Internal_Hbond>
0.0000

> <Gold.Chemscore.DEClash>
1.1809

> <Gold.Chemscore.DEInternal>
0.6810

> <Gold.Chemscore.Rot>
1.4145

> <Gold.Chemscore.Internal.Correction>
   9.000000E+99

> <Gold.Chemscore.Hbonds>
donor molecule, donor type, donor heavy atom, donor atom, acceptor molecule, acceptor atom, score
      L1  H     3    22       P1 10957  0.96
      L1  H    10    46       P1 10160  0.28

> <Gold.Chemscore.Hbond.Weighted>
-6.5062

> <Gold.Chemscore.Metal.Weighted>
-0.0000

> <Gold.Chemscore.Lipo.Weighted>
-13.4807

> <Gold.Chemscore.Internal_Hbond.Weighted>
0.0000

> <Gold.Chemscore.DEClash.Weighted>
1.1809

> <Gold.Chemscore.DEInternal.Weighted>
0.6810

> <Gold.Chemscore.Rot.Weighted>
3.6210

> <Gold.Chemscore.Internal.Correction.Weighted>
   9.000000E+99

> <Gold.Protein.RotatedTorsions>
[ 6907 6896 6895 6894 ] final  -87.41 input  -60.11 | X-H torsion
[ 7974 7965 7964 7962 ] final  -36.65 input  175.53 | X-H torsion
[ 8008 7997 7996 7995 ] final  138.78 input   59.86 | X-H torsion
[ 10167 10162 10161 10158 ] final  -99.53 input  -65.29 | X-H torsion
[ 10718 10713 10712 10709 ] final  106.80 input   66.30 | X-H torsion
[ 10763 10752 10751 10750 ] final  -87.56 input  -60.55 | X-H torsion
[ 11005 11000 10999 10996 ] final   29.26 input  -57.11 | X-H torsion

> <Gold.Protein.ActiveResidues>
 VAL166  LYS551  ARG553  GLY616  TRP617  ASP618  TYR619  PRO620  LYS621  CYS622 
 ASP623  PHE694  ASN695  SER759  ASP760  ASP761  ALA762  ILE779  LEU786  VAL792 
 PHE793  MET794  SER795  GLU796  ALA797  LYS798  CYS799  TRP800  GLU811  SER814 

> <Gold.Protein.RotatedAtoms>
  150.6866  134.2901  159.4662 H   0  0  0  0  0  0  0  0  0  0  0  0  # atno 6907 bound_to 6896
  152.0806  134.9471  160.0583 H   0  0  0  0  0  0  0  0  0  0  0  0  # atno 6908 bound_to 6896
  152.0825  133.4125  159.4544 H   0  0  0  0  0  0  0  0  0  0  0  0  # atno 6909 bound_to 6896
  146.0643  140.6303  142.8982 H   0  0  0  0  0  0  0  0  0  0  0  0  # atno 7974 bound_to 7965
  156.2995  140.2384  156.4129 H   0  0  0  0  0  0  0  0  0  0  0  0  # atno 8008 bound_to 7997
  154.8424  140.0428  157.1570 H   0  0  0  0  0  0  0  0  0  0  0  0  # atno 8009 bound_to 7997
  154.9088  140.2987  155.5281 H   0  0  0  0  0  0  0  0  0  0  0  0  # atno 8010 bound_to 7997
  140.2615  143.3404  152.0621 H   0  0  0  0  0  0  0  0  0  0  0  0  # atno 10167 bound_to 10162
  157.6654  131.0859  150.6061 H   0  0  0  0  0  0  0  0  0  0  0  0  # atno 10718 bound_to 10713
  154.6349  135.5409  153.7723 H   0  0  0  0  0  0  0  0  0  0  0  0  # atno 10763 bound_to 10752
  153.0303  135.6445  154.1246 H   0  0  0  0  0  0  0  0  0  0  0  0  # atno 10764 bound_to 10752
  154.1174  135.2922  155.3196 H   0  0  0  0  0  0  0  0  0  0  0  0  # atno 10765 bound_to 10752
  140.3068  134.2694  155.7742 H   0  0  0  0  0  0  0  0  0  0  0  0  # atno 11005 bound_to 11000
  144.7193  140.4320  143.7020 LP  0  0  0  0  0  0  0  0  0  0  0  0  # atno 17320 bound_to 7965
  145.6504  139.1564  143.2865 LP  0  0  0  0  0  0  0  0  0  0  0  0  # atno 17321 bound_to 7965
  139.5015  144.6715  151.6230 LP  0  0  0  0  0  0  0  0  0  0  0  0  # atno 17342 bound_to 10162
  140.5962  143.9692  150.6356 LP  0  0  0  0  0  0  0  0  0  0  0  0  # atno 17343 bound_to 10162
  156.6362  130.4446  149.5768 LP  0  0  0  0  0  0  0  0  0  0  0  0  # atno 17370 bound_to 10713
  156.2244  130.6756  151.1400 LP  0  0  0  0  0  0  0  0  0  0  0  0  # atno 17371 bound_to 10713
  141.2116  133.7682  156.9849 LP  0  0  0  0  0  0  0  0  0  0  0  0  # atno 17394 bound_to 11000
  140.1060  134.9506  157.1994 LP  0  0  0  0  0  0  0  0  0  0  0  0  # atno 17395 bound_to 11000

$$$$
