AV-unprocessed.smi:209|AV-procd|sdf|1607|dock3
  -GOLD-   2262019523D 1   1.00000     0.00000
 Structure written by MMmdl.
 48 52  0  0  0  0  0  0  0  0  1 V2000
  151.2951  136.2122  155.5640 O   0  0  0  0  0  0  0  0  0  0  0  0
  150.5988  137.0579  155.0063 C   0  0  0  0  0  0  0  0  0  0  0  0
  149.2712  137.0337  154.9024 N   0  0  0  0  0  0  0  0  0  0  0  0
  148.7274  138.2206  154.2646 C   0  0  0  0  0  0  0  0  0  0  0  0
  149.9108  139.2193  154.2238 C   0  0  2  0  0  0  0  0  0  0  0  0
  151.1453  138.2871  154.2936 C   0  0  1  0  0  0  0  0  0  0  0  0
  152.4229  138.9148  154.8904 C   0  0  0  0  0  0  0  0  0  0  0  0
  152.1238  139.7853  156.1138 C   0  0  0  0  0  0  0  0  0  0  0  0
  151.0596  140.8279  155.7590 C   0  0  0  0  0  0  0  0  0  0  0  0
  149.8230  140.1682  155.3497 N   0  0  0  0  0  0  0  0  0  0  0  0
  148.7584  141.0103  155.3887 C   0  0  0  0  0  0  0  0  0  0  0  0
  148.0988  141.3314  154.2434 N   0  0  0  0  0  0  0  0  0  0  0  0
  147.0554  142.1655  154.2778 C   0  0  0  0  0  0  0  0  0  0  0  0
  146.5138  142.7814  155.3304 N   0  0  0  0  0  0  0  0  0  0  0  0
  147.1704  142.4620  156.4821 C   0  0  0  0  0  0  0  0  0  0  0  0
  148.2915  141.5933  156.5996 C   0  0  0  0  0  0  0  0  0  0  0  0
  148.6828  141.5026  157.9297 N   0  0  0  0  0  0  0  0  0  0  0  0
  147.8446  142.2782  158.5617 C   0  0  0  0  0  0  0  0  0  0  0  0
  146.9072  142.9011  157.7684 N   0  0  0  0  0  0  0  0  0  0  0  0
  145.8564  143.8082  158.2051 C   0  0  0  0  0  0  0  0  0  0  0  0
  145.8439  144.0655  159.7236 C   0  0  0  0  0  0  0  0  0  0  0  0
  147.1617  144.7637  160.1162 C   0  0  0  0  0  0  0  0  0  0  0  0
  147.6038  144.3977  161.4085 O   0  0  0  0  0  0  0  0  0  0  0  0
  144.5526  144.7005  160.2590 C   0  0  0  0  0  0  0  0  0  0  0  0
  144.3755  143.6574  161.2427 O   0  0  0  0  0  0  0  0  0  0  0  0
  145.4182  142.8847  160.6078 C   0  0  0  0  0  0  0  0  0  0  0  0
  149.9198  139.7734  153.2844 H   0  0  0  0  0  0  0  0  0  0  0  0
  151.3805  137.9468  153.2840 H   0  0  0  0  0  0  0  0  0  0  0  0
  148.6865  136.3080  155.2914 H   0  0  0  0  0  0  0  0  0  0  0  0
  148.4159  137.9559  153.2535 H   0  0  0  0  0  0  0  0  0  0  0  0
  147.8481  138.5829  154.7980 H   0  0  0  0  0  0  0  0  0  0  0  0
  153.1500  138.1436  155.1482 H   0  0  0  0  0  0  0  0  0  0  0  0
  152.8997  139.5310  154.1272 H   0  0  0  0  0  0  0  0  0  0  0  0
  151.7797  139.1664  156.9435 H   0  0  0  0  0  0  0  0  0  0  0  0
  153.0352  140.2805  156.4494 H   0  0  0  0  0  0  0  0  0  0  0  0
  150.8949  141.4763  156.6199 H   0  0  0  0  0  0  0  0  0  0  0  0
  151.4115  141.4661  154.9472 H   0  0  0  0  0  0  0  0  0  0  0  0
  146.5888  142.3695  153.3254 H   0  0  0  0  0  0  0  0  0  0  0  0
  147.8881  142.4148  159.6324 H   0  0  0  0  0  0  0  0  0  0  0  0
  145.9615  144.7472  157.6601 H   0  0  0  0  0  0  0  0  0  0  0  0
  144.9042  143.3869  157.8803 H   0  0  0  0  0  0  0  0  0  0  0  0
  147.9628  144.5127  159.4210 H   0  0  0  0  0  0  0  0  0  0  0  0
  147.0484  145.8479  160.0917 H   0  0  0  0  0  0  0  0  0  0  0  0
  146.8475  144.2192  161.9463 H   0  0  0  0  0  0  0  0  0  0  0  0
  144.6861  145.6849  160.7087 H   0  0  0  0  0  0  0  0  0  0  0  0
  143.7341  144.7164  159.5377 H   0  0  0  0  0  0  0  0  0  0  0  0
  145.0074  142.0387  160.0559 H   0  0  0  0  0  0  0  0  0  0  0  0
  146.1828  142.5538  161.3115 H   0  0  0  0  0  0  0  0  0  0  0  0
  1  2  2  0  0  0  0
  2  6  1  0  0  0  0
  2  3  1  0  0  0  0
  3  4  1  0  0  0  0
  3 29  1  0  0  0  0
  4  5  1  0  0  0  0
  4 30  1  0  0  0  0
  4 31  1  0  0  0  0
  5 27  1  0  0  0  0
  5 10  1  0  0  0  0
  5  6  1  0  0  0  0
  6 28  1  0  0  0  0
  6  7  1  0  0  0  0
  7  8  1  0  0  0  0
  7 32  1  0  0  0  0
  7 33  1  0  0  0  0
  8  9  1  0  0  0  0
  8 34  1  0  0  0  0
  8 35  1  0  0  0  0
  9 10  1  0  0  0  0
  9 36  1  0  0  0  0
  9 37  1  0  0  0  0
 10 11  1  0  0  0  0
 11 16  1  0  0  0  0
 11 12  2  0  0  0  0
 12 13  1  0  0  0  0
 13 14  2  0  0  0  0
 13 38  1  0  0  0  0
 14 15  1  0  0  0  0
 15 19  1  0  0  0  0
 15 16  2  0  0  0  0
 16 17  1  0  0  0  0
 17 18  2  0  0  0  0
 18 19  1  0  0  0  0
 18 39  1  0  0  0  0
 19 20  1  0  0  0  0
 20 21  1  0  0  0  0
 20 40  1  0  0  0  0
 20 41  1  0  0  0  0
 21 26  1  0  0  0  0
 21 22  1  0  0  0  0
 21 24  1  0  0  0  0
 22 23  1  0  0  0  0
 22 42  1  0  0  0  0
 22 43  1  0  0  0  0
 23 44  1  0  0  0  0
 24 25  1  0  0  0  0
 24 45  1  0  0  0  0
 24 46  1  0  0  0  0
 25 26  1  0  0  0  0
 26 47  1  0  0  0  0
 26 48  1  0  0  0  0
M  END
> <s_m_source_file>
AV-unprocessed.smi

> <i_m_source_file_index>
209

> <i_lp_mmshare_version>
43012

> <i_f3d_flags>
0

> <s_epik_input>
W0NIMl0xW05IXUMoPU8pW0NAQEhdKFtDQEBIXTEyKVtDSDJdW0NIMl1bQ0gyXU4yYyhuW2NIXW4zKWMoYzM0KW5bY0hdbjRbQ0gyXUM1KFtDSDJdW09IXSlbQ0gyXU9bQ0gyXTU=

> <s_epik_cmdline>
J2VwaWtfcHl0aG9uJywgJy1waCcsICc3LjAnLCAnLXRuJywgJzgnLCAnLW1hJywgJzIwMCcsICctbWV0YWxfYmluZGluZycsICctaW1hZScsICc8aW5maWxlLm1hZT4nLCAnLW9tYWUnLCAnPG91dGZpbGUubWFlPic=

> <r_lp_tautomer_probability>
1

> <r_epik_Ionization_Penalty>
0.00113306

> <r_epik_Ionization_Penalty_Charging>
0

> <r_epik_Ionization_Penalty_Neutral>
0.00113306

> <r_epik_State_Penalty>
0.000624042

> <r_epik_Charging_Adjusted_Penalty>
0.000624042

> <i_epik_Tot_Q>
0

> <i_epik_Tot_abs_Q>
0

> <r_epik_Metal_State_Penalty>
-0

> <b_epik_Metal_Only>
0

> <s_lp_Force_Field>
OPLS_2005

> <r_lp_Energy>
50.3938

> <b_lp_Chiralities_Consistent>
1

> <s_lp_Variant>
AV-unprocessed.smi:209-1

> <Gold.Version>
5.8.1

> <Gold.Id.Protein>
6NUR|6NUR_protein|mol2

> <Gold.PLP.Fitness>
37.7488

> <Gold.PLP.PLP>
-33.2294

> <Gold.PLP.part.hbond>
-3.0000

> <Gold.PLP.part.metal>
0.0000

> <Gold.PLP.part.buried>
-2.9985

> <Gold.PLP.part.nonpolar>
-28.4874

> <Gold.PLP.part.repulsive>
0.5612

> <Gold.PLP.ligand.clash>
0.0000

> <Gold.PLP.ligand.torsion>
1.0933

> <Gold.PLP.Chemscore.Hbond>
2.0000

> <Gold.PLP.Chemscore.CHOScore>
0.0000

> <Gold.PLP.Chemscore.Metal>
0.0000

> <Gold.Chemscore.Hbonds>
donor molecule, donor type, donor heavy atom, donor atom, acceptor molecule, acceptor atom, score
      P1  H  6933  6944       L1    23  0.48
      P1  H 10752 10765       L1     1  1.00

> <Gold.PLP.Chemscore.Internal.Correction>
0.7061

> <Gold.Rescore>
     Score         DG    S(hbond)    S(metal)    S(lipo)     H(rot)  DE(clash)    DE(int)     intcor
      9.24     -12.01       1.87        0.00      60.57       2.66       0.26       2.51       ----

> <Gold.Chemscore.Fitness>
9.2387

> <Gold.Chemscore.DG>
-12.0122

> <Gold.Chemscore.ZeroCoef>
-5.4800

> <Gold.Chemscore.Hbond>
1.8745

> <Gold.Chemscore.Metal>
0.0000

> <Gold.Chemscore.Lipo>
60.5651

> <Gold.Chemscore.Internal_Hbond>
0.0000

> <Gold.Chemscore.DEClash>
0.2607

> <Gold.Chemscore.DEInternal>
2.5129

> <Gold.Chemscore.Rot>
2.6620

> <Gold.Chemscore.Internal.Correction>
   9.000000E+99

> <Gold.Chemscore.Hbonds>
donor molecule, donor type, donor heavy atom, donor atom, acceptor molecule, acceptor atom, score
      P1  H  6933  6944       L1    23  0.08
      P1  H 10752 10765       L1     1  0.97

> <Gold.Chemscore.Hbond.Weighted>
-6.2609

> <Gold.Chemscore.Metal.Weighted>
-0.0000

> <Gold.Chemscore.Lipo.Weighted>
-7.0861

> <Gold.Chemscore.Internal_Hbond.Weighted>
0.0000

> <Gold.Chemscore.DEClash.Weighted>
0.2607

> <Gold.Chemscore.DEInternal.Weighted>
2.5129

> <Gold.Chemscore.Rot.Weighted>
6.8148

> <Gold.Chemscore.Internal.Correction.Weighted>
   9.000000E+99

> <Gold.Protein.RotatedTorsions>
[ 6907 6896 6895 6894 ] final   40.84 input  -60.11 | X-H torsion
[ 7974 7965 7964 7962 ] final  159.27 input  175.53 | X-H torsion
[ 8008 7997 7996 7995 ] final  113.77 input   59.86 | X-H torsion
[ 10167 10162 10161 10158 ] final -164.49 input  -65.29 | X-H torsion
[ 10718 10713 10712 10709 ] final   16.92 input   66.30 | X-H torsion
[ 10763 10752 10751 10750 ] final -170.01 input  -60.55 | X-H torsion
[ 11005 11000 10999 10996 ] final   20.00 input  -57.11 | X-H torsion

> <Gold.Protein.ActiveResidues>
 VAL166  LYS551  ARG553  GLY616  TRP617  ASP618  TYR619  PRO620  LYS621  CYS622 
 ASP623  PHE694  ASN695  SER759  ASP760  ASP761  ALA762  ILE779  LEU786  VAL792 
 PHE793  MET794  SER795  GLU796  ALA797  LYS798  CYS799  TRP800  GLU811  SER814 

> <Gold.Protein.RotatedAtoms>
  152.1876  134.8700  160.0520 H   0  0  0  0  0  0  0  0  0  0  0  0  # atno 6907 bound_to 6896
  151.9601  133.3687  159.4040 H   0  0  0  0  0  0  0  0  0  0  0  0  # atno 6908 bound_to 6896
  150.6929  134.4173  159.5233 H   0  0  0  0  0  0  0  0  0  0  0  0  # atno 6909 bound_to 6896
  144.7799  139.7594  143.6264 H   0  0  0  0  0  0  0  0  0  0  0  0  # atno 7974 bound_to 7965
  156.2279  140.2972  156.0114 H   0  0  0  0  0  0  0  0  0  0  0  0  # atno 8008 bound_to 7997
  155.2305  140.0419  157.2978 H   0  0  0  0  0  0  0  0  0  0  0  0  # atno 8009 bound_to 7997
  154.5947  140.2411  155.7881 H   0  0  0  0  0  0  0  0  0  0  0  0  # atno 8010 bound_to 7997
  139.6247  144.0555  152.1964 H   0  0  0  0  0  0  0  0  0  0  0  0  # atno 10167 bound_to 10162
  157.0748  130.6363  149.5813 H   0  0  0  0  0  0  0  0  0  0  0  0  # atno 10718 bound_to 10713
  154.6462  135.2905  155.0044 H   0  0  0  0  0  0  0  0  0  0  0  0  # atno 10763 bound_to 10752
  154.1153  135.6556  153.4896 H   0  0  0  0  0  0  0  0  0  0  0  0  # atno 10764 bound_to 10752
  153.0352  135.5275  154.7349 H   0  0  0  0  0  0  0  0  0  0  0  0  # atno 10765 bound_to 10752
  140.4075  134.1653  155.7666 H   0  0  0  0  0  0  0  0  0  0  0  0  # atno 11005 bound_to 11000
  146.2002  139.5292  142.9748 LP  0  0  0  0  0  0  0  0  0  0  0  0  # atno 17320 bound_to 7965
  145.6078  141.0344  143.1983 LP  0  0  0  0  0  0  0  0  0  0  0  0  # atno 17321 bound_to 7965
  140.0206  144.6156  150.7570 LP  0  0  0  0  0  0  0  0  0  0  0  0  # atno 17342 bound_to 10162
  140.7404  143.2804  151.3617 LP  0  0  0  0  0  0  0  0  0  0  0  0  # atno 17343 bound_to 10162
  155.9940  130.5003  150.7403 LP  0  0  0  0  0  0  0  0  0  0  0  0  # atno 17370 bound_to 10713
  157.4848  131.0905  151.0494 LP  0  0  0  0  0  0  0  0  0  0  0  0  # atno 17371 bound_to 10713
  141.1834  133.8366  157.1177 LP  0  0  0  0  0  0  0  0  0  0  0  0  # atno 17394 bound_to 11000
  140.0291  134.9909  157.0745 LP  0  0  0  0  0  0  0  0  0  0  0  0  # atno 17395 bound_to 11000

$$$$
