AV-unprocessed.smi:260|AV-procd|sdf|1980|dock4
  -GOLD-   2262021153D 1   1.00000     0.00000
 Structure written by MMmdl.
 53 56  0  0  0  0  0  0  0  0  1 V2000
  146.9431  142.3192  157.6101 C   0  0  0  0  0  0  0  0  0  0  0  0
  148.3899  142.1804  157.5507 N   0  0  0  0  0  0  0  0  0  0  0  0
  149.2345  142.6078  158.5030 C   0  0  0  0  0  0  0  0  0  0  0  0
  148.8367  143.1788  159.5196 O   0  0  0  0  0  0  0  0  0  0  0  0
  150.7556  142.3765  158.3022 C   0  0  2  0  0  0  0  0  0  0  0  0
  151.5053  142.8633  159.5576 C   0  0  0  0  0  0  0  0  0  0  0  0
  151.3254  142.9984  157.0067 C   0  0  0  0  0  0  0  0  0  0  0  0
  150.9992  141.9807  155.9054 C   0  0  0  0  0  0  0  0  0  0  0  0
  150.8192  140.7107  156.5940 N   0  0  0  0  0  0  0  0  0  0  0  0
  151.0763  139.5314  155.9718 C   0  0  0  0  0  0  0  0  0  0  0  0
  151.8085  139.5407  154.8262 N   0  0  0  0  0  0  0  0  0  0  0  0
  152.0803  138.4007  154.1846 C   0  0  0  0  0  0  0  0  0  0  0  0
  151.7289  137.1560  154.5108 N   0  0  0  0  0  0  0  0  0  0  0  0
  151.0065  137.1354  155.6668 C   0  0  0  0  0  0  0  0  0  0  0  0
  150.6388  138.2632  156.4556 C   0  0  0  0  0  0  0  0  0  0  0  0
  149.9158  137.8394  157.5664 N   0  0  0  0  0  0  0  0  0  0  0  0
  149.8513  136.5429  157.4352 C   0  0  0  0  0  0  0  0  0  0  0  0
  150.4786  136.0367  156.3205 N   0  0  0  0  0  0  0  0  0  0  0  0
  150.5624  134.6425  155.9227 C   0  0  0  0  0  0  0  0  0  0  0  0
  149.6369  134.3165  154.7338 C   0  0  2  0  0  0  0  0  0  0  0  0
  148.2895  134.4577  155.1435 O   0  0  0  0  0  0  0  0  0  0  0  0
  149.8491  132.8877  154.1995 C   0  0  1  0  0  0  0  0  0  0  0  0
  149.6890  131.7897  155.2539 C   0  0  0  0  0  0  0  0  0  0  0  0
  149.3179  130.5970  154.4041 C   0  0  0  0  0  0  0  0  0  0  0  0
  148.4079  131.2371  153.3615 C   0  0  0  0  0  0  0  0  0  0  0  0
  148.8734  132.5752  153.2060 O   0  0  0  0  0  0  0  0  0  0  0  0
  151.0274  140.8849  158.0262 C   0  0  0  0  0  0  0  0  0  0  0  0
  146.4963  141.9459  156.6890 H   0  0  0  0  0  0  0  0  0  0  0  0
  146.6552  143.3646  157.7293 H   0  0  0  0  0  0  0  0  0  0  0  0
  146.5350  141.7475  158.4443 H   0  0  0  0  0  0  0  0  0  0  0  0
  148.7770  141.7219  156.7387 H   0  0  0  0  0  0  0  0  0  0  0  0
  152.5755  142.6692  159.4815 H   0  0  0  0  0  0  0  0  0  0  0  0
  151.1508  142.3619  160.4595 H   0  0  0  0  0  0  0  0  0  0  0  0
  151.3780  143.9367  159.7022 H   0  0  0  0  0  0  0  0  0  0  0  0
  150.9605  144.0001  156.7783 H   0  0  0  0  0  0  0  0  0  0  0  0
  152.4098  143.0817  157.0928 H   0  0  0  0  0  0  0  0  0  0  0  0
  150.0698  142.2430  155.3993 H   0  0  0  0  0  0  0  0  0  0  0  0
  151.7965  141.9387  155.1624 H   0  0  0  0  0  0  0  0  0  0  0  0
  152.6623  138.5010  153.2803 H   0  0  0  0  0  0  0  0  0  0  0  0
  149.3383  135.9171  158.1508 H   0  0  0  0  0  0  0  0  0  0  0  0
  151.6003  134.4272  155.6666 H   0  0  0  0  0  0  0  0  0  0  0  0
  150.3183  134.0171  156.7826 H   0  0  0  0  0  0  0  0  0  0  0  0
  149.8202  135.0306  153.9297 H   0  0  0  0  0  0  0  0  0  0  0  0
  148.2538  134.3913  156.0854 H   0  0  0  0  0  0  0  0  0  0  0  0
  150.8327  132.7977  153.7352 H   0  0  0  0  0  0  0  0  0  0  0  0
  150.5924  131.6300  155.8431 H   0  0  0  0  0  0  0  0  0  0  0  0
  148.8728  132.0270  155.9380 H   0  0  0  0  0  0  0  0  0  0  0  0
  150.2081  130.1852  153.9267 H   0  0  0  0  0  0  0  0  0  0  0  0
  148.8301  129.8010  154.9674 H   0  0  0  0  0  0  0  0  0  0  0  0
  148.4174  130.6977  152.4140 H   0  0  0  0  0  0  0  0  0  0  0  0
  147.3794  131.2699  153.7224 H   0  0  0  0  0  0  0  0  0  0  0  0
  152.0577  140.6272  158.2767 H   0  0  0  0  0  0  0  0  0  0  0  0
  150.3733  140.2251  158.5981 H   0  0  0  0  0  0  0  0  0  0  0  0
  1  2  1  0  0  0  0
  1 28  1  0  0  0  0
  1 29  1  0  0  0  0
  1 30  1  0  0  0  0
  2  3  1  0  0  0  0
  2 31  1  0  0  0  0
  3  4  2  0  0  0  0
  3  5  1  0  0  0  0
  5 27  1  0  0  0  0
  5  6  1  0  0  0  0
  5  7  1  0  0  0  0
  6 32  1  0  0  0  0
  6 33  1  0  0  0  0
  6 34  1  0  0  0  0
  7  8  1  0  0  0  0
  7 35  1  0  0  0  0
  7 36  1  0  0  0  0
  8  9  1  0  0  0  0
  8 37  1  0  0  0  0
  8 38  1  0  0  0  0
  9 10  1  0  0  0  0
  9 27  1  0  0  0  0
 10 15  1  0  0  0  0
 10 11  2  0  0  0  0
 11 12  1  0  0  0  0
 12 13  2  0  0  0  0
 12 39  1  0  0  0  0
 13 14  1  0  0  0  0
 14 18  1  0  0  0  0
 14 15  2  0  0  0  0
 15 16  1  0  0  0  0
 16 17  2  0  0  0  0
 17 18  1  0  0  0  0
 17 40  1  0  0  0  0
 18 19  1  0  0  0  0
 19 20  1  0  0  0  0
 19 41  1  0  0  0  0
 19 42  1  0  0  0  0
 20 21  1  0  0  0  0
 20 22  1  0  0  0  0
 20 43  1  0  0  0  0
 21 44  1  0  0  0  0
 22 26  1  0  0  0  0
 22 23  1  0  0  0  0
 22 45  1  0  0  0  0
 23 24  1  0  0  0  0
 23 46  1  0  0  0  0
 23 47  1  0  0  0  0
 24 25  1  0  0  0  0
 24 48  1  0  0  0  0
 24 49  1  0  0  0  0
 25 26  1  0  0  0  0
 25 50  1  0  0  0  0
 25 51  1  0  0  0  0
 27 52  1  0  0  0  0
 27 53  1  0  0  0  0
M  END
> <s_m_source_file>
AV-unprocessed.smi

> <i_m_source_file_index>
260

> <i_lp_mmshare_version>
43012

> <i_f3d_flags>
0

> <s_epik_input>
W0NIM11bTkhdQyg9TylbQ0BAXTEoW0NIM10pW0NIMl1bQ0gyXU4oW0NIMl0xKWMobltjSF1uMiljKGMyMyluW2NIXW4zW0NIMl1bQ0BIXShbT0hdKVtDQEBIXTRbQ0gyXVtDSDJdW0NIMl1PNA==

> <s_epik_cmdline>
J2VwaWtfcHl0aG9uJywgJy1waCcsICc3LjAnLCAnLXRuJywgJzgnLCAnLW1hJywgJzIwMCcsICctbWV0YWxfYmluZGluZycsICctaW1hZScsICc8aW5maWxlLm1hZT4nLCAnLW9tYWUnLCAnPG91dGZpbGUubWFlPic=

> <r_lp_tautomer_probability>
1

> <r_epik_Ionization_Penalty>
0.00115068

> <r_epik_Ionization_Penalty_Charging>
0

> <r_epik_Ionization_Penalty_Neutral>
0.00115068

> <r_epik_State_Penalty>
0.000668876

> <r_epik_Charging_Adjusted_Penalty>
0.000668876

> <i_epik_Tot_Q>
0

> <i_epik_Tot_abs_Q>
0

> <r_epik_Metal_State_Penalty>
-0

> <b_epik_Metal_Only>
0

> <s_lp_Force_Field>
OPLS_2005

> <r_lp_Energy>
49.109

> <b_lp_Chiralities_Consistent>
1

> <s_lp_Variant>
AV-unprocessed.smi:260-6

> <Gold.Version>
5.8.1

> <Gold.Id.Protein>
6NUR|6NUR_protein|mol2

> <Gold.PLP.Fitness>
42.5991

> <Gold.PLP.PLP>
-36.5754

> <Gold.PLP.part.hbond>
-3.3385

> <Gold.PLP.part.metal>
0.0000

> <Gold.PLP.part.buried>
-7.5517

> <Gold.PLP.part.nonpolar>
-25.6635

> <Gold.PLP.part.repulsive>
0.5649

> <Gold.PLP.ligand.clash>
0.0000

> <Gold.PLP.ligand.torsion>
0.7584

> <Gold.PLP.Chemscore.Hbond>
2.3786

> <Gold.PLP.Chemscore.CHOScore>
0.0000

> <Gold.PLP.Chemscore.Metal>
0.0000

> <Gold.Chemscore.Hbonds>
donor molecule, donor type, donor heavy atom, donor atom, acceptor molecule, acceptor atom, score
      P1  H  6933  6944       L1     4  0.35
      P1  H  7989  7998       L1    11  1.00
      P1  H 10752 10764       L1    13  1.00

> <Gold.PLP.Chemscore.Internal.Correction>
0.4048

> <Gold.Rescore>
     Score         DG    S(hbond)    S(metal)    S(lipo)     H(rot)  DE(clash)    DE(int)     intcor
     11.54     -13.89       1.90        0.00      72.94       2.53       0.53       1.82       ----

> <Gold.Chemscore.Fitness>
11.5373

> <Gold.Chemscore.DG>
-13.8854

> <Gold.Chemscore.ZeroCoef>
-5.4800

> <Gold.Chemscore.Hbond>
1.8976

> <Gold.Chemscore.Metal>
0.0000

> <Gold.Chemscore.Lipo>
72.9383

> <Gold.Chemscore.Internal_Hbond>
0.0000

> <Gold.Chemscore.DEClash>
0.5269

> <Gold.Chemscore.DEInternal>
1.8212

> <Gold.Chemscore.Rot>
2.5259

> <Gold.Chemscore.Internal.Correction>
   9.000000E+99

> <Gold.Chemscore.Hbonds>
donor molecule, donor type, donor heavy atom, donor atom, acceptor molecule, acceptor atom, score
      P1  H  6933  6944       L1     4  0.35
      P1  H  7989  7998       L1    11  0.53
      P1  H 10752 10764       L1    13  0.89

> <Gold.Chemscore.Hbond.Weighted>
-6.3380

> <Gold.Chemscore.Metal.Weighted>
-0.0000

> <Gold.Chemscore.Lipo.Weighted>
-8.5338

> <Gold.Chemscore.Internal_Hbond.Weighted>
0.0000

> <Gold.Chemscore.DEClash.Weighted>
0.5269

> <Gold.Chemscore.DEInternal.Weighted>
1.8212

> <Gold.Chemscore.Rot.Weighted>
6.4663

> <Gold.Chemscore.Internal.Correction.Weighted>
   9.000000E+99

> <Gold.Protein.RotatedTorsions>
[ 6907 6896 6895 6894 ] final -120.26 input  -60.11 | X-H torsion
[ 7974 7965 7964 7962 ] final   80.70 input  175.53 | X-H torsion
[ 8008 7997 7996 7995 ] final   53.95 input   59.86 | X-H torsion
[ 10167 10162 10161 10158 ] final   25.53 input  -65.29 | X-H torsion
[ 10718 10713 10712 10709 ] final    6.72 input   66.30 | X-H torsion
[ 10763 10752 10751 10750 ] final  -83.60 input  -60.55 | X-H torsion
[ 11005 11000 10999 10996 ] final   85.82 input  -57.11 | X-H torsion

> <Gold.Protein.ActiveResidues>
 VAL166  LYS551  ARG553  GLY616  TRP617  ASP618  TYR619  PRO620  LYS621  CYS622 
 ASP623  PHE694  ASN695  SER759  ASP760  ASP761  ALA762  ILE779  LEU786  VAL792 
 PHE793  MET794  SER795  GLU796  ALA797  LYS798  CYS799  TRP800  GLU811  SER814 

> <Gold.Protein.RotatedAtoms>
  150.8378  133.7986  159.3072 H   0  0  0  0  0  0  0  0  0  0  0  0  # atno 6907 bound_to 6896
  151.5696  135.1061  160.0001 H   0  0  0  0  0  0  0  0  0  0  0  0  # atno 6908 bound_to 6896
  152.4447  133.7472  159.6730 H   0  0  0  0  0  0  0  0  0  0  0  0  # atno 6909 bound_to 6896
  145.6478  139.2440  143.1994 H   0  0  0  0  0  0  0  0  0  0  0  0  # atno 7974 bound_to 7965
  155.4767  140.3467  155.4333 H   0  0  0  0  0  0  0  0  0  0  0  0  # atno 8008 bound_to 7997
  156.1066  140.1449  156.9425 H   0  0  0  0  0  0  0  0  0  0  0  0  # atno 8009 bound_to 7997
  154.4728  140.0895  156.7166 H   0  0  0  0  0  0  0  0  0  0  0  0  # atno 8010 bound_to 7997
  140.5098  144.0179  150.6368 H   0  0  0  0  0  0  0  0  0  0  0  0  # atno 10167 bound_to 10162
  156.9263  130.5809  149.5648 H   0  0  0  0  0  0  0  0  0  0  0  0  # atno 10718 bound_to 10713
  154.5896  135.5550  153.7265 H   0  0  0  0  0  0  0  0  0  0  0  0  # atno 10763 bound_to 10752
  153.0112  135.6340  154.1868 H   0  0  0  0  0  0  0  0  0  0  0  0  # atno 10764 bound_to 10752
  154.1809  135.2887  155.3032 H   0  0  0  0  0  0  0  0  0  0  0  0  # atno 10765 bound_to 10752
  139.8961  134.8313  156.2635 H   0  0  0  0  0  0  0  0  0  0  0  0  # atno 11005 bound_to 11000
  146.1229  140.7286  142.9449 LP  0  0  0  0  0  0  0  0  0  0  0  0  # atno 17320 bound_to 7965
  144.7134  140.4121  143.7063 LP  0  0  0  0  0  0  0  0  0  0  0  0  # atno 17321 bound_to 7965
  140.3498  143.2970  152.0499 LP  0  0  0  0  0  0  0  0  0  0  0  0  # atno 17342 bound_to 10162
  139.4893  144.6382  151.6932 LP  0  0  0  0  0  0  0  0  0  0  0  0  # atno 17343 bound_to 10162
  156.0467  130.5543  150.8898 LP  0  0  0  0  0  0  0  0  0  0  0  0  # atno 17370 bound_to 10713
  157.5875  131.0945  150.9172 LP  0  0  0  0  0  0  0  0  0  0  0  0  # atno 17371 bound_to 10713
  141.0147  133.7075  156.1169 LP  0  0  0  0  0  0  0  0  0  0  0  0  # atno 17394 bound_to 11000
  140.7318  134.4246  157.5565 LP  0  0  0  0  0  0  0  0  0  0  0  0  # atno 17395 bound_to 11000

$$$$
