AV-unprocessed.smi:81|AV-procd|sdf|790|dock10
  -GOLD-   2262017163D 1   1.00000     0.00000
 Structure written by MMmdl.
 64 67  0  0  0  0  0  0  0  0  2 V2000
  150.9748  143.2268  158.1240 C   0  0  0  0  0  0  0  0  0  0  0  0
  150.8319  141.8016  158.6827 C   0  0  0  0  0  0  0  0  0  0  0  0
  151.9519  141.5039  159.6893 C   0  0  0  0  0  0  0  0  0  0  0  0
  150.8245  140.7410  157.5568 C   0  0  0  0  0  0  0  0  0  0  0  0
  149.6558  140.7998  156.6716 N   0  0  0  0  0  0  0  0  0  0  0  0
  148.5152  140.2596  157.1658 C   0  0  0  0  0  0  0  0  0  0  0  0
  147.4249  141.0642  157.2318 N   0  0  0  0  0  0  0  0  0  0  0  0
  146.2793  140.6023  157.7405 C   0  0  0  0  0  0  0  0  0  0  0  0
  146.0152  139.3921  158.2361 N   0  0  0  0  0  0  0  0  0  0  0  0
  147.1135  138.5847  158.1895 C   0  0  0  0  0  0  0  0  0  0  0  0
  148.3935  138.9351  157.6763 C   0  0  0  0  0  0  0  0  0  0  0  0
  149.2585  137.8544  157.7939 N   0  0  0  0  0  0  0  0  0  0  0  0
  148.5337  136.9220  158.3481 C   0  0  0  0  0  0  0  0  0  0  0  0
  147.2327  137.2762  158.6273 N   0  0  0  0  0  0  0  0  0  0  0  0
  146.1996  136.4577  159.2507 C   0  0  0  0  0  0  0  0  0  0  0  0
  146.5525  135.9859  160.6871 C   0  0  1  0  0  0  0  0  0  0  0  0
  147.0400  137.1058  161.4094 O   0  0  0  0  0  0  0  0  0  0  0  0
  145.3691  135.4058  161.4422 C   0  0  0  0  0  0  0  0  0  0  0  0
  146.0347  134.6092  162.5622 C   0  0  0  0  0  0  0  0  0  0  0  0
  147.3345  134.2636  162.0885 O   0  0  0  0  0  0  0  0  0  0  0  0
  147.5953  134.8544  160.8154 C   0  0  1  0  0  0  0  0  0  0  0  0
  147.4585  133.6995  159.8042 C   0  0  0  0  0  0  0  0  0  0  0  0
  149.9120  140.7030  155.2239 C   0  0  2  0  0  0  0  0  0  0  0  0
  148.8785  141.4031  154.3088 C   0  0  0  0  0  0  0  0  0  0  0  0
  147.6874  140.5123  153.9048 C   0  0  0  0  0  0  0  0  0  0  0  0
  148.1497  139.2244  153.3374 N   0  3  2  0  0  0  0  0  0  0  0  0
  147.0334  138.4126  152.8068 C   0  0  0  0  0  0  0  0  0  0  0  0
  148.9843  138.4703  154.3013 C   0  0  0  0  0  0  0  0  0  0  0  0
  150.2291  139.2776  154.7127 C   0  0  0  0  0  0  0  0  0  0  0  0
  151.9021  143.3402  157.5615 H   0  0  0  0  0  0  0  0  0  0  0  0
  150.9805  143.9642  158.9273 H   0  0  0  0  0  0  0  0  0  0  0  0
  150.1493  143.4796  157.4586 H   0  0  0  0  0  0  0  0  0  0  0  0
  149.8945  141.7501  159.2373 H   0  0  0  0  0  0  0  0  0  0  0  0
  152.9335  141.5478  159.2161 H   0  0  0  0  0  0  0  0  0  0  0  0
  151.8351  140.5103  160.1234 H   0  0  0  0  0  0  0  0  0  0  0  0
  151.9447  142.2225  160.5094 H   0  0  0  0  0  0  0  0  0  0  0  0
  151.7259  140.8640  156.9553 H   0  0  0  0  0  0  0  0  0  0  0  0
  150.8978  139.7448  157.9915 H   0  0  0  0  0  0  0  0  0  0  0  0
  145.4575  141.3030  157.7548 H   0  0  0  0  0  0  0  0  0  0  0  0
  148.9426  135.9484  158.5672 H   0  0  0  0  0  0  0  0  0  0  0  0
  145.2862  137.0527  159.2871 H   0  0  0  0  0  0  0  0  0  0  0  0
  145.9705  135.6184  158.5948 H   0  0  0  0  0  0  0  0  0  0  0  0
  147.9552  136.9641  161.5978 H   0  0  0  0  0  0  0  0  0  0  0  0
  144.6739  136.1610  161.8116 H   0  0  0  0  0  0  0  0  0  0  0  0
  144.8075  134.7299  160.7962 H   0  0  0  0  0  0  0  0  0  0  0  0
  146.1447  135.2228  163.4567 H   0  0  0  0  0  0  0  0  0  0  0  0
  145.4623  133.7213  162.8309 H   0  0  0  0  0  0  0  0  0  0  0  0
  148.6151  135.2405  160.7782 H   0  0  0  0  0  0  0  0  0  0  0  0
  147.6550  134.0146  158.7825 H   0  0  0  0  0  0  0  0  0  0  0  0
  146.4615  133.2596  159.8272 H   0  0  0  0  0  0  0  0  0  0  0  0
  148.1688  132.9053  160.0344 H   0  0  0  0  0  0  0  0  0  0  0  0
  150.8316  141.2763  155.0987 H   0  0  0  0  0  0  0  0  0  0  0  0
  148.5310  142.3336  154.7586 H   0  0  0  0  0  0  0  0  0  0  0  0
  149.3906  141.6993  153.3923 H   0  0  0  0  0  0  0  0  0  0  0  0
  147.0299  140.3158  154.7506 H   0  0  0  0  0  0  0  0  0  0  0  0
  147.0845  141.0389  153.1639 H   0  0  0  0  0  0  0  0  0  0  0  0
  146.3410  138.1323  153.6019 H   0  0  0  0  0  0  0  0  0  0  0  0
  147.4074  137.5000  152.3415 H   0  0  0  0  0  0  0  0  0  0  0  0
  146.4792  138.9679  152.0496 H   0  0  0  0  0  0  0  0  0  0  0  0
  148.3809  138.2036  155.1665 H   0  0  0  0  0  0  0  0  0  0  0  0
  149.3037  137.5314  153.8474 H   0  0  0  0  0  0  0  0  0  0  0  0
  150.8665  139.3717  153.8326 H   0  0  0  0  0  0  0  0  0  0  0  0
  150.8189  138.7184  155.4390 H   0  0  0  0  0  0  0  0  0  0  0  0
  148.7424  139.4480  152.5507 H   0  0  0  0  0  0  0  0  0  0  0  0
  1  2  1  0  0  0  0
  1 30  1  0  0  0  0
  1 31  1  0  0  0  0
  1 32  1  0  0  0  0
  2  3  1  0  0  0  0
  2  4  1  0  0  0  0
  2 33  1  0  0  0  0
  3 34  1  0  0  0  0
  3 35  1  0  0  0  0
  3 36  1  0  0  0  0
  4  5  1  0  0  0  0
  4 37  1  0  0  0  0
  4 38  1  0  0  0  0
  5  6  1  0  0  0  0
  5 23  1  0  0  0  0
  6 11  1  0  0  0  0
  6  7  2  0  0  0  0
  7  8  1  0  0  0  0
  8  9  2  0  0  0  0
  8 39  1  0  0  0  0
  9 10  1  0  0  0  0
 10 14  1  0  0  0  0
 10 11  2  0  0  0  0
 11 12  1  0  0  0  0
 12 13  2  0  0  0  0
 13 14  1  0  0  0  0
 13 40  1  0  0  0  0
 14 15  1  0  0  0  0
 15 16  1  0  0  0  0
 15 41  1  0  0  0  0
 15 42  1  0  0  0  0
 16 21  1  0  0  0  0
 16 17  1  0  0  0  0
 16 18  1  0  0  0  0
 17 43  1  0  0  0  0
 18 19  1  0  0  0  0
 18 44  1  0  0  0  0
 18 45  1  0  0  0  0
 19 20  1  0  0  0  0
 19 46  1  0  0  0  0
 19 47  1  0  0  0  0
 20 21  1  0  0  0  0
 21 22  1  0  0  0  0
 21 48  1  0  0  0  0
 22 49  1  0  0  0  0
 22 50  1  0  0  0  0
 22 51  1  0  0  0  0
 23 29  1  0  0  0  0
 23 24  1  0  0  0  0
 23 52  1  0  0  0  0
 24 25  1  0  0  0  0
 24 53  1  0  0  0  0
 24 54  1  0  0  0  0
 25 26  1  0  0  0  0
 25 55  1  0  0  0  0
 25 56  1  0  0  0  0
 26 27  1  0  0  0  0
 26 28  1  0  0  0  0
 26 64  1  0  0  0  0
 27 57  1  0  0  0  0
 27 58  1  0  0  0  0
 27 59  1  0  0  0  0
 28 29  1  0  0  0  0
 28 60  1  0  0  0  0
 28 61  1  0  0  0  0
 29 62  1  0  0  0  0
 29 63  1  0  0  0  0
M  CHG  1  26   1
M  END
> <s_m_source_file>
AV-unprocessed.smi

> <i_m_source_file_index>
81

> <i_lp_mmshare_version>
43012

> <i_f3d_flags>
0

> <s_epik_input>
W0NIMl0xW0NIMl1OKFtDSDNdKVtDSDJdW0NIMl1bQ0hdMU4oW0NIMl1bQ0hdKFtDSDNdKVtDSDNdKWMobltjSF1uMiljKGMyMyluW2NIXW4zW0NIMl1bQ0BAXTQoW09IXSlbQ0gyXVtDSDJdT1tDQEhdNFtDSDNd

> <s_epik_cmdline>
J2VwaWtfcHl0aG9uJywgJy1waCcsICc3LjAnLCAnLXRuJywgJzgnLCAnLW1hJywgJzIwMCcsICctbWV0YWxfYmluZGluZycsICctaW1hZScsICc8aW5maWxlLm1hZT4nLCAnLW9tYWUnLCAnPG91dGZpbGUubWFlPic=

> <r_lp_tautomer_probability>
1

> <r_epik_Ionization_Penalty>
0.00272708

> <r_epik_Ionization_Penalty_Charging>
0.00158983

> <r_epik_Ionization_Penalty_Neutral>
0.00113725

> <r_epik_State_Penalty>
-0

> <r_epik_Charging_Adjusted_Penalty>
0.00158983

> <i_epik_Tot_Q>
1

> <i_epik_Tot_abs_Q>
1

> <r_epik_Metal_State_Penalty>
-0

> <b_epik_Metal_Only>
0

> <s_lp_Force_Field>
OPLS_2005

> <r_lp_Energy>
53.2372

> <b_lp_Chiralities_Consistent>
1

> <s_lp_Variant>
AV-unprocessed.smi:81-5

> <Gold.Version>
5.8.1

> <Gold.Id.Protein>
6NUR|6NUR_protein|mol2

> <Gold.PLP.Fitness>
44.1468

> <Gold.PLP.PLP>
-40.8364

> <Gold.PLP.part.hbond>
-3.8905

> <Gold.PLP.part.metal>
0.0000

> <Gold.PLP.part.buried>
-2.3454

> <Gold.PLP.part.nonpolar>
-34.6326

> <Gold.PLP.part.repulsive>
0.1412

> <Gold.PLP.ligand.clash>
0.0000

> <Gold.PLP.ligand.torsion>
1.9848

> <Gold.PLP.Chemscore.Hbond>
1.9760

> <Gold.PLP.Chemscore.CHOScore>
0.0000

> <Gold.PLP.Chemscore.Metal>
0.0000

> <Gold.Chemscore.Hbonds>
donor molecule, donor type, donor heavy atom, donor atom, acceptor molecule, acceptor atom, score
      L1  H    26    64       P1  7957  1.00
      P1  H  6934  6947       L1    17  0.85

> <Gold.PLP.Chemscore.Internal.Correction>
1.3520

> <Gold.Rescore>
     Score         DG    S(hbond)    S(metal)    S(lipo)     H(rot)  DE(clash)    DE(int)     intcor
     15.14     -17.32       1.85        0.00      99.18       2.32       0.05       2.14       ----

> <Gold.Chemscore.Fitness>
15.1365

> <Gold.Chemscore.DG>
-17.3250

> <Gold.Chemscore.ZeroCoef>
-5.4800

> <Gold.Chemscore.Hbond>
1.8475

> <Gold.Chemscore.Metal>
0.0000

> <Gold.Chemscore.Lipo>
99.1788

> <Gold.Chemscore.Internal_Hbond>
0.0000

> <Gold.Chemscore.DEClash>
0.0532

> <Gold.Chemscore.DEInternal>
2.1353

> <Gold.Chemscore.Rot>
2.3163

> <Gold.Chemscore.Internal.Correction>
   9.000000E+99

> <Gold.Chemscore.Hbonds>
donor molecule, donor type, donor heavy atom, donor atom, acceptor molecule, acceptor atom, score
      L1  H    26    64       P1  7957  1.00
      P1  H  6934  6947       L1    17  0.14

> <Gold.Chemscore.Hbond.Weighted>
-6.1708

> <Gold.Chemscore.Metal.Weighted>
-0.0000

> <Gold.Chemscore.Lipo.Weighted>
-11.6039

> <Gold.Chemscore.Internal_Hbond.Weighted>
0.0000

> <Gold.Chemscore.DEClash.Weighted>
0.0532

> <Gold.Chemscore.DEInternal.Weighted>
2.1353

> <Gold.Chemscore.Rot.Weighted>
5.9297

> <Gold.Chemscore.Internal.Correction.Weighted>
   9.000000E+99

> <Gold.Protein.RotatedTorsions>
[ 6907 6896 6895 6894 ] final   29.70 input  -60.11 | X-H torsion
[ 7974 7965 7964 7962 ] final  -39.54 input  175.53 | X-H torsion
[ 8008 7997 7996 7995 ] final   78.38 input   59.86 | X-H torsion
[ 10167 10162 10161 10158 ] final  -34.06 input  -65.29 | X-H torsion
[ 10718 10713 10712 10709 ] final -112.10 input   66.30 | X-H torsion
[ 10763 10752 10751 10750 ] final  -46.46 input  -60.55 | X-H torsion
[ 11005 11000 10999 10996 ] final -173.67 input  -57.11 | X-H torsion

> <Gold.Protein.ActiveResidues>
 VAL166  LYS551  ARG553  GLY616  TRP617  ASP618  TYR619  PRO620  LYS621  CYS622 
 ASP623  PHE694  ASN695  SER759  ASP760  ASP761  ALA762  ILE779  LEU786  VAL792 
 PHE793  MET794  SER795  GLU796  ALA797  LYS798  CYS799  TRP800  GLU811  SER814 

> <Gold.Protein.RotatedAtoms>
  152.0354  134.9743  160.0572 H   0  0  0  0  0  0  0  0  0  0  0  0  # atno 6907 bound_to 6896
  152.1203  133.4345  159.4681 H   0  0  0  0  0  0  0  0  0  0  0  0  # atno 6908 bound_to 6896
  150.6848  134.2461  159.4535 H   0  0  0  0  0  0  0  0  0  0  0  0  # atno 6909 bound_to 6896
  146.0387  140.6637  142.9097 H   0  0  0  0  0  0  0  0  0  0  0  0  # atno 7974 bound_to 7965
  155.8549  140.3456  155.5718 H   0  0  0  0  0  0  0  0  0  0  0  0  # atno 8008 bound_to 7997
  155.7997  140.0883  157.1983 H   0  0  0  0  0  0  0  0  0  0  0  0  # atno 8009 bound_to 7997
  154.4009  140.1468  156.3247 H   0  0  0  0  0  0  0  0  0  0  0  0  # atno 8010 bound_to 7997
  140.7193  143.3575  151.2029 H   0  0  0  0  0  0  0  0  0  0  0  0  # atno 10167 bound_to 10162
  156.0686  130.5902  150.8463 H   0  0  0  0  0  0  0  0  0  0  0  0  # atno 10718 bound_to 10713
  154.0454  135.6638  153.4794 H   0  0  0  0  0  0  0  0  0  0  0  0  # atno 10763 bound_to 10752
  153.0485  135.5099  154.7802 H   0  0  0  0  0  0  0  0  0  0  0  0  # atno 10764 bound_to 10752
  154.6791  135.3042  154.9603 H   0  0  0  0  0  0  0  0  0  0  0  0  # atno 10765 bound_to 10752
  140.4832  134.6056  157.4927 H   0  0  0  0  0  0  0  0  0  0  0  0  # atno 11005 bound_to 11000
  144.7064  140.3868  143.7115 LP  0  0  0  0  0  0  0  0  0  0  0  0  # atno 17320 bound_to 7965
  145.6920  139.1641  143.2641 LP  0  0  0  0  0  0  0  0  0  0  0  0  # atno 17321 bound_to 7965
  139.7120  143.9361  152.2951 LP  0  0  0  0  0  0  0  0  0  0  0  0  # atno 17342 bound_to 10162
  139.9089  144.6868  150.8583 LP  0  0  0  0  0  0  0  0  0  0  0  0  # atno 17343 bound_to 10162
  157.5743  131.0946  150.9370 LP  0  0  0  0  0  0  0  0  0  0  0  0  # atno 17370 bound_to 10713
  156.9580  130.5444  149.5285 LP  0  0  0  0  0  0  0  0  0  0  0  0  # atno 17371 bound_to 10713
  139.9814  134.7131  155.9853 LP  0  0  0  0  0  0  0  0  0  0  0  0  # atno 17394 bound_to 11000
  141.1521  133.6547  156.4046 LP  0  0  0  0  0  0  0  0  0  0  0  0  # atno 17395 bound_to 11000

$$$$
