AV-unprocessed.smi:754|AV-procd|sdf|3608|dock10
  -GOLD-   22720 1 03D 1   1.00000     0.00000
 Structure written by MMmdl.
 37 38  0  0  0  0  0  0  0  0  1 V2000
  146.2071  129.7360  152.8880 C   0  0  0  0  0  0  0  0  0  0  0  0
  146.5522  131.2253  152.8264 C   0  0  0  0  0  0  0  0  0  0  0  0
  147.3158  131.5637  153.9715 O   0  0  0  0  0  0  0  0  0  0  0  0
  148.5614  132.1618  153.6496 C   0  0  1  0  0  0  0  0  0  0  0  0
  148.4577  133.4525  152.8312 C   0  0  0  0  0  0  0  0  0  0  0  0
  149.6143  133.9621  153.6925 C   0  0  1  0  0  0  0  0  0  0  0  0
  149.4910  135.3799  154.0145 N   0  0  0  0  0  0  0  0  0  0  0  0
  150.2759  136.0321  154.8847 C   0  0  0  0  0  0  0  0  0  0  0  0
  151.1860  135.4884  155.5112 O   0  0  0  0  0  0  0  0  0  0  0  0
  149.9832  137.5214  155.0836 C   0  0  0  0  0  0  0  0  0  0  0  0
  151.1504  138.3355  154.7998 N   0  0  0  0  0  0  0  0  0  0  0  0
  151.8620  138.4893  153.6813 C   0  0  0  0  0  0  0  0  0  0  0  0
  152.8582  139.3455  153.8493 N   0  0  0  0  0  0  0  0  0  0  0  0
  152.7230  139.7293  155.1734 N   0  0  0  0  0  0  0  0  0  0  0  0
  151.7110  139.1335  155.7424 N   0  0  0  0  0  0  0  0  0  0  0  0
  149.1561  132.9909  154.8147 C   0  0  0  0  0  0  0  0  0  0  0  0
  148.1453  133.5276  155.8436 C   0  0  0  0  0  0  0  0  0  0  0  0
  150.2743  132.3108  155.6043 C   0  0  0  0  0  0  0  0  0  0  0  0
  145.6206  129.4353  152.0197 H   0  0  0  0  0  0  0  0  0  0  0  0
  145.6253  129.5068  153.7811 H   0  0  0  0  0  0  0  0  0  0  0  0
  147.1105  129.1261  152.9100 H   0  0  0  0  0  0  0  0  0  0  0  0
  147.1198  131.4389  151.9194 H   0  0  0  0  0  0  0  0  0  0  0  0
  145.6370  131.8177  152.7912 H   0  0  0  0  0  0  0  0  0  0  0  0
  149.2833  131.4550  153.2329 H   0  0  0  0  0  0  0  0  0  0  0  0
  148.6913  133.3399  151.7722 H   0  0  0  0  0  0  0  0  0  0  0  0
  147.5185  133.9868  152.9853 H   0  0  0  0  0  0  0  0  0  0  0  0
  150.5821  133.6881  153.2654 H   0  0  0  0  0  0  0  0  0  0  0  0
  148.7635  135.8973  153.5426 H   0  0  0  0  0  0  0  0  0  0  0  0
  149.1598  137.8459  154.4450 H   0  0  0  0  0  0  0  0  0  0  0  0
  149.6782  137.6934  156.1163 H   0  0  0  0  0  0  0  0  0  0  0  0
  151.6496  137.9809  152.7523 H   0  0  0  0  0  0  0  0  0  0  0  0
  148.6073  134.2405  156.5272 H   0  0  0  0  0  0  0  0  0  0  0  0
  147.7293  132.7223  156.4497 H   0  0  0  0  0  0  0  0  0  0  0  0
  147.3048  134.0343  155.3690 H   0  0  0  0  0  0  0  0  0  0  0  0
  150.7684  133.0082  156.2812 H   0  0  0  0  0  0  0  0  0  0  0  0
  151.0418  131.9062  154.9439 H   0  0  0  0  0  0  0  0  0  0  0  0
  149.8943  131.4823  156.2026 H   0  0  0  0  0  0  0  0  0  0  0  0
  1  2  1  0  0  0  0
  1 19  1  0  0  0  0
  1 20  1  0  0  0  0
  1 21  1  0  0  0  0
  2  3  1  0  0  0  0
  2 22  1  0  0  0  0
  2 23  1  0  0  0  0
  3  4  1  0  0  0  0
  4 16  1  0  0  0  0
  4  5  1  0  0  0  0
  4 24  1  0  0  0  0
  5  6  1  0  0  0  0
  5 25  1  0  0  0  0
  5 26  1  0  0  0  0
  6  7  1  0  0  0  0
  6 16  1  0  0  0  0
  6 27  1  0  0  0  0
  7  8  1  0  0  0  0
  7 28  1  0  0  0  0
  8  9  2  0  0  0  0
  8 10  1  0  0  0  0
 10 11  1  0  0  0  0
 10 29  1  0  0  0  0
 10 30  1  0  0  0  0
 11 15  1  0  0  0  0
 11 12  1  0  0  0  0
 12 13  2  0  0  0  0
 12 31  1  0  0  0  0
 13 14  1  0  0  0  0
 14 15  2  0  0  0  0
 16 17  1  0  0  0  0
 16 18  1  0  0  0  0
 17 32  1  0  0  0  0
 17 33  1  0  0  0  0
 17 34  1  0  0  0  0
 18 35  1  0  0  0  0
 18 36  1  0  0  0  0
 18 37  1  0  0  0  0
M  END
> <s_m_source_file>
AV-unprocessed.smi

> <i_m_source_file_index>
754

> <i_lp_mmshare_version>
43012

> <i_f3d_flags>
0

> <s_epik_input>
W0NIM11bQ0gyXU9bQ0BASF0oQzEoW0NIM10pW0NIM10pW0NIMl1bQ0BIXTFbTkhdQyg9TylbQ0gyXW4yW2NIXW5ubjI=

> <s_epik_cmdline>
J2VwaWtfcHl0aG9uJywgJy1waCcsICc3LjAnLCAnLXRuJywgJzgnLCAnLW1hJywgJzIwMCcsICctbWV0YWxfYmluZGluZycsICctaW1hZScsICc8aW5maWxlLm1hZT4nLCAnLW9tYWUnLCAnPG91dGZpbGUubWFlPic=

> <r_lp_tautomer_probability>
1

> <r_epik_Ionization_Penalty>
8.28422e-07

> <r_epik_Ionization_Penalty_Charging>
0

> <r_epik_Ionization_Penalty_Neutral>
8.28422e-07

> <r_epik_State_Penalty>
-0

> <r_epik_Charging_Adjusted_Penalty>
0

> <i_epik_Tot_Q>
0

> <i_epik_Tot_abs_Q>
0

> <r_epik_Metal_State_Penalty>
-0

> <b_epik_Metal_Only>
0

> <s_lp_Force_Field>
OPLS_2005

> <r_lp_Energy>
20.8169

> <b_lp_Chiralities_Consistent>
1

> <s_lp_Variant>
AV-unprocessed.smi:754-2

> <Gold.Version>
5.8.1

> <Gold.Id.Protein>
6NUR|6NUR_protein|mol2

> <Gold.PLP.Fitness>
35.9457

> <Gold.PLP.PLP>
-25.6186

> <Gold.PLP.part.hbond>
-3.8522

> <Gold.PLP.part.metal>
0.0000

> <Gold.PLP.part.buried>
-2.8003

> <Gold.PLP.part.nonpolar>
-17.9232

> <Gold.PLP.part.repulsive>
0.1716

> <Gold.PLP.ligand.clash>
0.0000

> <Gold.PLP.ligand.torsion>
0.5826

> <Gold.PLP.Chemscore.Hbond>
2.7273

> <Gold.PLP.Chemscore.CHOScore>
0.9949

> <Gold.PLP.Chemscore.Metal>
0.0000

> <Gold.Chemscore.Hbonds>
donor molecule, donor type, donor heavy atom, donor atom, acceptor molecule, acceptor atom, score
      L1  H     7    28       P1  7948  0.34
      P1  H  7989  7998       L1    13  0.04
      P1  H  7997  8009       L1    14  1.00
      P1  H 10752 10763       L1     9  0.99
      L1  C    12    31       P1  7949  1.00

> <Gold.PLP.Chemscore.Internal.Correction>
0.3256

> <Gold.Rescore>
     Score         DG    S(hbond)    S(metal)    S(lipo)     H(rot)  DE(clash)    DE(int)     intcor
     10.57     -11.59       1.96        0.00      50.16       2.46       0.24       0.78       ----

> <Gold.Chemscore.Fitness>
10.5739

> <Gold.Chemscore.DG>
-11.5919

> <Gold.Chemscore.ZeroCoef>
-5.4800

> <Gold.Chemscore.Hbond>
1.9596

> <Gold.Chemscore.Metal>
0.0000

> <Gold.Chemscore.Lipo>
50.1589

> <Gold.Chemscore.Internal_Hbond>
0.0000

> <Gold.Chemscore.DEClash>
0.2366

> <Gold.Chemscore.DEInternal>
0.7815

> <Gold.Chemscore.Rot>
2.4616

> <Gold.Chemscore.Internal.Correction>
   9.000000E+99

> <Gold.Chemscore.Hbonds>
donor molecule, donor type, donor heavy atom, donor atom, acceptor molecule, acceptor atom, score
      L1  H     7    28       P1  7948  0.34
      P1  H  7997  8009       L1    14  0.88
      P1  H 10752 10763       L1     9  0.91

> <Gold.Chemscore.Hbond.Weighted>
-6.5450

> <Gold.Chemscore.Metal.Weighted>
-0.0000

> <Gold.Chemscore.Lipo.Weighted>
-5.8686

> <Gold.Chemscore.Internal_Hbond.Weighted>
0.0000

> <Gold.Chemscore.DEClash.Weighted>
0.2366

> <Gold.Chemscore.DEInternal.Weighted>
0.7815

> <Gold.Chemscore.Rot.Weighted>
6.3016

> <Gold.Chemscore.Internal.Correction.Weighted>
   9.000000E+99

> <Gold.Protein.RotatedTorsions>
[ 6907 6896 6895 6894 ] final  109.45 input  -60.11 | X-H torsion
[ 7974 7965 7964 7962 ] final   92.86 input  175.53 | X-H torsion
[ 8008 7997 7996 7995 ] final -160.70 input   59.86 | X-H torsion
[ 10167 10162 10161 10158 ] final  113.44 input  -65.29 | X-H torsion
[ 10718 10713 10712 10709 ] final  -15.26 input   66.30 | X-H torsion
[ 10763 10752 10751 10750 ] final   87.42 input  -60.55 | X-H torsion
[ 11005 11000 10999 10996 ] final -109.22 input  -57.11 | X-H torsion

> <Gold.Protein.ActiveResidues>
 VAL166  LYS551  ARG553  GLY616  TRP617  ASP618  TYR619  PRO620  LYS621  CYS622 
 ASP623  PHE694  ASN695  SER759  ASP760  ASP761  ALA762  ILE779  LEU786  VAL792 
 PHE793  MET794  SER795  GLU796  ALA797  LYS798  CYS799  TRP800  GLU811  SER814 

> <Gold.Protein.RotatedAtoms>
  152.5067  133.8943  159.7408 H   0  0  0  0  0  0  0  0  0  0  0  0  # atno 6907 bound_to 6896
  150.9374  133.6687  159.2804 H   0  0  0  0  0  0  0  0  0  0  0  0  # atno 6908 bound_to 6896
  151.4011  135.0976  159.9609 H   0  0  0  0  0  0  0  0  0  0  0  0  # atno 6909 bound_to 6896
  145.4867  139.2277  143.2852 H   0  0  0  0  0  0  0  0  0  0  0  0  # atno 7974 bound_to 7965
  155.7814  140.0865  157.2057 H   0  0  0  0  0  0  0  0  0  0  0  0  # atno 8008 bound_to 7997
  154.3990  140.1507  156.3114 H   0  0  0  0  0  0  0  0  0  0  0  0  # atno 8009 bound_to 7997
  155.8650  140.3428  155.5784 H   0  0  0  0  0  0  0  0  0  0  0  0  # atno 8010 bound_to 7997
  139.6461  144.7126  151.2139 H   0  0  0  0  0  0  0  0  0  0  0  0  # atno 10167 bound_to 10162
  156.6042  130.4832  149.6227 H   0  0  0  0  0  0  0  0  0  0  0  0  # atno 10718 bound_to 10713
  153.1666  135.4544  154.9846 H   0  0  0  0  0  0  0  0  0  0  0  0  # atno 10763 bound_to 10752
  154.7936  135.3229  154.7721 H   0  0  0  0  0  0  0  0  0  0  0  0  # atno 10764 bound_to 10752
  153.8203  135.6947  153.4883 H   0  0  0  0  0  0  0  0  0  0  0  0  # atno 10765 bound_to 10752
  141.0859  133.9139  157.2185 H   0  0  0  0  0  0  0  0  0  0  0  0  # atno 11005 bound_to 11000
  146.2309  140.5658  142.8976 LP  0  0  0  0  0  0  0  0  0  0  0  0  # atno 17320 bound_to 7965
  144.7857  140.5932  143.6575 LP  0  0  0  0  0  0  0  0  0  0  0  0  # atno 17321 bound_to 7965
  140.7515  143.6228  150.8497 LP  0  0  0  0  0  0  0  0  0  0  0  0  # atno 17342 bound_to 10162
  139.9871  143.5887  152.2923 LP  0  0  0  0  0  0  0  0  0  0  0  0  # atno 17343 bound_to 10162
  156.2443  130.6870  151.1586 LP  0  0  0  0  0  0  0  0  0  0  0  0  # atno 17370 bound_to 10713
  157.7271  131.0641  150.5878 LP  0  0  0  0  0  0  0  0  0  0  0  0  # atno 17371 bound_to 10713
  139.9678  135.0137  156.9432 LP  0  0  0  0  0  0  0  0  0  0  0  0  # atno 17394 bound_to 11000
  140.5363  134.0764  155.7329 LP  0  0  0  0  0  0  0  0  0  0  0  0  # atno 17395 bound_to 11000

$$$$
