AV-unprocessed.smi:281|AV-procd|sdf|2103|dock4
  -GOLD-   2262021393D 1   1.00000     0.00000
 Structure written by MMmdl.
 55 59  0  0  0  0  0  0  0  0  1 V2000
  147.6326  140.9317  157.1080 C   0  0  0  0  0  0  0  0  0  0  0  0
  148.4874  139.6670  156.9802 C   0  0  2  0  0  0  0  0  0  0  0  0
  148.0410  138.5697  157.9584 C   0  0  0  0  0  0  0  0  0  0  0  0
  148.9475  137.4327  157.8710 N   0  0  0  0  0  0  0  0  0  0  0  0
  148.4872  136.2852  158.4309 C   0  0  0  0  0  0  0  0  0  0  0  0
  148.4866  135.1304  157.7121 N   0  0  0  0  0  0  0  0  0  0  0  0
  148.0441  133.9944  158.2585 C   0  0  0  0  0  0  0  0  0  0  0  0
  147.5602  133.7920  159.4850 N   0  0  0  0  0  0  0  0  0  0  0  0
  147.5440  134.9484  160.2077 C   0  0  0  0  0  0  0  0  0  0  0  0
  147.9894  136.2258  159.7635 C   0  0  0  0  0  0  0  0  0  0  0  0
  147.8181  137.1632  160.7755 N   0  0  0  0  0  0  0  0  0  0  0  0
  147.3120  136.4774  161.7635 C   0  0  0  0  0  0  0  0  0  0  0  0
  147.0991  135.1422  161.5043 N   0  0  0  0  0  0  0  0  0  0  0  0
  146.5447  134.1531  162.4171 C   0  0  0  0  0  0  0  0  0  0  0  0
  144.9987  134.0424  162.3744 C   0  0  2  0  0  0  0  0  0  0  0  0
  144.5562  133.2361  163.4505 O   0  0  0  0  0  0  0  0  0  0  0  0
  144.4442  133.4748  161.0649 C   0  0  0  0  0  0  0  0  0  0  0  0
  143.9982  134.7191  160.3108 C   0  0  0  0  0  0  0  0  0  0  0  0
  143.4573  135.5207  161.3451 O   0  0  0  0  0  0  0  0  0  0  0  0
  144.3303  135.4297  162.4639 C   0  0  0  0  0  0  0  0  0  0  0  0
  150.3423  137.7980  158.1009 C   0  0  0  0  0  0  0  0  0  0  0  0
  150.7845  138.9432  157.1604 C   0  0  2  0  0  0  0  0  0  0  0  0
  150.9670  138.5029  155.7006 C   0  0  0  0  0  0  0  0  0  0  0  0
  152.4751  138.5036  155.4893 C   0  0  0  0  0  0  0  0  0  0  0  0
  152.8992  139.5727  156.3138 O   0  0  0  0  0  0  0  0  0  0  0  0
  152.1990  139.4435  157.5422 C   0  0  1  0  0  0  0  0  0  0  0  0
  152.2581  140.7559  158.3372 C   0  0  0  0  0  0  0  0  0  0  0  0
  149.8441  140.0213  157.2500 O   0  0  0  0  0  0  0  0  0  0  0  0
  146.5835  140.7190  156.9015 H   0  0  0  0  0  0  0  0  0  0  0  0
  147.9615  141.6960  156.4035 H   0  0  0  0  0  0  0  0  0  0  0  0
  147.6987  141.3530  158.1115 H   0  0  0  0  0  0  0  0  0  0  0  0
  148.3970  139.2966  155.9584 H   0  0  0  0  0  0  0  0  0  0  0  0
  148.0501  138.9499  158.9809 H   0  0  0  0  0  0  0  0  0  0  0  0
  147.0138  138.2820  157.7382 H   0  0  0  0  0  0  0  0  0  0  0  0
  148.0817  133.1234  157.6210 H   0  0  0  0  0  0  0  0  0  0  0  0
  147.0716  136.9328  162.7132 H   0  0  0  0  0  0  0  0  0  0  0  0
  146.9948  133.1875  162.1822 H   0  0  0  0  0  0  0  0  0  0  0  0
  146.8741  134.4030  163.4265 H   0  0  0  0  0  0  0  0  0  0  0  0
  144.1573  133.7953  164.0995 H   0  0  0  0  0  0  0  0  0  0  0  0
  145.1508  132.8738  160.4949 H   0  0  0  0  0  0  0  0  0  0  0  0
  143.5689  132.8508  161.2535 H   0  0  0  0  0  0  0  0  0  0  0  0
  144.8474  135.2271  159.8507 H   0  0  0  0  0  0  0  0  0  0  0  0
  143.2601  134.5037  159.5381 H   0  0  0  0  0  0  0  0  0  0  0  0
  143.7785  135.5860  163.3920 H   0  0  0  0  0  0  0  0  0  0  0  0
  145.0687  136.2292  162.3872 H   0  0  0  0  0  0  0  0  0  0  0  0
  150.4542  138.1130  159.1395 H   0  0  0  0  0  0  0  0  0  0  0  0
  150.9875  136.9299  157.9567 H   0  0  0  0  0  0  0  0  0  0  0  0
  150.5152  137.5365  155.4744 H   0  0  0  0  0  0  0  0  0  0  0  0
  150.5270  139.2381  155.0257 H   0  0  0  0  0  0  0  0  0  0  0  0
  152.9217  137.5692  155.8330 H   0  0  0  0  0  0  0  0  0  0  0  0
  152.7557  138.6602  154.4476 H   0  0  0  0  0  0  0  0  0  0  0  0
  152.7159  138.6698  158.1133 H   0  0  0  0  0  0  0  0  0  0  0  0
  151.7045  140.6715  159.2728 H   0  0  0  0  0  0  0  0  0  0  0  0
  151.8382  141.5868  157.7696 H   0  0  0  0  0  0  0  0  0  0  0  0
  153.2884  141.0129  158.5829 H   0  0  0  0  0  0  0  0  0  0  0  0
  1  2  1  0  0  0  0
  1 29  1  0  0  0  0
  1 30  1  0  0  0  0
  1 31  1  0  0  0  0
  2 28  1  0  0  0  0
  2  3  1  0  0  0  0
  2 32  1  0  0  0  0
  3  4  1  0  0  0  0
  3 33  1  0  0  0  0
  3 34  1  0  0  0  0
  4  5  1  0  0  0  0
  4 21  1  0  0  0  0
  5 10  1  0  0  0  0
  5  6  2  0  0  0  0
  6  7  1  0  0  0  0
  7  8  2  0  0  0  0
  7 35  1  0  0  0  0
  8  9  1  0  0  0  0
  9 13  1  0  0  0  0
  9 10  2  0  0  0  0
 10 11  1  0  0  0  0
 11 12  2  0  0  0  0
 12 13  1  0  0  0  0
 12 36  1  0  0  0  0
 13 14  1  0  0  0  0
 14 15  1  0  0  0  0
 14 37  1  0  0  0  0
 14 38  1  0  0  0  0
 15 20  1  0  0  0  0
 15 16  1  0  0  0  0
 15 17  1  0  0  0  0
 16 39  1  0  0  0  0
 17 18  1  0  0  0  0
 17 40  1  0  0  0  0
 17 41  1  0  0  0  0
 18 19  1  0  0  0  0
 18 42  1  0  0  0  0
 18 43  1  0  0  0  0
 19 20  1  0  0  0  0
 20 44  1  0  0  0  0
 20 45  1  0  0  0  0
 21 22  1  0  0  0  0
 21 46  1  0  0  0  0
 21 47  1  0  0  0  0
 22 26  1  0  0  0  0
 22 23  1  0  0  0  0
 22 28  1  0  0  0  0
 23 24  1  0  0  0  0
 23 48  1  0  0  0  0
 23 49  1  0  0  0  0
 24 25  1  0  0  0  0
 24 50  1  0  0  0  0
 24 51  1  0  0  0  0
 25 26  1  0  0  0  0
 26 27  1  0  0  0  0
 26 52  1  0  0  0  0
 27 53  1  0  0  0  0
 27 54  1  0  0  0  0
 27 55  1  0  0  0  0
M  END
> <s_m_source_file>
AV-unprocessed.smi

> <i_m_source_file_index>
281

> <i_lp_mmshare_version>
43012

> <i_f3d_flags>
0

> <s_epik_input>
W0NIM11bQ0BASF0xT1tDSDJdW0NIMl1bQ0BAXTEyW0NIMl1OKFtDSDJdW0NASF0oTzIpW0NIM10pYyhuW2NIXW4zKWMoYzM0KW5bY0hdbjRbQ0gyXVtDQEBdNShbT0hdKVtDSDJdW0NIMl1PW0NIMl01

> <s_epik_cmdline>
J2VwaWtfcHl0aG9uJywgJy1waCcsICc3LjAnLCAnLXRuJywgJzgnLCAnLW1hJywgJzIwMCcsICctbWV0YWxfYmluZGluZycsICctaW1hZScsICc8aW5maWxlLm1hZT4nLCAnLW9tYWUnLCAnPG91dGZpbGUubWFlPic=

> <r_lp_tautomer_probability>
1

> <r_epik_Ionization_Penalty>
0.00571331

> <r_epik_Ionization_Penalty_Charging>
0

> <r_epik_Ionization_Penalty_Neutral>
0.00571331

> <r_epik_State_Penalty>
0.00399586

> <r_epik_Charging_Adjusted_Penalty>
0.00399586

> <i_epik_Tot_Q>
0

> <i_epik_Tot_abs_Q>
0

> <r_epik_Metal_State_Penalty>
-0

> <b_epik_Metal_Only>
0

> <s_lp_Force_Field>
OPLS_2005

> <r_lp_Energy>
53.0608

> <b_lp_Chiralities_Consistent>
1

> <s_lp_Variant>
AV-unprocessed.smi:281-3

> <Gold.Version>
5.8.1

> <Gold.Id.Protein>
6NUR|6NUR_protein|mol2

> <Gold.PLP.Fitness>
40.6697

> <Gold.PLP.PLP>
-34.3398

> <Gold.PLP.part.hbond>
-4.9672

> <Gold.PLP.part.metal>
0.0000

> <Gold.PLP.part.buried>
-3.8117

> <Gold.PLP.part.nonpolar>
-25.8559

> <Gold.PLP.part.repulsive>
0.0000

> <Gold.PLP.ligand.clash>
0.0000

> <Gold.PLP.ligand.torsion>
0.8596

> <Gold.PLP.Chemscore.Hbond>
2.5824

> <Gold.PLP.Chemscore.CHOScore>
0.0000

> <Gold.PLP.Chemscore.Metal>
0.0000

> <Gold.Chemscore.Hbonds>
donor molecule, donor type, donor heavy atom, donor atom, acceptor molecule, acceptor atom, score
      P1  H  6931  6943       L1    11  0.68
      P1  H  6934  6947       L1    11  0.85
      P1  H  7997  8008       L1    25  1.00

> <Gold.PLP.Chemscore.Internal.Correction>
0.3020

> <Gold.Rescore>
     Score         DG    S(hbond)    S(metal)    S(lipo)     H(rot)  DE(clash)    DE(int)     intcor
     11.76     -14.11       1.97        0.00      63.49       2.09       1.49       0.86       ----

> <Gold.Chemscore.Fitness>
11.7633

> <Gold.Chemscore.DG>
-14.1148

> <Gold.Chemscore.ZeroCoef>
-5.4800

> <Gold.Chemscore.Hbond>
1.9654

> <Gold.Chemscore.Metal>
0.0000

> <Gold.Chemscore.Lipo>
63.4856

> <Gold.Chemscore.Internal_Hbond>
0.0000

> <Gold.Chemscore.DEClash>
1.4916

> <Gold.Chemscore.DEInternal>
0.8599

> <Gold.Chemscore.Rot>
2.0927

> <Gold.Chemscore.Internal.Correction>
   9.000000E+99

> <Gold.Chemscore.Hbonds>
donor molecule, donor type, donor heavy atom, donor atom, acceptor molecule, acceptor atom, score
      P1  H  6931  6943       L1    11  0.10
      P1  H  6934  6947       L1    11  0.58
      P1  H  7997  8008       L1    25  0.57

> <Gold.Chemscore.Hbond.Weighted>
-6.5644

> <Gold.Chemscore.Metal.Weighted>
-0.0000

> <Gold.Chemscore.Lipo.Weighted>
-7.4278

> <Gold.Chemscore.Internal_Hbond.Weighted>
0.0000

> <Gold.Chemscore.DEClash.Weighted>
1.4916

> <Gold.Chemscore.DEInternal.Weighted>
0.8599

> <Gold.Chemscore.Rot.Weighted>
5.3573

> <Gold.Chemscore.Internal.Correction.Weighted>
   9.000000E+99

> <Gold.Protein.RotatedTorsions>
[ 6907 6896 6895 6894 ] final   72.74 input  -60.11 | X-H torsion
[ 7974 7965 7964 7962 ] final  138.71 input  175.53 | X-H torsion
[ 8008 7997 7996 7995 ] final  -64.03 input   59.86 | X-H torsion
[ 10167 10162 10161 10158 ] final -123.71 input  -65.29 | X-H torsion
[ 10718 10713 10712 10709 ] final  -97.74 input   66.30 | X-H torsion
[ 10763 10752 10751 10750 ] final  -11.19 input  -60.55 | X-H torsion
[ 11005 11000 10999 10996 ] final  166.67 input  -57.11 | X-H torsion

> <Gold.Protein.ActiveResidues>
 VAL166  LYS551  ARG553  GLY616  TRP617  ASP618  TYR619  PRO620  LYS621  CYS622 
 ASP623  PHE694  ASN695  SER759  ASP760  ASP761  ALA762  ILE779  LEU786  VAL792 
 PHE793  MET794  SER795  GLU796  ALA797  LYS798  CYS799  TRP800  GLU811  SER814 

> <Gold.Protein.RotatedAtoms>
  152.4885  134.4526  159.9579 H   0  0  0  0  0  0  0  0  0  0  0  0  # atno 6907 bound_to 6896
  151.4517  133.3609  159.2804 H   0  0  0  0  0  0  0  0  0  0  0  0  # atno 6908 bound_to 6896
  150.9017  134.8453  159.7425 H   0  0  0  0  0  0  0  0  0  0  0  0  # atno 6909 bound_to 6896
  144.9347  139.5004  143.5601 H   0  0  0  0  0  0  0  0  0  0  0  0  # atno 7974 bound_to 7965
  154.4588  140.0962  156.6834 H   0  0  0  0  0  0  0  0  0  0  0  0  # atno 8008 bound_to 7997
  155.5057  140.3475  155.4361 H   0  0  0  0  0  0  0  0  0  0  0  0  # atno 8009 bound_to 7997
  156.0830  140.1378  156.9677 H   0  0  0  0  0  0  0  0  0  0  0  0  # atno 8010 bound_to 7997
  140.0006  143.5545  152.2305 H   0  0  0  0  0  0  0  0  0  0  0  0  # atno 10167 bound_to 10162
  156.0091  130.5207  150.6420 H   0  0  0  0  0  0  0  0  0  0  0  0  # atno 10718 bound_to 10713
  153.4801  135.7017  153.5943 H   0  0  0  0  0  0  0  0  0  0  0  0  # atno 10763 bound_to 10752
  153.4160  135.3837  155.2081 H   0  0  0  0  0  0  0  0  0  0  0  0  # atno 10764 bound_to 10752
  154.8722  135.3916  154.4249 H   0  0  0  0  0  0  0  0  0  0  0  0  # atno 10765 bound_to 10752
  140.2688  134.7843  157.3657 H   0  0  0  0  0  0  0  0  0  0  0  0  # atno 11005 bound_to 11000
  146.3261  139.8322  142.8906 LP  0  0  0  0  0  0  0  0  0  0  0  0  # atno 17320 bound_to 7965
  145.3086  141.0214  143.3567 LP  0  0  0  0  0  0  0  0  0  0  0  0  # atno 17321 bound_to 7965
  139.6275  144.7639  151.2608 LP  0  0  0  0  0  0  0  0  0  0  0  0  # atno 17342 bound_to 10162
  140.7420  143.6539  150.8224 LP  0  0  0  0  0  0  0  0  0  0  0  0  # atno 17343 bound_to 10162
  157.4198  131.0835  151.1142 LP  0  0  0  0  0  0  0  0  0  0  0  0  # atno 17370 bound_to 10713
  157.1748  130.6283  149.5652 LP  0  0  0  0  0  0  0  0  0  0  0  0  # atno 17371 bound_to 10713
  140.1393  134.4993  155.8044 LP  0  0  0  0  0  0  0  0  0  0  0  0  # atno 17394 bound_to 11000
  141.2180  133.6819  156.7181 LP  0  0  0  0  0  0  0  0  0  0  0  0  # atno 17395 bound_to 11000

$$$$
