AV-unprocessed.smi:2822|AV-procd|sdf|10867|dock10
  -GOLD-   2272015313D 1   1.00000     0.00000
 Structure written by MMmdl.
 41 43  0  0  0  0  0  0  0  0  3 V2000
  147.1904  137.8143  156.6388 Cl  0  0  0  0  0  0  0  0  0  0  0  0
  147.2406  139.0591  155.4399 C   0  0  0  0  0  0  0  0  0  0  0  0
  146.0638  139.3832  154.7338 C   0  0  0  0  0  0  0  0  0  0  0  0
  146.0849  140.3523  153.7946 N   0  3  0  0  0  0  0  0  0  0  0  0
  147.2012  141.0461  153.4879 C   0  0  0  0  0  0  0  0  0  0  0  0
  148.4091  140.7682  154.1597 C   0  0  0  0  0  0  0  0  0  0  0  0
  148.4394  139.7583  155.1541 C   0  0  0  0  0  0  0  0  0  0  0  0
  149.6095  139.4290  155.8561 N   0  0  0  0  0  0  0  0  0  0  0  0
  150.9212  139.8317  155.3712 C   0  0  0  0  0  0  0  0  0  0  0  0
  151.7030  140.6094  156.4400 C   0  0  1  0  0  0  0  0  0  0  0  0
  151.0073  141.9340  156.8047 C   0  0  0  0  0  0  0  0  0  0  0  0
  151.7428  142.6294  157.8866 N   0  3  1  0  0  0  0  0  0  0  0  0
  151.1277  143.9331  158.2435 C   0  0  0  0  0  0  0  0  0  0  0  0
  151.9664  144.6703  159.3000 C   0  0  0  0  0  0  0  0  0  0  0  0
  152.1690  143.7962  160.5442 C   0  0  0  0  0  0  0  0  0  0  0  0
  152.7788  142.4459  160.1446 C   0  0  0  0  0  0  0  0  0  0  0  0
  151.9270  141.7436  159.0684 C   0  0  2  0  0  0  0  0  0  0  0  0
  152.5629  140.4091  158.6321 C   0  0  0  0  0  0  0  0  0  0  0  0
  151.7747  139.8065  157.6135 O   0  0  0  0  0  0  0  0  0  0  0  0
  145.1114  138.8985  154.8917 H   0  0  0  0  0  0  0  0  0  0  0  0
  147.0962  141.7976  152.7189 H   0  0  0  0  0  0  0  0  0  0  0  0
  149.2914  141.3330  153.8983 H   0  0  0  0  0  0  0  0  0  0  0  0
  149.5313  139.0855  156.8035 H   0  0  0  0  0  0  0  0  0  0  0  0
  151.4789  138.9350  155.0983 H   0  0  0  0  0  0  0  0  0  0  0  0
  150.8130  140.4360  154.4696 H   0  0  0  0  0  0  0  0  0  0  0  0
  152.7092  140.8167  156.0695 H   0  0  0  0  0  0  0  0  0  0  0  0
  150.9561  142.5805  155.9275 H   0  0  0  0  0  0  0  0  0  0  0  0
  149.9810  141.7454  157.1240 H   0  0  0  0  0  0  0  0  0  0  0  0
  151.0400  144.5528  157.3502 H   0  0  0  0  0  0  0  0  0  0  0  0
  150.1156  143.7698  158.6171 H   0  0  0  0  0  0  0  0  0  0  0  0
  152.9358  144.9390  158.8778 H   0  0  0  0  0  0  0  0  0  0  0  0
  151.4791  145.6057  159.5772 H   0  0  0  0  0  0  0  0  0  0  0  0
  152.8146  144.3041  161.2614 H   0  0  0  0  0  0  0  0  0  0  0  0
  151.2122  143.6366  161.0432 H   0  0  0  0  0  0  0  0  0  0  0  0
  153.7922  142.6017  159.7716 H   0  0  0  0  0  0  0  0  0  0  0  0
  152.8692  141.8090  161.0255 H   0  0  0  0  0  0  0  0  0  0  0  0
  150.9416  141.5314  159.4875 H   0  0  0  0  0  0  0  0  0  0  0  0
  153.5840  140.5563  158.2759 H   0  0  0  0  0  0  0  0  0  0  0  0
  152.6188  139.7248  159.4792 H   0  0  0  0  0  0  0  0  0  0  0  0
  152.6655  142.8314  157.5287 H   0  0  0  0  0  0  0  0  0  0  0  0
  145.2213  140.5691  153.2961 H   0  0  0  0  0  0  0  0  0  0  0  0
  1  2  1  0  0  0  0
  2  7  1  0  0  0  0
  2  3  2  0  0  0  0
  3  4  1  0  0  0  0
  3 20  1  0  0  0  0
  4  5  2  0  0  0  0
  4 41  1  0  0  0  0
  5  6  1  0  0  0  0
  5 21  1  0  0  0  0
  6  7  2  0  0  0  0
  6 22  1  0  0  0  0
  7  8  1  0  0  0  0
  8  9  1  0  0  0  0
  8 23  1  0  0  0  0
  9 10  1  0  0  0  0
  9 24  1  0  0  0  0
  9 25  1  0  0  0  0
 10 19  1  0  0  0  0
 10 11  1  0  0  0  0
 10 26  1  0  0  0  0
 11 12  1  0  0  0  0
 11 27  1  0  0  0  0
 11 28  1  0  0  0  0
 12 17  1  0  0  0  0
 12 13  1  0  0  0  0
 12 40  1  0  0  0  0
 13 14  1  0  0  0  0
 13 29  1  0  0  0  0
 13 30  1  0  0  0  0
 14 15  1  0  0  0  0
 14 31  1  0  0  0  0
 14 32  1  0  0  0  0
 15 16  1  0  0  0  0
 15 33  1  0  0  0  0
 15 34  1  0  0  0  0
 16 17  1  0  0  0  0
 16 35  1  0  0  0  0
 16 36  1  0  0  0  0
 17 18  1  0  0  0  0
 17 37  1  0  0  0  0
 18 19  1  0  0  0  0
 18 38  1  0  0  0  0
 18 39  1  0  0  0  0
M  CHG  1   4   1
M  CHG  1  12   1
M  END
> <s_m_source_file>
AV-unprocessed.smi

> <i_m_source_file_index>
2822

> <i_lp_mmshare_version>
43012

> <i_f3d_flags>
0

> <s_epik_input>
Q2xjMVtjSF1uW2NIXVtjSF1jMVtOSF1bQ0gyXVtDQEhdKFtDSDJdMilPW0NIMl1bQ0BASF0oTjIzKVtDSDJdW0NIMl1bQ0gyXVtDSDJdMw==

> <s_epik_cmdline>
J2VwaWtfcHl0aG9uJywgJy1waCcsICc3LjAnLCAnLXRuJywgJzgnLCAnLW1hJywgJzIwMCcsICctbWV0YWxfYmluZGluZycsICctaW1hZScsICc8aW5maWxlLm1hZT4nLCAnLW9tYWUnLCAnPG91dGZpbGUubWFlPic=

> <r_lp_tautomer_probability>
1

> <r_epik_Ionization_Penalty>
0.254999

> <r_epik_Ionization_Penalty_Charging>
0.254956

> <r_epik_Ionization_Penalty_Neutral>
4.33524e-05

> <r_epik_State_Penalty>
0.230978

> <r_epik_Charging_Adjusted_Penalty>
0.485934

> <i_epik_Tot_Q>
2

> <i_epik_Tot_abs_Q>
2

> <r_epik_Metal_State_Penalty>
3.47007

> <b_epik_Metal_Only>
0

> <s_lp_Force_Field>
OPLS_2005

> <r_lp_Energy>
36.8988

> <b_lp_Chiralities_Consistent>
1

> <s_lp_Variant>
AV-unprocessed.smi:2822-8

> <Gold.Version>
5.8.1

> <Gold.Id.Protein>
6NUR|6NUR_protein|mol2

> <Gold.PLP.Fitness>
40.6651

> <Gold.PLP.PLP>
-34.8420

> <Gold.PLP.part.hbond>
-1.0000

> <Gold.PLP.part.metal>
0.0000

> <Gold.PLP.part.buried>
-4.0666

> <Gold.PLP.part.nonpolar>
-29.4457

> <Gold.PLP.part.repulsive>
0.0734

> <Gold.PLP.ligand.clash>
0.0000

> <Gold.PLP.ligand.torsion>
0.0887

> <Gold.PLP.Chemscore.Hbond>
2.0000

> <Gold.PLP.Chemscore.CHOScore>
0.0000

> <Gold.PLP.Chemscore.Metal>
0.0000

> <Gold.Chemscore.Hbonds>
donor molecule, donor type, donor heavy atom, donor atom, acceptor molecule, acceptor atom, score
      L1  H     4    41       P1 10175  2.00

> <Gold.PLP.Chemscore.Internal.Correction>
0.0005

> <Gold.Rescore>
     Score         DG    S(hbond)    S(metal)    S(lipo)     H(rot)  DE(clash)    DE(int)     intcor
     17.66     -17.86       0.99        0.00     103.55       1.20       0.09       0.10       ----

> <Gold.Chemscore.Fitness>
17.6640

> <Gold.Chemscore.DG>
-17.8554

> <Gold.Chemscore.ZeroCoef>
-5.4800

> <Gold.Chemscore.Hbond>
0.9946

> <Gold.Chemscore.Metal>
0.0000

> <Gold.Chemscore.Lipo>
103.5543

> <Gold.Chemscore.Internal_Hbond>
0.0000

> <Gold.Chemscore.DEClash>
0.0885

> <Gold.Chemscore.DEInternal>
0.1029

> <Gold.Chemscore.Rot>
1.1962

> <Gold.Chemscore.Internal.Correction>
   9.000000E+99

> <Gold.Chemscore.Hbonds>
donor molecule, donor type, donor heavy atom, donor atom, acceptor molecule, acceptor atom, score
      L1  H     4    41       P1 10175  0.94

> <Gold.Chemscore.Hbond.Weighted>
-3.3218

> <Gold.Chemscore.Metal.Weighted>
-0.0000

> <Gold.Chemscore.Lipo.Weighted>
-12.1158

> <Gold.Chemscore.Internal_Hbond.Weighted>
0.0000

> <Gold.Chemscore.DEClash.Weighted>
0.0885

> <Gold.Chemscore.DEInternal.Weighted>
0.1029

> <Gold.Chemscore.Rot.Weighted>
3.0623

> <Gold.Chemscore.Internal.Correction.Weighted>
   9.000000E+99

> <Gold.Protein.RotatedTorsions>
[ 6907 6896 6895 6894 ] final   83.68 input  -60.11 | X-H torsion
[ 7974 7965 7964 7962 ] final   -5.44 input  175.53 | X-H torsion
[ 8008 7997 7996 7995 ] final -134.11 input   59.86 | X-H torsion
[ 10167 10162 10161 10158 ] final  116.95 input  -65.29 | X-H torsion
[ 10718 10713 10712 10709 ] final  100.80 input   66.30 | X-H torsion
[ 10763 10752 10751 10750 ] final   24.97 input  -60.55 | X-H torsion
[ 11005 11000 10999 10996 ] final -108.99 input  -57.11 | X-H torsion

> <Gold.Protein.ActiveResidues>
 VAL166  LYS551  ARG553  GLY616  TRP617  ASP618  TYR619  PRO620  LYS621  CYS622 
 ASP623  PHE694  ASN695  SER759  ASP760  ASP761  ALA762  ILE779  LEU786  VAL792 
 PHE793  MET794  SER795  GLU796  ALA797  LYS798  CYS799  TRP800  GLU811  SER814 

> <Gold.Protein.RotatedAtoms>
  152.5333  134.2859  159.9024 H   0  0  0  0  0  0  0  0  0  0  0  0  # atno 6907 bound_to 6896
  151.2812  133.4202  159.2634 H   0  0  0  0  0  0  0  0  0  0  0  0  # atno 6908 bound_to 6896
  151.0282  134.9535  159.8153 H   0  0  0  0  0  0  0  0  0  0  0  0  # atno 6909 bound_to 6896
  146.2353  140.2021  142.8334 H   0  0  0  0  0  0  0  0  0  0  0  0  # atno 7974 bound_to 7965
  155.3567  140.0480  157.3046 H   0  0  0  0  0  0  0  0  0  0  0  0  # atno 8008 bound_to 7997
  154.5199  140.2221  155.8959 H   0  0  0  0  0  0  0  0  0  0  0  0  # atno 8009 bound_to 7997
  156.1678  140.3102  155.8925 H   0  0  0  0  0  0  0  0  0  0  0  0  # atno 8010 bound_to 7997
  139.6212  144.7101  151.2630 H   0  0  0  0  0  0  0  0  0  0  0  0  # atno 10167 bound_to 10162
  157.6845  131.0708  150.5156 H   0  0  0  0  0  0  0  0  0  0  0  0  # atno 10718 bound_to 10713
  153.0725  135.6593  154.0217 H   0  0  0  0  0  0  0  0  0  0  0  0  # atno 10763 bound_to 10752
  153.9859  135.2950  155.3417 H   0  0  0  0  0  0  0  0  0  0  0  0  # atno 10764 bound_to 10752
  154.7104  135.5207  153.8727 H   0  0  0  0  0  0  0  0  0  0  0  0  # atno 10765 bound_to 10752
  141.0872  133.9118  157.2158 H   0  0  0  0  0  0  0  0  0  0  0  0  # atno 11005 bound_to 11000
  144.9774  140.8427  143.5418 LP  0  0  0  0  0  0  0  0  0  0  0  0  # atno 17320 bound_to 7965
  145.2010  139.2252  143.5193 LP  0  0  0  0  0  0  0  0  0  0  0  0  # atno 17321 bound_to 7965
  140.7383  143.6652  150.8129 LP  0  0  0  0  0  0  0  0  0  0  0  0  # atno 17342 bound_to 10162
  140.0263  143.5490  152.2779 LP  0  0  0  0  0  0  0  0  0  0  0  0  # atno 17343 bound_to 10162
  156.5471  130.4222  149.6125 LP  0  0  0  0  0  0  0  0  0  0  0  0  # atno 17370 bound_to 10713
  156.2935  130.7137  151.1991 LP  0  0  0  0  0  0  0  0  0  0  0  0  # atno 17371 bound_to 10713
  139.9692  135.0133  156.9467 LP  0  0  0  0  0  0  0  0  0  0  0  0  # atno 17394 bound_to 11000
  140.5336  134.0789  155.7322 LP  0  0  0  0  0  0  0  0  0  0  0  0  # atno 17395 bound_to 11000

$$$$
