AV-unprocessed.smi:855|AV-procd|sdf|3958|dock3
  -GOLD-   22720 1423D 1   1.00000     0.00000
 Structure written by MMmdl.
 35 36  0  0  0  0  0  0  0  0  3 V2000
  151.0344  141.7609  157.6601 C   0  0  0  0  0  0  0  0  0  0  0  0
  150.5946  141.2118  156.3465 C   0  0  0  0  0  0  0  0  0  0  0  0
  149.4276  141.3062  155.6420 C   0  0  0  0  0  0  0  0  0  0  0  0
  149.6941  140.5414  154.4749 C   0  0  0  0  0  0  0  0  0  0  0  0
  148.7038  140.3876  153.4687 N   0  0  0  0  0  0  0  0  0  0  0  0
  147.3846  140.1635  153.6120 C   0  0  0  0  0  0  0  0  0  0  0  0
  146.8889  140.0512  154.7394 O   0  0  0  0  0  0  0  0  0  0  0  0
  146.7428  140.0888  152.4139 N   0  5  0  0  0  0  0  0  0  0  0  0
  146.5462  138.8521  151.6560 C   0  0  0  0  0  0  0  0  0  0  0  0
  145.9192  137.7763  152.5655 C   0  0  0  0  0  0  0  0  0  0  0  0
  146.1344  136.3937  152.0598 N   0  3  0  0  0  0  0  0  0  0  0  0
  145.7042  135.3236  152.9918 C   0  0  0  0  0  0  0  0  0  0  0  0
  145.0345  134.2320  152.1461 C   0  0  0  0  0  0  0  0  0  0  0  0
  145.4210  134.5638  150.7090 C   0  0  0  0  0  0  0  0  0  0  0  0
  145.5492  136.0826  150.7344 C   0  0  0  0  0  0  0  0  0  0  0  0
  150.9154  140.0282  154.4685 N   0  0  0  0  0  0  0  0  0  0  0  0
  151.4985  140.4552  155.6672 O   0  0  0  0  0  0  0  0  0  0  0  0
  150.2046  142.2397  158.1800 H   0  0  0  0  0  0  0  0  0  0  0  0
  151.8219  142.5021  157.5239 H   0  0  0  0  0  0  0  0  0  0  0  0
  151.4216  140.9682  158.3003 H   0  0  0  0  0  0  0  0  0  0  0  0
  148.5287  141.8365  155.9192 H   0  0  0  0  0  0  0  0  0  0  0  0
  149.0349  140.4616  152.5185 H   0  0  0  0  0  0  0  0  0  0  0  0
  145.8938  139.0070  150.7963 H   0  0  0  0  0  0  0  0  0  0  0  0
  147.4846  138.4689  151.2531 H   0  0  0  0  0  0  0  0  0  0  0  0
  146.3731  137.8681  153.5537 H   0  0  0  0  0  0  0  0  0  0  0  0
  144.8537  137.9626  152.7040 H   0  0  0  0  0  0  0  0  0  0  0  0
  146.5827  134.9388  153.5107 H   0  0  0  0  0  0  0  0  0  0  0  0
  145.0087  135.6931  153.7470 H   0  0  0  0  0  0  0  0  0  0  0  0
  145.3375  133.2267  152.4400 H   0  0  0  0  0  0  0  0  0  0  0  0
  143.9513  134.2973  152.2562 H   0  0  0  0  0  0  0  0  0  0  0  0
  146.3852  134.1134  150.4695 H   0  0  0  0  0  0  0  0  0  0  0  0
  144.6916  134.2106  149.9797 H   0  0  0  0  0  0  0  0  0  0  0  0
  144.5593  136.5339  150.6491 H   0  0  0  0  0  0  0  0  0  0  0  0
  146.1650  136.4594  149.9172 H   0  0  0  0  0  0  0  0  0  0  0  0
  147.1350  136.2868  151.9655 H   0  0  0  0  0  0  0  0  0  0  0  0
  1  2  1  0  0  0  0
  1 18  1  0  0  0  0
  1 19  1  0  0  0  0
  1 20  1  0  0  0  0
  2 17  1  0  0  0  0
  2  3  2  0  0  0  0
  3  4  1  0  0  0  0
  3 21  1  0  0  0  0
  4  5  1  0  0  0  0
  4 16  2  0  0  0  0
  5  6  1  0  0  0  0
  5 22  1  0  0  0  0
  6  7  2  0  0  0  0
  6  8  1  0  0  0  0
  8  9  1  0  0  0  0
  9 10  1  0  0  0  0
  9 23  1  0  0  0  0
  9 24  1  0  0  0  0
 10 11  1  0  0  0  0
 10 25  1  0  0  0  0
 10 26  1  0  0  0  0
 11 15  1  0  0  0  0
 11 12  1  0  0  0  0
 11 35  1  0  0  0  0
 12 13  1  0  0  0  0
 12 27  1  0  0  0  0
 12 28  1  0  0  0  0
 13 14  1  0  0  0  0
 13 29  1  0  0  0  0
 13 30  1  0  0  0  0
 14 15  1  0  0  0  0
 14 31  1  0  0  0  0
 14 32  1  0  0  0  0
 15 33  1  0  0  0  0
 15 34  1  0  0  0  0
 16 17  1  0  0  0  0
M  CHG  1   8  -1
M  CHG  1  11   1
M  END
> <s_m_source_file>
AV-unprocessed.smi

> <i_m_source_file_index>
855

> <i_lp_mmshare_version>
43012

> <i_f3d_flags>
0

> <s_epik_input>
W0NIM11jMVtjSF1jKG5vMSlbTkhdQyg9TylbTkhdW0NIMl1bQ0gyXU4yW0NIMl1bQ0gyXVtDSDJdW0NIMl0y

> <s_epik_cmdline>
J2VwaWtfcHl0aG9uJywgJy1waCcsICc3LjAnLCAnLXRuJywgJzgnLCAnLW1hJywgJzIwMCcsICctbWV0YWxfYmluZGluZycsICctaW1hZScsICc8aW5maWxlLm1hZT4nLCAnLW9tYWUnLCAnPG91dGZpbGUubWFlPic=

> <r_epik_Ionization_Penalty>
6.76467

> <r_epik_Ionization_Penalty_Charging>
6.76466

> <r_epik_Ionization_Penalty_Neutral>
5.76722e-06

> <r_epik_State_Penalty>
6.79042

> <r_epik_Charging_Adjusted_Penalty>
13.5551

> <i_epik_Tot_Q>
0

> <i_epik_Tot_abs_Q>
2

> <r_epik_Metal_State_Penalty>
2.72416

> <b_epik_Metal_Only>
1

> <s_lp_Force_Field>
OPLS_2005

> <r_lp_Energy>
21.5232

> <b_lp_Chiralities_Consistent>
1

> <s_lp_Variant>
AV-unprocessed.smi:855-3

> <Gold.Version>
5.8.1

> <Gold.Id.Protein>
6NUR|6NUR_protein|mol2

> <Gold.PLP.Fitness>
39.2112

> <Gold.PLP.PLP>
-29.6844

> <Gold.PLP.part.hbond>
-3.6178

> <Gold.PLP.part.metal>
0.0000

> <Gold.PLP.part.buried>
-4.8523

> <Gold.PLP.part.nonpolar>
-23.9061

> <Gold.PLP.part.repulsive>
1.1029

> <Gold.PLP.ligand.clash>
0.0000

> <Gold.PLP.ligand.torsion>
1.2324

> <Gold.PLP.Chemscore.Hbond>
3.9750

> <Gold.PLP.Chemscore.CHOScore>
0.0000

> <Gold.PLP.Chemscore.Metal>
0.0000

> <Gold.Chemscore.Hbonds>
donor molecule, donor type, donor heavy atom, donor atom, acceptor molecule, acceptor atom, score
      L1  H     5    22       P1  7957  0.99
      L1  H    11    35       P1  7948  2.00
      P1  H  7989  7998       L1    16  0.84

> <Gold.PLP.Chemscore.Internal.Correction>
0.0667

> <Gold.Rescore>
     Score         DG    S(hbond)    S(metal)    S(lipo)     H(rot)  DE(clash)    DE(int)     intcor
     14.52     -16.88       2.89        0.00      49.46       1.57       0.05       2.31       ----

> <Gold.Chemscore.Fitness>
14.5201

> <Gold.Chemscore.DG>
-16.8789

> <Gold.Chemscore.ZeroCoef>
-5.4800

> <Gold.Chemscore.Hbond>
2.8859

> <Gold.Chemscore.Metal>
0.0000

> <Gold.Chemscore.Lipo>
49.4610

> <Gold.Chemscore.Internal_Hbond>
0.0000

> <Gold.Chemscore.DEClash>
0.0504

> <Gold.Chemscore.DEInternal>
2.3084

> <Gold.Chemscore.Rot>
1.5731

> <Gold.Chemscore.Internal.Correction>
   9.000000E+99

> <Gold.Chemscore.Hbonds>
donor molecule, donor type, donor heavy atom, donor atom, acceptor molecule, acceptor atom, score
      L1  H     5    22       P1  7957  0.93
      L1  H    11    35       P1  7948  1.00
      P1  H  7989  7998       L1    16  0.10

> <Gold.Chemscore.Hbond.Weighted>
-9.6390

> <Gold.Chemscore.Metal.Weighted>
-0.0000

> <Gold.Chemscore.Lipo.Weighted>
-5.7869

> <Gold.Chemscore.Internal_Hbond.Weighted>
0.0000

> <Gold.Chemscore.DEClash.Weighted>
0.0504

> <Gold.Chemscore.DEInternal.Weighted>
2.3084

> <Gold.Chemscore.Rot.Weighted>
4.0271

> <Gold.Chemscore.Internal.Correction.Weighted>
   9.000000E+99

> <Gold.Protein.RotatedTorsions>
[ 6907 6896 6895 6894 ] final   37.97 input  -60.11 | X-H torsion
[ 7974 7965 7964 7962 ] final  -92.92 input  175.53 | X-H torsion
[ 8008 7997 7996 7995 ] final -148.21 input   59.86 | X-H torsion
[ 10167 10162 10161 10158 ] final  -94.43 input  -65.29 | X-H torsion
[ 10718 10713 10712 10709 ] final   98.32 input   66.30 | X-H torsion
[ 10763 10752 10751 10750 ] final  -87.37 input  -60.55 | X-H torsion
[ 11005 11000 10999 10996 ] final  161.40 input  -57.11 | X-H torsion

> <Gold.Protein.ActiveResidues>
 VAL166  LYS551  ARG553  GLY616  TRP617  ASP618  TYR619  PRO620  LYS621  CYS622 
 ASP623  PHE694  ASN695  SER759  ASP760  ASP761  ALA762  ILE779  LEU786  VAL792 
 PHE793  MET794  SER795  GLU796  ALA797  LYS798  CYS799  TRP800  GLU811  SER814 

> <Gold.Protein.RotatedAtoms>
  152.1503  134.8993  160.0548 H   0  0  0  0  0  0  0  0  0  0  0  0  # atno 6907 bound_to 6896
  152.0028  133.3827  159.4196 H   0  0  0  0  0  0  0  0  0  0  0  0  # atno 6908 bound_to 6896
  150.6875  134.3737  159.5047 H   0  0  0  0  0  0  0  0  0  0  0  0  # atno 6909 bound_to 6896
  145.3934  140.9530  143.2328 H   0  0  0  0  0  0  0  0  0  0  0  0  # atno 7974 bound_to 7965
  155.5880  140.0650  157.2766 H   0  0  0  0  0  0  0  0  0  0  0  0  # atno 8008 bound_to 7997
  154.4313  140.1840  156.1091 H   0  0  0  0  0  0  0  0  0  0  0  0  # atno 8009 bound_to 7997
  156.0255  140.3312  155.7087 H   0  0  0  0  0  0  0  0  0  0  0  0  # atno 8010 bound_to 7997
  140.3145  143.3085  152.0113 H   0  0  0  0  0  0  0  0  0  0  0  0  # atno 10167 bound_to 10162
  157.6897  131.0636  150.4779 H   0  0  0  0  0  0  0  0  0  0  0  0  # atno 10718 bound_to 10713
  154.6329  135.5415  153.7700 H   0  0  0  0  0  0  0  0  0  0  0  0  # atno 10763 bound_to 10752
  153.0293  135.6440  154.1275 H   0  0  0  0  0  0  0  0  0  0  0  0  # atno 10764 bound_to 10752
  154.1204  135.2921  155.3190 H   0  0  0  0  0  0  0  0  0  0  0  0  # atno 10765 bound_to 10752
  140.2154  134.8236  157.3165 H   0  0  0  0  0  0  0  0  0  0  0  0  # atno 11005 bound_to 11000
  144.8424  139.5450  143.6894 LP  0  0  0  0  0  0  0  0  0  0  0  0  # atno 17320 bound_to 7965
  146.2787  139.6819  142.9245 LP  0  0  0  0  0  0  0  0  0  0  0  0  # atno 17321 bound_to 7965
  139.4887  144.6359  151.6976 LP  0  0  0  0  0  0  0  0  0  0  0  0  # atno 17342 bound_to 10162
  140.5539  144.0380  150.6139 LP  0  0  0  0  0  0  0  0  0  0  0  0  # atno 17343 bound_to 10162
  156.5112  130.4140  149.6300 LP  0  0  0  0  0  0  0  0  0  0  0  0  # atno 17370 bound_to 10713
  156.3238  130.7295  151.2212 LP  0  0  0  0  0  0  0  0  0  0  0  0  # atno 17371 bound_to 10713
  140.1906  134.4377  155.7718 LP  0  0  0  0  0  0  0  0  0  0  0  0  # atno 17394 bound_to 11000
  141.2225  133.7025  156.8020 LP  0  0  0  0  0  0  0  0  0  0  0  0  # atno 17395 bound_to 11000

$$$$
