AV-unprocessed.smi:2725|AV-procd|sdf|10517|dock6
  -GOLD-   2272014553D 1   1.00000     0.00000
 Structure written by MMmdl.
 45 46  0  0  0  0  0  0  0  0  2 V2000
  151.5825  140.1247  155.2363 O   0  0  0  0  0  0  0  0  0  0  0  0
  150.6794  140.2732  156.0602 C   0  0  0  0  0  0  0  0  0  0  0  0
  150.9633  140.8905  157.4331 C   0  0  0  0  0  0  0  0  0  0  0  0
  151.4412  142.3534  157.3559 C   0  0  0  0  0  0  0  0  0  0  0  0
  151.3422  143.0920  158.7024 C   0  0  0  0  0  0  0  0  0  0  0  0
  151.2867  144.6192  158.5885 C   0  0  0  0  0  0  0  0  0  0  0  0
  151.7398  145.1480  159.9554 C   0  0  0  0  0  0  0  0  0  0  0  0
  152.4787  143.9913  160.6450 C   0  0  0  0  0  0  0  0  0  0  0  0
  152.5462  142.8584  159.6171 C   0  0  0  0  0  0  0  0  0  0  0  0
  149.4070  139.9159  155.8266 N   0  0  0  0  0  0  0  0  0  0  0  0
  148.9072  139.3327  154.5830 C   0  0  2  0  0  0  0  0  0  0  0  0
  148.0798  140.4012  153.8387 C   0  0  0  0  0  0  0  0  0  0  0  0
  148.9015  141.4952  153.4913 O   0  0  0  0  0  0  0  0  0  0  0  0
  148.0910  138.0618  154.9144 C   0  0  0  0  0  0  0  0  0  0  0  0
  148.9467  136.8906  155.3637 C   0  0  0  0  0  0  0  0  0  0  0  0
  149.2808  136.6916  156.7209 C   0  0  0  0  0  0  0  0  0  0  0  0
  150.0884  135.5923  157.0790 C   0  0  0  0  0  0  0  0  0  0  0  0
  150.5459  134.7158  156.0731 C   0  0  0  0  0  0  0  0  0  0  0  0
  150.1832  134.9614  154.7332 C   0  0  0  0  0  0  0  0  0  0  0  0
  149.4073  136.0256  154.4305 N   0  3  0  0  0  0  0  0  0  0  0  0
  150.0544  140.8229  158.0314 H   0  0  0  0  0  0  0  0  0  0  0  0
  151.7185  140.2885  157.9408 H   0  0  0  0  0  0  0  0  0  0  0  0
  152.4797  142.3744  157.0218 H   0  0  0  0  0  0  0  0  0  0  0  0
  150.8674  142.8929  156.6009 H   0  0  0  0  0  0  0  0  0  0  0  0
  150.4496  142.7521  159.2303 H   0  0  0  0  0  0  0  0  0  0  0  0
  151.9831  144.9603  157.8214 H   0  0  0  0  0  0  0  0  0  0  0  0
  150.2949  144.9809  158.3152 H   0  0  0  0  0  0  0  0  0  0  0  0
  152.3794  146.0239  159.8422 H   0  0  0  0  0  0  0  0  0  0  0  0
  150.8791  145.4490  160.5538 H   0  0  0  0  0  0  0  0  0  0  0  0
  153.4709  144.2833  160.9907 H   0  0  0  0  0  0  0  0  0  0  0  0
  151.9119  143.6650  161.5178 H   0  0  0  0  0  0  0  0  0  0  0  0
  152.5343  141.8726  160.0830 H   0  0  0  0  0  0  0  0  0  0  0  0
  153.4712  142.9424  159.0444 H   0  0  0  0  0  0  0  0  0  0  0  0
  148.7292  140.0828  156.5561 H   0  0  0  0  0  0  0  0  0  0  0  0
  149.7535  139.0382  153.9583 H   0  0  0  0  0  0  0  0  0  0  0  0
  147.6772  140.0093  152.9060 H   0  0  0  0  0  0  0  0  0  0  0  0
  147.2297  140.7401  154.4322 H   0  0  0  0  0  0  0  0  0  0  0  0
  149.3386  141.2996  152.6763 H   0  0  0  0  0  0  0  0  0  0  0  0
  147.3811  138.2686  155.7166 H   0  0  0  0  0  0  0  0  0  0  0  0
  147.4900  137.7665  154.0529 H   0  0  0  0  0  0  0  0  0  0  0  0
  148.9252  137.3750  157.4788 H   0  0  0  0  0  0  0  0  0  0  0  0
  150.3548  135.4240  158.1123 H   0  0  0  0  0  0  0  0  0  0  0  0
  151.1660  133.8682  156.3260 H   0  0  0  0  0  0  0  0  0  0  0  0
  150.4878  134.3440  153.9007 H   0  0  0  0  0  0  0  0  0  0  0  0
  149.1574  136.1835  153.4542 H   0  0  0  0  0  0  0  0  0  0  0  0
  1  2  2  0  0  0  0
  2  3  1  0  0  0  0
  2 10  1  0  0  0  0
  3  4  1  0  0  0  0
  3 21  1  0  0  0  0
  3 22  1  0  0  0  0
  4  5  1  0  0  0  0
  4 23  1  0  0  0  0
  4 24  1  0  0  0  0
  5  9  1  0  0  0  0
  5  6  1  0  0  0  0
  5 25  1  0  0  0  0
  6  7  1  0  0  0  0
  6 26  1  0  0  0  0
  6 27  1  0  0  0  0
  7  8  1  0  0  0  0
  7 28  1  0  0  0  0
  7 29  1  0  0  0  0
  8  9  1  0  0  0  0
  8 30  1  0  0  0  0
  8 31  1  0  0  0  0
  9 32  1  0  0  0  0
  9 33  1  0  0  0  0
 10 11  1  0  0  0  0
 10 34  1  0  0  0  0
 11 12  1  0  0  0  0
 11 14  1  0  0  0  0
 11 35  1  0  0  0  0
 12 13  1  0  0  0  0
 12 36  1  0  0  0  0
 12 37  1  0  0  0  0
 13 38  1  0  0  0  0
 14 15  1  0  0  0  0
 14 39  1  0  0  0  0
 14 40  1  0  0  0  0
 15 20  1  0  0  0  0
 15 16  2  0  0  0  0
 16 17  1  0  0  0  0
 16 41  1  0  0  0  0
 17 18  2  0  0  0  0
 17 42  1  0  0  0  0
 18 19  1  0  0  0  0
 18 43  1  0  0  0  0
 19 20  2  0  0  0  0
 19 44  1  0  0  0  0
 20 45  1  0  0  0  0
M  CHG  1  20   1
M  END
> <s_m_source_file>
AV-unprocessed.smi

> <i_m_source_file_index>
2725

> <i_lp_mmshare_version>
43012

> <i_f3d_flags>
0

> <s_epik_input>
W0NIMl0xW0NIMl1bQ0gyXVtDSDJdW0NIXTFbQ0gyXVtDSDJdQyg9TylbTkhdW0NASF0oW0NIMl1bT0hdKVtDSDJdYzJbY0hdW2NIXVtjSF1bY0hdbjI=

> <s_epik_cmdline>
J2VwaWtfcHl0aG9uJywgJy1waCcsICc3LjAnLCAnLXRuJywgJzgnLCAnLW1hJywgJzIwMCcsICctbWV0YWxfYmluZGluZycsICctaW1hZScsICc8aW5maWxlLm1hZT4nLCAnLW9tYWUnLCAnPG91dGZpbGUubWFlPic=

> <r_epik_Ionization_Penalty>
1.87189

> <r_epik_Ionization_Penalty_Charging>
1.87189

> <r_epik_Ionization_Penalty_Neutral>
6.79411e-08

> <r_epik_State_Penalty>
1.99097

> <r_epik_Charging_Adjusted_Penalty>
3.86287

> <i_epik_Tot_Q>
1

> <i_epik_Tot_abs_Q>
1

> <r_epik_Metal_State_Penalty>
2.01578

> <b_epik_Metal_Only>
0

> <s_lp_Force_Field>
OPLS_2005

> <r_lp_Energy>
30.4182

> <b_lp_Chiralities_Consistent>
1

> <s_lp_Variant>
AV-unprocessed.smi:2725-3

> <Gold.Version>
5.8.1

> <Gold.Id.Protein>
6NUR|6NUR_protein|mol2

> <Gold.PLP.Fitness>
47.8153

> <Gold.PLP.PLP>
-37.4778

> <Gold.PLP.part.hbond>
-4.4656

> <Gold.PLP.part.metal>
0.0000

> <Gold.PLP.part.buried>
-4.9877

> <Gold.PLP.part.nonpolar>
-27.9821

> <Gold.PLP.part.repulsive>
0.0832

> <Gold.PLP.ligand.clash>
0.0000

> <Gold.PLP.ligand.torsion>
0.8958

> <Gold.PLP.Chemscore.Hbond>
3.9920

> <Gold.PLP.Chemscore.CHOScore>
0.0000

> <Gold.PLP.Chemscore.Metal>
0.0000

> <Gold.Chemscore.Hbonds>
donor molecule, donor type, donor heavy atom, donor atom, acceptor molecule, acceptor atom, score
      L1  H    13    38       P1  7957  0.99
      L1  H    20    45       P1  7948  2.00
      P1  H  7989  7998       L1     1  0.99

> <Gold.PLP.Chemscore.Internal.Correction>
0.1531

> <Gold.Rescore>
     Score         DG    S(hbond)    S(metal)    S(lipo)     H(rot)  DE(clash)    DE(int)     intcor
     19.60     -20.73       2.95        0.00     102.64       2.58       0.18       0.96       ----

> <Gold.Chemscore.Fitness>
19.5953

> <Gold.Chemscore.DG>
-20.7312

> <Gold.Chemscore.ZeroCoef>
-5.4800

> <Gold.Chemscore.Hbond>
2.9461

> <Gold.Chemscore.Metal>
0.0000

> <Gold.Chemscore.Lipo>
102.6419

> <Gold.Chemscore.Internal_Hbond>
0.0000

> <Gold.Chemscore.DEClash>
0.1782

> <Gold.Chemscore.DEInternal>
0.9577

> <Gold.Chemscore.Rot>
2.5773

> <Gold.Chemscore.Internal.Correction>
   9.000000E+99

> <Gold.Chemscore.Hbonds>
donor molecule, donor type, donor heavy atom, donor atom, acceptor molecule, acceptor atom, score
      L1  H    13    38       P1  7957  0.91
      L1  H    20    45       P1  7948  0.91
      P1  H  7989  7998       L1     1  0.93

> <Gold.Chemscore.Hbond.Weighted>
-9.8399

> <Gold.Chemscore.Metal.Weighted>
-0.0000

> <Gold.Chemscore.Lipo.Weighted>
-12.0091

> <Gold.Chemscore.Internal_Hbond.Weighted>
0.0000

> <Gold.Chemscore.DEClash.Weighted>
0.1782

> <Gold.Chemscore.DEInternal.Weighted>
0.9577

> <Gold.Chemscore.Rot.Weighted>
6.5978

> <Gold.Chemscore.Internal.Correction.Weighted>
   9.000000E+99

> <Gold.Protein.RotatedTorsions>
[ 6907 6896 6895 6894 ] final  -51.37 input  -60.11 | X-H torsion
[ 7974 7965 7964 7962 ] final   92.13 input  175.53 | X-H torsion
[ 8008 7997 7996 7995 ] final  129.21 input   59.86 | X-H torsion
[ 10167 10162 10161 10158 ] final -119.33 input  -65.29 | X-H torsion
[ 10718 10713 10712 10709 ] final  152.31 input   66.30 | X-H torsion
[ 10763 10752 10751 10750 ] final   60.58 input  -60.55 | X-H torsion
[ 11005 11000 10999 10996 ] final  -27.61 input  -57.11 | X-H torsion

> <Gold.Protein.ActiveResidues>
 VAL166  LYS551  ARG553  GLY616  TRP617  ASP618  TYR619  PRO620  LYS621  CYS622 
 ASP623  PHE694  ASN695  SER759  ASP760  ASP761  ALA762  ILE779  LEU786  VAL792 
 PHE793  MET794  SER795  GLU796  ALA797  LYS798  CYS799  TRP800  GLU811  SER814 

> <Gold.Protein.RotatedAtoms>
  150.8618  134.7971  159.7088 H   0  0  0  0  0  0  0  0  0  0  0  0  # atno 6907 bound_to 6896
  152.4652  134.5088  159.9757 H   0  0  0  0  0  0  0  0  0  0  0  0  # atno 6908 bound_to 6896
  151.5191  133.3432  159.2934 H   0  0  0  0  0  0  0  0  0  0  0  0  # atno 6909 bound_to 6896
  145.4964  139.2276  143.2801 H   0  0  0  0  0  0  0  0  0  0  0  0  # atno 7974 bound_to 7965
  156.2931  140.2626  156.2562 H   0  0  0  0  0  0  0  0  0  0  0  0  # atno 8008 bound_to 7997
  154.9834  140.0389  157.2306 H   0  0  0  0  0  0  0  0  0  0  0  0  # atno 8009 bound_to 7997
  154.7751  140.2785  155.6112 H   0  0  0  0  0  0  0  0  0  0  0  0  # atno 8010 bound_to 7997
  140.0478  143.5090  152.2097 H   0  0  0  0  0  0  0  0  0  0  0  0  # atno 10167 bound_to 10162
  157.2594  131.0795  151.1676 H   0  0  0  0  0  0  0  0  0  0  0  0  # atno 10718 bound_to 10713
  152.9925  135.5531  154.5897 H   0  0  0  0  0  0  0  0  0  0  0  0  # atno 10763 bound_to 10752
  154.5261  135.2810  155.1223 H   0  0  0  0  0  0  0  0  0  0  0  0  # atno 10764 bound_to 10752
  154.2557  135.6390  153.5309 H   0  0  0  0  0  0  0  0  0  0  0  0  # atno 10765 bound_to 10752
  140.9135  133.7445  156.0703 H   0  0  0  0  0  0  0  0  0  0  0  0  # atno 11005 bound_to 11000
  146.2253  140.5761  142.8999 LP  0  0  0  0  0  0  0  0  0  0  0  0  # atno 17320 bound_to 7965
  144.7805  140.5830  143.6609 LP  0  0  0  0  0  0  0  0  0  0  0  0  # atno 17321 bound_to 7965
  139.5972  144.7571  151.3257 LP  0  0  0  0  0  0  0  0  0  0  0  0  # atno 17342 bound_to 10162
  140.7231  143.7081  150.7791 LP  0  0  0  0  0  0  0  0  0  0  0  0  # atno 17343 bound_to 10162
  157.3191  130.6928  149.6259 LP  0  0  0  0  0  0  0  0  0  0  0  0  # atno 17370 bound_to 10713
  155.9664  130.4340  150.5033 LP  0  0  0  0  0  0  0  0  0  0  0  0  # atno 17371 bound_to 10713
  140.8080  134.3432  157.5420 LP  0  0  0  0  0  0  0  0  0  0  0  0  # atno 17394 bound_to 11000
  139.8762  134.9237  156.3331 LP  0  0  0  0  0  0  0  0  0  0  0  0  # atno 17395 bound_to 11000

$$$$
