AV-unprocessed.smi:1036|AV-procd|sdf|4517|dock7
  -GOLD-   22720 2533D 1   1.00000     0.00000
 Structure written by MMmdl.
 42 44  0  0  0  0  0  0  0  0  2 V2000
  148.8449  140.0298  153.7343 O   0  0  0  0  0  0  0  0  0  0  0  0
  149.1581  141.2867  154.2952 C   0  0  0  0  0  0  0  0  0  0  0  0
  148.7652  141.3103  155.7778 C   0  0  0  0  0  0  0  0  0  0  0  0
  149.8788  140.9362  156.6349 N   0  0  0  0  0  0  0  0  0  0  0  0
  150.4051  141.8848  157.5178 C   0  0  0  0  0  0  0  0  0  0  0  0
  150.0951  143.2087  157.5453 N   0  3  0  0  0  0  0  0  0  0  0  0
  150.8264  143.8103  158.5738 C   0  0  0  0  0  0  0  0  0  0  0  0
  150.8626  145.1310  159.0102 C   0  0  0  0  0  0  0  0  0  0  0  0
  151.7182  145.4169  160.0943 C   0  0  0  0  0  0  0  0  0  0  0  0
  152.4972  144.4108  160.7022 C   0  0  0  0  0  0  0  0  0  0  0  0
  152.4559  143.0746  160.2527 C   0  0  0  0  0  0  0  0  0  0  0  0
  151.6080  142.7979  159.1809 C   0  0  0  0  0  0  0  0  0  0  0  0
  151.3157  141.6161  158.4892 N   0  0  0  0  0  0  0  0  0  0  0  0
  151.9723  140.3608  158.8832 C   0  0  0  0  0  0  0  0  0  0  0  0
  152.2735  139.4417  157.6835 C   0  0  1  0  0  0  0  0  0  0  0  0
  153.6218  139.0144  157.7384 O   0  0  0  0  0  0  0  0  0  0  0  0
  151.2884  138.2823  157.6219 C   0  0  0  0  0  0  0  0  0  0  0  0
  150.4801  137.9633  158.7364 C   0  0  0  0  0  0  0  0  0  0  0  0
  149.5626  136.8970  158.6688 C   0  0  0  0  0  0  0  0  0  0  0  0
  148.7927  136.5973  159.7416 F   0  0  0  0  0  0  0  0  0  0  0  0
  149.4436  136.1442  157.4855 C   0  0  0  0  0  0  0  0  0  0  0  0
  150.2394  136.4613  156.3685 C   0  0  0  0  0  0  0  0  0  0  0  0
  151.1571  137.5280  156.4337 C   0  0  0  0  0  0  0  0  0  0  0  0
  151.9075  137.8272  155.3459 F   0  0  0  0  0  0  0  0  0  0  0  0
  149.3774  139.9028  152.9638 H   0  0  0  0  0  0  0  0  0  0  0  0
  150.2137  141.5205  154.1507 H   0  0  0  0  0  0  0  0  0  0  0  0
  148.5852  142.0395  153.7526 H   0  0  0  0  0  0  0  0  0  0  0  0
  148.4679  142.3241  156.0485 H   0  0  0  0  0  0  0  0  0  0  0  0
  147.9040  140.6660  155.9618 H   0  0  0  0  0  0  0  0  0  0  0  0
  150.1115  139.9593  156.7445 H   0  0  0  0  0  0  0  0  0  0  0  0
  150.2669  145.9044  158.5477 H   0  0  0  0  0  0  0  0  0  0  0  0
  151.7776  146.4290  160.4679 H   0  0  0  0  0  0  0  0  0  0  0  0
  153.1404  144.6689  161.5310 H   0  0  0  0  0  0  0  0  0  0  0  0
  153.0558  142.3112  160.7262 H   0  0  0  0  0  0  0  0  0  0  0  0
  152.8937  140.6159  159.4083 H   0  0  0  0  0  0  0  0  0  0  0  0
  151.3356  139.8560  159.6108 H   0  0  0  0  0  0  0  0  0  0  0  0
  152.1788  140.0177  156.7625 H   0  0  0  0  0  0  0  0  0  0  0  0
  153.9276  139.0979  158.6289 H   0  0  0  0  0  0  0  0  0  0  0  0
  150.5558  138.5368  159.6486 H   0  0  0  0  0  0  0  0  0  0  0  0
  148.7396  135.3267  157.4333 H   0  0  0  0  0  0  0  0  0  0  0  0
  150.1436  135.8872  155.4589 H   0  0  0  0  0  0  0  0  0  0  0  0
  149.4393  143.6578  156.9196 H   0  0  0  0  0  0  0  0  0  0  0  0
  1  2  1  0  0  0  0
  1 25  1  0  0  0  0
  2  3  1  0  0  0  0
  2 26  1  0  0  0  0
  2 27  1  0  0  0  0
  3  4  1  0  0  0  0
  3 28  1  0  0  0  0
  3 29  1  0  0  0  0
  4  5  1  0  0  0  0
  4 30  1  0  0  0  0
  5 13  1  0  0  0  0
  5  6  2  0  0  0  0
  6  7  1  0  0  0  0
  6 42  1  0  0  0  0
  7 12  2  0  0  0  0
  7  8  1  0  0  0  0
  8  9  2  0  0  0  0
  8 31  1  0  0  0  0
  9 10  1  0  0  0  0
  9 32  1  0  0  0  0
 10 11  2  0  0  0  0
 10 33  1  0  0  0  0
 11 12  1  0  0  0  0
 11 34  1  0  0  0  0
 12 13  1  0  0  0  0
 13 14  1  0  0  0  0
 14 15  1  0  0  0  0
 14 35  1  0  0  0  0
 14 36  1  0  0  0  0
 15 16  1  0  0  0  0
 15 17  1  0  0  0  0
 15 37  1  0  0  0  0
 16 38  1  0  0  0  0
 17 23  1  0  0  0  0
 17 18  2  0  0  0  0
 18 19  1  0  0  0  0
 18 39  1  0  0  0  0
 19 20  1  0  0  0  0
 19 21  2  0  0  0  0
 21 22  1  0  0  0  0
 21 40  1  0  0  0  0
 22 23  2  0  0  0  0
 22 41  1  0  0  0  0
 23 24  1  0  0  0  0
M  CHG  1   6   1
M  END
> <s_m_source_file>
AV-unprocessed.smi

> <i_m_source_file_index>
1036

> <i_lp_mmshare_version>
43012

> <i_f3d_flags>
0

> <s_epik_input>
W09IXVtDSDJdW0NIMl1bTkhdYyhuMSluKGMoYzEyKVtjSF1bY0hdW2NIXVtjSF0yKVtDSDJdW0NASF0oW09IXSljM1tjSF1jKEYpW2NIXVtjSF1jM0Y=

> <s_epik_cmdline>
J2VwaWtfcHl0aG9uJywgJy1waCcsICc3LjAnLCAnLXRuJywgJzgnLCAnLW1hJywgJzIwMCcsICctbWV0YWxfYmluZGluZycsICctaW1hZScsICc8aW5maWxlLm1hZT4nLCAnLW9tYWUnLCAnPG91dGZpbGUubWFlPic=

> <r_epik_Ionization_Penalty>
0.0688114

> <r_epik_Ionization_Penalty_Charging>
0.0688055

> <r_epik_Ionization_Penalty_Neutral>
5.85933e-06

> <r_epik_State_Penalty>
0.0602293

> <r_epik_Charging_Adjusted_Penalty>
0.129035

> <i_epik_Tot_Q>
1

> <i_epik_Tot_abs_Q>
1

> <r_epik_Metal_State_Penalty>
2.77411

> <b_epik_Metal_Only>
0

> <s_lp_Force_Field>
OPLS_2005

> <r_lp_Energy>
24.5331

> <b_lp_Chiralities_Consistent>
1

> <s_lp_Variant>
AV-unprocessed.smi:1036-2

> <Gold.Version>
5.8.1

> <Gold.Id.Protein>
6NUR|6NUR_protein|mol2

> <Gold.PLP.Fitness>
52.3683

> <Gold.PLP.PLP>
-43.5064

> <Gold.PLP.part.hbond>
-3.0000

> <Gold.PLP.part.metal>
0.0000

> <Gold.PLP.part.buried>
-7.2390

> <Gold.PLP.part.nonpolar>
-32.8147

> <Gold.PLP.part.repulsive>
0.0485

> <Gold.PLP.ligand.clash>
0.0000

> <Gold.PLP.ligand.torsion>
1.5829

> <Gold.PLP.Chemscore.Hbond>
4.0000

> <Gold.PLP.Chemscore.CHOScore>
0.0000

> <Gold.PLP.Chemscore.Metal>
0.0000

> <Gold.Chemscore.Hbonds>
donor molecule, donor type, donor heavy atom, donor atom, acceptor molecule, acceptor atom, score
      L1  H     1    25       P1  7957  1.00
      L1  H     6    42       P1  8028  2.00
      P1  H  7997  8008       L1    16  1.00

> <Gold.PLP.Chemscore.Internal.Correction>
0.0277

> <Gold.Rescore>
     Score         DG    S(hbond)    S(metal)    S(lipo)     H(rot)  DE(clash)    DE(int)     intcor
     17.04     -18.53       2.65        0.00     107.70       3.29       0.03       1.46       ----

> <Gold.Chemscore.Fitness>
17.0416

> <Gold.Chemscore.DG>
-18.5314

> <Gold.Chemscore.ZeroCoef>
-5.4800

> <Gold.Chemscore.Hbond>
2.6545

> <Gold.Chemscore.Metal>
0.0000

> <Gold.Chemscore.Lipo>
107.7028

> <Gold.Chemscore.Internal_Hbond>
0.0000

> <Gold.Chemscore.DEClash>
0.0329

> <Gold.Chemscore.DEInternal>
1.4568

> <Gold.Chemscore.Rot>
3.2874

> <Gold.Chemscore.Internal.Correction>
   9.000000E+99

> <Gold.Chemscore.Hbonds>
donor molecule, donor type, donor heavy atom, donor atom, acceptor molecule, acceptor atom, score
      L1  H     1    25       P1  7957  0.94
      L1  H     6    42       P1  8028  0.90
      P1  H  7997  8008       L1    16  0.35

> <Gold.Chemscore.Hbond.Weighted>
-8.8659

> <Gold.Chemscore.Metal.Weighted>
-0.0000

> <Gold.Chemscore.Lipo.Weighted>
-12.6012

> <Gold.Chemscore.Internal_Hbond.Weighted>
0.0000

> <Gold.Chemscore.DEClash.Weighted>
0.0329

> <Gold.Chemscore.DEInternal.Weighted>
1.4568

> <Gold.Chemscore.Rot.Weighted>
8.4158

> <Gold.Chemscore.Internal.Correction.Weighted>
   9.000000E+99

> <Gold.Protein.RotatedTorsions>
[ 6907 6896 6895 6894 ] final  -38.32 input  -60.11 | X-H torsion
[ 7974 7965 7964 7962 ] final -109.74 input  175.53 | X-H torsion
[ 8008 7997 7996 7995 ] final  -69.75 input   59.86 | X-H torsion
[ 10167 10162 10161 10158 ] final    7.15 input  -65.29 | X-H torsion
[ 10718 10713 10712 10709 ] final  174.30 input   66.30 | X-H torsion
[ 10763 10752 10751 10750 ] final  126.41 input  -60.55 | X-H torsion
[ 11005 11000 10999 10996 ] final  142.93 input  -57.11 | X-H torsion

> <Gold.Protein.ActiveResidues>
 VAL166  LYS551  ARG553  GLY616  TRP617  ASP618  TYR619  PRO620  LYS621  CYS622 
 ASP623  PHE694  ASN695  SER759  ASP760  ASP761  ALA762  ILE779  LEU786  VAL792 
 PHE793  MET794  SER795  GLU796  ALA797  LYS798  CYS799  TRP800  GLU811  SER814 

> <Gold.Protein.RotatedAtoms>
  151.0039  134.9344  159.7968 H   0  0  0  0  0  0  0  0  0  0  0  0  # atno 6907 bound_to 6896
  152.5285  134.3118  159.9126 H   0  0  0  0  0  0  0  0  0  0  0  0  # atno 6908 bound_to 6896
  151.3123  133.4033  159.2682 H   0  0  0  0  0  0  0  0  0  0  0  0  # atno 6909 bound_to 6896
  145.1767  140.8952  143.3503 H   0  0  0  0  0  0  0  0  0  0  0  0  # atno 7974 bound_to 7965
  154.4961  140.0847  156.7699 H   0  0  0  0  0  0  0  0  0  0  0  0  # atno 8008 bound_to 7997
  155.4113  140.3441  155.4246 H   0  0  0  0  0  0  0  0  0  0  0  0  # atno 8009 bound_to 7997
  156.1395  140.1525  156.8930 H   0  0  0  0  0  0  0  0  0  0  0  0  # atno 8010 bound_to 7997
  140.6388  143.7823  150.7398 H   0  0  0  0  0  0  0  0  0  0  0  0  # atno 10167 bound_to 10162
  156.9516  131.0033  151.2947 H   0  0  0  0  0  0  0  0  0  0  0  0  # atno 10718 bound_to 10713
  153.6928  135.3296  155.3206 H   0  0  0  0  0  0  0  0  0  0  0  0  # atno 10763 bound_to 10752
  154.8435  135.4436  154.1490 H   0  0  0  0  0  0  0  0  0  0  0  0  # atno 10764 bound_to 10752
  153.2537  135.6984  153.7730 H   0  0  0  0  0  0  0  0  0  0  0  0  # atno 10765 bound_to 10752
  140.0515  134.9253  157.1025 H   0  0  0  0  0  0  0  0  0  0  0  0  # atno 11005 bound_to 11000
  145.0177  139.3452  143.6088 LP  0  0  0  0  0  0  0  0  0  0  0  0  # atno 17320 bound_to 7965
  146.3460  139.9465  142.8734 LP  0  0  0  0  0  0  0  0  0  0  0  0  # atno 17321 bound_to 7965
  140.1450  143.4408  152.2169 LP  0  0  0  0  0  0  0  0  0  0  0  0  # atno 17342 bound_to 10162
  139.5598  144.7397  151.4189 LP  0  0  0  0  0  0  0  0  0  0  0  0  # atno 17343 bound_to 10162
  157.5718  130.8316  149.8402 LP  0  0  0  0  0  0  0  0  0  0  0  0  # atno 17370 bound_to 10713
  156.0360  130.3751  150.1558 LP  0  0  0  0  0  0  0  0  0  0  0  0  # atno 17371 bound_to 10713
  140.3910  134.2184  155.7166 LP  0  0  0  0  0  0  0  0  0  0  0  0  # atno 17394 bound_to 11000
  141.1932  133.8155  157.0807 LP  0  0  0  0  0  0  0  0  0  0  0  0  # atno 17395 bound_to 11000

$$$$
