AV-unprocessed.smi:46|AV-procd|sdf|421|dock5
  -GOLD-   2262016303D 1   1.00000     0.00000
 Structure written by MMmdl.
 35 36  0  0  0  0  0  0  0  0  2 V2000
  152.5845  144.5438  158.2917 C   0  0  0  0  0  0  0  0  0  0  0  0
  151.8388  143.4316  159.0455 C   0  0  0  0  0  0  0  0  0  0  0  0
  152.7947  142.5407  159.8518 C   0  0  0  0  0  0  0  0  0  0  0  0
  151.0354  142.6303  158.1344 N   0  0  0  0  0  0  0  0  0  0  0  0
  151.0184  142.6450  156.7552 C   0  0  0  0  0  0  0  0  0  0  0  0
  150.1123  141.7084  156.3381 C   0  0  0  0  0  0  0  0  0  0  0  0
  149.6857  141.3209  154.9373 C   0  0  2  0  0  0  0  0  0  0  0  0
  148.1899  141.5389  154.6807 C   0  0  0  0  0  0  0  0  0  0  0  0
  147.5110  140.3067  155.1215 N   0  3  0  0  0  0  0  0  0  0  0  0
  148.5100  139.2200  155.1627 C   0  0  0  0  0  0  0  0  0  0  0  0
  149.8331  139.8136  154.6526 C   0  0  2  0  0  0  0  0  0  0  0  0
  151.0788  139.1086  155.2257 C   0  0  0  0  0  0  0  0  0  0  0  0
  152.2512  139.7281  154.7418 O   0  0  0  0  0  0  0  0  0  0  0  0
  149.6345  141.1553  157.5603 C   0  0  0  0  0  0  0  0  0  0  0  0
  150.1876  141.7040  158.6281 N   0  0  0  0  0  0  0  0  0  0  0  0
  150.2666  141.8907  154.2106 H   0  0  0  0  0  0  0  0  0  0  0  0
  149.8369  139.6868  153.5681 H   0  0  0  0  0  0  0  0  0  0  0  0
  153.1317  145.1840  158.9839 H   0  0  0  0  0  0  0  0  0  0  0  0
  151.8894  145.1764  157.7387 H   0  0  0  0  0  0  0  0  0  0  0  0
  153.3040  144.1361  157.5810 H   0  0  0  0  0  0  0  0  0  0  0  0
  151.1607  143.9142  159.7519 H   0  0  0  0  0  0  0  0  0  0  0  0
  153.3592  143.1285  160.5760 H   0  0  0  0  0  0  0  0  0  0  0  0
  153.5111  142.0343  159.2042 H   0  0  0  0  0  0  0  0  0  0  0  0
  152.2459  141.7772  160.4042 H   0  0  0  0  0  0  0  0  0  0  0  0
  151.6446  143.3199  156.1909 H   0  0  0  0  0  0  0  0  0  0  0  0
  147.7894  142.4313  155.1630 H   0  0  0  0  0  0  0  0  0  0  0  0
  148.0171  141.6388  153.6082 H   0  0  0  0  0  0  0  0  0  0  0  0
  147.1437  140.4428  156.0524 H   0  0  0  0  0  0  0  0  0  0  0  0
  148.6046  138.8845  156.1962 H   0  0  0  0  0  0  0  0  0  0  0  0
  148.1889  138.3679  154.5630 H   0  0  0  0  0  0  0  0  0  0  0  0
  151.0856  139.1149  156.3161 H   0  0  0  0  0  0  0  0  0  0  0  0
  151.0916  138.0629  154.9166 H   0  0  0  0  0  0  0  0  0  0  0  0
  152.9984  139.3400  155.1718 H   0  0  0  0  0  0  0  0  0  0  0  0
  148.8996  140.3764  157.7010 H   0  0  0  0  0  0  0  0  0  0  0  0
  146.7574  140.0787  154.4888 H   0  0  0  0  0  0  0  0  0  0  0  0
  1  2  1  0  0  0  0
  1 18  1  0  0  0  0
  1 19  1  0  0  0  0
  1 20  1  0  0  0  0
  2  3  1  0  0  0  0
  2  4  1  0  0  0  0
  2 21  1  0  0  0  0
  3 22  1  0  0  0  0
  3 23  1  0  0  0  0
  3 24  1  0  0  0  0
  4 15  1  0  0  0  0
  4  5  1  0  0  0  0
  5  6  2  0  0  0  0
  5 25  1  0  0  0  0
  6  7  1  0  0  0  0
  6 14  1  0  0  0  0
  7 16  1  0  0  0  0
  7 11  1  0  0  0  0
  7  8  1  0  0  0  0
  8  9  1  0  0  0  0
  8 26  1  0  0  0  0
  8 27  1  0  0  0  0
  9 10  1  0  0  0  0
  9 28  1  0  0  0  0
  9 35  1  0  0  0  0
 10 11  1  0  0  0  0
 10 29  1  0  0  0  0
 10 30  1  0  0  0  0
 11 17  1  0  0  0  0
 11 12  1  0  0  0  0
 12 13  1  0  0  0  0
 12 31  1  0  0  0  0
 12 32  1  0  0  0  0
 13 33  1  0  0  0  0
 14 15  2  0  0  0  0
 14 34  1  0  0  0  0
M  CHG  1   9   1
M  END
> <s_m_source_file>
AV-unprocessed.smi

> <i_m_source_file_index>
46

> <i_lp_mmshare_version>
43012

> <i_f3d_flags>
0

> <s_epik_input>
W0NIM11bQ0hdKFtDSDNdKW4xW2NIXWMoW2NIXW4xKVtDQEBIXTJbQ0gyXVtOSF1bQ0gyXVtDQEhdMltDSDJdW09IXQ==

> <s_epik_cmdline>
J2VwaWtfcHl0aG9uJywgJy1waCcsICc3LjAnLCAnLXRuJywgJzgnLCAnLW1hJywgJzIwMCcsICctbWV0YWxfYmluZGluZycsICctaW1hZScsICc8aW5maWxlLm1hZT4nLCAnLW9tYWUnLCAnPG91dGZpbGUubWFlPic=

> <r_lp_tautomer_probability>
1

> <r_epik_Ionization_Penalty>
0.000236226

> <r_epik_Ionization_Penalty_Charging>
0.00021985

> <r_epik_Ionization_Penalty_Neutral>
1.63752e-05

> <r_epik_State_Penalty>
-0

> <r_epik_Charging_Adjusted_Penalty>
0.00021985

> <i_epik_Tot_Q>
1

> <i_epik_Tot_abs_Q>
1

> <r_epik_Metal_State_Penalty>
-0

> <b_epik_Metal_Only>
0

> <s_lp_Force_Field>
OPLS_2005

> <r_lp_Energy>
33.6612

> <b_lp_Chiralities_Consistent>
1

> <s_lp_Variant>
AV-unprocessed.smi:46-3

> <Gold.Version>
5.8.1

> <Gold.Id.Protein>
6NUR|6NUR_protein|mol2

> <Gold.PLP.Fitness>
35.3339

> <Gold.PLP.PLP>
-33.2502

> <Gold.PLP.part.hbond>
-1.1658

> <Gold.PLP.part.metal>
0.0000

> <Gold.PLP.part.buried>
-2.7589

> <Gold.PLP.part.nonpolar>
-29.7449

> <Gold.PLP.part.repulsive>
0.0283

> <Gold.PLP.ligand.clash>
0.0000

> <Gold.PLP.ligand.torsion>
0.1147

> <Gold.PLP.Chemscore.Hbond>
0.7520

> <Gold.PLP.Chemscore.CHOScore>
0.0000

> <Gold.PLP.Chemscore.Metal>
0.0000

> <Gold.Chemscore.Hbonds>
donor molecule, donor type, donor heavy atom, donor atom, acceptor molecule, acceptor atom, score
      P1  H  7989  7998       L1    13  0.74

> <Gold.PLP.Chemscore.Internal.Correction>
0.0571

> <Gold.Rescore>
     Score         DG    S(hbond)    S(metal)    S(lipo)     H(rot)  DE(clash)    DE(int)     intcor
     13.62     -13.86       0.89        0.00      87.78       1.90       0.10       0.14       ----

> <Gold.Chemscore.Fitness>
13.6204

> <Gold.Chemscore.DG>
-13.8607

> <Gold.Chemscore.ZeroCoef>
-5.4800

> <Gold.Chemscore.Hbond>
0.8888

> <Gold.Chemscore.Metal>
0.0000

> <Gold.Chemscore.Lipo>
87.7764

> <Gold.Chemscore.Internal_Hbond>
0.0000

> <Gold.Chemscore.DEClash>
0.1000

> <Gold.Chemscore.DEInternal>
0.1404

> <Gold.Chemscore.Rot>
1.8976

> <Gold.Chemscore.Internal.Correction>
   9.000000E+99

> <Gold.Chemscore.Hbonds>
donor molecule, donor type, donor heavy atom, donor atom, acceptor molecule, acceptor atom, score
      P1  H  7989  7998       L1    13  0.37

> <Gold.Chemscore.Hbond.Weighted>
-2.9687

> <Gold.Chemscore.Metal.Weighted>
-0.0000

> <Gold.Chemscore.Lipo.Weighted>
-10.2698

> <Gold.Chemscore.Internal_Hbond.Weighted>
0.0000

> <Gold.Chemscore.DEClash.Weighted>
0.1000

> <Gold.Chemscore.DEInternal.Weighted>
0.1404

> <Gold.Chemscore.Rot.Weighted>
4.8579

> <Gold.Chemscore.Internal.Correction.Weighted>
   9.000000E+99

> <Gold.Protein.RotatedTorsions>
[ 6907 6896 6895 6894 ] final  103.23 input  -60.11 | X-H torsion
[ 7974 7965 7964 7962 ] final -164.92 input  175.53 | X-H torsion
[ 8008 7997 7996 7995 ] final  -31.75 input   59.86 | X-H torsion
[ 10167 10162 10161 10158 ] final -124.46 input  -65.29 | X-H torsion
[ 10718 10713 10712 10709 ] final   42.49 input   66.30 | X-H torsion
[ 10763 10752 10751 10750 ] final  -56.20 input  -60.55 | X-H torsion
[ 11005 11000 10999 10996 ] final  -13.51 input  -57.11 | X-H torsion

> <Gold.Protein.ActiveResidues>
 VAL166  LYS551  ARG553  GLY616  TRP617  ASP618  TYR619  PRO620  LYS621  CYS622 
 ASP623  PHE694  ASN695  SER759  ASP760  ASP761  ALA762  ILE779  LEU786  VAL792 
 PHE793  MET794  SER795  GLU796  ALA797  LYS798  CYS799  TRP800  GLU811  SER814 

> <Gold.Protein.RotatedAtoms>
  152.5301  133.9856  159.7826 H   0  0  0  0  0  0  0  0  0  0  0  0  # atno 6907 bound_to 6896
  151.0102  133.5965  159.2691 H   0  0  0  0  0  0  0  0  0  0  0  0  # atno 6908 bound_to 6896
  151.3042  135.0783  159.9302 H   0  0  0  0  0  0  0  0  0  0  0  0  # atno 6909 bound_to 6896
  144.7284  140.2891  143.6223 H   0  0  0  0  0  0  0  0  0  0  0  0  # atno 7974 bound_to 7965
  154.4203  140.1756  156.1617 H   0  0  0  0  0  0  0  0  0  0  0  0  # atno 8008 bound_to 7997
  155.9833  140.3375  155.6659 H   0  0  0  0  0  0  0  0  0  0  0  0  # atno 8009 bound_to 7997
  155.6471  140.0686  157.2590 H   0  0  0  0  0  0  0  0  0  0  0  0  # atno 8010 bound_to 7997
  139.9926  143.5625  152.2336 H   0  0  0  0  0  0  0  0  0  0  0  0  # atno 10167 bound_to 10162
  157.4053  130.7883  149.7384 H   0  0  0  0  0  0  0  0  0  0  0  0  # atno 10718 bound_to 10713
  154.2029  135.6408  153.5092 H   0  0  0  0  0  0  0  0  0  0  0  0  # atno 10763 bound_to 10752
  153.0008  135.5455  154.6297 H   0  0  0  0  0  0  0  0  0  0  0  0  # atno 10764 bound_to 10752
  154.5714  135.2917  155.0797 H   0  0  0  0  0  0  0  0  0  0  0  0  # atno 10765 bound_to 10752
  140.7768  133.8394  155.9256 H   0  0  0  0  0  0  0  0  0  0  0  0  # atno 11005 bound_to 11000
  145.7873  139.1914  143.2123 LP  0  0  0  0  0  0  0  0  0  0  0  0  # atno 17320 bound_to 7965
  146.0784  140.7791  142.9653 LP  0  0  0  0  0  0  0  0  0  0  0  0  # atno 17321 bound_to 7965
  139.6329  144.7646  151.2498 LP  0  0  0  0  0  0  0  0  0  0  0  0  # atno 17342 bound_to 10162
  140.7449  143.6448  150.8302 LP  0  0  0  0  0  0  0  0  0  0  0  0  # atno 17343 bound_to 10162
  155.9835  130.4000  150.3361 LP  0  0  0  0  0  0  0  0  0  0  0  0  # atno 17370 bound_to 10713
  157.1493  131.0317  151.2892 LP  0  0  0  0  0  0  0  0  0  0  0  0  # atno 17371 bound_to 10713
  140.9521  134.1766  157.4720 LP  0  0  0  0  0  0  0  0  0  0  0  0  # atno 17394 bound_to 11000
  139.8748  134.9913  156.5542 LP  0  0  0  0  0  0  0  0  0  0  0  0  # atno 17395 bound_to 11000

$$$$
