AV-unprocessed.smi:1047|AV-procd|sdf|4584|dock1
  -GOLD-   22720 3 53D 1   1.00000     0.00000
 Structure written by MMmdl.
 58 60  0  0  0  0  0  0  0  0  4 V2000
  147.3725  128.7944  151.9040 C   0  0  0  0  0  0  0  0  0  0  0  0
  148.0743  129.5587  153.0356 C   0  0  0  0  0  0  0  0  0  0  0  0
  148.2259  131.0053  152.7374 N   0  3  1  0  0  0  0  0  0  0  0  0
  146.9433  131.6355  152.3442 C   0  0  0  0  0  0  0  0  0  0  0  0
  147.1557  133.1159  151.9866 C   0  0  0  0  0  0  0  0  0  0  0  0
  147.7411  133.7968  153.0900 O   0  0  0  0  0  0  0  0  0  0  0  0
  149.0120  133.2603  153.4418 C   0  0  1  0  0  0  0  0  0  0  0  0
  149.6273  134.1298  154.5520 C   0  0  0  0  0  0  0  0  0  0  0  0
  149.4342  135.5730  154.2997 N   0  3  0  0  0  0  0  0  0  0  0  0
  150.5279  136.4275  154.8043 C   0  0  0  0  0  0  0  0  0  0  0  0
  150.0358  137.8568  155.0877 C   0  0  1  0  0  0  0  0  0  0  0  0
  149.2691  137.8422  156.2764 O   0  0  0  0  0  0  0  0  0  0  0  0
  151.2084  138.8466  155.2371 C   0  0  0  0  0  0  0  0  0  0  0  0
  150.7702  140.2166  155.5434 N   0  0  0  0  0  0  0  0  0  0  0  0
  149.9450  141.0412  154.8419 C   0  0  0  0  0  0  0  0  0  0  0  0
  149.8545  142.2138  155.5282 N   0  3  0  0  0  0  0  0  0  0  0  0
  150.6342  142.1391  156.6840 C   0  0  0  0  0  0  0  0  0  0  0  0
  150.8594  143.0703  157.6907 C   0  0  0  0  0  0  0  0  0  0  0  0
  151.7128  142.6832  158.7483 C   0  0  0  0  0  0  0  0  0  0  0  0
  151.9777  143.6764  159.8670 C   0  0  0  0  0  0  0  0  0  0  0  0
  152.3105  141.3966  158.7702 C   0  0  0  0  0  0  0  0  0  0  0  0
  153.2224  140.9896  159.9151 C   0  0  0  0  0  0  0  0  0  0  0  0
  152.0721  140.4651  157.7345 C   0  0  0  0  0  0  0  0  0  0  0  0
  151.2267  140.8611  156.7003 C   0  0  0  0  0  0  0  0  0  0  0  0
  148.8646  131.7745  153.8345 C   0  0  0  0  0  0  0  0  0  0  0  0
  147.1973  127.7581  152.1945 H   0  0  0  0  0  0  0  0  0  0  0  0
  147.9672  128.7758  150.9912 H   0  0  0  0  0  0  0  0  0  0  0  0
  146.4047  129.2381  151.6689 H   0  0  0  0  0  0  0  0  0  0  0  0
  147.4730  129.4428  153.9385 H   0  0  0  0  0  0  0  0  0  0  0  0
  149.0470  129.1152  153.2534 H   0  0  0  0  0  0  0  0  0  0  0  0
  146.5199  131.1107  151.4868 H   0  0  0  0  0  0  0  0  0  0  0  0
  146.2250  131.5471  153.1609 H   0  0  0  0  0  0  0  0  0  0  0  0
  147.7877  133.2170  151.1029 H   0  0  0  0  0  0  0  0  0  0  0  0
  146.2011  133.5856  151.7494 H   0  0  0  0  0  0  0  0  0  0  0  0
  149.6669  133.3279  152.5709 H   0  0  0  0  0  0  0  0  0  0  0  0
  149.1840  133.8688  155.5138 H   0  0  0  0  0  0  0  0  0  0  0  0
  150.6959  133.9247  154.6288 H   0  0  0  0  0  0  0  0  0  0  0  0
  149.3456  135.7177  153.3039 H   0  0  0  0  0  0  0  0  0  0  0  0
  150.9547  135.9864  155.7064 H   0  0  0  0  0  0  0  0  0  0  0  0
  151.3206  136.4521  154.0552 H   0  0  0  0  0  0  0  0  0  0  0  0
  149.3931  138.1887  154.2709 H   0  0  0  0  0  0  0  0  0  0  0  0
  148.4326  138.2462  156.0998 H   0  0  0  0  0  0  0  0  0  0  0  0
  151.9144  138.5159  155.9993 H   0  0  0  0  0  0  0  0  0  0  0  0
  151.7712  138.8956  154.3038 H   0  0  0  0  0  0  0  0  0  0  0  0
  149.4534  140.8104  153.9077 H   0  0  0  0  0  0  0  0  0  0  0  0
  150.4006  144.0483  157.6675 H   0  0  0  0  0  0  0  0  0  0  0  0
  153.0436  143.8932  159.9429 H   0  0  0  0  0  0  0  0  0  0  0  0
  151.6362  143.2772  160.8226 H   0  0  0  0  0  0  0  0  0  0  0  0
  151.4576  144.6194  159.6948 H   0  0  0  0  0  0  0  0  0  0  0  0
  153.5939  139.9722  159.7885 H   0  0  0  0  0  0  0  0  0  0  0  0
  152.6871  141.0323  160.8641 H   0  0  0  0  0  0  0  0  0  0  0  0
  154.0848  141.6538  159.9733 H   0  0  0  0  0  0  0  0  0  0  0  0
  152.5265  139.4856  157.7556 H   0  0  0  0  0  0  0  0  0  0  0  0
  148.2619  131.6750  154.7385 H   0  0  0  0  0  0  0  0  0  0  0  0
  149.8485  131.3639  154.0598 H   0  0  0  0  0  0  0  0  0  0  0  0
  148.5777  135.8696  154.7457 H   0  0  0  0  0  0  0  0  0  0  0  0
  148.8328  131.0715  151.9322 H   0  0  0  0  0  0  0  0  0  0  0  0
  149.3029  143.0070  155.2260 H   0  0  0  0  0  0  0  0  0  0  0  0
  1  2  1  0  0  0  0
  1 26  1  0  0  0  0
  1 27  1  0  0  0  0
  1 28  1  0  0  0  0
  2  3  1  0  0  0  0
  2 29  1  0  0  0  0
  2 30  1  0  0  0  0
  3 25  1  0  0  0  0
  3  4  1  0  0  0  0
  3 57  1  0  0  0  0
  4  5  1  0  0  0  0
  4 31  1  0  0  0  0
  4 32  1  0  0  0  0
  5  6  1  0  0  0  0
  5 33  1  0  0  0  0
  5 34  1  0  0  0  0
  6  7  1  0  0  0  0
  7  8  1  0  0  0  0
  7 25  1  0  0  0  0
  7 35  1  0  0  0  0
  8  9  1  0  0  0  0
  8 36  1  0  0  0  0
  8 37  1  0  0  0  0
  9 10  1  0  0  0  0
  9 38  1  0  0  0  0
  9 56  1  0  0  0  0
 10 11  1  0  0  0  0
 10 39  1  0  0  0  0
 10 40  1  0  0  0  0
 11 12  1  0  0  0  0
 11 13  1  0  0  0  0
 11 41  1  0  0  0  0
 12 42  1  0  0  0  0
 13 14  1  0  0  0  0
 13 43  1  0  0  0  0
 13 44  1  0  0  0  0
 14 24  1  0  0  0  0
 14 15  1  0  0  0  0
 15 16  2  0  0  0  0
 15 45  1  0  0  0  0
 16 17  1  0  0  0  0
 16 58  1  0  0  0  0
 17 24  2  0  0  0  0
 17 18  1  0  0  0  0
 18 19  2  0  0  0  0
 18 46  1  0  0  0  0
 19 20  1  0  0  0  0
 19 21  1  0  0  0  0
 20 47  1  0  0  0  0
 20 48  1  0  0  0  0
 20 49  1  0  0  0  0
 21 22  1  0  0  0  0
 21 23  2  0  0  0  0
 22 50  1  0  0  0  0
 22 51  1  0  0  0  0
 22 52  1  0  0  0  0
 23 24  1  0  0  0  0
 23 53  1  0  0  0  0
 25 54  1  0  0  0  0
 25 55  1  0  0  0  0
M  CHG  1   3   1
M  CHG  1   9   1
M  CHG  1  16   1
M  END
> <s_m_source_file>
AV-unprocessed.smi

> <i_m_source_file_index>
1047

> <i_lp_mmshare_version>
43012

> <i_f3d_flags>
0

> <s_epik_input>
W0NIM11bQ0gyXU4xW0NIMl1bQ0gyXU9bQ0BIXShbQ0gyXTEpW0NIMl1bTkhdW0NIMl1bQ0BIXShbT0hdKVtDSDJdbihbY0hdbjIpYyhjMjMpW2NIXWMoW0NIM10pYyhbY0hdMylbQ0gzXQ==

> <s_epik_cmdline>
J2VwaWtfcHl0aG9uJywgJy1waCcsICc3LjAnLCAnLXRuJywgJzgnLCAnLW1hJywgJzIwMCcsICctbWV0YWxfYmluZGluZycsICctaW1hZScsICc8aW5maWxlLm1hZT4nLCAnLW9tYWUnLCAnPG91dGZpbGUubWFlPic=

> <r_epik_Ionization_Penalty>
1.6114

> <r_epik_Ionization_Penalty_Charging>
1.61139

> <r_epik_Ionization_Penalty_Neutral>
5.04732e-06

> <r_epik_State_Penalty>
1.63724

> <r_epik_Charging_Adjusted_Penalty>
3.24864

> <i_epik_Tot_Q>
3

> <i_epik_Tot_abs_Q>
3

> <r_epik_Metal_State_Penalty>
5.64594

> <b_epik_Metal_Only>
0

> <s_lp_Force_Field>
OPLS_2005

> <r_lp_Energy>
40.2566

> <b_lp_Chiralities_Consistent>
1

> <s_lp_Variant>
AV-unprocessed.smi:1047-25

> <Gold.Version>
5.8.1

> <Gold.Id.Protein>
6NUR|6NUR_protein|mol2

> <Gold.PLP.Fitness>
63.4020

> <Gold.PLP.PLP>
-49.2011

> <Gold.PLP.part.hbond>
-3.0000

> <Gold.PLP.part.metal>
0.0000

> <Gold.PLP.part.buried>
-4.1198

> <Gold.PLP.part.nonpolar>
-43.0219

> <Gold.PLP.part.repulsive>
0.4937

> <Gold.PLP.ligand.clash>
0.0000

> <Gold.PLP.ligand.torsion>
0.6126

> <Gold.PLP.Chemscore.Hbond>
4.9840

> <Gold.PLP.Chemscore.CHOScore>
0.0000

> <Gold.PLP.Chemscore.Metal>
0.0000

> <Gold.Chemscore.Hbonds>
donor molecule, donor type, donor heavy atom, donor atom, acceptor molecule, acceptor atom, score
      L1  H     3    57       P1 10747  0.94
      L1  H     9    38       P1  7948  2.00
      L1  H    16    58       P1  8028  1.73
      L1  C    15    45       P1  7957  0.19

> <Gold.PLP.Chemscore.Internal.Correction>
0.4741

> <Gold.Rescore>
     Score         DG    S(hbond)    S(metal)    S(lipo)     H(rot)  DE(clash)    DE(int)     intcor
     22.45     -23.20       2.93        0.00     128.64       2.78       0.06       0.69       ----

> <Gold.Chemscore.Fitness>
22.4520

> <Gold.Chemscore.DG>
-23.1997

> <Gold.Chemscore.ZeroCoef>
-5.4800

> <Gold.Chemscore.Hbond>
2.9335

> <Gold.Chemscore.Metal>
0.0000

> <Gold.Chemscore.Lipo>
128.6408

> <Gold.Chemscore.Internal_Hbond>
0.0000

> <Gold.Chemscore.DEClash>
0.0605

> <Gold.Chemscore.DEInternal>
0.6872

> <Gold.Chemscore.Rot>
2.7848

> <Gold.Chemscore.Internal.Correction>
   9.000000E+99

> <Gold.Chemscore.Hbonds>
donor molecule, donor type, donor heavy atom, donor atom, acceptor molecule, acceptor atom, score
      L1  H     3    57       P1 10747  0.72
      L1  H     9    38       P1  7948  0.33
      L1  H    16    58       P1  8028  0.85

> <Gold.Chemscore.Hbond.Weighted>
-9.7979

> <Gold.Chemscore.Metal.Weighted>
-0.0000

> <Gold.Chemscore.Lipo.Weighted>
-15.0510

> <Gold.Chemscore.Internal_Hbond.Weighted>
0.0000

> <Gold.Chemscore.DEClash.Weighted>
0.0605

> <Gold.Chemscore.DEInternal.Weighted>
0.6872

> <Gold.Chemscore.Rot.Weighted>
7.1291

> <Gold.Chemscore.Internal.Correction.Weighted>
   9.000000E+99

> <Gold.Protein.RotatedTorsions>
[ 6907 6896 6895 6894 ] final  159.16 input  -60.11 | X-H torsion
[ 7974 7965 7964 7962 ] final   18.38 input  175.53 | X-H torsion
[ 8008 7997 7996 7995 ] final -150.98 input   59.86 | X-H torsion
[ 10167 10162 10161 10158 ] final  143.17 input  -65.29 | X-H torsion
[ 10718 10713 10712 10709 ] final  179.97 input   66.30 | X-H torsion
[ 10763 10752 10751 10750 ] final  -45.50 input  -60.55 | X-H torsion
[ 11005 11000 10999 10996 ] final  112.88 input  -57.11 | X-H torsion

> <Gold.Protein.ActiveResidues>
 VAL166  LYS551  ARG553  GLY616  TRP617  ASP618  TYR619  PRO620  LYS621  CYS622 
 ASP623  PHE694  ASN695  SER759  ASP760  ASP761  ALA762  ILE779  LEU786  VAL792 
 PHE793  MET794  SER795  GLU796  ALA797  LYS798  CYS799  TRP800  GLU811  SER814 

> <Gold.Protein.RotatedAtoms>
  151.9898  133.3787  159.4139 H   0  0  0  0  0  0  0  0  0  0  0  0  # atno 6907 bound_to 6896
  150.6923  134.3949  159.5102 H   0  0  0  0  0  0  0  0  0  0  0  0  # atno 6908 bound_to 6896
  152.1681  134.8857  160.0587 H   0  0  0  0  0  0  0  0  0  0  0  0  # atno 6909 bound_to 6896
  146.2187  139.8466  142.8630 H   0  0  0  0  0  0  0  0  0  0  0  0  # atno 7974 bound_to 7965
  155.6322  140.0692  157.2645 H   0  0  0  0  0  0  0  0  0  0  0  0  # atno 8008 bound_to 7997
  154.4203  140.1765  156.1533 H   0  0  0  0  0  0  0  0  0  0  0  0  # atno 8009 bound_to 7997
  155.9924  140.3344  155.6769 H   0  0  0  0  0  0  0  0  0  0  0  0  # atno 8010 bound_to 7997
  139.4976  144.6058  151.6381 H   0  0  0  0  0  0  0  0  0  0  0  0  # atno 10167 bound_to 10162
  156.8679  130.9774  151.3076 H   0  0  0  0  0  0  0  0  0  0  0  0  # atno 10718 bound_to 10713
  154.0296  135.6658  153.4779 H   0  0  0  0  0  0  0  0  0  0  0  0  # atno 10763 bound_to 10752
  153.0546  135.5064  154.7945 H   0  0  0  0  0  0  0  0  0  0  0  0  # atno 10764 bound_to 10752
  154.6886  135.3057  154.9476 H   0  0  0  0  0  0  0  0  0  0  0  0  # atno 10765 bound_to 10752
  139.8938  134.9539  156.6653 H   0  0  0  0  0  0  0  0  0  0  0  0  # atno 11005 bound_to 11000
  145.2844  141.0148  143.3699 LP  0  0  0  0  0  0  0  0  0  0  0  0  # atno 17320 bound_to 7965
  144.9125  139.4511  143.6580 LP  0  0  0  0  0  0  0  0  0  0  0  0  # atno 17321 bound_to 7965
  140.5720  144.0093  150.6221 LP  0  0  0  0  0  0  0  0  0  0  0  0  # atno 17342 bound_to 10162
  140.3214  143.3135  152.0780 LP  0  0  0  0  0  0  0  0  0  0  0  0  # atno 17343 bound_to 10162
  157.6212  130.8657  149.9112 LP  0  0  0  0  0  0  0  0  0  0  0  0  # atno 17370 bound_to 10713
  156.0742  130.3681  150.0713 LP  0  0  0  0  0  0  0  0  0  0  0  0  # atno 17371 bound_to 10713
  140.7415  133.8973  155.8281 LP  0  0  0  0  0  0  0  0  0  0  0  0  # atno 17394 bound_to 11000
  141.0073  134.1068  157.4257 LP  0  0  0  0  0  0  0  0  0  0  0  0  # atno 17395 bound_to 11000

$$$$
