AV-unprocessed.smi:3134|AV-procd|sdf|11941|dock3
  -GOLD-   2272017333D 1   1.00000     0.00000
 Structure written by MMmdl.
 37 37  0  0  0  0  0  0  0  0  2 V2000
  143.5699  135.5144  151.7268 C   0  0  0  0  0  0  0  0  0  0  0  0
  143.7230  136.5301  152.8698 C   0  0  0  0  0  0  0  0  0  0  0  0
  142.3821  137.1834  153.2304 C   0  0  0  0  0  0  0  0  0  0  0  0
  144.6855  137.5664  152.5065 N   0  0  0  0  0  0  0  0  0  0  0  0
  145.8955  137.7342  153.0632 C   0  0  0  0  0  0  0  0  0  0  0  0
  146.3369  137.0094  153.9557 O   0  0  0  0  0  0  0  0  0  0  0  0
  146.7430  138.8916  152.5160 C   0  0  2  0  0  0  0  0  0  0  0  0
  146.4984  139.0535  151.0079 C   0  0  0  0  0  0  0  0  0  0  0  0
  148.1878  138.6860  152.7692 N   0  3  0  0  0  0  0  0  0  0  0  0
  148.6241  138.9462  154.1575 C   0  0  0  0  0  0  0  0  0  0  0  0
  148.7923  140.4514  154.4077 C   0  0  0  0  0  0  0  0  0  0  0  0
  149.9504  140.7317  155.2338 N   0  0  0  0  0  0  0  0  0  0  0  0
  150.0939  141.6895  156.2157 C   0  0  0  0  0  0  0  0  0  0  0  0
  151.3584  141.5703  156.7171 C   0  0  0  0  0  0  0  0  0  0  0  0
  151.9184  140.4958  155.9709 C   0  0  0  0  0  0  0  0  0  0  0  0
  151.0724  139.9950  155.0847 N   0  0  0  0  0  0  0  0  0  0  0  0
  142.8586  134.7319  151.9925 H   0  0  0  0  0  0  0  0  0  0  0  0
  144.5188  135.0283  151.4977 H   0  0  0  0  0  0  0  0  0  0  0  0
  143.2119  135.9929  150.8146 H   0  0  0  0  0  0  0  0  0  0  0  0
  144.0838  136.0039  153.7555 H   0  0  0  0  0  0  0  0  0  0  0  0
  141.6514  136.4339  153.5359 H   0  0  0  0  0  0  0  0  0  0  0  0
  141.9641  137.7292  152.3838 H   0  0  0  0  0  0  0  0  0  0  0  0
  142.4957  137.8858  154.0567 H   0  0  0  0  0  0  0  0  0  0  0  0
  144.4077  138.2035  151.7737 H   0  0  0  0  0  0  0  0  0  0  0  0
  146.4394  139.8171  153.0087 H   0  0  0  0  0  0  0  0  0  0  0  0
  145.4437  139.2308  150.7928 H   0  0  0  0  0  0  0  0  0  0  0  0
  146.8056  138.1653  150.4538 H   0  0  0  0  0  0  0  0  0  0  0  0
  147.0573  139.9011  150.6102 H   0  0  0  0  0  0  0  0  0  0  0  0
  148.4229  137.7352  152.5213 H   0  0  0  0  0  0  0  0  0  0  0  0
  147.8859  138.5320  154.8457 H   0  0  0  0  0  0  0  0  0  0  0  0
  149.5675  138.4343  154.3511 H   0  0  0  0  0  0  0  0  0  0  0  0
  148.9040  140.9835  153.4618 H   0  0  0  0  0  0  0  0  0  0  0  0
  147.9086  140.8604  154.9000 H   0  0  0  0  0  0  0  0  0  0  0  0
  149.2948  142.3691  156.4733 H   0  0  0  0  0  0  0  0  0  0  0  0
  151.8140  142.1598  157.4988 H   0  0  0  0  0  0  0  0  0  0  0  0
  152.9071  140.0676  156.0465 H   0  0  0  0  0  0  0  0  0  0  0  0
  148.7010  139.3132  152.1668 H   0  0  0  0  0  0  0  0  0  0  0  0
  1  2  1  0  0  0  0
  1 17  1  0  0  0  0
  1 18  1  0  0  0  0
  1 19  1  0  0  0  0
  2  3  1  0  0  0  0
  2  4  1  0  0  0  0
  2 20  1  0  0  0  0
  3 21  1  0  0  0  0
  3 22  1  0  0  0  0
  3 23  1  0  0  0  0
  4  5  1  0  0  0  0
  4 24  1  0  0  0  0
  5  6  2  0  0  0  0
  5  7  1  0  0  0  0
  7  8  1  0  0  0  0
  7  9  1  0  0  0  0
  7 25  1  0  0  0  0
  8 26  1  0  0  0  0
  8 27  1  0  0  0  0
  8 28  1  0  0  0  0
  9 10  1  0  0  0  0
  9 29  1  0  0  0  0
  9 37  1  0  0  0  0
 10 11  1  0  0  0  0
 10 30  1  0  0  0  0
 10 31  1  0  0  0  0
 11 12  1  0  0  0  0
 11 32  1  0  0  0  0
 11 33  1  0  0  0  0
 12 16  1  0  0  0  0
 12 13  1  0  0  0  0
 13 14  2  0  0  0  0
 13 34  1  0  0  0  0
 14 15  1  0  0  0  0
 14 35  1  0  0  0  0
 15 16  2  0  0  0  0
 15 36  1  0  0  0  0
M  CHG  1   9   1
M  END
> <s_m_source_file>
AV-unprocessed.smi

> <i_m_source_file_index>
3134

> <i_lp_mmshare_version>
43012

> <i_f3d_flags>
0

> <s_epik_input>
W0NIM11bQ0hdKFtDSDNdKVtOSF1DKD1PKVtDQEhdKFtDSDNdKVtOSF1bQ0gyXVtDSDJdbjFbY0hdW2NIXVtjSF1uMQ==

> <s_epik_cmdline>
J2VwaWtfcHl0aG9uJywgJy1waCcsICc3LjAnLCAnLXRuJywgJzgnLCAnLW1hJywgJzIwMCcsICctbWV0YWxfYmluZGluZycsICctaW1hZScsICc8aW5maWxlLm1hZT4nLCAnLW9tYWUnLCAnPG91dGZpbGUubWFlPic=

> <r_lp_tautomer_probability>
1

> <r_epik_Ionization_Penalty>
0.20398

> <r_epik_Ionization_Penalty_Charging>
0.203977

> <r_epik_Ionization_Penalty_Neutral>
3.23345e-06

> <r_epik_State_Penalty>
0.193898

> <r_epik_Charging_Adjusted_Penalty>
0.397875

> <i_epik_Tot_Q>
1

> <i_epik_Tot_abs_Q>
1

> <r_epik_Metal_State_Penalty>
0.194184

> <b_epik_Metal_Only>
0

> <s_lp_Force_Field>
OPLS_2005

> <r_lp_Energy>
4.26542

> <b_lp_Chiralities_Consistent>
1

> <s_lp_Variant>
AV-unprocessed.smi:3134-1

> <Gold.Version>
5.8.1

> <Gold.Id.Protein>
6NUR|6NUR_protein|mol2

> <Gold.PLP.Fitness>
44.7275

> <Gold.PLP.PLP>
-30.5151

> <Gold.PLP.part.hbond>
-4.8989

> <Gold.PLP.part.metal>
0.0000

> <Gold.PLP.part.buried>
-1.3230

> <Gold.PLP.part.nonpolar>
-24.6536

> <Gold.PLP.part.repulsive>
0.2241

> <Gold.PLP.ligand.clash>
0.0000

> <Gold.PLP.ligand.torsion>
1.5552

> <Gold.PLP.Chemscore.Hbond>
4.7663

> <Gold.PLP.Chemscore.CHOScore>
0.9793

> <Gold.PLP.Chemscore.Metal>
0.0000

> <Gold.Chemscore.Hbonds>
donor molecule, donor type, donor heavy atom, donor atom, acceptor molecule, acceptor atom, score
      L1  H     4    24       P1 10171  0.91
      L1  H     9    29       P1  7948  2.00
      L1  H     9    37       P1  7957  0.98
      P1  H  7989  7998       L1    16  0.75
      L1  C    13    34       P1  8028  0.99

> <Gold.PLP.Chemscore.Internal.Correction>
0.0862

> <Gold.Rescore>
     Score         DG    S(hbond)    S(metal)    S(lipo)     H(rot)  DE(clash)    DE(int)     intcor
     16.27     -19.23       3.58        0.00      61.90       2.13       0.49       2.47       ----

> <Gold.Chemscore.Fitness>
16.2741

> <Gold.Chemscore.DG>
-19.2349

> <Gold.Chemscore.ZeroCoef>
-5.4800

> <Gold.Chemscore.Hbond>
3.5850

> <Gold.Chemscore.Metal>
0.0000

> <Gold.Chemscore.Lipo>
61.9027

> <Gold.Chemscore.Internal_Hbond>
0.0000

> <Gold.Chemscore.DEClash>
0.4864

> <Gold.Chemscore.DEInternal>
2.4744

> <Gold.Chemscore.Rot>
2.1334

> <Gold.Chemscore.Internal.Correction>
   9.000000E+99

> <Gold.Chemscore.Hbonds>
donor molecule, donor type, donor heavy atom, donor atom, acceptor molecule, acceptor atom, score
      L1  H     4    24       P1 10171  0.85
      L1  H     9    29       P1  7948  1.00
      L1  H     9    37       P1  7957  0.92
      P1  H  7989  7998       L1    16  0.03

> <Gold.Chemscore.Hbond.Weighted>
-11.9738

> <Gold.Chemscore.Metal.Weighted>
-0.0000

> <Gold.Chemscore.Lipo.Weighted>
-7.2426

> <Gold.Chemscore.Internal_Hbond.Weighted>
0.0000

> <Gold.Chemscore.DEClash.Weighted>
0.4864

> <Gold.Chemscore.DEInternal.Weighted>
2.4744

> <Gold.Chemscore.Rot.Weighted>
5.4615

> <Gold.Chemscore.Internal.Correction.Weighted>
   9.000000E+99

> <Gold.Protein.RotatedTorsions>
[ 6907 6896 6895 6894 ] final  -96.10 input  -60.11 | X-H torsion
[ 7974 7965 7964 7962 ] final   -2.76 input  175.53 | X-H torsion
[ 8008 7997 7996 7995 ] final  127.83 input   59.86 | X-H torsion
[ 10167 10162 10161 10158 ] final  103.37 input  -65.29 | X-H torsion
[ 10718 10713 10712 10709 ] final  109.02 input   66.30 | X-H torsion
[ 10763 10752 10751 10750 ] final   28.72 input  -60.55 | X-H torsion
[ 11005 11000 10999 10996 ] final    0.75 input  -57.11 | X-H torsion

> <Gold.Protein.ActiveResidues>
 VAL166  LYS551  ARG553  GLY616  TRP617  ASP618  TYR619  PRO620  LYS621  CYS622 
 ASP623  PHE694  ASN695  SER759  ASP760  ASP761  ALA762  ILE779  LEU786  VAL792 
 PHE793  MET794  SER795  GLU796  ALA797  LYS798  CYS799  TRP800  GLU811  SER814 

> <Gold.Protein.RotatedAtoms>
  150.6980  134.1555  159.4156 H   0  0  0  0  0  0  0  0  0  0  0  0  # atno 6907 bound_to 6896
  151.9537  135.0155  160.0553 H   0  0  0  0  0  0  0  0  0  0  0  0  # atno 6908 bound_to 6896
  152.1988  133.4791  159.5084 H   0  0  0  0  0  0  0  0  0  0  0  0  # atno 6909 bound_to 6896
  146.2400  140.1619  142.8332 H   0  0  0  0  0  0  0  0  0  0  0  0  # atno 7974 bound_to 7965
  156.2900  140.2659  156.2337 H   0  0  0  0  0  0  0  0  0  0  0  0  # atno 8008 bound_to 7997
  155.0047  140.0387  157.2393 H   0  0  0  0  0  0  0  0  0  0  0  0  # atno 8009 bound_to 7997
  154.7571  140.2754  155.6250 H   0  0  0  0  0  0  0  0  0  0  0  0  # atno 8010 bound_to 7997
  139.7269  144.7045  151.0783 H   0  0  0  0  0  0  0  0  0  0  0  0  # atno 10167 bound_to 10162
  157.6560  131.0905  150.6392 H   0  0  0  0  0  0  0  0  0  0  0  0  # atno 10718 bound_to 10713
  153.0474  135.6506  154.0781 H   0  0  0  0  0  0  0  0  0  0  0  0  # atno 10763 bound_to 10752
  154.0476  135.2898  155.3347 H   0  0  0  0  0  0  0  0  0  0  0  0  # atno 10764 bound_to 10752
  154.6741  135.5345  153.8242 H   0  0  0  0  0  0  0  0  0  0  0  0  # atno 10765 bound_to 10752
  140.6231  133.9643  155.8235 H   0  0  0  0  0  0  0  0  0  0  0  0  # atno 11005 bound_to 11000
  145.0082  140.8691  143.5240 LP  0  0  0  0  0  0  0  0  0  0  0  0  # atno 17320 bound_to 7965
  145.1649  139.2437  143.5372 LP  0  0  0  0  0  0  0  0  0  0  0  0  # atno 17321 bound_to 7965
  140.7764  143.5093  150.9672 LP  0  0  0  0  0  0  0  0  0  0  0  0  # atno 17342 bound_to 10162
  139.8781  143.7107  152.3160 LP  0  0  0  0  0  0  0  0  0  0  0  0  # atno 17343 bound_to 10162
  156.6699  130.4536  149.5660 LP  0  0  0  0  0  0  0  0  0  0  0  0  # atno 17370 bound_to 10713
  156.2005  130.6617  151.1162 LP  0  0  0  0  0  0  0  0  0  0  0  0  # atno 17371 bound_to 10713
  141.0728  134.0180  157.3501 LP  0  0  0  0  0  0  0  0  0  0  0  0  # atno 17394 bound_to 11000
  139.9145  135.0195  156.7827 LP  0  0  0  0  0  0  0  0  0  0  0  0  # atno 17395 bound_to 11000

$$$$
