AV-unprocessed.smi:243|AV-procd|sdf|1848|dock3
  -GOLD-   2262020473D 1   1.00000     0.00000
 Structure written by MMmdl.
 58 61  0  0  0  0  0  0  0  0  2 V2000
  152.5577  144.5006  158.6001 C   0  0  0  0  0  0  0  0  0  0  0  0
  151.1040  144.0109  158.6741 C   0  0  0  0  0  0  0  0  0  0  0  0
  150.9201  142.6794  158.0437 N   0  3  2  0  0  0  0  0  0  0  0  0
  151.6254  141.6036  158.7858 C   0  0  0  0  0  0  0  0  0  0  0  0
  151.2955  140.2192  158.2061 C   0  0  0  0  0  0  0  0  0  0  0  0
  151.6287  140.1615  156.6995 C   0  0  1  0  0  0  0  0  0  0  0  0
  151.5119  138.8412  156.0533 N   0  0  0  0  0  0  0  0  0  0  0  0
  152.2292  138.6476  154.7976 C   0  0  0  0  0  0  0  0  0  0  0  0
  150.4416  138.0271  156.2633 C   0  0  0  0  0  0  0  0  0  0  0  0
  149.4709  138.4512  157.1124 N   0  0  0  0  0  0  0  0  0  0  0  0
  148.4116  137.6820  157.3766 C   0  0  0  0  0  0  0  0  0  0  0  0
  148.1313  136.4634  156.9140 N   0  0  0  0  0  0  0  0  0  0  0  0
  149.1069  136.0189  156.0723 C   0  0  0  0  0  0  0  0  0  0  0  0
  150.2875  136.7240  155.6996 C   0  0  0  0  0  0  0  0  0  0  0  0
  151.0376  135.9437  154.8254 N   0  0  0  0  0  0  0  0  0  0  0  0
  150.3452  134.8459  154.6937 C   0  0  0  0  0  0  0  0  0  0  0  0
  149.1648  134.8110  155.3996 N   0  0  0  0  0  0  0  0  0  0  0  0
  148.2016  133.7218  155.4371 C   0  0  0  0  0  0  0  0  0  0  0  0
  148.0202  132.9991  154.0785 C   0  0  1  0  0  0  0  0  0  0  0  0
  147.8029  133.9566  153.0594 O   0  0  0  0  0  0  0  0  0  0  0  0
  149.2216  132.1395  153.7204 C   0  0  0  0  0  0  0  0  0  0  0  0
  148.9238  130.8224  154.4348 C   0  0  0  0  0  0  0  0  0  0  0  0
  147.5054  130.7428  154.5437 O   0  0  0  0  0  0  0  0  0  0  0  0
  146.9079  131.9422  154.0629 C   0  0  0  0  0  0  0  0  0  0  0  0
  150.9069  141.3088  155.9428 C   0  0  1  0  0  0  0  0  0  0  0  0
  149.3775  141.1528  155.8239 C   0  0  0  0  0  0  0  0  0  0  0  0
  151.2665  142.6599  156.5966 C   0  0  0  0  0  0  0  0  0  0  0  0
  152.6390  145.5160  158.9887 H   0  0  0  0  0  0  0  0  0  0  0  0
  152.9180  144.5127  157.5710 H   0  0  0  0  0  0  0  0  0  0  0  0
  153.2325  143.8777  159.1863 H   0  0  0  0  0  0  0  0  0  0  0  0
  150.7550  143.9888  159.7076 H   0  0  0  0  0  0  0  0  0  0  0  0
  150.4836  144.7426  158.1547 H   0  0  0  0  0  0  0  0  0  0  0  0
  152.7014  141.7814  158.7504 H   0  0  0  0  0  0  0  0  0  0  0  0
  151.3348  141.6263  159.8368 H   0  0  0  0  0  0  0  0  0  0  0  0
  151.8663  139.4618  158.7448 H   0  0  0  0  0  0  0  0  0  0  0  0
  150.2417  140.0057  158.3838 H   0  0  0  0  0  0  0  0  0  0  0  0
  152.6947  140.3860  156.6377 H   0  0  0  0  0  0  0  0  0  0  0  0
  152.2754  137.5914  154.5291 H   0  0  0  0  0  0  0  0  0  0  0  0
  153.2541  139.0085  154.8860 H   0  0  0  0  0  0  0  0  0  0  0  0
  151.7499  139.1916  153.9838 H   0  0  0  0  0  0  0  0  0  0  0  0
  147.6862  138.1019  158.0578 H   0  0  0  0  0  0  0  0  0  0  0  0
  150.6761  134.0281  154.0700 H   0  0  0  0  0  0  0  0  0  0  0  0
  148.5234  133.0111  156.1997 H   0  0  0  0  0  0  0  0  0  0  0  0
  147.2494  134.1243  155.7842 H   0  0  0  0  0  0  0  0  0  0  0  0
  148.3627  134.6999  153.2232 H   0  0  0  0  0  0  0  0  0  0  0  0
  149.2539  131.9597  152.6443 H   0  0  0  0  0  0  0  0  0  0  0  0
  150.1768  132.5773  154.0123 H   0  0  0  0  0  0  0  0  0  0  0  0
  149.3285  129.9635  153.8990 H   0  0  0  0  0  0  0  0  0  0  0  0
  149.3498  130.8238  155.4385 H   0  0  0  0  0  0  0  0  0  0  0  0
  146.0234  132.2137  154.6373 H   0  0  0  0  0  0  0  0  0  0  0  0
  146.5797  131.7514  153.0398 H   0  0  0  0  0  0  0  0  0  0  0  0
  151.2982  141.3413  154.9256 H   0  0  0  0  0  0  0  0  0  0  0  0
  148.8966  141.0479  156.7960 H   0  0  0  0  0  0  0  0  0  0  0  0
  149.1073  140.2879  155.2235 H   0  0  0  0  0  0  0  0  0  0  0  0
  148.9361  142.0207  155.3336 H   0  0  0  0  0  0  0  0  0  0  0  0
  150.7527  143.4620  156.0678 H   0  0  0  0  0  0  0  0  0  0  0  0
  152.3343  142.8545  156.4831 H   0  0  0  0  0  0  0  0  0  0  0  0
  149.9350  142.4669  158.1122 H   0  0  0  0  0  0  0  0  0  0  0  0
  1  2  1  0  0  0  0
  1 28  1  0  0  0  0
  1 29  1  0  0  0  0
  1 30  1  0  0  0  0
  2  3  1  0  0  0  0
  2 31  1  0  0  0  0
  2 32  1  0  0  0  0
  3 27  1  0  0  0  0
  3  4  1  0  0  0  0
  3 58  1  0  0  0  0
  4  5  1  0  0  0  0
  4 33  1  0  0  0  0
  4 34  1  0  0  0  0
  5  6  1  0  0  0  0
  5 35  1  0  0  0  0
  5 36  1  0  0  0  0
  6  7  1  0  0  0  0
  6 25  1  0  0  0  0
  6 37  1  0  0  0  0
  7  8  1  0  0  0  0
  7  9  1  0  0  0  0
  8 38  1  0  0  0  0
  8 39  1  0  0  0  0
  8 40  1  0  0  0  0
  9 14  1  0  0  0  0
  9 10  2  0  0  0  0
 10 11  1  0  0  0  0
 11 12  2  0  0  0  0
 11 41  1  0  0  0  0
 12 13  1  0  0  0  0
 13 17  1  0  0  0  0
 13 14  2  0  0  0  0
 14 15  1  0  0  0  0
 15 16  2  0  0  0  0
 16 17  1  0  0  0  0
 16 42  1  0  0  0  0
 17 18  1  0  0  0  0
 18 19  1  0  0  0  0
 18 43  1  0  0  0  0
 18 44  1  0  0  0  0
 19 24  1  0  0  0  0
 19 20  1  0  0  0  0
 19 21  1  0  0  0  0
 20 45  1  0  0  0  0
 21 22  1  0  0  0  0
 21 46  1  0  0  0  0
 21 47  1  0  0  0  0
 22 23  1  0  0  0  0
 22 48  1  0  0  0  0
 22 49  1  0  0  0  0
 23 24  1  0  0  0  0
 24 50  1  0  0  0  0
 24 51  1  0  0  0  0
 25 26  1  0  0  0  0
 25 27  1  0  0  0  0
 25 52  1  0  0  0  0
 26 53  1  0  0  0  0
 26 54  1  0  0  0  0
 26 55  1  0  0  0  0
 27 56  1  0  0  0  0
 27 57  1  0  0  0  0
M  CHG  1   3   1
M  END
> <s_m_source_file>
AV-unprocessed.smi

> <i_m_source_file_index>
243

> <i_lp_mmshare_version>
43012

> <i_f3d_flags>
0

> <s_epik_input>
W0NIM11bQ0gyXU4xW0NIMl1bQ0gyXVtDQEhdKFtDQEBIXShbQ0gzXSlbQ0gyXTEpTihbQ0gzXSljKG5bY0hdbjIpYyhjMjMpbltjSF1uM1tDSDJdW0NAQF00KFtPSF0pW0NIMl1bQ0gyXU9bQ0gyXTQ=

> <s_epik_cmdline>
J2VwaWtfcHl0aG9uJywgJy1waCcsICc3LjAnLCAnLXRuJywgJzgnLCAnLW1hJywgJzIwMCcsICctbWV0YWxfYmluZGluZycsICctaW1hZScsICc8aW5maWxlLm1hZT4nLCAnLW9tYWUnLCAnPG91dGZpbGUubWFlPic=

> <r_lp_tautomer_probability>
1

> <r_epik_Ionization_Penalty>
0.00253099

> <r_epik_Ionization_Penalty_Charging>
0.00137877

> <r_epik_Ionization_Penalty_Neutral>
0.00115221

> <r_epik_State_Penalty>
-0

> <r_epik_Charging_Adjusted_Penalty>
0.00137877

> <i_epik_Tot_Q>
1

> <i_epik_Tot_abs_Q>
1

> <r_epik_Metal_State_Penalty>
-0

> <b_epik_Metal_Only>
0

> <s_lp_Force_Field>
OPLS_2005

> <r_lp_Energy>
50.8982

> <b_lp_Chiralities_Consistent>
1

> <s_lp_Variant>
AV-unprocessed.smi:243-1

> <Gold.Version>
5.8.1

> <Gold.Id.Protein>
6NUR|6NUR_protein|mol2

> <Gold.PLP.Fitness>
43.0307

> <Gold.PLP.PLP>
-39.4773

> <Gold.PLP.part.hbond>
-2.0000

> <Gold.PLP.part.metal>
0.0000

> <Gold.PLP.part.buried>
-5.9287

> <Gold.PLP.part.nonpolar>
-31.5590

> <Gold.PLP.part.repulsive>
0.2752

> <Gold.PLP.ligand.clash>
0.0000

> <Gold.PLP.ligand.torsion>
1.0008

> <Gold.PLP.Chemscore.Hbond>
1.5920

> <Gold.PLP.Chemscore.CHOScore>
0.0000

> <Gold.PLP.Chemscore.Metal>
0.0000

> <Gold.Chemscore.Hbonds>
donor molecule, donor type, donor heavy atom, donor atom, acceptor molecule, acceptor atom, score
      L1  H    20    45       P1  7948  0.46
      P1  H 10752 10764       L1    15  1.00

> <Gold.PLP.Chemscore.Internal.Correction>
0.7791

> <Gold.Rescore>
     Score         DG    S(hbond)    S(metal)    S(lipo)     H(rot)  DE(clash)    DE(int)     intcor
     11.37     -15.49       1.23        0.00      99.56       2.24       0.44       3.68       ----

> <Gold.Chemscore.Fitness>
11.3708

> <Gold.Chemscore.DG>
-15.4949

> <Gold.Chemscore.ZeroCoef>
-5.4800

> <Gold.Chemscore.Hbond>
1.2261

> <Gold.Chemscore.Metal>
0.0000

> <Gold.Chemscore.Lipo>
99.5627

> <Gold.Chemscore.Internal_Hbond>
0.0000

> <Gold.Chemscore.DEClash>
0.4446

> <Gold.Chemscore.DEInternal>
3.6795

> <Gold.Chemscore.Rot>
2.2379

> <Gold.Chemscore.Internal.Correction>
   9.000000E+99

> <Gold.Chemscore.Hbonds>
donor molecule, donor type, donor heavy atom, donor atom, acceptor molecule, acceptor atom, score
      L1  H    20    45       P1  7948  0.30
      P1  H 10752 10764       L1    15  0.73

> <Gold.Chemscore.Hbond.Weighted>
-4.0952

> <Gold.Chemscore.Metal.Weighted>
-0.0000

> <Gold.Chemscore.Lipo.Weighted>
-11.6488

> <Gold.Chemscore.Internal_Hbond.Weighted>
0.0000

> <Gold.Chemscore.DEClash.Weighted>
0.4446

> <Gold.Chemscore.DEInternal.Weighted>
3.6795

> <Gold.Chemscore.Rot.Weighted>
5.7291

> <Gold.Chemscore.Internal.Correction.Weighted>
   9.000000E+99

> <Gold.Protein.RotatedTorsions>
[ 6907 6896 6895 6894 ] final -174.02 input  -60.11 | X-H torsion
[ 7974 7965 7964 7962 ] final   -5.40 input  175.53 | X-H torsion
[ 8008 7997 7996 7995 ] final   64.48 input   59.86 | X-H torsion
[ 10167 10162 10161 10158 ] final   79.78 input  -65.29 | X-H torsion
[ 10718 10713 10712 10709 ] final  -39.59 input   66.30 | X-H torsion
[ 10763 10752 10751 10750 ] final  -51.44 input  -60.55 | X-H torsion
[ 11005 11000 10999 10996 ] final  -61.06 input  -57.11 | X-H torsion

> <Gold.Protein.ActiveResidues>
 VAL166  LYS551  ARG553  GLY616  TRP617  ASP618  TYR619  PRO620  LYS621  CYS622 
 ASP623  PHE694  ASN695  SER759  ASP760  ASP761  ALA762  ILE779  LEU786  VAL792 
 PHE793  MET794  SER795  GLU796  ALA797  LYS798  CYS799  TRP800  GLU811  SER814 

> <Gold.Protein.RotatedAtoms>
  151.5656  133.3397  159.2979 H   0  0  0  0  0  0  0  0  0  0  0  0  # atno 6907 bound_to 6896
  150.8397  134.7687  159.6933 H   0  0  0  0  0  0  0  0  0  0  0  0  # atno 6908 bound_to 6896
  152.4467  134.5487  159.9912 H   0  0  0  0  0  0  0  0  0  0  0  0  # atno 6909 bound_to 6896
  146.2353  140.2015  142.8334 H   0  0  0  0  0  0  0  0  0  0  0  0  # atno 7974 bound_to 7965
  155.6467  140.3497  155.4733 H   0  0  0  0  0  0  0  0  0  0  0  0  # atno 8008 bound_to 7997
  155.9882  140.1188  157.0687 H   0  0  0  0  0  0  0  0  0  0  0  0  # atno 8009 bound_to 7997
  154.4211  140.1125  156.5514 H   0  0  0  0  0  0  0  0  0  0  0  0  # atno 8010 bound_to 7997
  139.9567  144.5989  150.8110 H   0  0  0  0  0  0  0  0  0  0  0  0  # atno 10167 bound_to 10162
  156.2907  130.4228  149.8241 H   0  0  0  0  0  0  0  0  0  0  0  0  # atno 10718 bound_to 10713
  154.1266  135.6526  153.4913 H   0  0  0  0  0  0  0  0  0  0  0  0  # atno 10763 bound_to 10752
  153.0208  135.5283  154.7043 H   0  0  0  0  0  0  0  0  0  0  0  0  # atno 10764 bound_to 10752
  154.6266  135.2971  155.0236 H   0  0  0  0  0  0  0  0  0  0  0  0  # atno 10765 bound_to 10752
  141.1310  133.6627  156.5318 H   0  0  0  0  0  0  0  0  0  0  0  0  # atno 11005 bound_to 11000
  144.9778  140.8430  143.5416 LP  0  0  0  0  0  0  0  0  0  0  0  0  # atno 17320 bound_to 7965
  145.2005  139.2255  143.5195 LP  0  0  0  0  0  0  0  0  0  0  0  0  # atno 17321 bound_to 7965
  140.7566  143.3069  151.2939 LP  0  0  0  0  0  0  0  0  0  0  0  0  # atno 17342 bound_to 10162
  139.6586  144.0231  152.2677 LP  0  0  0  0  0  0  0  0  0  0  0  0  # atno 17343 bound_to 10162
  156.5655  130.8402  151.3341 LP  0  0  0  0  0  0  0  0  0  0  0  0  # atno 17370 bound_to 10713
  157.7341  130.9742  150.2014 LP  0  0  0  0  0  0  0  0  0  0  0  0  # atno 17371 bound_to 10713
  140.4210  134.7188  157.4889 LP  0  0  0  0  0  0  0  0  0  0  0  0  # atno 17394 bound_to 11000
  140.0360  134.6336  155.9043 LP  0  0  0  0  0  0  0  0  0  0  0  0  # atno 17395 bound_to 11000

$$$$
