AV-unprocessed.smi:3071|AV-procd|sdf|11716|dock3
  -GOLD-   2272017113D 1   1.00000     0.00000
 Structure written by MMmdl.
 29 30  0  0  0  0  0  0  0  0  3 V2000
  144.4567  132.1659  150.2033 C   0  0  0  0  0  0  0  0  0  0  0  0
  144.6615  133.5680  150.6799 C   0  0  0  0  0  0  0  0  0  0  0  0
  143.7407  134.5386  150.6549 N   0  3  0  0  0  0  0  0  0  0  0  0
  144.2543  135.6972  151.1706 C   0  0  0  0  0  0  0  0  0  0  0  0
  145.5483  135.4215  151.5271 C   0  0  0  0  0  0  0  0  0  0  0  0
  145.7734  134.1050  151.2113 N   0  0  0  0  0  0  0  0  0  0  0  0
  147.0254  133.3619  151.4154 C   0  0  0  0  0  0  0  0  0  0  0  0
  147.3972  133.2089  152.9029 C   0  0  1  0  0  0  0  0  0  0  0  0
  148.5819  132.2791  153.1839 C   0  0  0  0  0  0  0  0  0  0  0  0
  149.0692  132.7572  154.5465 C   0  0  0  0  0  0  0  0  0  0  0  0
  148.8439  134.2706  154.4961 C   0  0  0  0  0  0  0  0  0  0  0  0
  147.7609  134.5016  153.5178 N   0  3  0  0  0  0  0  0  0  0  0  0
  143.4365  132.0622  149.8321 H   0  0  0  0  0  0  0  0  0  0  0  0
  144.6169  131.4838  151.0386 H   0  0  0  0  0  0  0  0  0  0  0  0
  145.1649  131.9582  149.4014 H   0  0  0  0  0  0  0  0  0  0  0  0
  143.6751  136.6063  151.2444 H   0  0  0  0  0  0  0  0  0  0  0  0
  146.3063  136.0511  151.9702 H   0  0  0  0  0  0  0  0  0  0  0  0
  146.9009  132.3811  150.9543 H   0  0  0  0  0  0  0  0  0  0  0  0
  147.8217  133.8638  150.8646 H   0  0  0  0  0  0  0  0  0  0  0  0
  146.5354  132.8331  153.4560 H   0  0  0  0  0  0  0  0  0  0  0  0
  148.3047  131.2243  153.1810 H   0  0  0  0  0  0  0  0  0  0  0  0
  149.3671  132.4253  152.4403 H   0  0  0  0  0  0  0  0  0  0  0  0
  148.4538  132.3164  155.3323 H   0  0  0  0  0  0  0  0  0  0  0  0
  150.1079  132.4901  154.7450 H   0  0  0  0  0  0  0  0  0  0  0  0
  148.5894  134.6812  155.4739 H   0  0  0  0  0  0  0  0  0  0  0  0
  149.7424  134.7776  154.1421 H   0  0  0  0  0  0  0  0  0  0  0  0
  148.1058  135.1289  152.8048 H   0  0  0  0  0  0  0  0  0  0  0  0
  146.9547  134.9118  153.9676 H   0  0  0  0  0  0  0  0  0  0  0  0
  142.7964  134.4279  150.3065 H   0  0  0  0  0  0  0  0  0  0  0  0
  1  2  1  0  0  0  0
  1 13  1  0  0  0  0
  1 14  1  0  0  0  0
  1 15  1  0  0  0  0
  2  6  1  0  0  0  0
  2  3  2  0  0  0  0
  3  4  1  0  0  0  0
  3 29  1  0  0  0  0
  4  5  2  0  0  0  0
  4 16  1  0  0  0  0
  5  6  1  0  0  0  0
  5 17  1  0  0  0  0
  6  7  1  0  0  0  0
  7  8  1  0  0  0  0
  7 18  1  0  0  0  0
  7 19  1  0  0  0  0
  8 12  1  0  0  0  0
  8  9  1  0  0  0  0
  8 20  1  0  0  0  0
  9 10  1  0  0  0  0
  9 21  1  0  0  0  0
  9 22  1  0  0  0  0
 10 11  1  0  0  0  0
 10 23  1  0  0  0  0
 10 24  1  0  0  0  0
 11 12  1  0  0  0  0
 11 25  1  0  0  0  0
 11 26  1  0  0  0  0
 12 27  1  0  0  0  0
 12 28  1  0  0  0  0
M  CHG  1   3   1
M  CHG  1  12   1
M  END
> <s_m_source_file>
AV-unprocessed.smi

> <i_m_source_file_index>
3071

> <i_lp_mmshare_version>
43012

> <i_f3d_flags>
0

> <s_epik_input>
W0NIM11jMW5bY0hdW2NIXW4xW0NIMl1bQ0BASF0yW0NIMl1bQ0gyXVtDSDJdW05IXTI=

> <s_epik_cmdline>
J2VwaWtfcHl0aG9uJywgJy1waCcsICc3LjAnLCAnLXRuJywgJzgnLCAnLW1hJywgJzIwMCcsICctbWV0YWxfYmluZGluZycsICctaW1hZScsICc8aW5maWxlLm1hZT4nLCAnLW9tYWUnLCAnPG91dGZpbGUubWFlPic=

> <r_lp_tautomer_probability>
1

> <r_epik_Ionization_Penalty>
0.770167

> <r_epik_Ionization_Penalty_Charging>
0.000985251

> <r_epik_Ionization_Penalty_Neutral>
0.769181

> <r_epik_State_Penalty>
0.493256

> <r_epik_Charging_Adjusted_Penalty>
0.494241

> <i_epik_Tot_Q>
2

> <i_epik_Tot_abs_Q>
2

> <r_epik_Metal_State_Penalty>
4.24699

> <b_epik_Metal_Only>
0

> <s_lp_Force_Field>
OPLS_2005

> <r_lp_Energy>
34.2931

> <b_lp_Chiralities_Consistent>
1

> <s_lp_Variant>
AV-unprocessed.smi:3071-4

> <Gold.Version>
5.8.1

> <Gold.Id.Protein>
6NUR|6NUR_protein|mol2

> <Gold.PLP.Fitness>
42.0534

> <Gold.PLP.PLP>
-27.1662

> <Gold.PLP.part.hbond>
-2.0000

> <Gold.PLP.part.metal>
0.0000

> <Gold.PLP.part.buried>
-2.4879

> <Gold.PLP.part.nonpolar>
-22.1679

> <Gold.PLP.part.repulsive>
0.0119

> <Gold.PLP.ligand.clash>
0.0000

> <Gold.PLP.ligand.torsion>
0.0566

> <Gold.PLP.Chemscore.Hbond>
4.0000

> <Gold.PLP.Chemscore.CHOScore>
1.0000

> <Gold.PLP.Chemscore.Metal>
0.0000

> <Gold.Chemscore.Hbonds>
donor molecule, donor type, donor heavy atom, donor atom, acceptor molecule, acceptor atom, score
      L1  H     3    29       P1 10186  2.00
      L1  H    12    27       P1  7948  2.00
      L1  C     5    17       P1  7948  0.75

> <Gold.PLP.Chemscore.Internal.Correction>
0.0004

> <Gold.Rescore>
     Score         DG    S(hbond)    S(metal)    S(lipo)     H(rot)  DE(clash)    DE(int)     intcor
     14.78     -14.90       1.96        0.00      51.84       1.25       0.02       0.11       ----

> <Gold.Chemscore.Fitness>
14.7776

> <Gold.Chemscore.DG>
-14.9044

> <Gold.Chemscore.ZeroCoef>
-5.4800

> <Gold.Chemscore.Hbond>
1.9622

> <Gold.Chemscore.Metal>
0.0000

> <Gold.Chemscore.Lipo>
51.8358

> <Gold.Chemscore.Internal_Hbond>
0.0000

> <Gold.Chemscore.DEClash>
0.0161

> <Gold.Chemscore.DEInternal>
0.1107

> <Gold.Chemscore.Rot>
1.2477

> <Gold.Chemscore.Internal.Correction>
   9.000000E+99

> <Gold.Chemscore.Hbonds>
donor molecule, donor type, donor heavy atom, donor atom, acceptor molecule, acceptor atom, score
      L1  H     3    29       P1 10186  0.70
      L1  H    12    27       P1  7948  0.96

> <Gold.Chemscore.Hbond.Weighted>
-6.5537

> <Gold.Chemscore.Metal.Weighted>
-0.0000

> <Gold.Chemscore.Lipo.Weighted>
-6.0648

> <Gold.Chemscore.Internal_Hbond.Weighted>
0.0000

> <Gold.Chemscore.DEClash.Weighted>
0.0161

> <Gold.Chemscore.DEInternal.Weighted>
0.1107

> <Gold.Chemscore.Rot.Weighted>
3.1941

> <Gold.Chemscore.Internal.Correction.Weighted>
   9.000000E+99

> <Gold.Protein.RotatedTorsions>
[ 6907 6896 6895 6894 ] final  163.80 input  -60.11 | X-H torsion
[ 7974 7965 7964 7962 ] final  -17.18 input  175.53 | X-H torsion
[ 8008 7997 7996 7995 ] final   91.73 input   59.86 | X-H torsion
[ 10167 10162 10161 10158 ] final   14.27 input  -65.29 | X-H torsion
[ 10718 10713 10712 10709 ] final -125.00 input   66.30 | X-H torsion
[ 10763 10752 10751 10750 ] final -168.66 input  -60.55 | X-H torsion
[ 11005 11000 10999 10996 ] final  -31.27 input  -57.11 | X-H torsion

> <Gold.Protein.ActiveResidues>
 VAL166  LYS551  ARG553  GLY616  TRP617  ASP618  TYR619  PRO620  LYS621  CYS622 
 ASP623  PHE694  ASN695  SER759  ASP760  ASP761  ALA762  ILE779  LEU786  VAL792 
 PHE793  MET794  SER795  GLU796  ALA797  LYS798  CYS799  TRP800  GLU811  SER814 

> <Gold.Protein.RotatedAtoms>
  151.9197  133.3582  159.3892 H   0  0  0  0  0  0  0  0  0  0  0  0  # atno 6907 bound_to 6896
  150.7040  134.4648  159.5407 H   0  0  0  0  0  0  0  0  0  0  0  0  # atno 6908 bound_to 6896
  152.2269  134.8360  160.0529 H   0  0  0  0  0  0  0  0  0  0  0  0  # atno 6909 bound_to 6896
  146.1953  140.3742  142.8443 H   0  0  0  0  0  0  0  0  0  0  0  0  # atno 7974 bound_to 7965
  156.0272  140.3334  155.7101 H   0  0  0  0  0  0  0  0  0  0  0  0  # atno 8008 bound_to 7997
  155.5937  140.0649  157.2769 H   0  0  0  0  0  0  0  0  0  0  0  0  # atno 8009 bound_to 7997
  154.4339  140.1822  156.1089 H   0  0  0  0  0  0  0  0  0  0  0  0  # atno 8010 bound_to 7997
  140.5947  143.8725  150.6907 H   0  0  0  0  0  0  0  0  0  0  0  0  # atno 10167 bound_to 10162
  156.1637  130.6619  151.0085 H   0  0  0  0  0  0  0  0  0  0  0  0  # atno 10718 bound_to 10713
  154.6606  135.2924  154.9872 H   0  0  0  0  0  0  0  0  0  0  0  0  # atno 10763 bound_to 10752
  154.0933  135.6587  153.4860 H   0  0  0  0  0  0  0  0  0  0  0  0  # atno 10764 bound_to 10752
  153.0427  135.5225  154.7555 H   0  0  0  0  0  0  0  0  0  0  0  0  # atno 10765 bound_to 10752
  140.9453  133.7253  156.1138 H   0  0  0  0  0  0  0  0  0  0  0  0  # atno 11005 bound_to 11000
  144.8568  140.7082  143.6133 LP  0  0  0  0  0  0  0  0  0  0  0  0  # atno 17320 bound_to 7965
  145.3663  139.1669  143.4356 LP  0  0  0  0  0  0  0  0  0  0  0  0  # atno 17321 bound_to 7965
  140.2257  143.3775  152.1607 LP  0  0  0  0  0  0  0  0  0  0  0  0  # atno 17342 bound_to 10162
  139.5250  144.7091  151.5263 LP  0  0  0  0  0  0  0  0  0  0  0  0  # atno 17343 bound_to 10162
  157.6752  131.0852  150.7513 LP  0  0  0  0  0  0  0  0  0  0  0  0  # atno 17370 bound_to 10713
  156.7575  130.4788  149.5444 LP  0  0  0  0  0  0  0  0  0  0  0  0  # atno 17371 bound_to 10713
  140.7677  134.3868  157.5514 LP  0  0  0  0  0  0  0  0  0  0  0  0  # atno 17394 bound_to 11000
  139.8832  134.9002  156.2784 LP  0  0  0  0  0  0  0  0  0  0  0  0  # atno 17395 bound_to 11000

$$$$
