AV-unprocessed.smi:1756|AV-procd|sdf|7074|dock4
  -GOLD-   22720 8293D 1   1.00000     0.00000
 Structure written by MMmdl.
 37 38  0  0  0  0  0  0  0  0  2 V2000
  153.4410  140.2543  158.6031 O   0  0  0  0  0  0  0  0  0  0  0  0
  152.3478  139.6888  158.5979 C   0  0  0  0  0  0  0  0  0  0  0  0
  151.2399  140.2364  158.0783 N   0  0  0  0  0  0  0  0  0  0  0  0
  151.1564  141.5525  157.4527 C   0  0  0  0  0  0  0  0  0  0  0  0
  151.9545  142.6158  158.2290 C   0  0  1  0  0  0  0  0  0  0  0  0
  151.6740  144.0605  157.7620 C   0  0  0  0  0  0  0  0  0  0  0  0
  152.4176  145.0701  158.6435 C   0  0  0  0  0  0  0  0  0  0  0  0
  152.0923  144.8104  160.1174 C   0  0  0  0  0  0  0  0  0  0  0  0
  152.3528  143.3375  160.4682 C   0  0  0  0  0  0  0  0  0  0  0  0
  151.5982  142.4926  159.6045 O   0  0  0  0  0  0  0  0  0  0  0  0
  152.0802  138.4763  159.1151 N   0  0  0  0  0  0  0  0  0  0  0  0
  152.9401  137.5578  159.7416 C   0  0  0  0  0  0  0  0  0  0  0  0
  153.4992  137.7249  160.9726 C   0  0  0  0  0  0  0  0  0  0  0  0
  154.3960  136.7391  161.5626 C   0  0  0  0  0  0  0  0  0  0  0  0
  154.9561  136.8475  162.9700 C   0  0  0  0  0  0  0  0  0  0  0  0
  155.7607  135.8213  163.2480 F   0  0  0  0  0  0  0  0  0  0  0  0
  155.6597  137.9721  163.0925 F   0  0  0  0  0  0  0  0  0  0  0  0
  153.9756  136.8702  163.8729 F   0  0  0  0  0  0  0  0  0  0  0  0
  154.5881  135.6461  160.7399 C   0  0  0  0  0  0  0  0  0  0  0  0
  154.0960  135.4156  159.5031 N   0  5  0  0  0  0  0  0  0  0  0  0
  153.2596  136.3448  158.9605 C   0  0  0  0  0  0  0  0  0  0  0  0
  152.7703  136.1937  157.8404 O   0  0  0  0  0  0  0  0  0  0  0  0
  150.3846  139.7022  158.1233 H   0  0  0  0  0  0  0  0  0  0  0  0
  151.4778  141.5179  156.4103 H   0  0  0  0  0  0  0  0  0  0  0  0
  150.1033  141.8344  157.4343 H   0  0  0  0  0  0  0  0  0  0  0  0
  153.0191  142.3982  158.1245 H   0  0  0  0  0  0  0  0  0  0  0  0
  151.9766  144.1957  156.7236 H   0  0  0  0  0  0  0  0  0  0  0  0
  150.6021  144.2578  157.8028 H   0  0  0  0  0  0  0  0  0  0  0  0
  153.4922  144.9756  158.4815 H   0  0  0  0  0  0  0  0  0  0  0  0
  152.1463  146.0889  158.3663 H   0  0  0  0  0  0  0  0  0  0  0  0
  152.6876  145.4629  160.7565 H   0  0  0  0  0  0  0  0  0  0  0  0
  151.0461  145.0508  160.3101 H   0  0  0  0  0  0  0  0  0  0  0  0
  153.4148  143.0999  160.3914 H   0  0  0  0  0  0  0  0  0  0  0  0
  152.0572  143.1401  161.4988 H   0  0  0  0  0  0  0  0  0  0  0  0
  151.1156  138.1801  159.0830 H   0  0  0  0  0  0  0  0  0  0  0  0
  153.3098  138.6123  161.5528 H   0  0  0  0  0  0  0  0  0  0  0  0
  155.2305  134.8314  161.1373 H   0  0  0  0  0  0  0  0  0  0  0  0
  1  2  2  0  0  0  0
  2  3  1  0  0  0  0
  2 11  1  0  0  0  0
  3  4  1  0  0  0  0
  3 23  1  0  0  0  0
  4  5  1  0  0  0  0
  4 24  1  0  0  0  0
  4 25  1  0  0  0  0
  5 10  1  0  0  0  0
  5  6  1  0  0  0  0
  5 26  1  0  0  0  0
  6  7  1  0  0  0  0
  6 27  1  0  0  0  0
  6 28  1  0  0  0  0
  7  8  1  0  0  0  0
  7 29  1  0  0  0  0
  7 30  1  0  0  0  0
  8  9  1  0  0  0  0
  8 31  1  0  0  0  0
  8 32  1  0  0  0  0
  9 10  1  0  0  0  0
  9 33  1  0  0  0  0
  9 34  1  0  0  0  0
 11 12  1  0  0  0  0
 11 35  1  0  0  0  0
 12 21  1  0  0  0  0
 12 13  2  0  0  0  0
 13 14  1  0  0  0  0
 13 36  1  0  0  0  0
 14 15  1  0  0  0  0
 14 19  2  0  0  0  0
 15 16  1  0  0  0  0
 15 17  1  0  0  0  0
 15 18  1  0  0  0  0
 19 20  1  0  0  0  0
 19 37  1  0  0  0  0
 20 21  1  0  0  0  0
 21 22  2  0  0  0  0
M  CHG  1  20  -1
M  END
> <s_m_source_file>
AV-unprocessed.smi

> <i_m_source_file_index>
1756

> <i_lp_mmshare_version>
43012

> <i_f3d_flags>
0

> <s_epik_input>
Tz1jMVtuSF1bY0hdYyhDKEYpKEYpRilbY0hdYzFbTkhdQyg9TylbTkhdW0NIMl1bQ0BASF0yW0NIMl1bQ0gyXVtDSDJdW0NIMl1PMg==

> <s_epik_cmdline>
J2VwaWtfcHl0aG9uJywgJy1waCcsICc3LjAnLCAnLXRuJywgJzgnLCAnLW1hJywgJzIwMCcsICctbWV0YWxfYmluZGluZycsICctaW1hZScsICc8aW5maWxlLm1hZT4nLCAnLW9tYWUnLCAnPG91dGZpbGUubWFlPic=

> <r_lp_tautomer_probability>
1

> <r_epik_Ionization_Penalty>
3.16985

> <r_epik_Ionization_Penalty_Charging>
0.174782

> <r_epik_Ionization_Penalty_Neutral>
2.99507

> <r_epik_State_Penalty>
2.99125

> <r_epik_Charging_Adjusted_Penalty>
3.16603

> <i_epik_Tot_Q>
-1

> <i_epik_Tot_abs_Q>
1

> <r_epik_Metal_State_Penalty>
0.453096

> <b_epik_Metal_Only>
1

> <s_lp_Force_Field>
OPLS_2005

> <r_lp_Energy>
20.8362

> <b_lp_Chiralities_Consistent>
1

> <s_lp_Variant>
AV-unprocessed.smi:1756-4

> <Gold.Version>
5.8.1

> <Gold.Id.Protein>
6NUR|6NUR_protein|mol2

> <Gold.PLP.Fitness>
44.7240

> <Gold.PLP.PLP>
-40.0837

> <Gold.PLP.part.hbond>
-2.2286

> <Gold.PLP.part.metal>
0.0000

> <Gold.PLP.part.buried>
-2.3871

> <Gold.PLP.part.nonpolar>
-34.9317

> <Gold.PLP.part.repulsive>
0.1901

> <Gold.PLP.ligand.clash>
0.0000

> <Gold.PLP.ligand.torsion>
0.9117

> <Gold.PLP.Chemscore.Hbond>
2.1344

> <Gold.PLP.Chemscore.CHOScore>
0.0000

> <Gold.PLP.Chemscore.Metal>
0.0000

> <Gold.Chemscore.Hbonds>
donor molecule, donor type, donor heavy atom, donor atom, acceptor molecule, acceptor atom, score
      P1  H  6896  6907       L1    20  1.02
      P1  H  7997  8008       L1     1  0.91

> <Gold.PLP.Chemscore.Internal.Correction>
0.0604

> <Gold.Rescore>
     Score         DG    S(hbond)    S(metal)    S(lipo)     H(rot)  DE(clash)    DE(int)     intcor
     14.21     -16.51       0.91        0.00      97.23       1.32       0.24       2.06       ----

> <Gold.Chemscore.Fitness>
14.2091

> <Gold.Chemscore.DG>
-16.5111

> <Gold.Chemscore.ZeroCoef>
-5.4800

> <Gold.Chemscore.Hbond>
0.9121

> <Gold.Chemscore.Metal>
0.0000

> <Gold.Chemscore.Lipo>
97.2319

> <Gold.Chemscore.Internal_Hbond>
0.0000

> <Gold.Chemscore.DEClash>
0.2372

> <Gold.Chemscore.DEInternal>
2.0648

> <Gold.Chemscore.Rot>
1.3248

> <Gold.Chemscore.Internal.Correction>
   9.000000E+99

> <Gold.Chemscore.Hbonds>
donor molecule, donor type, donor heavy atom, donor atom, acceptor molecule, acceptor atom, score
      P1  H  6896  6907       L1    20  0.01
      P1  H  7997  8008       L1     1  0.88

> <Gold.Chemscore.Hbond.Weighted>
-3.0465

> <Gold.Chemscore.Metal.Weighted>
-0.0000

> <Gold.Chemscore.Lipo.Weighted>
-11.3761

> <Gold.Chemscore.Internal_Hbond.Weighted>
0.0000

> <Gold.Chemscore.DEClash.Weighted>
0.2372

> <Gold.Chemscore.DEInternal.Weighted>
2.0648

> <Gold.Chemscore.Rot.Weighted>
3.3915

> <Gold.Chemscore.Internal.Correction.Weighted>
   9.000000E+99

> <Gold.Protein.RotatedTorsions>
[ 6907 6896 6895 6894 ] final   90.22 input  -60.11 | X-H torsion
[ 7974 7965 7964 7962 ] final  -21.05 input  175.53 | X-H torsion
[ 8008 7997 7996 7995 ] final  -96.17 input   59.86 | X-H torsion
[ 10167 10162 10161 10158 ] final  171.80 input  -65.29 | X-H torsion
[ 10718 10713 10712 10709 ] final  -50.03 input   66.30 | X-H torsion
[ 10763 10752 10751 10750 ] final  160.75 input  -60.55 | X-H torsion
[ 11005 11000 10999 10996 ] final  -49.66 input  -57.11 | X-H torsion

> <Gold.Protein.ActiveResidues>
 VAL166  LYS551  ARG553  GLY616  TRP617  ASP618  TYR619  PRO620  LYS621  CYS622 
 ASP623  PHE694  ASN695  SER759  ASP760  ASP761  ALA762  ILE779  LEU786  VAL792 
 PHE793  MET794  SER795  GLU796  ALA797  LYS798  CYS799  TRP800  GLU811  SER814 

> <Gold.Protein.RotatedAtoms>
  152.5443  134.1846  159.8648 H   0  0  0  0  0  0  0  0  0  0  0  0  # atno 6907 bound_to 6896
  151.1846  133.4697  159.2602 H   0  0  0  0  0  0  0  0  0  0  0  0  # atno 6908 bound_to 6896
  151.1144  135.0056  159.8564 H   0  0  0  0  0  0  0  0  0  0  0  0  # atno 6909 bound_to 6896
  146.1755  140.4287  142.8515 H   0  0  0  0  0  0  0  0  0  0  0  0  # atno 7974 bound_to 7965
  154.7710  140.0473  157.1051 H   0  0  0  0  0  0  0  0  0  0  0  0  # atno 8008 bound_to 7997
  154.9821  140.3102  155.4922 H   0  0  0  0  0  0  0  0  0  0  0  0  # atno 8009 bound_to 7997
  156.2921  140.2234  156.4920 H   0  0  0  0  0  0  0  0  0  0  0  0  # atno 8010 bound_to 7997
  139.5057  144.3445  151.9985 H   0  0  0  0  0  0  0  0  0  0  0  0  # atno 10167 bound_to 10162
  156.1838  130.4151  149.9469 H   0  0  0  0  0  0  0  0  0  0  0  0  # atno 10718 bound_to 10713
  154.2523  135.2771  155.2811 H   0  0  0  0  0  0  0  0  0  0  0  0  # atno 10763 bound_to 10752
  154.5454  135.5690  153.6879 H   0  0  0  0  0  0  0  0  0  0  0  0  # atno 10764 bound_to 10752
  152.9978  135.6261  154.2670 H   0  0  0  0  0  0  0  0  0  0  0  0  # atno 10765 bound_to 10752
  141.0772  133.6663  156.3617 H   0  0  0  0  0  0  0  0  0  0  0  0  # atno 11005 bound_to 11000
  144.8229  140.6579  143.6341 LP  0  0  0  0  0  0  0  0  0  0  0  0  # atno 17320 bound_to 7965
  145.4225  139.1562  143.4066 LP  0  0  0  0  0  0  0  0  0  0  0  0  # atno 17321 bound_to 7965
  140.2882  144.3783  150.6097 LP  0  0  0  0  0  0  0  0  0  0  0  0  # atno 17342 bound_to 10162
  140.5966  143.2167  151.7151 LP  0  0  0  0  0  0  0  0  0  0  0  0  # atno 17343 bound_to 10162
  156.7231  130.9014  151.3620 LP  0  0  0  0  0  0  0  0  0  0  0  0  # atno 17370 bound_to 10713
  157.6885  130.9210  150.0451 LP  0  0  0  0  0  0  0  0  0  0  0  0  # atno 17371 bound_to 10713
  140.5548  134.5992  157.5418 LP  0  0  0  0  0  0  0  0  0  0  0  0  # atno 17394 bound_to 11000
  139.9584  134.7495  156.0291 LP  0  0  0  0  0  0  0  0  0  0  0  0  # atno 17395 bound_to 11000

$$$$
