AV-unprocessed.smi:1801|AV-procd|sdf|7269|dock10
  -GOLD-   22720 8523D 1   1.00000     0.00000
 Structure written by MMmdl.
 37 38  0  0  0  0  0  0  0  0  3 V2000
  151.5874  139.9818  156.1792 C   0  0  0  0  0  0  0  0  0  0  0  0
  151.2231  139.3088  157.5129 C   0  0  2  0  0  0  0  0  0  0  0  0
  150.0685  138.3029  157.3049 C   0  0  0  0  0  0  0  0  0  0  0  0
  149.2629  138.1105  158.5080 N   0  0  0  0  0  0  0  0  0  0  0  0
  149.1414  136.9707  159.2032 C   0  0  0  0  0  0  0  0  0  0  0  0
  149.7085  135.9477  158.8131 O   0  0  0  0  0  0  0  0  0  0  0  0
  148.3825  137.0923  160.3150 N   0  5  0  0  0  0  0  0  0  0  0  0
  147.9650  135.9938  160.9660 C   0  0  0  0  0  0  0  0  0  0  0  0
  147.7199  134.8347  160.3344 N   0  0  0  0  0  0  0  0  0  0  0  0
  147.2938  133.8269  161.1890 N   0  0  0  0  0  0  0  0  0  0  0  0
  147.2200  134.2568  162.4484 C   0  0  0  0  0  0  0  0  0  0  0  0
  147.6617  135.9318  162.7046 S   0  0  0  0  0  0  0  0  0  0  0  0
  150.8943  140.3589  158.6004 C   0  0  0  0  0  0  0  0  0  0  0  0
  151.8372  141.5018  158.5842 N   0  3  0  0  0  0  0  0  0  0  0  0
  151.4011  142.6309  157.7379 C   0  0  0  0  0  0  0  0  0  0  0  0
  152.1175  143.8516  158.3055 C   0  0  0  0  0  0  0  0  0  0  0  0
  152.1068  143.5797  159.8058 C   0  0  0  0  0  0  0  0  0  0  0  0
  152.1813  142.0516  159.9194 C   0  0  0  0  0  0  0  0  0  0  0  0
  150.7562  140.5720  155.7924 H   0  0  0  0  0  0  0  0  0  0  0  0
  151.8454  139.2386  155.4241 H   0  0  0  0  0  0  0  0  0  0  0  0
  152.4456  140.6451  156.2874 H   0  0  0  0  0  0  0  0  0  0  0  0
  152.0956  138.7384  157.8317 H   0  0  0  0  0  0  0  0  0  0  0  0
  149.4075  138.6531  156.5117 H   0  0  0  0  0  0  0  0  0  0  0  0
  150.4576  137.3376  156.9767 H   0  0  0  0  0  0  0  0  0  0  0  0
  148.7665  138.9173  158.8577 H   0  0  0  0  0  0  0  0  0  0  0  0
  146.9005  133.5847  163.2307 H   0  0  0  0  0  0  0  0  0  0  0  0
  149.8783  140.7261  158.4480 H   0  0  0  0  0  0  0  0  0  0  0  0
  150.9124  139.9213  159.5993 H   0  0  0  0  0  0  0  0  0  0  0  0
  151.6329  142.4581  156.6865 H   0  0  0  0  0  0  0  0  0  0  0  0
  150.3218  142.7661  157.8291 H   0  0  0  0  0  0  0  0  0  0  0  0
  153.1449  143.8849  157.9397 H   0  0  0  0  0  0  0  0  0  0  0  0
  151.6325  144.7914  158.0398 H   0  0  0  0  0  0  0  0  0  0  0  0
  152.9198  144.0819  160.3309 H   0  0  0  0  0  0  0  0  0  0  0  0
  151.1670  143.9323  160.2337 H   0  0  0  0  0  0  0  0  0  0  0  0
  151.5094  141.6938  160.7018 H   0  0  0  0  0  0  0  0  0  0  0  0
  153.1895  141.7276  160.1792 H   0  0  0  0  0  0  0  0  0  0  0  0
  152.7022  141.1704  158.1820 H   0  0  0  0  0  0  0  0  0  0  0  0
  1  2  1  0  0  0  0
  1 19  1  0  0  0  0
  1 20  1  0  0  0  0
  1 21  1  0  0  0  0
  2  3  1  0  0  0  0
  2 13  1  0  0  0  0
  2 22  1  0  0  0  0
  3  4  1  0  0  0  0
  3 23  1  0  0  0  0
  3 24  1  0  0  0  0
  4  5  1  0  0  0  0
  4 25  1  0  0  0  0
  5  6  2  0  0  0  0
  5  7  1  0  0  0  0
  7  8  1  0  0  0  0
  8 12  1  0  0  0  0
  8  9  2  0  0  0  0
  9 10  1  0  0  0  0
 10 11  2  0  0  0  0
 11 12  1  0  0  0  0
 11 26  1  0  0  0  0
 13 14  1  0  0  0  0
 13 27  1  0  0  0  0
 13 28  1  0  0  0  0
 14 18  1  0  0  0  0
 14 15  1  0  0  0  0
 14 37  1  0  0  0  0
 15 16  1  0  0  0  0
 15 29  1  0  0  0  0
 15 30  1  0  0  0  0
 16 17  1  0  0  0  0
 16 31  1  0  0  0  0
 16 32  1  0  0  0  0
 17 18  1  0  0  0  0
 17 33  1  0  0  0  0
 17 34  1  0  0  0  0
 18 35  1  0  0  0  0
 18 36  1  0  0  0  0
M  CHG  1   7  -1
M  CHG  1  14   1
M  END
> <s_m_source_file>
AV-unprocessed.smi

> <i_m_source_file_index>
1801

> <i_lp_mmshare_version>
43012

> <i_f3d_flags>
0

> <s_epik_input>
W0NIMl0xW0NIMl1bQ0gyXVtDSDJdTjFbQ0gyXVtDQEhdKFtDSDNdKVtDSDJdW05IXUMoPU8pW05IXWMybm5bY0hdczI=

> <s_epik_cmdline>
J2VwaWtfcHl0aG9uJywgJy1waCcsICc3LjAnLCAnLXRuJywgJzgnLCAnLW1hJywgJzIwMCcsICctbWV0YWxfYmluZGluZycsICctaW1hZScsICc8aW5maWxlLm1hZT4nLCAnLW9tYWUnLCAnPG91dGZpbGUubWFlPic=

> <r_lp_tautomer_probability>
1

> <r_epik_Ionization_Penalty>
3.29721

> <r_epik_Ionization_Penalty_Charging>
3.25987

> <r_epik_Ionization_Penalty_Neutral>
0.0373399

> <r_epik_State_Penalty>
3.2571

> <r_epik_Charging_Adjusted_Penalty>
6.51697

> <i_epik_Tot_Q>
0

> <i_epik_Tot_abs_Q>
2

> <r_epik_Metal_State_Penalty>
0.477553

> <b_epik_Metal_Only>
1

> <s_lp_Force_Field>
OPLS_2005

> <r_lp_Energy>
22.4794

> <b_lp_Chiralities_Consistent>
1

> <s_lp_Variant>
AV-unprocessed.smi:1801-3

> <Gold.Version>
5.8.1

> <Gold.Id.Protein>
6NUR|6NUR_protein|mol2

> <Gold.PLP.Fitness>
44.3394

> <Gold.PLP.PLP>
-36.5205

> <Gold.PLP.part.hbond>
-3.0000

> <Gold.PLP.part.metal>
0.0000

> <Gold.PLP.part.buried>
-5.1082

> <Gold.PLP.part.nonpolar>
-30.5412

> <Gold.PLP.part.repulsive>
0.2823

> <Gold.PLP.ligand.clash>
0.0000

> <Gold.PLP.ligand.torsion>
1.1744

> <Gold.PLP.Chemscore.Hbond>
3.3367

> <Gold.PLP.Chemscore.CHOScore>
0.0000

> <Gold.PLP.Chemscore.Metal>
0.0000

> <Gold.Chemscore.Hbonds>
donor molecule, donor type, donor heavy atom, donor atom, acceptor molecule, acceptor atom, score
      P1  H  6896  6907       L1     6  1.00
      P1  H  6931  6943       L1     7  1.33
      P1  H  6934  6947       L1     7  0.26

> <Gold.PLP.Chemscore.Internal.Correction>
0.1575

> <Gold.Rescore>
     Score         DG    S(hbond)    S(metal)    S(lipo)     H(rot)  DE(clash)    DE(int)     intcor
     13.71     -16.29       2.03        0.00      76.49       1.93       0.01       2.58       ----

> <Gold.Chemscore.Fitness>
13.7088

> <Gold.Chemscore.DG>
-16.2926

> <Gold.Chemscore.ZeroCoef>
-5.4800

> <Gold.Chemscore.Hbond>
2.0344

> <Gold.Chemscore.Metal>
0.0000

> <Gold.Chemscore.Lipo>
76.4921

> <Gold.Chemscore.Internal_Hbond>
0.0000

> <Gold.Chemscore.DEClash>
0.0058

> <Gold.Chemscore.DEInternal>
2.5780

> <Gold.Chemscore.Rot>
1.9266

> <Gold.Chemscore.Internal.Correction>
   9.000000E+99

> <Gold.Chemscore.Hbonds>
donor molecule, donor type, donor heavy atom, donor atom, acceptor molecule, acceptor atom, score
      P1  H  6896  6907       L1     6  0.99
      P1  H  6931  6943       L1     7  0.19
      P1  H  6934  6947       L1     7  0.12

> <Gold.Chemscore.Hbond.Weighted>
-6.7951

> <Gold.Chemscore.Metal.Weighted>
-0.0000

> <Gold.Chemscore.Lipo.Weighted>
-8.9496

> <Gold.Chemscore.Internal_Hbond.Weighted>
0.0000

> <Gold.Chemscore.DEClash.Weighted>
0.0058

> <Gold.Chemscore.DEInternal.Weighted>
2.5780

> <Gold.Chemscore.Rot.Weighted>
4.9321

> <Gold.Chemscore.Internal.Correction.Weighted>
   9.000000E+99

> <Gold.Protein.RotatedTorsions>
[ 6907 6896 6895 6894 ] final  -70.73 input  -60.11 | X-H torsion
[ 7974 7965 7964 7962 ] final  -70.31 input  175.53 | X-H torsion
[ 8008 7997 7996 7995 ] final    0.98 input   59.86 | X-H torsion
[ 10167 10162 10161 10158 ] final  -31.38 input  -65.29 | X-H torsion
[ 10718 10713 10712 10709 ] final -153.89 input   66.30 | X-H torsion
[ 10763 10752 10751 10750 ] final    1.49 input  -60.55 | X-H torsion
[ 11005 11000 10999 10996 ] final    7.74 input  -57.11 | X-H torsion

> <Gold.Protein.ActiveResidues>
 VAL166  LYS551  ARG553  GLY616  TRP617  ASP618  TYR619  PRO620  LYS621  CYS622 
 ASP623  PHE694  ASN695  SER759  ASP760  ASP761  ALA762  ILE779  LEU786  VAL792 
 PHE793  MET794  SER795  GLU796  ALA797  LYS798  CYS799  TRP800  GLU811  SER814 

> <Gold.Protein.RotatedAtoms>
  150.7244  134.5410  159.5747 H   0  0  0  0  0  0  0  0  0  0  0  0  # atno 6907 bound_to 6896
  152.2921  134.7707  160.0385 H   0  0  0  0  0  0  0  0  0  0  0  0  # atno 6908 bound_to 6896
  151.8317  133.3374  159.3652 H   0  0  0  0  0  0  0  0  0  0  0  0  # atno 6909 bound_to 6896
  145.6925  140.9147  143.0774 H   0  0  0  0  0  0  0  0  0  0  0  0  # atno 7974 bound_to 7965
  154.6744  140.2619  155.6973 H   0  0  0  0  0  0  0  0  0  0  0  0  # atno 8008 bound_to 7997
  156.2672  140.2823  156.1188 H   0  0  0  0  0  0  0  0  0  0  0  0  # atno 8009 bound_to 7997
  155.1121  140.0376  157.2717 H   0  0  0  0  0  0  0  0  0  0  0  0  # atno 8010 bound_to 7997
  140.7237  143.3776  151.1661 H   0  0  0  0  0  0  0  0  0  0  0  0  # atno 10167 bound_to 10162
  156.4919  130.8351  151.2574 H   0  0  0  0  0  0  0  0  0  0  0  0  # atno 10718 bound_to 10713
  153.3074  135.6960  153.7147 H   0  0  0  0  0  0  0  0  0  0  0  0  # atno 10763 bound_to 10752
  153.6038  135.3457  155.2955 H   0  0  0  0  0  0  0  0  0  0  0  0  # atno 10764 bound_to 10752
  154.8566  135.4347  154.2202 H   0  0  0  0  0  0  0  0  0  0  0  0  # atno 10765 bound_to 10752
  140.5449  134.0339  155.7916 H   0  0  0  0  0  0  0  0  0  0  0  0  # atno 11005 bound_to 11000
  144.6992  139.8841  143.7449 LP  0  0  0  0  0  0  0  0  0  0  0  0  # atno 17320 bound_to 7965
  146.0869  139.3857  143.0430 LP  0  0  0  0  0  0  0  0  0  0  0  0  # atno 17321 bound_to 7965
  139.7358  143.9000  152.3034 LP  0  0  0  0  0  0  0  0  0  0  0  0  # atno 17342 bound_to 10162
  139.8805  144.7020  150.8883 LP  0  0  0  0  0  0  0  0  0  0  0  0  # atno 17343 bound_to 10162
  157.7473  131.0010  150.2949 LP  0  0  0  0  0  0  0  0  0  0  0  0  # atno 17370 bound_to 10713
  156.3418  130.3816  149.7402 LP  0  0  0  0  0  0  0  0  0  0  0  0  # atno 17371 bound_to 10713
  141.1206  133.9468  157.2737 LP  0  0  0  0  0  0  0  0  0  0  0  0  # atno 17394 bound_to 11000
  139.9485  135.0180  156.8924 LP  0  0  0  0  0  0  0  0  0  0  0  0  # atno 17395 bound_to 11000

$$$$
