AV-unprocessed.smi:2729|AV-procd|sdf|10526|dock8
  -GOLD-   2272014573D 1   1.00000     0.00000
 Structure written by MMmdl.
 33 34  0  0  0  0  0  0  0  0  1 V2000
  148.3447  140.2099  154.1248 C   0  0  0  0  0  0  0  0  0  0  0  0
  147.6485  141.3906  154.8336 C   0  0  1  0  0  0  0  0  0  0  0  0
  148.6229  142.1820  155.5976 N   0  0  0  0  0  0  0  0  0  0  0  0
  149.5184  141.7553  156.5027 C   0  0  0  0  0  0  0  0  0  0  0  0
  149.6439  140.5805  156.8458 O   0  0  0  0  0  0  0  0  0  0  0  0
  150.2635  142.7780  156.9550 N   0  0  0  0  0  0  0  0  0  0  0  0
  151.3040  142.7553  157.9221 C   0  0  0  0  0  0  0  0  0  0  0  0
  152.1095  143.8719  158.2526 C   0  0  0  0  0  0  0  0  0  0  0  0
  153.1242  143.7160  159.2162 C   0  0  0  0  0  0  0  0  0  0  0  0
  153.3018  142.4504  159.8078 C   0  0  0  0  0  0  0  0  0  0  0  0
  152.5506  141.3742  159.4927 N   0  0  0  0  0  0  0  0  0  0  0  0
  151.5799  141.5312  158.5675 C   0  0  0  0  0  0  0  0  0  0  0  0
  146.8716  142.2839  153.8300 C   0  0  0  0  0  0  0  0  0  0  0  0
  145.9002  143.1883  154.5976 C   0  0  0  0  0  0  0  0  0  0  0  0
  145.3674  142.2133  156.0515 S   0  0  0  0  0  0  0  0  0  0  0  0
  145.6792  142.9707  157.2733 O   0  0  0  0  0  0  0  0  0  0  0  0
  144.0199  141.6719  155.8182 O   0  0  0  0  0  0  0  0  0  0  0  0
  146.5983  140.8698  155.8357 C   0  0  0  0  0  0  0  0  0  0  0  0
  147.6204  139.5673  153.6233 H   0  0  0  0  0  0  0  0  0  0  0  0
  148.8944  139.5914  154.8349 H   0  0  0  0  0  0  0  0  0  0  0  0
  149.0490  140.5475  153.3647 H   0  0  0  0  0  0  0  0  0  0  0  0
  148.6259  143.1713  155.3959 H   0  0  0  0  0  0  0  0  0  0  0  0
  150.1038  143.6720  156.5138 H   0  0  0  0  0  0  0  0  0  0  0  0
  151.9818  144.8333  157.7803 H   0  0  0  0  0  0  0  0  0  0  0  0
  153.7560  144.5475  159.4916 H   0  0  0  0  0  0  0  0  0  0  0  0
  154.0719  142.2969  160.5493 H   0  0  0  0  0  0  0  0  0  0  0  0
  151.0009  140.6484  158.3383 H   0  0  0  0  0  0  0  0  0  0  0  0
  147.5224  142.8636  153.1759 H   0  0  0  0  0  0  0  0  0  0  0  0
  146.2839  141.6400  153.1741 H   0  0  0  0  0  0  0  0  0  0  0  0
  146.4065  144.0847  154.9564 H   0  0  0  0  0  0  0  0  0  0  0  0
  145.0363  143.4878  154.0044 H   0  0  0  0  0  0  0  0  0  0  0  0
  146.0658  140.0090  155.4296 H   0  0  0  0  0  0  0  0  0  0  0  0
  147.0146  140.5798  156.8010 H   0  0  0  0  0  0  0  0  0  0  0  0
  1  2  1  0  0  0  0
  1 19  1  0  0  0  0
  1 20  1  0  0  0  0
  1 21  1  0  0  0  0
  2 18  1  0  0  0  0
  2  3  1  0  0  0  0
  2 13  1  0  0  0  0
  3  4  1  0  0  0  0
  3 22  1  0  0  0  0
  4  5  2  0  0  0  0
  4  6  1  0  0  0  0
  6  7  1  0  0  0  0
  6 23  1  0  0  0  0
  7 12  1  0  0  0  0
  7  8  2  0  0  0  0
  8  9  1  0  0  0  0
  8 24  1  0  0  0  0
  9 10  2  0  0  0  0
  9 25  1  0  0  0  0
 10 11  1  0  0  0  0
 10 26  1  0  0  0  0
 11 12  2  0  0  0  0
 12 27  1  0  0  0  0
 13 14  1  0  0  0  0
 13 28  1  0  0  0  0
 13 29  1  0  0  0  0
 14 15  1  0  0  0  0
 14 30  1  0  0  0  0
 14 31  1  0  0  0  0
 15 16  2  0  0  0  0
 15 17  2  0  0  0  0
 15 18  1  0  0  0  0
 18 32  1  0  0  0  0
 18 33  1  0  0  0  0
M  END
> <s_m_source_file>
AV-unprocessed.smi

> <i_m_source_file_index>
2729

> <i_lp_mmshare_version>
43012

> <i_f3d_flags>
0

> <s_epik_input>
Tz1TKD1PKShbQ0gyXTEpW0NIMl1bQ0gyXVtDQEBdMShbQ0gzXSlbTkhdQyg9TylbTkhdYzJbY0hdW2NIXVtjSF1uW2NIXTI=

> <s_epik_cmdline>
J2VwaWtfcHl0aG9uJywgJy1waCcsICc3LjAnLCAnLXRuJywgJzgnLCAnLW1hJywgJzIwMCcsICctbWV0YWxfYmluZGluZycsICctaW1hZScsICc8aW5maWxlLm1hZT4nLCAnLW9tYWUnLCAnPG91dGZpbGUubWFlPic=

> <r_epik_Ionization_Penalty>
0.00438887

> <r_epik_Ionization_Penalty_Charging>
0

> <r_epik_Ionization_Penalty_Neutral>
0.00438887

> <r_epik_State_Penalty>
0.00314315

> <r_epik_Charging_Adjusted_Penalty>
0.00314315

> <i_epik_Tot_Q>
0

> <i_epik_Tot_abs_Q>
0

> <r_epik_Metal_State_Penalty>
-0

> <b_epik_Metal_Only>
0

> <s_lp_Force_Field>
OPLS_2005

> <r_lp_Energy>
5.02931

> <b_lp_Chiralities_Consistent>
1

> <s_lp_Variant>
AV-unprocessed.smi:2729-1

> <Gold.Version>
5.8.1

> <Gold.Id.Protein>
6NUR|6NUR_protein|mol2

> <Gold.PLP.Fitness>
39.1331

> <Gold.PLP.PLP>
-33.4919

> <Gold.PLP.part.hbond>
-2.0000

> <Gold.PLP.part.metal>
0.0000

> <Gold.PLP.part.buried>
-4.8283

> <Gold.PLP.part.nonpolar>
-26.4008

> <Gold.PLP.part.repulsive>
0.4347

> <Gold.PLP.ligand.clash>
0.0000

> <Gold.PLP.ligand.torsion>
0.0791

> <Gold.PLP.Chemscore.Hbond>
1.9280

> <Gold.PLP.Chemscore.CHOScore>
0.0000

> <Gold.PLP.Chemscore.Metal>
0.0000

> <Gold.Chemscore.Hbonds>
donor molecule, donor type, donor heavy atom, donor atom, acceptor molecule, acceptor atom, score
      L1  H     3    22       P1  8028  1.00
      L1  H     6    23       P1  8028  0.93

> <Gold.PLP.Chemscore.Internal.Correction>
0.0153

> <Gold.Rescore>
     Score         DG    S(hbond)    S(metal)    S(lipo)     H(rot)  DE(clash)    DE(int)     intcor
     17.53     -19.03       1.95        0.00      82.16       1.00       0.04       1.46       ----

> <Gold.Chemscore.Fitness>
17.5343

> <Gold.Chemscore.DG>
-19.0336

> <Gold.Chemscore.ZeroCoef>
-5.4800

> <Gold.Chemscore.Hbond>
1.9463

> <Gold.Chemscore.Metal>
0.0000

> <Gold.Chemscore.Lipo>
82.1619

> <Gold.Chemscore.Internal_Hbond>
0.0000

> <Gold.Chemscore.DEClash>
0.0440

> <Gold.Chemscore.DEInternal>
1.4552

> <Gold.Chemscore.Rot>
1.0000

> <Gold.Chemscore.Internal.Correction>
   9.000000E+99

> <Gold.Chemscore.Hbonds>
donor molecule, donor type, donor heavy atom, donor atom, acceptor molecule, acceptor atom, score
      L1  H     3    22       P1  8028  0.97
      L1  H     6    23       P1  8028  0.90

> <Gold.Chemscore.Hbond.Weighted>
-6.5006

> <Gold.Chemscore.Metal.Weighted>
-0.0000

> <Gold.Chemscore.Lipo.Weighted>
-9.6129

> <Gold.Chemscore.Internal_Hbond.Weighted>
0.0000

> <Gold.Chemscore.DEClash.Weighted>
0.0440

> <Gold.Chemscore.DEInternal.Weighted>
1.4552

> <Gold.Chemscore.Rot.Weighted>
2.5600

> <Gold.Chemscore.Internal.Correction.Weighted>
   9.000000E+99

> <Gold.Protein.RotatedTorsions>
[ 6907 6896 6895 6894 ] final  107.96 input  -60.11 | X-H torsion
[ 7974 7965 7964 7962 ] final -161.31 input  175.53 | X-H torsion
[ 8008 7997 7996 7995 ] final -124.10 input   59.86 | X-H torsion
[ 10167 10162 10161 10158 ] final   80.83 input  -65.29 | X-H torsion
[ 10718 10713 10712 10709 ] final   43.02 input   66.30 | X-H torsion
[ 10763 10752 10751 10750 ] final   46.88 input  -60.55 | X-H torsion
[ 11005 11000 10999 10996 ] final  159.63 input  -57.11 | X-H torsion

> <Gold.Protein.ActiveResidues>
 VAL166  LYS551  ARG553  GLY616  TRP617  ASP618  TYR619  PRO620  LYS621  CYS622 
 ASP623  PHE694  ASN695  SER759  ASP760  ASP761  ALA762  ILE779  LEU786  VAL792 
 PHE793  MET794  SER795  GLU796  ALA797  LYS798  CYS799  TRP800  GLU811  SER814 

> <Gold.Protein.RotatedAtoms>
  152.5132  133.9158  159.7509 H   0  0  0  0  0  0  0  0  0  0  0  0  # atno 6907 bound_to 6896
  150.9541  133.6508  159.2773 H   0  0  0  0  0  0  0  0  0  0  0  0  # atno 6908 bound_to 6896
  151.3777  135.0939  159.9538 H   0  0  0  0  0  0  0  0  0  0  0  0  # atno 6909 bound_to 6896
  144.7395  140.3416  143.6133 H   0  0  0  0  0  0  0  0  0  0  0  0  # atno 7974 bound_to 7965
  155.1914  140.0413  157.2901 H   0  0  0  0  0  0  0  0  0  0  0  0  # atno 8008 bound_to 7997
  154.6136  140.2483  155.7609 H   0  0  0  0  0  0  0  0  0  0  0  0  # atno 8009 bound_to 7997
  156.2393  140.2909  156.0411 H   0  0  0  0  0  0  0  0  0  0  0  0  # atno 8010 bound_to 7997
  139.9456  144.6060  150.8210 H   0  0  0  0  0  0  0  0  0  0  0  0  # atno 10167 bound_to 10162
  157.4113  130.7916  149.7433 H   0  0  0  0  0  0  0  0  0  0  0  0  # atno 10718 bound_to 10713
  152.9805  135.5994  154.3672 H   0  0  0  0  0  0  0  0  0  0  0  0  # atno 10763 bound_to 10752
  154.3349  135.2768  155.2455 H   0  0  0  0  0  0  0  0  0  0  0  0  # atno 10764 bound_to 10752
  154.4562  135.5977  153.6280 H   0  0  0  0  0  0  0  0  0  0  0  0  # atno 10765 bound_to 10752
  140.1981  134.8358  157.2987 H   0  0  0  0  0  0  0  0  0  0  0  0  # atno 11005 bound_to 11000
  145.7368  139.1752  143.2398 LP  0  0  0  0  0  0  0  0  0  0  0  0  # atno 17320 bound_to 7965
  146.1164  140.7364  142.9478 LP  0  0  0  0  0  0  0  0  0  0  0  0  # atno 17321 bound_to 7965
  140.7598  143.3137  151.2784 LP  0  0  0  0  0  0  0  0  0  0  0  0  # atno 17342 bound_to 10162
  139.6669  144.0089  152.2729 LP  0  0  0  0  0  0  0  0  0  0  0  0  # atno 17343 bound_to 10162
  155.9851  130.3985  150.3275 LP  0  0  0  0  0  0  0  0  0  0  0  0  # atno 17370 bound_to 10713
  157.1414  131.0297  151.2926 LP  0  0  0  0  0  0  0  0  0  0  0  0  # atno 17371 bound_to 10713
  140.2085  134.4168  155.7625 LP  0  0  0  0  0  0  0  0  0  0  0  0  # atno 17394 bound_to 11000
  141.2227  133.7106  156.8299 LP  0  0  0  0  0  0  0  0  0  0  0  0  # atno 17395 bound_to 11000

$$$$
