AV-unprocessed.smi:419|AV-procd|sdf|2530|dock9
  -GOLD-   2262022483D 1   1.00000     0.00000
 Structure written by MMmdl.
 44 46  0  0  0  0  0  0  0  0  1 V2000
  143.2909  146.4890  155.1115 C   0  0  0  0  0  0  0  0  0  0  0  0
  144.1248  145.8938  154.1280 O   0  0  0  0  0  0  0  0  0  0  0  0
  144.9155  144.8298  154.5059 C   0  0  0  0  0  0  0  0  0  0  0  0
  145.7347  144.2544  153.5150 C   0  0  0  0  0  0  0  0  0  0  0  0
  146.5732  143.1645  153.8161 C   0  0  0  0  0  0  0  0  0  0  0  0
  146.6136  142.6233  155.1160 C   0  0  0  0  0  0  0  0  0  0  0  0
  147.4629  141.5578  155.3258 O   0  0  0  0  0  0  0  0  0  0  0  0
  148.6389  141.4680  154.5316 C   0  0  0  0  0  0  0  0  0  0  0  0
  149.8604  141.3692  155.4602 C   0  0  2  0  0  0  0  0  0  0  0  0
  150.7704  140.4671  154.8625 O   0  0  0  0  0  0  0  0  0  0  0  0
  149.4813  140.8060  156.8454 C   0  0  0  0  0  0  0  0  0  0  0  0
  150.6548  140.6196  157.6978 N   0  0  0  0  0  0  0  0  0  0  0  0
  151.1556  139.4380  158.1309 C   0  0  0  0  0  0  0  0  0  0  0  0
  150.6973  138.3242  157.8765 O   0  0  0  0  0  0  0  0  0  0  0  0
  152.2461  139.6973  158.8895 N   0  0  0  0  0  0  0  0  0  0  0  0
  153.1030  138.7245  159.5564 C   0  0  0  0  0  0  0  0  0  0  0  0
  152.4508  141.0819  158.9420 C   0  0  0  0  0  0  0  0  0  0  0  0
  153.4383  141.8437  159.5895 C   0  0  0  0  0  0  0  0  0  0  0  0
  153.3654  143.2493  159.4480 C   0  0  0  0  0  0  0  0  0  0  0  0
  152.3320  143.8501  158.6830 C   0  0  0  0  0  0  0  0  0  0  0  0
  151.3510  143.0583  158.0408 C   0  0  0  0  0  0  0  0  0  0  0  0
  151.4485  141.6642  158.1947 C   0  0  0  0  0  0  0  0  0  0  0  0
  145.7916  143.1985  156.1162 C   0  0  0  0  0  0  0  0  0  0  0  0
  144.9524  144.2889  155.8148 C   0  0  0  0  0  0  0  0  0  0  0  0
  142.7326  147.3096  154.6612 H   0  0  0  0  0  0  0  0  0  0  0  0
  143.8765  146.9017  155.9342 H   0  0  0  0  0  0  0  0  0  0  0  0
  142.5666  145.7748  155.5052 H   0  0  0  0  0  0  0  0  0  0  0  0
  145.7211  144.6536  152.5114 H   0  0  0  0  0  0  0  0  0  0  0  0
  147.1933  142.7400  153.0402 H   0  0  0  0  0  0  0  0  0  0  0  0
  148.5711  140.5626  153.9263 H   0  0  0  0  0  0  0  0  0  0  0  0
  148.7337  142.3172  153.8520 H   0  0  0  0  0  0  0  0  0  0  0  0
  150.3205  142.3531  155.5633 H   0  0  0  0  0  0  0  0  0  0  0  0
  150.8524  139.7113  155.4241 H   0  0  0  0  0  0  0  0  0  0  0  0
  148.8175  141.5049  157.3568 H   0  0  0  0  0  0  0  0  0  0  0  0
  148.9115  139.8809  156.7518 H   0  0  0  0  0  0  0  0  0  0  0  0
  153.2414  138.9960  160.6031 H   0  0  0  0  0  0  0  0  0  0  0  0
  154.0820  138.6967  159.0778 H   0  0  0  0  0  0  0  0  0  0  0  0
  152.6815  137.7189  159.5257 H   0  0  0  0  0  0  0  0  0  0  0  0
  154.2206  141.3786  160.1710 H   0  0  0  0  0  0  0  0  0  0  0  0
  154.1051  143.8725  159.9287 H   0  0  0  0  0  0  0  0  0  0  0  0
  152.2935  144.9253  158.5898 H   0  0  0  0  0  0  0  0  0  0  0  0
  150.5620  143.5118  157.4595 H   0  0  0  0  0  0  0  0  0  0  0  0
  145.7856  142.8217  157.1274 H   0  0  0  0  0  0  0  0  0  0  0  0
  144.3447  144.6938  156.6096 H   0  0  0  0  0  0  0  0  0  0  0  0
  1  2  1  0  0  0  0
  1 25  1  0  0  0  0
  1 26  1  0  0  0  0
  1 27  1  0  0  0  0
  2  3  1  0  0  0  0
  3 24  1  0  0  0  0
  3  4  2  0  0  0  0
  4  5  1  0  0  0  0
  4 28  1  0  0  0  0
  5  6  2  0  0  0  0
  5 29  1  0  0  0  0
  6  7  1  0  0  0  0
  6 23  1  0  0  0  0
  7  8  1  0  0  0  0
  8  9  1  0  0  0  0
  8 30  1  0  0  0  0
  8 31  1  0  0  0  0
  9 10  1  0  0  0  0
  9 11  1  0  0  0  0
  9 32  1  0  0  0  0
 10 33  1  0  0  0  0
 11 12  1  0  0  0  0
 11 34  1  0  0  0  0
 11 35  1  0  0  0  0
 12 22  1  0  0  0  0
 12 13  1  0  0  0  0
 13 14  2  0  0  0  0
 13 15  1  0  0  0  0
 15 16  1  0  0  0  0
 15 17  1  0  0  0  0
 16 36  1  0  0  0  0
 16 37  1  0  0  0  0
 16 38  1  0  0  0  0
 17 22  2  0  0  0  0
 17 18  1  0  0  0  0
 18 19  2  0  0  0  0
 18 39  1  0  0  0  0
 19 20  1  0  0  0  0
 19 40  1  0  0  0  0
 20 21  2  0  0  0  0
 20 41  1  0  0  0  0
 21 22  1  0  0  0  0
 21 42  1  0  0  0  0
 23 24  2  0  0  0  0
 23 43  1  0  0  0  0
 24 44  1  0  0  0  0
M  END
> <s_m_source_file>
AV-unprocessed.smi

> <i_m_source_file_index>
419

> <i_lp_mmshare_version>
43012

> <i_f3d_flags>
0

> <s_epik_input>
W0NIM11PYzFbY0hdW2NIXWMoW2NIXVtjSF0xKU9bQ0gyXVtDQEhdKFtPSF0pW0NIMl1uKGMoPU8pbjJbQ0gzXSljKGMyMylbY0hdW2NIXVtjSF1bY0hdMw==

> <s_epik_cmdline>
J2VwaWtfcHl0aG9uJywgJy1waCcsICc3LjAnLCAnLXRuJywgJzgnLCAnLW1hJywgJzIwMCcsICctbWV0YWxfYmluZGluZycsICctaW1hZScsICc8aW5maWxlLm1hZT4nLCAnLW9tYWUnLCAnPG91dGZpbGUubWFlPic=

> <r_lp_tautomer_probability>
1

> <r_epik_Ionization_Penalty>
2.40131e-06

> <r_epik_Ionization_Penalty_Charging>
2.01037e-09

> <r_epik_Ionization_Penalty_Neutral>
2.3993e-06

> <r_epik_State_Penalty>
-0

> <r_epik_Charging_Adjusted_Penalty>
2.01037e-09

> <i_epik_Tot_Q>
0

> <i_epik_Tot_abs_Q>
0

> <r_epik_Metal_State_Penalty>
-0

> <b_epik_Metal_Only>
0

> <s_lp_Force_Field>
OPLS_2005

> <r_lp_Energy>
51.0107

> <b_lp_Chiralities_Consistent>
1

> <s_lp_Variant>
AV-unprocessed.smi:419-1

> <Gold.Version>
5.8.1

> <Gold.Id.Protein>
6NUR|6NUR_protein|mol2

> <Gold.PLP.Fitness>
52.1403

> <Gold.PLP.PLP>
-51.6482

> <Gold.PLP.part.hbond>
-1.8187

> <Gold.PLP.part.metal>
0.0000

> <Gold.PLP.part.buried>
-8.8073

> <Gold.PLP.part.nonpolar>
-40.9027

> <Gold.PLP.part.repulsive>
0.1819

> <Gold.PLP.ligand.clash>
0.0000

> <Gold.PLP.ligand.torsion>
1.2987

> <Gold.PLP.Chemscore.Hbond>
1.0000

> <Gold.PLP.Chemscore.CHOScore>
0.0000

> <Gold.PLP.Chemscore.Metal>
0.0000

> <Gold.Chemscore.Hbonds>
donor molecule, donor type, donor heavy atom, donor atom, acceptor molecule, acceptor atom, score
      P1  H  7989  7998       L1    10  1.00

> <Gold.PLP.Chemscore.Internal.Correction>
0.0896

> <Gold.Rescore>
     Score         DG    S(hbond)    S(metal)    S(lipo)     H(rot)  DE(clash)    DE(int)     intcor
     16.80     -18.03       0.93        0.00     133.16       2.40       0.04       1.19       ----

> <Gold.Chemscore.Fitness>
16.8035

> <Gold.Chemscore.DG>
-18.0331

> <Gold.Chemscore.ZeroCoef>
-5.4800

> <Gold.Chemscore.Hbond>
0.9297

> <Gold.Chemscore.Metal>
0.0000

> <Gold.Chemscore.Lipo>
133.1587

> <Gold.Chemscore.Internal_Hbond>
0.0000

> <Gold.Chemscore.DEClash>
0.0406

> <Gold.Chemscore.DEInternal>
1.1890

> <Gold.Chemscore.Rot>
2.3952

> <Gold.Chemscore.Internal.Correction>
   9.000000E+99

> <Gold.Chemscore.Hbonds>
donor molecule, donor type, donor heavy atom, donor atom, acceptor molecule, acceptor atom, score
      P1  H  7989  7998       L1    10  0.95

> <Gold.Chemscore.Hbond.Weighted>
-3.1052

> <Gold.Chemscore.Metal.Weighted>
-0.0000

> <Gold.Chemscore.Lipo.Weighted>
-15.5796

> <Gold.Chemscore.Internal_Hbond.Weighted>
0.0000

> <Gold.Chemscore.DEClash.Weighted>
0.0406

> <Gold.Chemscore.DEInternal.Weighted>
1.1890

> <Gold.Chemscore.Rot.Weighted>
6.1316

> <Gold.Chemscore.Internal.Correction.Weighted>
   9.000000E+99

> <Gold.Protein.RotatedTorsions>
[ 6907 6896 6895 6894 ] final -101.45 input  -60.11 | X-H torsion
[ 7974 7965 7964 7962 ] final  -96.47 input  175.53 | X-H torsion
[ 8008 7997 7996 7995 ] final   97.85 input   59.86 | X-H torsion
[ 10167 10162 10161 10158 ] final  126.34 input  -65.29 | X-H torsion
[ 10718 10713 10712 10709 ] final  -29.10 input   66.30 | X-H torsion
[ 10763 10752 10751 10750 ] final   75.54 input  -60.55 | X-H torsion
[ 11005 11000 10999 10996 ] final  134.62 input  -57.11 | X-H torsion

> <Gold.Protein.ActiveResidues>
 VAL166  LYS551  ARG553  GLY616  TRP617  ASP618  TYR619  PRO620  LYS621  CYS622 
 ASP623  PHE694  ASN695  SER759  ASP760  ASP761  ALA762  ILE779  LEU786  VAL792 
 PHE793  MET794  SER795  GLU796  ALA797  LYS798  CYS799  TRP800  GLU811  SER814 

> <Gold.Protein.RotatedAtoms>
  150.7155  134.0733  159.3871 H   0  0  0  0  0  0  0  0  0  0  0  0  # atno 6907 bound_to 6896
  151.8715  135.0485  160.0489 H   0  0  0  0  0  0  0  0  0  0  0  0  # atno 6908 bound_to 6896
  152.2639  133.5286  159.5435 H   0  0  0  0  0  0  0  0  0  0  0  0  # atno 6909 bound_to 6896
  145.3464  140.9469  143.2579 H   0  0  0  0  0  0  0  0  0  0  0  0  # atno 7974 bound_to 7965
  156.0944  140.3252  155.7858 H   0  0  0  0  0  0  0  0  0  0  0  0  # atno 8008 bound_to 7997
  155.4942  140.0564  157.2966 H   0  0  0  0  0  0  0  0  0  0  0  0  # atno 8009 bound_to 7997
  154.4657  140.1988  156.0140 H   0  0  0  0  0  0  0  0  0  0  0  0  # atno 8010 bound_to 7997
  139.5637  144.6898  151.3972 H   0  0  0  0  0  0  0  0  0  0  0  0  # atno 10167 bound_to 10162
  156.4167  130.4418  149.7213 H   0  0  0  0  0  0  0  0  0  0  0  0  # atno 10718 bound_to 10713
  153.0662  135.4985  154.8204 H   0  0  0  0  0  0  0  0  0  0  0  0  # atno 10763 bound_to 10752
  154.6956  135.2992  154.9418 H   0  0  0  0  0  0  0  0  0  0  0  0  # atno 10764 bound_to 10752
  154.0159  135.6748  153.4821 H   0  0  0  0  0  0  0  0  0  0  0  0  # atno 10765 bound_to 10752
  139.9927  134.9509  156.9892 H   0  0  0  0  0  0  0  0  0  0  0  0  # atno 11005 bound_to 11000
  144.8751  139.4983  143.6749 LP  0  0  0  0  0  0  0  0  0  0  0  0  # atno 17320 bound_to 7965
  146.2986  139.7355  142.9108 LP  0  0  0  0  0  0  0  0  0  0  0  0  # atno 17321 bound_to 7965
  140.6918  143.7842  150.7267 LP  0  0  0  0  0  0  0  0  0  0  0  0  # atno 17342 bound_to 10162
  140.1327  143.4511  152.2244 LP  0  0  0  0  0  0  0  0  0  0  0  0  # atno 17343 bound_to 10162
  156.4170  130.7750  151.2765 LP  0  0  0  0  0  0  0  0  0  0  0  0  # atno 17370 bound_to 10713
  157.7508  131.0194  150.3667 LP  0  0  0  0  0  0  0  0  0  0  0  0  # atno 17371 bound_to 10713
  140.4878  134.1224  155.7227 LP  0  0  0  0  0  0  0  0  0  0  0  0  # atno 17394 bound_to 11000
  141.1579  133.8849  157.1928 LP  0  0  0  0  0  0  0  0  0  0  0  0  # atno 17395 bound_to 11000

$$$$
