AV-unprocessed.smi:1622|AV-procd|sdf|6500|dock10
  -GOLD-   22720 7163D 1   1.00000     0.00000
 Structure written by MMmdl.
 40 41  0  0  0  0  0  0  0  0  3 V2000
  150.4785  135.6439  154.8431 C   0  0  0  0  0  0  0  0  0  0  0  0
  149.7634  136.6487  155.7598 C   0  0  0  0  0  0  0  0  0  0  0  0
  149.3888  137.9948  155.0812 C   0  0  1  0  0  0  0  0  0  0  0  0
  150.6253  138.7317  154.5093 C   0  0  0  0  0  0  0  0  0  0  0  0
  151.5856  139.0721  155.5523 N   0  0  0  0  0  0  0  0  0  0  0  0
  151.4578  140.0788  156.4260 C   0  0  0  0  0  0  0  0  0  0  0  0
  150.4574  140.7988  156.3917 O   0  0  0  0  0  0  0  0  0  0  0  0
  152.4986  140.1881  157.2816 N   0  5  0  0  0  0  0  0  0  0  0  0
  152.3871  140.9517  158.3812 C   0  0  0  0  0  0  0  0  0  0  0  0
  151.3097  141.7123  158.6221 N   0  0  0  0  0  0  0  0  0  0  0  0
  151.3967  142.4167  159.8143 N   0  0  0  0  0  0  0  0  0  0  0  0
  152.5377  142.1702  160.4624 C   0  0  0  0  0  0  0  0  0  0  0  0
  152.8733  142.8023  161.7694 C   0  0  0  0  0  0  0  0  0  0  0  0
  153.6073  141.0385  159.6516 S   0  0  0  0  0  0  0  0  0  0  0  0
  148.3324  137.8151  154.0411 N   0  3  0  0  0  0  0  0  0  0  0  0
  147.1265  137.0784  154.4820 C   0  0  0  0  0  0  0  0  0  0  0  0
  146.0019  137.4578  153.5124 C   0  0  0  0  0  0  0  0  0  0  0  0
  146.5087  138.6854  152.7521 C   0  0  0  0  0  0  0  0  0  0  0  0
  147.8256  139.0624  153.4303 C   0  0  0  0  0  0  0  0  0  0  0  0
  150.6770  134.7139  155.3758 H   0  0  0  0  0  0  0  0  0  0  0  0
  151.4374  136.0296  154.4967 H   0  0  0  0  0  0  0  0  0  0  0  0
  149.8767  135.3991  153.9680 H   0  0  0  0  0  0  0  0  0  0  0  0
  148.8746  136.1768  156.1783 H   0  0  0  0  0  0  0  0  0  0  0  0
  150.3989  136.8392  156.6250 H   0  0  0  0  0  0  0  0  0  0  0  0
  148.9639  138.6339  155.8572 H   0  0  0  0  0  0  0  0  0  0  0  0
  151.1044  138.1201  153.7430 H   0  0  0  0  0  0  0  0  0  0  0  0
  150.3350  139.6659  154.0288 H   0  0  0  0  0  0  0  0  0  0  0  0
  152.4179  138.5047  155.6174 H   0  0  0  0  0  0  0  0  0  0  0  0
  152.1756  142.4667  162.5367 H   0  0  0  0  0  0  0  0  0  0  0  0
  152.8122  143.8877  161.6876 H   0  0  0  0  0  0  0  0  0  0  0  0
  153.8845  142.5318  162.0735 H   0  0  0  0  0  0  0  0  0  0  0  0
  147.2965  136.0014  154.5000 H   0  0  0  0  0  0  0  0  0  0  0  0
  146.8543  137.3934  155.4907 H   0  0  0  0  0  0  0  0  0  0  0  0
  145.7966  136.6428  152.8171 H   0  0  0  0  0  0  0  0  0  0  0  0
  145.0773  137.6695  154.0506 H   0  0  0  0  0  0  0  0  0  0  0  0
  146.6904  138.4214  151.7095 H   0  0  0  0  0  0  0  0  0  0  0  0
  145.7934  139.5084  152.7639 H   0  0  0  0  0  0  0  0  0  0  0  0
  147.6382  139.8011  154.2115 H   0  0  0  0  0  0  0  0  0  0  0  0
  148.5334  139.4908  152.7201 H   0  0  0  0  0  0  0  0  0  0  0  0
  148.7389  137.2759  153.2899 H   0  0  0  0  0  0  0  0  0  0  0  0
  1  2  1  0  0  0  0
  1 20  1  0  0  0  0
  1 21  1  0  0  0  0
  1 22  1  0  0  0  0
  2  3  1  0  0  0  0
  2 23  1  0  0  0  0
  2 24  1  0  0  0  0
  3  4  1  0  0  0  0
  3 15  1  0  0  0  0
  3 25  1  0  0  0  0
  4  5  1  0  0  0  0
  4 26  1  0  0  0  0
  4 27  1  0  0  0  0
  5  6  1  0  0  0  0
  5 28  1  0  0  0  0
  6  7  2  0  0  0  0
  6  8  1  0  0  0  0
  8  9  1  0  0  0  0
  9 14  1  0  0  0  0
  9 10  2  0  0  0  0
 10 11  1  0  0  0  0
 11 12  2  0  0  0  0
 12 13  1  0  0  0  0
 12 14  1  0  0  0  0
 13 29  1  0  0  0  0
 13 30  1  0  0  0  0
 13 31  1  0  0  0  0
 15 19  1  0  0  0  0
 15 16  1  0  0  0  0
 15 40  1  0  0  0  0
 16 17  1  0  0  0  0
 16 32  1  0  0  0  0
 16 33  1  0  0  0  0
 17 18  1  0  0  0  0
 17 34  1  0  0  0  0
 17 35  1  0  0  0  0
 18 19  1  0  0  0  0
 18 36  1  0  0  0  0
 18 37  1  0  0  0  0
 19 38  1  0  0  0  0
 19 39  1  0  0  0  0
M  CHG  1   8  -1
M  CHG  1  15   1
M  END
> <s_m_source_file>
AV-unprocessed.smi

> <i_m_source_file_index>
1622

> <i_lp_mmshare_version>
43012

> <i_f3d_flags>
0

> <s_epik_input>
W0NIMl0xW0NIMl1bQ0gyXVtDSDJdTjFbQ0BIXShbQ0gyXVtDSDNdKVtDSDJdW05IXUMoPU8pW05IXWMybm5jKHMyKVtDSDNd

> <s_epik_cmdline>
J2VwaWtfcHl0aG9uJywgJy1waCcsICc3LjAnLCAnLXRuJywgJzgnLCAnLW1hJywgJzIwMCcsICctbWV0YWxfYmluZGluZycsICctaW1hZScsICc8aW5maWxlLm1hZT4nLCAnLW9tYWUnLCAnPG91dGZpbGUubWFlPic=

> <r_lp_tautomer_probability>
1

> <r_epik_Ionization_Penalty>
4.34497

> <r_epik_Ionization_Penalty_Charging>
4.23453

> <r_epik_Ionization_Penalty_Neutral>
0.110433

> <r_epik_State_Penalty>
4.23293

> <r_epik_Charging_Adjusted_Penalty>
8.46746

> <i_epik_Tot_Q>
0

> <i_epik_Tot_abs_Q>
2

> <r_epik_Metal_State_Penalty>
0.701092

> <b_epik_Metal_Only>
1

> <s_lp_Force_Field>
OPLS_2005

> <r_lp_Energy>
26.9801

> <b_lp_Chiralities_Consistent>
1

> <s_lp_Variant>
AV-unprocessed.smi:1622-4

> <Gold.Version>
5.8.1

> <Gold.Id.Protein>
6NUR|6NUR_protein|mol2

> <Gold.PLP.Fitness>
42.0744

> <Gold.PLP.PLP>
-30.3665

> <Gold.PLP.part.hbond>
-2.9628

> <Gold.PLP.part.metal>
0.0000

> <Gold.PLP.part.buried>
-4.0017

> <Gold.PLP.part.nonpolar>
-24.1546

> <Gold.PLP.part.repulsive>
0.1818

> <Gold.PLP.ligand.clash>
0.0000

> <Gold.PLP.ligand.torsion>
0.2240

> <Gold.PLP.Chemscore.Hbond>
4.0000

> <Gold.PLP.Chemscore.CHOScore>
0.0000

> <Gold.PLP.Chemscore.Metal>
0.0000

> <Gold.Chemscore.Hbonds>
donor molecule, donor type, donor heavy atom, donor atom, acceptor molecule, acceptor atom, score
      L1  H    15    40       P1  7948  2.00
      P1  H  7997  8008       L1     8  2.00

> <Gold.PLP.Chemscore.Internal.Correction>
0.1559

> <Gold.Rescore>
     Score         DG    S(hbond)    S(metal)    S(lipo)     H(rot)  DE(clash)    DE(int)     intcor
     13.28     -15.46       1.84        0.00      70.82       1.73       0.29       1.88       ----

> <Gold.Chemscore.Fitness>
13.2773

> <Gold.Chemscore.DG>
-15.4556

> <Gold.Chemscore.ZeroCoef>
-5.4800

> <Gold.Chemscore.Hbond>
1.8356

> <Gold.Chemscore.Metal>
0.0000

> <Gold.Chemscore.Lipo>
70.8179

> <Gold.Chemscore.Internal_Hbond>
0.0000

> <Gold.Chemscore.DEClash>
0.2943

> <Gold.Chemscore.DEInternal>
1.8839

> <Gold.Chemscore.Rot>
1.7348

> <Gold.Chemscore.Internal.Correction>
   9.000000E+99

> <Gold.Chemscore.Hbonds>
donor molecule, donor type, donor heavy atom, donor atom, acceptor molecule, acceptor atom, score
      L1  H    15    40       P1  7948  1.00
      P1  H  7997  8008       L1     8  0.76

> <Gold.Chemscore.Hbond.Weighted>
-6.1310

> <Gold.Chemscore.Metal.Weighted>
-0.0000

> <Gold.Chemscore.Lipo.Weighted>
-8.2857

> <Gold.Chemscore.Internal_Hbond.Weighted>
0.0000

> <Gold.Chemscore.DEClash.Weighted>
0.2943

> <Gold.Chemscore.DEInternal.Weighted>
1.8839

> <Gold.Chemscore.Rot.Weighted>
4.4411

> <Gold.Chemscore.Internal.Correction.Weighted>
   9.000000E+99

> <Gold.Protein.RotatedTorsions>
[ 6907 6896 6895 6894 ] final -134.07 input  -60.11 | X-H torsion
[ 7974 7965 7964 7962 ] final -139.23 input  175.53 | X-H torsion
[ 8008 7997 7996 7995 ] final  -53.90 input   59.86 | X-H torsion
[ 10167 10162 10161 10158 ] final   36.65 input  -65.29 | X-H torsion
[ 10718 10713 10712 10709 ] final  -16.84 input   66.30 | X-H torsion
[ 10763 10752 10751 10750 ] final -137.52 input  -60.55 | X-H torsion
[ 11005 11000 10999 10996 ] final  127.86 input  -57.11 | X-H torsion

> <Gold.Protein.ActiveResidues>
 VAL166  LYS551  ARG553  GLY616  TRP617  ASP618  TYR619  PRO620  LYS621  CYS622 
 ASP623  PHE694  ASN695  SER759  ASP760  ASP761  ALA762  ILE779  LEU786  VAL792 
 PHE793  MET794  SER795  GLU796  ALA797  LYS798  CYS799  TRP800  GLU811  SER814 

> <Gold.Protein.RotatedAtoms>
  150.9815  133.6241  159.2721 H   0  0  0  0  0  0  0  0  0  0  0  0  # atno 6907 bound_to 6896
  151.3494  135.0880  159.9407 H   0  0  0  0  0  0  0  0  0  0  0  0  # atno 6908 bound_to 6896
  152.5217  133.9410  159.7681 H   0  0  0  0  0  0  0  0  0  0  0  0  # atno 6909 bound_to 6896
  144.8693  140.6342  143.5277 H   0  0  0  0  0  0  0  0  0  0  0  0  # atno 7974 bound_to 7965
  154.4146  140.1189  156.5228 H   0  0  0  0  0  0  0  0  0  0  0  0  # atno 8008 bound_to 7997
  155.6685  140.3496  155.4790 H   0  0  0  0  0  0  0  0  0  0  0  0  # atno 8009 bound_to 7997
  155.9653  140.1131  157.0850 H   0  0  0  0  0  0  0  0  0  0  0  0  # atno 8010 bound_to 7997
  140.4107  144.1596  150.6139 H   0  0  0  0  0  0  0  0  0  0  0  0  # atno 10167 bound_to 10162
  156.5819  130.4776  149.6317 H   0  0  0  0  0  0  0  0  0  0  0  0  # atno 10718 bound_to 10713
  154.8659  135.3639  154.5237 H   0  0  0  0  0  0  0  0  0  0  0  0  # atno 10763 bound_to 10752
  153.5866  135.7017  153.5446 H   0  0  0  0  0  0  0  0  0  0  0  0  # atno 10764 bound_to 10752
  153.3410  135.4098  155.1534 H   0  0  0  0  0  0  0  0  0  0  0  0  # atno 10765 bound_to 10752
  139.9530  134.9618  156.8917 H   0  0  0  0  0  0  0  0  0  0  0  0  # atno 11005 bound_to 11000
  145.4161  139.1572  143.4099 LP  0  0  0  0  0  0  0  0  0  0  0  0  # atno 17320 bound_to 7965
  146.2919  140.4268  142.8736 LP  0  0  0  0  0  0  0  0  0  0  0  0  # atno 17321 bound_to 7965
  140.4641  143.2437  151.9180 LP  0  0  0  0  0  0  0  0  0  0  0  0  # atno 17342 bound_to 10162
  139.4782  144.5437  151.8489 LP  0  0  0  0  0  0  0  0  0  0  0  0  # atno 17343 bound_to 10162
  156.2624  130.6970  151.1743 LP  0  0  0  0  0  0  0  0  0  0  0  0  # atno 17370 bound_to 10713
  157.7324  131.0600  150.5628 LP  0  0  0  0  0  0  0  0  0  0  0  0  # atno 17371 bound_to 10713
  140.5675  134.0475  155.7419 LP  0  0  0  0  0  0  0  0  0  0  0  0  # atno 17394 bound_to 11000
  141.1196  133.9483  157.2755 LP  0  0  0  0  0  0  0  0  0  0  0  0  # atno 17395 bound_to 11000

$$$$
