AV-unprocessed.smi:794|AV-procd|sdf|3761|dock3
  -GOLD-   22720 1193D 1   1.00000     0.00000
 Structure written by MMmdl.
 41 43  0  0  0  0  0  0  0  0  1 V2000
  150.2759  130.1824  155.4655 C   0  0  0  0  0  0  0  0  0  0  0  0
  149.4573  131.1897  154.7177 C   0  0  0  0  0  0  0  0  0  0  0  0
  149.7944  132.5442  154.7919 N   0  0  0  0  0  0  0  0  0  0  0  0
  148.9689  133.3120  154.0736 C   0  0  0  0  0  0  0  0  0  0  0  0
  149.0732  134.7241  153.9717 N   0  0  0  0  0  0  0  0  0  0  0  0
  149.3485  135.6091  154.9458 C   0  0  0  0  0  0  0  0  0  0  0  0
  149.5794  135.3256  156.1217 O   0  0  0  0  0  0  0  0  0  0  0  0
  149.3412  136.8648  154.4772 N   0  0  0  0  0  0  0  0  0  0  0  0
  149.5928  138.0563  155.2851 C   0  0  1  0  0  0  0  0  0  0  0  0
  150.6850  137.8490  156.3642 C   0  0  1  0  0  0  0  0  0  0  0  0
  151.9807  137.2698  155.7558 C   0  0  0  0  0  0  0  0  0  0  0  0
  152.5204  138.4503  154.9268 C   0  0  0  0  0  0  0  0  0  0  0  0
  151.4782  139.5549  155.1880 C   0  0  2  0  0  0  0  0  0  0  0  0
  151.1093  139.2850  156.6427 C   0  0  0  0  0  0  0  0  0  0  0  0
  150.1713  139.2144  154.4313 C   0  0  2  0  0  0  0  0  0  0  0  0
  149.1980  140.4030  154.3081 C   0  0  0  0  0  0  0  0  0  0  0  0
  149.4600  141.1351  153.1292 O   0  0  0  0  0  0  0  0  0  0  0  0
  147.7101  132.4104  153.2471 S   0  0  0  0  0  0  0  0  0  0  0  0
  148.3569  130.9392  153.9305 C   0  0  0  0  0  0  0  0  0  0  0  0
  147.7277  129.6173  153.6400 C   0  0  0  0  0  0  0  0  0  0  0  0
  150.5307  129.3328  154.8319 H   0  0  0  0  0  0  0  0  0  0  0  0
  149.7312  129.8004  156.3291 H   0  0  0  0  0  0  0  0  0  0  0  0
  151.2107  130.6113  155.8281 H   0  0  0  0  0  0  0  0  0  0  0  0
  148.9057  135.1054  153.0524 H   0  0  0  0  0  0  0  0  0  0  0  0
  149.1479  137.0100  153.4972 H   0  0  0  0  0  0  0  0  0  0  0  0
  148.6651  138.3741  155.7659 H   0  0  0  0  0  0  0  0  0  0  0  0
  150.3336  137.3010  157.2390 H   0  0  0  0  0  0  0  0  0  0  0  0
  152.6878  137.0089  156.5442 H   0  0  0  0  0  0  0  0  0  0  0  0
  151.8189  136.3738  155.1563 H   0  0  0  0  0  0  0  0  0  0  0  0
  153.5044  138.7524  155.2875 H   0  0  0  0  0  0  0  0  0  0  0  0
  152.6142  138.2085  153.8675 H   0  0  0  0  0  0  0  0  0  0  0  0
  151.8588  140.5573  154.9898 H   0  0  0  0  0  0  0  0  0  0  0  0
  150.2973  139.9118  157.0141 H   0  0  0  0  0  0  0  0  0  0  0  0
  151.9568  139.3626  157.3263 H   0  0  0  0  0  0  0  0  0  0  0  0
  150.4104  138.8694  153.4234 H   0  0  0  0  0  0  0  0  0  0  0  0
  148.1698  140.0426  154.2642 H   0  0  0  0  0  0  0  0  0  0  0  0
  149.2685  141.0690  155.1681 H   0  0  0  0  0  0  0  0  0  0  0  0
  149.4133  140.5451  152.3922 H   0  0  0  0  0  0  0  0  0  0  0  0
  147.5363  129.0685  154.5624 H   0  0  0  0  0  0  0  0  0  0  0  0
  148.3807  129.0086  153.0145 H   0  0  0  0  0  0  0  0  0  0  0  0
  146.7773  129.7367  153.1194 H   0  0  0  0  0  0  0  0  0  0  0  0
  1  2  1  0  0  0  0
  1 21  1  0  0  0  0
  1 22  1  0  0  0  0
  1 23  1  0  0  0  0
  2 19  2  0  0  0  0
  2  3  1  0  0  0  0
  3  4  2  0  0  0  0
  4  5  1  0  0  0  0
  4 18  1  0  0  0  0
  5  6  1  0  0  0  0
  5 24  1  0  0  0  0
  6  7  2  0  0  0  0
  6  8  1  0  0  0  0
  8  9  1  0  0  0  0
  8 25  1  0  0  0  0
  9 15  1  0  0  0  0
  9 10  1  0  0  0  0
  9 26  1  0  0  0  0
 10 14  1  0  0  0  0
 10 11  1  0  0  0  0
 10 27  1  0  0  0  0
 11 12  1  0  0  0  0
 11 28  1  0  0  0  0
 11 29  1  0  0  0  0
 12 13  1  0  0  0  0
 12 30  1  0  0  0  0
 12 31  1  0  0  0  0
 13 14  1  0  0  0  0
 13 15  1  0  0  0  0
 13 32  1  0  0  0  0
 14 33  1  0  0  0  0
 14 34  1  0  0  0  0
 15 16  1  0  0  0  0
 15 35  1  0  0  0  0
 16 17  1  0  0  0  0
 16 36  1  0  0  0  0
 16 37  1  0  0  0  0
 17 38  1  0  0  0  0
 18 19  1  0  0  0  0
 19 20  1  0  0  0  0
 20 39  1  0  0  0  0
 20 40  1  0  0  0  0
 20 41  1  0  0  0  0
M  END
> <s_m_source_file>
AV-unprocessed.smi

> <i_m_source_file_index>
794

> <i_lp_mmshare_version>
43012

> <i_f3d_flags>
0

> <s_epik_input>
W0NIM11jMW5jKHNjMVtDSDNdKVtOSF1DKD1PKVtOSF1bQ0BIXShbQ0BASF0yMylbQ0BIXShbQ0gyXVtPSF0pW0NAQEhdKFtDSDJdMylbQ0gyXVtDSDJdMg==

> <s_epik_cmdline>
J2VwaWtfcHl0aG9uJywgJy1waCcsICc3LjAnLCAnLXRuJywgJzgnLCAnLW1hJywgJzIwMCcsICctbWV0YWxfYmluZGluZycsICctaW1hZScsICc8aW5maWxlLm1hZT4nLCAnLW9tYWUnLCAnPG91dGZpbGUubWFlPic=

> <r_lp_tautomer_probability>
0.999

> <r_epik_Ionization_Penalty>
0.000713029

> <r_epik_Ionization_Penalty_Charging>
0

> <r_epik_Ionization_Penalty_Neutral>
0.000713029

> <r_epik_State_Penalty>
0.000177984

> <r_epik_Charging_Adjusted_Penalty>
0.000177984

> <i_epik_Tot_Q>
0

> <i_epik_Tot_abs_Q>
0

> <r_epik_Metal_State_Penalty>
-0

> <b_epik_Metal_Only>
0

> <s_lp_Force_Field>
OPLS_2005

> <r_lp_Energy>
47.7468

> <b_lp_Chiralities_Consistent>
1

> <s_lp_Variant>
AV-unprocessed.smi:794-6

> <Gold.Version>
5.8.1

> <Gold.Id.Protein>
6NUR|6NUR_protein|mol2

> <Gold.PLP.Fitness>
42.5984

> <Gold.PLP.PLP>
-33.7204

> <Gold.PLP.part.hbond>
-4.5623

> <Gold.PLP.part.metal>
0.0000

> <Gold.PLP.part.buried>
-0.8202

> <Gold.PLP.part.nonpolar>
-28.5943

> <Gold.PLP.part.repulsive>
0.0729

> <Gold.PLP.ligand.clash>
0.0000

> <Gold.PLP.ligand.torsion>
0.9994

> <Gold.PLP.Chemscore.Hbond>
3.6200

> <Gold.PLP.Chemscore.CHOScore>
0.0000

> <Gold.PLP.Chemscore.Metal>
0.0000

> <Gold.Chemscore.Hbonds>
donor molecule, donor type, donor heavy atom, donor atom, acceptor molecule, acceptor atom, score
      L1  H     5    24       P1  7948  1.00
      L1  H     8    25       P1  7948  0.93
      L1  H    17    38       P1  7957  0.52
      P1  H  7989  7998       L1    17  0.02
      P1  H  8011  8017       L1    17  0.85

> <Gold.PLP.Chemscore.Internal.Correction>
0.0169

> <Gold.Rescore>
     Score         DG    S(hbond)    S(metal)    S(lipo)     H(rot)  DE(clash)    DE(int)     intcor
     16.12     -18.83       2.92        0.00      69.79       1.78       0.33       2.38       ----

> <Gold.Chemscore.Fitness>
16.1159

> <Gold.Chemscore.DG>
-18.8345

> <Gold.Chemscore.ZeroCoef>
-5.4800

> <Gold.Chemscore.Hbond>
2.9176

> <Gold.Chemscore.Metal>
0.0000

> <Gold.Chemscore.Lipo>
69.7942

> <Gold.Chemscore.Internal_Hbond>
0.0000

> <Gold.Chemscore.DEClash>
0.3339

> <Gold.Chemscore.DEInternal>
2.3847

> <Gold.Chemscore.Rot>
1.7798

> <Gold.Chemscore.Internal.Correction>
   9.000000E+99

> <Gold.Chemscore.Hbonds>
donor molecule, donor type, donor heavy atom, donor atom, acceptor molecule, acceptor atom, score
      L1  H     5    24       P1  7948  0.29
      L1  H     8    25       P1  7948  0.89
      L1  H    17    38       P1  7957  0.52
      P1  H  8011  8017       L1    17  0.14

> <Gold.Chemscore.Hbond.Weighted>
-9.7448

> <Gold.Chemscore.Metal.Weighted>
-0.0000

> <Gold.Chemscore.Lipo.Weighted>
-8.1659

> <Gold.Chemscore.Internal_Hbond.Weighted>
0.0000

> <Gold.Chemscore.DEClash.Weighted>
0.3339

> <Gold.Chemscore.DEInternal.Weighted>
2.3847

> <Gold.Chemscore.Rot.Weighted>
4.5562

> <Gold.Chemscore.Internal.Correction.Weighted>
   9.000000E+99

> <Gold.Protein.RotatedTorsions>
[ 6907 6896 6895 6894 ] final  176.14 input  -60.11 | X-H torsion
[ 7974 7965 7964 7962 ] final -150.47 input  175.53 | X-H torsion
[ 8008 7997 7996 7995 ] final  -73.60 input   59.86 | X-H torsion
[ 10167 10162 10161 10158 ] final  143.05 input  -65.29 | X-H torsion
[ 10718 10713 10712 10709 ] final  134.95 input   66.30 | X-H torsion
[ 10763 10752 10751 10750 ] final   -9.99 input  -60.55 | X-H torsion
[ 11005 11000 10999 10996 ] final -176.50 input  -57.11 | X-H torsion

> <Gold.Protein.ActiveResidues>
 VAL166  LYS551  ARG553  GLY616  TRP617  ASP618  TYR619  PRO620  LYS621  CYS622 
 ASP623  PHE694  ASN695  SER759  ASP760  ASP761  ALA762  ILE779  LEU786  VAL792 
 PHE793  MET794  SER795  GLU796  ALA797  LYS798  CYS799  TRP800  GLU811  SER814 

> <Gold.Protein.RotatedAtoms>
  151.7249  133.3315  159.3324 H   0  0  0  0  0  0  0  0  0  0  0  0  # atno 6907 bound_to 6896
  150.7637  134.6415  159.6249 H   0  0  0  0  0  0  0  0  0  0  0  0  # atno 6908 bound_to 6896
  152.3629  134.6849  160.0253 H   0  0  0  0  0  0  0  0  0  0  0  0  # atno 6909 bound_to 6896
  144.7906  140.4927  143.5776 H   0  0  0  0  0  0  0  0  0  0  0  0  # atno 7974 bound_to 7965
  154.5261  140.0776  156.8261 H   0  0  0  0  0  0  0  0  0  0  0  0  # atno 8008 bound_to 7997
  155.3473  140.3410  155.4221 H   0  0  0  0  0  0  0  0  0  0  0  0  # atno 8009 bound_to 7997
  156.1733  140.1627  156.8395 H   0  0  0  0  0  0  0  0  0  0  0  0  # atno 8010 bound_to 7997
  139.4979  144.6066  151.6365 H   0  0  0  0  0  0  0  0  0  0  0  0  # atno 10167 bound_to 10162
  157.4620  131.1074  150.9908 H   0  0  0  0  0  0  0  0  0  0  0  0  # atno 10718 bound_to 10713
  153.4627  135.7016  153.6041 H   0  0  0  0  0  0  0  0  0  0  0  0  # atno 10763 bound_to 10752
  153.4328  135.3798  155.2181 H   0  0  0  0  0  0  0  0  0  0  0  0  # atno 10764 bound_to 10752
  154.8727  135.3955  154.4054 H   0  0  0  0  0  0  0  0  0  0  0  0  # atno 10765 bound_to 10752
  140.4514  134.6340  157.4803 H   0  0  0  0  0  0  0  0  0  0  0  0  # atno 11005 bound_to 11000
  145.5806  139.1488  143.3237 LP  0  0  0  0  0  0  0  0  0  0  0  0  # atno 17320 bound_to 7965
  146.2156  140.5936  142.9040 LP  0  0  0  0  0  0  0  0  0  0  0  0  # atno 17321 bound_to 7965
  140.5729  144.0078  150.6226 LP  0  0  0  0  0  0  0  0  0  0  0  0  # atno 17342 bound_to 10162
  140.3201  143.3142  152.0792 LP  0  0  0  0  0  0  0  0  0  0  0  0  # atno 17343 bound_to 10162
  157.0701  130.5861  149.5401 LP  0  0  0  0  0  0  0  0  0  0  0  0  # atno 17370 bound_to 10713
  156.0033  130.5116  150.7742 LP  0  0  0  0  0  0  0  0  0  0  0  0  # atno 17371 bound_to 10713
  140.0004  134.6845  155.9539 LP  0  0  0  0  0  0  0  0  0  0  0  0  # atno 17394 bound_to 11000
  141.1662  133.6537  156.4489 LP  0  0  0  0  0  0  0  0  0  0  0  0  # atno 17395 bound_to 11000

$$$$
