AV-unprocessed.smi:3232|AV-procd|sdf|12343|dock9
  -GOLD-   2272018203D 1   1.00000     0.00000
 Structure written by MMmdl.
 40 41  0  0  0  0  0  0  0  0  2 V2000
  144.0253  136.6950  152.4340 C   0  0  0  0  0  0  0  0  0  0  0  0
  145.5197  136.8848  152.1424 C   0  0  0  0  0  0  0  0  0  0  0  0
  146.2917  135.6332  152.3338 N   0  3  2  0  0  0  0  0  0  0  0  0
  145.9975  134.5675  151.3522 C   0  0  0  0  0  0  0  0  0  0  0  0
  146.3967  133.2707  152.0444 C   0  0  0  0  0  0  0  0  0  0  0  0
  145.9963  133.5245  153.4926 C   0  0  0  0  0  0  0  0  0  0  0  0
  146.1717  135.0439  153.6915 C   0  0  1  0  0  0  0  0  0  0  0  0
  147.4001  135.4189  154.5474 C   0  0  0  0  0  0  0  0  0  0  0  0
  147.9988  136.6773  154.1193 N   0  0  0  0  0  0  0  0  0  0  0  0
  148.3687  137.6725  154.9410 C   0  0  0  0  0  0  0  0  0  0  0  0
  148.1511  137.6531  156.1531 O   0  0  0  0  0  0  0  0  0  0  0  0
  149.1137  138.8488  154.2880 C   0  0  1  0  0  0  0  0  0  0  0  0
  148.6303  140.2246  154.7902 C   0  0  0  0  0  0  0  0  0  0  0  0
  150.5533  138.6857  154.4564 N   0  0  0  0  0  0  0  0  0  0  0  0
  151.3401  137.6471  154.1661 C   0  0  0  0  0  0  0  0  0  0  0  0
  152.6093  137.8211  154.5066 N   0  0  0  0  0  0  0  0  0  0  0  0
  152.5324  139.0755  155.0419 C   0  0  0  0  0  0  0  0  0  0  0  0
  151.3223  139.6342  155.0481 N   0  0  0  0  0  0  0  0  0  0  0  0
  143.4747  137.6142  152.2326 H   0  0  0  0  0  0  0  0  0  0  0  0
  143.8481  136.4306  153.4766 H   0  0  0  0  0  0  0  0  0  0  0  0
  143.5981  135.9100  151.8092 H   0  0  0  0  0  0  0  0  0  0  0  0
  145.6331  137.2100  151.1073 H   0  0  0  0  0  0  0  0  0  0  0  0
  145.9324  137.6786  152.7670 H   0  0  0  0  0  0  0  0  0  0  0  0
  144.9289  134.5493  151.1314 H   0  0  0  0  0  0  0  0  0  0  0  0
  146.5346  134.7207  150.4156 H   0  0  0  0  0  0  0  0  0  0  0  0
  145.9116  132.3928  151.6166 H   0  0  0  0  0  0  0  0  0  0  0  0
  147.4760  133.1284  151.9767 H   0  0  0  0  0  0  0  0  0  0  0  0
  144.9464  133.2608  153.6286 H   0  0  0  0  0  0  0  0  0  0  0  0
  146.5723  132.9168  154.1913 H   0  0  0  0  0  0  0  0  0  0  0  0
  145.2690  135.4259  154.1724 H   0  0  0  0  0  0  0  0  0  0  0  0
  147.1104  135.5203  155.5937 H   0  0  0  0  0  0  0  0  0  0  0  0
  148.1498  134.6264  154.5099 H   0  0  0  0  0  0  0  0  0  0  0  0
  148.2029  136.7747  153.1350 H   0  0  0  0  0  0  0  0  0  0  0  0
  148.9070  138.8020  153.2176 H   0  0  0  0  0  0  0  0  0  0  0  0
  147.5656  140.3621  154.5979 H   0  0  0  0  0  0  0  0  0  0  0  0
  149.1589  141.0311  154.2811 H   0  0  0  0  0  0  0  0  0  0  0  0
  148.7924  140.3495  155.8618 H   0  0  0  0  0  0  0  0  0  0  0  0
  150.9751  136.7401  153.7065 H   0  0  0  0  0  0  0  0  0  0  0  0
  153.3915  139.5884  155.4485 H   0  0  0  0  0  0  0  0  0  0  0  0
  147.2691  135.8617  152.2205 H   0  0  0  0  0  0  0  0  0  0  0  0
  1  2  1  0  0  0  0
  1 19  1  0  0  0  0
  1 20  1  0  0  0  0
  1 21  1  0  0  0  0
  2  3  1  0  0  0  0
  2 22  1  0  0  0  0
  2 23  1  0  0  0  0
  3  7  1  0  0  0  0
  3  4  1  0  0  0  0
  3 40  1  0  0  0  0
  4  5  1  0  0  0  0
  4 24  1  0  0  0  0
  4 25  1  0  0  0  0
  5  6  1  0  0  0  0
  5 26  1  0  0  0  0
  5 27  1  0  0  0  0
  6  7  1  0  0  0  0
  6 28  1  0  0  0  0
  6 29  1  0  0  0  0
  7  8  1  0  0  0  0
  7 30  1  0  0  0  0
  8  9  1  0  0  0  0
  8 31  1  0  0  0  0
  8 32  1  0  0  0  0
  9 10  1  0  0  0  0
  9 33  1  0  0  0  0
 10 11  2  0  0  0  0
 10 12  1  0  0  0  0
 12 13  1  0  0  0  0
 12 14  1  0  0  0  0
 12 34  1  0  0  0  0
 13 35  1  0  0  0  0
 13 36  1  0  0  0  0
 13 37  1  0  0  0  0
 14 18  1  0  0  0  0
 14 15  1  0  0  0  0
 15 16  2  0  0  0  0
 15 38  1  0  0  0  0
 16 17  1  0  0  0  0
 17 18  2  0  0  0  0
 17 39  1  0  0  0  0
M  CHG  1   3   1
M  END
> <s_m_source_file>
AV-unprocessed.smi

> <i_m_source_file_index>
3232

> <i_lp_mmshare_version>
43012

> <i_f3d_flags>
0

> <s_epik_input>
W0NIM11bQ0gyXU4xW0NIMl1bQ0gyXVtDSDJdW0NASF0xW0NIMl1bTkhdQyg9TylbQ0BIXShbQ0gzXSluMltjSF1uW2NIXW4y

> <s_epik_cmdline>
J2VwaWtfcHl0aG9uJywgJy1waCcsICc3LjAnLCAnLXRuJywgJzgnLCAnLW1hJywgJzIwMCcsICctbWV0YWxfYmluZGluZycsICctaW1hZScsICc8aW5maWxlLm1hZT4nLCAnLW9tYWUnLCAnPG91dGZpbGUubWFlPic=

> <r_lp_tautomer_probability>
1

> <r_epik_Ionization_Penalty>
0.00177695

> <r_epik_Ionization_Penalty_Charging>
0.00176881

> <r_epik_Ionization_Penalty_Neutral>
8.13528e-06

> <r_epik_State_Penalty>
0.00119827

> <r_epik_Charging_Adjusted_Penalty>
0.00296709

> <i_epik_Tot_Q>
1

> <i_epik_Tot_abs_Q>
1

> <r_epik_Metal_State_Penalty>
-0

> <b_epik_Metal_Only>
0

> <s_lp_Force_Field>
OPLS_2005

> <r_lp_Energy>
32.1761

> <b_lp_Chiralities_Consistent>
1

> <s_lp_Variant>
AV-unprocessed.smi:3232-5

> <Gold.Version>
5.8.1

> <Gold.Id.Protein>
6NUR|6NUR_protein|mol2

> <Gold.PLP.Fitness>
41.5102

> <Gold.PLP.PLP>
-28.0415

> <Gold.PLP.part.hbond>
-3.7775

> <Gold.PLP.part.metal>
0.0000

> <Gold.PLP.part.buried>
-3.4983

> <Gold.PLP.part.nonpolar>
-22.3879

> <Gold.PLP.part.repulsive>
0.1496

> <Gold.PLP.ligand.clash>
0.0000

> <Gold.PLP.ligand.torsion>
1.0939

> <Gold.PLP.Chemscore.Hbond>
4.1584

> <Gold.PLP.Chemscore.CHOScore>
1.0218

> <Gold.PLP.Chemscore.Metal>
0.0000

> <Gold.Chemscore.Hbonds>
donor molecule, donor type, donor heavy atom, donor atom, acceptor molecule, acceptor atom, score
      L1  H     3    40       P1  7948  2.00
      L1  H     9    33       P1  7948  0.96
      P1  H  7989  7998       L1    18  0.80
      P1  H 10752 10765       L1    16  0.16
      L1  C    15    38       P1  7948  0.07
      L1  C    15    38       P1  7949  1.00

> <Gold.PLP.Chemscore.Internal.Correction>
0.1161

> <Gold.Rescore>
     Score         DG    S(hbond)    S(metal)    S(lipo)     H(rot)  DE(clash)    DE(int)     intcor
      9.59     -10.18       1.98        0.00      38.17       2.49       0.00       0.59       ----

> <Gold.Chemscore.Fitness>
9.5912

> <Gold.Chemscore.DG>
-10.1828

> <Gold.Chemscore.ZeroCoef>
-5.4800

> <Gold.Chemscore.Hbond>
1.9780

> <Gold.Chemscore.Metal>
0.0000

> <Gold.Chemscore.Lipo>
38.1716

> <Gold.Chemscore.Internal_Hbond>
0.0000

> <Gold.Chemscore.DEClash>
0.0000

> <Gold.Chemscore.DEInternal>
0.5916

> <Gold.Chemscore.Rot>
2.4882

> <Gold.Chemscore.Internal.Correction>
   9.000000E+99

> <Gold.Chemscore.Hbonds>
donor molecule, donor type, donor heavy atom, donor atom, acceptor molecule, acceptor atom, score
      L1  H     3    40       P1  7948  1.00
      L1  H     9    33       P1  7948  0.90
      P1  H  7989  7998       L1    18  0.03
      P1  H 10752 10765       L1    16  0.01

> <Gold.Chemscore.Hbond.Weighted>
-6.6065

> <Gold.Chemscore.Metal.Weighted>
-0.0000

> <Gold.Chemscore.Lipo.Weighted>
-4.4661

> <Gold.Chemscore.Internal_Hbond.Weighted>
0.0000

> <Gold.Chemscore.DEClash.Weighted>
0.0000

> <Gold.Chemscore.DEInternal.Weighted>
0.5916

> <Gold.Chemscore.Rot.Weighted>
6.3697

> <Gold.Chemscore.Internal.Correction.Weighted>
   9.000000E+99

> <Gold.Protein.RotatedTorsions>
[ 6907 6896 6895 6894 ] final -101.53 input  -60.11 | X-H torsion
[ 7974 7965 7964 7962 ] final  -29.87 input  175.53 | X-H torsion
[ 8008 7997 7996 7995 ] final -119.78 input   59.86 | X-H torsion
[ 10167 10162 10161 10158 ] final  111.73 input  -65.29 | X-H torsion
[ 10718 10713 10712 10709 ] final  -99.33 input   66.30 | X-H torsion
[ 10763 10752 10751 10750 ] final  170.93 input  -60.55 | X-H torsion
[ 11005 11000 10999 10996 ] final  -27.70 input  -57.11 | X-H torsion

> <Gold.Protein.ActiveResidues>
 VAL166  LYS551  ARG553  GLY616  TRP617  ASP618  TYR619  PRO620  LYS621  CYS622 
 ASP623  PHE694  ASN695  SER759  ASP760  ASP761  ALA762  ILE779  LEU786  VAL792 
 PHE793  MET794  SER795  GLU796  ALA797  LYS798  CYS799  TRP800  GLU811  SER814 

> <Gold.Protein.RotatedAtoms>
  150.7158  134.0721  159.3867 H   0  0  0  0  0  0  0  0  0  0  0  0  # atno 6907 bound_to 6896
  151.8703  135.0489  160.0488 H   0  0  0  0  0  0  0  0  0  0  0  0  # atno 6908 bound_to 6896
  152.2648  133.5294  159.5440 H   0  0  0  0  0  0  0  0  0  0  0  0  # atno 6909 bound_to 6896
  146.1185  140.5467  142.8746 H   0  0  0  0  0  0  0  0  0  0  0  0  # atno 7974 bound_to 7965
  155.1213  140.0398  157.2750 H   0  0  0  0  0  0  0  0  0  0  0  0  # atno 8008 bound_to 7997
  154.6611  140.2591  155.7082 H   0  0  0  0  0  0  0  0  0  0  0  0  # atno 8009 bound_to 7997
  156.2619  140.2816  156.1084 H   0  0  0  0  0  0  0  0  0  0  0  0  # atno 8010 bound_to 7997
  139.6589  144.7129  151.1903 H   0  0  0  0  0  0  0  0  0  0  0  0  # atno 10167 bound_to 10162
  156.0131  130.5277  150.6654 H   0  0  0  0  0  0  0  0  0  0  0  0  # atno 10718 bound_to 10713
  154.4047  135.2755  155.2075 H   0  0  0  0  0  0  0  0  0  0  0  0  # atno 10763 bound_to 10752
  154.4086  135.6028  153.5942 H   0  0  0  0  0  0  0  0  0  0  0  0  # atno 10764 bound_to 10752
  152.9831  135.5944  154.4320 H   0  0  0  0  0  0  0  0  0  0  0  0  # atno 10765 bound_to 10752
  140.9143  133.7440  156.0713 H   0  0  0  0  0  0  0  0  0  0  0  0  # atno 11005 bound_to 11000
  144.7575  140.5342  143.6759 LP  0  0  0  0  0  0  0  0  0  0  0  0  # atno 17320 bound_to 7965
  145.5516  139.1477  143.3391 LP  0  0  0  0  0  0  0  0  0  0  0  0  # atno 17321 bound_to 7965
  140.7571  143.6026  150.8684 LP  0  0  0  0  0  0  0  0  0  0  0  0  # atno 17342 bound_to 10162
  139.9682  143.6087  152.2982 LP  0  0  0  0  0  0  0  0  0  0  0  0  # atno 17343 bound_to 10162
  157.4387  131.0858  151.0965 LP  0  0  0  0  0  0  0  0  0  0  0  0  # atno 17370 bound_to 10713
  157.1516  130.6186  149.5584 LP  0  0  0  0  0  0  0  0  0  0  0  0  # atno 17371 bound_to 10713
  140.8070  134.3443  157.5423 LP  0  0  0  0  0  0  0  0  0  0  0  0  # atno 17394 bound_to 11000
  139.8763  134.9231  156.3318 LP  0  0  0  0  0  0  0  0  0  0  0  0  # atno 17395 bound_to 11000

$$$$
