AV-unprocessed.smi:2180|AV-procd|sdf|8859|dock7
  -GOLD-   2272012 53D 1   1.00000     0.00000
 Structure written by MMmdl.
 39 40  0  0  0  0  0  0  0  0  1 V2000
  153.6268  141.3355  161.5560 C   0  0  0  0  0  0  0  0  0  0  0  0
  152.9513  142.4293  160.7823 C   0  0  0  0  0  0  0  0  0  0  0  0
  152.4690  143.6792  161.2613 C   0  0  0  0  0  0  0  0  0  0  0  0
  151.9483  144.2881  160.1543 C   0  0  0  0  0  0  0  0  0  0  0  0
  151.2895  145.6221  160.0166 C   0  0  0  0  0  0  0  0  0  0  0  0
  152.1288  143.4151  159.0940 N   0  0  0  0  0  0  0  0  0  0  0  0
  151.7529  143.5688  157.6966 C   0  0  0  0  0  0  0  0  0  0  0  0
  151.0920  142.2987  157.1587 C   0  0  0  0  0  0  0  0  0  0  0  0
  151.5581  141.1943  157.4377 O   0  0  0  0  0  0  0  0  0  0  0  0
  150.0025  142.4724  156.3945 N   0  0  0  0  0  0  0  0  0  0  0  0
  149.1808  141.4094  155.8184 C   0  0  2  0  0  0  0  0  0  0  0  0
  148.2712  140.7723  156.9001 C   0  0  0  0  0  0  0  0  0  0  0  0
  147.8084  139.3252  156.6299 C   0  0  0  0  0  0  0  0  0  0  0  0
  147.1255  139.0895  155.2674 C   0  0  0  0  0  0  0  0  0  0  0  0
  147.9216  139.5081  154.0079 C   0  0  0  0  0  0  0  0  0  0  0  0
  149.3714  139.5543  154.1962 N   0  0  0  0  0  0  0  0  0  0  0  0
  150.0239  140.4178  154.9934 C   0  0  0  0  0  0  0  0  0  0  0  0
  151.2514  140.4087  155.0812 O   0  0  0  0  0  0  0  0  0  0  0  0
  152.7475  142.2790  159.4843 N   0  0  0  0  0  0  0  0  0  0  0  0
  153.5319  141.4970  162.6299 H   0  0  0  0  0  0  0  0  0  0  0  0
  154.6899  141.2882  161.3192 H   0  0  0  0  0  0  0  0  0  0  0  0
  153.1901  140.3625  161.3285 H   0  0  0  0  0  0  0  0  0  0  0  0
  152.4996  144.0695  162.2678 H   0  0  0  0  0  0  0  0  0  0  0  0
  151.4704  146.2362  160.8989 H   0  0  0  0  0  0  0  0  0  0  0  0
  150.2111  145.5114  159.9040 H   0  0  0  0  0  0  0  0  0  0  0  0
  151.6694  146.1647  159.1511 H   0  0  0  0  0  0  0  0  0  0  0  0
  151.0847  144.4252  157.5991 H   0  0  0  0  0  0  0  0  0  0  0  0
  152.6406  143.7941  157.1030 H   0  0  0  0  0  0  0  0  0  0  0  0
  149.6934  143.4183  156.2217 H   0  0  0  0  0  0  0  0  0  0  0  0
  148.5289  141.8964  155.0918 H   0  0  0  0  0  0  0  0  0  0  0  0
  148.7937  140.7740  157.8580 H   0  0  0  0  0  0  0  0  0  0  0  0
  147.3966  141.4081  157.0431 H   0  0  0  0  0  0  0  0  0  0  0  0
  148.6586  138.6489  156.7277 H   0  0  0  0  0  0  0  0  0  0  0  0
  147.1201  139.0268  157.4211 H   0  0  0  0  0  0  0  0  0  0  0  0
  146.9026  138.0246  155.1928 H   0  0  0  0  0  0  0  0  0  0  0  0
  146.1566  139.5899  155.2540 H   0  0  0  0  0  0  0  0  0  0  0  0
  147.7028  138.8166  153.1941 H   0  0  0  0  0  0  0  0  0  0  0  0
  147.5779  140.4811  153.6553 H   0  0  0  0  0  0  0  0  0  0  0  0
  149.9222  138.8934  153.6669 H   0  0  0  0  0  0  0  0  0  0  0  0
  1  2  1  0  0  0  0
  1 20  1  0  0  0  0
  1 21  1  0  0  0  0
  1 22  1  0  0  0  0
  2 19  2  0  0  0  0
  2  3  1  0  0  0  0
  3  4  2  0  0  0  0
  3 23  1  0  0  0  0
  4  5  1  0  0  0  0
  4  6  1  0  0  0  0
  5 24  1  0  0  0  0
  5 25  1  0  0  0  0
  5 26  1  0  0  0  0
  6  7  1  0  0  0  0
  6 19  1  0  0  0  0
  7  8  1  0  0  0  0
  7 27  1  0  0  0  0
  7 28  1  0  0  0  0
  8  9  2  0  0  0  0
  8 10  1  0  0  0  0
 10 11  1  0  0  0  0
 10 29  1  0  0  0  0
 11 17  1  0  0  0  0
 11 12  1  0  0  0  0
 11 30  1  0  0  0  0
 12 13  1  0  0  0  0
 12 31  1  0  0  0  0
 12 32  1  0  0  0  0
 13 14  1  0  0  0  0
 13 33  1  0  0  0  0
 13 34  1  0  0  0  0
 14 15  1  0  0  0  0
 14 35  1  0  0  0  0
 14 36  1  0  0  0  0
 15 16  1  0  0  0  0
 15 37  1  0  0  0  0
 15 38  1  0  0  0  0
 16 17  1  0  0  0  0
 16 39  1  0  0  0  0
 17 18  2  0  0  0  0
M  END
> <s_m_source_file>
AV-unprocessed.smi

> <i_m_source_file_index>
2180

> <i_lp_mmshare_version>
43012

> <i_f3d_flags>
0

> <s_epik_input>
W0NIM11jMVtjSF1jKFtDSDNdKW4objEpW0NIMl1DKD1PKVtOSF1bQ0BASF0yW0NIMl1bQ0gyXVtDSDJdW0NIMl1bTkhdQzI9Tw==

> <s_epik_cmdline>
J2VwaWtfcHl0aG9uJywgJy1waCcsICc3LjAnLCAnLXRuJywgJzgnLCAnLW1hJywgJzIwMCcsICctbWV0YWxfYmluZGluZycsICctaW1hZScsICc8aW5maWxlLm1hZT4nLCAnLW9tYWUnLCAnPG91dGZpbGUubWFlPic=

> <r_lp_tautomer_probability>
1

> <r_epik_Ionization_Penalty>
0.000287215

> <r_epik_Ionization_Penalty_Charging>
0

> <r_epik_Ionization_Penalty_Neutral>
0.000287215

> <r_epik_State_Penalty>
-0

> <r_epik_Charging_Adjusted_Penalty>
0

> <i_epik_Tot_Q>
0

> <i_epik_Tot_abs_Q>
0

> <r_epik_Metal_State_Penalty>
-0

> <b_epik_Metal_Only>
0

> <s_lp_Force_Field>
OPLS_2005

> <r_lp_Energy>
13.5369

> <b_lp_Chiralities_Consistent>
1

> <s_lp_Variant>
AV-unprocessed.smi:2180-1

> <Gold.Version>
5.8.1

> <Gold.Id.Protein>
6NUR|6NUR_protein|mol2

> <Gold.PLP.Fitness>
44.6396

> <Gold.PLP.PLP>
-39.6453

> <Gold.PLP.part.hbond>
-2.8673

> <Gold.PLP.part.metal>
0.0000

> <Gold.PLP.part.buried>
-5.5611

> <Gold.PLP.part.nonpolar>
-31.3244

> <Gold.PLP.part.repulsive>
0.2393

> <Gold.PLP.ligand.clash>
0.0000

> <Gold.PLP.ligand.torsion>
0.5296

> <Gold.PLP.Chemscore.Hbond>
2.0000

> <Gold.PLP.Chemscore.CHOScore>
0.0000

> <Gold.PLP.Chemscore.Metal>
0.0000

> <Gold.Chemscore.Hbonds>
donor molecule, donor type, donor heavy atom, donor atom, acceptor molecule, acceptor atom, score
      L1  H    10    29       P1  8028  1.00
      P1  H  7989  7998       L1    18  1.00

> <Gold.PLP.Chemscore.Internal.Correction>
0.0534

> <Gold.Rescore>
     Score         DG    S(hbond)    S(metal)    S(lipo)     H(rot)  DE(clash)    DE(int)     intcor
     12.81     -17.46       1.95        0.00      79.16       1.48       0.03       4.62       ----

> <Gold.Chemscore.Fitness>
12.8098

> <Gold.Chemscore.DG>
-17.4580

> <Gold.Chemscore.ZeroCoef>
-5.4800

> <Gold.Chemscore.Hbond>
1.9505

> <Gold.Chemscore.Metal>
0.0000

> <Gold.Chemscore.Lipo>
79.1647

> <Gold.Chemscore.Internal_Hbond>
0.0000

> <Gold.Chemscore.DEClash>
0.0255

> <Gold.Chemscore.DEInternal>
4.6227

> <Gold.Chemscore.Rot>
1.4840

> <Gold.Chemscore.Internal.Correction>
   9.000000E+99

> <Gold.Chemscore.Hbonds>
donor molecule, donor type, donor heavy atom, donor atom, acceptor molecule, acceptor atom, score
      L1  H    10    29       P1  8028  0.99
      P1  H  7989  7998       L1    18  0.24

> <Gold.Chemscore.Hbond.Weighted>
-6.5148

> <Gold.Chemscore.Metal.Weighted>
-0.0000

> <Gold.Chemscore.Lipo.Weighted>
-9.2623

> <Gold.Chemscore.Internal_Hbond.Weighted>
0.0000

> <Gold.Chemscore.DEClash.Weighted>
0.0255

> <Gold.Chemscore.DEInternal.Weighted>
4.6227

> <Gold.Chemscore.Rot.Weighted>
3.7991

> <Gold.Chemscore.Internal.Correction.Weighted>
   9.000000E+99

> <Gold.Protein.RotatedTorsions>
[ 6907 6896 6895 6894 ] final   35.97 input  -60.11 | X-H torsion
[ 7974 7965 7964 7962 ] final  -83.15 input  175.53 | X-H torsion
[ 8008 7997 7996 7995 ] final -114.38 input   59.86 | X-H torsion
[ 10167 10162 10161 10158 ] final  -49.98 input  -65.29 | X-H torsion
[ 10718 10713 10712 10709 ] final -125.13 input   66.30 | X-H torsion
[ 10763 10752 10751 10750 ] final   37.31 input  -60.55 | X-H torsion
[ 11005 11000 10999 10996 ] final  164.74 input  -57.11 | X-H torsion

> <Gold.Protein.ActiveResidues>
 VAL166  LYS551  ARG553  GLY616  TRP617  ASP618  TYR619  PRO620  LYS621  CYS622 
 ASP623  PHE694  ASN695  SER759  ASP760  ASP761  ALA762  ILE779  LEU786  VAL792 
 PHE793  MET794  SER795  GLU796  ALA797  LYS798  CYS799  TRP800  GLU811  SER814 

> <Gold.Protein.RotatedAtoms>
  152.1234  134.9188  160.0561 H   0  0  0  0  0  0  0  0  0  0  0  0  # atno 6907 bound_to 6896
  152.0320  133.3936  159.4309 H   0  0  0  0  0  0  0  0  0  0  0  0  # atno 6908 bound_to 6896
  150.6851  134.3431  159.4920 H   0  0  0  0  0  0  0  0  0  0  0  0  # atno 6909 bound_to 6896
  145.5238  140.9528  143.1641 H   0  0  0  0  0  0  0  0  0  0  0  0  # atno 7974 bound_to 7965
  155.0354  140.0392  157.2490 H   0  0  0  0  0  0  0  0  0  0  0  0  # atno 8008 bound_to 7997
  154.7261  140.2721  155.6474 H   0  0  0  0  0  0  0  0  0  0  0  0  # atno 8009 bound_to 7997
  156.2829  140.2693  156.1947 H   0  0  0  0  0  0  0  0  0  0  0  0  # atno 8010 bound_to 7997
  140.6660  143.2676  151.4293 H   0  0  0  0  0  0  0  0  0  0  0  0  # atno 10167 bound_to 10162
  156.1648  130.6627  151.0100 H   0  0  0  0  0  0  0  0  0  0  0  0  # atno 10718 bound_to 10713
  153.0042  135.6281  154.2124 H   0  0  0  0  0  0  0  0  0  0  0  0  # atno 10763 bound_to 10752
  154.1868  135.2810  155.3036 H   0  0  0  0  0  0  0  0  0  0  0  0  # atno 10764 bound_to 10752
  154.5791  135.5653  153.7228 H   0  0  0  0  0  0  0  0  0  0  0  0  # atno 10765 bound_to 10752
  140.2490  134.7992  157.3483 H   0  0  0  0  0  0  0  0  0  0  0  0  # atno 11005 bound_to 11000
  144.7662  139.6840  143.7214 LP  0  0  0  0  0  0  0  0  0  0  0  0  # atno 17320 bound_to 7965
  146.2089  139.5431  142.9694 LP  0  0  0  0  0  0  0  0  0  0  0  0  # atno 17321 bound_to 7965
  139.5908  144.1502  152.2086 LP  0  0  0  0  0  0  0  0  0  0  0  0  # atno 17342 bound_to 10162
  140.0856  144.5664  150.7091 LP  0  0  0  0  0  0  0  0  0  0  0  0  # atno 17343 bound_to 10162
  157.6760  131.0850  150.7493 LP  0  0  0  0  0  0  0  0  0  0  0  0  # atno 17370 bound_to 10713
  156.7554  130.4782  149.5448 LP  0  0  0  0  0  0  0  0  0  0  0  0  # atno 17371 bound_to 10713
  140.1577  134.4768  155.7916 LP  0  0  0  0  0  0  0  0  0  0  0  0  # atno 17394 bound_to 11000
  141.2203  133.6888  156.7490 LP  0  0  0  0  0  0  0  0  0  0  0  0  # atno 17395 bound_to 11000

$$$$
