AV-unprocessed.smi:925|AV-procd|sdf|4182|dock1
  -GOLD-   22720 2 83D 1   1.00000     0.00000
 Structure written by MMmdl.
 28 29  0  0  0  0  0  0  0  0  2 V2000
  150.7637  141.0975  157.0385 O   0  0  0  0  0  0  0  0  0  0  0  0
  151.8251  140.7388  157.5538 C   0  0  0  0  0  0  0  0  0  0  0  0
  152.5873  139.6895  157.1693 N   0  5  0  0  0  0  0  0  0  0  0  0
  152.0774  138.7530  156.3522 C   0  0  0  0  0  0  0  0  0  0  0  0
  152.5074  137.4810  156.3608 N   0  0  0  0  0  0  0  0  0  0  0  0
  151.8479  136.6754  155.4423 N   0  0  0  0  0  0  0  0  0  0  0  0
  150.9267  137.3625  154.7671 C   0  0  0  0  0  0  0  0  0  0  0  0
  150.7785  139.0541  155.1945 S   0  0  0  0  0  0  0  0  0  0  0  0
  152.3241  141.4134  158.5999 N   0  0  0  0  0  0  0  0  0  0  0  0
  151.7248  142.5841  159.2357 C   0  0  0  0  0  0  0  0  0  0  0  0
  151.7453  143.7947  158.2790 C   0  0  0  0  0  0  0  0  0  0  0  0
  151.1922  145.0582  158.9578 C   0  0  0  0  0  0  0  0  0  0  0  0
  151.9489  145.3706  160.2584 C   0  0  0  0  0  0  0  0  0  0  0  0
  151.9244  144.1689  161.2160 C   0  0  0  0  0  0  0  0  0  0  0  0
  152.4806  142.9056  160.5391 C   0  0  0  0  0  0  0  0  0  0  0  0
  150.3287  136.8696  154.0155 H   0  0  0  0  0  0  0  0  0  0  0  0
  153.1958  141.0828  158.9871 H   0  0  0  0  0  0  0  0  0  0  0  0
  150.6892  142.3559  159.4954 H   0  0  0  0  0  0  0  0  0  0  0  0
  152.7663  143.9820  157.9433 H   0  0  0  0  0  0  0  0  0  0  0  0
  151.1618  143.5779  157.3834 H   0  0  0  0  0  0  0  0  0  0  0  0
  151.2593  145.9059  158.2753 H   0  0  0  0  0  0  0  0  0  0  0  0
  150.1325  144.9198  159.1758 H   0  0  0  0  0  0  0  0  0  0  0  0
  152.9821  145.6321  160.0264 H   0  0  0  0  0  0  0  0  0  0  0  0
  151.5102  146.2427  160.7442 H   0  0  0  0  0  0  0  0  0  0  0  0
  152.5027  144.3955  162.1120 H   0  0  0  0  0  0  0  0  0  0  0  0
  150.9012  143.9854  161.5462 H   0  0  0  0  0  0  0  0  0  0  0  0
  152.4145  142.0617  161.2270 H   0  0  0  0  0  0  0  0  0  0  0  0
  153.5413  143.0481  160.3262 H   0  0  0  0  0  0  0  0  0  0  0  0
  1  2  2  0  0  0  0
  2  3  1  0  0  0  0
  2  9  1  0  0  0  0
  3  4  1  0  0  0  0
  4  8  1  0  0  0  0
  4  5  2  0  0  0  0
  5  6  1  0  0  0  0
  6  7  2  0  0  0  0
  7  8  1  0  0  0  0
  7 16  1  0  0  0  0
  9 10  1  0  0  0  0
  9 17  1  0  0  0  0
 10 15  1  0  0  0  0
 10 11  1  0  0  0  0
 10 18  1  0  0  0  0
 11 12  1  0  0  0  0
 11 19  1  0  0  0  0
 11 20  1  0  0  0  0
 12 13  1  0  0  0  0
 12 21  1  0  0  0  0
 12 22  1  0  0  0  0
 13 14  1  0  0  0  0
 13 23  1  0  0  0  0
 13 24  1  0  0  0  0
 14 15  1  0  0  0  0
 14 25  1  0  0  0  0
 14 26  1  0  0  0  0
 15 27  1  0  0  0  0
 15 28  1  0  0  0  0
M  CHG  1   3  -1
M  END
> <s_m_source_file>
AV-unprocessed.smi

> <i_m_source_file_index>
925

> <i_lp_mmshare_version>
43012

> <i_f3d_flags>
0

> <s_epik_input>
czFbY0hdbm5jMVtOSF1DKD1PKVtOSF1bQ0hdMltDSDJdW0NIMl1bQ0gyXVtDSDJdW0NIMl0y

> <s_epik_cmdline>
J2VwaWtfcHl0aG9uJywgJy1waCcsICc3LjAnLCAnLXRuJywgJzgnLCAnLW1hJywgJzIwMCcsICctbWV0YWxfYmluZGluZycsICctaW1hZScsICc8aW5maWxlLm1hZT4nLCAnLW9tYWUnLCAnPG91dGZpbGUubWFlPic=

> <r_lp_tautomer_probability>
1

> <r_epik_Ionization_Penalty>
4.54636

> <r_epik_Ionization_Penalty_Charging>
4.4996

> <r_epik_Ionization_Penalty_Neutral>
0.0467566

> <r_epik_State_Penalty>
4.4993

> <r_epik_Charging_Adjusted_Penalty>
8.99891

> <i_epik_Tot_Q>
-1

> <i_epik_Tot_abs_Q>
1

> <r_epik_Metal_State_Penalty>
0.819079

> <b_epik_Metal_Only>
1

> <s_lp_Force_Field>
OPLS_2005

> <r_lp_Energy>
6.60766

> <b_lp_Chiralities_Consistent>
1

> <s_lp_Variant>
AV-unprocessed.smi:925-2

> <Gold.Version>
5.8.1

> <Gold.Id.Protein>
6NUR|6NUR_protein|mol2

> <Gold.PLP.Fitness>
47.5246

> <Gold.PLP.PLP>
-35.6171

> <Gold.PLP.part.hbond>
-2.3985

> <Gold.PLP.part.metal>
0.0000

> <Gold.PLP.part.buried>
-4.6160

> <Gold.PLP.part.nonpolar>
-29.2506

> <Gold.PLP.part.repulsive>
0.2258

> <Gold.PLP.ligand.clash>
0.0000

> <Gold.PLP.ligand.torsion>
0.2794

> <Gold.PLP.Chemscore.Hbond>
2.9920

> <Gold.PLP.Chemscore.CHOScore>
1.1598

> <Gold.PLP.Chemscore.Metal>
0.0000

> <Gold.Chemscore.Hbonds>
donor molecule, donor type, donor heavy atom, donor atom, acceptor molecule, acceptor atom, score
      P1  H  7997  8009       L1     3  2.00
      P1  H 10752 10764       L1     6  1.00
      L1  C     7    16       P1  7948  0.75
      L1  C     7    16       P1  7949  0.12

> <Gold.PLP.Chemscore.Internal.Correction>
0.0109

> <Gold.Rescore>
     Score         DG    S(hbond)    S(metal)    S(lipo)     H(rot)  DE(clash)    DE(int)     intcor
     16.57     -18.42       1.67        0.00      84.95       1.00       0.09       1.76       ----

> <Gold.Chemscore.Fitness>
16.5732

> <Gold.Chemscore.DG>
-18.4249

> <Gold.Chemscore.ZeroCoef>
-5.4800

> <Gold.Chemscore.Hbond>
1.6664

> <Gold.Chemscore.Metal>
0.0000

> <Gold.Chemscore.Lipo>
84.9505

> <Gold.Chemscore.Internal_Hbond>
0.0000

> <Gold.Chemscore.DEClash>
0.0939

> <Gold.Chemscore.DEInternal>
1.7578

> <Gold.Chemscore.Rot>
1.0000

> <Gold.Chemscore.Internal.Correction>
   9.000000E+99

> <Gold.Chemscore.Hbonds>
donor molecule, donor type, donor heavy atom, donor atom, acceptor molecule, acceptor atom, score
      P1  H  7997  8009       L1     3  0.65
      P1  H 10752 10764       L1     6  0.78

> <Gold.Chemscore.Hbond.Weighted>
-5.5657

> <Gold.Chemscore.Metal.Weighted>
-0.0000

> <Gold.Chemscore.Lipo.Weighted>
-9.9392

> <Gold.Chemscore.Internal_Hbond.Weighted>
0.0000

> <Gold.Chemscore.DEClash.Weighted>
0.0939

> <Gold.Chemscore.DEInternal.Weighted>
1.7578

> <Gold.Chemscore.Rot.Weighted>
2.5600

> <Gold.Chemscore.Internal.Correction.Weighted>
   9.000000E+99

> <Gold.Protein.RotatedTorsions>
[ 6907 6896 6895 6894 ] final  135.83 input  -60.11 | X-H torsion
[ 7974 7965 7964 7962 ] final   87.50 input  175.53 | X-H torsion
[ 8008 7997 7996 7995 ] final -177.72 input   59.86 | X-H torsion
[ 10167 10162 10161 10158 ] final -153.32 input  -65.29 | X-H torsion
[ 10718 10713 10712 10709 ] final   50.33 input   66.30 | X-H torsion
[ 10763 10752 10751 10750 ] final  -61.16 input  -60.55 | X-H torsion
[ 11005 11000 10999 10996 ] final  -10.82 input  -57.11 | X-H torsion

> <Gold.Protein.ActiveResidues>
 VAL166  LYS551  ARG553  GLY616  TRP617  ASP618  TYR619  PRO620  LYS621  CYS622 
 ASP623  PHE694  ASN695  SER759  ASP760  ASP761  ALA762  ILE779  LEU786  VAL792 
 PHE793  MET794  SER795  GLU796  ALA797  LYS798  CYS799  TRP800  GLU811  SER814 

> <Gold.Protein.RotatedAtoms>
  152.2961  133.5609  159.5588 H   0  0  0  0  0  0  0  0  0  0  0  0  # atno 6907 bound_to 6896
  150.7256  134.0359  159.3758 H   0  0  0  0  0  0  0  0  0  0  0  0  # atno 6908 bound_to 6896
  151.8262  135.0636  160.0482 H   0  0  0  0  0  0  0  0  0  0  0  0  # atno 6909 bound_to 6896
  145.5581  139.2301  143.2475 H   0  0  0  0  0  0  0  0  0  0  0  0  # atno 7974 bound_to 7965
  156.0103  140.1239  157.0461 H   0  0  0  0  0  0  0  0  0  0  0  0  # atno 8008 bound_to 7997
  154.4273  140.1089  156.5889 H   0  0  0  0  0  0  0  0  0  0  0  0  # atno 8009 bound_to 7997
  155.6090  140.3471  155.4618 H   0  0  0  0  0  0  0  0  0  0  0  0  # atno 8010 bound_to 7997
  139.7107  143.9114  152.2466 H   0  0  0  0  0  0  0  0  0  0  0  0  # atno 10167 bound_to 10162
  157.4874  130.8354  149.8163 H   0  0  0  0  0  0  0  0  0  0  0  0  # atno 10718 bound_to 10713
  154.2804  135.6273  153.5345 H   0  0  0  0  0  0  0  0  0  0  0  0  # atno 10763 bound_to 10752
  152.9866  135.5631  154.5502 H   0  0  0  0  0  0  0  0  0  0  0  0  # atno 10764 bound_to 10752
  154.5091  135.2876  155.1333 H   0  0  0  0  0  0  0  0  0  0  0  0  # atno 10765 bound_to 10752
  140.7487  133.8610  155.9027 H   0  0  0  0  0  0  0  0  0  0  0  0  # atno 11005 bound_to 11000
  146.1870  140.6405  142.9163 LP  0  0  0  0  0  0  0  0  0  0  0  0  # atno 17320 bound_to 7965
  144.7496  140.5158  143.6811 LP  0  0  0  0  0  0  0  0  0  0  0  0  # atno 17321 bound_to 7965
  139.8982  144.6927  150.8694 LP  0  0  0  0  0  0  0  0  0  0  0  0  # atno 17342 bound_to 10162
  140.7732  143.3534  151.1969 LP  0  0  0  0  0  0  0  0  0  0  0  0  # atno 17343 bound_to 10162
  156.0154  130.3815  150.2126 LP  0  0  0  0  0  0  0  0  0  0  0  0  # atno 17370 bound_to 10713
  157.0314  131.0008  151.3311 LP  0  0  0  0  0  0  0  0  0  0  0  0  # atno 17371 bound_to 10713
  140.9770  134.1455  157.4527 LP  0  0  0  0  0  0  0  0  0  0  0  0  # atno 17394 bound_to 11000
  139.8791  134.9998  156.5974 LP  0  0  0  0  0  0  0  0  0  0  0  0  # atno 17395 bound_to 11000

$$$$
