AV-unprocessed.smi:919|AV-procd|sdf|4165|dock9
  -GOLD-   22720 2 73D 1   1.00000     0.00000
 Structure written by MMmdl.
 43 45  0  0  0  0  0  0  0  0  1 V2000
  150.8551  138.1329  154.6580 C   0  0  0  0  0  0  0  0  0  0  0  0
  149.9077  139.2833  154.4729 C   0  0  0  0  0  0  0  0  0  0  0  0
  150.3913  140.5124  154.4066 N   0  0  0  0  0  0  0  0  0  0  0  0
  149.2870  141.3506  154.2246 O   0  0  0  0  0  0  0  0  0  0  0  0
  148.1683  140.5830  154.1862 C   0  0  0  0  0  0  0  0  0  0  0  0
  146.8709  141.2913  153.9879 C   0  0  0  0  0  0  0  0  0  0  0  0
  148.4892  139.2632  154.3410 C   0  0  0  0  0  0  0  0  0  0  0  0
  147.5640  138.0770  154.3562 C   0  0  0  0  0  0  0  0  0  0  0  0
  146.5104  138.1762  153.2422 C   0  0  0  0  0  0  0  0  0  0  0  0
  146.3740  136.9176  152.5202 N   0  0  0  0  0  0  0  0  0  0  0  0
  145.2156  136.2680  152.3158 C   0  0  0  0  0  0  0  0  0  0  0  0
  144.1306  136.6690  152.7330 O   0  0  0  0  0  0  0  0  0  0  0  0
  145.3270  135.1320  151.6052 N   0  0  0  0  0  0  0  0  0  0  0  0
  144.2600  134.2056  151.2170 C   0  0  1  0  0  0  0  0  0  0  0  0
  144.1959  134.0426  149.6820 C   0  0  0  0  0  0  0  0  0  0  0  0
  144.3861  132.5275  149.4823 C   0  0  1  0  0  0  0  0  0  0  0  0
  145.8446  132.1434  149.7970 C   0  0  0  0  0  0  0  0  0  0  0  0
  145.9013  132.2490  151.3326 C   0  0  0  0  0  0  0  0  0  0  0  0
  144.4832  132.7444  151.6886 C   0  0  2  0  0  0  0  0  0  0  0  0
  143.6427  131.9624  150.6849 C   0  0  0  0  0  0  0  0  0  0  0  0
  150.3234  137.2064  154.8731 H   0  0  0  0  0  0  0  0  0  0  0  0
  151.5418  138.3174  155.4846 H   0  0  0  0  0  0  0  0  0  0  0  0
  151.4512  137.9706  153.7597 H   0  0  0  0  0  0  0  0  0  0  0  0
  146.3058  140.8370  153.1738 H   0  0  0  0  0  0  0  0  0  0  0  0
  147.0279  142.3422  153.7442 H   0  0  0  0  0  0  0  0  0  0  0  0
  146.2621  141.2395  154.8904 H   0  0  0  0  0  0  0  0  0  0  0  0
  148.1238  137.1481  154.2444 H   0  0  0  0  0  0  0  0  0  0  0  0
  147.0647  138.0007  155.3230 H   0  0  0  0  0  0  0  0  0  0  0  0
  145.5449  138.4760  153.6538 H   0  0  0  0  0  0  0  0  0  0  0  0
  146.7956  138.9485  152.5272 H   0  0  0  0  0  0  0  0  0  0  0  0
  147.2174  136.5155  152.1381 H   0  0  0  0  0  0  0  0  0  0  0  0
  146.2554  134.8861  151.2933 H   0  0  0  0  0  0  0  0  0  0  0  0
  143.2984  134.5769  151.5762 H   0  0  0  0  0  0  0  0  0  0  0  0
  143.2217  134.3599  149.3077 H   0  0  0  0  0  0  0  0  0  0  0  0
  144.9543  134.6208  149.1520 H   0  0  0  0  0  0  0  0  0  0  0  0
  144.0381  132.1679  148.5136 H   0  0  0  0  0  0  0  0  0  0  0  0
  146.0596  131.1236  149.4754 H   0  0  0  0  0  0  0  0  0  0  0  0
  146.5592  132.8068  149.3084 H   0  0  0  0  0  0  0  0  0  0  0  0
  146.0808  131.2668  151.7718 H   0  0  0  0  0  0  0  0  0  0  0  0
  146.6968  132.9076  151.6811 H   0  0  0  0  0  0  0  0  0  0  0  0
  144.2146  132.5752  152.7317 H   0  0  0  0  0  0  0  0  0  0  0  0
  142.5846  132.2293  150.7044 H   0  0  0  0  0  0  0  0  0  0  0  0
  143.7403  130.8799  150.7853 H   0  0  0  0  0  0  0  0  0  0  0  0
  1  2  1  0  0  0  0
  1 21  1  0  0  0  0
  1 22  1  0  0  0  0
  1 23  1  0  0  0  0
  2  7  1  0  0  0  0
  2  3  2  0  0  0  0
  3  4  1  0  0  0  0
  4  5  1  0  0  0  0
  5  6  1  0  0  0  0
  5  7  2  0  0  0  0
  6 24  1  0  0  0  0
  6 25  1  0  0  0  0
  6 26  1  0  0  0  0
  7  8  1  0  0  0  0
  8  9  1  0  0  0  0
  8 27  1  0  0  0  0
  8 28  1  0  0  0  0
  9 10  1  0  0  0  0
  9 29  1  0  0  0  0
  9 30  1  0  0  0  0
 10 11  1  0  0  0  0
 10 31  1  0  0  0  0
 11 12  2  0  0  0  0
 11 13  1  0  0  0  0
 13 14  1  0  0  0  0
 13 32  1  0  0  0  0
 14 19  1  0  0  0  0
 14 15  1  0  0  0  0
 14 33  1  0  0  0  0
 15 16  1  0  0  0  0
 15 34  1  0  0  0  0
 15 35  1  0  0  0  0
 16 20  1  0  0  0  0
 16 17  1  0  0  0  0
 16 36  1  0  0  0  0
 17 18  1  0  0  0  0
 17 37  1  0  0  0  0
 17 38  1  0  0  0  0
 18 19  1  0  0  0  0
 18 39  1  0  0  0  0
 18 40  1  0  0  0  0
 19 20  1  0  0  0  0
 19 41  1  0  0  0  0
 20 42  1  0  0  0  0
 20 43  1  0  0  0  0
M  END
> <s_m_source_file>
AV-unprocessed.smi

> <i_m_source_file_index>
919

> <i_lp_mmshare_version>
43012

> <i_f3d_flags>
0

> <s_epik_input>
W0NIM11jMW5vYyhbQ0gzXSljMVtDSDJdW0NIMl1bTkhdQyg9TylbTkhdW0NASF0oW0NIMl1bQ0BASF0yMylbQ0BASF0oW0NIMl0zKVtDSDJdW0NIMl0y

> <s_epik_cmdline>
J2VwaWtfcHl0aG9uJywgJy1waCcsICc3LjAnLCAnLXRuJywgJzgnLCAnLW1hJywgJzIwMCcsICctbWV0YWxfYmluZGluZycsICctaW1hZScsICc8aW5maWxlLm1hZT4nLCAnLW9tYWUnLCAnPG91dGZpbGUubWFlPic=

> <r_lp_tautomer_probability>
1

> <r_epik_Ionization_Penalty>
6.40771e-05

> <r_epik_Ionization_Penalty_Charging>
0

> <r_epik_Ionization_Penalty_Neutral>
6.40771e-05

> <r_epik_State_Penalty>
-0

> <r_epik_Charging_Adjusted_Penalty>
0

> <i_epik_Tot_Q>
0

> <i_epik_Tot_abs_Q>
0

> <r_epik_Metal_State_Penalty>
-0

> <b_epik_Metal_Only>
0

> <s_lp_Force_Field>
OPLS_2005

> <r_lp_Energy>
47.6346

> <b_lp_Chiralities_Consistent>
1

> <s_lp_Variant>
AV-unprocessed.smi:919-2

> <Gold.Version>
5.8.1

> <Gold.Id.Protein>
6NUR|6NUR_protein|mol2

> <Gold.PLP.Fitness>
45.3656

> <Gold.PLP.PLP>
-38.6445

> <Gold.PLP.part.hbond>
-3.7185

> <Gold.PLP.part.metal>
0.0000

> <Gold.PLP.part.buried>
-3.4680

> <Gold.PLP.part.nonpolar>
-32.9565

> <Gold.PLP.part.repulsive>
0.5857

> <Gold.PLP.ligand.clash>
0.0000

> <Gold.PLP.ligand.torsion>
0.5684

> <Gold.PLP.Chemscore.Hbond>
2.6133

> <Gold.PLP.Chemscore.CHOScore>
0.0000

> <Gold.PLP.Chemscore.Metal>
0.0000

> <Gold.Chemscore.Hbonds>
donor molecule, donor type, donor heavy atom, donor atom, acceptor molecule, acceptor atom, score
      L1  H    10    31       P1  7948  1.00
      P1  H  7989  7998       L1     3  0.94
      P1  H  8011  8017       L1     4  0.35

> <Gold.PLP.Chemscore.Internal.Correction>
0.0181

> <Gold.Rescore>
     Score         DG    S(hbond)    S(metal)    S(lipo)     H(rot)  DE(clash)    DE(int)     intcor
     18.13     -19.93       1.86        0.00     103.68       1.52       1.41       0.39       ----

> <Gold.Chemscore.Fitness>
18.1305

> <Gold.Chemscore.DG>
-19.9299

> <Gold.Chemscore.ZeroCoef>
-5.4800

> <Gold.Chemscore.Hbond>
1.8565

> <Gold.Chemscore.Metal>
0.0000

> <Gold.Chemscore.Lipo>
103.6786

> <Gold.Chemscore.Internal_Hbond>
0.0000

> <Gold.Chemscore.DEClash>
1.4062

> <Gold.Chemscore.DEInternal>
0.3932

> <Gold.Chemscore.Rot>
1.5161

> <Gold.Chemscore.Internal.Correction>
   9.000000E+99

> <Gold.Chemscore.Hbonds>
donor molecule, donor type, donor heavy atom, donor atom, acceptor molecule, acceptor atom, score
      L1  H    10    31       P1  7948  1.00
      P1  H  7989  7998       L1     3  0.74
      P1  H  8011  8017       L1     4  0.13

> <Gold.Chemscore.Hbond.Weighted>
-6.2008

> <Gold.Chemscore.Metal.Weighted>
-0.0000

> <Gold.Chemscore.Lipo.Weighted>
-12.1304

> <Gold.Chemscore.Internal_Hbond.Weighted>
0.0000

> <Gold.Chemscore.DEClash.Weighted>
1.4062

> <Gold.Chemscore.DEInternal.Weighted>
0.3932

> <Gold.Chemscore.Rot.Weighted>
3.8813

> <Gold.Chemscore.Internal.Correction.Weighted>
   9.000000E+99

> <Gold.Protein.RotatedTorsions>
[ 6907 6896 6895 6894 ] final  -68.48 input  -60.11 | X-H torsion
[ 7974 7965 7964 7962 ] final  125.72 input  175.53 | X-H torsion
[ 8008 7997 7996 7995 ] final  125.00 input   59.86 | X-H torsion
[ 10167 10162 10161 10158 ] final -119.32 input  -65.29 | X-H torsion
[ 10718 10713 10712 10709 ] final   39.94 input   66.30 | X-H torsion
[ 10763 10752 10751 10750 ] final   79.01 input  -60.55 | X-H torsion
[ 11005 11000 10999 10996 ] final  -66.69 input  -57.11 | X-H torsion

> <Gold.Protein.ActiveResidues>
 VAL166  LYS551  ARG553  GLY616  TRP617  ASP618  TYR619  PRO620  LYS621  CYS622 
 ASP623  PHE694  ASN695  SER759  ASP760  ASP761  ALA762  ILE779  LEU786  VAL792 
 PHE793  MET794  SER795  GLU796  ALA797  LYS798  CYS799  TRP800  GLU811  SER814 

> <Gold.Protein.RotatedAtoms>
  150.7354  134.5734  159.5901 H   0  0  0  0  0  0  0  0  0  0  0  0  # atno 6907 bound_to 6896
  152.3167  134.7428  160.0333 H   0  0  0  0  0  0  0  0  0  0  0  0  # atno 6908 bound_to 6896
  151.7958  133.3328  159.3549 H   0  0  0  0  0  0  0  0  0  0  0  0  # atno 6909 bound_to 6896
  145.0698  139.3739  143.4963 H   0  0  0  0  0  0  0  0  0  0  0  0  # atno 7974 bound_to 7965
  156.2820  140.2726  156.1879 H   0  0  0  0  0  0  0  0  0  0  0  0  # atno 8008 bound_to 7997
  155.0489  140.0386  157.2554 H   0  0  0  0  0  0  0  0  0  0  0  0  # atno 8009 bound_to 7997
  154.7212  140.2688  155.6545 H   0  0  0  0  0  0  0  0  0  0  0  0  # atno 8010 bound_to 7997
  140.0479  143.5088  152.2097 H   0  0  0  0  0  0  0  0  0  0  0  0  # atno 10167 bound_to 10162
  157.3764  130.7729  149.7158 H   0  0  0  0  0  0  0  0  0  0  0  0  # atno 10718 bound_to 10713
  153.0919  135.4855  154.8706 H   0  0  0  0  0  0  0  0  0  0  0  0  # atno 10763 bound_to 10752
  154.7279  135.3053  154.8942 H   0  0  0  0  0  0  0  0  0  0  0  0  # atno 10764 bound_to 10752
  153.9587  135.6815  153.4798 H   0  0  0  0  0  0  0  0  0  0  0  0  # atno 10765 bound_to 10752
  141.1489  133.6704  156.6178 H   0  0  0  0  0  0  0  0  0  0  0  0  # atno 11005 bound_to 11000
  146.3528  140.0437  142.8641 LP  0  0  0  0  0  0  0  0  0  0  0  0  # atno 17320 bound_to 7965
  145.1306  140.9516  143.4546 LP  0  0  0  0  0  0  0  0  0  0  0  0  # atno 17321 bound_to 7965
  139.5971  144.7571  151.3259 LP  0  0  0  0  0  0  0  0  0  0  0  0  # atno 17342 bound_to 10162
  140.7230  143.7082  150.7790 LP  0  0  0  0  0  0  0  0  0  0  0  0  # atno 17343 bound_to 10162
  155.9766  130.4073  150.3767 LP  0  0  0  0  0  0  0  0  0  0  0  0  # atno 17370 bound_to 10713
  157.1865  131.0405  151.2722 LP  0  0  0  0  0  0  0  0  0  0  0  0  # atno 17371 bound_to 10713
  140.3564  134.7725  157.4503 LP  0  0  0  0  0  0  0  0  0  0  0  0  # atno 17394 bound_to 11000
  140.0820  134.5719  155.8531 LP  0  0  0  0  0  0  0  0  0  0  0  0  # atno 17395 bound_to 11000

$$$$
