AV-unprocessed.smi:21|AV-procd|sdf|135|dock10
  -GOLD-   2262015333D 1   1.00000     0.00000
 Structure written by MMmdl.
 62 65  0  0  0  0  0  0  0  0  2 V2000
  144.2437  133.2347  150.4927 C   0  0  0  0  0  0  0  0  0  0  0  0
  145.1131  132.9823  151.5854 O   0  0  0  0  0  0  0  0  0  0  0  0
  145.9200  131.8249  151.4155 C   0  0  1  0  0  0  0  0  0  0  0  0
  146.9452  131.7712  152.5491 C   0  0  0  0  0  0  0  0  0  0  0  0
  146.3029  130.8509  153.5867 C   0  0  2  0  0  0  0  0  0  0  0  0
  147.2766  130.2776  154.6436 C   0  0  0  0  0  0  0  0  0  0  0  0
  147.0261  130.7971  155.9863 N   0  0  0  0  0  0  0  0  0  0  0  0
  146.0362  130.1086  156.8144 C   0  0  0  0  0  0  0  0  0  0  0  0
  147.8525  131.7199  156.5662 C   0  0  0  0  0  0  0  0  0  0  0  0
  148.2416  131.5045  157.8527 N   0  0  0  0  0  0  0  0  0  0  0  0
  149.0503  132.3584  158.4838 C   0  0  0  0  0  0  0  0  0  0  0  0
  149.5874  133.4869  158.0248 N   0  0  0  0  0  0  0  0  0  0  0  0
  149.2061  133.7260  156.7391 C   0  0  0  0  0  0  0  0  0  0  0  0
  148.3510  132.9082  155.9403 C   0  0  0  0  0  0  0  0  0  0  0  0
  148.2056  133.4969  154.6859 N   0  0  0  0  0  0  0  0  0  0  0  0
  148.9215  134.5850  154.7420 C   0  0  0  0  0  0  0  0  0  0  0  0
  149.5540  134.8023  155.9414 N   0  0  0  0  0  0  0  0  0  0  0  0
  150.4067  135.9305  156.2746 C   0  0  0  0  0  0  0  0  0  0  0  0
  149.6272  137.1223  156.8842 C   0  0  1  0  0  0  0  0  0  0  0  0
  149.4442  136.9934  158.4165 C   0  0  0  0  0  0  0  0  0  0  0  0
  150.6874  136.9961  159.0873 O   0  0  0  0  0  0  0  0  0  0  0  0
  150.2512  138.4827  156.4809 C   0  0  1  0  0  0  0  0  0  0  0  0
  151.7679  138.5327  156.5414 C   0  0  0  0  0  0  0  0  0  0  0  0
  152.0816  139.7495  155.6789 C   0  0  0  0  0  0  0  0  0  0  0  0
  151.0831  139.7638  154.6659 O   0  0  0  0  0  0  0  0  0  0  0  0
  150.0166  138.8885  155.0211 C   0  0  0  0  0  0  0  0  0  0  0  0
  145.5786  129.8350  152.7839 N   0  3  2  0  0  0  0  0  0  0  0  0
  146.3487  128.6134  152.4435 C   0  0  0  0  0  0  0  0  0  0  0  0
  145.0782  130.5425  151.5815 C   0  0  0  0  0  0  0  0  0  0  0  0
  146.4358  131.8537  150.4539 H   0  0  0  0  0  0  0  0  0  0  0  0
  145.5273  131.4247  154.0960 H   0  0  0  0  0  0  0  0  0  0  0  0
  143.6483  134.1240  150.6991 H   0  0  0  0  0  0  0  0  0  0  0  0
  143.5579  132.4046  150.3215 H   0  0  0  0  0  0  0  0  0  0  0  0
  144.8075  133.4157  149.5768 H   0  0  0  0  0  0  0  0  0  0  0  0
  147.8720  131.3270  152.1837 H   0  0  0  0  0  0  0  0  0  0  0  0
  147.1869  132.7574  152.9471 H   0  0  0  0  0  0  0  0  0  0  0  0
  147.2503  129.1895  154.6597 H   0  0  0  0  0  0  0  0  0  0  0  0
  148.3023  130.5233  154.3672 H   0  0  0  0  0  0  0  0  0  0  0  0
  145.3164  130.8183  157.2237 H   0  0  0  0  0  0  0  0  0  0  0  0
  146.5183  129.5864  157.6416 H   0  0  0  0  0  0  0  0  0  0  0  0
  145.4784  129.3704  156.2378 H   0  0  0  0  0  0  0  0  0  0  0  0
  149.3026  132.0999  159.5018 H   0  0  0  0  0  0  0  0  0  0  0  0
  149.0060  135.2661  153.9074 H   0  0  0  0  0  0  0  0  0  0  0  0
  151.1839  135.5938  156.9616 H   0  0  0  0  0  0  0  0  0  0  0  0
  150.9174  136.2335  155.3606 H   0  0  0  0  0  0  0  0  0  0  0  0
  148.6246  137.0928  156.4548 H   0  0  0  0  0  0  0  0  0  0  0  0
  148.8378  137.8109  158.8056 H   0  0  0  0  0  0  0  0  0  0  0  0
  148.9102  136.0783  158.6728 H   0  0  0  0  0  0  0  0  0  0  0  0
  150.8288  137.8548  159.4558 H   0  0  0  0  0  0  0  0  0  0  0  0
  149.8595  139.2706  157.1265 H   0  0  0  0  0  0  0  0  0  0  0  0
  152.1568  138.6321  157.5551 H   0  0  0  0  0  0  0  0  0  0  0  0
  152.1994  137.6359  156.0944 H   0  0  0  0  0  0  0  0  0  0  0  0
  151.9946  140.6644  156.2664 H   0  0  0  0  0  0  0  0  0  0  0  0
  153.0845  139.7137  155.2527 H   0  0  0  0  0  0  0  0  0  0  0  0
  150.0600  138.0184  154.3644 H   0  0  0  0  0  0  0  0  0  0  0  0
  149.0503  139.3717  154.8751 H   0  0  0  0  0  0  0  0  0  0  0  0
  147.2634  128.8586  151.9025 H   0  0  0  0  0  0  0  0  0  0  0  0
  145.7512  127.9511  151.8161 H   0  0  0  0  0  0  0  0  0  0  0  0
  146.6134  128.0476  153.3364 H   0  0  0  0  0  0  0  0  0  0  0  0
  144.0295  130.7892  151.7509 H   0  0  0  0  0  0  0  0  0  0  0  0
  145.1163  129.9191  150.6869 H   0  0  0  0  0  0  0  0  0  0  0  0
  144.7814  129.5264  153.3224 H   0  0  0  0  0  0  0  0  0  0  0  0
  1  2  1  0  0  0  0
  1 32  1  0  0  0  0
  1 33  1  0  0  0  0
  1 34  1  0  0  0  0
  2  3  1  0  0  0  0
  3 30  1  0  0  0  0
  3 29  1  0  0  0  0
  3  4  1  0  0  0  0
  4  5  1  0  0  0  0
  4 35  1  0  0  0  0
  4 36  1  0  0  0  0
  5 31  1  0  0  0  0
  5  6  1  0  0  0  0
  5 27  1  0  0  0  0
  6  7  1  0  0  0  0
  6 37  1  0  0  0  0
  6 38  1  0  0  0  0
  7  8  1  0  0  0  0
  7  9  1  0  0  0  0
  8 39  1  0  0  0  0
  8 40  1  0  0  0  0
  8 41  1  0  0  0  0
  9 14  1  0  0  0  0
  9 10  2  0  0  0  0
 10 11  1  0  0  0  0
 11 12  2  0  0  0  0
 11 42  1  0  0  0  0
 12 13  1  0  0  0  0
 13 17  1  0  0  0  0
 13 14  2  0  0  0  0
 14 15  1  0  0  0  0
 15 16  2  0  0  0  0
 16 17  1  0  0  0  0
 16 43  1  0  0  0  0
 17 18  1  0  0  0  0
 18 19  1  0  0  0  0
 18 44  1  0  0  0  0
 18 45  1  0  0  0  0
 19 20  1  0  0  0  0
 19 22  1  0  0  0  0
 19 46  1  0  0  0  0
 20 21  1  0  0  0  0
 20 47  1  0  0  0  0
 20 48  1  0  0  0  0
 21 49  1  0  0  0  0
 22 26  1  0  0  0  0
 22 23  1  0  0  0  0
 22 50  1  0  0  0  0
 23 24  1  0  0  0  0
 23 51  1  0  0  0  0
 23 52  1  0  0  0  0
 24 25  1  0  0  0  0
 24 53  1  0  0  0  0
 24 54  1  0  0  0  0
 25 26  1  0  0  0  0
 26 55  1  0  0  0  0
 26 56  1  0  0  0  0
 27 28  1  0  0  0  0
 27 29  1  0  0  0  0
 27 62  1  0  0  0  0
 28 57  1  0  0  0  0
 28 58  1  0  0  0  0
 28 59  1  0  0  0  0
 29 60  1  0  0  0  0
 29 61  1  0  0  0  0
M  CHG  1  27   1
M  END
> <s_m_source_file>
AV-unprocessed.smi

> <i_m_source_file_index>
21

> <i_lp_mmshare_version>
43012

> <i_f3d_flags>
0

> <s_epik_input>
W0NIM11PW0NASF0xW0NIMl1bQ0BIXShOKFtDSDNdKVtDSDJdMSlbQ0gyXU4oW0NIM10pYyhuW2NIXW4yKWMoYzIzKW5bY0hdbjNbQ0gyXVtDQEhdKFtDSDJdW09IXSlbQ0BASF00W0NIMl1bQ0gyXU9bQ0gyXTQ=

> <s_epik_cmdline>
J2VwaWtfcHl0aG9uJywgJy1waCcsICc3LjAnLCAnLXRuJywgJzgnLCAnLW1hJywgJzIwMCcsICctbWV0YWxfYmluZGluZycsICctaW1hZScsICc8aW5maWxlLm1hZT4nLCAnLW9tYWUnLCAnPG91dGZpbGUubWFlPic=

> <r_lp_tautomer_probability>
1

> <r_epik_Ionization_Penalty>
0.0157465

> <r_epik_Ionization_Penalty_Charging>
0.015354

> <r_epik_Ionization_Penalty_Neutral>
0.000392529

> <r_epik_State_Penalty>
0.0120612

> <r_epik_Charging_Adjusted_Penalty>
0.0274152

> <i_epik_Tot_Q>
1

> <i_epik_Tot_abs_Q>
1

> <r_epik_Metal_State_Penalty>
0.0121253

> <b_epik_Metal_Only>
0

> <s_lp_Force_Field>
OPLS_2005

> <r_lp_Energy>
62.2742

> <b_lp_Chiralities_Consistent>
1

> <s_lp_Variant>
AV-unprocessed.smi:21-15

> <Gold.Version>
5.8.1

> <Gold.Id.Protein>
6NUR|6NUR_protein|mol2

> <Gold.PLP.Fitness>
45.1728

> <Gold.PLP.PLP>
-32.3450

> <Gold.PLP.part.hbond>
-4.0000

> <Gold.PLP.part.metal>
0.0000

> <Gold.PLP.part.buried>
-6.3439

> <Gold.PLP.part.nonpolar>
-24.6741

> <Gold.PLP.part.repulsive>
0.2285

> <Gold.PLP.ligand.clash>
0.0000

> <Gold.PLP.ligand.torsion>
2.7743

> <Gold.PLP.Chemscore.Hbond>
4.9825

> <Gold.PLP.Chemscore.CHOScore>
1.0000

> <Gold.PLP.Chemscore.Metal>
0.0000

> <Gold.Chemscore.Hbonds>
donor molecule, donor type, donor heavy atom, donor atom, acceptor molecule, acceptor atom, score
      L1  H    27    62       P1 10956  1.76
      P1  H  6896  6907       L1    12  0.95
      P1  H  6896  6908       L1    21  0.70
      P1  H  7989  7998       L1    25  1.00
      L1  C    16    43       P1  7948  1.00

> <Gold.PLP.Chemscore.Internal.Correction>
0.4288

> <Gold.Rescore>
     Score         DG    S(hbond)    S(metal)    S(lipo)     H(rot)  DE(clash)    DE(int)     intcor
     14.41     -17.25       2.82        0.00      87.27       3.08       0.11       2.74       ----

> <Gold.Chemscore.Fitness>
14.4055

> <Gold.Chemscore.DG>
-17.2481

> <Gold.Chemscore.ZeroCoef>
-5.4800

> <Gold.Chemscore.Hbond>
2.8238

> <Gold.Chemscore.Metal>
0.0000

> <Gold.Chemscore.Lipo>
87.2718

> <Gold.Chemscore.Internal_Hbond>
0.0000

> <Gold.Chemscore.DEClash>
0.1056

> <Gold.Chemscore.DEInternal>
2.7370

> <Gold.Chemscore.Rot>
3.0758

> <Gold.Chemscore.Internal.Correction>
   9.000000E+99

> <Gold.Chemscore.Hbonds>
donor molecule, donor type, donor heavy atom, donor atom, acceptor molecule, acceptor atom, score
      L1  H    27    62       P1 10956  0.22
      P1  H  6896  6907       L1    12  0.22
      P1  H  6896  6908       L1    21  0.66
      P1  H  7989  7998       L1    25  0.50

> <Gold.Chemscore.Hbond.Weighted>
-9.4315

> <Gold.Chemscore.Metal.Weighted>
-0.0000

> <Gold.Chemscore.Lipo.Weighted>
-10.2108

> <Gold.Chemscore.Internal_Hbond.Weighted>
0.0000

> <Gold.Chemscore.DEClash.Weighted>
0.1056

> <Gold.Chemscore.DEInternal.Weighted>
2.7370

> <Gold.Chemscore.Rot.Weighted>
7.8741

> <Gold.Chemscore.Internal.Correction.Weighted>
   9.000000E+99

> <Gold.Protein.RotatedTorsions>
[ 6907 6896 6895 6894 ] final -128.57 input  -60.11 | X-H torsion
[ 7974 7965 7964 7962 ] final -163.36 input  175.53 | X-H torsion
[ 8008 7997 7996 7995 ] final   -6.71 input   59.86 | X-H torsion
[ 10167 10162 10161 10158 ] final   63.95 input  -65.29 | X-H torsion
[ 10718 10713 10712 10709 ] final   70.81 input   66.30 | X-H torsion
[ 10763 10752 10751 10750 ] final  134.19 input  -60.55 | X-H torsion
[ 11005 11000 10999 10996 ] final   -9.75 input  -57.11 | X-H torsion

> <Gold.Protein.ActiveResidues>
 VAL166  LYS551  ARG553  GLY616  TRP617  ASP618  TYR619  PRO620  LYS621  CYS622 
 ASP623  PHE694  ASN695  SER759  ASP760  ASP761  ALA762  ILE779  LEU786  VAL792 
 PHE793  MET794  SER795  GLU796  ALA797  LYS798  CYS799  TRP800  GLU811  SER814 

> <Gold.Protein.RotatedAtoms>
  150.9194  133.6899  159.2835 H   0  0  0  0  0  0  0  0  0  0  0  0  # atno 6907 bound_to 6896
  151.4359  135.1013  159.9665 H   0  0  0  0  0  0  0  0  0  0  0  0  # atno 6908 bound_to 6896
  152.4971  133.8613  159.7306 H   0  0  0  0  0  0  0  0  0  0  0  0  # atno 6909 bound_to 6896
  144.7328  140.3118  143.6186 H   0  0  0  0  0  0  0  0  0  0  0  0  # atno 7974 bound_to 7965
  154.5910  140.2426  155.7921 H   0  0  0  0  0  0  0  0  0  0  0  0  # atno 8008 bound_to 7997
  156.2247  140.2986  155.9992 H   0  0  0  0  0  0  0  0  0  0  0  0  # atno 8009 bound_to 7997
  155.2374  140.0406  157.2961 H   0  0  0  0  0  0  0  0  0  0  0  0  # atno 8010 bound_to 7997
  140.1275  144.4674  150.6884 H   0  0  0  0  0  0  0  0  0  0  0  0  # atno 10167 bound_to 10162
  157.6419  130.9496  150.0702 H   0  0  0  0  0  0  0  0  0  0  0  0  # atno 10718 bound_to 10713
  153.8194  135.3118  155.3409 H   0  0  0  0  0  0  0  0  0  0  0  0  # atno 10763 bound_to 10752
  154.8019  135.4722  154.0299 H   0  0  0  0  0  0  0  0  0  0  0  0  # atno 10764 bound_to 10752
  153.1703  135.6876  153.8707 H   0  0  0  0  0  0  0  0  0  0  0  0  # atno 10765 bound_to 10752
  140.7374  133.8698  155.8941 H   0  0  0  0  0  0  0  0  0  0  0  0  # atno 11005 bound_to 11000
  145.7657  139.1840  143.2241 LP  0  0  0  0  0  0  0  0  0  0  0  0  # atno 17320 bound_to 7965
  146.0951  140.7610  142.9576 LP  0  0  0  0  0  0  0  0  0  0  0  0  # atno 17321 bound_to 7965
  140.6836  143.2339  151.5319 LP  0  0  0  0  0  0  0  0  0  0  0  0  # atno 17342 bound_to 10162
  139.5536  144.2331  152.1574 LP  0  0  0  0  0  0  0  0  0  0  0  0  # atno 17343 bound_to 10162
  156.1708  130.3646  149.9167 LP  0  0  0  0  0  0  0  0  0  0  0  0  # atno 17370 bound_to 10713
  156.7143  130.8982  151.3612 LP  0  0  0  0  0  0  0  0  0  0  0  0  # atno 17371 bound_to 10713
  140.9867  134.1333  157.4446 LP  0  0  0  0  0  0  0  0  0  0  0  0  # atno 17394 bound_to 11000
  139.8813  135.0027  156.6146 LP  0  0  0  0  0  0  0  0  0  0  0  0  # atno 17395 bound_to 11000

$$$$
