AV-unprocessed.smi:1430|AV-procd|sdf|5824|dock4
  -GOLD-   22720 5483D 1   1.00000     0.00000
 Structure written by MMmdl.
 46 47  0  0  0  0  0  0  0  0  1 V2000
  151.1390  145.3438  159.7604 C   0  0  0  0  0  0  0  0  0  0  0  0
  151.9187  144.3487  159.1063 O   0  0  0  0  0  0  0  0  0  0  0  0
  152.5729  143.4143  159.8827 C   0  0  0  0  0  0  0  0  0  0  0  0
  153.3142  142.4035  159.2394 C   0  0  0  0  0  0  0  0  0  0  0  0
  153.9855  141.4458  160.0237 C   0  0  0  0  0  0  0  0  0  0  0  0
  153.8877  141.5255  161.4338 C   0  0  0  0  0  0  0  0  0  0  0  0
  154.5270  140.6356  162.3398 N   0  0  0  0  0  0  0  0  0  0  0  0
  154.8057  139.3293  162.1876 C   0  0  0  0  0  0  0  0  0  0  0  0
  154.5260  138.6486  161.2013 O   0  0  0  0  0  0  0  0  0  0  0  0
  155.4270  138.8399  163.2699 N   0  0  0  0  0  0  0  0  0  0  0  0
  155.8617  137.4580  163.4340 C   0  0  0  0  0  0  0  0  0  0  0  0
  154.6782  136.5376  163.7863 C   0  0  0  0  0  0  0  0  0  0  0  0
  154.9397  135.1081  163.6272 N   0  0  0  0  0  0  0  0  0  0  0  0
  155.0260  134.7052  162.2250 C   0  0  0  0  0  0  0  0  0  0  0  0
  155.2635  133.1913  162.0512 C   0  0  1  0  0  0  0  0  0  0  0  0
  156.7008  132.7578  162.3862 C   0  0  0  0  0  0  0  0  0  0  0  0
  154.2983  132.4466  162.7960 O   0  0  0  0  0  0  0  0  0  0  0  0
  154.1848  132.8045  164.1720 C   0  0  2  0  0  0  0  0  0  0  0  0
  153.0617  131.9662  164.7913 C   0  0  0  0  0  0  0  0  0  0  0  0
  153.9093  134.3144  164.2847 C   0  0  0  0  0  0  0  0  0  0  0  0
  153.1293  142.5826  161.9782 C   0  0  0  0  0  0  0  0  0  0  0  0
  152.4836  143.5036  161.2325 N   0  0  0  0  0  0  0  0  0  0  0  0
  150.6882  145.9968  159.0134 H   0  0  0  0  0  0  0  0  0  0  0  0
  151.7520  145.9644  160.4155 H   0  0  0  0  0  0  0  0  0  0  0  0
  150.3302  144.8985  160.3416 H   0  0  0  0  0  0  0  0  0  0  0  0
  153.3712  142.3659  158.1615 H   0  0  0  0  0  0  0  0  0  0  0  0
  154.5664  140.6853  159.5265 H   0  0  0  0  0  0  0  0  0  0  0  0
  154.7635  141.0340  163.2368 H   0  0  0  0  0  0  0  0  0  0  0  0
  155.6132  139.4686  164.0373 H   0  0  0  0  0  0  0  0  0  0  0  0
  156.3243  137.1531  162.4962 H   0  0  0  0  0  0  0  0  0  0  0  0
  156.6366  137.3949  164.1998 H   0  0  0  0  0  0  0  0  0  0  0  0
  154.4073  136.7269  164.8260 H   0  0  0  0  0  0  0  0  0  0  0  0
  153.8062  136.8202  163.1946 H   0  0  0  0  0  0  0  0  0  0  0  0
  154.1005  134.9759  161.7143 H   0  0  0  0  0  0  0  0  0  0  0  0
  155.8254  135.2455  161.7196 H   0  0  0  0  0  0  0  0  0  0  0  0
  155.0955  132.9457  161.0024 H   0  0  0  0  0  0  0  0  0  0  0  0
  157.4178  133.2550  161.7327 H   0  0  0  0  0  0  0  0  0  0  0  0
  156.8231  131.6829  162.2525 H   0  0  0  0  0  0  0  0  0  0  0  0
  156.9743  133.0004  163.4128 H   0  0  0  0  0  0  0  0  0  0  0  0
  155.1150  132.5645  164.6878 H   0  0  0  0  0  0  0  0  0  0  0  0
  152.9393  132.1952  165.8502 H   0  0  0  0  0  0  0  0  0  0  0  0
  153.2775  130.9011  164.7048 H   0  0  0  0  0  0  0  0  0  0  0  0
  152.1091  132.1545  164.2954 H   0  0  0  0  0  0  0  0  0  0  0  0
  153.8497  134.5890  165.3385 H   0  0  0  0  0  0  0  0  0  0  0  0
  152.9349  134.5410  163.8487 H   0  0  0  0  0  0  0  0  0  0  0  0
  153.0334  142.6933  163.0484 H   0  0  0  0  0  0  0  0  0  0  0  0
  1  2  1  0  0  0  0
  1 23  1  0  0  0  0
  1 24  1  0  0  0  0
  1 25  1  0  0  0  0
  2  3  1  0  0  0  0
  3 22  1  0  0  0  0
  3  4  2  0  0  0  0
  4  5  1  0  0  0  0
  4 26  1  0  0  0  0
  5  6  2  0  0  0  0
  5 27  1  0  0  0  0
  6  7  1  0  0  0  0
  6 21  1  0  0  0  0
  7  8  1  0  0  0  0
  7 28  1  0  0  0  0
  8  9  2  0  0  0  0
  8 10  1  0  0  0  0
 10 11  1  0  0  0  0
 10 29  1  0  0  0  0
 11 12  1  0  0  0  0
 11 30  1  0  0  0  0
 11 31  1  0  0  0  0
 12 13  1  0  0  0  0
 12 32  1  0  0  0  0
 12 33  1  0  0  0  0
 13 20  1  0  0  0  0
 13 14  1  0  0  0  0
 14 15  1  0  0  0  0
 14 34  1  0  0  0  0
 14 35  1  0  0  0  0
 15 16  1  0  0  0  0
 15 17  1  0  0  0  0
 15 36  1  0  0  0  0
 16 37  1  0  0  0  0
 16 38  1  0  0  0  0
 16 39  1  0  0  0  0
 17 18  1  0  0  0  0
 18 19  1  0  0  0  0
 18 20  1  0  0  0  0
 18 40  1  0  0  0  0
 19 41  1  0  0  0  0
 19 42  1  0  0  0  0
 19 43  1  0  0  0  0
 20 44  1  0  0  0  0
 20 45  1  0  0  0  0
 21 22  2  0  0  0  0
 21 46  1  0  0  0  0
M  END
> <s_m_source_file>
AV-unprocessed.smi

> <i_m_source_file_index>
1430

> <i_lp_mmshare_version>
43012

> <i_f3d_flags>
0

> <s_epik_input>
W0NIM11PYzFbY0hdW2NIXWMoW2NIXW4xKVtOSF1DKD1PKVtOSF1bQ0gyXVtDSDJdTjJbQ0gyXVtDQEBIXShbQ0gzXSlPW0NAQEhdKFtDSDNdKVtDSDJdMg==

> <s_epik_cmdline>
J2VwaWtfcHl0aG9uJywgJy1waCcsICc3LjAnLCAnLXRuJywgJzgnLCAnLW1hJywgJzIwMCcsICctbWV0YWxfYmluZGluZycsICctaW1hZScsICc8aW5maWxlLm1hZT4nLCAnLW9tYWUnLCAnPG91dGZpbGUubWFlPic=

> <r_lp_tautomer_probability>
1

> <r_epik_Ionization_Penalty>
0.266083

> <r_epik_Ionization_Penalty_Charging>
0

> <r_epik_Ionization_Penalty_Neutral>
0.266083

> <r_epik_State_Penalty>
0.257924

> <r_epik_Charging_Adjusted_Penalty>
0.257924

> <i_epik_Tot_Q>
0

> <i_epik_Tot_abs_Q>
0

> <r_epik_Metal_State_Penalty>
0.257922

> <b_epik_Metal_Only>
0

> <s_lp_Force_Field>
OPLS_2005

> <r_lp_Energy>
26.0225

> <b_lp_Chiralities_Consistent>
1

> <s_lp_Variant>
AV-unprocessed.smi:1430-3

> <Gold.Version>
5.8.1

> <Gold.Id.Protein>
6NUR|6NUR_protein|mol2

> <Gold.PLP.Fitness>
41.0667

> <Gold.PLP.PLP>
-41.9730

> <Gold.PLP.part.hbond>
-0.0996

> <Gold.PLP.part.metal>
0.0000

> <Gold.PLP.part.buried>
-7.3729

> <Gold.PLP.part.nonpolar>
-35.3990

> <Gold.PLP.part.repulsive>
0.2079

> <Gold.PLP.ligand.clash>
0.0000

> <Gold.PLP.ligand.torsion>
0.4701

> <Gold.PLP.Chemscore.Hbond>
0.0000

> <Gold.PLP.Chemscore.CHOScore>
0.0000

> <Gold.PLP.Chemscore.Metal>
0.0000

> <Gold.PLP.Chemscore.Internal.Correction>
0.0339

> <Gold.Rescore>
     Score         DG    S(hbond)    S(metal)    S(lipo)     H(rot)  DE(clash)    DE(int)     intcor
     13.37     -13.92       0.00        0.00     109.55       1.71       0.04       0.51       ----

> <Gold.Chemscore.Fitness>
13.3723

> <Gold.Chemscore.DG>
-13.9183

> <Gold.Chemscore.ZeroCoef>
-5.4800

> <Gold.Chemscore.Hbond>
0.0000

> <Gold.Chemscore.Metal>
0.0000

> <Gold.Chemscore.Lipo>
109.5536

> <Gold.Chemscore.Internal_Hbond>
0.0000

> <Gold.Chemscore.DEClash>
0.0359

> <Gold.Chemscore.DEInternal>
0.5101

> <Gold.Chemscore.Rot>
1.7107

> <Gold.Chemscore.Internal.Correction>
   9.000000E+99

> <Gold.Chemscore.Hbond.Weighted>
-0.0000

> <Gold.Chemscore.Metal.Weighted>
-0.0000

> <Gold.Chemscore.Lipo.Weighted>
-12.8178

> <Gold.Chemscore.Internal_Hbond.Weighted>
0.0000

> <Gold.Chemscore.DEClash.Weighted>
0.0359

> <Gold.Chemscore.DEInternal.Weighted>
0.5101

> <Gold.Chemscore.Rot.Weighted>
4.3794

> <Gold.Chemscore.Internal.Correction.Weighted>
   9.000000E+99

> <Gold.Protein.RotatedTorsions>
[ 6907 6896 6895 6894 ] final  126.92 input  -60.11 | X-H torsion
[ 7974 7965 7964 7962 ] final -147.76 input  175.53 | X-H torsion
[ 8008 7997 7996 7995 ] final   84.48 input   59.86 | X-H torsion
[ 10167 10162 10161 10158 ] final -168.22 input  -65.29 | X-H torsion
[ 10718 10713 10712 10709 ] final  -77.98 input   66.30 | X-H torsion
[ 10763 10752 10751 10750 ] final   91.68 input  -60.55 | X-H torsion
[ 11005 11000 10999 10996 ] final   59.55 input  -57.11 | X-H torsion

> <Gold.Protein.ActiveResidues>
 VAL166  LYS551  ARG553  GLY616  TRP617  ASP618  TYR619  PRO620  LYS621  CYS622 
 ASP623  PHE694  ASN695  SER759  ASP760  ASP761  ALA762  ILE779  LEU786  VAL792 
 PHE793  MET794  SER795  GLU796  ALA797  LYS798  CYS799  TRP800  GLU811  SER814 

> <Gold.Protein.RotatedAtoms>
  152.3860  133.6611  159.6198 H   0  0  0  0  0  0  0  0  0  0  0  0  # atno 6907 bound_to 6896
  150.7779  133.9035  159.3357 H   0  0  0  0  0  0  0  0  0  0  0  0  # atno 6908 bound_to 6896
  151.6831  135.0960  160.0271 H   0  0  0  0  0  0  0  0  0  0  0  0  # atno 6909 bound_to 6896
  144.8072  140.5284  143.5667 H   0  0  0  0  0  0  0  0  0  0  0  0  # atno 7974 bound_to 7965
  155.9377  140.3410  155.6301 H   0  0  0  0  0  0  0  0  0  0  0  0  # atno 8008 bound_to 7997
  155.7079  140.0768  157.2402 H   0  0  0  0  0  0  0  0  0  0  0  0  # atno 8009 bound_to 7997
  154.4096  140.1628  156.2251 H   0  0  0  0  0  0  0  0  0  0  0  0  # atno 8010 bound_to 7997
  139.5999  144.1033  152.1731 H   0  0  0  0  0  0  0  0  0  0  0  0  # atno 10167 bound_to 10162
  156.0130  130.4506  150.3427 H   0  0  0  0  0  0  0  0  0  0  0  0  # atno 10718 bound_to 10713
  153.2109  135.4389  155.0378 H   0  0  0  0  0  0  0  0  0  0  0  0  # atno 10763 bound_to 10752
  154.8199  135.3332  154.7071 H   0  0  0  0  0  0  0  0  0  0  0  0  # atno 10764 bound_to 10752
  153.7509  135.6998  153.5002 H   0  0  0  0  0  0  0  0  0  0  0  0  # atno 10765 bound_to 10752
  140.0295  134.6032  155.9526 H   0  0  0  0  0  0  0  0  0  0  0  0  # atno 11005 bound_to 11000
  145.5409  139.1475  143.3447 LP  0  0  0  0  0  0  0  0  0  0  0  0  # atno 17320 bound_to 7965
  146.2365  140.5549  142.8952 LP  0  0  0  0  0  0  0  0  0  0  0  0  # atno 17321 bound_to 7965
  140.0627  144.5844  150.7251 LP  0  0  0  0  0  0  0  0  0  0  0  0  # atno 17342 bound_to 10162
  140.7241  143.2618  151.4179 LP  0  0  0  0  0  0  0  0  0  0  0  0  # atno 17343 bound_to 10162
  157.1522  131.0324  151.2879 LP  0  0  0  0  0  0  0  0  0  0  0  0  # atno 17370 bound_to 10713
  157.4382  130.7529  149.7047 LP  0  0  0  0  0  0  0  0  0  0  0  0  # atno 17371 bound_to 10713
  141.1823  133.6549  156.5070 LP  0  0  0  0  0  0  0  0  0  0  0  0  # atno 17394 bound_to 11000
  140.4249  134.7154  157.4910 LP  0  0  0  0  0  0  0  0  0  0  0  0  # atno 17395 bound_to 11000

$$$$
