AV-unprocessed.smi:149|AV-procd|sdf|1241|dock4
  -GOLD-   2262018453D 1   1.00000     0.00000
 Structure written by MMmdl.
 59 63  0  0  0  0  0  0  0  0  1 V2000
  149.8519  126.4927  155.7088 C   0  0  0  0  0  0  0  0  0  0  0  0
  150.5660  127.7244  155.1249 C   0  0  1  0  0  0  0  0  0  0  0  0
  149.5538  128.7097  154.5153 C   0  0  0  0  0  0  0  0  0  0  0  0
  149.7216  129.9730  155.2154 N   0  0  0  0  0  0  0  0  0  0  0  0
  149.1847  131.1077  154.6880 C   0  0  0  0  0  0  0  0  0  0  0  0
  149.7366  132.3007  155.0387 N   0  0  0  0  0  0  0  0  0  0  0  0
  149.2548  133.4468  154.5513 C   0  0  0  0  0  0  0  0  0  0  0  0
  148.2384  133.6315  153.7091 N   0  0  0  0  0  0  0  0  0  0  0  0
  147.6788  132.4435  153.3431 C   0  0  0  0  0  0  0  0  0  0  0  0
  148.0891  131.1469  153.7716 C   0  0  0  0  0  0  0  0  0  0  0  0
  147.2898  130.1863  153.1593 N   0  0  0  0  0  0  0  0  0  0  0  0
  146.4629  130.8704  152.4187 C   0  0  0  0  0  0  0  0  0  0  0  0
  146.6048  132.2360  152.4949 N   0  0  0  0  0  0  0  0  0  0  0  0
  145.8554  133.2176  151.7676 C   0  0  0  0  0  0  0  0  0  0  0  0
  144.3350  133.1085  151.6318 C   0  0  0  0  0  0  0  0  0  0  0  0
  144.4189  133.7554  150.2319 C   0  0  0  0  0  0  0  0  0  0  0  0
  143.5106  133.1209  149.1653 C   0  0  0  0  0  0  0  0  0  0  0  0
  143.5305  133.8649  147.9640 O   0  0  0  0  0  0  0  0  0  0  0  0
  144.2455  135.2876  150.2070 C   0  0  0  0  0  0  0  0  0  0  0  0
  144.9522  135.8707  149.1313 O   0  0  0  0  0  0  0  0  0  0  0  0
  145.8828  133.2602  150.2376 C   0  0  0  0  0  0  0  0  0  0  0  0
  151.0397  129.9873  155.8156 C   0  0  0  0  0  0  0  0  0  0  0  0
  151.3666  128.5309  156.1772 C   0  0  2  0  0  0  0  0  0  0  0  0
  152.8149  128.2702  156.2278 N   0  0  0  0  0  0  0  0  0  0  0  0
  153.4769  128.6353  154.9737 C   0  0  0  0  0  0  0  0  0  0  0  0
  154.9917  128.3702  155.0131 C   0  0  0  0  0  0  0  0  0  0  0  0
  155.5709  129.0777  156.1029 O   0  0  0  0  0  0  0  0  0  0  0  0
  154.9949  128.7151  157.3520 C   0  0  0  0  0  0  0  0  0  0  0  0
  153.4791  128.9782  157.3215 C   0  0  0  0  0  0  0  0  0  0  0  0
  149.1463  126.7802  156.4889 H   0  0  0  0  0  0  0  0  0  0  0  0
  150.5524  125.7829  156.1461 H   0  0  0  0  0  0  0  0  0  0  0  0
  149.2932  125.9642  154.9361 H   0  0  0  0  0  0  0  0  0  0  0  0
  151.2344  127.4022  154.3252 H   0  0  0  0  0  0  0  0  0  0  0  0
  149.7457  128.8383  153.4489 H   0  0  0  0  0  0  0  0  0  0  0  0
  148.5279  128.3572  154.6294 H   0  0  0  0  0  0  0  0  0  0  0  0
  149.7538  134.3444  154.8860 H   0  0  0  0  0  0  0  0  0  0  0  0
  145.7181  130.3921  151.7994 H   0  0  0  0  0  0  0  0  0  0  0  0
  146.1377  134.1848  152.1867 H   0  0  0  0  0  0  0  0  0  0  0  0
  143.9939  132.0717  151.6024 H   0  0  0  0  0  0  0  0  0  0  0  0
  143.7729  133.6823  152.3694 H   0  0  0  0  0  0  0  0  0  0  0  0
  143.7987  132.0916  148.9513 H   0  0  0  0  0  0  0  0  0  0  0  0
  142.4777  133.0815  149.5128 H   0  0  0  0  0  0  0  0  0  0  0  0
  144.3892  134.2460  147.8607 H   0  0  0  0  0  0  0  0  0  0  0  0
  143.1955  135.5710  150.1327 H   0  0  0  0  0  0  0  0  0  0  0  0
  144.6136  135.7398  151.1281 H   0  0  0  0  0  0  0  0  0  0  0  0
  144.8121  136.8049  149.1523 H   0  0  0  0  0  0  0  0  0  0  0  0
  146.6104  133.9580  149.8217 H   0  0  0  0  0  0  0  0  0  0  0  0
  145.9976  132.2693  149.7943 H   0  0  0  0  0  0  0  0  0  0  0  0
  151.7561  130.3849  155.0946 H   0  0  0  0  0  0  0  0  0  0  0  0
  151.0592  130.6113  156.7090 H   0  0  0  0  0  0  0  0  0  0  0  0
  150.9307  128.3311  157.1578 H   0  0  0  0  0  0  0  0  0  0  0  0
  153.0538  128.0732  154.1414 H   0  0  0  0  0  0  0  0  0  0  0  0
  153.3020  129.6904  154.7576 H   0  0  0  0  0  0  0  0  0  0  0  0
  155.1952  127.3028  155.1121 H   0  0  0  0  0  0  0  0  0  0  0  0
  155.4584  128.7011  154.0856 H   0  0  0  0  0  0  0  0  0  0  0  0
  155.1994  127.6644  157.5637 H   0  0  0  0  0  0  0  0  0  0  0  0
  155.4650  129.2986  158.1436 H   0  0  0  0  0  0  0  0  0  0  0  0
  153.2989  130.0507  157.2327 H   0  0  0  0  0  0  0  0  0  0  0  0
  153.0650  128.6656  158.2790 H   0  0  0  0  0  0  0  0  0  0  0  0
  1  2  1  0  0  0  0
  1 30  1  0  0  0  0
  1 31  1  0  0  0  0
  1 32  1  0  0  0  0
  2 23  1  0  0  0  0
  2  3  1  0  0  0  0
  2 33  1  0  0  0  0
  3  4  1  0  0  0  0
  3 34  1  0  0  0  0
  3 35  1  0  0  0  0
  4  5  1  0  0  0  0
  4 22  1  0  0  0  0
  5 10  1  0  0  0  0
  5  6  2  0  0  0  0
  6  7  1  0  0  0  0
  7  8  2  0  0  0  0
  7 36  1  0  0  0  0
  8  9  1  0  0  0  0
  9 13  1  0  0  0  0
  9 10  2  0  0  0  0
 10 11  1  0  0  0  0
 11 12  2  0  0  0  0
 12 13  1  0  0  0  0
 12 37  1  0  0  0  0
 13 14  1  0  0  0  0
 14 21  1  0  0  0  0
 14 15  1  0  0  0  0
 14 38  1  0  0  0  0
 15 16  1  0  0  0  0
 15 39  1  0  0  0  0
 15 40  1  0  0  0  0
 16 17  1  0  0  0  0
 16 19  1  0  0  0  0
 16 21  1  0  0  0  0
 17 18  1  0  0  0  0
 17 41  1  0  0  0  0
 17 42  1  0  0  0  0
 18 43  1  0  0  0  0
 19 20  1  0  0  0  0
 19 44  1  0  0  0  0
 19 45  1  0  0  0  0
 20 46  1  0  0  0  0
 21 47  1  0  0  0  0
 21 48  1  0  0  0  0
 22 23  1  0  0  0  0
 22 49  1  0  0  0  0
 22 50  1  0  0  0  0
 23 24  1  0  0  0  0
 23 51  1  0  0  0  0
 24 29  1  0  0  0  0
 24 25  1  0  0  0  0
 25 26  1  0  0  0  0
 25 52  1  0  0  0  0
 25 53  1  0  0  0  0
 26 27  1  0  0  0  0
 26 54  1  0  0  0  0
 26 55  1  0  0  0  0
 27 28  1  0  0  0  0
 28 29  1  0  0  0  0
 28 56  1  0  0  0  0
 28 57  1  0  0  0  0
 29 58  1  0  0  0  0
 29 59  1  0  0  0  0
M  END
> <s_m_source_file>
AV-unprocessed.smi

> <i_m_source_file_index>
149

> <i_lp_mmshare_version>
43012

> <i_f3d_flags>
0

> <s_epik_input>
W0NIMl0xW0NIMl1PW0NIMl1bQ0gyXU4xW0NAQEhdMltDSDJdTihbQ0gyXVtDQEhdMltDSDNdKWMobltjSF1uMyljKGMzNCluW2NIXW40W0NIXShbQ0gyXTUpW0NIMl1DNShbQ0gyXVtPSF0pW0NIMl1bT0hd

> <s_epik_cmdline>
J2VwaWtfcHl0aG9uJywgJy1waCcsICc3LjAnLCAnLXRuJywgJzgnLCAnLW1hJywgJzIwMCcsICctbWV0YWxfYmluZGluZycsICctaW1hZScsICc8aW5maWxlLm1hZT4nLCAnLW9tYWUnLCAnPG91dGZpbGUubWFlPic=

> <r_lp_tautomer_probability>
1

> <r_epik_Ionization_Penalty>
0.41918

> <r_epik_Ionization_Penalty_Charging>
0

> <r_epik_Ionization_Penalty_Neutral>
0.41918

> <r_epik_State_Penalty>
0.654916

> <r_epik_Charging_Adjusted_Penalty>
0.654916

> <i_epik_Tot_Q>
0

> <i_epik_Tot_abs_Q>
0

> <r_epik_Metal_State_Penalty>
0.653217

> <b_epik_Metal_Only>
0

> <s_lp_Force_Field>
OPLS_2005

> <r_lp_Energy>
73.5543

> <b_lp_Chiralities_Consistent>
1

> <s_lp_Variant>
AV-unprocessed.smi:149-8

> <Gold.Version>
5.8.1

> <Gold.Id.Protein>
6NUR|6NUR_protein|mol2

> <Gold.PLP.Fitness>
48.2380

> <Gold.PLP.PLP>
-41.5343

> <Gold.PLP.part.hbond>
-5.3830

> <Gold.PLP.part.metal>
0.0000

> <Gold.PLP.part.buried>
-0.6026

> <Gold.PLP.part.nonpolar>
-36.8541

> <Gold.PLP.part.repulsive>
1.3938

> <Gold.PLP.ligand.clash>
0.0000

> <Gold.PLP.ligand.torsion>
1.3969

> <Gold.PLP.Chemscore.Hbond>
2.8775

> <Gold.PLP.Chemscore.CHOScore>
0.0000

> <Gold.PLP.Chemscore.Metal>
0.0000

> <Gold.Chemscore.Hbonds>
donor molecule, donor type, donor heavy atom, donor atom, acceptor molecule, acceptor atom, score
      L1  H    18    43       P1  7921  1.00
      L1  H    20    46       P1 10171  0.88
      P1  H 10192 10197       L1    18  0.70

> <Gold.PLP.Chemscore.Internal.Correction>
0.8650

> <Gold.Rescore>
     Score         DG    S(hbond)    S(metal)    S(lipo)     H(rot)  DE(clash)    DE(int)     intcor
     12.69     -16.20       2.88        0.00      82.44       3.34       1.49       2.02       ----

> <Gold.Chemscore.Fitness>
12.6893

> <Gold.Chemscore.DG>
-16.2034

> <Gold.Chemscore.ZeroCoef>
-5.4800

> <Gold.Chemscore.Hbond>
2.8841

> <Gold.Chemscore.Metal>
0.0000

> <Gold.Chemscore.Lipo>
82.4370

> <Gold.Chemscore.Internal_Hbond>
0.0000

> <Gold.Chemscore.DEClash>
1.4922

> <Gold.Chemscore.DEInternal>
2.0219

> <Gold.Chemscore.Rot>
3.3416

> <Gold.Chemscore.Internal.Correction>
   9.000000E+99

> <Gold.Chemscore.Hbonds>
donor molecule, donor type, donor heavy atom, donor atom, acceptor molecule, acceptor atom, score
      L1  H    18    43       P1  7921  1.00
      L1  H    20    46       P1 10171  0.84
      P1  H 10192 10197       L1    18  0.54

> <Gold.Chemscore.Hbond.Weighted>
-9.6328

> <Gold.Chemscore.Metal.Weighted>
-0.0000

> <Gold.Chemscore.Lipo.Weighted>
-9.6451

> <Gold.Chemscore.Internal_Hbond.Weighted>
0.0000

> <Gold.Chemscore.DEClash.Weighted>
1.4922

> <Gold.Chemscore.DEInternal.Weighted>
2.0219

> <Gold.Chemscore.Rot.Weighted>
8.5545

> <Gold.Chemscore.Internal.Correction.Weighted>
   9.000000E+99

> <Gold.Protein.RotatedTorsions>
[ 6907 6896 6895 6894 ] final   77.93 input  -60.11 | X-H torsion
[ 7974 7965 7964 7962 ] final -129.08 input  175.53 | X-H torsion
[ 8008 7997 7996 7995 ] final -105.94 input   59.86 | X-H torsion
[ 10167 10162 10161 10158 ] final  -97.60 input  -65.29 | X-H torsion
[ 10718 10713 10712 10709 ] final  -94.26 input   66.30 | X-H torsion
[ 10763 10752 10751 10750 ] final    4.89 input  -60.55 | X-H torsion
[ 11005 11000 10999 10996 ] final -163.43 input  -57.11 | X-H torsion

> <Gold.Protein.ActiveResidues>
 VAL166  LYS551  ARG553  GLY616  TRP617  ASP618  TYR619  PRO620  LYS621  CYS622 
 ASP623  PHE694  ASN695  SER759  ASP760  ASP761  ALA762  ILE779  LEU786  VAL792 
 PHE793  MET794  SER795  GLU796  ALA797  LYS798  CYS799  TRP800  GLU811  SER814 

> <Gold.Protein.RotatedAtoms>
  152.5138  134.3742  159.9328 H   0  0  0  0  0  0  0  0  0  0  0  0  # atno 6907 bound_to 6896
  151.3697  133.3853  159.2706 H   0  0  0  0  0  0  0  0  0  0  0  0  # atno 6908 bound_to 6896
  150.9587  134.8997  159.7775 H   0  0  0  0  0  0  0  0  0  0  0  0  # atno 6909 bound_to 6896
  144.9607  140.7444  143.4731 H   0  0  0  0  0  0  0  0  0  0  0  0  # atno 7974 bound_to 7965
  154.9072  140.0411  157.1926 H   0  0  0  0  0  0  0  0  0  0  0  0  # atno 8008 bound_to 7997
  154.8384  140.2910  155.5654 H   0  0  0  0  0  0  0  0  0  0  0  0  # atno 8009 bound_to 7997
  156.2991  140.2487  156.3322 H   0  0  0  0  0  0  0  0  0  0  0  0  # atno 8010 bound_to 7997
  140.2817  143.3278  152.0435 H   0  0  0  0  0  0  0  0  0  0  0  0  # atno 10167 bound_to 10162
  156.0024  130.5060  150.5899 H   0  0  0  0  0  0  0  0  0  0  0  0  # atno 10718 bound_to 10713
  153.2658  135.6927  153.7531 H   0  0  0  0  0  0  0  0  0  0  0  0  # atno 10763 bound_to 10752
  153.6573  135.3366  155.3118 H   0  0  0  0  0  0  0  0  0  0  0  0  # atno 10764 bound_to 10752
  154.8447  135.4468  154.1664 H   0  0  0  0  0  0  0  0  0  0  0  0  # atno 10765 bound_to 10752
  140.5982  134.4975  157.5202 H   0  0  0  0  0  0  0  0  0  0  0  0  # atno 11005 bound_to 11000
  145.2704  139.1957  143.4844 LP  0  0  0  0  0  0  0  0  0  0  0  0  # atno 17320 bound_to 7965
  146.3352  140.2650  142.8603 LP  0  0  0  0  0  0  0  0  0  0  0  0  # atno 17321 bound_to 7965
  139.4961  144.6587  151.6514 LP  0  0  0  0  0  0  0  0  0  0  0  0  # atno 17342 bound_to 10162
  140.5806  143.9952  150.6266 LP  0  0  0  0  0  0  0  0  0  0  0  0  # atno 17343 bound_to 10162
  157.3766  131.0774  151.1513 LP  0  0  0  0  0  0  0  0  0  0  0  0  # atno 17370 bound_to 10713
  157.2249  130.6498  149.5826 LP  0  0  0  0  0  0  0  0  0  0  0  0  # atno 17371 bound_to 10713
  139.9244  134.8085  156.1113 LP  0  0  0  0  0  0  0  0  0  0  0  0  # atno 17394 bound_to 11000
  141.0890  133.6722  156.2498 LP  0  0  0  0  0  0  0  0  0  0  0  0  # atno 17395 bound_to 11000

$$$$
