AV-unprocessed.smi:1292|AV-procd|sdf|5395|dock5
  -GOLD-   22720 4553D 1   1.00000     0.00000
 Structure written by MMmdl.
 40 41  0  0  0  0  0  0  0  0  1 V2000
  152.7516  142.6694  161.3650 C   0  0  0  0  0  0  0  0  0  0  0  0
  152.7237  142.7723  159.8337 C   0  0  2  0  0  0  0  0  0  0  0  0
  151.9132  143.9901  159.3671 C   0  0  0  0  0  0  0  0  0  0  0  0
  151.9163  144.0569  157.8370 C   0  0  0  0  0  0  0  0  0  0  0  0
  151.3841  142.7537  157.2201 C   0  0  0  0  0  0  0  0  0  0  0  0
  152.1301  141.5836  157.7204 N   0  0  0  0  0  0  0  0  0  0  0  0
  152.0003  140.1092  156.8164 S   0  0  0  0  0  0  0  0  0  0  0  0
  152.0533  140.4417  155.3847 O   0  0  0  0  0  0  0  0  0  0  0  0
  152.9074  139.1112  157.4043 O   0  0  0  0  0  0  0  0  0  0  0  0
  150.3813  139.6670  157.2185 N   0  0  0  0  0  0  0  0  0  0  0  0
  149.8301  138.4097  156.7126 C   0  0  0  0  0  0  0  0  0  0  0  0
  149.9357  138.3559  155.1833 C   0  0  0  0  0  0  0  0  0  0  0  0
  149.0205  139.3631  154.5129 C   0  0  0  0  0  0  0  0  0  0  0  0
  149.2608  140.7482  154.6386 C   0  0  0  0  0  0  0  0  0  0  0  0
  148.3736  141.6428  154.0093 C   0  0  0  0  0  0  0  0  0  0  0  0
  147.2851  141.1211  153.2839 C   0  0  0  0  0  0  0  0  0  0  0  0
  147.1313  139.7217  153.2205 C   0  0  0  0  0  0  0  0  0  0  0  0
  147.9760  138.8551  153.8205 N   0  0  0  0  0  0  0  0  0  0  0  0
  152.1713  141.4836  159.1943 C   0  0  0  0  0  0  0  0  0  0  0  0
  151.7484  142.5393  161.7720 H   0  0  0  0  0  0  0  0  0  0  0  0
  153.1783  143.5681  161.8111 H   0  0  0  0  0  0  0  0  0  0  0  0
  153.3554  141.8219  161.6906 H   0  0  0  0  0  0  0  0  0  0  0  0
  153.7532  142.8998  159.4952 H   0  0  0  0  0  0  0  0  0  0  0  0
  150.8875  143.9221  159.7328 H   0  0  0  0  0  0  0  0  0  0  0  0
  152.3344  144.9075  159.7794 H   0  0  0  0  0  0  0  0  0  0  0  0
  151.3128  144.9001  157.5004 H   0  0  0  0  0  0  0  0  0  0  0  0
  152.9305  144.2418  157.4803 H   0  0  0  0  0  0  0  0  0  0  0  0
  150.3258  142.6251  157.4504 H   0  0  0  0  0  0  0  0  0  0  0  0
  151.4678  142.8090  156.1348 H   0  0  0  0  0  0  0  0  0  0  0  0
  150.1476  139.8626  158.1914 H   0  0  0  0  0  0  0  0  0  0  0  0
  150.3678  137.5765  157.1661 H   0  0  0  0  0  0  0  0  0  0  0  0
  148.7858  138.3251  157.0148 H   0  0  0  0  0  0  0  0  0  0  0  0
  150.9641  138.5470  154.8731 H   0  0  0  0  0  0  0  0  0  0  0  0
  149.6875  137.3557  154.8245 H   0  0  0  0  0  0  0  0  0  0  0  0
  150.1020  141.1179  155.2062 H   0  0  0  0  0  0  0  0  0  0  0  0
  148.5243  142.7096  154.0833 H   0  0  0  0  0  0  0  0  0  0  0  0
  146.5844  141.7772  152.7891 H   0  0  0  0  0  0  0  0  0  0  0  0
  146.3079  139.2870  152.6735 H   0  0  0  0  0  0  0  0  0  0  0  0
  152.7917  140.6382  159.4900 H   0  0  0  0  0  0  0  0  0  0  0  0
  151.1650  141.2750  159.5607 H   0  0  0  0  0  0  0  0  0  0  0  0
  1  2  1  0  0  0  0
  1 20  1  0  0  0  0
  1 21  1  0  0  0  0
  1 22  1  0  0  0  0
  2 19  1  0  0  0  0
  2  3  1  0  0  0  0
  2 23  1  0  0  0  0
  3  4  1  0  0  0  0
  3 24  1  0  0  0  0
  3 25  1  0  0  0  0
  4  5  1  0  0  0  0
  4 26  1  0  0  0  0
  4 27  1  0  0  0  0
  5  6  1  0  0  0  0
  5 28  1  0  0  0  0
  5 29  1  0  0  0  0
  6  7  1  0  0  0  0
  6 19  1  0  0  0  0
  7  8  2  0  0  0  0
  7  9  2  0  0  0  0
  7 10  1  0  0  0  0
 10 11  1  0  0  0  0
 10 30  1  0  0  0  0
 11 12  1  0  0  0  0
 11 31  1  0  0  0  0
 11 32  1  0  0  0  0
 12 13  1  0  0  0  0
 12 33  1  0  0  0  0
 12 34  1  0  0  0  0
 13 18  1  0  0  0  0
 13 14  2  0  0  0  0
 14 15  1  0  0  0  0
 14 35  1  0  0  0  0
 15 16  2  0  0  0  0
 15 36  1  0  0  0  0
 16 17  1  0  0  0  0
 16 37  1  0  0  0  0
 17 18  2  0  0  0  0
 17 38  1  0  0  0  0
 19 39  1  0  0  0  0
 19 40  1  0  0  0  0
M  END
> <s_m_source_file>
AV-unprocessed.smi

> <i_m_source_file_index>
1292

> <i_lp_mmshare_version>
43012

> <i_f3d_flags>
0

> <s_epik_input>
W0NIM11bQ0BASF0xW0NIMl1bQ0gyXVtDSDJdTihbQ0gyXTEpUyg9TykoPU8pW05IXVtDSDJdW0NIMl1jMltjSF1bY0hdW2NIXVtjSF1uMg==

> <s_epik_cmdline>
J2VwaWtfcHl0aG9uJywgJy1waCcsICc3LjAnLCAnLXRuJywgJzgnLCAnLW1hJywgJzIwMCcsICctbWV0YWxfYmluZGluZycsICctaW1hZScsICc8aW5maWxlLm1hZT4nLCAnLW9tYWUnLCAnPG91dGZpbGUubWFlPic=

> <r_epik_Ionization_Penalty>
0.0252758

> <r_epik_Ionization_Penalty_Charging>
0

> <r_epik_Ionization_Penalty_Neutral>
0.0252758

> <r_epik_State_Penalty>
0.0138562

> <r_epik_Charging_Adjusted_Penalty>
0.0138562

> <i_epik_Tot_Q>
0

> <i_epik_Tot_abs_Q>
0

> <r_epik_Metal_State_Penalty>
0.204365

> <b_epik_Metal_Only>
0

> <s_lp_Force_Field>
OPLS_2005

> <r_lp_Energy>
7.0541

> <b_lp_Chiralities_Consistent>
1

> <s_lp_Variant>
AV-unprocessed.smi:1292-1

> <Gold.Version>
5.8.1

> <Gold.Id.Protein>
6NUR|6NUR_protein|mol2

> <Gold.PLP.Fitness>
44.2986

> <Gold.PLP.PLP>
-36.3729

> <Gold.PLP.part.hbond>
-2.0000

> <Gold.PLP.part.metal>
0.0000

> <Gold.PLP.part.buried>
-0.6807

> <Gold.PLP.part.nonpolar>
-32.8506

> <Gold.PLP.part.repulsive>
0.1970

> <Gold.PLP.ligand.clash>
0.0000

> <Gold.PLP.ligand.torsion>
0.5122

> <Gold.PLP.Chemscore.Hbond>
1.6880

> <Gold.PLP.Chemscore.CHOScore>
1.0000

> <Gold.PLP.Chemscore.Metal>
0.0000

> <Gold.Chemscore.Hbonds>
donor molecule, donor type, donor heavy atom, donor atom, acceptor molecule, acceptor atom, score
      P1  H  7989  7998       L1     8  0.66
      P1  H  7997  8010       L1     9  0.70
      L1  C    17    38       P1 10175  0.10

> <Gold.PLP.Chemscore.Internal.Correction>
0.8860

> <Gold.Rescore>
     Score         DG    S(hbond)    S(metal)    S(lipo)     H(rot)  DE(clash)    DE(int)     intcor
     16.07     -18.17       1.45        0.00     102.96       1.64       1.38       0.72       ----

> <Gold.Chemscore.Fitness>
16.0726

> <Gold.Chemscore.DG>
-18.1690

> <Gold.Chemscore.ZeroCoef>
-5.4800

> <Gold.Chemscore.Hbond>
1.4491

> <Gold.Chemscore.Metal>
0.0000

> <Gold.Chemscore.Lipo>
102.9576

> <Gold.Chemscore.Internal_Hbond>
0.0000

> <Gold.Chemscore.DEClash>
1.3772

> <Gold.Chemscore.DEInternal>
0.7192

> <Gold.Chemscore.Rot>
1.6394

> <Gold.Chemscore.Internal.Correction>
   9.000000E+99

> <Gold.Chemscore.Hbonds>
donor molecule, donor type, donor heavy atom, donor atom, acceptor molecule, acceptor atom, score
      P1  H  7989  7998       L1     8  0.65
      P1  H  7997  8010       L1     9  0.07

> <Gold.Chemscore.Hbond.Weighted>
-4.8398

> <Gold.Chemscore.Metal.Weighted>
-0.0000

> <Gold.Chemscore.Lipo.Weighted>
-12.0460

> <Gold.Chemscore.Internal_Hbond.Weighted>
0.0000

> <Gold.Chemscore.DEClash.Weighted>
1.3772

> <Gold.Chemscore.DEInternal.Weighted>
0.7192

> <Gold.Chemscore.Rot.Weighted>
4.1968

> <Gold.Chemscore.Internal.Correction.Weighted>
   9.000000E+99

> <Gold.Protein.RotatedTorsions>
[ 6907 6896 6895 6894 ] final  -92.43 input  -60.11 | X-H torsion
[ 7974 7965 7964 7962 ] final  -39.79 input  175.53 | X-H torsion
[ 8008 7997 7996 7995 ] final   43.29 input   59.86 | X-H torsion
[ 10167 10162 10161 10158 ] final  105.53 input  -65.29 | X-H torsion
[ 10718 10713 10712 10709 ] final  -51.89 input   66.30 | X-H torsion
[ 10763 10752 10751 10750 ] final   37.54 input  -60.55 | X-H torsion
[ 11005 11000 10999 10996 ] final   59.26 input  -57.11 | X-H torsion

> <Gold.Protein.ActiveResidues>
 VAL166  LYS551  ARG553  GLY616  TRP617  ASP618  TYR619  PRO620  LYS621  CYS622 
 ASP623  PHE694  ASN695  SER759  ASP760  ASP761  ALA762  ILE779  LEU786  VAL792 
 PHE793  MET794  SER795  GLU796  ALA797  LYS798  CYS799  TRP800  GLU811  SER814 

> <Gold.Protein.RotatedAtoms>
  150.6906  134.2124  159.4364 H   0  0  0  0  0  0  0  0  0  0  0  0  # atno 6907 bound_to 6896
  152.0085  134.9887  160.0576 H   0  0  0  0  0  0  0  0  0  0  0  0  # atno 6908 bound_to 6896
  152.1511  133.4488  159.4851 H   0  0  0  0  0  0  0  0  0  0  0  0  # atno 6909 bound_to 6896
  146.0364  140.6666  142.9108 H   0  0  0  0  0  0  0  0  0  0  0  0  # atno 7974 bound_to 7965
  155.3002  140.3384  155.4248 H   0  0  0  0  0  0  0  0  0  0  0  0  # atno 8008 bound_to 7997
  156.2005  140.1731  156.7949 H   0  0  0  0  0  0  0  0  0  0  0  0  # atno 8009 bound_to 7997
  154.5553  140.0698  156.8717 H   0  0  0  0  0  0  0  0  0  0  0  0  # atno 8010 bound_to 7997
  139.7085  144.7082  151.1067 H   0  0  0  0  0  0  0  0  0  0  0  0  # atno 10167 bound_to 10162
  156.1670  130.4149  149.9705 H   0  0  0  0  0  0  0  0  0  0  0  0  # atno 10718 bound_to 10713
  153.0034  135.6275  154.2161 H   0  0  0  0  0  0  0  0  0  0  0  0  # atno 10763 bound_to 10752
  154.1904  135.2809  155.3025 H   0  0  0  0  0  0  0  0  0  0  0  0  # atno 10764 bound_to 10752
  154.5764  135.5661  153.7203 H   0  0  0  0  0  0  0  0  0  0  0  0  # atno 10765 bound_to 10752
  140.0316  134.6003  155.9499 H   0  0  0  0  0  0  0  0  0  0  0  0  # atno 11005 bound_to 11000
  144.7053  140.3828  143.7123 LP  0  0  0  0  0  0  0  0  0  0  0  0  # atno 17320 bound_to 7965
  145.6957  139.1649  143.2621 LP  0  0  0  0  0  0  0  0  0  0  0  0  # atno 17321 bound_to 7965
  140.7727  143.5326  150.9405 LP  0  0  0  0  0  0  0  0  0  0  0  0  # atno 17342 bound_to 10162
  139.9010  143.6836  152.3131 LP  0  0  0  0  0  0  0  0  0  0  0  0  # atno 17343 bound_to 10162
  156.7517  130.9118  151.3637 LP  0  0  0  0  0  0  0  0  0  0  0  0  # atno 17370 bound_to 10713
  157.6775  130.9108  150.0186 LP  0  0  0  0  0  0  0  0  0  0  0  0  # atno 17371 bound_to 10713
  141.1834  133.6551  156.5116 LP  0  0  0  0  0  0  0  0  0  0  0  0  # atno 17394 bound_to 11000
  140.4215  134.7183  157.4892 LP  0  0  0  0  0  0  0  0  0  0  0  0  # atno 17395 bound_to 11000

$$$$
