AV-unprocessed.smi:1424|AV-procd|sdf|5800|dock5
  -GOLD-   22720 5453D 1   1.00000     0.00000
 Structure written by MMmdl.
 45 47  0  0  0  0  0  0  0  0  1 V2000
  149.5562  132.8614  154.8631 O   0  0  0  0  0  0  0  0  0  0  0  0
  149.0754  133.7275  154.1329 C   0  0  0  0  0  0  0  0  0  0  0  0
  149.4724  135.0066  154.1487 N   0  0  0  0  0  0  0  0  0  0  0  0
  150.5006  135.5358  155.0357 C   0  0  0  0  0  0  0  0  0  0  0  0
  150.9024  136.9655  154.6343 C   0  0  1  0  0  0  0  0  0  0  0  0
  149.6917  137.9166  154.5641 C   0  0  0  0  0  0  0  0  0  0  0  0
  150.2065  139.3525  154.4282 C   0  0  0  0  0  0  0  0  0  0  0  0
  151.7488  139.4146  155.4125 S   0  0  0  0  0  0  0  0  0  0  0  0
  152.8308  139.9539  154.5750 O   0  0  0  0  0  0  0  0  0  0  0  0
  151.4611  139.9840  156.7377 O   0  0  0  0  0  0  0  0  0  0  0  0
  151.9432  137.5979  155.5759 C   0  0  0  0  0  0  0  0  0  0  0  0
  148.1122  133.5299  153.2168 N   0  0  0  0  0  0  0  0  0  0  0  0
  147.4293  132.3247  152.8812 C   0  0  0  0  0  0  0  0  0  0  0  0
  147.8315  131.0493  153.3487 C   0  0  0  0  0  0  0  0  0  0  0  0
  147.0830  129.9161  152.9818 C   0  0  0  0  0  0  0  0  0  0  0  0
  145.9521  130.0965  152.1659 C   0  0  0  0  0  0  0  0  0  0  0  0
  145.5471  131.3040  151.7233 N   0  0  0  0  0  0  0  0  0  0  0  0
  146.2646  132.3994  152.0738 C   0  0  0  0  0  0  0  0  0  0  0  0
  145.8198  133.6479  151.6035 N   0  0  0  0  0  0  0  0  0  0  0  0
  144.7727  133.6050  150.5969 C   0  0  0  0  0  0  0  0  0  0  0  0
  144.2317  135.0337  150.5206 C   0  0  0  0  0  0  0  0  0  0  0  0
  144.5709  135.6536  151.8820 C   0  0  0  0  0  0  0  0  0  0  0  0
  145.3584  134.5712  152.6271 C   0  0  0  0  0  0  0  0  0  0  0  0
  149.0346  135.6553  153.5109 H   0  0  0  0  0  0  0  0  0  0  0  0
  150.1245  135.5316  156.0600 H   0  0  0  0  0  0  0  0  0  0  0  0
  151.3709  134.8780  155.0124 H   0  0  0  0  0  0  0  0  0  0  0  0
  151.3413  136.9323  153.6357 H   0  0  0  0  0  0  0  0  0  0  0  0
  149.0197  137.6565  153.7456 H   0  0  0  0  0  0  0  0  0  0  0  0
  149.1163  137.8352  155.4875 H   0  0  0  0  0  0  0  0  0  0  0  0
  150.4587  139.5755  153.3913 H   0  0  0  0  0  0  0  0  0  0  0  0
  149.4976  140.0994  154.7852 H   0  0  0  0  0  0  0  0  0  0  0  0
  151.7441  137.3353  156.6155 H   0  0  0  0  0  0  0  0  0  0  0  0
  152.9662  137.3082  155.3361 H   0  0  0  0  0  0  0  0  0  0  0  0
  147.8830  134.3247  152.6379 H   0  0  0  0  0  0  0  0  0  0  0  0
  148.6870  130.9167  153.9919 H   0  0  0  0  0  0  0  0  0  0  0  0
  147.3672  128.9317  153.3229 H   0  0  0  0  0  0  0  0  0  0  0  0
  145.3532  129.2495  151.8657 H   0  0  0  0  0  0  0  0  0  0  0  0
  145.1641  133.2708  149.6355 H   0  0  0  0  0  0  0  0  0  0  0  0
  143.9785  132.9193  150.8954 H   0  0  0  0  0  0  0  0  0  0  0  0
  144.7379  135.5848  149.7271 H   0  0  0  0  0  0  0  0  0  0  0  0
  143.1626  135.0508  150.3076 H   0  0  0  0  0  0  0  0  0  0  0  0
  145.1820  136.5464  151.7440 H   0  0  0  0  0  0  0  0  0  0  0  0
  143.6779  135.9449  152.4358 H   0  0  0  0  0  0  0  0  0  0  0  0
  144.7111  134.0602  153.3414 H   0  0  0  0  0  0  0  0  0  0  0  0
  146.1986  134.9946  153.1783 H   0  0  0  0  0  0  0  0  0  0  0  0
  1  2  2  0  0  0  0
  2  3  1  0  0  0  0
  2 12  1  0  0  0  0
  3  4  1  0  0  0  0
  3 24  1  0  0  0  0
  4  5  1  0  0  0  0
  4 25  1  0  0  0  0
  4 26  1  0  0  0  0
  5 11  1  0  0  0  0
  5  6  1  0  0  0  0
  5 27  1  0  0  0  0
  6  7  1  0  0  0  0
  6 28  1  0  0  0  0
  6 29  1  0  0  0  0
  7  8  1  0  0  0  0
  7 30  1  0  0  0  0
  7 31  1  0  0  0  0
  8  9  2  0  0  0  0
  8 10  2  0  0  0  0
  8 11  1  0  0  0  0
 11 32  1  0  0  0  0
 11 33  1  0  0  0  0
 12 13  1  0  0  0  0
 12 34  1  0  0  0  0
 13 18  1  0  0  0  0
 13 14  2  0  0  0  0
 14 15  1  0  0  0  0
 14 35  1  0  0  0  0
 15 16  2  0  0  0  0
 15 36  1  0  0  0  0
 16 17  1  0  0  0  0
 16 37  1  0  0  0  0
 17 18  2  0  0  0  0
 18 19  1  0  0  0  0
 19 23  1  0  0  0  0
 19 20  1  0  0  0  0
 20 21  1  0  0  0  0
 20 38  1  0  0  0  0
 20 39  1  0  0  0  0
 21 22  1  0  0  0  0
 21 40  1  0  0  0  0
 21 41  1  0  0  0  0
 22 23  1  0  0  0  0
 22 42  1  0  0  0  0
 22 43  1  0  0  0  0
 23 44  1  0  0  0  0
 23 45  1  0  0  0  0
M  END
> <s_m_source_file>
AV-unprocessed.smi

> <i_m_source_file_index>
1424

> <i_lp_mmshare_version>
43012

> <i_f3d_flags>
0

> <s_epik_input>
Tz1TMSg9TylbQ0gyXVtDSDJdW0NASF0oW0NIMl0xKVtDSDJdW05IXUMoPU8pW05IXWMyW2NIXVtjSF1bY0hdbmMyTjNbQ0gyXVtDSDJdW0NIMl1bQ0gyXTM=

> <s_epik_cmdline>
J2VwaWtfcHl0aG9uJywgJy1waCcsICc3LjAnLCAnLXRuJywgJzgnLCAnLW1hJywgJzIwMCcsICctbWV0YWxfYmluZGluZycsICctaW1hZScsICc8aW5maWxlLm1hZT4nLCAnLW9tYWUnLCAnPG91dGZpbGUubWFlPic=

> <r_lp_tautomer_probability>
1

> <r_epik_Ionization_Penalty>
0.0965651

> <r_epik_Ionization_Penalty_Charging>
0

> <r_epik_Ionization_Penalty_Neutral>
0.0965651

> <r_epik_State_Penalty>
0.0861592

> <r_epik_Charging_Adjusted_Penalty>
0.0861592

> <i_epik_Tot_Q>
0

> <i_epik_Tot_abs_Q>
0

> <r_epik_Metal_State_Penalty>
0.0740444

> <b_epik_Metal_Only>
0

> <s_lp_Force_Field>
OPLS_2005

> <r_lp_Energy>
37.4342

> <b_lp_Chiralities_Consistent>
1

> <s_lp_Variant>
AV-unprocessed.smi:1424-2

> <Gold.Version>
5.8.1

> <Gold.Id.Protein>
6NUR|6NUR_protein|mol2

> <Gold.PLP.Fitness>
44.9020

> <Gold.PLP.PLP>
-37.4778

> <Gold.PLP.part.hbond>
-3.7231

> <Gold.PLP.part.metal>
0.0000

> <Gold.PLP.part.buried>
-4.8535

> <Gold.PLP.part.nonpolar>
-29.8641

> <Gold.PLP.part.repulsive>
0.3518

> <Gold.PLP.ligand.clash>
0.0000

> <Gold.PLP.ligand.torsion>
0.2277

> <Gold.PLP.Chemscore.Hbond>
2.6156

> <Gold.PLP.Chemscore.CHOScore>
0.0000

> <Gold.PLP.Chemscore.Metal>
0.0000

> <Gold.Chemscore.Hbonds>
donor molecule, donor type, donor heavy atom, donor atom, acceptor molecule, acceptor atom, score
      L1  H     3    24       P1  7948  0.88
      L1  H    12    34       P1  7948  0.29
      P1  H  7989  7998       L1     9  0.25
      P1  H  7997  8009       L1     9  0.36

> <Gold.PLP.Chemscore.Internal.Correction>
0.0329

> <Gold.Rescore>
     Score         DG    S(hbond)    S(metal)    S(lipo)     H(rot)  DE(clash)    DE(int)     intcor
     15.23     -17.76       2.13        0.00      76.31       1.47       0.02       2.51       ----

> <Gold.Chemscore.Fitness>
15.2281

> <Gold.Chemscore.DG>
-17.7560

> <Gold.Chemscore.ZeroCoef>
-5.4800

> <Gold.Chemscore.Hbond>
2.1324

> <Gold.Chemscore.Metal>
0.0000

> <Gold.Chemscore.Lipo>
76.3108

> <Gold.Chemscore.Internal_Hbond>
0.0000

> <Gold.Chemscore.DEClash>
0.0212

> <Gold.Chemscore.DEInternal>
2.5067

> <Gold.Chemscore.Rot>
1.4744

> <Gold.Chemscore.Internal.Correction>
   9.000000E+99

> <Gold.Chemscore.Hbonds>
donor molecule, donor type, donor heavy atom, donor atom, acceptor molecule, acceptor atom, score
      L1  H     3    24       P1  7948  0.68
      L1  H    12    34       P1  7948  0.15
      P1  H  7989  7998       L1     9  0.02
      P1  H  7997  8009       L1     9  0.06

> <Gold.Chemscore.Hbond.Weighted>
-7.1221

> <Gold.Chemscore.Metal.Weighted>
-0.0000

> <Gold.Chemscore.Lipo.Weighted>
-8.9284

> <Gold.Chemscore.Internal_Hbond.Weighted>
0.0000

> <Gold.Chemscore.DEClash.Weighted>
0.0212

> <Gold.Chemscore.DEInternal.Weighted>
2.5067

> <Gold.Chemscore.Rot.Weighted>
3.7744

> <Gold.Chemscore.Internal.Correction.Weighted>
   9.000000E+99

> <Gold.Protein.RotatedTorsions>
[ 6907 6896 6895 6894 ] final  104.46 input  -60.11 | X-H torsion
[ 7974 7965 7964 7962 ] final   40.14 input  175.53 | X-H torsion
[ 8008 7997 7996 7995 ] final -156.19 input   59.86 | X-H torsion
[ 10167 10162 10161 10158 ] final  115.34 input  -65.29 | X-H torsion
[ 10718 10713 10712 10709 ] final   29.01 input   66.30 | X-H torsion
[ 10763 10752 10751 10750 ] final  111.29 input  -60.55 | X-H torsion
[ 11005 11000 10999 10996 ] final   25.60 input  -57.11 | X-H torsion

> <Gold.Protein.ActiveResidues>
 VAL166  LYS551  ARG553  GLY616  TRP617  ASP618  TYR619  PRO620  LYS621  CYS622 
 ASP623  PHE694  ASN695  SER759  ASP760  ASP761  ALA762  ILE779  LEU786  VAL792 
 PHE793  MET794  SER795  GLU796  ALA797  LYS798  CYS799  TRP800  GLU811  SER814 

> <Gold.Protein.RotatedAtoms>
  152.5263  133.9673  159.7745 H   0  0  0  0  0  0  0  0  0  0  0  0  # atno 6907 bound_to 6896
  150.9952  133.6102  159.2709 H   0  0  0  0  0  0  0  0  0  0  0  0  # atno 6908 bound_to 6896
  151.3231  135.0829  159.9366 H   0  0  0  0  0  0  0  0  0  0  0  0  # atno 6909 bound_to 6896
  146.0928  139.5568  142.9464 H   0  0  0  0  0  0  0  0  0  0  0  0  # atno 7974 bound_to 7965
  155.7134  140.0781  157.2361 H   0  0  0  0  0  0  0  0  0  0  0  0  # atno 8008 bound_to 7997
  154.4055  140.1626  156.2375 H   0  0  0  0  0  0  0  0  0  0  0  0  # atno 8009 bound_to 7997
  155.9262  140.3394  155.6215 H   0  0  0  0  0  0  0  0  0  0  0  0  # atno 8010 bound_to 7997
  139.6324  144.7116  151.2404 H   0  0  0  0  0  0  0  0  0  0  0  0  # atno 10167 bound_to 10162
  157.2409  130.7069  149.6358 H   0  0  0  0  0  0  0  0  0  0  0  0  # atno 10718 bound_to 10713
  153.4612  135.3721  155.2339 H   0  0  0  0  0  0  0  0  0  0  0  0  # atno 10763 bound_to 10752
  154.8757  135.3909  154.3922 H   0  0  0  0  0  0  0  0  0  0  0  0  # atno 10764 bound_to 10752
  153.4496  135.7085  153.6181 H   0  0  0  0  0  0  0  0  0  0  0  0  # atno 10765 bound_to 10752
  140.3461  134.2280  155.7684 H   0  0  0  0  0  0  0  0  0  0  0  0  # atno 11005 bound_to 11000
  145.6005  141.0356  143.2021 LP  0  0  0  0  0  0  0  0  0  0  0  0  # atno 17320 bound_to 7965
  144.7373  139.7549  143.7324 LP  0  0  0  0  0  0  0  0  0  0  0  0  # atno 17321 bound_to 7965
  140.7446  143.6456  150.8295 LP  0  0  0  0  0  0  0  0  0  0  0  0  # atno 17342 bound_to 10162
  140.0083  143.5670  152.2849 LP  0  0  0  0  0  0  0  0  0  0  0  0  # atno 17343 bound_to 10162
  155.9670  130.4458  150.5517 LP  0  0  0  0  0  0  0  0  0  0  0  0  # atno 17370 bound_to 10713
  157.3379  131.0711  151.1810 LP  0  0  0  0  0  0  0  0  0  0  0  0  # atno 17371 bound_to 10713
  141.2025  133.7935  157.0386 LP  0  0  0  0  0  0  0  0  0  0  0  0  # atno 17394 bound_to 11000
  140.0741  134.9685  157.1517 LP  0  0  0  0  0  0  0  0  0  0  0  0  # atno 17395 bound_to 11000

$$$$
