AV-unprocessed.smi:580|AV-procd|sdf|2990|dock6
  -GOLD-   2262023493D 1   1.00000     0.00000
 Structure written by MMmdl.
 36 37  0  0  0  0  0  0  0  0  1 V2000
  150.4722  141.6621  156.3077 C   0  0  0  0  0  0  0  0  0  0  0  0
  150.1981  140.4382  155.5027 C   0  0  0  0  0  0  0  0  0  0  0  0
  149.0557  139.7376  155.2350 C   0  0  0  0  0  0  0  0  0  0  0  0
  149.5159  138.6808  154.4052 C   0  0  0  0  0  0  0  0  0  0  0  0
  148.6162  137.7072  153.9012 N   0  0  0  0  0  0  0  0  0  0  0  0
  147.3306  137.5229  154.2462 C   0  0  0  0  0  0  0  0  0  0  0  0
  146.7199  138.1834  155.0871 O   0  0  0  0  0  0  0  0  0  0  0  0
  146.7826  136.5122  153.5562 N   0  0  0  0  0  0  0  0  0  0  0  0
  145.4051  136.0407  153.6911 C   0  0  2  0  0  0  0  0  0  0  0  0
  145.3558  134.5532  154.0989 C   0  0  0  0  0  0  0  0  0  0  0  0
  145.8259  133.6233  152.9664 C   0  0  0  0  0  0  0  0  0  0  0  0
  145.0257  133.8564  151.6706 C   0  0  2  0  0  0  0  0  0  0  0  0
  145.4996  132.9289  150.5428 C   0  0  0  0  0  0  0  0  0  0  0  0
  145.1001  135.3367  151.2505 C   0  0  0  0  0  0  0  0  0  0  0  0
  144.6315  136.2732  152.3789 C   0  0  0  0  0  0  0  0  0  0  0  0
  150.8211  138.7310  154.1868 N   0  0  0  0  0  0  0  0  0  0  0  0
  151.2651  139.8574  154.8895 O   0  0  0  0  0  0  0  0  0  0  0  0
  149.5527  142.2150  156.5007 H   0  0  0  0  0  0  0  0  0  0  0  0
  151.1606  142.3256  155.7838 H   0  0  0  0  0  0  0  0  0  0  0  0
  150.9177  141.4006  157.2675 H   0  0  0  0  0  0  0  0  0  0  0  0
  148.0541  139.9498  155.5785 H   0  0  0  0  0  0  0  0  0  0  0  0
  148.9918  137.0848  153.2012 H   0  0  0  0  0  0  0  0  0  0  0  0
  147.3614  136.0260  152.8873 H   0  0  0  0  0  0  0  0  0  0  0  0
  144.9208  136.6312  154.4711 H   0  0  0  0  0  0  0  0  0  0  0  0
  145.9532  134.3818  154.9950 H   0  0  0  0  0  0  0  0  0  0  0  0
  144.3314  134.2926  154.3682 H   0  0  0  0  0  0  0  0  0  0  0  0
  146.8886  133.7826  152.7793 H   0  0  0  0  0  0  0  0  0  0  0  0
  145.7243  132.5852  153.2846 H   0  0  0  0  0  0  0  0  0  0  0  0
  143.9808  133.6175  151.8743 H   0  0  0  0  0  0  0  0  0  0  0  0
  146.5433  133.1157  150.2877 H   0  0  0  0  0  0  0  0  0  0  0  0
  144.9053  133.0731  149.6401 H   0  0  0  0  0  0  0  0  0  0  0  0
  145.4097  131.8814  150.8319 H   0  0  0  0  0  0  0  0  0  0  0  0
  146.1223  135.5887  150.9653 H   0  0  0  0  0  0  0  0  0  0  0  0
  144.4867  135.5026  150.3643 H   0  0  0  0  0  0  0  0  0  0  0  0
  143.5685  136.1069  152.5582 H   0  0  0  0  0  0  0  0  0  0  0  0
  144.7248  137.3135  152.0646 H   0  0  0  0  0  0  0  0  0  0  0  0
  1  2  1  0  0  0  0
  1 18  1  0  0  0  0
  1 19  1  0  0  0  0
  1 20  1  0  0  0  0
  2 17  1  0  0  0  0
  2  3  2  0  0  0  0
  3  4  1  0  0  0  0
  3 21  1  0  0  0  0
  4  5  1  0  0  0  0
  4 16  2  0  0  0  0
  5  6  1  0  0  0  0
  5 22  1  0  0  0  0
  6  7  2  0  0  0  0
  6  8  1  0  0  0  0
  8  9  1  0  0  0  0
  8 23  1  0  0  0  0
  9 15  1  0  0  0  0
  9 10  1  0  0  0  0
  9 24  1  0  0  0  0
 10 11  1  0  0  0  0
 10 25  1  0  0  0  0
 10 26  1  0  0  0  0
 11 12  1  0  0  0  0
 11 27  1  0  0  0  0
 11 28  1  0  0  0  0
 12 13  1  0  0  0  0
 12 14  1  0  0  0  0
 12 29  1  0  0  0  0
 13 30  1  0  0  0  0
 13 31  1  0  0  0  0
 13 32  1  0  0  0  0
 14 15  1  0  0  0  0
 14 33  1  0  0  0  0
 14 34  1  0  0  0  0
 15 35  1  0  0  0  0
 15 36  1  0  0  0  0
 16 17  1  0  0  0  0
M  END
> <s_m_source_file>
AV-unprocessed.smi

> <i_m_source_file_index>
580

> <i_lp_mmshare_version>
43012

> <i_f3d_flags>
0

> <s_epik_input>
W0NIM11jMVtjSF1jKG5vMSlbTkhdQyg9TylbTkhdW0NAQEhdMltDSDJdW0NIMl1bQ0BASF0oW0NIM10pW0NIMl1bQ0gyXTI=

> <s_epik_cmdline>
J2VwaWtfcHl0aG9uJywgJy1waCcsICc3LjAnLCAnLXRuJywgJzgnLCAnLW1hJywgJzIwMCcsICctbWV0YWxfYmluZGluZycsICctaW1hZScsICc8aW5maWxlLm1hZT4nLCAnLW9tYWUnLCAnPG91dGZpbGUubWFlPic=

> <r_lp_tautomer_probability>
1

> <r_epik_Ionization_Penalty>
2.357e-05

> <r_epik_Ionization_Penalty_Charging>
0

> <r_epik_Ionization_Penalty_Neutral>
2.357e-05

> <r_epik_State_Penalty>
-0

> <r_epik_Charging_Adjusted_Penalty>
0

> <i_epik_Tot_Q>
0

> <i_epik_Tot_abs_Q>
0

> <r_epik_Metal_State_Penalty>
-0

> <b_epik_Metal_Only>
0

> <s_lp_Force_Field>
OPLS_2005

> <r_lp_Energy>
6.11035

> <b_lp_Chiralities_Consistent>
1

> <s_lp_Variant>
AV-unprocessed.smi:580-2

> <Gold.Version>
5.8.1

> <Gold.Id.Protein>
6NUR|6NUR_protein|mol2

> <Gold.PLP.Fitness>
31.9092

> <Gold.PLP.PLP>
-23.4716

> <Gold.PLP.part.hbond>
-2.9613

> <Gold.PLP.part.metal>
0.0000

> <Gold.PLP.part.buried>
-3.5320

> <Gold.PLP.part.nonpolar>
-17.8253

> <Gold.PLP.part.repulsive>
0.3366

> <Gold.PLP.ligand.clash>
0.0000

> <Gold.PLP.ligand.torsion>
0.0323

> <Gold.PLP.Chemscore.Hbond>
2.8320

> <Gold.PLP.Chemscore.CHOScore>
0.0000

> <Gold.PLP.Chemscore.Metal>
0.0000

> <Gold.Chemscore.Hbonds>
donor molecule, donor type, donor heavy atom, donor atom, acceptor molecule, acceptor atom, score
      L1  H     5    22       P1  7948  1.00
      L1  H     8    23       P1  7948  0.85
      P1  H  7989  7998       L1    17  0.90

> <Gold.PLP.Chemscore.Internal.Correction>
0.0061

> <Gold.Rescore>
     Score         DG    S(hbond)    S(metal)    S(lipo)     H(rot)  DE(clash)    DE(int)     intcor
     13.89     -15.36       1.97        0.00      50.06       1.00       0.06       1.41       ----

> <Gold.Chemscore.Fitness>
13.8920

> <Gold.Chemscore.DG>
-15.3559

> <Gold.Chemscore.ZeroCoef>
-5.4800

> <Gold.Chemscore.Hbond>
1.9697

> <Gold.Chemscore.Metal>
0.0000

> <Gold.Chemscore.Lipo>
50.0616

> <Gold.Chemscore.Internal_Hbond>
0.0000

> <Gold.Chemscore.DEClash>
0.0563

> <Gold.Chemscore.DEInternal>
1.4076

> <Gold.Chemscore.Rot>
1.0000

> <Gold.Chemscore.Internal.Correction>
   9.000000E+99

> <Gold.Chemscore.Hbonds>
donor molecule, donor type, donor heavy atom, donor atom, acceptor molecule, acceptor atom, score
      L1  H     5    22       P1  7948  0.95
      L1  H     8    23       P1  7948  0.83
      P1  H  7989  7998       L1    17  0.10

> <Gold.Chemscore.Hbond.Weighted>
-6.5787

> <Gold.Chemscore.Metal.Weighted>
-0.0000

> <Gold.Chemscore.Lipo.Weighted>
-5.8572

> <Gold.Chemscore.Internal_Hbond.Weighted>
0.0000

> <Gold.Chemscore.DEClash.Weighted>
0.0563

> <Gold.Chemscore.DEInternal.Weighted>
1.4076

> <Gold.Chemscore.Rot.Weighted>
2.5600

> <Gold.Chemscore.Internal.Correction.Weighted>
   9.000000E+99

> <Gold.Protein.RotatedTorsions>
[ 6907 6896 6895 6894 ] final  -21.50 input  -60.11 | X-H torsion
[ 7974 7965 7964 7962 ] final  148.60 input  175.53 | X-H torsion
[ 8008 7997 7996 7995 ] final   12.10 input   59.86 | X-H torsion
[ 10167 10162 10161 10158 ] final   66.34 input  -65.29 | X-H torsion
[ 10718 10713 10712 10709 ] final  -17.14 input   66.30 | X-H torsion
[ 10763 10752 10751 10750 ] final  -34.19 input  -60.55 | X-H torsion
[ 11005 11000 10999 10996 ] final  -84.87 input  -57.11 | X-H torsion

> <Gold.Protein.ActiveResidues>
 VAL166  LYS551  ARG553  GLY616  TRP617  ASP618  TYR619  PRO620  LYS621  CYS622 
 ASP623  PHE694  ASN695  SER759  ASP760  ASP761  ALA762  ILE779  LEU786  VAL792 
 PHE793  MET794  SER795  GLU796  ALA797  LYS798  CYS799  TRP800  GLU811  SER814 

> <Gold.Protein.RotatedAtoms>
  151.2323  135.0559  159.8992 H   0  0  0  0  0  0  0  0  0  0  0  0  # atno 6907 bound_to 6896
  152.5403  134.0523  159.8125 H   0  0  0  0  0  0  0  0  0  0  0  0  # atno 6908 bound_to 6896
  151.0705  133.5422  159.2659 H   0  0  0  0  0  0  0  0  0  0  0  0  # atno 6909 bound_to 6896
  144.8502  139.6174  143.5977 H   0  0  0  0  0  0  0  0  0  0  0  0  # atno 7974 bound_to 7965
  154.8160  140.2876  155.5820 H   0  0  0  0  0  0  0  0  0  0  0  0  # atno 8008 bound_to 7997
  156.2993  140.2559  156.2988 H   0  0  0  0  0  0  0  0  0  0  0  0  # atno 8009 bound_to 7997
  154.9393  140.0381  157.2078 H   0  0  0  0  0  0  0  0  0  0  0  0  # atno 8010 bound_to 7997
  140.1015  144.4899  150.7034 H   0  0  0  0  0  0  0  0  0  0  0  0  # atno 10167 bound_to 10162
  156.5777  130.4766  149.6334 H   0  0  0  0  0  0  0  0  0  0  0  0  # atno 10718 bound_to 10713
  153.8425  135.6856  153.4801 H   0  0  0  0  0  0  0  0  0  0  0  0  # atno 10763 bound_to 10752
  153.1445  135.4643  154.9543 H   0  0  0  0  0  0  0  0  0  0  0  0  # atno 10764 bound_to 10752
  154.7838  135.3278  154.7878 H   0  0  0  0  0  0  0  0  0  0  0  0  # atno 10765 bound_to 10752
  141.1646  133.7369  156.8931 H   0  0  0  0  0  0  0  0  0  0  0  0  # atno 11005 bound_to 11000
  146.2778  139.6798  142.9250 LP  0  0  0  0  0  0  0  0  0  0  0  0  # atno 17320 bound_to 7965
  145.4516  141.0428  143.2801 LP  0  0  0  0  0  0  0  0  0  0  0  0  # atno 17321 bound_to 7965
  140.6975  143.2413  151.4959 LP  0  0  0  0  0  0  0  0  0  0  0  0  # atno 17342 bound_to 10162
  139.5668  144.2022  152.1777 LP  0  0  0  0  0  0  0  0  0  0  0  0  # atno 17343 bound_to 10162
  156.2659  130.6989  151.1772 LP  0  0  0  0  0  0  0  0  0  0  0  0  # atno 17370 bound_to 10713
  157.7334  131.0591  150.5580 LP  0  0  0  0  0  0  0  0  0  0  0  0  # atno 17371 bound_to 10713
  140.1635  134.9149  157.2744 LP  0  0  0  0  0  0  0  0  0  0  0  0  # atno 17394 bound_to 11000
  140.2584  134.3600  155.7415 LP  0  0  0  0  0  0  0  0  0  0  0  0  # atno 17395 bound_to 11000

$$$$
