AV-unprocessed.smi:2359|AV-procd|sdf|9407|dock2
  -GOLD-   2272013 43D 1   1.00000     0.00000
 Structure written by MMmdl.
 40 41  0  0  0  0  0  0  0  0  1 V2000
  144.7123  132.6360  150.2458 C   0  0  0  0  0  0  0  0  0  0  0  0
  144.3714  133.9297  150.9550 C   0  0  0  0  0  0  0  0  0  0  0  0
  143.2356  134.0325  151.7804 C   0  0  0  0  0  0  0  0  0  0  0  0
  142.9660  135.2612  152.4131 C   0  0  0  0  0  0  0  0  0  0  0  0
  143.8349  136.3563  152.2063 C   0  0  0  0  0  0  0  0  0  0  0  0
  143.4680  137.5494  152.8838 N   0  0  0  0  0  0  0  0  0  0  0  0
  142.9188  137.6787  154.1043 C   0  0  0  0  0  0  0  0  0  0  0  0
  142.6086  136.7483  154.8493 O   0  0  0  0  0  0  0  0  0  0  0  0
  142.7421  138.9697  154.4211 N   0  0  0  0  0  0  0  0  0  0  0  0
  142.1726  139.4552  155.6726 C   0  0  0  0  0  0  0  0  0  0  0  0
  140.9010  140.2859  155.4302 C   0  0  0  0  0  0  0  0  0  0  0  0
  139.7899  139.4839  154.7346 C   0  0  2  0  0  0  0  0  0  0  0  0
  139.4296  138.2027  155.5121 C   0  0  0  0  0  0  0  0  0  0  0  0
  138.3775  137.3876  154.7513 C   0  0  0  0  0  0  0  0  0  0  0  0
  138.8524  137.1403  153.3156 C   0  0  0  0  0  0  0  0  0  0  0  0
  139.2480  138.4666  152.6481 C   0  0  0  0  0  0  0  0  0  0  0  0
  140.2404  139.1249  153.4293 O   0  0  0  0  0  0  0  0  0  0  0  0
  144.9275  136.2468  151.4101 N   0  0  0  0  0  0  0  0  0  0  0  0
  145.1854  135.0689  150.8040 C   0  0  0  0  0  0  0  0  0  0  0  0
  144.0246  131.8377  150.5260 H   0  0  0  0  0  0  0  0  0  0  0  0
  145.7239  132.3195  150.5009 H   0  0  0  0  0  0  0  0  0  0  0  0
  144.6563  132.7724  149.1657 H   0  0  0  0  0  0  0  0  0  0  0  0
  142.5788  133.1880  151.9281 H   0  0  0  0  0  0  0  0  0  0  0  0
  142.0978  135.3578  153.0489 H   0  0  0  0  0  0  0  0  0  0  0  0
  143.6575  138.4061  152.3855 H   0  0  0  0  0  0  0  0  0  0  0  0
  143.0246  139.6686  153.7498 H   0  0  0  0  0  0  0  0  0  0  0  0
  141.9621  138.6186  156.3409 H   0  0  0  0  0  0  0  0  0  0  0  0
  142.9283  140.0644  156.1692 H   0  0  0  0  0  0  0  0  0  0  0  0
  140.5306  140.6794  156.3777 H   0  0  0  0  0  0  0  0  0  0  0  0
  141.1518  141.1514  154.8153 H   0  0  0  0  0  0  0  0  0  0  0  0
  138.9031  140.1146  154.6482 H   0  0  0  0  0  0  0  0  0  0  0  0
  140.3246  137.5964  155.6580 H   0  0  0  0  0  0  0  0  0  0  0  0
  139.0573  138.4543  156.5057 H   0  0  0  0  0  0  0  0  0  0  0  0
  138.1889  136.4409  155.2580 H   0  0  0  0  0  0  0  0  0  0  0  0
  137.4319  137.9311  154.7368 H   0  0  0  0  0  0  0  0  0  0  0  0
  139.7109  136.4678  153.3236 H   0  0  0  0  0  0  0  0  0  0  0  0
  138.0711  136.6444  152.7393 H   0  0  0  0  0  0  0  0  0  0  0  0
  139.6511  138.2793  151.6526 H   0  0  0  0  0  0  0  0  0  0  0  0
  138.3794  139.1150  152.5230 H   0  0  0  0  0  0  0  0  0  0  0  0
  146.0663  135.0366  150.1795 H   0  0  0  0  0  0  0  0  0  0  0  0
  1  2  1  0  0  0  0
  1 20  1  0  0  0  0
  1 21  1  0  0  0  0
  1 22  1  0  0  0  0
  2 19  1  0  0  0  0
  2  3  2  0  0  0  0
  3  4  1  0  0  0  0
  3 23  1  0  0  0  0
  4  5  2  0  0  0  0
  4 24  1  0  0  0  0
  5  6  1  0  0  0  0
  5 18  1  0  0  0  0
  6  7  1  0  0  0  0
  6 25  1  0  0  0  0
  7  8  2  0  0  0  0
  7  9  1  0  0  0  0
  9 10  1  0  0  0  0
  9 26  1  0  0  0  0
 10 11  1  0  0  0  0
 10 27  1  0  0  0  0
 10 28  1  0  0  0  0
 11 12  1  0  0  0  0
 11 29  1  0  0  0  0
 11 30  1  0  0  0  0
 12 17  1  0  0  0  0
 12 13  1  0  0  0  0
 12 31  1  0  0  0  0
 13 14  1  0  0  0  0
 13 32  1  0  0  0  0
 13 33  1  0  0  0  0
 14 15  1  0  0  0  0
 14 34  1  0  0  0  0
 14 35  1  0  0  0  0
 15 16  1  0  0  0  0
 15 36  1  0  0  0  0
 15 37  1  0  0  0  0
 16 17  1  0  0  0  0
 16 38  1  0  0  0  0
 16 39  1  0  0  0  0
 18 19  2  0  0  0  0
 19 40  1  0  0  0  0
M  END
> <s_m_source_file>
AV-unprocessed.smi

> <i_m_source_file_index>
2359

> <i_lp_mmshare_version>
43012

> <i_f3d_flags>
0

> <s_epik_input>
W0NIM11jMVtjSF1bY0hdYyhuW2NIXTEpW05IXUMoPU8pW05IXVtDSDJdW0NIMl1bQ0BASF0yW0NIMl1bQ0gyXVtDSDJdW0NIMl1PMg==

> <s_epik_cmdline>
J2VwaWtfcHl0aG9uJywgJy1waCcsICc3LjAnLCAnLXRuJywgJzgnLCAnLW1hJywgJzIwMCcsICctbWV0YWxfYmluZGluZycsICctaW1hZScsICc8aW5maWxlLm1hZT4nLCAnLW9tYWUnLCAnPG91dGZpbGUubWFlPic=

> <r_lp_tautomer_probability>
1

> <r_epik_Ionization_Penalty>
5.73679e-05

> <r_epik_Ionization_Penalty_Charging>
0

> <r_epik_Ionization_Penalty_Neutral>
5.73679e-05

> <r_epik_State_Penalty>
-0

> <r_epik_Charging_Adjusted_Penalty>
0

> <i_epik_Tot_Q>
0

> <i_epik_Tot_abs_Q>
0

> <r_epik_Metal_State_Penalty>
-0

> <b_epik_Metal_Only>
0

> <s_lp_Force_Field>
OPLS_2005

> <r_lp_Energy>
10.9797

> <b_lp_Chiralities_Consistent>
1

> <s_lp_Variant>
AV-unprocessed.smi:2359-1

> <Gold.Version>
5.8.1

> <Gold.Id.Protein>
6NUR|6NUR_protein|mol2

> <Gold.PLP.Fitness>
37.0005

> <Gold.PLP.PLP>
-28.8204

> <Gold.PLP.part.hbond>
-2.1623

> <Gold.PLP.part.metal>
0.0000

> <Gold.PLP.part.buried>
-5.9059

> <Gold.PLP.part.nonpolar>
-21.6955

> <Gold.PLP.part.repulsive>
1.2402

> <Gold.PLP.ligand.clash>
0.0000

> <Gold.PLP.ligand.torsion>
0.2763

> <Gold.PLP.Chemscore.Hbond>
1.9280

> <Gold.PLP.Chemscore.CHOScore>
0.9812

> <Gold.PLP.Chemscore.Metal>
0.0000

> <Gold.Chemscore.Hbonds>
donor molecule, donor type, donor heavy atom, donor atom, acceptor molecule, acceptor atom, score
      L1  H     6    25       P1 10175  0.93
      L1  H     9    26       P1 10175  1.00
      L1  C    19    40       P1  7921  0.92

> <Gold.PLP.Chemscore.Internal.Correction>
0.0050

> <Gold.Rescore>
     Score         DG    S(hbond)    S(metal)    S(lipo)     H(rot)  DE(clash)    DE(int)     intcor
     12.92     -15.87       1.96        0.00      63.87       1.42       0.04       2.91       ----

> <Gold.Chemscore.Fitness>
12.9158

> <Gold.Chemscore.DG>
-15.8666

> <Gold.Chemscore.ZeroCoef>
-5.4800

> <Gold.Chemscore.Hbond>
1.9645

> <Gold.Chemscore.Metal>
0.0000

> <Gold.Chemscore.Lipo>
63.8685

> <Gold.Chemscore.Internal_Hbond>
0.0000

> <Gold.Chemscore.DEClash>
0.0369

> <Gold.Chemscore.DEInternal>
2.9139

> <Gold.Chemscore.Rot>
1.4248

> <Gold.Chemscore.Internal.Correction>
   9.000000E+99

> <Gold.Chemscore.Hbonds>
donor molecule, donor type, donor heavy atom, donor atom, acceptor molecule, acceptor atom, score
      L1  H     6    25       P1 10175  0.84
      L1  H     9    26       P1 10175  0.98

> <Gold.Chemscore.Hbond.Weighted>
-6.5616

> <Gold.Chemscore.Metal.Weighted>
-0.0000

> <Gold.Chemscore.Lipo.Weighted>
-7.4726

> <Gold.Chemscore.Internal_Hbond.Weighted>
0.0000

> <Gold.Chemscore.DEClash.Weighted>
0.0369

> <Gold.Chemscore.DEInternal.Weighted>
2.9139

> <Gold.Chemscore.Rot.Weighted>
3.6476

> <Gold.Chemscore.Internal.Correction.Weighted>
   9.000000E+99

> <Gold.Protein.RotatedTorsions>
[ 6907 6896 6895 6894 ] final   53.38 input  -60.11 | X-H torsion
[ 7974 7965 7964 7962 ] final -153.61 input  175.53 | X-H torsion
[ 8008 7997 7996 7995 ] final  131.04 input   59.86 | X-H torsion
[ 10167 10162 10161 10158 ] final  -82.27 input  -65.29 | X-H torsion
[ 10718 10713 10712 10709 ] final  151.68 input   66.30 | X-H torsion
[ 10763 10752 10751 10750 ] final  179.96 input  -60.55 | X-H torsion
[ 11005 11000 10999 10996 ] final  147.53 input  -57.11 | X-H torsion

> <Gold.Protein.ActiveResidues>
 VAL166  LYS551  ARG553  GLY616  TRP617  ASP618  TYR619  PRO620  LYS621  CYS622 
 ASP623  PHE694  ASN695  SER759  ASP760  ASP761  ALA762  ILE779  LEU786  VAL792 
 PHE793  MET794  SER795  GLU796  ALA797  LYS798  CYS799  TRP800  GLU811  SER814 

> <Gold.Protein.RotatedAtoms>
  152.3331  134.7233  160.0283 H   0  0  0  0  0  0  0  0  0  0  0  0  # atno 6907 bound_to 6896
  151.7643  133.3331  159.3434 H   0  0  0  0  0  0  0  0  0  0  0  0  # atno 6908 bound_to 6896
  150.7435  134.6009  159.6080 H   0  0  0  0  0  0  0  0  0  0  0  0  # atno 6909 bound_to 6896
  144.7732  140.4502  143.5892 H   0  0  0  0  0  0  0  0  0  0  0  0  # atno 7974 bound_to 7965
  156.2964  140.2581  156.2860 H   0  0  0  0  0  0  0  0  0  0  0  0  # atno 8008 bound_to 7997
  154.9556  140.0393  157.2184 H   0  0  0  0  0  0  0  0  0  0  0  0  # atno 8009 bound_to 7997
  154.7995  140.2825  155.5936 H   0  0  0  0  0  0  0  0  0  0  0  0  # atno 8010 bound_to 7997
  140.4335  143.2540  151.8726 H   0  0  0  0  0  0  0  0  0  0  0  0  # atno 10167 bound_to 10162
  157.2676  131.0810  151.1622 H   0  0  0  0  0  0  0  0  0  0  0  0  # atno 10718 bound_to 10713
  154.5274  135.2797  155.1210 H   0  0  0  0  0  0  0  0  0  0  0  0  # atno 10763 bound_to 10752
  154.2743  135.6297  153.5326 H   0  0  0  0  0  0  0  0  0  0  0  0  # atno 10764 bound_to 10752
  152.9949  135.5636  154.5779 H   0  0  0  0  0  0  0  0  0  0  0  0  # atno 10765 bound_to 10752
  140.0883  134.9056  157.1611 H   0  0  0  0  0  0  0  0  0  0  0  0  # atno 11005 bound_to 11000
  145.6263  139.1530  143.2994 LP  0  0  0  0  0  0  0  0  0  0  0  0  # atno 17320 bound_to 7965
  146.1893  140.6370  142.9153 LP  0  0  0  0  0  0  0  0  0  0  0  0  # atno 17321 bound_to 7965
  139.4786  144.5309  151.8668 LP  0  0  0  0  0  0  0  0  0  0  0  0  # atno 17342 bound_to 10162
  140.4400  144.1999  150.5891 LP  0  0  0  0  0  0  0  0  0  0  0  0  # atno 17343 bound_to 10162
  157.3107  130.6888  149.6214 LP  0  0  0  0  0  0  0  0  0  0  0  0  # atno 17370 bound_to 10713
  155.9663  130.4364  150.5134 LP  0  0  0  0  0  0  0  0  0  0  0  0  # atno 17371 bound_to 10713
  140.3388  134.2727  155.7215 LP  0  0  0  0  0  0  0  0  0  0  0  0  # atno 17394 bound_to 11000
  141.2070  133.7819  157.0146 LP  0  0  0  0  0  0  0  0  0  0  0  0  # atno 17395 bound_to 11000

$$$$
