AV-unprocessed.smi:1983|AV-procd|sdf|8028|dock4
  -GOLD-   2272010223D 1   1.00000     0.00000
 Structure written by MMmdl.
 49 50  0  0  0  0  0  0  0  0  1 V2000
  145.9272  134.1267  153.6326 C   0  0  0  0  0  0  0  0  0  0  0  0
  145.4619  135.1725  152.6041 C   0  0  2  0  0  0  0  0  0  0  0  0
  145.3046  134.5751  151.1950 C   0  0  0  0  0  0  0  0  0  0  0  0
  144.8656  135.5606  150.2842 O   0  0  0  0  0  0  0  0  0  0  0  0
  146.4091  136.2827  152.5492 N   0  0  0  0  0  0  0  0  0  0  0  0
  146.1510  137.5436  152.9245 C   0  0  0  0  0  0  0  0  0  0  0  0
  145.0677  137.9266  153.3660 O   0  0  0  0  0  0  0  0  0  0  0  0
  147.2219  138.3351  152.7708 N   0  0  0  0  0  0  0  0  0  0  0  0
  147.2709  139.7548  153.1096 C   0  0  0  0  0  0  0  0  0  0  0  0
  148.3527  140.1495  154.1086 C   0  0  0  0  0  0  0  0  0  0  0  0
  149.5545  139.4247  154.2665 C   0  0  0  0  0  0  0  0  0  0  0  0
  150.5009  139.8655  155.2109 C   0  0  0  0  0  0  0  0  0  0  0  0
  150.2271  141.0238  155.9751 C   0  0  0  0  0  0  0  0  0  0  0  0
  151.1631  141.4792  156.9280 N   0  0  0  0  0  0  0  0  0  0  0  0
  150.9762  142.8164  157.4864 C   0  0  0  0  0  0  0  0  0  0  0  0
  152.2300  143.2512  158.2673 C   0  0  1  0  0  0  0  0  0  0  0  0
  152.0356  144.6026  158.9623 C   0  0  0  0  0  0  0  0  0  0  0  0
  152.5206  142.2732  159.2620 O   0  0  0  0  0  0  0  0  0  0  0  0
  152.8065  140.9944  158.7014 C   0  0  1  0  0  0  0  0  0  0  0  0
  153.1897  140.0461  159.8423 C   0  0  0  0  0  0  0  0  0  0  0  0
  151.5756  140.4926  157.9221 C   0  0  0  0  0  0  0  0  0  0  0  0
  149.0778  141.7248  155.8133 N   0  0  0  0  0  0  0  0  0  0  0  0
  148.1723  141.2952  154.9094 C   0  0  0  0  0  0  0  0  0  0  0  0
  145.2219  133.2979  153.6983 H   0  0  0  0  0  0  0  0  0  0  0  0
  146.0105  134.5611  154.6292 H   0  0  0  0  0  0  0  0  0  0  0  0
  146.9009  133.7136  153.3672 H   0  0  0  0  0  0  0  0  0  0  0  0
  144.4917  135.5655  152.9153 H   0  0  0  0  0  0  0  0  0  0  0  0
  146.2608  134.1939  150.8341 H   0  0  0  0  0  0  0  0  0  0  0  0
  144.6048  133.7386  151.1973 H   0  0  0  0  0  0  0  0  0  0  0  0
  144.9742  135.2286  149.4061 H   0  0  0  0  0  0  0  0  0  0  0  0
  147.3338  136.0714  152.2040 H   0  0  0  0  0  0  0  0  0  0  0  0
  148.0675  137.9266  152.4008 H   0  0  0  0  0  0  0  0  0  0  0  0
  147.4426  140.3109  152.1880 H   0  0  0  0  0  0  0  0  0  0  0  0
  146.2997  140.0810  153.4861 H   0  0  0  0  0  0  0  0  0  0  0  0
  149.7639  138.5444  153.6779 H   0  0  0  0  0  0  0  0  0  0  0  0
  151.4270  139.3227  155.3273 H   0  0  0  0  0  0  0  0  0  0  0  0
  150.7797  143.5320  156.6869 H   0  0  0  0  0  0  0  0  0  0  0  0
  150.1056  142.8130  158.1441 H   0  0  0  0  0  0  0  0  0  0  0  0
  153.0789  143.3314  157.5856 H   0  0  0  0  0  0  0  0  0  0  0  0
  151.8264  145.3899  158.2376 H   0  0  0  0  0  0  0  0  0  0  0  0
  152.9311  144.8887  159.5145 H   0  0  0  0  0  0  0  0  0  0  0  0
  151.2058  144.5673  159.6689 H   0  0  0  0  0  0  0  0  0  0  0  0
  153.6577  141.0842  158.0241 H   0  0  0  0  0  0  0  0  0  0  0  0
  153.4301  139.0527  159.4629 H   0  0  0  0  0  0  0  0  0  0  0  0
  152.3749  139.9428  160.5593 H   0  0  0  0  0  0  0  0  0  0  0  0
  154.0621  140.4166  160.3815 H   0  0  0  0  0  0  0  0  0  0  0  0
  150.7435  140.3175  158.6055 H   0  0  0  0  0  0  0  0  0  0  0  0
  151.8122  139.5347  157.4605 H   0  0  0  0  0  0  0  0  0  0  0  0
  147.2733  141.8877  154.8221 H   0  0  0  0  0  0  0  0  0  0  0  0
  1  2  1  0  0  0  0
  1 24  1  0  0  0  0
  1 25  1  0  0  0  0
  1 26  1  0  0  0  0
  2  3  1  0  0  0  0
  2  5  1  0  0  0  0
  2 27  1  0  0  0  0
  3  4  1  0  0  0  0
  3 28  1  0  0  0  0
  3 29  1  0  0  0  0
  4 30  1  0  0  0  0
  5  6  1  0  0  0  0
  5 31  1  0  0  0  0
  6  7  2  0  0  0  0
  6  8  1  0  0  0  0
  8  9  1  0  0  0  0
  8 32  1  0  0  0  0
  9 10  1  0  0  0  0
  9 33  1  0  0  0  0
  9 34  1  0  0  0  0
 10 23  1  0  0  0  0
 10 11  2  0  0  0  0
 11 12  1  0  0  0  0
 11 35  1  0  0  0  0
 12 13  2  0  0  0  0
 12 36  1  0  0  0  0
 13 14  1  0  0  0  0
 13 22  1  0  0  0  0
 14 21  1  0  0  0  0
 14 15  1  0  0  0  0
 15 16  1  0  0  0  0
 15 37  1  0  0  0  0
 15 38  1  0  0  0  0
 16 17  1  0  0  0  0
 16 18  1  0  0  0  0
 16 39  1  0  0  0  0
 17 40  1  0  0  0  0
 17 41  1  0  0  0  0
 17 42  1  0  0  0  0
 18 19  1  0  0  0  0
 19 20  1  0  0  0  0
 19 21  1  0  0  0  0
 19 43  1  0  0  0  0
 20 44  1  0  0  0  0
 20 45  1  0  0  0  0
 20 46  1  0  0  0  0
 21 47  1  0  0  0  0
 21 48  1  0  0  0  0
 22 23  2  0  0  0  0
 23 49  1  0  0  0  0
M  END
> <s_m_source_file>
AV-unprocessed.smi

> <i_m_source_file_index>
1983

> <i_lp_mmshare_version>
43012

> <i_f3d_flags>
0

> <s_epik_input>
W09IXVtDSDJdW0NAQEhdKFtDSDNdKVtOSF1DKD1PKVtOSF1bQ0gyXWMxW2NIXVtjSF1jKG5bY0hdMSlOMltDSDJdW0NAQEhdKFtDSDNdKU9bQ0BASF0oW0NIM10pW0NIMl0y

> <s_epik_cmdline>
J2VwaWtfcHl0aG9uJywgJy1waCcsICc3LjAnLCAnLXRuJywgJzgnLCAnLW1hJywgJzIwMCcsICctbWV0YWxfYmluZGluZycsICctaW1hZScsICc8aW5maWxlLm1hZT4nLCAnLW9tYWUnLCAnPG91dGZpbGUubWFlPic=

> <r_lp_tautomer_probability>
1

> <r_epik_Ionization_Penalty>
0.00801967

> <r_epik_Ionization_Penalty_Charging>
0

> <r_epik_Ionization_Penalty_Neutral>
0.00801967

> <r_epik_State_Penalty>
0.00598289

> <r_epik_Charging_Adjusted_Penalty>
0.00598289

> <i_epik_Tot_Q>
0

> <i_epik_Tot_abs_Q>
0

> <r_epik_Metal_State_Penalty>
0.00590297

> <b_epik_Metal_Only>
0

> <s_lp_Force_Field>
OPLS_2005

> <r_lp_Energy>
13.3716

> <b_lp_Chiralities_Consistent>
1

> <s_lp_Variant>
AV-unprocessed.smi:1983-1

> <Gold.Version>
5.8.1

> <Gold.Id.Protein>
6NUR|6NUR_protein|mol2

> <Gold.PLP.Fitness>
47.2893

> <Gold.PLP.PLP>
-39.5013

> <Gold.PLP.part.hbond>
-4.3281

> <Gold.PLP.part.metal>
0.0000

> <Gold.PLP.part.buried>
-3.6126

> <Gold.PLP.part.nonpolar>
-33.9306

> <Gold.PLP.part.repulsive>
2.5384

> <Gold.PLP.ligand.clash>
0.0000

> <Gold.PLP.ligand.torsion>
0.5614

> <Gold.PLP.Chemscore.Hbond>
2.8480

> <Gold.PLP.Chemscore.CHOScore>
0.0000

> <Gold.PLP.Chemscore.Metal>
0.0000

> <Gold.Chemscore.Hbonds>
donor molecule, donor type, donor heavy atom, donor atom, acceptor molecule, acceptor atom, score
      L1  H     4    30       P1  7921  0.70
      L1  H     5    31       P1  7948  1.00
      L1  H     8    32       P1  7948  0.93

> <Gold.PLP.Chemscore.Internal.Correction>
0.3667

> <Gold.Rescore>
     Score         DG    S(hbond)    S(metal)    S(lipo)     H(rot)  DE(clash)    DE(int)     intcor
     18.56     -19.52       2.92        0.00      93.72       2.61       0.24       0.72       ----

> <Gold.Chemscore.Fitness>
18.5596

> <Gold.Chemscore.DG>
-19.5191

> <Gold.Chemscore.ZeroCoef>
-5.4800

> <Gold.Chemscore.Hbond>
2.9206

> <Gold.Chemscore.Metal>
0.0000

> <Gold.Chemscore.Lipo>
93.7201

> <Gold.Chemscore.Internal_Hbond>
0.0000

> <Gold.Chemscore.DEClash>
0.2399

> <Gold.Chemscore.DEInternal>
0.7196

> <Gold.Chemscore.Rot>
2.6097

> <Gold.Chemscore.Internal.Correction>
   9.000000E+99

> <Gold.Chemscore.Hbonds>
donor molecule, donor type, donor heavy atom, donor atom, acceptor molecule, acceptor atom, score
      L1  H     4    30       P1  7921  0.67
      L1  H     5    31       P1  7948  0.99
      L1  H     8    32       P1  7948  0.88

> <Gold.Chemscore.Hbond.Weighted>
-9.7547

> <Gold.Chemscore.Metal.Weighted>
-0.0000

> <Gold.Chemscore.Lipo.Weighted>
-10.9653

> <Gold.Chemscore.Internal_Hbond.Weighted>
0.0000

> <Gold.Chemscore.DEClash.Weighted>
0.2399

> <Gold.Chemscore.DEInternal.Weighted>
0.7196

> <Gold.Chemscore.Rot.Weighted>
6.6809

> <Gold.Chemscore.Internal.Correction.Weighted>
   9.000000E+99

> <Gold.Protein.RotatedTorsions>
[ 6907 6896 6895 6894 ] final    0.61 input  -60.11 | X-H torsion
[ 7974 7965 7964 7962 ] final -108.09 input  175.53 | X-H torsion
[ 8008 7997 7996 7995 ] final -151.01 input   59.86 | X-H torsion
[ 10167 10162 10161 10158 ] final   52.47 input  -65.29 | X-H torsion
[ 10718 10713 10712 10709 ] final  -93.47 input   66.30 | X-H torsion
[ 10763 10752 10751 10750 ] final  132.39 input  -60.55 | X-H torsion
[ 11005 11000 10999 10996 ] final   93.18 input  -57.11 | X-H torsion

> <Gold.Protein.ActiveResidues>
 VAL166  LYS551  ARG553  GLY616  TRP617  ASP618  TYR619  PRO620  LYS621  CYS622 
 ASP623  PHE694  ASN695  SER759  ASP760  ASP761  ALA762  ILE779  LEU786  VAL792 
 PHE793  MET794  SER795  GLU796  ALA797  LYS798  CYS799  TRP800  GLU811  SER814 

> <Gold.Protein.RotatedAtoms>
  151.5792  135.1059  160.0012 H   0  0  0  0  0  0  0  0  0  0  0  0  # atno 6907 bound_to 6896
  152.4362  133.7362  159.6626 H   0  0  0  0  0  0  0  0  0  0  0  0  # atno 6908 bound_to 6896
  150.8261  133.8100  159.3141 H   0  0  0  0  0  0  0  0  0  0  0  0  # atno 6909 bound_to 6896
  145.1972  140.9041  143.3390 H   0  0  0  0  0  0  0  0  0  0  0  0  # atno 7974 bound_to 7965
  155.6326  140.0693  157.2644 H   0  0  0  0  0  0  0  0  0  0  0  0  # atno 8008 bound_to 7997
  154.4202  140.1765  156.1537 H   0  0  0  0  0  0  0  0  0  0  0  0  # atno 8009 bound_to 7997
  155.9921  140.3344  155.6766 H   0  0  0  0  0  0  0  0  0  0  0  0  # atno 8010 bound_to 7997
  140.2510  144.3478  150.6348 H   0  0  0  0  0  0  0  0  0  0  0  0  # atno 10167 bound_to 10162
  156.0014  130.5028  150.5781 H   0  0  0  0  0  0  0  0  0  0  0  0  # atno 10718 bound_to 10713
  153.7900  135.3156  155.3377 H   0  0  0  0  0  0  0  0  0  0  0  0  # atno 10763 bound_to 10752
  154.8129  135.4655  154.0568 H   0  0  0  0  0  0  0  0  0  0  0  0  # atno 10764 bound_to 10752
  153.1883  135.6904  153.8472 H   0  0  0  0  0  0  0  0  0  0  0  0  # atno 10765 bound_to 10752
  139.8813  134.8775  156.3681 H   0  0  0  0  0  0  0  0  0  0  0  0  # atno 11005 bound_to 11000
  144.9983  139.3623  143.6180 LP  0  0  0  0  0  0  0  0  0  0  0  0  # atno 17320 bound_to 7965
  146.3425  139.9195  142.8768 LP  0  0  0  0  0  0  0  0  0  0  0  0  # atno 17321 bound_to 7965
  140.6040  143.2167  151.7017 LP  0  0  0  0  0  0  0  0  0  0  0  0  # atno 17342 bound_to 10162
  139.5046  144.3748  152.0435 LP  0  0  0  0  0  0  0  0  0  0  0  0  # atno 17343 bound_to 10162
  157.3665  131.0758  151.1593 LP  0  0  0  0  0  0  0  0  0  0  0  0  # atno 17370 bound_to 10713
  157.2360  130.6547  149.5870 LP  0  0  0  0  0  0  0  0  0  0  0  0  # atno 17371 bound_to 10713
  140.9483  133.7468  156.0238 LP  0  0  0  0  0  0  0  0  0  0  0  0  # atno 17394 bound_to 11000
  140.8136  134.3370  157.5404 LP  0  0  0  0  0  0  0  0  0  0  0  0  # atno 17395 bound_to 11000

$$$$
