AV-unprocessed.smi:836|AV-procd|sdf|3891|dock5
  -GOLD-   22720 1343D 1   1.00000     0.00000
 Structure written by MMmdl.
 38 39  0  0  0  0  0  0  0  0  1 V2000
  150.5090  141.7763  157.6072 C   0  0  0  0  0  0  0  0  0  0  0  0
  150.6287  141.1857  156.1952 C   0  0  2  0  0  0  0  0  0  0  0  0
  149.2483  140.8132  155.6213 C   0  0  0  0  0  0  0  0  0  0  0  0
  149.3632  140.2186  154.2062 C   0  0  0  0  0  0  0  0  0  0  0  0
  150.3185  139.0083  154.1579 C   0  0  2  0  0  0  0  0  0  0  0  0
  149.7507  137.8589  154.8577 N   0  0  0  0  0  0  0  0  0  0  0  0
  150.3491  136.6704  155.0349 C   0  0  0  0  0  0  0  0  0  0  0  0
  151.4679  136.4014  154.5982 O   0  0  0  0  0  0  0  0  0  0  0  0
  149.5603  135.6174  155.8175 C   0  0  0  0  0  0  0  0  0  0  0  0
  149.6691  134.3037  155.2053 N   0  0  0  0  0  0  0  0  0  0  0  0
  149.2208  133.8949  153.9678 C   0  0  0  0  0  0  0  0  0  0  0  0
  149.5670  132.5820  153.8248 C   0  0  0  0  0  0  0  0  0  0  0  0
  150.2351  132.2643  155.0430 C   0  0  0  0  0  0  0  0  0  0  0  0
  150.8455  130.9522  155.4605 C   0  0  0  0  0  0  0  0  0  0  0  0
  150.7407  130.0591  154.4765 F   0  0  0  0  0  0  0  0  0  0  0  0
  152.1356  131.1225  155.7498 F   0  0  0  0  0  0  0  0  0  0  0  0
  150.2166  130.4810  156.5370 F   0  0  0  0  0  0  0  0  0  0  0  0
  150.2889  133.3023  155.8667 N   0  0  0  0  0  0  0  0  0  0  0  0
  151.6905  139.3678  154.7594 C   0  0  0  0  0  0  0  0  0  0  0  0
  151.5687  139.9651  156.1729 C   0  0  0  0  0  0  0  0  0  0  0  0
  150.0804  141.0550  158.3036 H   0  0  0  0  0  0  0  0  0  0  0  0
  149.8725  142.6615  157.6101 H   0  0  0  0  0  0  0  0  0  0  0  0
  151.4850  142.0725  157.9929 H   0  0  0  0  0  0  0  0  0  0  0  0
  151.0622  141.9546  155.5540 H   0  0  0  0  0  0  0  0  0  0  0  0
  148.7540  140.0982  156.2807 H   0  0  0  0  0  0  0  0  0  0  0  0
  148.6074  141.6949  155.5924 H   0  0  0  0  0  0  0  0  0  0  0  0
  148.3757  139.9396  153.8368 H   0  0  0  0  0  0  0  0  0  0  0  0
  149.7316  140.9889  153.5275 H   0  0  0  0  0  0  0  0  0  0  0  0
  150.4757  138.7302  153.1142 H   0  0  0  0  0  0  0  0  0  0  0  0
  148.8282  137.9802  155.2509 H   0  0  0  0  0  0  0  0  0  0  0  0
  149.9249  135.5754  156.8450 H   0  0  0  0  0  0  0  0  0  0  0  0
  148.5062  135.8946  155.8608 H   0  0  0  0  0  0  0  0  0  0  0  0
  148.7032  134.5665  153.2985 H   0  0  0  0  0  0  0  0  0  0  0  0
  149.3743  131.9437  152.9753 H   0  0  0  0  0  0  0  0  0  0  0  0
  152.3354  138.4884  154.7802 H   0  0  0  0  0  0  0  0  0  0  0  0
  152.1863  140.0904  154.1100 H   0  0  0  0  0  0  0  0  0  0  0  0
  152.5579  140.2509  156.5323 H   0  0  0  0  0  0  0  0  0  0  0  0
  151.2021  139.2037  156.8628 H   0  0  0  0  0  0  0  0  0  0  0  0
  1  2  1  0  0  0  0
  1 21  1  0  0  0  0
  1 22  1  0  0  0  0
  1 23  1  0  0  0  0
  2 20  1  0  0  0  0
  2  3  1  0  0  0  0
  2 24  1  0  0  0  0
  3  4  1  0  0  0  0
  3 25  1  0  0  0  0
  3 26  1  0  0  0  0
  4  5  1  0  0  0  0
  4 27  1  0  0  0  0
  4 28  1  0  0  0  0
  5  6  1  0  0  0  0
  5 19  1  0  0  0  0
  5 29  1  0  0  0  0
  6  7  1  0  0  0  0
  6 30  1  0  0  0  0
  7  8  2  0  0  0  0
  7  9  1  0  0  0  0
  9 10  1  0  0  0  0
  9 31  1  0  0  0  0
  9 32  1  0  0  0  0
 10 18  1  0  0  0  0
 10 11  1  0  0  0  0
 11 12  2  0  0  0  0
 11 33  1  0  0  0  0
 12 13  1  0  0  0  0
 12 34  1  0  0  0  0
 13 14  1  0  0  0  0
 13 18  2  0  0  0  0
 14 15  1  0  0  0  0
 14 16  1  0  0  0  0
 14 17  1  0  0  0  0
 19 20  1  0  0  0  0
 19 35  1  0  0  0  0
 19 36  1  0  0  0  0
 20 37  1  0  0  0  0
 20 38  1  0  0  0  0
M  END
> <s_m_source_file>
AV-unprocessed.smi

> <i_m_source_file_index>
836

> <i_lp_mmshare_version>
43012

> <i_f3d_flags>
0

> <s_epik_input>
W0NIM11bQ0BASF0xW0NIMl1bQ0gyXVtDQEhdKFtDSDJdW0NIMl0xKVtOSF1DKD1PKVtDSDJdbjJbY0hdW2NIXWMobjIpQyhGKShGKUY=

> <s_epik_cmdline>
J2VwaWtfcHl0aG9uJywgJy1waCcsICc3LjAnLCAnLXRuJywgJzgnLCAnLW1hJywgJzIwMCcsICctbWV0YWxfYmluZGluZycsICctaW1hZScsICc8aW5maWxlLm1hZT4nLCAnLW9tYWUnLCAnPG91dGZpbGUubWFlPic=

> <r_lp_tautomer_probability>
1

> <r_epik_Ionization_Penalty>
8.28749e-08

> <r_epik_Ionization_Penalty_Charging>
0

> <r_epik_Ionization_Penalty_Neutral>
8.28749e-08

> <r_epik_State_Penalty>
-0

> <r_epik_Charging_Adjusted_Penalty>
0

> <i_epik_Tot_Q>
0

> <i_epik_Tot_abs_Q>
0

> <r_epik_Metal_State_Penalty>
-0

> <b_epik_Metal_Only>
0

> <s_lp_Force_Field>
OPLS_2005

> <r_lp_Energy>
10.0253

> <b_lp_Chiralities_Consistent>
1

> <s_lp_Variant>
AV-unprocessed.smi:836-2

> <Gold.Version>
5.8.1

> <Gold.Id.Protein>
6NUR|6NUR_protein|mol2

> <Gold.PLP.Fitness>
42.5144

> <Gold.PLP.PLP>
-37.1047

> <Gold.PLP.part.hbond>
-1.0000

> <Gold.PLP.part.metal>
0.0000

> <Gold.PLP.part.buried>
-1.7653

> <Gold.PLP.part.nonpolar>
-33.4805

> <Gold.PLP.part.repulsive>
0.3102

> <Gold.PLP.ligand.clash>
0.0000

> <Gold.PLP.ligand.torsion>
0.3058

> <Gold.PLP.Chemscore.Hbond>
1.0000

> <Gold.PLP.Chemscore.CHOScore>
1.0000

> <Gold.PLP.Chemscore.Metal>
0.0000

> <Gold.Chemscore.Hbonds>
donor molecule, donor type, donor heavy atom, donor atom, acceptor molecule, acceptor atom, score
      P1  H 10752 10765       L1     8  1.00
      L1  C    11    33       P1  7948  1.00

> <Gold.PLP.Chemscore.Internal.Correction>
0.0212

> <Gold.Rescore>
     Score         DG    S(hbond)    S(metal)    S(lipo)     H(rot)  DE(clash)    DE(int)     intcor
     13.00     -13.50       1.00        0.00      73.86       1.54       0.15       0.35       ----

> <Gold.Chemscore.Fitness>
12.9971

> <Gold.Chemscore.DG>
-13.5021

> <Gold.Chemscore.ZeroCoef>
-5.4800

> <Gold.Chemscore.Hbond>
0.9966

> <Gold.Chemscore.Metal>
0.0000

> <Gold.Chemscore.Lipo>
73.8594

> <Gold.Chemscore.Internal_Hbond>
0.0000

> <Gold.Chemscore.DEClash>
0.1530

> <Gold.Chemscore.DEInternal>
0.3521

> <Gold.Chemscore.Rot>
1.5422

> <Gold.Chemscore.Internal.Correction>
   9.000000E+99

> <Gold.Chemscore.Hbonds>
donor molecule, donor type, donor heavy atom, donor atom, acceptor molecule, acceptor atom, score
      P1  H 10752 10765       L1     8  1.00

> <Gold.Chemscore.Hbond.Weighted>
-3.3286

> <Gold.Chemscore.Metal.Weighted>
-0.0000

> <Gold.Chemscore.Lipo.Weighted>
-8.6415

> <Gold.Chemscore.Internal_Hbond.Weighted>
0.0000

> <Gold.Chemscore.DEClash.Weighted>
0.1530

> <Gold.Chemscore.DEInternal.Weighted>
0.3521

> <Gold.Chemscore.Rot.Weighted>
3.9479

> <Gold.Chemscore.Internal.Correction.Weighted>
   9.000000E+99

> <Gold.Protein.RotatedTorsions>
[ 6907 6896 6895 6894 ] final   65.18 input  -60.11 | X-H torsion
[ 7974 7965 7964 7962 ] final  -42.92 input  175.53 | X-H torsion
[ 8008 7997 7996 7995 ] final  103.90 input   59.86 | X-H torsion
[ 10167 10162 10161 10158 ] final   25.31 input  -65.29 | X-H torsion
[ 10718 10713 10712 10709 ] final  174.78 input   66.30 | X-H torsion
[ 10763 10752 10751 10750 ] final  176.04 input  -60.55 | X-H torsion
[ 11005 11000 10999 10996 ] final -166.53 input  -57.11 | X-H torsion

> <Gold.Protein.ActiveResidues>
 VAL166  LYS551  ARG553  GLY616  TRP617  ASP618  TYR619  PRO620  LYS621  CYS622 
 ASP623  PHE694  ASN695  SER759  ASP760  ASP761  ALA762  ILE779  LEU786  VAL792 
 PHE793  MET794  SER795  GLU796  ALA797  LYS798  CYS799  TRP800  GLU811  SER814 

> <Gold.Protein.RotatedAtoms>
  152.4388  134.5633  159.9900 H   0  0  0  0  0  0  0  0  0  0  0  0  # atno 6907 bound_to 6896
  151.5736  133.3381  159.3002 H   0  0  0  0  0  0  0  0  0  0  0  0  # atno 6908 bound_to 6896
  150.8291  134.7569  159.6902 H   0  0  0  0  0  0  0  0  0  0  0  0  # atno 6909 bound_to 6896
  146.0070  140.7009  142.9243 H   0  0  0  0  0  0  0  0  0  0  0  0  # atno 7974 bound_to 7965
  156.1525  140.3157  155.8672 H   0  0  0  0  0  0  0  0  0  0  0  0  # atno 8008 bound_to 7997
  155.3942  140.0495  157.3056 H   0  0  0  0  0  0  0  0  0  0  0  0  # atno 8009 bound_to 7997
  154.5072  140.2151  155.9240 H   0  0  0  0  0  0  0  0  0  0  0  0  # atno 8010 bound_to 7997
  140.5117  144.0150  150.6375 H   0  0  0  0  0  0  0  0  0  0  0  0  # atno 10167 bound_to 10162
  156.9446  131.0012  151.2961 H   0  0  0  0  0  0  0  0  0  0  0  0  # atno 10718 bound_to 10713
  154.4757  135.2773  155.1609 H   0  0  0  0  0  0  0  0  0  0  0  0  # atno 10763 bound_to 10752
  154.3339  135.6184  153.5568 H   0  0  0  0  0  0  0  0  0  0  0  0  # atno 10764 bound_to 10752
  152.9869  135.5772  154.5147 H   0  0  0  0  0  0  0  0  0  0  0  0  # atno 10765 bound_to 10752
  140.5634  134.5310  157.5148 H   0  0  0  0  0  0  0  0  0  0  0  0  # atno 11005 bound_to 11000
  144.6939  140.3331  143.7212 LP  0  0  0  0  0  0  0  0  0  0  0  0  # atno 17320 bound_to 7965
  145.7401  139.1761  143.2381 LP  0  0  0  0  0  0  0  0  0  0  0  0  # atno 17321 bound_to 7965
  140.3474  143.2983  152.0524 LP  0  0  0  0  0  0  0  0  0  0  0  0  # atno 17342 bound_to 10162
  139.4898  144.6399  151.6899 LP  0  0  0  0  0  0  0  0  0  0  0  0  # atno 17343 bound_to 10162
  157.5762  130.8345  149.8459 LP  0  0  0  0  0  0  0  0  0  0  0  0  # atno 17370 bound_to 10713
  156.0389  130.3744  150.1486 LP  0  0  0  0  0  0  0  0  0  0  0  0  # atno 17371 bound_to 10713
  139.9396  134.7811  156.0712 LP  0  0  0  0  0  0  0  0  0  0  0  0  # atno 17394 bound_to 11000
  141.1100  133.6646  156.2956 LP  0  0  0  0  0  0  0  0  0  0  0  0  # atno 17395 bound_to 11000

$$$$
