AV-unprocessed.smi:256|AV-procd|sdf|1959|dock4
  -GOLD-   2262021103D 1   1.00000     0.00000
 Structure written by MMmdl.
 62 65  0  0  0  0  0  0  0  0  2 V2000
  146.8540  137.5684  155.0579 C   0  0  0  0  0  0  0  0  0  0  0  0
  147.5303  136.3103  154.4952 C   0  0  0  0  0  0  0  0  0  0  0  0
  147.8076  135.2115  155.5559 C   0  0  2  0  0  0  0  0  0  0  0  0
  148.6896  135.7006  156.7298 C   0  0  0  0  0  0  0  0  0  0  0  0
  150.0835  135.8604  156.3161 N   0  0  0  0  0  0  0  0  0  0  0  0
  150.5129  137.1006  155.9506 C   0  0  0  0  0  0  0  0  0  0  0  0
  151.3166  137.1809  154.8577 N   0  0  0  0  0  0  0  0  0  0  0  0
  151.7857  138.3578  154.4371 C   0  0  0  0  0  0  0  0  0  0  0  0
  151.5798  139.5677  154.9548 N   0  0  0  0  0  0  0  0  0  0  0  0
  150.7754  139.5045  156.0529 C   0  0  0  0  0  0  0  0  0  0  0  0
  150.1975  138.3275  156.6138 C   0  0  0  0  0  0  0  0  0  0  0  0
  149.4449  138.6760  157.7316 N   0  0  0  0  0  0  0  0  0  0  0  0
  149.5604  139.9720  157.8170 C   0  0  0  0  0  0  0  0  0  0  0  0
  150.3544  140.5504  156.8551 N   0  0  0  0  0  0  0  0  0  0  0  0
  150.6675  141.9646  156.7151 C   0  0  0  0  0  0  0  0  0  0  0  0
  150.8997  142.6958  158.0609 C   0  0  0  0  0  0  0  0  0  0  0  0
  149.6410  142.8643  158.6900 O   0  0  0  0  0  0  0  0  0  0  0  0
  151.7936  141.8441  158.9844 C   0  0  0  0  0  0  0  0  0  0  0  0
  152.1959  142.6009  160.2624 C   0  0  0  0  0  0  0  0  0  0  0  0
  152.8300  143.8271  159.9201 O   0  0  0  0  0  0  0  0  0  0  0  0
  151.9685  144.7136  159.2165 C   0  0  0  0  0  0  0  0  0  0  0  0
  151.5421  144.0881  157.8763 C   0  0  0  0  0  0  0  0  0  0  0  0
  150.6735  134.6528  155.7515 C   0  0  0  0  0  0  0  0  0  0  0  0
  149.8263  134.1210  154.5809 C   0  0  0  0  0  0  0  0  0  0  0  0
  148.4007  133.9638  154.9751 N   0  3  2  0  0  0  0  0  0  0  0  0
  147.6011  133.2742  153.9259 C   0  0  0  0  0  0  0  0  0  0  0  0
  148.2754  132.0027  153.3735 C   0  0  0  0  0  0  0  0  0  0  0  0
  148.6622  131.1084  154.4091 O   0  0  0  0  0  0  0  0  0  0  0  0
  149.7892  130.3040  154.0977 C   0  0  0  0  0  0  0  0  0  0  0  0
  146.5960  138.2573  154.2533 H   0  0  0  0  0  0  0  0  0  0  0  0
  147.5055  138.1078  155.7449 H   0  0  0  0  0  0  0  0  0  0  0  0
  145.9342  137.3199  155.5879 H   0  0  0  0  0  0  0  0  0  0  0  0
  146.8708  135.9202  153.7216 H   0  0  0  0  0  0  0  0  0  0  0  0
  148.4502  136.5984  153.9870 H   0  0  0  0  0  0  0  0  0  0  0  0
  146.8496  134.9430  155.9999 H   0  0  0  0  0  0  0  0  0  0  0  0
  148.2743  136.5990  157.1838 H   0  0  0  0  0  0  0  0  0  0  0  0
  148.6718  134.9508  157.5217 H   0  0  0  0  0  0  0  0  0  0  0  0
  152.4176  138.3252  153.5617 H   0  0  0  0  0  0  0  0  0  0  0  0
  149.0763  140.5441  158.5952 H   0  0  0  0  0  0  0  0  0  0  0  0
  151.5479  142.0581  156.0776 H   0  0  0  0  0  0  0  0  0  0  0  0
  149.8494  142.4370  156.1699 H   0  0  0  0  0  0  0  0  0  0  0  0
  149.0664  143.3222  158.0958 H   0  0  0  0  0  0  0  0  0  0  0  0
  151.2945  140.9096  159.2446 H   0  0  0  0  0  0  0  0  0  0  0  0
  152.7025  141.5648  158.4497 H   0  0  0  0  0  0  0  0  0  0  0  0
  151.3296  142.7899  160.8981 H   0  0  0  0  0  0  0  0  0  0  0  0
  152.8899  141.9985  160.8485 H   0  0  0  0  0  0  0  0  0  0  0  0
  151.1001  144.9588  159.8296 H   0  0  0  0  0  0  0  0  0  0  0  0
  152.5003  145.6481  159.0369 H   0  0  0  0  0  0  0  0  0  0  0  0
  152.4241  143.9945  157.2417 H   0  0  0  0  0  0  0  0  0  0  0  0
  150.8626  144.7662  157.3592 H   0  0  0  0  0  0  0  0  0  0  0  0
  151.7124  134.8035  155.4613 H   0  0  0  0  0  0  0  0  0  0  0  0
  150.7007  133.9012  156.5412 H   0  0  0  0  0  0  0  0  0  0  0  0
  149.8923  134.7860  153.7200 H   0  0  0  0  0  0  0  0  0  0  0  0
  150.2290  133.1593  154.2610 H   0  0  0  0  0  0  0  0  0  0  0  0
  146.6061  133.0379  154.3027 H   0  0  0  0  0  0  0  0  0  0  0  0
  147.4356  133.9699  153.1034 H   0  0  0  0  0  0  0  0  0  0  0  0
  147.5949  131.4766  152.7043 H   0  0  0  0  0  0  0  0  0  0  0  0
  149.1389  132.2671  152.7616 H   0  0  0  0  0  0  0  0  0  0  0  0
  149.9754  129.6098  154.9171 H   0  0  0  0  0  0  0  0  0  0  0  0
  150.6903  130.9020  153.9632 H   0  0  0  0  0  0  0  0  0  0  0  0
  149.6194  129.7157  153.1950 H   0  0  0  0  0  0  0  0  0  0  0  0
  148.4218  133.3133  155.7476 H   0  0  0  0  0  0  0  0  0  0  0  0
  1  2  1  0  0  0  0
  1 30  1  0  0  0  0
  1 31  1  0  0  0  0
  1 32  1  0  0  0  0
  2  3  1  0  0  0  0
  2 33  1  0  0  0  0
  2 34  1  0  0  0  0
  3 25  1  0  0  0  0
  3  4  1  0  0  0  0
  3 35  1  0  0  0  0
  4  5  1  0  0  0  0
  4 36  1  0  0  0  0
  4 37  1  0  0  0  0
  5  6  1  0  0  0  0
  5 23  1  0  0  0  0
  6 11  1  0  0  0  0
  6  7  2  0  0  0  0
  7  8  1  0  0  0  0
  8  9  2  0  0  0  0
  8 38  1  0  0  0  0
  9 10  1  0  0  0  0
 10 14  1  0  0  0  0
 10 11  2  0  0  0  0
 11 12  1  0  0  0  0
 12 13  2  0  0  0  0
 13 14  1  0  0  0  0
 13 39  1  0  0  0  0
 14 15  1  0  0  0  0
 15 16  1  0  0  0  0
 15 40  1  0  0  0  0
 15 41  1  0  0  0  0
 16 22  1  0  0  0  0
 16 17  1  0  0  0  0
 16 18  1  0  0  0  0
 17 42  1  0  0  0  0
 18 19  1  0  0  0  0
 18 43  1  0  0  0  0
 18 44  1  0  0  0  0
 19 20  1  0  0  0  0
 19 45  1  0  0  0  0
 19 46  1  0  0  0  0
 20 21  1  0  0  0  0
 21 22  1  0  0  0  0
 21 47  1  0  0  0  0
 21 48  1  0  0  0  0
 22 49  1  0  0  0  0
 22 50  1  0  0  0  0
 23 24  1  0  0  0  0
 23 51  1  0  0  0  0
 23 52  1  0  0  0  0
 24 25  1  0  0  0  0
 24 53  1  0  0  0  0
 24 54  1  0  0  0  0
 25 26  1  0  0  0  0
 25 62  1  0  0  0  0
 26 27  1  0  0  0  0
 26 55  1  0  0  0  0
 26 56  1  0  0  0  0
 27 28  1  0  0  0  0
 27 57  1  0  0  0  0
 27 58  1  0  0  0  0
 28 29  1  0  0  0  0
 29 59  1  0  0  0  0
 29 60  1  0  0  0  0
 29 61  1  0  0  0  0
M  CHG  1  25   1
M  END
> <s_m_source_file>
AV-unprocessed.smi

> <i_m_source_file_index>
256

> <i_lp_mmshare_version>
43012

> <i_f3d_flags>
0

> <s_epik_input>
W0NIM11PW0NIMl1bQ0gyXU4xW0NIMl1bQ0gyXU4oW0NIMl1bQ0BIXTFbQ0gyXVtDSDNdKWMobltjSF1uMiljKGMyMyluW2NIXW4zW0NIMl1DNChbT0hdKVtDSDJdW0NIMl1PW0NIMl1bQ0gyXTQ=

> <s_epik_cmdline>
J2VwaWtfcHl0aG9uJywgJy1waCcsICc3LjAnLCAnLXRuJywgJzgnLCAnLW1hJywgJzIwMCcsICctbWV0YWxfYmluZGluZycsICctaW1hZScsICc8aW5maWxlLm1hZT4nLCAnLW9tYWUnLCAnPG91dGZpbGUubWFlPic=

> <r_lp_tautomer_probability>
1

> <r_epik_Ionization_Penalty>
0.233023

> <r_epik_Ionization_Penalty_Charging>
0.23295

> <r_epik_Ionization_Penalty_Neutral>
7.2493e-05

> <r_epik_State_Penalty>
0.223667

> <r_epik_Charging_Adjusted_Penalty>
0.456618

> <i_epik_Tot_Q>
1

> <i_epik_Tot_abs_Q>
1

> <r_epik_Metal_State_Penalty>
0.226879

> <b_epik_Metal_Only>
0

> <s_lp_Force_Field>
OPLS_2005

> <r_lp_Energy>
46.9359

> <b_lp_Chiralities_Consistent>
1

> <s_lp_Variant>
AV-unprocessed.smi:256-3

> <Gold.Version>
5.8.1

> <Gold.Id.Protein>
6NUR|6NUR_protein|mol2

> <Gold.PLP.Fitness>
44.3328

> <Gold.PLP.PLP>
-42.9412

> <Gold.PLP.part.hbond>
-1.5598

> <Gold.PLP.part.metal>
0.0000

> <Gold.PLP.part.buried>
-6.8180

> <Gold.PLP.part.nonpolar>
-34.8012

> <Gold.PLP.part.repulsive>
0.2224

> <Gold.PLP.ligand.clash>
0.0000

> <Gold.PLP.ligand.torsion>
1.0642

> <Gold.PLP.Chemscore.Hbond>
1.0000

> <Gold.PLP.Chemscore.CHOScore>
0.0000

> <Gold.PLP.Chemscore.Metal>
0.0000

> <Gold.Chemscore.Hbonds>
donor molecule, donor type, donor heavy atom, donor atom, acceptor molecule, acceptor atom, score
      P1  H  7989  7998       L1     9  1.00

> <Gold.PLP.Chemscore.Internal.Correction>
0.5199

> <Gold.Rescore>
     Score         DG    S(hbond)    S(metal)    S(lipo)     H(rot)  DE(clash)    DE(int)     intcor
     10.69     -12.76       0.95        0.00      93.03       2.65       0.01       2.06       ----

> <Gold.Chemscore.Fitness>
10.6899

> <Gold.Chemscore.DG>
-12.7616

> <Gold.Chemscore.ZeroCoef>
-5.4800

> <Gold.Chemscore.Hbond>
0.9495

> <Gold.Chemscore.Metal>
0.0000

> <Gold.Chemscore.Lipo>
93.0291

> <Gold.Chemscore.Internal_Hbond>
0.0000

> <Gold.Chemscore.DEClash>
0.0126

> <Gold.Chemscore.DEInternal>
2.0591

> <Gold.Chemscore.Rot>
2.6462

> <Gold.Chemscore.Internal.Correction>
   9.000000E+99

> <Gold.Chemscore.Hbonds>
donor molecule, donor type, donor heavy atom, donor atom, acceptor molecule, acceptor atom, score
      P1  H  7989  7998       L1     9  0.64

> <Gold.Chemscore.Hbond.Weighted>
-3.1714

> <Gold.Chemscore.Metal.Weighted>
-0.0000

> <Gold.Chemscore.Lipo.Weighted>
-10.8844

> <Gold.Chemscore.Internal_Hbond.Weighted>
0.0000

> <Gold.Chemscore.DEClash.Weighted>
0.0126

> <Gold.Chemscore.DEInternal.Weighted>
2.0591

> <Gold.Chemscore.Rot.Weighted>
6.7742

> <Gold.Chemscore.Internal.Correction.Weighted>
   9.000000E+99

> <Gold.Protein.RotatedTorsions>
[ 6907 6896 6895 6894 ] final  -27.70 input  -60.11 | X-H torsion
[ 7974 7965 7964 7962 ] final  -22.32 input  175.53 | X-H torsion
[ 8008 7997 7996 7995 ] final   45.46 input   59.86 | X-H torsion
[ 10167 10162 10161 10158 ] final   93.40 input  -65.29 | X-H torsion
[ 10718 10713 10712 10709 ] final -121.34 input   66.30 | X-H torsion
[ 10763 10752 10751 10750 ] final  103.46 input  -60.55 | X-H torsion
[ 11005 11000 10999 10996 ] final  -58.24 input  -57.11 | X-H torsion

> <Gold.Protein.ActiveResidues>
 VAL166  LYS551  ARG553  GLY616  TRP617  ASP618  TYR619  PRO620  LYS621  CYS622 
 ASP623  PHE694  ASN695  SER759  ASP760  ASP761  ALA762  ILE779  LEU786  VAL792 
 PHE793  MET794  SER795  GLU796  ALA797  LYS798  CYS799  TRP800  GLU811  SER814 

> <Gold.Protein.RotatedAtoms>
  151.1432  135.0190  159.8634 H   0  0  0  0  0  0  0  0  0  0  0  0  # atno 6907 bound_to 6896
  152.5452  134.1475  159.8514 H   0  0  0  0  0  0  0  0  0  0  0  0  # atno 6908 bound_to 6896
  151.1552  133.4835  159.2627 H   0  0  0  0  0  0  0  0  0  0  0  0  # atno 6909 bound_to 6896
  146.1682  140.4462  142.8543 H   0  0  0  0  0  0  0  0  0  0  0  0  # atno 7974 bound_to 7965
  155.3363  140.3405  155.4239 H   0  0  0  0  0  0  0  0  0  0  0  0  # atno 8008 bound_to 7997
  156.1836  140.1672  156.8264 H   0  0  0  0  0  0  0  0  0  0  0  0  # atno 8009 bound_to 7997
  154.5361  140.0735  156.8413 H   0  0  0  0  0  0  0  0  0  0  0  0  # atno 8010 bound_to 7997
  139.8183  144.6743  150.9551 H   0  0  0  0  0  0  0  0  0  0  0  0  # atno 10167 bound_to 10162
  156.1330  130.6409  150.9651 H   0  0  0  0  0  0  0  0  0  0  0  0  # atno 10718 bound_to 10713
  153.3530  135.3976  155.1661 H   0  0  0  0  0  0  0  0  0  0  0  0  # atno 10763 bound_to 10752
  154.8666  135.3661  154.5197 H   0  0  0  0  0  0  0  0  0  0  0  0  # atno 10764 bound_to 10752
  153.5650  135.7080  153.5590 H   0  0  0  0  0  0  0  0  0  0  0  0  # atno 10765 bound_to 10752
  141.1199  133.6612  156.4890 H   0  0  0  0  0  0  0  0  0  0  0  0  # atno 11005 bound_to 11000
  144.8124  140.6409  143.6406 LP  0  0  0  0  0  0  0  0  0  0  0  0  # atno 17320 bound_to 7965
  145.4410  139.1536  143.3970 LP  0  0  0  0  0  0  0  0  0  0  0  0  # atno 17321 bound_to 7965
  140.7814  143.4117  151.0983 LP  0  0  0  0  0  0  0  0  0  0  0  0  # atno 17342 bound_to 10162
  139.7779  143.8399  152.3132 LP  0  0  0  0  0  0  0  0  0  0  0  0  # atno 17343 bound_to 10162
  157.6506  131.0897  150.8059 LP  0  0  0  0  0  0  0  0  0  0  0  0  # atno 17370 bound_to 10713
  156.8142  130.4962  149.5351 LP  0  0  0  0  0  0  0  0  0  0  0  0  # atno 17371 bound_to 10713
  140.4539  134.6904  157.5053 LP  0  0  0  0  0  0  0  0  0  0  0  0  # atno 17394 bound_to 11000
  140.0148  134.6636  155.9327 LP  0  0  0  0  0  0  0  0  0  0  0  0  # atno 17395 bound_to 11000

$$$$
