AV-unprocessed.smi:2044|AV-procd|sdf|8305|dock2
  -GOLD-   2272010573D 1   1.00000     0.00000
 Structure written by MMmdl.
 39 40  0  0  0  0  0  0  0  0  3 V2000
  153.1187  142.5497  162.3214 C   0  0  0  0  0  0  0  0  0  0  0  0
  153.2207  141.7147  161.0908 C   0  0  0  0  0  0  0  0  0  0  0  0
  152.5355  141.7177  159.9092 C   0  0  0  0  0  0  0  0  0  0  0  0
  153.1466  140.6634  159.1768 C   0  0  0  0  0  0  0  0  0  0  0  0
  152.8086  140.2622  157.9418 N   0  5  0  0  0  0  0  0  0  0  0  0
  151.5194  139.9801  157.6471 C   0  0  0  0  0  0  0  0  0  0  0  0
  150.5964  139.8469  158.4541 O   0  0  0  0  0  0  0  0  0  0  0  0
  151.2898  139.8300  156.3343 N   0  0  0  0  0  0  0  0  0  0  0  0
  150.0061  139.5222  155.7084 C   0  0  0  0  0  0  0  0  0  0  0  0
  150.1504  138.7046  154.3982 C   0  0  1  0  0  0  0  0  0  0  0  0
  151.1613  137.5449  154.5767 C   0  0  0  0  0  0  0  0  0  0  0  0
  148.7984  138.2511  153.9333 N   0  3  0  0  0  0  0  0  0  0  0  0
  148.1040  137.3999  154.9377 C   0  0  0  0  0  0  0  0  0  0  0  0
  146.7717  136.8680  154.3859 C   0  0  0  0  0  0  0  0  0  0  0  0
  145.9455  137.9591  154.0082 O   0  0  0  0  0  0  0  0  0  0  0  0
  146.5429  138.7310  152.9772 C   0  0  0  0  0  0  0  0  0  0  0  0
  147.8751  139.3232  153.4687 C   0  0  0  0  0  0  0  0  0  0  0  0
  154.1071  140.0635  159.8597 N   0  0  0  0  0  0  0  0  0  0  0  0
  154.1654  140.7361  161.0861 O   0  0  0  0  0  0  0  0  0  0  0  0
  152.1426  142.4262  162.7901 H   0  0  0  0  0  0  0  0  0  0  0  0
  153.2489  143.6051  162.0824 H   0  0  0  0  0  0  0  0  0  0  0  0
  153.8811  142.2723  163.0499 H   0  0  0  0  0  0  0  0  0  0  0  0
  151.7279  142.3707  159.6134 H   0  0  0  0  0  0  0  0  0  0  0  0
  152.0796  139.9478  155.7163 H   0  0  0  0  0  0  0  0  0  0  0  0
  149.3454  139.0007  156.4029 H   0  0  0  0  0  0  0  0  0  0  0  0
  149.5337  140.4843  155.5206 H   0  0  0  0  0  0  0  0  0  0  0  0
  150.5642  139.3578  153.6280 H   0  0  0  0  0  0  0  0  0  0  0  0
  152.1351  137.9053  154.9061 H   0  0  0  0  0  0  0  0  0  0  0  0
  151.3529  137.0181  153.6423 H   0  0  0  0  0  0  0  0  0  0  0  0
  150.8132  136.8219  155.3151 H   0  0  0  0  0  0  0  0  0  0  0  0
  148.7195  136.5507  155.2279 H   0  0  0  0  0  0  0  0  0  0  0  0
  147.9210  137.9801  155.8434 H   0  0  0  0  0  0  0  0  0  0  0  0
  146.9369  136.2040  153.5357 H   0  0  0  0  0  0  0  0  0  0  0  0
  146.2560  136.2849  155.1491 H   0  0  0  0  0  0  0  0  0  0  0  0
  146.6949  138.1170  152.0878 H   0  0  0  0  0  0  0  0  0  0  0  0
  145.8582  139.5315  152.6960 H   0  0  0  0  0  0  0  0  0  0  0  0
  147.6950  140.0307  154.2798 H   0  0  0  0  0  0  0  0  0  0  0  0
  148.3094  139.8778  152.6374 H   0  0  0  0  0  0  0  0  0  0  0  0
  148.9673  137.6704  153.1241 H   0  0  0  0  0  0  0  0  0  0  0  0
  1  2  1  0  0  0  0
  1 20  1  0  0  0  0
  1 21  1  0  0  0  0
  1 22  1  0  0  0  0
  2 19  1  0  0  0  0
  2  3  2  0  0  0  0
  3  4  1  0  0  0  0
  3 23  1  0  0  0  0
  4  5  1  0  0  0  0
  4 18  2  0  0  0  0
  5  6  1  0  0  0  0
  6  7  2  0  0  0  0
  6  8  1  0  0  0  0
  8  9  1  0  0  0  0
  8 24  1  0  0  0  0
  9 10  1  0  0  0  0
  9 25  1  0  0  0  0
  9 26  1  0  0  0  0
 10 11  1  0  0  0  0
 10 12  1  0  0  0  0
 10 27  1  0  0  0  0
 11 28  1  0  0  0  0
 11 29  1  0  0  0  0
 11 30  1  0  0  0  0
 12 17  1  0  0  0  0
 12 13  1  0  0  0  0
 12 39  1  0  0  0  0
 13 14  1  0  0  0  0
 13 31  1  0  0  0  0
 13 32  1  0  0  0  0
 14 15  1  0  0  0  0
 14 33  1  0  0  0  0
 14 34  1  0  0  0  0
 15 16  1  0  0  0  0
 16 17  1  0  0  0  0
 16 35  1  0  0  0  0
 16 36  1  0  0  0  0
 17 37  1  0  0  0  0
 17 38  1  0  0  0  0
 18 19  1  0  0  0  0
M  CHG  1   5  -1
M  CHG  1  12   1
M  END
> <s_m_source_file>
AV-unprocessed.smi

> <i_m_source_file_index>
2044

> <i_lp_mmshare_version>
43012

> <i_f3d_flags>
0

> <s_epik_input>
W0NIM11jMVtjSF1jKG5vMSlbTkhdQyg9TylbTkhdW0NIMl1bQ0BIXShbQ0gzXSlOMltDSDJdW0NIMl1PW0NIMl1bQ0gyXTI=

> <s_epik_cmdline>
J2VwaWtfcHl0aG9uJywgJy1waCcsICc3LjAnLCAnLXRuJywgJzgnLCAnLW1hJywgJzIwMCcsICctbWV0YWxfYmluZGluZycsICctaW1hZScsICc8aW5maWxlLm1hZT4nLCAnLW9tYWUnLCAnPG91dGZpbGUubWFlPic=

> <r_epik_Ionization_Penalty>
6.73014

> <r_epik_Ionization_Penalty_Charging>
6.73004

> <r_epik_Ionization_Penalty_Neutral>
9.51297e-05

> <r_epik_State_Penalty>
6.93052

> <r_epik_Charging_Adjusted_Penalty>
13.6606

> <i_epik_Tot_Q>
0

> <i_epik_Tot_abs_Q>
2

> <r_epik_Metal_State_Penalty>
2.86736

> <b_epik_Metal_Only>
1

> <s_lp_Force_Field>
OPLS_2005

> <r_lp_Energy>
8.75772

> <b_lp_Chiralities_Consistent>
1

> <s_lp_Variant>
AV-unprocessed.smi:2044-8

> <Gold.Version>
5.8.1

> <Gold.Id.Protein>
6NUR|6NUR_protein|mol2

> <Gold.PLP.Fitness>
39.5366

> <Gold.PLP.PLP>
-29.2228

> <Gold.PLP.part.hbond>
-2.0000

> <Gold.PLP.part.metal>
0.0000

> <Gold.PLP.part.buried>
-3.5024

> <Gold.PLP.part.nonpolar>
-24.3969

> <Gold.PLP.part.repulsive>
0.2465

> <Gold.PLP.ligand.clash>
0.0000

> <Gold.PLP.ligand.torsion>
0.8153

> <Gold.PLP.Chemscore.Hbond>
3.9200

> <Gold.PLP.Chemscore.CHOScore>
0.0000

> <Gold.PLP.Chemscore.Metal>
0.0000

> <Gold.Chemscore.Hbonds>
donor molecule, donor type, donor heavy atom, donor atom, acceptor molecule, acceptor atom, score
      L1  H    12    39       P1  7948  2.00
      P1  H  7997  8009       L1     5  1.92

> <Gold.PLP.Chemscore.Internal.Correction>
0.1844

> <Gold.Rescore>
     Score         DG    S(hbond)    S(metal)    S(lipo)     H(rot)  DE(clash)    DE(int)     intcor
     13.46     -14.38       1.48        0.00      68.61       1.59       0.01       0.91       ----

> <Gold.Chemscore.Fitness>
13.4618

> <Gold.Chemscore.DG>
-14.3802

> <Gold.Chemscore.ZeroCoef>
-5.4800

> <Gold.Chemscore.Hbond>
1.4824

> <Gold.Chemscore.Metal>
0.0000

> <Gold.Chemscore.Lipo>
68.6074

> <Gold.Chemscore.Internal_Hbond>
0.0000

> <Gold.Chemscore.DEClash>
0.0086

> <Gold.Chemscore.DEInternal>
0.9098

> <Gold.Chemscore.Rot>
1.5930

> <Gold.Chemscore.Internal.Correction>
   9.000000E+99

> <Gold.Chemscore.Hbonds>
donor molecule, donor type, donor heavy atom, donor atom, acceptor molecule, acceptor atom, score
      L1  H    12    39       P1  7948  1.00
      P1  H  7997  8009       L1     5  0.59

> <Gold.Chemscore.Hbond.Weighted>
-4.9512

> <Gold.Chemscore.Metal.Weighted>
-0.0000

> <Gold.Chemscore.Lipo.Weighted>
-8.0271

> <Gold.Chemscore.Internal_Hbond.Weighted>
0.0000

> <Gold.Chemscore.DEClash.Weighted>
0.0086

> <Gold.Chemscore.DEInternal.Weighted>
0.9098

> <Gold.Chemscore.Rot.Weighted>
4.0781

> <Gold.Chemscore.Internal.Correction.Weighted>
   9.000000E+99

> <Gold.Protein.RotatedTorsions>
[ 6907 6896 6895 6894 ] final   27.16 input  -60.11 | X-H torsion
[ 7974 7965 7964 7962 ] final   -2.25 input  175.53 | X-H torsion
[ 8008 7997 7996 7995 ] final  165.44 input   59.86 | X-H torsion
[ 10167 10162 10161 10158 ] final    1.95 input  -65.29 | X-H torsion
[ 10718 10713 10712 10709 ] final   59.16 input   66.30 | X-H torsion
[ 10763 10752 10751 10750 ] final   44.66 input  -60.55 | X-H torsion
[ 11005 11000 10999 10996 ] final  -40.82 input  -57.11 | X-H torsion

> <Gold.Protein.ActiveResidues>
 VAL166  LYS551  ARG553  GLY616  TRP617  ASP618  TYR619  PRO620  LYS621  CYS622 
 ASP623  PHE694  ASN695  SER759  ASP760  ASP761  ALA762  ILE779  LEU786  VAL792 
 PHE793  MET794  SER795  GLU796  ALA797  LYS798  CYS799  TRP800  GLU811  SER814 

> <Gold.Protein.RotatedAtoms>
  151.9981  134.9943  160.0563 H   0  0  0  0  0  0  0  0  0  0  0  0  # atno 6907 bound_to 6896
  152.1545  133.4538  159.4838 H   0  0  0  0  0  0  0  0  0  0  0  0  # atno 6908 bound_to 6896
  150.6879  134.2066  159.4386 H   0  0  0  0  0  0  0  0  0  0  0  0  # atno 6909 bound_to 6896
  146.2407  140.1542  142.8333 H   0  0  0  0  0  0  0  0  0  0  0  0  # atno 7974 bound_to 7965
  156.1800  140.1670  156.8292 H   0  0  0  0  0  0  0  0  0  0  0  0  # atno 8008 bound_to 7997
  154.5349  140.0749  156.8443 H   0  0  0  0  0  0  0  0  0  0  0  0  # atno 8009 bound_to 7997
  155.3331  140.3380  155.4241 H   0  0  0  0  0  0  0  0  0  0  0  0  # atno 8010 bound_to 7997
  140.6658  143.7183  150.7825 H   0  0  0  0  0  0  0  0  0  0  0  0  # atno 10167 bound_to 10162
  157.5654  130.8867  149.9179 H   0  0  0  0  0  0  0  0  0  0  0  0  # atno 10718 bound_to 10713
  152.9837  135.6064  154.3310 H   0  0  0  0  0  0  0  0  0  0  0  0  # atno 10763 bound_to 10752
  154.3014  135.2773  155.2611 H   0  0  0  0  0  0  0  0  0  0  0  0  # atno 10764 bound_to 10752
  154.4862  135.5904  153.6481 H   0  0  0  0  0  0  0  0  0  0  0  0  # atno 10765 bound_to 10752
  141.0202  133.6866  156.2373 H   0  0  0  0  0  0  0  0  0  0  0  0  # atno 11005 bound_to 11000
  145.0142  140.8740  143.5205 LP  0  0  0  0  0  0  0  0  0  0  0  0  # atno 17320 bound_to 7965
  145.1580  139.2475  143.5406 LP  0  0  0  0  0  0  0  0  0  0  0  0  # atno 17321 bound_to 7965
  140.0860  143.4923  152.2505 LP  0  0  0  0  0  0  0  0  0  0  0  0  # atno 17342 bound_to 10162
  139.5907  144.7549  151.3409 LP  0  0  0  0  0  0  0  0  0  0  0  0  # atno 17343 bound_to 10162
  156.0703  130.3686  150.0791 LP  0  0  0  0  0  0  0  0  0  0  0  0  # atno 17370 bound_to 10713
  156.8950  130.9601  151.3583 LP  0  0  0  0  0  0  0  0  0  0  0  0  # atno 17371 bound_to 10713
  140.6586  134.4991  157.5582 LP  0  0  0  0  0  0  0  0  0  0  0  0  # atno 17394 bound_to 11000
  139.9141  134.8283  156.1426 LP  0  0  0  0  0  0  0  0  0  0  0  0  # atno 17395 bound_to 11000

$$$$
