AV-unprocessed.smi:1272|AV-procd|sdf|5334|dock4
  -GOLD-   22720 4463D 1   1.00000     0.00000
 Structure written by MMmdl.
 45 47  0  0  0  0  0  0  0  0  1 V2000
  154.8654  140.3790  159.8226 C   0  0  0  0  0  0  0  0  0  0  0  0
  153.4186  140.5821  160.2898 C   0  0  0  0  0  0  0  0  0  0  0  0
  152.6701  141.4112  159.3484 N   0  0  0  0  0  0  0  0  0  0  0  0
  152.2829  141.0646  158.0983 C   0  0  0  0  0  0  0  0  0  0  0  0
  152.4980  139.9849  157.5472 O   0  0  0  0  0  0  0  0  0  0  0  0
  151.6301  142.1180  157.5530 N   0  0  0  0  0  0  0  0  0  0  0  0
  151.0476  142.1807  156.2134 C   0  0  0  0  0  0  0  0  0  0  0  0
  150.4609  140.8222  155.7806 C   0  0  2  0  0  0  0  0  0  0  0  0
  151.5104  140.0440  155.2409 O   0  0  0  0  0  0  0  0  0  0  0  0
  149.4038  140.9952  154.6708 C   0  0  0  0  0  0  0  0  0  0  0  0
  148.3175  141.9303  154.9709 N   0  0  0  0  0  0  0  0  0  0  0  0
  147.3757  142.0822  153.8629 C   0  0  0  0  0  0  0  0  0  0  0  0
  146.2267  143.0437  154.2140 C   0  0  0  0  0  0  0  0  0  0  0  0
  145.5614  142.5892  155.3876 O   0  0  0  0  0  0  0  0  0  0  0  0
  146.4374  142.4740  156.5038 C   0  0  0  0  0  0  0  0  0  0  0  0
  147.5832  141.5072  156.1589 C   0  0  0  0  0  0  0  0  0  0  0  0
  151.6213  143.1779  158.4712 C   0  0  0  0  0  0  0  0  0  0  0  0
  151.0987  144.4797  158.3784 C   0  0  0  0  0  0  0  0  0  0  0  0
  151.2677  145.3262  159.4990 C   0  0  0  0  0  0  0  0  0  0  0  0
  151.9400  144.8678  160.6616 C   0  0  0  0  0  0  0  0  0  0  0  0
  152.4585  143.5533  160.7277 C   0  0  0  0  0  0  0  0  0  0  0  0
  152.2758  142.7329  159.6008 C   0  0  0  0  0  0  0  0  0  0  0  0
  155.4225  139.7755  160.5393 H   0  0  0  0  0  0  0  0  0  0  0  0
  155.3834  141.3328  159.7171 H   0  0  0  0  0  0  0  0  0  0  0  0
  154.9007  139.8689  158.8594 H   0  0  0  0  0  0  0  0  0  0  0  0
  152.9276  139.6147  160.4058 H   0  0  0  0  0  0  0  0  0  0  0  0
  153.4059  141.0470  161.2756 H   0  0  0  0  0  0  0  0  0  0  0  0
  150.2546  142.9300  156.2353 H   0  0  0  0  0  0  0  0  0  0  0  0
  151.7734  142.5493  155.4875 H   0  0  0  0  0  0  0  0  0  0  0  0
  150.0334  140.3141  156.6442 H   0  0  0  0  0  0  0  0  0  0  0  0
  151.7108  139.3523  155.8533 H   0  0  0  0  0  0  0  0  0  0  0  0
  149.8989  141.3139  153.7522 H   0  0  0  0  0  0  0  0  0  0  0  0
  148.9821  140.0130  154.4513 H   0  0  0  0  0  0  0  0  0  0  0  0
  147.8832  142.4644  152.9786 H   0  0  0  0  0  0  0  0  0  0  0  0
  146.9623  141.1095  153.5916 H   0  0  0  0  0  0  0  0  0  0  0  0
  146.6047  144.0551  154.3711 H   0  0  0  0  0  0  0  0  0  0  0  0
  145.5099  143.0935  153.3944 H   0  0  0  0  0  0  0  0  0  0  0  0
  146.8278  143.4565  156.7728 H   0  0  0  0  0  0  0  0  0  0  0  0
  145.8753  142.1058  157.3620 H   0  0  0  0  0  0  0  0  0  0  0  0
  147.1753  140.5068  156.0051 H   0  0  0  0  0  0  0  0  0  0  0  0
  148.2625  141.4387  157.0092 H   0  0  0  0  0  0  0  0  0  0  0  0
  150.5930  144.8257  157.4891 H   0  0  0  0  0  0  0  0  0  0  0  0
  150.8824  146.3347  159.4679 H   0  0  0  0  0  0  0  0  0  0  0  0
  152.0596  145.5312  161.5054 H   0  0  0  0  0  0  0  0  0  0  0  0
  152.9757  143.2009  161.6078 H   0  0  0  0  0  0  0  0  0  0  0  0
  1  2  1  0  0  0  0
  1 23  1  0  0  0  0
  1 24  1  0  0  0  0
  1 25  1  0  0  0  0
  2  3  1  0  0  0  0
  2 26  1  0  0  0  0
  2 27  1  0  0  0  0
  3 22  1  0  0  0  0
  3  4  1  0  0  0  0
  4  5  2  0  0  0  0
  4  6  1  0  0  0  0
  6  7  1  0  0  0  0
  6 17  1  0  0  0  0
  7  8  1  0  0  0  0
  7 28  1  0  0  0  0
  7 29  1  0  0  0  0
  8  9  1  0  0  0  0
  8 10  1  0  0  0  0
  8 30  1  0  0  0  0
  9 31  1  0  0  0  0
 10 11  1  0  0  0  0
 10 32  1  0  0  0  0
 10 33  1  0  0  0  0
 11 16  1  0  0  0  0
 11 12  1  0  0  0  0
 12 13  1  0  0  0  0
 12 34  1  0  0  0  0
 12 35  1  0  0  0  0
 13 14  1  0  0  0  0
 13 36  1  0  0  0  0
 13 37  1  0  0  0  0
 14 15  1  0  0  0  0
 15 16  1  0  0  0  0
 15 38  1  0  0  0  0
 15 39  1  0  0  0  0
 16 40  1  0  0  0  0
 16 41  1  0  0  0  0
 17 22  2  0  0  0  0
 17 18  1  0  0  0  0
 18 19  2  0  0  0  0
 18 42  1  0  0  0  0
 19 20  1  0  0  0  0
 19 43  1  0  0  0  0
 20 21  2  0  0  0  0
 20 44  1  0  0  0  0
 21 22  1  0  0  0  0
 21 45  1  0  0  0  0
M  END
> <s_m_source_file>
AV-unprocessed.smi

> <i_m_source_file_index>
1272

> <i_lp_mmshare_version>
43012

> <i_f3d_flags>
0

> <s_epik_input>
W2NIXTFbY0hdW2NIXVtjSF1jKGMxMiluKFtDSDJdW0NIM10pYyg9TyluMltDSDJdW0NASF0oW09IXSlbQ0gyXU4zW0NIMl1bQ0gyXU9bQ0gyXVtDSDJdMw==

> <s_epik_cmdline>
J2VwaWtfcHl0aG9uJywgJy1waCcsICc3LjAnLCAnLXRuJywgJzgnLCAnLW1hJywgJzIwMCcsICctbWV0YWxfYmluZGluZycsICctaW1hZScsICc8aW5maWxlLm1hZT4nLCAnLW9tYWUnLCAnPG91dGZpbGUubWFlPic=

> <r_epik_Ionization_Penalty>
0.214359

> <r_epik_Ionization_Penalty_Charging>
2.31431e-09

> <r_epik_Ionization_Penalty_Neutral>
0.214359

> <r_epik_State_Penalty>
0.204533

> <r_epik_Charging_Adjusted_Penalty>
0.204533

> <i_epik_Tot_Q>
0

> <i_epik_Tot_abs_Q>
0

> <r_epik_Metal_State_Penalty>
0.204533

> <b_epik_Metal_Only>
0

> <s_lp_Force_Field>
OPLS_2005

> <r_lp_Energy>
61.4886

> <b_lp_Chiralities_Consistent>
1

> <s_lp_Variant>
AV-unprocessed.smi:1272-1

> <Gold.Version>
5.8.1

> <Gold.Id.Protein>
6NUR|6NUR_protein|mol2

> <Gold.PLP.Fitness>
54.7242

> <Gold.PLP.PLP>
-50.0972

> <Gold.PLP.part.hbond>
-2.0000

> <Gold.PLP.part.metal>
0.0000

> <Gold.PLP.part.buried>
-8.9468

> <Gold.PLP.part.nonpolar>
-40.5239

> <Gold.PLP.part.repulsive>
0.8301

> <Gold.PLP.ligand.clash>
0.0000

> <Gold.PLP.ligand.torsion>
0.7342

> <Gold.PLP.Chemscore.Hbond>
2.0000

> <Gold.PLP.Chemscore.CHOScore>
0.0000

> <Gold.PLP.Chemscore.Metal>
0.0000

> <Gold.Chemscore.Hbonds>
donor molecule, donor type, donor heavy atom, donor atom, acceptor molecule, acceptor atom, score
      P1  H  7989  7998       L1     9  0.95
      P1  H  7997  8010       L1     5  0.86

> <Gold.PLP.Chemscore.Internal.Correction>
0.0955

> <Gold.Rescore>
     Score         DG    S(hbond)    S(metal)    S(lipo)     H(rot)  DE(clash)    DE(int)     intcor
     17.25     -19.71       1.66        0.00     120.92       2.14       0.14       2.31       ----

> <Gold.Chemscore.Fitness>
17.2527

> <Gold.Chemscore.DG>
-19.7050

> <Gold.Chemscore.ZeroCoef>
-5.4800

> <Gold.Chemscore.Hbond>
1.6623

> <Gold.Chemscore.Metal>
0.0000

> <Gold.Chemscore.Lipo>
120.9214

> <Gold.Chemscore.Internal_Hbond>
0.0000

> <Gold.Chemscore.DEClash>
0.1381

> <Gold.Chemscore.DEInternal>
2.3142

> <Gold.Chemscore.Rot>
2.1386

> <Gold.Chemscore.Internal.Correction>
   9.000000E+99

> <Gold.Chemscore.Hbonds>
donor molecule, donor type, donor heavy atom, donor atom, acceptor molecule, acceptor atom, score
      P1  H  7989  7998       L1     9  0.21
      P1  H  7997  8010       L1     5  0.45

> <Gold.Chemscore.Hbond.Weighted>
-5.5521

> <Gold.Chemscore.Metal.Weighted>
-0.0000

> <Gold.Chemscore.Lipo.Weighted>
-14.1478

> <Gold.Chemscore.Internal_Hbond.Weighted>
0.0000

> <Gold.Chemscore.DEClash.Weighted>
0.1381

> <Gold.Chemscore.DEInternal.Weighted>
2.3142

> <Gold.Chemscore.Rot.Weighted>
5.4749

> <Gold.Chemscore.Internal.Correction.Weighted>
   9.000000E+99

> <Gold.Protein.RotatedTorsions>
[ 6907 6896 6895 6894 ] final  -37.33 input  -60.11 | X-H torsion
[ 7974 7965 7964 7962 ] final -113.46 input  175.53 | X-H torsion
[ 8008 7997 7996 7995 ] final   45.60 input   59.86 | X-H torsion
[ 10167 10162 10161 10158 ] final   87.11 input  -65.29 | X-H torsion
[ 10718 10713 10712 10709 ] final  -36.98 input   66.30 | X-H torsion
[ 10763 10752 10751 10750 ] final  -23.60 input  -60.55 | X-H torsion
[ 11005 11000 10999 10996 ] final  -59.90 input  -57.11 | X-H torsion

> <Gold.Protein.ActiveResidues>
 VAL166  LYS551  ARG553  GLY616  TRP617  ASP618  TYR619  PRO620  LYS621  CYS622 
 ASP623  PHE694  ASN695  SER759  ASP760  ASP761  ALA762  ILE779  LEU786  VAL792 
 PHE793  MET794  SER795  GLU796  ALA797  LYS798  CYS799  TRP800  GLU811  SER814 

> <Gold.Protein.RotatedAtoms>
  151.0160  134.9433  159.8033 H   0  0  0  0  0  0  0  0  0  0  0  0  # atno 6907 bound_to 6896
  152.5314  134.2965  159.9072 H   0  0  0  0  0  0  0  0  0  0  0  0  # atno 6908 bound_to 6896
  151.2972  133.4097  159.2671 H   0  0  0  0  0  0  0  0  0  0  0  0  # atno 6909 bound_to 6896
  145.1318  140.8729  143.3753 H   0  0  0  0  0  0  0  0  0  0  0  0  # atno 7974 bound_to 7965
  155.3386  140.3407  155.4239 H   0  0  0  0  0  0  0  0  0  0  0  0  # atno 8008 bound_to 7997
  156.1825  140.1669  156.8284 H   0  0  0  0  0  0  0  0  0  0  0  0  # atno 8009 bound_to 7997
  154.5349  140.0737  156.8393 H   0  0  0  0  0  0  0  0  0  0  0  0  # atno 8010 bound_to 7997
  139.8807  144.6441  150.8846 H   0  0  0  0  0  0  0  0  0  0  0  0  # atno 10167 bound_to 10162
  156.3205  130.4265  149.7965 H   0  0  0  0  0  0  0  0  0  0  0  0  # atno 10718 bound_to 10713
  153.6705  135.6972  153.5148 H   0  0  0  0  0  0  0  0  0  0  0  0  # atno 10763 bound_to 10752
  153.2561  135.4259  155.0847 H   0  0  0  0  0  0  0  0  0  0  0  0  # atno 10764 bound_to 10752
  154.8428  135.3543  154.6249 H   0  0  0  0  0  0  0  0  0  0  0  0  # atno 10765 bound_to 10752
  141.1266  133.6619  156.5141 H   0  0  0  0  0  0  0  0  0  0  0  0  # atno 11005 bound_to 11000
  145.0627  139.3092  143.5872 LP  0  0  0  0  0  0  0  0  0  0  0  0  # atno 17320 bound_to 7965
  146.3513  140.0075  142.8670 LP  0  0  0  0  0  0  0  0  0  0  0  0  # atno 17321 bound_to 7965
  140.7745  143.3588  151.1869 LP  0  0  0  0  0  0  0  0  0  0  0  0  # atno 17342 bound_to 10162
  139.7198  143.9241  152.2981 LP  0  0  0  0  0  0  0  0  0  0  0  0  # atno 17343 bound_to 10162
  156.5275  130.8242  151.3225 LP  0  0  0  0  0  0  0  0  0  0  0  0  # atno 17370 bound_to 10713
  157.7411  130.9862  150.2420 LP  0  0  0  0  0  0  0  0  0  0  0  0  # atno 17371 bound_to 10713
  140.4345  134.7072  157.4959 LP  0  0  0  0  0  0  0  0  0  0  0  0  # atno 17394 bound_to 11000
  140.0271  134.6461  155.9158 LP  0  0  0  0  0  0  0  0  0  0  0  0  # atno 17395 bound_to 11000

$$$$
