AV-unprocessed.smi:972|AV-procd|sdf|4297|dock1
  -GOLD-   22720 2203D 1   1.00000     0.00000
 Structure written by MMmdl.
 51 53  0  0  0  0  0  0  0  0  2 V2000
  151.0343  143.1612  156.4860 C   0  0  0  0  0  0  0  0  0  0  0  0
  150.4953  142.0001  157.3546 C   0  0  0  0  0  0  0  0  0  0  0  0
  151.6928  141.5086  158.2019 C   0  0  0  0  0  0  0  0  0  0  0  0
  149.3870  142.5233  158.2865 C   0  0  0  0  0  0  0  0  0  0  0  0
  149.9347  140.8673  156.4770 C   0  0  0  0  0  0  0  0  0  0  0  0
  150.7509  140.3581  155.5451 N   0  0  0  0  0  0  0  0  0  0  0  0
  150.2389  139.4549  154.6821 C   0  0  0  0  0  0  0  0  0  0  0  0
  148.8757  139.0736  154.7275 C   0  0  0  0  0  0  0  0  0  0  0  0
  148.2434  138.1396  153.8614 N   0  0  0  0  0  0  0  0  0  0  0  0
  146.9505  138.0530  153.5051 C   0  0  0  0  0  0  0  0  0  0  0  0
  146.0516  138.8050  153.8788 O   0  0  0  0  0  0  0  0  0  0  0  0
  146.7483  137.0238  152.6699 N   0  0  0  0  0  0  0  0  0  0  0  0
  145.4602  136.6520  152.0915 C   0  0  2  0  0  0  0  0  0  0  0  0
  144.6450  135.7904  153.0747 C   0  0  0  0  0  0  0  0  0  0  0  0
  143.3313  135.3048  152.4338 C   0  0  0  0  0  0  0  0  0  0  0  0
  143.5647  134.5811  151.1575 N   0  3  2  0  0  0  0  0  0  0  0  0
  144.1080  133.2156  151.3478 C   0  0  0  0  0  0  0  0  0  0  0  0
  144.8744  132.6961  150.1537 C   0  0  0  0  0  0  0  0  0  0  0  0
  143.4813  132.1824  150.4408 C   0  0  0  0  0  0  0  0  0  0  0  0
  144.3429  135.3942  150.1879 C   0  0  0  0  0  0  0  0  0  0  0  0
  145.6800  135.8803  150.7797 C   0  0  0  0  0  0  0  0  0  0  0  0
  148.0997  139.7052  155.7201 C   0  0  0  0  0  0  0  0  0  0  0  0
  148.6248  140.6067  156.5758 N   0  0  0  0  0  0  0  0  0  0  0  0
  151.4754  143.9460  157.1014 H   0  0  0  0  0  0  0  0  0  0  0  0
  150.2463  143.6309  155.8963 H   0  0  0  0  0  0  0  0  0  0  0  0
  151.8039  142.8159  155.7944 H   0  0  0  0  0  0  0  0  0  0  0  0
  152.4864  141.1052  157.5718 H   0  0  0  0  0  0  0  0  0  0  0  0
  151.4021  140.7296  158.9077 H   0  0  0  0  0  0  0  0  0  0  0  0
  152.1227  142.3202  158.7902 H   0  0  0  0  0  0  0  0  0  0  0  0
  149.7509  143.3287  158.9251 H   0  0  0  0  0  0  0  0  0  0  0  0
  149.0099  141.7325  158.9359 H   0  0  0  0  0  0  0  0  0  0  0  0
  148.5416  142.9115  157.7172 H   0  0  0  0  0  0  0  0  0  0  0  0
  150.9390  139.0652  153.9611 H   0  0  0  0  0  0  0  0  0  0  0  0
  148.8597  137.4524  153.4528 H   0  0  0  0  0  0  0  0  0  0  0  0
  147.5443  136.4583  152.4132 H   0  0  0  0  0  0  0  0  0  0  0  0
  144.8970  137.5590  151.8625 H   0  0  0  0  0  0  0  0  0  0  0  0
  145.2369  134.9338  153.4000 H   0  0  0  0  0  0  0  0  0  0  0  0
  144.4179  136.3618  153.9757 H   0  0  0  0  0  0  0  0  0  0  0  0
  142.7815  134.6684  153.1281 H   0  0  0  0  0  0  0  0  0  0  0  0
  142.6887  136.1622  152.2297 H   0  0  0  0  0  0  0  0  0  0  0  0
  144.4158  132.9445  152.3558 H   0  0  0  0  0  0  0  0  0  0  0  0
  144.9997  133.3530  149.2946 H   0  0  0  0  0  0  0  0  0  0  0  0
  145.7041  132.0188  150.3452 H   0  0  0  0  0  0  0  0  0  0  0  0
  143.3933  131.1672  150.8225 H   0  0  0  0  0  0  0  0  0  0  0  0
  142.6823  132.4984  149.7724 H   0  0  0  0  0  0  0  0  0  0  0  0
  144.5162  134.8218  149.2759 H   0  0  0  0  0  0  0  0  0  0  0  0
  143.7391  136.2556  149.8990 H   0  0  0  0  0  0  0  0  0  0  0  0
  146.1894  136.5167  150.0549 H   0  0  0  0  0  0  0  0  0  0  0  0
  146.3385  135.0282  150.9526 H   0  0  0  0  0  0  0  0  0  0  0  0
  147.0461  139.4925  155.8267 H   0  0  0  0  0  0  0  0  0  0  0  0
  142.6536  134.4476  150.7422 H   0  0  0  0  0  0  0  0  0  0  0  0
  1  2  1  0  0  0  0
  1 24  1  0  0  0  0
  1 25  1  0  0  0  0
  1 26  1  0  0  0  0
  2  3  1  0  0  0  0
  2  4  1  0  0  0  0
  2  5  1  0  0  0  0
  3 27  1  0  0  0  0
  3 28  1  0  0  0  0
  3 29  1  0  0  0  0
  4 30  1  0  0  0  0
  4 31  1  0  0  0  0
  4 32  1  0  0  0  0
  5 23  1  0  0  0  0
  5  6  2  0  0  0  0
  6  7  1  0  0  0  0
  7  8  2  0  0  0  0
  7 33  1  0  0  0  0
  8  9  1  0  0  0  0
  8 22  1  0  0  0  0
  9 10  1  0  0  0  0
  9 34  1  0  0  0  0
 10 11  2  0  0  0  0
 10 12  1  0  0  0  0
 12 13  1  0  0  0  0
 12 35  1  0  0  0  0
 13 21  1  0  0  0  0
 13 14  1  0  0  0  0
 13 36  1  0  0  0  0
 14 15  1  0  0  0  0
 14 37  1  0  0  0  0
 14 38  1  0  0  0  0
 15 16  1  0  0  0  0
 15 39  1  0  0  0  0
 15 40  1  0  0  0  0
 16 17  1  0  0  0  0
 16 20  1  0  0  0  0
 16 51  1  0  0  0  0
 17 19  1  0  0  0  0
 17 18  1  0  0  0  0
 17 41  1  0  0  0  0
 18 19  1  0  0  0  0
 18 42  1  0  0  0  0
 18 43  1  0  0  0  0
 19 44  1  0  0  0  0
 19 45  1  0  0  0  0
 20 21  1  0  0  0  0
 20 46  1  0  0  0  0
 20 47  1  0  0  0  0
 21 48  1  0  0  0  0
 21 49  1  0  0  0  0
 22 23  2  0  0  0  0
 22 50  1  0  0  0  0
M  CHG  1  16   1
M  END
> <s_m_source_file>
AV-unprocessed.smi

> <i_m_source_file_index>
972

> <i_lp_mmshare_version>
43012

> <i_f3d_flags>
0

> <s_epik_input>
W0NIM11DKFtDSDNdKShbQ0gzXSljMW5bY0hdYyhbY0hdbjEpW05IXUMoPU8pW05IXVtDSF0yW0NIMl1bQ0gyXU4oW0NIMl1bQ0gyXTIpW0NIXTNbQ0gyXVtDSDJdMw==

> <s_epik_cmdline>
J2VwaWtfcHl0aG9uJywgJy1waCcsICc3LjAnLCAnLXRuJywgJzgnLCAnLW1hJywgJzIwMCcsICctbWV0YWxfYmluZGluZycsICctaW1hZScsICc8aW5maWxlLm1hZT4nLCAnLW9tYWUnLCAnPG91dGZpbGUubWFlPic=

> <r_lp_tautomer_probability>
1

> <r_epik_Ionization_Penalty>
0.123264

> <r_epik_Ionization_Penalty_Charging>
0.123242

> <r_epik_Ionization_Penalty_Neutral>
2.24743e-05

> <r_epik_State_Penalty>
0.112739

> <r_epik_Charging_Adjusted_Penalty>
0.235981

> <i_epik_Tot_Q>
1

> <i_epik_Tot_abs_Q>
1

> <r_epik_Metal_State_Penalty>
0.112739

> <b_epik_Metal_Only>
0

> <s_lp_Force_Field>
OPLS_2005

> <r_lp_Energy>
26.5088

> <b_lp_Chiralities_Consistent>
1

> <s_lp_Variant>
AV-unprocessed.smi:972-2

> <Gold.Version>
5.8.1

> <Gold.Id.Protein>
6NUR|6NUR_protein|mol2

> <Gold.PLP.Fitness>
43.6468

> <Gold.PLP.PLP>
-33.6516

> <Gold.PLP.part.hbond>
-3.1625

> <Gold.PLP.part.metal>
0.0000

> <Gold.PLP.part.buried>
-3.1175

> <Gold.PLP.part.nonpolar>
-28.5267

> <Gold.PLP.part.repulsive>
0.2779

> <Gold.PLP.ligand.clash>
0.0000

> <Gold.PLP.ligand.torsion>
1.4113

> <Gold.PLP.Chemscore.Hbond>
3.8000

> <Gold.PLP.Chemscore.CHOScore>
0.0000

> <Gold.PLP.Chemscore.Metal>
0.0000

> <Gold.Chemscore.Hbonds>
donor molecule, donor type, donor heavy atom, donor atom, acceptor molecule, acceptor atom, score
      L1  H     9    34       P1  7948  0.82
      L1  H    12    35       P1  7948  0.98
      L1  H    16    51       P1 10186  2.00

> <Gold.PLP.Chemscore.Internal.Correction>
1.4178

> <Gold.Rescore>
     Score         DG    S(hbond)    S(metal)    S(lipo)     H(rot)  DE(clash)    DE(int)     intcor
     16.59     -20.91       2.18        0.00      98.56       1.32       1.65       2.67       ----

> <Gold.Chemscore.Fitness>
16.5870

> <Gold.Chemscore.DG>
-20.9141

> <Gold.Chemscore.ZeroCoef>
-5.4800

> <Gold.Chemscore.Hbond>
2.1807

> <Gold.Chemscore.Metal>
0.0000

> <Gold.Chemscore.Lipo>
98.5589

> <Gold.Chemscore.Internal_Hbond>
0.0000

> <Gold.Chemscore.DEClash>
1.6521

> <Gold.Chemscore.DEInternal>
2.6750

> <Gold.Chemscore.Rot>
1.3207

> <Gold.Chemscore.Internal.Correction>
   9.000000E+99

> <Gold.Chemscore.Hbonds>
donor molecule, donor type, donor heavy atom, donor atom, acceptor molecule, acceptor atom, score
      L1  H     9    34       P1  7948  0.77
      L1  H    12    35       P1  7948  0.90
      L1  H    16    51       P1 10186  0.28

> <Gold.Chemscore.Hbond.Weighted>
-7.2835

> <Gold.Chemscore.Metal.Weighted>
-0.0000

> <Gold.Chemscore.Lipo.Weighted>
-11.5314

> <Gold.Chemscore.Internal_Hbond.Weighted>
0.0000

> <Gold.Chemscore.DEClash.Weighted>
1.6521

> <Gold.Chemscore.DEInternal.Weighted>
2.6750

> <Gold.Chemscore.Rot.Weighted>
3.3809

> <Gold.Chemscore.Internal.Correction.Weighted>
   9.000000E+99

> <Gold.Protein.RotatedTorsions>
[ 6907 6896 6895 6894 ] final  -25.50 input  -60.11 | X-H torsion
[ 7974 7965 7964 7962 ] final -143.28 input  175.53 | X-H torsion
[ 8008 7997 7996 7995 ] final  -16.64 input   59.86 | X-H torsion
[ 10167 10162 10161 10158 ] final -167.21 input  -65.29 | X-H torsion
[ 10718 10713 10712 10709 ] final -123.67 input   66.30 | X-H torsion
[ 10763 10752 10751 10750 ] final   44.66 input  -60.55 | X-H torsion
[ 11005 11000 10999 10996 ] final  -26.55 input  -57.11 | X-H torsion

> <Gold.Protein.ActiveResidues>
 VAL166  LYS551  ARG553  GLY616  TRP617  ASP618  TYR619  PRO620  LYS621  CYS622 
 ASP623  PHE694  ASN695  SER759  ASP760  ASP761  ALA762  ILE779  LEU786  VAL792 
 PHE793  MET794  SER795  GLU796  ALA797  LYS798  CYS799  TRP800  GLU811  SER814 

> <Gold.Protein.RotatedAtoms>
  151.1743  135.0332  159.8764 H   0  0  0  0  0  0  0  0  0  0  0  0  # atno 6907 bound_to 6896
  152.5447  134.1135  159.8379 H   0  0  0  0  0  0  0  0  0  0  0  0  # atno 6908 bound_to 6896
  151.1245  133.5034  159.2633 H   0  0  0  0  0  0  0  0  0  0  0  0  # atno 6909 bound_to 6896
  144.8381  140.5854  143.5470 H   0  0  0  0  0  0  0  0  0  0  0  0  # atno 7974 bound_to 7965
  154.5038  140.2164  155.9293 H   0  0  0  0  0  0  0  0  0  0  0  0  # atno 8008 bound_to 7997
  156.1468  140.3169  155.8549 H   0  0  0  0  0  0  0  0  0  0  0  0  # atno 8009 bound_to 7997
  155.4016  140.0484  157.3027 H   0  0  0  0  0  0  0  0  0  0  0  0  # atno 8010 bound_to 7997
  139.6064  144.0905  152.1797 H   0  0  0  0  0  0  0  0  0  0  0  0  # atno 10167 bound_to 10162
  156.1521  130.6542  150.9929 H   0  0  0  0  0  0  0  0  0  0  0  0  # atno 10718 bound_to 10713
  152.9837  135.6063  154.3311 H   0  0  0  0  0  0  0  0  0  0  0  0  # atno 10763 bound_to 10752
  154.3014  135.2773  155.2611 H   0  0  0  0  0  0  0  0  0  0  0  0  # atno 10764 bound_to 10752
  154.4861  135.5904  153.6481 H   0  0  0  0  0  0  0  0  0  0  0  0  # atno 10765 bound_to 10752
  140.9039  133.7506  156.0580 H   0  0  0  0  0  0  0  0  0  0  0  0  # atno 11005 bound_to 11000
  145.4752  139.1500  143.3792 LP  0  0  0  0  0  0  0  0  0  0  0  0  # atno 17320 bound_to 7965
  146.2677  140.4886  142.8827 LP  0  0  0  0  0  0  0  0  0  0  0  0  # atno 17321 bound_to 7965
  140.0513  144.5930  150.7334 LP  0  0  0  0  0  0  0  0  0  0  0  0  # atno 17342 bound_to 10162
  140.7288  143.2665  151.4027 LP  0  0  0  0  0  0  0  0  0  0  0  0  # atno 17343 bound_to 10162
  157.6666  131.0870  150.7714 LP  0  0  0  0  0  0  0  0  0  0  0  0  # atno 17370 bound_to 10713
  156.7782  130.4850  149.5406 LP  0  0  0  0  0  0  0  0  0  0  0  0  # atno 17371 bound_to 10713
  140.8196  134.3305  157.5386 LP  0  0  0  0  0  0  0  0  0  0  0  0  # atno 17394 bound_to 11000
  139.8746  134.9301  156.3494 LP  0  0  0  0  0  0  0  0  0  0  0  0  # atno 17395 bound_to 11000

$$$$
