AV-unprocessed.smi:104|AV-procd|sdf|999|dock9
  -GOLD-   2262017583D 1   1.00000     0.00000
 Structure written by MMmdl.
 47 49  0  0  0  0  0  0  0  0  1 V2000
  147.4660  134.7921  161.8242 C   0  0  0  0  0  0  0  0  0  0  0  0
  147.5776  135.8922  160.7769 C   0  0  0  0  0  0  0  0  0  0  0  0
  147.7113  137.0738  161.0962 O   0  0  0  0  0  0  0  0  0  0  0  0
  147.5129  135.4151  159.5251 O   0  0  0  0  0  0  0  0  0  0  0  0
  147.9889  136.2066  158.4495 C   0  0  0  0  0  0  0  0  0  0  0  0
  146.8186  136.5695  157.5290 C   0  0  2  0  0  0  0  0  0  0  0  0
  146.4529  135.4420  156.7488 O   0  0  0  0  0  0  0  0  0  0  0  0
  145.8250  135.8658  155.5810 C   0  0  2  0  0  0  0  0  0  0  0  0
  146.2846  134.9692  154.4714 N   0  0  0  0  0  0  0  0  0  0  0  0
  147.1602  133.9084  154.5168 C   0  0  0  0  0  0  0  0  0  0  0  0
  147.9925  133.3419  156.1331 Br  0  0  0  0  0  0  0  0  0  0  0  0
  147.3954  133.2819  153.3978 N   0  0  0  0  0  0  0  0  0  0  0  0
  146.6003  133.9693  152.4890 C   0  0  0  0  0  0  0  0  0  0  0  0
  146.3533  133.8378  151.0993 C   0  0  0  0  0  0  0  0  0  0  0  0
  146.9366  132.9014  150.3381 N   0  0  0  0  0  0  0  0  0  0  0  0
  145.4871  134.6966  150.5122 N   0  0  0  0  0  0  0  0  0  0  0  0
  144.8910  135.6396  151.2494 C   0  0  0  0  0  0  0  0  0  0  0  0
  145.0230  135.8874  152.5551 N   0  0  0  0  0  0  0  0  0  0  0  0
  145.8992  135.0225  153.1462 C   0  0  0  0  0  0  0  0  0  0  0  0
  146.2006  137.3452  155.3495 C   0  0  2  0  0  0  0  0  0  0  0  0
  146.8117  137.5624  154.0807 O   0  0  0  0  0  0  0  0  0  0  0  0
  146.7666  138.7727  153.5020 C   0  0  0  0  0  0  0  0  0  0  0  0
  146.7807  138.6871  151.9819 C   0  0  0  0  0  0  0  0  0  0  0  0
  146.7221  139.8554  154.0858 O   0  0  0  0  0  0  0  0  0  0  0  0
  147.1745  137.6280  156.4853 C   0  0  1  0  0  0  0  0  0  0  0  0
  146.9431  138.9391  156.9857 O   0  0  0  0  0  0  0  0  0  0  0  0
  145.7635  139.2586  157.5433 C   0  0  0  0  0  0  0  0  0  0  0  0
  145.7153  140.7104  157.9997 C   0  0  0  0  0  0  0  0  0  0  0  0
  144.8007  138.5061  157.6911 O   0  0  0  0  0  0  0  0  0  0  0  0
  148.3770  134.1937  161.8420 H   0  0  0  0  0  0  0  0  0  0  0  0
  146.6244  134.1368  161.5993 H   0  0  0  0  0  0  0  0  0  0  0  0
  147.3133  135.2203  162.8150 H   0  0  0  0  0  0  0  0  0  0  0  0
  148.4372  137.1141  158.8561 H   0  0  0  0  0  0  0  0  0  0  0  0
  148.7640  135.6789  157.8917 H   0  0  0  0  0  0  0  0  0  0  0  0
  145.9503  136.8946  158.1054 H   0  0  0  0  0  0  0  0  0  0  0  0
  144.7495  135.7096  155.6569 H   0  0  0  0  0  0  0  0  0  0  0  0
  147.5859  132.2481  150.7525 H   0  0  0  0  0  0  0  0  0  0  0  0
  146.7303  132.8536  149.3509 H   0  0  0  0  0  0  0  0  0  0  0  0
  144.2116  136.2891  150.7174 H   0  0  0  0  0  0  0  0  0  0  0  0
  145.2855  137.9292  155.4613 H   0  0  0  0  0  0  0  0  0  0  0  0
  145.8642  138.2199  151.6212 H   0  0  0  0  0  0  0  0  0  0  0  0
  147.6296  138.0927  151.6439 H   0  0  0  0  0  0  0  0  0  0  0  0
  146.8592  139.6819  151.5429 H   0  0  0  0  0  0  0  0  0  0  0  0
  148.1961  137.4765  156.1314 H   0  0  0  0  0  0  0  0  0  0  0  0
  145.7700  141.3787  157.1405 H   0  0  0  0  0  0  0  0  0  0  0  0
  146.5528  140.9272  158.6628 H   0  0  0  0  0  0  0  0  0  0  0  0
  144.7884  140.9124  158.5369 H   0  0  0  0  0  0  0  0  0  0  0  0
  1  2  1  0  0  0  0
  1 30  1  0  0  0  0
  1 31  1  0  0  0  0
  1 32  1  0  0  0  0
  2  3  2  0  0  0  0
  2  4  1  0  0  0  0
  4  5  1  0  0  0  0
  5  6  1  0  0  0  0
  5 33  1  0  0  0  0
  5 34  1  0  0  0  0
  6 25  1  0  0  0  0
  6  7  1  0  0  0  0
  6 35  1  0  0  0  0
  7  8  1  0  0  0  0
  8  9  1  0  0  0  0
  8 20  1  0  0  0  0
  8 36  1  0  0  0  0
  9 19  1  0  0  0  0
  9 10  1  0  0  0  0
 10 11  1  0  0  0  0
 10 12  2  0  0  0  0
 12 13  1  0  0  0  0
 13 19  2  0  0  0  0
 13 14  1  0  0  0  0
 14 15  1  0  0  0  0
 14 16  2  0  0  0  0
 15 37  1  0  0  0  0
 15 38  1  0  0  0  0
 16 17  1  0  0  0  0
 17 18  2  0  0  0  0
 17 39  1  0  0  0  0
 18 19  1  0  0  0  0
 20 21  1  0  0  0  0
 20 25  1  0  0  0  0
 20 40  1  0  0  0  0
 21 22  1  0  0  0  0
 22 23  1  0  0  0  0
 22 24  2  0  0  0  0
 23 41  1  0  0  0  0
 23 42  1  0  0  0  0
 23 43  1  0  0  0  0
 25 26  1  0  0  0  0
 25 44  1  0  0  0  0
 26 27  1  0  0  0  0
 27 28  1  0  0  0  0
 27 29  2  0  0  0  0
 28 45  1  0  0  0  0
 28 46  1  0  0  0  0
 28 47  1  0  0  0  0
M  END
> <s_m_source_file>
AV-unprocessed.smi

> <i_m_source_file_index>
104

> <i_lp_mmshare_version>
43012

> <i_f3d_flags>
0

> <s_epik_input>
W0NIM11DKD1PKU9bQ0gyXVtDQEBIXTFPW0NASF0oW0NAQEhdKE9DKD1PKVtDSDNdKVtDQEhdMU9DKD1PKVtDSDNdKW4oYyhCciluMiljKGMyMyluW2NIXW5jM1tOSDJd

> <s_epik_cmdline>
J2VwaWtfcHl0aG9uJywgJy1waCcsICc3LjAnLCAnLXRuJywgJzgnLCAnLW1hJywgJzIwMCcsICctbWV0YWxfYmluZGluZycsICctaW1hZScsICc8aW5maWxlLm1hZT4nLCAnLW9tYWUnLCAnPG91dGZpbGUubWFlPic=

> <r_lp_tautomer_probability>
1

> <r_epik_Ionization_Penalty>
7.36622e-05

> <r_epik_Ionization_Penalty_Charging>
0

> <r_epik_Ionization_Penalty_Neutral>
7.36622e-05

> <r_epik_State_Penalty>
-0

> <r_epik_Charging_Adjusted_Penalty>
0

> <i_epik_Tot_Q>
0

> <i_epik_Tot_abs_Q>
0

> <r_epik_Metal_State_Penalty>
-0

> <b_epik_Metal_Only>
0

> <s_epik_Chemistry_Notes>
This compound has an ester and may undergo hydrolysis at high or low pH. This compound contains an acetal/aminal-like group ( X-CH(R)-Y where X, Y are N, S, or O) that may be acid/base labile, releasing an aldehyde.

> <s_lp_Force_Field>
OPLS_2005

> <r_lp_Energy>
16.6292

> <b_lp_Chiralities_Consistent>
1

> <s_lp_Variant>
AV-unprocessed.smi:104-7

> <Gold.Version>
5.8.1

> <Gold.Id.Protein>
6NUR|6NUR_protein|mol2

> <Gold.PLP.Fitness>
33.0462

> <Gold.PLP.PLP>
-24.7196

> <Gold.PLP.part.hbond>
-3.0000

> <Gold.PLP.part.metal>
0.0000

> <Gold.PLP.part.buried>
-5.1721

> <Gold.PLP.part.nonpolar>
-18.1758

> <Gold.PLP.part.repulsive>
1.9311

> <Gold.PLP.ligand.clash>
0.0000

> <Gold.PLP.ligand.torsion>
1.4285

> <Gold.PLP.Chemscore.Hbond>
2.7040

> <Gold.PLP.Chemscore.CHOScore>
1.0000

> <Gold.PLP.Chemscore.Metal>
0.0000

> <Gold.Chemscore.Hbonds>
donor molecule, donor type, donor heavy atom, donor atom, acceptor molecule, acceptor atom, score
      L1  H    15    37       P1 10747  0.83
      P1  H  6931  6943       L1     3  0.98
      P1  H  6934  6947       L1     3  0.88
      L1  C    17    39       P1 10171  1.00

> <Gold.PLP.Chemscore.Internal.Correction>
0.0715

> <Gold.Rescore>
     Score         DG    S(hbond)    S(metal)    S(lipo)     H(rot)  DE(clash)    DE(int)     intcor
     -1.27      -6.28       2.58        0.00      27.45       4.31       0.35       7.20       ----

> <Gold.Chemscore.Fitness>
-1.2702

> <Gold.Chemscore.DG>
-6.2777

> <Gold.Chemscore.ZeroCoef>
-5.4800

> <Gold.Chemscore.Hbond>
2.5784

> <Gold.Chemscore.Metal>
0.0000

> <Gold.Chemscore.Lipo>
27.4510

> <Gold.Chemscore.Internal_Hbond>
0.0000

> <Gold.Chemscore.DEClash>
0.3486

> <Gold.Chemscore.DEInternal>
7.1994

> <Gold.Chemscore.Rot>
4.3070

> <Gold.Chemscore.Internal.Correction>
   9.000000E+99

> <Gold.Chemscore.Hbonds>
donor molecule, donor type, donor heavy atom, donor atom, acceptor molecule, acceptor atom, score
      L1  H    15    37       P1 10747  0.79
      P1  H  6931  6943       L1     3  0.93
      P1  H  6934  6947       L1     3  0.82

> <Gold.Chemscore.Hbond.Weighted>
-8.6118

> <Gold.Chemscore.Metal.Weighted>
-0.0000

> <Gold.Chemscore.Lipo.Weighted>
-3.2118

> <Gold.Chemscore.Internal_Hbond.Weighted>
0.0000

> <Gold.Chemscore.DEClash.Weighted>
0.3486

> <Gold.Chemscore.DEInternal.Weighted>
7.1994

> <Gold.Chemscore.Rot.Weighted>
11.0259

> <Gold.Chemscore.Internal.Correction.Weighted>
   9.000000E+99

> <Gold.Protein.RotatedTorsions>
[ 6907 6896 6895 6894 ] final  155.95 input  -60.11 | X-H torsion
[ 7974 7965 7964 7962 ] final   90.52 input  175.53 | X-H torsion
[ 8008 7997 7996 7995 ] final -173.00 input   59.86 | X-H torsion
[ 10167 10162 10161 10158 ] final  172.56 input  -65.29 | X-H torsion
[ 10718 10713 10712 10709 ] final   -8.56 input   66.30 | X-H torsion
[ 10763 10752 10751 10750 ] final  168.39 input  -60.55 | X-H torsion
[ 11005 11000 10999 10996 ] final   94.41 input  -57.11 | X-H torsion

> <Gold.Protein.ActiveResidues>
 VAL166  LYS551  ARG553  GLY616  TRP617  ASP618  TYR619  PRO620  LYS621  CYS622 
 ASP623  PHE694  ASN695  SER759  ASP760  ASP761  ALA762  ILE779  LEU786  VAL792 
 PHE793  MET794  SER795  GLU796  ALA797  LYS798  CYS799  TRP800  GLU811  SER814 

> <Gold.Protein.RotatedAtoms>
  152.0367  133.3960  159.4319 H   0  0  0  0  0  0  0  0  0  0  0  0  # atno 6907 bound_to 6896
  150.6878  134.3460  159.4898 H   0  0  0  0  0  0  0  0  0  0  0  0  # atno 6908 bound_to 6896
  152.1254  134.9174  160.0612 H   0  0  0  0  0  0  0  0  0  0  0  0  # atno 6909 bound_to 6896
  145.5179  139.2278  143.2688 H   0  0  0  0  0  0  0  0  0  0  0  0  # atno 7974 bound_to 7965
  155.9518  140.1128  157.0970 H   0  0  0  0  0  0  0  0  0  0  0  0  # atno 8008 bound_to 7997
  154.4111  140.1199  156.5129 H   0  0  0  0  0  0  0  0  0  0  0  0  # atno 8009 bound_to 7997
  155.6832  140.3473  155.4866 H   0  0  0  0  0  0  0  0  0  0  0  0  # atno 8010 bound_to 7997
  139.5080  144.3360  152.0065 H   0  0  0  0  0  0  0  0  0  0  0  0  # atno 10167 bound_to 10162
  156.7008  130.5092  149.5918 H   0  0  0  0  0  0  0  0  0  0  0  0  # atno 10718 bound_to 10713
  154.3678  135.2753  155.2283 H   0  0  0  0  0  0  0  0  0  0  0  0  # atno 10763 bound_to 10752
  154.4444  135.5946  153.6153 H   0  0  0  0  0  0  0  0  0  0  0  0  # atno 10764 bound_to 10752
  152.9840  135.6026  154.3906 H   0  0  0  0  0  0  0  0  0  0  0  0  # atno 10765 bound_to 10752
  139.8799  134.8843  156.3860 H   0  0  0  0  0  0  0  0  0  0  0  0  # atno 11005 bound_to 11000
  146.2125  140.5989  142.9053 LP  0  0  0  0  0  0  0  0  0  0  0  0  # atno 17320 bound_to 7965
  144.7692  140.5599  143.6682 LP  0  0  0  0  0  0  0  0  0  0  0  0  # atno 17321 bound_to 7965
  140.2799  144.3871  150.6122 LP  0  0  0  0  0  0  0  0  0  0  0  0  # atno 17342 bound_to 10162
  140.6026  143.2167  151.7043 LP  0  0  0  0  0  0  0  0  0  0  0  0  # atno 17343 bound_to 10162
  156.1730  130.6449  151.0861 LP  0  0  0  0  0  0  0  0  0  0  0  0  # atno 17370 bound_to 10713
  157.6974  131.0789  150.6927 LP  0  0  0  0  0  0  0  0  0  0  0  0  # atno 17371 bound_to 10713
  140.9366  133.7543  156.0092 LP  0  0  0  0  0  0  0  0  0  0  0  0  # atno 17394 bound_to 11000
  140.8269  134.3224  157.5362 LP  0  0  0  0  0  0  0  0  0  0  0  0  # atno 17395 bound_to 11000

$$$$
