AV-unprocessed.smi:224|AV-procd|sdf|1720|dock6
  -GOLD-   2262020193D 1   1.00000     0.00000
 Structure written by MMmdl.
 56 59  0  0  0  0  0  0  0  0  2 V2000
  144.2478  134.5626  150.5461 C   0  0  0  0  0  0  0  0  0  0  0  0
  143.6963  133.3547  151.3147 C   0  0  1  0  0  0  0  0  0  0  0  0
  142.8038  132.6693  150.4591 O   0  0  0  0  0  0  0  0  0  0  0  0
  144.8216  132.3978  151.7574 C   0  0  0  0  0  0  0  0  0  0  0  0
  145.1916  132.5623  153.1879 N   0  3  2  0  0  0  0  0  0  0  0  0
  145.4688  133.9706  153.5809 C   0  0  0  0  0  0  0  0  0  0  0  0
  145.6984  134.0831  155.0988 C   0  0  0  0  0  0  0  0  0  0  0  0
  146.7270  133.1478  155.5499 N   0  0  0  0  0  0  0  0  0  0  0  0
  148.0229  133.5571  155.6132 C   0  0  0  0  0  0  0  0  0  0  0  0
  149.0190  132.6316  155.6404 N   0  0  0  0  0  0  0  0  0  0  0  0
  150.2969  133.0114  155.7250 C   0  0  0  0  0  0  0  0  0  0  0  0
  150.7963  134.2461  155.7859 N   0  0  0  0  0  0  0  0  0  0  0  0
  149.8071  135.1832  155.7386 C   0  0  0  0  0  0  0  0  0  0  0  0
  148.4082  134.9285  155.6562 C   0  0  0  0  0  0  0  0  0  0  0  0
  147.7135  136.1325  155.6253 N   0  0  0  0  0  0  0  0  0  0  0  0
  148.6452  137.0431  155.6983 C   0  0  0  0  0  0  0  0  0  0  0  0
  149.9330  136.5613  155.7569 N   0  0  0  0  0  0  0  0  0  0  0  0
  151.1540  137.3481  155.8379 C   0  0  0  0  0  0  0  0  0  0  0  0
  151.5825  137.9858  154.4911 C   0  0  2  0  0  0  0  0  0  0  0  0
  151.8657  136.9691  153.5488 O   0  0  0  0  0  0  0  0  0  0  0  0
  152.7974  138.8861  154.6449 C   0  0  0  0  0  0  0  0  0  0  0  0
  152.1821  140.2191  155.0661 C   0  0  0  0  0  0  0  0  0  0  0  0
  150.8660  140.2353  154.5208 O   0  0  0  0  0  0  0  0  0  0  0  0
  150.5701  138.9825  153.9121 C   0  0  0  0  0  0  0  0  0  0  0  0
  146.4818  131.7569  155.1719 C   0  0  0  0  0  0  0  0  0  0  0  0
  146.2414  131.6068  153.6529 C   0  0  2  0  0  0  0  0  0  0  0  0
  147.5530  131.6964  152.8427 C   0  0  0  0  0  0  0  0  0  0  0  0
  144.9294  135.1439  151.1676 H   0  0  0  0  0  0  0  0  0  0  0  0
  143.4440  135.2285  150.2298 H   0  0  0  0  0  0  0  0  0  0  0  0
  144.7935  134.2529  149.6539 H   0  0  0  0  0  0  0  0  0  0  0  0
  143.1358  133.7243  152.1726 H   0  0  0  0  0  0  0  0  0  0  0  0
  142.1837  133.2856  150.1016 H   0  0  0  0  0  0  0  0  0  0  0  0
  144.4919  131.3731  151.5770 H   0  0  0  0  0  0  0  0  0  0  0  0
  145.7094  132.5455  151.1403 H   0  0  0  0  0  0  0  0  0  0  0  0
  146.3365  134.3424  153.0354 H   0  0  0  0  0  0  0  0  0  0  0  0
  144.6348  134.6145  153.3058 H   0  0  0  0  0  0  0  0  0  0  0  0
  145.9428  135.1083  155.3799 H   0  0  0  0  0  0  0  0  0  0  0  0
  144.7737  133.8426  155.6247 H   0  0  0  0  0  0  0  0  0  0  0  0
  151.0232  132.2123  155.7473 H   0  0  0  0  0  0  0  0  0  0  0  0
  148.4179  138.0995  155.7021 H   0  0  0  0  0  0  0  0  0  0  0  0
  151.0051  138.1197  156.5940 H   0  0  0  0  0  0  0  0  0  0  0  0
  151.9485  136.7037  156.2167 H   0  0  0  0  0  0  0  0  0  0  0  0
  151.4365  137.1851  152.7352 H   0  0  0  0  0  0  0  0  0  0  0  0
  153.5340  138.5110  155.3563 H   0  0  0  0  0  0  0  0  0  0  0  0
  153.2998  139.0155  153.6845 H   0  0  0  0  0  0  0  0  0  0  0  0
  152.1095  140.2839  156.1522 H   0  0  0  0  0  0  0  0  0  0  0  0
  152.7658  141.0710  154.7168 H   0  0  0  0  0  0  0  0  0  0  0  0
  150.7249  139.1009  152.8384 H   0  0  0  0  0  0  0  0  0  0  0  0
  149.5286  138.6983  154.0564 H   0  0  0  0  0  0  0  0  0  0  0  0
  147.2864  131.0930  155.4829 H   0  0  0  0  0  0  0  0  0  0  0  0
  145.5956  131.4225  155.7123 H   0  0  0  0  0  0  0  0  0  0  0  0
  145.8463  130.6018  153.4988 H   0  0  0  0  0  0  0  0  0  0  0  0
  148.2942  130.9977  153.2317 H   0  0  0  0  0  0  0  0  0  0  0  0
  147.9957  132.6909  152.8791 H   0  0  0  0  0  0  0  0  0  0  0  0
  147.3992  131.4436  151.7937 H   0  0  0  0  0  0  0  0  0  0  0  0
  144.3659  132.2969  153.7053 H   0  0  0  0  0  0  0  0  0  0  0  0
  1  2  1  0  0  0  0
  1 28  1  0  0  0  0
  1 29  1  0  0  0  0
  1 30  1  0  0  0  0
  2  3  1  0  0  0  0
  2  4  1  0  0  0  0
  2 31  1  0  0  0  0
  3 32  1  0  0  0  0
  4  5  1  0  0  0  0
  4 33  1  0  0  0  0
  4 34  1  0  0  0  0
  5 26  1  0  0  0  0
  5  6  1  0  0  0  0
  5 56  1  0  0  0  0
  6  7  1  0  0  0  0
  6 35  1  0  0  0  0
  6 36  1  0  0  0  0
  7  8  1  0  0  0  0
  7 37  1  0  0  0  0
  7 38  1  0  0  0  0
  8  9  1  0  0  0  0
  8 25  1  0  0  0  0
  9 14  1  0  0  0  0
  9 10  2  0  0  0  0
 10 11  1  0  0  0  0
 11 12  2  0  0  0  0
 11 39  1  0  0  0  0
 12 13  1  0  0  0  0
 13 17  1  0  0  0  0
 13 14  2  0  0  0  0
 14 15  1  0  0  0  0
 15 16  2  0  0  0  0
 16 17  1  0  0  0  0
 16 40  1  0  0  0  0
 17 18  1  0  0  0  0
 18 19  1  0  0  0  0
 18 41  1  0  0  0  0
 18 42  1  0  0  0  0
 19 24  1  0  0  0  0
 19 20  1  0  0  0  0
 19 21  1  0  0  0  0
 20 43  1  0  0  0  0
 21 22  1  0  0  0  0
 21 44  1  0  0  0  0
 21 45  1  0  0  0  0
 22 23  1  0  0  0  0
 22 46  1  0  0  0  0
 22 47  1  0  0  0  0
 23 24  1  0  0  0  0
 24 48  1  0  0  0  0
 24 49  1  0  0  0  0
 25 26  1  0  0  0  0
 25 50  1  0  0  0  0
 25 51  1  0  0  0  0
 26 27  1  0  0  0  0
 26 52  1  0  0  0  0
 27 53  1  0  0  0  0
 27 54  1  0  0  0  0
 27 55  1  0  0  0  0
M  CHG  1   5   1
M  END
> <s_m_source_file>
AV-unprocessed.smi

> <i_m_source_file_index>
224

> <i_lp_mmshare_version>
43012

> <i_f3d_flags>
0

> <s_epik_input>
W0NIM11bQ0BIXShbT0hdKVtDSDJdTjFbQ0gyXVtDSDJdTihbQ0gyXVtDQEhdMVtDSDNdKWMobltjSF1uMiljKGMyMyluW2NIXW4zW0NIMl1bQ0BAXTQoW09IXSlbQ0gyXVtDSDJdT1tDSDJdNA==

> <s_epik_cmdline>
J2VwaWtfcHl0aG9uJywgJy1waCcsICc3LjAnLCAnLXRuJywgJzgnLCAnLW1hJywgJzIwMCcsICctbWV0YWxfYmluZGluZycsICctaW1hZScsICc8aW5maWxlLm1hZT4nLCAnLW9tYWUnLCAnPG91dGZpbGUubWFlPic=

> <r_lp_tautomer_probability>
1

> <r_epik_Ionization_Penalty>
0.00516958

> <r_epik_Ionization_Penalty_Charging>
0.00509693

> <r_epik_Ionization_Penalty_Neutral>
7.26542e-05

> <r_epik_State_Penalty>
-0

> <r_epik_Charging_Adjusted_Penalty>
0.00509693

> <i_epik_Tot_Q>
1

> <i_epik_Tot_abs_Q>
1

> <r_epik_Metal_State_Penalty>
-0

> <b_epik_Metal_Only>
0

> <s_lp_Force_Field>
OPLS_2005

> <r_lp_Energy>
52.1704

> <b_lp_Chiralities_Consistent>
1

> <s_lp_Variant>
AV-unprocessed.smi:224-14

> <Gold.Version>
5.8.1

> <Gold.Id.Protein>
6NUR|6NUR_protein|mol2

> <Gold.PLP.Fitness>
47.7088

> <Gold.PLP.PLP>
-34.6512

> <Gold.PLP.part.hbond>
-5.2123

> <Gold.PLP.part.metal>
0.0000

> <Gold.PLP.part.buried>
-5.2425

> <Gold.PLP.part.nonpolar>
-23.8514

> <Gold.PLP.part.repulsive>
0.0980

> <Gold.PLP.ligand.clash>
0.0000

> <Gold.PLP.ligand.torsion>
0.9572

> <Gold.PLP.Chemscore.Hbond>
4.8810

> <Gold.PLP.Chemscore.CHOScore>
0.0000

> <Gold.PLP.Chemscore.Metal>
0.0000

> <Gold.Chemscore.Hbonds>
donor molecule, donor type, donor heavy atom, donor atom, acceptor molecule, acceptor atom, score
      L1  H     3    32       P1 10186  1.00
      L1  H     5    56       P1 10957  1.64
      L1  H    20    43       P1  7949  0.45
      P1  H 10752 10765       L1    20  0.96

> <Gold.PLP.Chemscore.Internal.Correction>
0.3290

> <Gold.Rescore>
     Score         DG    S(hbond)    S(metal)    S(lipo)     H(rot)  DE(clash)    DE(int)     intcor
     13.37     -15.53       2.86        0.00      70.30       3.02       0.07       2.09       ----

> <Gold.Chemscore.Fitness>
13.3672

> <Gold.Chemscore.DG>
-15.5285

> <Gold.Chemscore.ZeroCoef>
-5.4800

> <Gold.Chemscore.Hbond>
2.8630

> <Gold.Chemscore.Metal>
0.0000

> <Gold.Chemscore.Lipo>
70.3001

> <Gold.Chemscore.Internal_Hbond>
0.0000

> <Gold.Chemscore.DEClash>
0.0684

> <Gold.Chemscore.DEInternal>
2.0929

> <Gold.Chemscore.Rot>
3.0231

> <Gold.Chemscore.Internal.Correction>
   9.000000E+99

> <Gold.Chemscore.Hbonds>
donor molecule, donor type, donor heavy atom, donor atom, acceptor molecule, acceptor atom, score
      L1  H     3    32       P1 10186  1.00
      L1  H     5    56       P1 10957  0.16
      L1  H    20    43       P1  7949  0.39
      P1  H 10752 10765       L1    20  0.72

> <Gold.Chemscore.Hbond.Weighted>
-9.5625

> <Gold.Chemscore.Metal.Weighted>
-0.0000

> <Gold.Chemscore.Lipo.Weighted>
-8.2251

> <Gold.Chemscore.Internal_Hbond.Weighted>
0.0000

> <Gold.Chemscore.DEClash.Weighted>
0.0684

> <Gold.Chemscore.DEInternal.Weighted>
2.0929

> <Gold.Chemscore.Rot.Weighted>
7.7391

> <Gold.Chemscore.Internal.Correction.Weighted>
   9.000000E+99

> <Gold.Protein.RotatedTorsions>
[ 6907 6896 6895 6894 ] final   -5.61 input  -60.11 | X-H torsion
[ 7974 7965 7964 7962 ] final  -11.59 input  175.53 | X-H torsion
[ 8008 7997 7996 7995 ] final   -0.35 input   59.86 | X-H torsion
[ 10167 10162 10161 10158 ] final -173.67 input  -65.29 | X-H torsion
[ 10718 10713 10712 10709 ] final   93.42 input   66.30 | X-H torsion
[ 10763 10752 10751 10750 ] final  163.78 input  -60.55 | X-H torsion
[ 11005 11000 10999 10996 ] final -142.68 input  -57.11 | X-H torsion

> <Gold.Protein.ActiveResidues>
 VAL166  LYS551  ARG553  GLY616  TRP617  ASP618  TYR619  PRO620  LYS621  CYS622 
 ASP623  PHE694  ASN695  SER759  ASP760  ASP761  ALA762  ILE779  LEU786  VAL792 
 PHE793  MET794  SER795  GLU796  ALA797  LYS798  CYS799  TRP800  GLU811  SER814 

> <Gold.Protein.RotatedAtoms>
  151.4788  135.1051  159.9771 H   0  0  0  0  0  0  0  0  0  0  0  0  # atno 6907 bound_to 6896
  152.4787  133.8198  159.7058 H   0  0  0  0  0  0  0  0  0  0  0  0  # atno 6908 bound_to 6896
  150.8843  133.7267  159.2949 H   0  0  0  0  0  0  0  0  0  0  0  0  # atno 6909 bound_to 6896
  146.2182  140.2933  142.8370 H   0  0  0  0  0  0  0  0  0  0  0  0  # atno 7974 bound_to 7965
  154.6590  140.2586  155.7129 H   0  0  0  0  0  0  0  0  0  0  0  0  # atno 8008 bound_to 7997
  156.2610  140.2852  156.0976 H   0  0  0  0  0  0  0  0  0  0  0  0  # atno 8009 bound_to 7997
  155.1336  140.0379  157.2771 H   0  0  0  0  0  0  0  0  0  0  0  0  # atno 8010 bound_to 7997
  139.5675  144.1720  152.1335 H   0  0  0  0  0  0  0  0  0  0  0  0  # atno 10167 bound_to 10162
  157.6954  131.0477  150.4031 H   0  0  0  0  0  0  0  0  0  0  0  0  # atno 10718 bound_to 10713
  154.2989  135.2759  155.2620 H   0  0  0  0  0  0  0  0  0  0  0  0  # atno 10763 bound_to 10752
  154.5066  135.5794  153.6575 H   0  0  0  0  0  0  0  0  0  0  0  0  # atno 10764 bound_to 10752
  152.9903  135.6171  154.3159 H   0  0  0  0  0  0  0  0  0  0  0  0  # atno 10765 bound_to 10752
  140.8201  134.2641  157.4904 H   0  0  0  0  0  0  0  0  0  0  0  0  # atno 11005 bound_to 11000
  144.9111  140.7758  143.5807 LP  0  0  0  0  0  0  0  0  0  0  0  0  # atno 17320 bound_to 7965
  145.2864  139.1899  143.4764 LP  0  0  0  0  0  0  0  0  0  0  0  0  # atno 17321 bound_to 7965
  140.1246  144.5343  150.6841 LP  0  0  0  0  0  0  0  0  0  0  0  0  # atno 17342 bound_to 10162
  140.6959  143.2404  151.5001 LP  0  0  0  0  0  0  0  0  0  0  0  0  # atno 17343 bound_to 10162
  156.4422  130.3994  149.6690 LP  0  0  0  0  0  0  0  0  0  0  0  0  # atno 17370 bound_to 10713
  156.3869  130.7607  151.2605 LP  0  0  0  0  0  0  0  0  0  0  0  0  # atno 17371 bound_to 10713
  139.8709  134.9530  156.4133 LP  0  0  0  0  0  0  0  0  0  0  0  0  # atno 17394 bound_to 11000
  140.9108  133.7713  155.9789 LP  0  0  0  0  0  0  0  0  0  0  0  0  # atno 17395 bound_to 11000

$$$$
