AV-unprocessed.smi:2225|AV-procd|sdf|8999|dock3
  -GOLD-   2272012203D 1   1.00000     0.00000
 Structure written by MMmdl.
 33 34  0  0  0  0  0  0  0  0  1 V2000
  150.3569  141.1029  158.2949 O   0  0  0  0  0  0  0  0  0  0  0  0
  150.4061  142.1601  157.6672 C   0  0  0  0  0  0  0  0  0  0  0  0
  151.1461  143.3598  158.2845 C   0  0  0  0  0  0  0  0  0  0  0  0
  151.9346  143.0552  159.4932 N   0  0  0  0  0  0  0  0  0  0  0  0
  151.7895  143.9325  160.5827 C   0  0  0  0  0  0  0  0  0  0  0  0
  152.4620  143.7533  161.7275 C   0  0  0  0  0  0  0  0  0  0  0  0
  153.3567  142.6258  161.8235 C   0  0  0  0  0  0  0  0  0  0  0  0
  153.5122  141.7606  160.7949 C   0  0  0  0  0  0  0  0  0  0  0  0
  154.4593  140.5655  160.8778 C   0  0  0  0  0  0  0  0  0  0  0  0
  153.8160  139.4385  160.5705 F   0  0  0  0  0  0  0  0  0  0  0  0
  155.4758  140.7106  160.0269 F   0  0  0  0  0  0  0  0  0  0  0  0
  154.9703  140.4229  162.1016 F   0  0  0  0  0  0  0  0  0  0  0  0
  152.7589  141.9628  159.5403 C   0  0  0  0  0  0  0  0  0  0  0  0
  152.8540  141.1935  158.5827 O   0  0  0  0  0  0  0  0  0  0  0  0
  149.8395  142.3120  156.4585 N   0  0  0  0  0  0  0  0  0  0  0  0
  149.0985  141.2794  155.7413 C   0  0  2  0  0  0  0  0  0  0  0  0
  148.7311  141.7145  154.3226 C   0  0  0  0  0  0  0  0  0  0  0  0
  147.2443  141.3938  154.2180 C   0  0  0  0  0  0  0  0  0  0  0  0
  146.7798  141.5962  155.5407 O   0  0  0  0  0  0  0  0  0  0  0  0
  147.7417  141.0195  156.4115 C   0  0  0  0  0  0  0  0  0  0  0  0
  151.7841  143.8033  157.5178 H   0  0  0  0  0  0  0  0  0  0  0  0
  150.4057  144.1295  158.5069 H   0  0  0  0  0  0  0  0  0  0  0  0
  151.0974  144.7482  160.4301 H   0  0  0  0  0  0  0  0  0  0  0  0
  152.3367  144.4342  162.5567 H   0  0  0  0  0  0  0  0  0  0  0  0
  153.9068  142.4851  162.7419 H   0  0  0  0  0  0  0  0  0  0  0  0
  149.9256  143.2088  156.0025 H   0  0  0  0  0  0  0  0  0  0  0  0
  149.6757  140.3531  155.7275 H   0  0  0  0  0  0  0  0  0  0  0  0
  148.8771  142.7882  154.1936 H   0  0  0  0  0  0  0  0  0  0  0  0
  149.3210  141.2059  153.5595 H   0  0  0  0  0  0  0  0  0  0  0  0
  146.7240  142.0321  153.5037 H   0  0  0  0  0  0  0  0  0  0  0  0
  147.0887  140.3529  153.9299 H   0  0  0  0  0  0  0  0  0  0  0  0
  147.5539  139.9470  156.4815 H   0  0  0  0  0  0  0  0  0  0  0  0
  147.6633  141.4362  157.4165 H   0  0  0  0  0  0  0  0  0  0  0  0
  1  2  2  0  0  0  0
  2  3  1  0  0  0  0
  2 15  1  0  0  0  0
  3  4  1  0  0  0  0
  3 21  1  0  0  0  0
  3 22  1  0  0  0  0
  4 13  1  0  0  0  0
  4  5  1  0  0  0  0
  5  6  2  0  0  0  0
  5 23  1  0  0  0  0
  6  7  1  0  0  0  0
  6 24  1  0  0  0  0
  7  8  2  0  0  0  0
  7 25  1  0  0  0  0
  8  9  1  0  0  0  0
  8 13  1  0  0  0  0
  9 10  1  0  0  0  0
  9 11  1  0  0  0  0
  9 12  1  0  0  0  0
 13 14  2  0  0  0  0
 15 16  1  0  0  0  0
 15 26  1  0  0  0  0
 16 20  1  0  0  0  0
 16 17  1  0  0  0  0
 16 27  1  0  0  0  0
 17 18  1  0  0  0  0
 17 28  1  0  0  0  0
 17 29  1  0  0  0  0
 18 19  1  0  0  0  0
 18 30  1  0  0  0  0
 18 31  1  0  0  0  0
 19 20  1  0  0  0  0
 20 32  1  0  0  0  0
 20 33  1  0  0  0  0
M  END
> <s_m_source_file>
AV-unprocessed.smi

> <i_m_source_file_index>
2225

> <i_lp_mmshare_version>
43012

> <i_f3d_flags>
0

> <s_epik_input>
W0NIMl0xT1tDSDJdW0NIMl1bQ0BIXTFbTkhdQyg9TylbQ0gyXW4yW2NIXVtjSF1bY0hdYyhDKEYpKEYpRiljMj1P

> <s_epik_cmdline>
J2VwaWtfcHl0aG9uJywgJy1waCcsICc3LjAnLCAnLXRuJywgJzgnLCAnLW1hJywgJzIwMCcsICctbWV0YWxfYmluZGluZycsICctaW1hZScsICc8aW5maWxlLm1hZT4nLCAnLW9tYWUnLCAnPG91dGZpbGUubWFlPic=

> <r_lp_tautomer_probability>
1

> <r_epik_Ionization_Penalty>
3.32109e-08

> <r_epik_Ionization_Penalty_Charging>
1.91399e-09

> <r_epik_Ionization_Penalty_Neutral>
3.1297e-08

> <r_epik_State_Penalty>
-0

> <r_epik_Charging_Adjusted_Penalty>
1.91399e-09

> <i_epik_Tot_Q>
0

> <i_epik_Tot_abs_Q>
0

> <r_epik_Metal_State_Penalty>
-0

> <b_epik_Metal_Only>
0

> <s_lp_Force_Field>
OPLS_2005

> <r_lp_Energy>
26.4099

> <b_lp_Chiralities_Consistent>
1

> <s_lp_Variant>
AV-unprocessed.smi:2225-1

> <Gold.Version>
5.8.1

> <Gold.Id.Protein>
6NUR|6NUR_protein|mol2

> <Gold.PLP.Fitness>
45.0550

> <Gold.PLP.PLP>
-43.4552

> <Gold.PLP.part.hbond>
-1.0000

> <Gold.PLP.part.metal>
0.0000

> <Gold.PLP.part.buried>
-2.8723

> <Gold.PLP.part.nonpolar>
-38.6031

> <Gold.PLP.part.repulsive>
0.1756

> <Gold.PLP.ligand.clash>
0.1888

> <Gold.PLP.ligand.torsion>
0.4596

> <Gold.PLP.Chemscore.Hbond>
0.7840

> <Gold.PLP.Chemscore.CHOScore>
0.0000

> <Gold.PLP.Chemscore.Metal>
0.0000

> <Gold.Chemscore.Hbonds>
donor molecule, donor type, donor heavy atom, donor atom, acceptor molecule, acceptor atom, score
      L1  H    15    26       P1  8028  0.78

> <Gold.PLP.Chemscore.Internal.Correction>
0.3558

> <Gold.Rescore>
     Score         DG    S(hbond)    S(metal)    S(lipo)     H(rot)  DE(clash)    DE(int)     intcor
      7.94     -14.40       0.94        0.00      85.12       1.64       0.10       6.36       ----

> <Gold.Chemscore.Fitness>
7.9381

> <Gold.Chemscore.DG>
-14.3966

> <Gold.Chemscore.ZeroCoef>
-5.4800

> <Gold.Chemscore.Hbond>
0.9440

> <Gold.Chemscore.Metal>
0.0000

> <Gold.Chemscore.Lipo>
85.1205

> <Gold.Chemscore.Internal_Hbond>
0.0000

> <Gold.Chemscore.DEClash>
0.1008

> <Gold.Chemscore.DEInternal>
6.3578

> <Gold.Chemscore.Rot>
1.6389

> <Gold.Chemscore.Internal.Correction>
   9.000000E+99

> <Gold.Chemscore.Hbonds>
donor molecule, donor type, donor heavy atom, donor atom, acceptor molecule, acceptor atom, score
      L1  H    15    26       P1  8028  0.80

> <Gold.Chemscore.Hbond.Weighted>
-3.1531

> <Gold.Chemscore.Metal.Weighted>
-0.0000

> <Gold.Chemscore.Lipo.Weighted>
-9.9591

> <Gold.Chemscore.Internal_Hbond.Weighted>
0.0000

> <Gold.Chemscore.DEClash.Weighted>
0.1008

> <Gold.Chemscore.DEInternal.Weighted>
6.3578

> <Gold.Chemscore.Rot.Weighted>
4.1956

> <Gold.Chemscore.Internal.Correction.Weighted>
   9.000000E+99

> <Gold.Protein.RotatedTorsions>
[ 6907 6896 6895 6894 ] final  138.04 input  -60.11 | X-H torsion
[ 7974 7965 7964 7962 ] final   54.51 input  175.53 | X-H torsion
[ 8008 7997 7996 7995 ] final   11.34 input   59.86 | X-H torsion
[ 10167 10162 10161 10158 ] final  137.25 input  -65.29 | X-H torsion
[ 10718 10713 10712 10709 ] final   76.47 input   66.30 | X-H torsion
[ 10763 10752 10751 10750 ] final  104.96 input  -60.55 | X-H torsion
[ 11005 11000 10999 10996 ] final   21.59 input  -57.11 | X-H torsion

> <Gold.Protein.ActiveResidues>
 VAL166  LYS551  ARG553  GLY616  TRP617  ASP618  TYR619  PRO620  LYS621  CYS622 
 ASP623  PHE694  ASN695  SER759  ASP760  ASP761  ALA762  ILE779  LEU786  VAL792 
 PHE793  MET794  SER795  GLU796  ALA797  LYS798  CYS799  TRP800  GLU811  SER814 

> <Gold.Protein.RotatedAtoms>
  152.2712  133.5384  159.5439 H   0  0  0  0  0  0  0  0  0  0  0  0  # atno 6907 bound_to 6896
  150.7160  134.0696  159.3868 H   0  0  0  0  0  0  0  0  0  0  0  0  # atno 6908 bound_to 6896
  151.8610  135.0524  160.0520 H   0  0  0  0  0  0  0  0  0  0  0  0  # atno 6909 bound_to 6896
  145.9601  139.4051  143.0253 H   0  0  0  0  0  0  0  0  0  0  0  0  # atno 7974 bound_to 7965
  154.8055  140.2859  155.5890 H   0  0  0  0  0  0  0  0  0  0  0  0  # atno 8008 bound_to 7997
  156.2982  140.2578  156.2862 H   0  0  0  0  0  0  0  0  0  0  0  0  # atno 8009 bound_to 7997
  154.9508  140.0379  157.2132 H   0  0  0  0  0  0  0  0  0  0  0  0  # atno 8010 bound_to 7997
  139.5151  144.6420  151.5542 H   0  0  0  0  0  0  0  0  0  0  0  0  # atno 10167 bound_to 10162
  157.6675  130.9776  150.1502 H   0  0  0  0  0  0  0  0  0  0  0  0  # atno 10718 bound_to 10713
  153.3729  135.3926  155.1802 H   0  0  0  0  0  0  0  0  0  0  0  0  # atno 10763 bound_to 10752
  154.8697  135.3707  154.4954 H   0  0  0  0  0  0  0  0  0  0  0  0  # atno 10764 bound_to 10752
  153.5424  135.7084  153.5691 H   0  0  0  0  0  0  0  0  0  0  0  0  # atno 10765 bound_to 10752
  140.3899  134.1831  155.7662 H   0  0  0  0  0  0  0  0  0  0  0  0  # atno 11005 bound_to 11000
  145.8052  140.9752  143.0978 LP  0  0  0  0  0  0  0  0  0  0  0  0  # atno 17320 bound_to 7965
  144.6813  139.9852  143.7484 LP  0  0  0  0  0  0  0  0  0  0  0  0  # atno 17321 bound_to 7965
  140.6191  143.9293  150.6511 LP  0  0  0  0  0  0  0  0  0  0  0  0  # atno 17342 bound_to 10162
  140.2560  143.3558  152.1364 LP  0  0  0  0  0  0  0  0  0  0  0  0  # atno 17343 bound_to 10162
  156.2303  130.3681  149.8453 LP  0  0  0  0  0  0  0  0  0  0  0  0  # atno 17370 bound_to 10713
  156.6281  130.8654  151.3489 LP  0  0  0  0  0  0  0  0  0  0  0  0  # atno 17371 bound_to 10713
  141.1894  133.8238  157.0956 LP  0  0  0  0  0  0  0  0  0  0  0  0  # atno 17394 bound_to 11000
  140.0415  134.9852  157.0970 LP  0  0  0  0  0  0  0  0  0  0  0  0  # atno 17395 bound_to 11000

$$$$
