AV-unprocessed.smi:1787|AV-procd|sdf|7206|dock5
  -GOLD-   22720 8443D 1   1.00000     0.00000
 Structure written by MMmdl.
 44 46  0  0  0  0  0  0  0  0  1 V2000
  145.0550  138.1681  152.6921 O   0  0  0  0  0  0  0  0  0  0  0  0
  146.1231  137.6662  152.3439 C   0  0  0  0  0  0  0  0  0  0  0  0
  146.2073  136.5416  151.6228 N   0  0  0  0  0  0  0  0  0  0  0  0
  145.0646  135.7670  151.1474 C   0  0  0  0  0  0  0  0  0  0  0  0
  144.7453  134.5595  152.0866 C   0  0  1  0  0  0  0  0  0  0  0  0
  144.0080  135.0262  153.3013 N   0  0  0  0  0  0  0  0  0  0  0  0
  144.7931  135.7936  154.2795 C   0  0  0  0  0  0  0  0  0  0  0  0
  143.9753  136.1611  155.5297 C   0  0  0  0  0  0  0  0  0  0  0  0
  142.8135  136.8855  155.1491 O   0  0  0  0  0  0  0  0  0  0  0  0
  141.9862  136.1432  154.2641 C   0  0  0  0  0  0  0  0  0  0  0  0
  142.7798  135.7746  152.9995 C   0  0  0  0  0  0  0  0  0  0  0  0
  143.9563  133.5111  151.2493 C   0  0  0  0  0  0  0  0  0  0  0  0
  144.9017  132.8528  150.2380 C   0  0  0  0  0  0  0  0  0  0  0  0
  146.5466  132.8040  150.9872 S   0  0  0  0  0  0  0  0  0  0  0  0
  146.0740  133.8289  152.4076 C   0  0  0  0  0  0  0  0  0  0  0  0
  147.3452  138.1442  152.6350 N   0  0  0  0  0  0  0  0  0  0  0  0
  147.7002  139.3039  153.3775 C   0  0  0  0  0  0  0  0  0  0  0  0
  148.8837  139.2536  154.1429 C   0  0  0  0  0  0  0  0  0  0  0  0
  149.2752  140.3871  154.8801 C   0  0  0  0  0  0  0  0  0  0  0  0
  148.4659  141.5374  154.8184 C   0  0  0  0  0  0  0  0  0  0  0  0
  147.3367  141.6085  154.0831 N   0  0  0  0  0  0  0  0  0  0  0  0
  146.9667  140.5172  153.3783 C   0  0  0  0  0  0  0  0  0  0  0  0
  147.1231  136.1938  151.3781 H   0  0  0  0  0  0  0  0  0  0  0  0
  144.2052  136.4300  151.0491 H   0  0  0  0  0  0  0  0  0  0  0  0
  145.2653  135.4392  150.1279 H   0  0  0  0  0  0  0  0  0  0  0  0
  145.6497  135.2230  154.6297 H   0  0  0  0  0  0  0  0  0  0  0  0
  145.1768  136.7097  153.8321 H   0  0  0  0  0  0  0  0  0  0  0  0
  143.6903  135.2643  156.0822 H   0  0  0  0  0  0  0  0  0  0  0  0
  144.5719  136.7755  156.2042 H   0  0  0  0  0  0  0  0  0  0  0  0
  141.6166  135.2463  154.7638 H   0  0  0  0  0  0  0  0  0  0  0  0
  141.1160  136.7452  154.0018 H   0  0  0  0  0  0  0  0  0  0  0  0
  143.0237  136.6881  152.4557 H   0  0  0  0  0  0  0  0  0  0  0  0
  142.1149  135.1971  152.3609 H   0  0  0  0  0  0  0  0  0  0  0  0
  143.5979  132.6956  151.8729 H   0  0  0  0  0  0  0  0  0  0  0  0
  143.0777  133.9337  150.7608 H   0  0  0  0  0  0  0  0  0  0  0  0
  144.5713  131.8490  149.9701 H   0  0  0  0  0  0  0  0  0  0  0  0
  144.9506  133.4332  149.3167 H   0  0  0  0  0  0  0  0  0  0  0  0
  146.8805  134.5182  152.6600 H   0  0  0  0  0  0  0  0  0  0  0  0
  145.9638  133.1491  153.2506 H   0  0  0  0  0  0  0  0  0  0  0  0
  148.1226  137.5816  152.3215 H   0  0  0  0  0  0  0  0  0  0  0  0
  149.4860  138.3571  154.1684 H   0  0  0  0  0  0  0  0  0  0  0  0
  150.1748  140.3757  155.4774 H   0  0  0  0  0  0  0  0  0  0  0  0
  148.7356  142.4259  155.3699 H   0  0  0  0  0  0  0  0  0  0  0  0
  146.0691  140.6491  152.7955 H   0  0  0  0  0  0  0  0  0  0  0  0
  1  2  2  0  0  0  0
  2  3  1  0  0  0  0
  2 16  1  0  0  0  0
  3  4  1  0  0  0  0
  3 23  1  0  0  0  0
  4  5  1  0  0  0  0
  4 24  1  0  0  0  0
  4 25  1  0  0  0  0
  5 15  1  0  0  0  0
  5  6  1  0  0  0  0
  5 12  1  0  0  0  0
  6 11  1  0  0  0  0
  6  7  1  0  0  0  0
  7  8  1  0  0  0  0
  7 26  1  0  0  0  0
  7 27  1  0  0  0  0
  8  9  1  0  0  0  0
  8 28  1  0  0  0  0
  8 29  1  0  0  0  0
  9 10  1  0  0  0  0
 10 11  1  0  0  0  0
 10 30  1  0  0  0  0
 10 31  1  0  0  0  0
 11 32  1  0  0  0  0
 11 33  1  0  0  0  0
 12 13  1  0  0  0  0
 12 34  1  0  0  0  0
 12 35  1  0  0  0  0
 13 14  1  0  0  0  0
 13 36  1  0  0  0  0
 13 37  1  0  0  0  0
 14 15  1  0  0  0  0
 15 38  1  0  0  0  0
 15 39  1  0  0  0  0
 16 17  1  0  0  0  0
 16 40  1  0  0  0  0
 17 22  1  0  0  0  0
 17 18  2  0  0  0  0
 18 19  1  0  0  0  0
 18 41  1  0  0  0  0
 19 20  2  0  0  0  0
 19 42  1  0  0  0  0
 20 21  1  0  0  0  0
 20 43  1  0  0  0  0
 21 22  2  0  0  0  0
 22 44  1  0  0  0  0
M  END
> <s_m_source_file>
AV-unprocessed.smi

> <i_m_source_file_index>
1787

> <i_lp_mmshare_version>
43012

> <i_f3d_flags>
0

> <s_epik_input>
W2NIXTFuW2NIXVtjSF1bY0hdYzFbTkhdQyg9TylbTkhdW0NIMl1bQ0BdMihbQ0gyXVtDSDJdU1tDSDJdMilOM1tDSDJdW0NIMl1PW0NIMl1bQ0gyXTM=

> <s_epik_cmdline>
J2VwaWtfcHl0aG9uJywgJy1waCcsICc3LjAnLCAnLXRuJywgJzgnLCAnLW1hJywgJzIwMCcsICctbWV0YWxfYmluZGluZycsICctaW1hZScsICc8aW5maWxlLm1hZT4nLCAnLW9tYWUnLCAnPG91dGZpbGUubWFlPic=

> <r_epik_Ionization_Penalty>
0.024212

> <r_epik_Ionization_Penalty_Charging>
0

> <r_epik_Ionization_Penalty_Neutral>
0.024212

> <r_epik_State_Penalty>
0.0155843

> <r_epik_Charging_Adjusted_Penalty>
0.0155843

> <i_epik_Tot_Q>
0

> <i_epik_Tot_abs_Q>
0

> <r_epik_Metal_State_Penalty>
0.01557

> <b_epik_Metal_Only>
0

> <s_lp_Force_Field>
OPLS_2005

> <r_lp_Energy>
57.3635

> <b_lp_Chiralities_Consistent>
1

> <s_lp_Variant>
AV-unprocessed.smi:1787-1

> <Gold.Version>
5.8.1

> <Gold.Id.Protein>
6NUR|6NUR_protein|mol2

> <Gold.PLP.Fitness>
40.8764

> <Gold.PLP.PLP>
-30.6702

> <Gold.PLP.part.hbond>
-2.3262

> <Gold.PLP.part.metal>
0.0000

> <Gold.PLP.part.buried>
-3.4567

> <Gold.PLP.part.nonpolar>
-29.0655

> <Gold.PLP.part.repulsive>
3.6742

> <Gold.PLP.ligand.clash>
0.0000

> <Gold.PLP.ligand.torsion>
0.7489

> <Gold.PLP.Chemscore.Hbond>
1.8800

> <Gold.PLP.Chemscore.CHOScore>
2.0000

> <Gold.PLP.Chemscore.Metal>
0.0000

> <Gold.Chemscore.Hbonds>
donor molecule, donor type, donor heavy atom, donor atom, acceptor molecule, acceptor atom, score
      L1  H     3    23       P1  7948  0.91
      L1  H    16    40       P1  7948  1.00
      L1  C    20    43       P1  8028  1.00
      L1  C    22    44       P1 10175  1.00

> <Gold.PLP.Chemscore.Internal.Correction>
0.0640

> <Gold.Rescore>
     Score         DG    S(hbond)    S(metal)    S(lipo)     H(rot)  DE(clash)    DE(int)     intcor
     14.53     -17.53       1.93        0.00      79.63       1.44       1.43       1.57       ----

> <Gold.Chemscore.Fitness>
14.5290

> <Gold.Chemscore.DG>
-17.5315

> <Gold.Chemscore.ZeroCoef>
-5.4800

> <Gold.Chemscore.Hbond>
1.9258

> <Gold.Chemscore.Metal>
0.0000

> <Gold.Chemscore.Lipo>
79.6346

> <Gold.Chemscore.Internal_Hbond>
0.0000

> <Gold.Chemscore.DEClash>
1.4329

> <Gold.Chemscore.DEInternal>
1.5695

> <Gold.Chemscore.Rot>
1.4445

> <Gold.Chemscore.Internal.Correction>
   9.000000E+99

> <Gold.Chemscore.Hbonds>
donor molecule, donor type, donor heavy atom, donor atom, acceptor molecule, acceptor atom, score
      L1  H     3    23       P1  7948  0.90
      L1  H    16    40       P1  7948  0.99

> <Gold.Chemscore.Hbond.Weighted>
-6.4322

> <Gold.Chemscore.Metal.Weighted>
-0.0000

> <Gold.Chemscore.Lipo.Weighted>
-9.3172

> <Gold.Chemscore.Internal_Hbond.Weighted>
0.0000

> <Gold.Chemscore.DEClash.Weighted>
1.4329

> <Gold.Chemscore.DEInternal.Weighted>
1.5695

> <Gold.Chemscore.Rot.Weighted>
3.6980

> <Gold.Chemscore.Internal.Correction.Weighted>
   9.000000E+99

> <Gold.Protein.RotatedTorsions>
[ 6907 6896 6895 6894 ] final  107.45 input  -60.11 | X-H torsion
[ 7974 7965 7964 7962 ] final  117.36 input  175.53 | X-H torsion
[ 8008 7997 7996 7995 ] final  -62.85 input   59.86 | X-H torsion
[ 10167 10162 10161 10158 ] final   44.16 input  -65.29 | X-H torsion
[ 10718 10713 10712 10709 ] final   -2.53 input   66.30 | X-H torsion
[ 10763 10752 10751 10750 ] final   78.17 input  -60.55 | X-H torsion
[ 11005 11000 10999 10996 ] final  -34.00 input  -57.11 | X-H torsion

> <Gold.Protein.ActiveResidues>
 VAL166  LYS551  ARG553  GLY616  TRP617  ASP618  TYR619  PRO620  LYS621  CYS622 
 ASP623  PHE694  ASN695  SER759  ASP760  ASP761  ALA762  ILE779  LEU786  VAL792 
 PHE793  MET794  SER795  GLU796  ALA797  LYS798  CYS799  TRP800  GLU811  SER814 

> <Gold.Protein.RotatedAtoms>
  152.5153  133.9232  159.7544 H   0  0  0  0  0  0  0  0  0  0  0  0  # atno 6907 bound_to 6896
  150.9599  133.6448  159.2763 H   0  0  0  0  0  0  0  0  0  0  0  0  # atno 6908 bound_to 6896
  151.3697  135.0925  159.9514 H   0  0  0  0  0  0  0  0  0  0  0  0  # atno 6909 bound_to 6896
  145.1683  139.3116  143.4481 H   0  0  0  0  0  0  0  0  0  0  0  0  # atno 7974 bound_to 7965
  154.4522  140.0987  156.6651 H   0  0  0  0  0  0  0  0  0  0  0  0  # atno 8008 bound_to 7997
  155.5250  140.3480  155.4396 H   0  0  0  0  0  0  0  0  0  0  0  0  # atno 8009 bound_to 7997
  156.0704  140.1348  156.9824 H   0  0  0  0  0  0  0  0  0  0  0  0  # atno 8010 bound_to 7997
  140.3371  144.2517  150.6160 H   0  0  0  0  0  0  0  0  0  0  0  0  # atno 10167 bound_to 10162
  156.7895  130.5357  149.5738 H   0  0  0  0  0  0  0  0  0  0  0  0  # atno 10718 bound_to 10713
  153.0854  135.4887  154.8586 H   0  0  0  0  0  0  0  0  0  0  0  0  # atno 10763 bound_to 10752
  154.7203  135.3038  154.9059 H   0  0  0  0  0  0  0  0  0  0  0  0  # atno 10764 bound_to 10752
  153.9726  135.6799  153.4800 H   0  0  0  0  0  0  0  0  0  0  0  0  # atno 10765 bound_to 10752
  140.9681  133.7125  156.1478 H   0  0  0  0  0  0  0  0  0  0  0  0  # atno 11005 bound_to 11000
  146.3472  140.1819  142.8589 LP  0  0  0  0  0  0  0  0  0  0  0  0  # atno 17320 bound_to 7965
  145.0259  140.8831  143.5139 LP  0  0  0  0  0  0  0  0  0  0  0  0  # atno 17321 bound_to 7965
  140.5344  143.2236  151.8187 LP  0  0  0  0  0  0  0  0  0  0  0  0  # atno 17342 bound_to 10162
  139.4846  144.4680  151.9460 LP  0  0  0  0  0  0  0  0  0  0  0  0  # atno 17343 bound_to 10162
  156.1168  130.6080  151.0132 LP  0  0  0  0  0  0  0  0  0  0  0  0  # atno 17370 bound_to 10713
  157.6607  131.0881  150.7844 LP  0  0  0  0  0  0  0  0  0  0  0  0  # atno 17371 bound_to 10713
  140.7370  134.4192  157.5559 LP  0  0  0  0  0  0  0  0  0  0  0  0  # atno 17394 bound_to 11000
  139.8902  134.8811  156.2383 LP  0  0  0  0  0  0  0  0  0  0  0  0  # atno 17395 bound_to 11000

$$$$
