AV-unprocessed.smi:2078|AV-procd|sdf|8470|dock7
  -GOLD-   2272011173D 1   1.00000     0.00000
 Structure written by MMmdl.
 41 42  0  0  0  0  0  0  0  0  3 V2000
  151.7866  141.3986  158.4383 C   0  0  0  0  0  0  0  0  0  0  0  0
  151.5751  140.5958  157.2004 C   0  0  0  0  0  0  0  0  0  0  0  0
  150.6294  140.6411  156.2158 C   0  0  0  0  0  0  0  0  0  0  0  0
  151.0260  139.5975  155.3360 C   0  0  0  0  0  0  0  0  0  0  0  0
  150.3916  139.2349  154.2104 N   0  5  0  0  0  0  0  0  0  0  0  0
  149.0949  139.5699  154.0210 C   0  0  0  0  0  0  0  0  0  0  0  0
  148.5326  140.5871  154.4325 O   0  0  0  0  0  0  0  0  0  0  0  0
  148.4050  138.6663  153.3123 N   0  0  0  0  0  0  0  0  0  0  0  0
  146.9922  138.7607  152.9699 C   0  0  0  0  0  0  0  0  0  0  0  0
  146.2268  137.5559  153.5388 C   0  0  0  0  0  0  0  0  0  0  0  0
  146.3581  136.3483  152.6855 N   0  3  2  0  0  0  0  0  0  0  0  0
  145.3006  136.2813  151.6441 C   0  0  0  0  0  0  0  0  0  0  0  0
  145.5390  135.1030  150.6868 C   0  0  0  0  0  0  0  0  0  0  0  0
  145.6272  133.7800  151.4573 C   0  0  0  0  0  0  0  0  0  0  0  0
  146.7044  133.8708  152.5514 C   0  0  2  0  0  0  0  0  0  0  0  0
  146.7951  132.5675  153.3577 C   0  0  0  0  0  0  0  0  0  0  0  0
  146.4379  135.0840  153.4659 C   0  0  0  0  0  0  0  0  0  0  0  0
  152.1088  138.9648  155.7570 N   0  0  0  0  0  0  0  0  0  0  0  0
  152.4718  139.6045  156.9483 O   0  0  0  0  0  0  0  0  0  0  0  0
  150.8355  141.6171  158.9237 H   0  0  0  0  0  0  0  0  0  0  0  0
  152.2733  142.3455  158.2046 H   0  0  0  0  0  0  0  0  0  0  0  0
  152.4133  140.8620  159.1511 H   0  0  0  0  0  0  0  0  0  0  0  0
  149.7884  141.3137  156.1365 H   0  0  0  0  0  0  0  0  0  0  0  0
  148.9051  137.8502  152.9910 H   0  0  0  0  0  0  0  0  0  0  0  0
  146.5690  139.6846  153.3678 H   0  0  0  0  0  0  0  0  0  0  0  0
  146.9108  138.8085  151.8843 H   0  0  0  0  0  0  0  0  0  0  0  0
  146.5527  137.3303  154.5555 H   0  0  0  0  0  0  0  0  0  0  0  0
  145.1735  137.8325  153.6076 H   0  0  0  0  0  0  0  0  0  0  0  0
  144.3233  136.1889  152.1211 H   0  0  0  0  0  0  0  0  0  0  0  0
  145.2876  137.2084  151.0698 H   0  0  0  0  0  0  0  0  0  0  0  0
  144.7364  135.0521  149.9506 H   0  0  0  0  0  0  0  0  0  0  0  0
  146.4619  135.2649  150.1282 H   0  0  0  0  0  0  0  0  0  0  0  0
  144.6588  133.5513  151.9048 H   0  0  0  0  0  0  0  0  0  0  0  0
  145.8531  132.9647  150.7691 H   0  0  0  0  0  0  0  0  0  0  0  0
  147.6689  134.0227  152.0643 H   0  0  0  0  0  0  0  0  0  0  0  0
  145.8589  132.3540  153.8746 H   0  0  0  0  0  0  0  0  0  0  0  0
  147.5842  132.6234  154.1082 H   0  0  0  0  0  0  0  0  0  0  0  0
  147.0177  131.7192  152.7097 H   0  0  0  0  0  0  0  0  0  0  0  0
  147.2365  135.1509  154.2038 H   0  0  0  0  0  0  0  0  0  0  0  0
  145.5090  134.9414  154.0210 H   0  0  0  0  0  0  0  0  0  0  0  0
  147.2332  136.4460  152.1907 H   0  0  0  0  0  0  0  0  0  0  0  0
  1  2  1  0  0  0  0
  1 20  1  0  0  0  0
  1 21  1  0  0  0  0
  1 22  1  0  0  0  0
  2 19  1  0  0  0  0
  2  3  2  0  0  0  0
  3  4  1  0  0  0  0
  3 23  1  0  0  0  0
  4  5  1  0  0  0  0
  4 18  2  0  0  0  0
  5  6  1  0  0  0  0
  6  7  2  0  0  0  0
  6  8  1  0  0  0  0
  8  9  1  0  0  0  0
  8 24  1  0  0  0  0
  9 10  1  0  0  0  0
  9 25  1  0  0  0  0
  9 26  1  0  0  0  0
 10 11  1  0  0  0  0
 10 27  1  0  0  0  0
 10 28  1  0  0  0  0
 11 17  1  0  0  0  0
 11 12  1  0  0  0  0
 11 41  1  0  0  0  0
 12 13  1  0  0  0  0
 12 29  1  0  0  0  0
 12 30  1  0  0  0  0
 13 14  1  0  0  0  0
 13 31  1  0  0  0  0
 13 32  1  0  0  0  0
 14 15  1  0  0  0  0
 14 33  1  0  0  0  0
 14 34  1  0  0  0  0
 15 16  1  0  0  0  0
 15 17  1  0  0  0  0
 15 35  1  0  0  0  0
 16 36  1  0  0  0  0
 16 37  1  0  0  0  0
 16 38  1  0  0  0  0
 17 39  1  0  0  0  0
 17 40  1  0  0  0  0
 18 19  1  0  0  0  0
M  CHG  1   5  -1
M  CHG  1  11   1
M  END
> <s_m_source_file>
AV-unprocessed.smi

> <i_m_source_file_index>
2078

> <i_lp_mmshare_version>
43012

> <i_f3d_flags>
0

> <s_epik_input>
W0NIM11jMVtjSF1jKG5vMSlbTkhdQyg9TylbTkhdW0NIMl1bQ0gyXU4yW0NIMl1bQ0gyXVtDSDJdW0NAQEhdKFtDSDNdKVtDSDJdMg==

> <s_epik_cmdline>
J2VwaWtfcHl0aG9uJywgJy1waCcsICc3LjAnLCAnLXRuJywgJzgnLCAnLW1hJywgJzIwMCcsICctbWV0YWxfYmluZGluZycsICctaW1hZScsICc8aW5maWxlLm1hZT4nLCAnLW9tYWUnLCAnPG91dGZpbGUubWFlPic=

> <r_epik_Ionization_Penalty>
6.22434

> <r_epik_Ionization_Penalty_Charging>
6.22425

> <r_epik_Ionization_Penalty_Neutral>
9.37855e-05

> <r_epik_State_Penalty>
6.22423

> <r_epik_Charging_Adjusted_Penalty>
12.4485

> <i_epik_Tot_Q>
0

> <i_epik_Tot_abs_Q>
2

> <r_epik_Metal_State_Penalty>
2.16764

> <b_epik_Metal_Only>
1

> <s_lp_Force_Field>
OPLS_2005

> <r_lp_Energy>
6.03682

> <b_lp_Chiralities_Consistent>
1

> <s_lp_Variant>
AV-unprocessed.smi:2078-8

> <Gold.Version>
5.8.1

> <Gold.Id.Protein>
6NUR|6NUR_protein|mol2

> <Gold.PLP.Fitness>
40.4606

> <Gold.PLP.PLP>
-30.1274

> <Gold.PLP.part.hbond>
-5.0000

> <Gold.PLP.part.metal>
0.0000

> <Gold.PLP.part.buried>
-1.6866

> <Gold.PLP.part.nonpolar>
-23.4746

> <Gold.PLP.part.repulsive>
0.3849

> <Gold.PLP.ligand.clash>
0.0000

> <Gold.PLP.ligand.torsion>
0.8445

> <Gold.PLP.Chemscore.Hbond>
3.9920

> <Gold.PLP.Chemscore.CHOScore>
0.0000

> <Gold.PLP.Chemscore.Metal>
0.0000

> <Gold.Chemscore.Hbonds>
donor molecule, donor type, donor heavy atom, donor atom, acceptor molecule, acceptor atom, score
      L1  H     8    24       P1  7948  0.99
      L1  H    11    41       P1  7948  2.00
      P1  H  7997  8010       L1    19  1.00

> <Gold.PLP.Chemscore.Internal.Correction>
0.0462

> <Gold.Rescore>
     Score         DG    S(hbond)    S(metal)    S(lipo)     H(rot)  DE(clash)    DE(int)     intcor
     15.55     -17.79       2.89        0.00      56.52       1.54       0.21       2.03       ----

> <Gold.Chemscore.Fitness>
15.5484

> <Gold.Chemscore.DG>
-17.7853

> <Gold.Chemscore.ZeroCoef>
-5.4800

> <Gold.Chemscore.Hbond>
2.8853

> <Gold.Chemscore.Metal>
0.0000

> <Gold.Chemscore.Lipo>
56.5222

> <Gold.Chemscore.Internal_Hbond>
0.0000

> <Gold.Chemscore.DEClash>
0.2107

> <Gold.Chemscore.DEInternal>
2.0262

> <Gold.Chemscore.Rot>
1.5409

> <Gold.Chemscore.Internal.Correction>
   9.000000E+99

> <Gold.Chemscore.Hbonds>
donor molecule, donor type, donor heavy atom, donor atom, acceptor molecule, acceptor atom, score
      L1  H     8    24       P1  7948  0.93
      L1  H    11    41       P1  7948  0.99
      P1  H  7997  8010       L1    19  0.46

> <Gold.Chemscore.Hbond.Weighted>
-9.6368

> <Gold.Chemscore.Metal.Weighted>
-0.0000

> <Gold.Chemscore.Lipo.Weighted>
-6.6131

> <Gold.Chemscore.Internal_Hbond.Weighted>
0.0000

> <Gold.Chemscore.DEClash.Weighted>
0.2107

> <Gold.Chemscore.DEInternal.Weighted>
2.0262

> <Gold.Chemscore.Rot.Weighted>
3.9446

> <Gold.Chemscore.Internal.Correction.Weighted>
   9.000000E+99

> <Gold.Protein.RotatedTorsions>
[ 6907 6896 6895 6894 ] final  -96.74 input  -60.11 | X-H torsion
[ 7974 7965 7964 7962 ] final  167.14 input  175.53 | X-H torsion
[ 8008 7997 7996 7995 ] final   54.02 input   59.86 | X-H torsion
[ 10167 10162 10161 10158 ] final  -69.67 input  -65.29 | X-H torsion
[ 10718 10713 10712 10709 ] final -173.66 input   66.30 | X-H torsion
[ 10763 10752 10751 10750 ] final -145.07 input  -60.55 | X-H torsion
[ 11005 11000 10999 10996 ] final   79.68 input  -57.11 | X-H torsion

> <Gold.Protein.ActiveResidues>
 VAL166  LYS551  ARG553  GLY616  TRP617  ASP618  TYR619  PRO620  LYS621  CYS622 
 ASP623  PHE694  ASN695  SER759  ASP760  ASP761  ALA762  ILE779  LEU786  VAL792 
 PHE793  MET794  SER795  GLU796  ALA797  LYS798  CYS799  TRP800  GLU811  SER814 

> <Gold.Protein.RotatedAtoms>
  150.6997  134.1456  159.4120 H   0  0  0  0  0  0  0  0  0  0  0  0  # atno 6907 bound_to 6896
  151.9440  135.0198  160.0547 H   0  0  0  0  0  0  0  0  0  0  0  0  # atno 6908 bound_to 6896
  152.2069  133.4847  159.5125 H   0  0  0  0  0  0  0  0  0  0  0  0  # atno 6909 bound_to 6896
  144.7435  139.8717  143.6389 H   0  0  0  0  0  0  0  0  0  0  0  0  # atno 7974 bound_to 7965
  155.4778  140.3467  155.4335 H   0  0  0  0  0  0  0  0  0  0  0  0  # atno 8008 bound_to 7997
  156.1058  140.1448  156.9434 H   0  0  0  0  0  0  0  0  0  0  0  0  # atno 8009 bound_to 7997
  154.4724  140.0896  156.7155 H   0  0  0  0  0  0  0  0  0  0  0  0  # atno 8010 bound_to 7997
  140.5412  143.2315  151.7085 H   0  0  0  0  0  0  0  0  0  0  0  0  # atno 10167 bound_to 10162
  156.7735  130.9457  151.3120 H   0  0  0  0  0  0  0  0  0  0  0  0  # atno 10718 bound_to 10713
  154.8400  135.3423  154.6445 H   0  0  0  0  0  0  0  0  0  0  0  0  # atno 10763 bound_to 10752
  153.7057  135.6967  153.5055 H   0  0  0  0  0  0  0  0  0  0  0  0  # atno 10764 bound_to 10752
  153.2489  135.4360  155.0731 H   0  0  0  0  0  0  0  0  0  0  0  0  # atno 10765 bound_to 10752
  139.9163  134.7861  156.1810 H   0  0  0  0  0  0  0  0  0  0  0  0  # atno 11005 bound_to 11000
  146.1275  139.4304  143.0189 LP  0  0  0  0  0  0  0  0  0  0  0  0  # atno 17320 bound_to 7965
  145.7212  141.0074  143.1401 LP  0  0  0  0  0  0  0  0  0  0  0  0  # atno 17321 bound_to 7965
  139.4989  144.3965  152.0225 LP  0  0  0  0  0  0  0  0  0  0  0  0  # atno 17342 bound_to 10162
  140.3075  144.3576  150.6043 LP  0  0  0  0  0  0  0  0  0  0  0  0  # atno 17343 bound_to 10162
  157.6680  130.9025  149.9975 LP  0  0  0  0  0  0  0  0  0  0  0  0  # atno 17370 bound_to 10713
  156.1263  130.3644  149.9805 LP  0  0  0  0  0  0  0  0  0  0  0  0  # atno 17371 bound_to 10713
  141.0642  133.6827  156.2012 LP  0  0  0  0  0  0  0  0  0  0  0  0  # atno 17394 bound_to 11000
  140.6612  134.4966  157.5583 LP  0  0  0  0  0  0  0  0  0  0  0  0  # atno 17395 bound_to 11000

$$$$
