AV-unprocessed.smi:63|AV-procd|sdf|608|dock2
  -GOLD-   2262016503D 1   1.00000     0.00000
 Structure written by MMmdl.
 29 30  0  0  0  0  0  0  0  0  1 V2000
  152.7095  142.4477  160.2262 C   0  0  0  0  0  0  0  0  0  0  0  0
  152.2725  141.8656  158.8984 C   0  0  0  0  0  0  0  0  0  0  0  0
  151.1326  142.3583  158.2373 C   0  0  0  0  0  0  0  0  0  0  0  0
  150.7941  141.7660  157.0088 C   0  0  0  0  0  0  0  0  0  0  0  0
  151.6170  140.7233  156.5253 C   0  0  0  0  0  0  0  0  0  0  0  0
  151.3199  140.1002  155.2949 N   0  0  0  0  0  0  0  0  0  0  0  0
  152.3356  139.2088  154.7434 C   0  0  0  0  0  0  0  0  0  0  0  0
  151.5818  138.0322  154.1129 C   0  0  0  0  0  0  0  0  0  0  0  0
  150.1928  138.5975  153.8327 C   0  0  0  0  0  0  0  0  0  0  0  0
  149.9903  139.5662  155.0030 C   0  0  2  0  0  0  0  0  0  0  0  0
  148.9100  140.6488  154.7801 C   0  0  0  0  0  0  0  0  0  0  0  0
  148.7402  140.9509  153.4098 O   0  0  0  0  0  0  0  0  0  0  0  0
  152.7030  140.3044  157.2245 N   0  0  0  0  0  0  0  0  0  0  0  0
  153.0290  140.8651  158.3938 N   0  0  0  0  0  0  0  0  0  0  0  0
  151.8663  142.4932  160.9159 H   0  0  0  0  0  0  0  0  0  0  0  0
  153.0933  143.4582  160.0849 H   0  0  0  0  0  0  0  0  0  0  0  0
  153.4930  141.8454  160.6881 H   0  0  0  0  0  0  0  0  0  0  0  0
  150.5394  143.1581  158.6553 H   0  0  0  0  0  0  0  0  0  0  0  0
  149.9247  142.1014  156.4626 H   0  0  0  0  0  0  0  0  0  0  0  0
  152.8963  139.7536  153.9833 H   0  0  0  0  0  0  0  0  0  0  0  0
  153.0418  138.8577  155.4974 H   0  0  0  0  0  0  0  0  0  0  0  0
  152.0727  137.6444  153.2201 H   0  0  0  0  0  0  0  0  0  0  0  0
  151.5050  137.2179  154.8345 H   0  0  0  0  0  0  0  0  0  0  0  0
  150.2061  139.1245  152.8781 H   0  0  0  0  0  0  0  0  0  0  0  0
  149.4227  137.8274  153.7826 H   0  0  0  0  0  0  0  0  0  0  0  0
  149.6915  138.9690  155.8660 H   0  0  0  0  0  0  0  0  0  0  0  0
  147.9545  140.2931  155.1656 H   0  0  0  0  0  0  0  0  0  0  0  0
  149.1391  141.5672  155.3193 H   0  0  0  0  0  0  0  0  0  0  0  0
  149.0102  140.2012  152.9019 H   0  0  0  0  0  0  0  0  0  0  0  0
  1  2  1  0  0  0  0
  1 15  1  0  0  0  0
  1 16  1  0  0  0  0
  1 17  1  0  0  0  0
  2 14  1  0  0  0  0
  2  3  2  0  0  0  0
  3  4  1  0  0  0  0
  3 18  1  0  0  0  0
  4  5  2  0  0  0  0
  4 19  1  0  0  0  0
  5  6  1  0  0  0  0
  5 13  1  0  0  0  0
  6 10  1  0  0  0  0
  6  7  1  0  0  0  0
  7  8  1  0  0  0  0
  7 20  1  0  0  0  0
  7 21  1  0  0  0  0
  8  9  1  0  0  0  0
  8 22  1  0  0  0  0
  8 23  1  0  0  0  0
  9 10  1  0  0  0  0
  9 24  1  0  0  0  0
  9 25  1  0  0  0  0
 10 11  1  0  0  0  0
 10 26  1  0  0  0  0
 11 12  1  0  0  0  0
 11 27  1  0  0  0  0
 11 28  1  0  0  0  0
 12 29  1  0  0  0  0
 13 14  2  0  0  0  0
M  END
> <s_m_source_file>
AV-unprocessed.smi

> <i_m_source_file_index>
63

> <i_lp_mmshare_version>
43012

> <i_f3d_flags>
0

> <s_epik_input>
W0NIM11jMVtjSF1bY0hdYyhubjEpTjJbQ0gyXVtDSDJdW0NIMl1bQ0BIXTJbQ0gyXVtPSF0=

> <s_epik_cmdline>
J2VwaWtfcHl0aG9uJywgJy1waCcsICc3LjAnLCAnLXRuJywgJzgnLCAnLW1hJywgJzIwMCcsICctbWV0YWxfYmluZGluZycsICctaW1hZScsICc8aW5maWxlLm1hZT4nLCAnLW9tYWUnLCAnPG91dGZpbGUubWFlPic=

> <r_lp_tautomer_probability>
1

> <r_epik_Ionization_Penalty>
4.30639e-05

> <r_epik_Ionization_Penalty_Charging>
0

> <r_epik_Ionization_Penalty_Neutral>
4.30639e-05

> <r_epik_State_Penalty>
-0

> <r_epik_Charging_Adjusted_Penalty>
0

> <i_epik_Tot_Q>
0

> <i_epik_Tot_abs_Q>
0

> <r_epik_Metal_State_Penalty>
-0

> <b_epik_Metal_Only>
0

> <s_lp_Force_Field>
OPLS_2005

> <r_lp_Energy>
38.8504

> <b_lp_Chiralities_Consistent>
1

> <s_lp_Variant>
AV-unprocessed.smi:63-2

> <Gold.Version>
5.8.1

> <Gold.Id.Protein>
6NUR|6NUR_protein|mol2

> <Gold.PLP.Fitness>
40.0835

> <Gold.PLP.PLP>
-32.6981

> <Gold.PLP.part.hbond>
-5.0396

> <Gold.PLP.part.metal>
0.0000

> <Gold.PLP.part.buried>
-2.5981

> <Gold.PLP.part.nonpolar>
-25.0200

> <Gold.PLP.part.repulsive>
0.0182

> <Gold.PLP.ligand.clash>
0.0000

> <Gold.PLP.ligand.torsion>
0.6245

> <Gold.PLP.Chemscore.Hbond>
2.7629

> <Gold.PLP.Chemscore.CHOScore>
0.0000

> <Gold.PLP.Chemscore.Metal>
0.0000

> <Gold.Chemscore.Hbonds>
donor molecule, donor type, donor heavy atom, donor atom, acceptor molecule, acceptor atom, score
      L1  H    12    29       P1  7957  0.64
      P1  H  7997  8010       L1    13  0.82
      P1  H  8011  8017       L1    12  0.75

> <Gold.PLP.Chemscore.Internal.Correction>
0.3459

> <Gold.Rescore>
     Score         DG    S(hbond)    S(metal)    S(lipo)     H(rot)  DE(clash)    DE(int)     intcor
     15.32     -16.04       1.89        0.00      73.87       1.71       0.01       0.70       ----

> <Gold.Chemscore.Fitness>
15.3205

> <Gold.Chemscore.DG>
-16.0354

> <Gold.Chemscore.ZeroCoef>
-5.4800

> <Gold.Chemscore.Hbond>
1.8861

> <Gold.Chemscore.Metal>
0.0000

> <Gold.Chemscore.Lipo>
73.8739

> <Gold.Chemscore.Internal_Hbond>
0.0000

> <Gold.Chemscore.DEClash>
0.0111

> <Gold.Chemscore.DEInternal>
0.7038

> <Gold.Chemscore.Rot>
1.7138

> <Gold.Chemscore.Internal.Correction>
   9.000000E+99

> <Gold.Chemscore.Hbonds>
donor molecule, donor type, donor heavy atom, donor atom, acceptor molecule, acceptor atom, score
      L1  H    12    29       P1  7957  0.64
      P1  H  7997  8010       L1    13  0.13
      P1  H  8011  8017       L1    12  0.14

> <Gold.Chemscore.Hbond.Weighted>
-6.2994

> <Gold.Chemscore.Metal.Weighted>
-0.0000

> <Gold.Chemscore.Lipo.Weighted>
-8.6432

> <Gold.Chemscore.Internal_Hbond.Weighted>
0.0000

> <Gold.Chemscore.DEClash.Weighted>
0.0111

> <Gold.Chemscore.DEInternal.Weighted>
0.7038

> <Gold.Chemscore.Rot.Weighted>
4.3872

> <Gold.Chemscore.Internal.Correction.Weighted>
   9.000000E+99

> <Gold.Protein.RotatedTorsions>
[ 6907 6896 6895 6894 ] final -112.07 input  -60.11 | X-H torsion
[ 7974 7965 7964 7962 ] final -146.69 input  175.53 | X-H torsion
[ 8008 7997 7996 7995 ] final   62.50 input   59.86 | X-H torsion
[ 10167 10162 10161 10158 ] final   21.10 input  -65.29 | X-H torsion
[ 10718 10713 10712 10709 ] final   83.65 input   66.30 | X-H torsion
[ 10763 10752 10751 10750 ] final -163.59 input  -60.55 | X-H torsion
[ 11005 11000 10999 10996 ] final  -82.94 input  -57.11 | X-H torsion

> <Gold.Protein.ActiveResidues>
 VAL166  LYS551  ARG553  GLY616  TRP617  ASP618  TYR619  PRO620  LYS621  CYS622 
 ASP623  PHE694  ASN695  SER759  ASP760  ASP761  ALA762  ILE779  LEU786  VAL792 
 PHE793  MET794  SER795  GLU796  ALA797  LYS798  CYS799  TRP800  GLU811  SER814 

> <Gold.Protein.RotatedAtoms>
  150.7733  133.9143  159.3378 H   0  0  0  0  0  0  0  0  0  0  0  0  # atno 6907 bound_to 6896
  151.7024  135.0926  160.0262 H   0  0  0  0  0  0  0  0  0  0  0  0  # atno 6908 bound_to 6896
  152.3759  133.6443  159.6159 H   0  0  0  0  0  0  0  0  0  0  0  0  # atno 6909 bound_to 6896
  144.8143  140.5424  143.5621 H   0  0  0  0  0  0  0  0  0  0  0  0  # atno 7974 bound_to 7965
  155.6153  140.3495  155.4635 H   0  0  0  0  0  0  0  0  0  0  0  0  # atno 8008 bound_to 7997
  156.0122  140.1235  157.0467 H   0  0  0  0  0  0  0  0  0  0  0  0  # atno 8009 bound_to 7997
  154.4285  140.1079  156.5831 H   0  0  0  0  0  0  0  0  0  0  0  0  # atno 8010 bound_to 7997
  140.5453  143.9606  150.6544 H   0  0  0  0  0  0  0  0  0  0  0  0  # atno 10167 bound_to 10162
  157.6883  131.0100  150.2555 H   0  0  0  0  0  0  0  0  0  0  0  0  # atno 10718 bound_to 10713
  154.7109  135.3006  154.9199 H   0  0  0  0  0  0  0  0  0  0  0  0  # atno 10763 bound_to 10752
  154.0101  135.6696  153.4769 H   0  0  0  0  0  0  0  0  0  0  0  0  # atno 10764 bound_to 10752
  153.0754  135.5038  154.8306 H   0  0  0  0  0  0  0  0  0  0  0  0  # atno 10765 bound_to 10752
  141.1660  133.7269  156.8647 H   0  0  0  0  0  0  0  0  0  0  0  0  # atno 11005 bound_to 11000
  145.5251  139.1476  143.3530 LP  0  0  0  0  0  0  0  0  0  0  0  0  # atno 17320 bound_to 7965
  146.2444  140.5392  142.8920 LP  0  0  0  0  0  0  0  0  0  0  0  0  # atno 17321 bound_to 7965
  140.3017  143.3256  152.0965 LP  0  0  0  0  0  0  0  0  0  0  0  0  # atno 17342 bound_to 10162
  139.5005  144.6692  151.6283 LP  0  0  0  0  0  0  0  0  0  0  0  0  # atno 17343 bound_to 10162
  156.3144  130.3776  149.7632 LP  0  0  0  0  0  0  0  0  0  0  0  0  # atno 17370 bound_to 10713
  156.5222  130.8220  151.3208 LP  0  0  0  0  0  0  0  0  0  0  0  0  # atno 17371 bound_to 10713
  140.1824  134.9024  157.2964 LP  0  0  0  0  0  0  0  0  0  0  0  0  # atno 17394 bound_to 11000
  140.2381  134.3829  155.7492 LP  0  0  0  0  0  0  0  0  0  0  0  0  # atno 17395 bound_to 11000

$$$$
