AV-unprocessed.smi:287|AV-procd|sdf|2184|dock4
  -GOLD-   2262021563D 1   1.00000     0.00000
 Structure written by MMmdl.
 55 58  0  0  0  0  0  0  0  0  1 V2000
  151.4179  143.6355  157.8245 C   0  0  0  0  0  0  0  0  0  0  0  0
  150.7732  142.4211  157.2486 C   0  0  0  0  0  0  0  0  0  0  0  0
  150.5571  141.9804  155.9755 C   0  0  0  0  0  0  0  0  0  0  0  0
  149.8835  140.7259  156.0669 C   0  0  0  0  0  0  0  0  0  0  0  0
  149.4450  139.8632  154.8907 C   0  0  2  0  0  0  0  0  0  0  0  0
  149.0661  138.4563  155.3835 C   0  0  0  0  0  0  0  0  0  0  0  0
  150.4740  139.6585  153.9420 O   0  0  0  0  0  0  0  0  0  0  0  0
  148.2640  140.4899  154.1159 C   0  0  0  0  0  0  0  0  0  0  0  0
  147.8018  139.6552  153.0144 N   0  0  0  0  0  0  0  0  0  0  0  0
  146.7481  138.8261  153.1651 C   0  0  0  0  0  0  0  0  0  0  0  0
  146.0044  139.0259  154.2795 N   0  0  0  0  0  0  0  0  0  0  0  0
  144.9413  138.2555  154.5262 C   0  0  0  0  0  0  0  0  0  0  0  0
  144.4560  137.2466  153.8006 N   0  0  0  0  0  0  0  0  0  0  0  0
  145.1981  137.0417  152.6740 C   0  0  0  0  0  0  0  0  0  0  0  0
  146.3516  137.7789  152.2809 C   0  0  0  0  0  0  0  0  0  0  0  0
  146.8281  137.2715  151.0763 N   0  0  0  0  0  0  0  0  0  0  0  0
  146.0087  136.2979  150.7860 C   0  0  0  0  0  0  0  0  0  0  0  0
  144.9990  136.0890  151.6994 N   0  0  0  0  0  0  0  0  0  0  0  0
  143.9004  135.0713  151.6796 C   0  0  1  0  0  0  0  0  0  0  0  0
  143.8917  134.4879  150.4103 O   0  0  0  0  0  0  0  0  0  0  0  0
  144.0981  133.0776  150.4917 C   0  0  1  0  0  0  0  0  0  0  0  0
  144.8643  132.5587  149.2617 C   0  0  0  0  0  0  0  0  0  0  0  0
  144.2466  133.0157  148.0778 O   0  0  0  0  0  0  0  0  0  0  0  0
  144.7879  132.8575  151.8459 C   0  0  1  0  0  0  0  0  0  0  0  0
  146.1942  133.0087  151.7432 O   0  0  0  0  0  0  0  0  0  0  0  0
  144.1440  133.9417  152.6979 C   0  0  1  0  0  0  0  0  0  0  0  0
  144.9171  134.2891  153.8347 O   0  0  0  0  0  0  0  0  0  0  0  0
  149.7392  140.5031  157.4156 C   0  0  0  0  0  0  0  0  0  0  0  0
  149.1369  139.4050  158.2289 C   0  0  0  0  0  0  0  0  0  0  0  0
  150.2756  141.5261  158.1380 O   0  0  0  0  0  0  0  0  0  0  0  0
  142.9893  135.6420  151.8629 H   0  0  0  0  0  0  0  0  0  0  0  0
  143.1159  132.6041  150.5441 H   0  0  0  0  0  0  0  0  0  0  0  0
  144.5851  131.8627  152.2438 H   0  0  0  0  0  0  0  0  0  0  0  0
  143.1653  133.5955  153.0330 H   0  0  0  0  0  0  0  0  0  0  0  0
  152.0227  144.1470  157.0755 H   0  0  0  0  0  0  0  0  0  0  0  0
  152.0676  143.3713  158.6593 H   0  0  0  0  0  0  0  0  0  0  0  0
  150.6662  144.3359  158.1884 H   0  0  0  0  0  0  0  0  0  0  0  0
  150.8531  142.4980  155.0749 H   0  0  0  0  0  0  0  0  0  0  0  0
  148.2397  138.4936  156.0941 H   0  0  0  0  0  0  0  0  0  0  0  0
  149.9060  137.9713  155.8830 H   0  0  0  0  0  0  0  0  0  0  0  0
  148.7561  137.8135  154.5585 H   0  0  0  0  0  0  0  0  0  0  0  0
  150.0775  139.4537  153.1091 H   0  0  0  0  0  0  0  0  0  0  0  0
  147.4389  140.7240  154.7901 H   0  0  0  0  0  0  0  0  0  0  0  0
  148.5987  141.4336  153.6831 H   0  0  0  0  0  0  0  0  0  0  0  0
  148.2885  139.7794  152.1383 H   0  0  0  0  0  0  0  0  0  0  0  0
  144.4033  138.4794  155.4356 H   0  0  0  0  0  0  0  0  0  0  0  0
  146.1232  135.7030  149.8919 H   0  0  0  0  0  0  0  0  0  0  0  0
  145.9103  132.8653  149.2845 H   0  0  0  0  0  0  0  0  0  0  0  0
  144.8443  131.4687  149.2381 H   0  0  0  0  0  0  0  0  0  0  0  0
  144.6995  133.7909  147.7832 H   0  0  0  0  0  0  0  0  0  0  0  0
  146.3752  133.8842  151.4356 H   0  0  0  0  0  0  0  0  0  0  0  0
  145.7895  134.5112  153.5462 H   0  0  0  0  0  0  0  0  0  0  0  0
  148.0802  139.2835  157.9907 H   0  0  0  0  0  0  0  0  0  0  0  0
  149.2179  139.6128  159.2961 H   0  0  0  0  0  0  0  0  0  0  0  0
  149.6407  138.4585  158.0328 H   0  0  0  0  0  0  0  0  0  0  0  0
  1  2  1  0  0  0  0
  1 35  1  0  0  0  0
  1 36  1  0  0  0  0
  1 37  1  0  0  0  0
  2 30  1  0  0  0  0
  2  3  2  0  0  0  0
  3  4  1  0  0  0  0
  3 38  1  0  0  0  0
  4  5  1  0  0  0  0
  4 28  2  0  0  0  0
  5  6  1  0  0  0  0
  5  7  1  0  0  0  0
  5  8  1  0  0  0  0
  6 39  1  0  0  0  0
  6 40  1  0  0  0  0
  6 41  1  0  0  0  0
  7 42  1  0  0  0  0
  8  9  1  0  0  0  0
  8 43  1  0  0  0  0
  8 44  1  0  0  0  0
  9 10  1  0  0  0  0
  9 45  1  0  0  0  0
 10 15  1  0  0  0  0
 10 11  2  0  0  0  0
 11 12  1  0  0  0  0
 12 13  2  0  0  0  0
 12 46  1  0  0  0  0
 13 14  1  0  0  0  0
 14 18  1  0  0  0  0
 14 15  2  0  0  0  0
 15 16  1  0  0  0  0
 16 17  2  0  0  0  0
 17 18  1  0  0  0  0
 17 47  1  0  0  0  0
 18 19  1  0  0  0  0
 19 31  1  0  0  0  0
 19 26  1  0  0  0  0
 19 20  1  0  0  0  0
 20 21  1  0  0  0  0
 21 32  1  0  0  0  0
 21 22  1  0  0  0  0
 21 24  1  0  0  0  0
 22 23  1  0  0  0  0
 22 48  1  0  0  0  0
 22 49  1  0  0  0  0
 23 50  1  0  0  0  0
 24 33  1  0  0  0  0
 24 25  1  0  0  0  0
 24 26  1  0  0  0  0
 25 51  1  0  0  0  0
 26 34  1  0  0  0  0
 26 27  1  0  0  0  0
 27 52  1  0  0  0  0
 28 29  1  0  0  0  0
 28 30  1  0  0  0  0
 29 53  1  0  0  0  0
 29 54  1  0  0  0  0
 29 55  1  0  0  0  0
M  END
> <s_m_source_file>
AV-unprocessed.smi

> <i_m_source_file_index>
287

> <i_lp_mmshare_version>
43012

> <i_f3d_flags>
0

> <s_epik_input>
W0NIM11jMVtjSF1jKGMobzEpW0NIM10pW0NAQF0oW0NIM10pKFtPSF0pW0NIMl1bTkhdYyhuW2NIXW4yKWMoYzIzKW5bY0hdbjNbQ0BASF00T1tDQEhdKFtDSDJdW09IXSlbQ0BASF0oW09IXSlbQ0BIXTRbT0hd

> <s_epik_cmdline>
J2VwaWtfcHl0aG9uJywgJy1waCcsICc3LjAnLCAnLXRuJywgJzgnLCAnLW1hJywgJzIwMCcsICctbWV0YWxfYmluZGluZycsICctaW1hZScsICc8aW5maWxlLm1hZT4nLCAnLW9tYWUnLCAnPG91dGZpbGUubWFlPic=

> <r_lp_tautomer_probability>
1

> <r_epik_Ionization_Penalty>
0.000992612

> <r_epik_Ionization_Penalty_Charging>
0

> <r_epik_Ionization_Penalty_Neutral>
0.000992612

> <r_epik_State_Penalty>
-0

> <r_epik_Charging_Adjusted_Penalty>
0

> <i_epik_Tot_Q>
0

> <i_epik_Tot_abs_Q>
0

> <r_epik_Metal_State_Penalty>
-0

> <b_epik_Metal_Only>
0

> <s_epik_Chemistry_Notes>
This compound contains an acetal/aminal-like group ( X-CH(R)-Y where X, Y are N, S, or O) that may be acid/base labile, releasing an aldehyde.

> <s_lp_Force_Field>
OPLS_2005

> <r_lp_Energy>
46.5399

> <b_lp_Chiralities_Consistent>
1

> <s_lp_Variant>
AV-unprocessed.smi:287-8

> <Gold.Version>
5.8.1

> <Gold.Id.Protein>
6NUR|6NUR_protein|mol2

> <Gold.PLP.Fitness>
54.6040

> <Gold.PLP.PLP>
-38.2859

> <Gold.PLP.part.hbond>
-6.0441

> <Gold.PLP.part.metal>
0.0000

> <Gold.PLP.part.buried>
-3.1313

> <Gold.PLP.part.nonpolar>
-34.1792

> <Gold.PLP.part.repulsive>
5.3490

> <Gold.PLP.ligand.clash>
0.0000

> <Gold.PLP.ligand.torsion>
0.9189

> <Gold.PLP.Chemscore.Hbond>
4.7840

> <Gold.PLP.Chemscore.CHOScore>
1.0000

> <Gold.PLP.Chemscore.Metal>
0.0000

> <Gold.Chemscore.Hbonds>
donor molecule, donor type, donor heavy atom, donor atom, acceptor molecule, acceptor atom, score
      L1  H     7    42       P1  7957  0.86
      L1  H     9    45       P1  7957  1.00
      L1  H    23    50       P1  7921  1.00
      P1  H  7954  7966       L1    16  1.00
      P1  H  7989  7998       L1     7  1.00
      L1  C    17    47       P1  7921  1.00

> <Gold.PLP.Chemscore.Internal.Correction>
0.8040

> <Gold.Rescore>
     Score         DG    S(hbond)    S(metal)    S(lipo)     H(rot)  DE(clash)    DE(int)     intcor
     12.22     -17.20       4.42        0.00      89.19       5.27       2.07       2.90       ----

> <Gold.Chemscore.Fitness>
12.2231

> <Gold.Chemscore.DG>
-17.2002

> <Gold.Chemscore.ZeroCoef>
-5.4800

> <Gold.Chemscore.Hbond>
4.4220

> <Gold.Chemscore.Metal>
0.0000

> <Gold.Chemscore.Lipo>
89.1856

> <Gold.Chemscore.Internal_Hbond>
0.0000

> <Gold.Chemscore.DEClash>
2.0736

> <Gold.Chemscore.DEInternal>
2.9034

> <Gold.Chemscore.Rot>
5.2672

> <Gold.Chemscore.Internal.Correction>
   9.000000E+99

> <Gold.Chemscore.Hbonds>
donor molecule, donor type, donor heavy atom, donor atom, acceptor molecule, acceptor atom, score
      L1  H     7    42       P1  7957  0.79
      L1  H     9    45       P1  7957  0.99
      L1  H    23    50       P1  7921  0.95
      P1  H  7954  7966       L1    16  0.99
      P1  H  7989  7998       L1     7  0.29

> <Gold.Chemscore.Hbond.Weighted>
-14.7694

> <Gold.Chemscore.Metal.Weighted>
-0.0000

> <Gold.Chemscore.Lipo.Weighted>
-10.4347

> <Gold.Chemscore.Internal_Hbond.Weighted>
0.0000

> <Gold.Chemscore.DEClash.Weighted>
2.0736

> <Gold.Chemscore.DEInternal.Weighted>
2.9034

> <Gold.Chemscore.Rot.Weighted>
13.4839

> <Gold.Chemscore.Internal.Correction.Weighted>
   9.000000E+99

> <Gold.Protein.RotatedTorsions>
[ 6907 6896 6895 6894 ] final  102.92 input  -60.11 | X-H torsion
[ 7974 7965 7964 7962 ] final -150.30 input  175.53 | X-H torsion
[ 8008 7997 7996 7995 ] final  -59.71 input   59.86 | X-H torsion
[ 10167 10162 10161 10158 ] final -141.32 input  -65.29 | X-H torsion
[ 10718 10713 10712 10709 ] final  131.55 input   66.30 | X-H torsion
[ 10763 10752 10751 10750 ] final  170.04 input  -60.55 | X-H torsion
[ 11005 11000 10999 10996 ] final  -94.94 input  -57.11 | X-H torsion

> <Gold.Protein.ActiveResidues>
 VAL166  LYS551  ARG553  GLY616  TRP617  ASP618  TYR619  PRO620  LYS621  CYS622 
 ASP623  PHE694  ASN695  SER759  ASP760  ASP761  ALA762  ILE779  LEU786  VAL792 
 PHE793  MET794  SER795  GLU796  ALA797  LYS798  CYS799  TRP800  GLU811  SER814 

> <Gold.Protein.RotatedAtoms>
  152.5310  133.9903  159.7847 H   0  0  0  0  0  0  0  0  0  0  0  0  # atno 6907 bound_to 6896
  151.0140  133.5931  159.2686 H   0  0  0  0  0  0  0  0  0  0  0  0  # atno 6908 bound_to 6896
  151.2995  135.0771  159.9286 H   0  0  0  0  0  0  0  0  0  0  0  0  # atno 6909 bound_to 6896
  144.7916  140.4950  143.5769 H   0  0  0  0  0  0  0  0  0  0  0  0  # atno 7974 bound_to 7965
  154.4364  140.1056  156.6158 H   0  0  0  0  0  0  0  0  0  0  0  0  # atno 8008 bound_to 7997
  155.5761  140.3490  155.4509 H   0  0  0  0  0  0  0  0  0  0  0  0  # atno 8009 bound_to 7997
  156.0354  140.1270  157.0203 H   0  0  0  0  0  0  0  0  0  0  0  0  # atno 8010 bound_to 7997
  139.8196  143.7592  152.2666 H   0  0  0  0  0  0  0  0  0  0  0  0  # atno 10167 bound_to 10162
  157.4957  131.1092  150.9496 H   0  0  0  0  0  0  0  0  0  0  0  0  # atno 10718 bound_to 10713
  154.3919  135.2754  155.2149 H   0  0  0  0  0  0  0  0  0  0  0  0  # atno 10763 bound_to 10752
  154.4212  135.5999  153.6014 H   0  0  0  0  0  0  0  0  0  0  0  0  # atno 10764 bound_to 10752
  152.9832  135.5973  154.4175 H   0  0  0  0  0  0  0  0  0  0  0  0  # atno 10765 bound_to 10752
  141.1456  133.7991  157.0367 H   0  0  0  0  0  0  0  0  0  0  0  0  # atno 11005 bound_to 11000
  145.5780  139.1487  143.3251 LP  0  0  0  0  0  0  0  0  0  0  0  0  # atno 17320 bound_to 7965
  146.2170  140.5911  142.9034 LP  0  0  0  0  0  0  0  0  0  0  0  0  # atno 17321 bound_to 7965
  139.7766  144.7459  151.0148 LP  0  0  0  0  0  0  0  0  0  0  0  0  # atno 17342 bound_to 10162
  140.7814  143.4587  151.0308 LP  0  0  0  0  0  0  0  0  0  0  0  0  # atno 17343 bound_to 10162
  157.0184  130.5664  149.5328 LP  0  0  0  0  0  0  0  0  0  0  0  0  # atno 17370 bound_to 10713
  156.0199  130.5294  150.8245 LP  0  0  0  0  0  0  0  0  0  0  0  0  # atno 17371 bound_to 10713
  140.0719  134.9697  157.1482 LP  0  0  0  0  0  0  0  0  0  0  0  0  # atno 17394 bound_to 11000
  140.3698  134.2402  155.7179 LP  0  0  0  0  0  0  0  0  0  0  0  0  # atno 17395 bound_to 11000

$$$$
