AV-unprocessed.smi:1535|AV-procd|sdf|6184|dock1
  -GOLD-   22720 6343D 1   1.00000     0.00000
 Structure written by MMmdl.
 47 48  0  0  0  0  0  0  0  0  2 V2000
  152.6276  142.8102  160.7744 C   0  0  0  0  0  0  0  0  0  0  0  0
  152.0147  142.4360  159.4360 C   0  0  0  0  0  0  0  0  0  0  0  0
  152.4988  141.2976  158.7527 C   0  0  0  0  0  0  0  0  0  0  0  0
  151.9546  140.9144  157.5078 C   0  0  0  0  0  0  0  0  0  0  0  0
  152.2709  139.8541  156.6762 N   0  0  0  0  0  0  0  0  0  0  0  0
  151.4179  140.0355  155.6726 C   0  0  0  0  0  0  0  0  0  0  0  0
  150.5936  141.0984  155.7491 N   0  0  0  0  0  0  0  0  0  0  0  0
  149.5946  141.5043  154.7774 C   0  0  0  0  0  0  0  0  0  0  0  0
  148.6362  140.3574  154.3996 C   0  0  2  0  0  0  0  0  0  0  0  0
  149.3399  139.4639  153.5610 O   0  0  0  0  0  0  0  0  0  0  0  0
  147.3666  140.8350  153.6593 C   0  0  0  0  0  0  0  0  0  0  0  0
  146.4127  139.7260  153.3946 N   0  3  1  0  0  0  0  0  0  0  0  0
  146.7320  138.9888  152.1471 C   0  0  0  0  0  0  0  0  0  0  0  0
  146.2558  138.8252  154.5675 C   0  0  0  0  0  0  0  0  0  0  0  0
  144.8535  138.1928  154.6629 C   0  0  1  0  0  0  0  0  0  0  0  0
  144.5338  137.3521  153.4203 C   0  0  0  0  0  0  0  0  0  0  0  0
  144.7111  137.3876  155.8869 C   0  0  0  0  0  0  0  0  0  0  0  0
  144.5966  136.7581  156.8501 N   0  0  0  0  0  0  0  0  0  0  0  0
  150.9065  141.7095  156.9585 C   0  0  0  0  0  0  0  0  0  0  0  0
  150.4154  142.8436  157.6292 C   0  0  0  0  0  0  0  0  0  0  0  0
  150.9690  143.2111  158.8734 C   0  0  0  0  0  0  0  0  0  0  0  0
  150.4311  144.4366  159.5905 C   0  0  0  0  0  0  0  0  0  0  0  0
  153.4340  142.1291  161.0478 H   0  0  0  0  0  0  0  0  0  0  0  0
  151.8753  142.7717  161.5626 H   0  0  0  0  0  0  0  0  0  0  0  0
  153.0406  143.8186  160.7381 H   0  0  0  0  0  0  0  0  0  0  0  0
  153.2942  140.7063  159.1819 H   0  0  0  0  0  0  0  0  0  0  0  0
  151.3981  139.3621  154.8279 H   0  0  0  0  0  0  0  0  0  0  0  0
  149.0351  142.3466  155.1875 H   0  0  0  0  0  0  0  0  0  0  0  0
  150.1130  141.8746  153.8919 H   0  0  0  0  0  0  0  0  0  0  0  0
  148.3679  139.8200  155.3081 H   0  0  0  0  0  0  0  0  0  0  0  0
  149.1997  139.7191  152.6612 H   0  0  0  0  0  0  0  0  0  0  0  0
  146.8474  141.6122  154.2220 H   0  0  0  0  0  0  0  0  0  0  0  0
  147.6800  141.3011  152.7240 H   0  0  0  0  0  0  0  0  0  0  0  0
  147.6685  138.4387  152.2479 H   0  0  0  0  0  0  0  0  0  0  0  0
  146.8302  139.6620  151.2966 H   0  0  0  0  0  0  0  0  0  0  0  0
  145.9458  138.2795  151.8930 H   0  0  0  0  0  0  0  0  0  0  0  0
  147.0249  138.0517  154.5369 H   0  0  0  0  0  0  0  0  0  0  0  0
  146.4247  139.3925  155.4838 H   0  0  0  0  0  0  0  0  0  0  0  0
  144.1003  138.9772  154.7244 H   0  0  0  0  0  0  0  0  0  0  0  0
  143.5283  136.9342  153.4800 H   0  0  0  0  0  0  0  0  0  0  0  0
  145.2326  136.5218  153.3135 H   0  0  0  0  0  0  0  0  0  0  0  0
  144.5880  137.9539  152.5125 H   0  0  0  0  0  0  0  0  0  0  0  0
  149.6179  143.4253  157.1912 H   0  0  0  0  0  0  0  0  0  0  0  0
  149.6157  144.8985  159.0331 H   0  0  0  0  0  0  0  0  0  0  0  0
  151.2174  145.1817  159.7134 H   0  0  0  0  0  0  0  0  0  0  0  0
  150.0511  144.1679  160.5765 H   0  0  0  0  0  0  0  0  0  0  0  0
  145.5144  140.1695  153.2604 H   0  0  0  0  0  0  0  0  0  0  0  0
  1  2  1  0  0  0  0
  1 23  1  0  0  0  0
  1 24  1  0  0  0  0
  1 25  1  0  0  0  0
  2 21  1  0  0  0  0
  2  3  2  0  0  0  0
  3  4  1  0  0  0  0
  3 26  1  0  0  0  0
  4 19  2  0  0  0  0
  4  5  1  0  0  0  0
  5  6  2  0  0  0  0
  6  7  1  0  0  0  0
  6 27  1  0  0  0  0
  7  8  1  0  0  0  0
  7 19  1  0  0  0  0
  8  9  1  0  0  0  0
  8 28  1  0  0  0  0
  8 29  1  0  0  0  0
  9 10  1  0  0  0  0
  9 11  1  0  0  0  0
  9 30  1  0  0  0  0
 10 31  1  0  0  0  0
 11 12  1  0  0  0  0
 11 32  1  0  0  0  0
 11 33  1  0  0  0  0
 12 13  1  0  0  0  0
 12 14  1  0  0  0  0
 12 47  1  0  0  0  0
 13 34  1  0  0  0  0
 13 35  1  0  0  0  0
 13 36  1  0  0  0  0
 14 15  1  0  0  0  0
 14 37  1  0  0  0  0
 14 38  1  0  0  0  0
 15 16  1  0  0  0  0
 15 17  1  0  0  0  0
 15 39  1  0  0  0  0
 16 40  1  0  0  0  0
 16 41  1  0  0  0  0
 16 42  1  0  0  0  0
 17 18  3  0  0  0  0
 19 20  1  0  0  0  0
 20 21  2  0  0  0  0
 20 43  1  0  0  0  0
 21 22  1  0  0  0  0
 22 44  1  0  0  0  0
 22 45  1  0  0  0  0
 22 46  1  0  0  0  0
M  CHG  1  12   1
M  END
> <s_m_source_file>
AV-unprocessed.smi

> <i_m_source_file_index>
1535

> <i_lp_mmshare_version>
43012

> <i_f3d_flags>
0

> <s_epik_input>
W0NIM11jKFtjSF0xKWMoW0NIM10pW2NIXWMoYzEyKW4oW2NIXW4yKVtDSDJdW0NASF0oW09IXSlbQ0gyXU4oW0NIM10pW0NIMl1bQ0BIXShbQ0gzXSlDI04=

> <s_epik_cmdline>
J2VwaWtfcHl0aG9uJywgJy1waCcsICc3LjAnLCAnLXRuJywgJzgnLCAnLW1hJywgJzIwMCcsICctbWV0YWxfYmluZGluZycsICctaW1hZScsICc8aW5maWxlLm1hZT4nLCAnLW9tYWUnLCAnPG91dGZpbGUubWFlPic=

> <r_epik_Ionization_Penalty>
2.21058

> <r_epik_Ionization_Penalty_Charging>
2.12381

> <r_epik_Ionization_Penalty_Neutral>
0.0867699

> <r_epik_State_Penalty>
2.36208

> <r_epik_Charging_Adjusted_Penalty>
4.48589

> <i_epik_Tot_Q>
1

> <i_epik_Tot_abs_Q>
1

> <r_epik_Metal_State_Penalty>
2.2818

> <b_epik_Metal_Only>
0

> <s_lp_Force_Field>
OPLS_2005

> <r_lp_Energy>
14.8259

> <b_lp_Chiralities_Consistent>
1

> <s_lp_Variant>
AV-unprocessed.smi:1535-15

> <Gold.Version>
5.8.1

> <Gold.Id.Protein>
6NUR|6NUR_protein|mol2

> <Gold.PLP.Fitness>
51.0282

> <Gold.PLP.PLP>
-40.0779

> <Gold.PLP.part.hbond>
-2.7446

> <Gold.PLP.part.metal>
0.0000

> <Gold.PLP.part.buried>
-1.5394

> <Gold.PLP.part.nonpolar>
-34.6633

> <Gold.PLP.part.repulsive>
0.0000

> <Gold.PLP.ligand.clash>
0.0000

> <Gold.PLP.ligand.torsion>
0.6946

> <Gold.PLP.Chemscore.Hbond>
3.9738

> <Gold.PLP.Chemscore.CHOScore>
0.0000

> <Gold.PLP.Chemscore.Metal>
0.0000

> <Gold.Chemscore.Hbonds>
donor molecule, donor type, donor heavy atom, donor atom, acceptor molecule, acceptor atom, score
      L1  H    10    31       P1  7957  1.00
      L1  H    12    47       P1 10175  2.00
      P1  H  7997  8009       L1     5  0.84

> <Gold.PLP.Chemscore.Internal.Correction>
0.4183

> <Gold.Rescore>
     Score         DG    S(hbond)    S(metal)    S(lipo)     H(rot)  DE(clash)    DE(int)     intcor
     15.52     -18.19       2.26        0.00     101.11       2.60       0.22       2.45       ----

> <Gold.Chemscore.Fitness>
15.5188

> <Gold.Chemscore.DG>
-18.1890

> <Gold.Chemscore.ZeroCoef>
-5.4800

> <Gold.Chemscore.Hbond>
2.2584

> <Gold.Chemscore.Metal>
0.0000

> <Gold.Chemscore.Lipo>
101.1088

> <Gold.Chemscore.Internal_Hbond>
0.0000

> <Gold.Chemscore.DEClash>
0.2205

> <Gold.Chemscore.DEInternal>
2.4497

> <Gold.Chemscore.Rot>
2.6031

> <Gold.Chemscore.Internal.Correction>
   9.000000E+99

> <Gold.Chemscore.Hbonds>
donor molecule, donor type, donor heavy atom, donor atom, acceptor molecule, acceptor atom, score
      L1  H    10    31       P1  7957  0.96
      L1  H    12    47       P1 10175  0.93
      P1  H  7997  8009       L1     5  0.24

> <Gold.Chemscore.Hbond.Weighted>
-7.5432

> <Gold.Chemscore.Metal.Weighted>
-0.0000

> <Gold.Chemscore.Lipo.Weighted>
-11.8297

> <Gold.Chemscore.Internal_Hbond.Weighted>
0.0000

> <Gold.Chemscore.DEClash.Weighted>
0.2205

> <Gold.Chemscore.DEInternal.Weighted>
2.4497

> <Gold.Chemscore.Rot.Weighted>
6.6640

> <Gold.Chemscore.Internal.Correction.Weighted>
   9.000000E+99

> <Gold.Protein.RotatedTorsions>
[ 6907 6896 6895 6894 ] final  -29.81 input  -60.11 | X-H torsion
[ 7974 7965 7964 7962 ] final -136.97 input  175.53 | X-H torsion
[ 8008 7997 7996 7995 ] final -169.07 input   59.86 | X-H torsion
[ 10167 10162 10161 10158 ] final   81.51 input  -65.29 | X-H torsion
[ 10718 10713 10712 10709 ] final  -88.21 input   66.30 | X-H torsion
[ 10763 10752 10751 10750 ] final   12.71 input  -60.55 | X-H torsion
[ 11005 11000 10999 10996 ] final   72.48 input  -57.11 | X-H torsion

> <Gold.Protein.ActiveResidues>
 VAL166  LYS551  ARG553  GLY616  TRP617  ASP618  TYR619  PRO620  LYS621  CYS622 
 ASP623  PHE694  ASN695  SER759  ASP760  ASP761  ALA762  ILE779  LEU786  VAL792 
 PHE793  MET794  SER795  GLU796  ALA797  LYS798  CYS799  TRP800  GLU811  SER814 

> <Gold.Protein.RotatedAtoms>
  151.1141  135.0043  159.8507 H   0  0  0  0  0  0  0  0  0  0  0  0  # atno 6907 bound_to 6896
  152.5445  134.1800  159.8642 H   0  0  0  0  0  0  0  0  0  0  0  0  # atno 6908 bound_to 6896
  151.1853  133.4655  159.2627 H   0  0  0  0  0  0  0  0  0  0  0  0  # atno 6909 bound_to 6896
  144.8882  140.6604  143.5162 H   0  0  0  0  0  0  0  0  0  0  0  0  # atno 7974 bound_to 7965
  155.9000  140.1039  157.1357 H   0  0  0  0  0  0  0  0  0  0  0  0  # atno 8008 bound_to 7997
  154.4025  140.1294  156.4488 H   0  0  0  0  0  0  0  0  0  0  0  0  # atno 8009 bound_to 7997
  155.7434  140.3466  155.5117 H   0  0  0  0  0  0  0  0  0  0  0  0  # atno 8010 bound_to 7997
  139.9385  144.6105  150.8274 H   0  0  0  0  0  0  0  0  0  0  0  0  # atno 10167 bound_to 10162
  155.9984  130.4827  150.4985 H   0  0  0  0  0  0  0  0  0  0  0  0  # atno 10718 bound_to 10713
  153.1795  135.6825  153.8497 H   0  0  0  0  0  0  0  0  0  0  0  0  # atno 10763 bound_to 10752
  153.7834  135.3179  155.3370 H   0  0  0  0  0  0  0  0  0  0  0  0  # atno 10764 bound_to 10752
  154.8050  135.4754  154.0465 H   0  0  0  0  0  0  0  0  0  0  0  0  # atno 10765 bound_to 10752
  139.9488  134.7263  156.0912 H   0  0  0  0  0  0  0  0  0  0  0  0  # atno 11005 bound_to 11000
  145.3831  139.1632  143.4269 LP  0  0  0  0  0  0  0  0  0  0  0  0  # atno 17320 bound_to 7965
  146.3037  140.3914  142.8695 LP  0  0  0  0  0  0  0  0  0  0  0  0  # atno 17321 bound_to 7965
  140.7617  143.3182  151.2684 LP  0  0  0  0  0  0  0  0  0  0  0  0  # atno 17342 bound_to 10162
  139.6723  143.9998  152.2760 LP  0  0  0  0  0  0  0  0  0  0  0  0  # atno 17343 bound_to 10162
  157.2972  131.0638  151.2093 LP  0  0  0  0  0  0  0  0  0  0  0  0  # atno 17370 bound_to 10713
  157.3085  130.6878  149.6203 LP  0  0  0  0  0  0  0  0  0  0  0  0  # atno 17371 bound_to 10713
  141.1146  133.6632  156.3063 LP  0  0  0  0  0  0  0  0  0  0  0  0  # atno 17394 bound_to 11000
  140.5768  134.5785  157.5470 LP  0  0  0  0  0  0  0  0  0  0  0  0  # atno 17395 bound_to 11000

$$$$
