AV-unprocessed.smi:3266|AV-procd|sdf|12503|dock1
  -GOLD-   2272018403D 1   1.00000     0.00000
 Structure written by MMmdl.
 39 40  0  0  0  0  0  0  0  0  2 V2000
  152.8553  139.2398  155.2736 O   0  0  0  0  0  0  0  0  0  0  0  0
  151.6967  139.1662  154.8643 C   0  0  0  0  0  0  0  0  0  0  0  0
  151.1931  137.9133  154.1421 C   0  0  0  0  0  0  0  0  0  0  0  0
  151.1664  136.6568  155.0319 C   0  0  0  0  0  0  0  0  0  0  0  0
  150.6368  135.4226  154.2871 C   0  0  1  0  0  0  0  0  0  0  0  0
  150.9233  134.1002  154.9964 C   0  0  0  0  0  0  0  0  0  0  0  0
  149.8332  133.2161  154.4356 C   0  0  0  0  0  0  0  0  0  0  0  0
  148.6537  134.1821  154.3770 C   0  0  0  0  0  0  0  0  0  0  0  0
  149.2167  135.4747  154.1648 O   0  0  0  0  0  0  0  0  0  0  0  0
  150.7964  140.1465  155.0315 N   0  0  0  0  0  0  0  0  0  0  0  0
  151.0508  141.4214  155.6964 C   0  0  0  0  0  0  0  0  0  0  0  0
  150.4332  141.5183  157.1075 C   0  0  0  0  0  0  0  0  0  0  0  0
  151.0028  142.6430  157.9557 C   0  0  0  0  0  0  0  0  0  0  0  0
  151.8925  142.3988  159.0243 C   0  0  0  0  0  0  0  0  0  0  0  0
  152.3942  143.4888  159.7660 C   0  0  0  0  0  0  0  0  0  0  0  0
  151.9978  144.7984  159.4236 C   0  0  0  0  0  0  0  0  0  0  0  0
  151.1084  144.9853  158.3460 C   0  0  0  0  0  0  0  0  0  0  0  0
  150.6492  143.9155  157.6607 N   0  3  0  0  0  0  0  0  0  0  0  0
  150.1924  138.1203  153.7611 H   0  0  0  0  0  0  0  0  0  0  0  0
  151.8278  137.7299  153.2738 H   0  0  0  0  0  0  0  0  0  0  0  0
  152.1748  136.4474  155.3921 H   0  0  0  0  0  0  0  0  0  0  0  0
  150.5522  136.8358  155.9156 H   0  0  0  0  0  0  0  0  0  0  0  0
  151.0579  135.3811  153.2813 H   0  0  0  0  0  0  0  0  0  0  0  0
  151.9269  133.7210  154.8016 H   0  0  0  0  0  0  0  0  0  0  0  0
  150.7994  134.2044  156.0755 H   0  0  0  0  0  0  0  0  0  0  0  0
  150.0995  132.8850  153.4306 H   0  0  0  0  0  0  0  0  0  0  0  0
  149.6346  132.3352  155.0464 H   0  0  0  0  0  0  0  0  0  0  0  0
  147.9418  133.9228  153.5933 H   0  0  0  0  0  0  0  0  0  0  0  0
  148.1215  134.1901  155.3288 H   0  0  0  0  0  0  0  0  0  0  0  0
  149.8678  140.0031  154.6610 H   0  0  0  0  0  0  0  0  0  0  0  0
  152.1243  141.6113  155.7396 H   0  0  0  0  0  0  0  0  0  0  0  0
  150.6269  142.2029  155.0651 H   0  0  0  0  0  0  0  0  0  0  0  0
  149.3535  141.6537  157.0293 H   0  0  0  0  0  0  0  0  0  0  0  0
  150.5756  140.5730  157.6320 H   0  0  0  0  0  0  0  0  0  0  0  0
  152.1894  141.3900  159.2718 H   0  0  0  0  0  0  0  0  0  0  0  0
  153.0757  143.3222  160.5872 H   0  0  0  0  0  0  0  0  0  0  0  0
  152.3706  145.6464  159.9793 H   0  0  0  0  0  0  0  0  0  0  0  0
  150.7530  145.9496  158.0136 H   0  0  0  0  0  0  0  0  0  0  0  0
  150.0071  144.0734  156.8831 H   0  0  0  0  0  0  0  0  0  0  0  0
  1  2  2  0  0  0  0
  2  3  1  0  0  0  0
  2 10  1  0  0  0  0
  3  4  1  0  0  0  0
  3 19  1  0  0  0  0
  3 20  1  0  0  0  0
  4  5  1  0  0  0  0
  4 21  1  0  0  0  0
  4 22  1  0  0  0  0
  5  9  1  0  0  0  0
  5  6  1  0  0  0  0
  5 23  1  0  0  0  0
  6  7  1  0  0  0  0
  6 24  1  0  0  0  0
  6 25  1  0  0  0  0
  7  8  1  0  0  0  0
  7 26  1  0  0  0  0
  7 27  1  0  0  0  0
  8  9  1  0  0  0  0
  8 28  1  0  0  0  0
  8 29  1  0  0  0  0
 10 11  1  0  0  0  0
 10 30  1  0  0  0  0
 11 12  1  0  0  0  0
 11 31  1  0  0  0  0
 11 32  1  0  0  0  0
 12 13  1  0  0  0  0
 12 33  1  0  0  0  0
 12 34  1  0  0  0  0
 13 18  1  0  0  0  0
 13 14  2  0  0  0  0
 14 15  1  0  0  0  0
 14 35  1  0  0  0  0
 15 16  2  0  0  0  0
 15 36  1  0  0  0  0
 16 17  1  0  0  0  0
 16 37  1  0  0  0  0
 17 18  2  0  0  0  0
 17 38  1  0  0  0  0
 18 39  1  0  0  0  0
M  CHG  1  18   1
M  END
> <s_m_source_file>
AV-unprocessed.smi

> <i_m_source_file_index>
3266

> <i_lp_mmshare_version>
43012

> <i_f3d_flags>
0

> <s_epik_input>
TzFbQ0gyXVtDSDJdW0NIMl1bQ0BIXTFbQ0gyXVtDSDJdQyg9TylbTkhdW0NIMl1bQ0gyXWMyW2NIXVtjSF1bY0hdW2NIXW4y

> <s_epik_cmdline>
J2VwaWtfcHl0aG9uJywgJy1waCcsICc3LjAnLCAnLXRuJywgJzgnLCAnLW1hJywgJzIwMCcsICctbWV0YWxfYmluZGluZycsICctaW1hZScsICc8aW5maWxlLm1hZT4nLCAnLW9tYWUnLCAnPG91dGZpbGUubWFlPic=

> <r_epik_Ionization_Penalty>
1.8495

> <r_epik_Ionization_Penalty_Charging>
1.8495

> <r_epik_Ionization_Penalty_Neutral>
1.53068e-08

> <r_epik_State_Penalty>
1.96688

> <r_epik_Charging_Adjusted_Penalty>
3.81638

> <i_epik_Tot_Q>
1

> <i_epik_Tot_abs_Q>
1

> <r_epik_Metal_State_Penalty>
1.99263

> <b_epik_Metal_Only>
0

> <s_lp_Force_Field>
OPLS_2005

> <r_lp_Energy>
22.1722

> <b_lp_Chiralities_Consistent>
1

> <s_lp_Variant>
AV-unprocessed.smi:3266-4

> <Gold.Version>
5.8.1

> <Gold.Id.Protein>
6NUR|6NUR_protein|mol2

> <Gold.PLP.Fitness>
46.9024

> <Gold.PLP.PLP>
-38.7207

> <Gold.PLP.part.hbond>
-2.0000

> <Gold.PLP.part.metal>
0.0000

> <Gold.PLP.part.buried>
-6.4364

> <Gold.PLP.part.nonpolar>
-31.1366

> <Gold.PLP.part.repulsive>
1.3798

> <Gold.PLP.ligand.clash>
0.0000

> <Gold.PLP.ligand.torsion>
0.4709

> <Gold.PLP.Chemscore.Hbond>
3.0000

> <Gold.PLP.Chemscore.CHOScore>
0.0000

> <Gold.PLP.Chemscore.Metal>
0.0000

> <Gold.Chemscore.Hbonds>
donor molecule, donor type, donor heavy atom, donor atom, acceptor molecule, acceptor atom, score
      L1  H    18    39       P1  8028  2.00
      P1  H  7997  8009       L1     1  1.00

> <Gold.PLP.Chemscore.Internal.Correction>
0.1235

> <Gold.Rescore>
     Score         DG    S(hbond)    S(metal)    S(lipo)     H(rot)  DE(clash)    DE(int)     intcor
     18.87     -19.33       1.96        0.00     102.74       1.84       0.07       0.40       ----

> <Gold.Chemscore.Fitness>
18.8663

> <Gold.Chemscore.DG>
-19.3332

> <Gold.Chemscore.ZeroCoef>
-5.4800

> <Gold.Chemscore.Hbond>
1.9577

> <Gold.Chemscore.Metal>
0.0000

> <Gold.Chemscore.Lipo>
102.7380

> <Gold.Chemscore.Internal_Hbond>
0.0000

> <Gold.Chemscore.DEClash>
0.0680

> <Gold.Chemscore.DEInternal>
0.3989

> <Gold.Chemscore.Rot>
1.8382

> <Gold.Chemscore.Internal.Correction>
   9.000000E+99

> <Gold.Chemscore.Hbonds>
donor molecule, donor type, donor heavy atom, donor atom, acceptor molecule, acceptor atom, score
      L1  H    18    39       P1  8028  0.96
      P1  H  7997  8009       L1     1  0.99

> <Gold.Chemscore.Hbond.Weighted>
-6.5387

> <Gold.Chemscore.Metal.Weighted>
-0.0000

> <Gold.Chemscore.Lipo.Weighted>
-12.0203

> <Gold.Chemscore.Internal_Hbond.Weighted>
0.0000

> <Gold.Chemscore.DEClash.Weighted>
0.0680

> <Gold.Chemscore.DEInternal.Weighted>
0.3989

> <Gold.Chemscore.Rot.Weighted>
4.7058

> <Gold.Chemscore.Internal.Correction.Weighted>
   9.000000E+99

> <Gold.Protein.RotatedTorsions>
[ 6907 6896 6895 6894 ] final   40.78 input  -60.11 | X-H torsion
[ 7974 7965 7964 7962 ] final -162.19 input  175.53 | X-H torsion
[ 8008 7997 7996 7995 ] final -151.06 input   59.86 | X-H torsion
[ 10167 10162 10161 10158 ] final  169.12 input  -65.29 | X-H torsion
[ 10718 10713 10712 10709 ] final   68.95 input   66.30 | X-H torsion
[ 10763 10752 10751 10750 ] final  -70.98 input  -60.55 | X-H torsion
[ 11005 11000 10999 10996 ] final  147.91 input  -57.11 | X-H torsion

> <Gold.Protein.ActiveResidues>
 VAL166  LYS551  ARG553  GLY616  TRP617  ASP618  TYR619  PRO620  LYS621  CYS622 
 ASP623  PHE694  ASN695  SER759  ASP760  ASP761  ALA762  ILE779  LEU786  VAL792 
 PHE793  MET794  SER795  GLU796  ALA797  LYS798  CYS799  TRP800  GLU811  SER814 

> <Gold.Protein.RotatedAtoms>
  152.1868  134.8706  160.0521 H   0  0  0  0  0  0  0  0  0  0  0  0  # atno 6907 bound_to 6896
  151.9610  133.3690  159.4043 H   0  0  0  0  0  0  0  0  0  0  0  0  # atno 6908 bound_to 6896
  150.6927  134.4164  159.5229 H   0  0  0  0  0  0  0  0  0  0  0  0  # atno 6909 bound_to 6896
  144.7365  140.3288  143.6157 H   0  0  0  0  0  0  0  0  0  0  0  0  # atno 7974 bound_to 7965
  155.6334  140.0694  157.2641 H   0  0  0  0  0  0  0  0  0  0  0  0  # atno 8008 bound_to 7997
  154.4200  140.1763  156.1546 H   0  0  0  0  0  0  0  0  0  0  0  0  # atno 8009 bound_to 7997
  155.9914  140.3345  155.6760 H   0  0  0  0  0  0  0  0  0  0  0  0  # atno 8010 bound_to 7997
  139.4984  144.3740  151.9694 H   0  0  0  0  0  0  0  0  0  0  0  0  # atno 10167 bound_to 10162
  157.6318  130.9400  150.0447 H   0  0  0  0  0  0  0  0  0  0  0  0  # atno 10718 bound_to 10713
  154.4253  135.5977  153.6035 H   0  0  0  0  0  0  0  0  0  0  0  0  # atno 10763 bound_to 10752
  152.9796  135.5962  154.3905 H   0  0  0  0  0  0  0  0  0  0  0  0  # atno 10764 bound_to 10752
  154.3736  135.2841  155.2231 H   0  0  0  0  0  0  0  0  0  0  0  0  # atno 10765 bound_to 10752
  140.0915  134.9038  157.1658 H   0  0  0  0  0  0  0  0  0  0  0  0  # atno 11005 bound_to 11000
  145.7493  139.1788  143.2331 LP  0  0  0  0  0  0  0  0  0  0  0  0  # atno 17320 bound_to 7965
  146.1073  140.7471  142.9520 LP  0  0  0  0  0  0  0  0  0  0  0  0  # atno 17321 bound_to 7965
  140.3176  144.3465  150.6017 LP  0  0  0  0  0  0  0  0  0  0  0  0  # atno 17342 bound_to 10162
  140.5748  143.2177  151.7534 LP  0  0  0  0  0  0  0  0  0  0  0  0  # atno 17343 bound_to 10162
  156.1528  130.3642  149.9414 LP  0  0  0  0  0  0  0  0  0  0  0  0  # atno 17370 bound_to 10713
  156.7430  130.9086  151.3633 LP  0  0  0  0  0  0  0  0  0  0  0  0  # atno 17371 bound_to 10713
  140.3345  134.2773  155.7222 LP  0  0  0  0  0  0  0  0  0  0  0  0  # atno 17394 bound_to 11000
  141.2079  133.7792  157.0089 LP  0  0  0  0  0  0  0  0  0  0  0  0  # atno 17395 bound_to 11000

$$$$
