AV-unprocessed.smi:3114|AV-procd|sdf|11857|dock3
  -GOLD-   2272017243D 1   1.00000     0.00000
 Structure written by MMmdl.
 31 31  0  0  0  0  0  0  0  0  2 V2000
  153.5951  141.4107  159.9239 C   0  0  0  0  0  0  0  0  0  0  0  0
  153.3060  142.6819  160.4859 O   0  0  0  0  0  0  0  0  0  0  0  0
  152.2881  143.4130  159.9160 C   0  0  0  0  0  0  0  0  0  0  0  0
  151.9028  144.7142  160.3061 C   0  0  0  0  0  0  0  0  0  0  0  0
  150.8385  145.2988  159.5963 C   0  0  0  0  0  0  0  0  0  0  0  0
  150.2334  144.6259  158.5875 N   0  3  0  0  0  0  0  0  0  0  0  0
  150.6538  143.3945  158.2623 C   0  0  0  0  0  0  0  0  0  0  0  0
  150.0218  142.7626  157.2047 N   0  0  0  0  0  0  0  0  0  0  0  0
  150.3661  141.4264  156.7343 C   0  0  0  0  0  0  0  0  0  0  0  0
  149.8003  141.1432  155.3343 C   0  0  0  0  0  0  0  0  0  0  0  0
  150.7314  140.3527  154.6166 O   0  0  0  0  0  0  0  0  0  0  0  0
  151.0405  139.1239  155.2482 C   0  0  0  0  0  0  0  0  0  0  0  0
  152.0969  138.4012  154.4040 C   0  0  0  0  0  0  0  0  0  0  0  0
  151.6555  137.0969  154.0897 O   0  0  0  0  0  0  0  0  0  0  0  0
  151.6517  142.7783  158.9117 N   0  0  0  0  0  0  0  0  0  0  0  0
  154.4116  140.9485  160.4784 H   0  0  0  0  0  0  0  0  0  0  0  0
  153.9102  141.4979  158.8831 H   0  0  0  0  0  0  0  0  0  0  0  0
  152.7344  140.7431  159.9857 H   0  0  0  0  0  0  0  0  0  0  0  0
  152.3857  145.2561  161.1054 H   0  0  0  0  0  0  0  0  0  0  0  0
  150.4536  146.2874  159.7998 H   0  0  0  0  0  0  0  0  0  0  0  0
  149.5163  143.3555  156.5630 H   0  0  0  0  0  0  0  0  0  0  0  0
  151.4455  141.2722  156.7580 H   0  0  0  0  0  0  0  0  0  0  0  0
  149.9387  140.7168  157.4428 H   0  0  0  0  0  0  0  0  0  0  0  0
  148.8613  140.5942  155.4146 H   0  0  0  0  0  0  0  0  0  0  0  0
  149.5877  142.0788  154.8138 H   0  0  0  0  0  0  0  0  0  0  0  0
  151.4428  139.3304  156.2412 H   0  0  0  0  0  0  0  0  0  0  0  0
  150.1512  138.5045  155.3772 H   0  0  0  0  0  0  0  0  0  0  0  0
  152.3255  138.9559  153.4933 H   0  0  0  0  0  0  0  0  0  0  0  0
  153.0240  138.3108  154.9705 H   0  0  0  0  0  0  0  0  0  0  0  0
  151.5351  137.0390  153.1540 H   0  0  0  0  0  0  0  0  0  0  0  0
  149.4699  145.0696  158.0767 H   0  0  0  0  0  0  0  0  0  0  0  0
  1  2  1  0  0  0  0
  1 16  1  0  0  0  0
  1 17  1  0  0  0  0
  1 18  1  0  0  0  0
  2  3  1  0  0  0  0
  3 15  1  0  0  0  0
  3  4  2  0  0  0  0
  4  5  1  0  0  0  0
  4 19  1  0  0  0  0
  5  6  2  0  0  0  0
  5 20  1  0  0  0  0
  6  7  1  0  0  0  0
  6 31  1  0  0  0  0
  7  8  1  0  0  0  0
  7 15  2  0  0  0  0
  8  9  1  0  0  0  0
  8 21  1  0  0  0  0
  9 10  1  0  0  0  0
  9 22  1  0  0  0  0
  9 23  1  0  0  0  0
 10 11  1  0  0  0  0
 10 24  1  0  0  0  0
 10 25  1  0  0  0  0
 11 12  1  0  0  0  0
 12 13  1  0  0  0  0
 12 26  1  0  0  0  0
 12 27  1  0  0  0  0
 13 14  1  0  0  0  0
 13 28  1  0  0  0  0
 13 29  1  0  0  0  0
 14 30  1  0  0  0  0
M  CHG  1   6   1
M  END
> <s_m_source_file>
AV-unprocessed.smi

> <i_m_source_file_index>
3114

> <i_lp_mmshare_version>
43012

> <i_f3d_flags>
0

> <s_epik_input>
W0NIM11PYzFbY0hdW2NIXW5jKG4xKVtOSF1bQ0gyXVtDSDJdT1tDSDJdW0NIMl1bT0hd

> <s_epik_cmdline>
J2VwaWtfcHl0aG9uJywgJy1waCcsICc3LjAnLCAnLXRuJywgJzgnLCAnLW1hJywgJzIwMCcsICctbWV0YWxfYmluZGluZycsICctaW1hZScsICc8aW5maWxlLm1hZT4nLCAnLW9tYWUnLCAnPG91dGZpbGUubWFlPic=

> <r_lp_tautomer_probability>
0.999985

> <r_epik_Ionization_Penalty>
1.70515

> <r_epik_Ionization_Penalty_Charging>
1.70513

> <r_epik_Ionization_Penalty_Neutral>
1.12168e-05

> <r_epik_State_Penalty>
1.81144

> <r_epik_Charging_Adjusted_Penalty>
3.51658

> <i_epik_Tot_Q>
1

> <i_epik_Tot_abs_Q>
1

> <r_epik_Metal_State_Penalty>
1.84414

> <b_epik_Metal_Only>
0

> <s_lp_Force_Field>
OPLS_2005

> <r_lp_Energy>
4.65806

> <b_lp_Chiralities_Consistent>
1

> <s_lp_Variant>
AV-unprocessed.smi:3114-2

> <Gold.Version>
5.8.1

> <Gold.Id.Protein>
6NUR|6NUR_protein|mol2

> <Gold.PLP.Fitness>
55.4852

> <Gold.PLP.PLP>
-35.9133

> <Gold.PLP.part.hbond>
-5.3646

> <Gold.PLP.part.metal>
0.0000

> <Gold.PLP.part.buried>
-7.0575

> <Gold.PLP.part.nonpolar>
-24.6342

> <Gold.PLP.part.repulsive>
0.2695

> <Gold.PLP.ligand.clash>
0.0000

> <Gold.PLP.ligand.torsion>
0.7284

> <Gold.PLP.Chemscore.Hbond>
6.9913

> <Gold.PLP.Chemscore.CHOScore>
0.0000

> <Gold.PLP.Chemscore.Metal>
0.0000

> <Gold.Chemscore.Hbonds>
donor molecule, donor type, donor heavy atom, donor atom, acceptor molecule, acceptor atom, score
      L1  H     6    31       P1  8029  2.00
      L1  H     8    21       P1  8028  2.00
      L1  H    14    30       P1  7949  1.00
      P1  H  7989  7998       L1    11  0.99
      P1  H 10752 10763       L1    14  1.00

> <Gold.PLP.Chemscore.Internal.Correction>
0.0551

> <Gold.Rescore>
     Score         DG    S(hbond)    S(metal)    S(lipo)     H(rot)  DE(clash)    DE(int)     intcor
     16.31     -17.05       3.89        0.00      60.04       3.29       0.05       0.69       ----

> <Gold.Chemscore.Fitness>
16.3100

> <Gold.Chemscore.DG>
-17.0507

> <Gold.Chemscore.ZeroCoef>
-5.4800

> <Gold.Chemscore.Hbond>
3.8851

> <Gold.Chemscore.Metal>
0.0000

> <Gold.Chemscore.Lipo>
60.0400

> <Gold.Chemscore.Internal_Hbond>
0.0000

> <Gold.Chemscore.DEClash>
0.0515

> <Gold.Chemscore.DEInternal>
0.6892

> <Gold.Chemscore.Rot>
3.2930

> <Gold.Chemscore.Internal.Correction>
   9.000000E+99

> <Gold.Chemscore.Hbonds>
donor molecule, donor type, donor heavy atom, donor atom, acceptor molecule, acceptor atom, score
      L1  H     6    31       P1  8029  0.25
      L1  H     8    21       P1  8028  1.00
      L1  H    14    30       P1  7949  0.86
      P1  H  7989  7998       L1    11  0.89
      P1  H 10752 10763       L1    14  0.26

> <Gold.Chemscore.Hbond.Weighted>
-12.9762

> <Gold.Chemscore.Metal.Weighted>
-0.0000

> <Gold.Chemscore.Lipo.Weighted>
-7.0247

> <Gold.Chemscore.Internal_Hbond.Weighted>
0.0000

> <Gold.Chemscore.DEClash.Weighted>
0.0515

> <Gold.Chemscore.DEInternal.Weighted>
0.6892

> <Gold.Chemscore.Rot.Weighted>
8.4302

> <Gold.Chemscore.Internal.Correction.Weighted>
   9.000000E+99

> <Gold.Protein.RotatedTorsions>
[ 6907 6896 6895 6894 ] final  147.86 input  -60.11 | X-H torsion
[ 7974 7965 7964 7962 ] final  156.39 input  175.53 | X-H torsion
[ 8008 7997 7996 7995 ] final  -80.39 input   59.86 | X-H torsion
[ 10167 10162 10161 10158 ] final  -79.91 input  -65.29 | X-H torsion
[ 10718 10713 10712 10709 ] final  -85.29 input   66.30 | X-H torsion
[ 10763 10752 10751 10750 ] final   50.22 input  -60.55 | X-H torsion
[ 11005 11000 10999 10996 ] final  -31.06 input  -57.11 | X-H torsion

> <Gold.Protein.ActiveResidues>
 VAL166  LYS551  ARG553  GLY616  TRP617  ASP618  TYR619  PRO620  LYS621  CYS622 
 ASP623  PHE694  ASN695  SER759  ASP760  ASP761  ALA762  ILE779  LEU786  VAL792 
 PHE793  MET794  SER795  GLU796  ALA797  LYS798  CYS799  TRP800  GLU811  SER814 

> <Gold.Protein.RotatedAtoms>
  152.1491  133.4511  159.4804 H   0  0  0  0  0  0  0  0  0  0  0  0  # atno 6907 bound_to 6896
  150.6894  134.2211  159.4406 H   0  0  0  0  0  0  0  0  0  0  0  0  # atno 6908 bound_to 6896
  152.0106  134.9878  160.0618 H   0  0  0  0  0  0  0  0  0  0  0  0  # atno 6909 bound_to 6896
  144.7966  139.7197  143.6199 H   0  0  0  0  0  0  0  0  0  0  0  0  # atno 7974 bound_to 7965
  154.5878  140.0663  156.9196 H   0  0  0  0  0  0  0  0  0  0  0  0  # atno 8008 bound_to 7997
  155.2348  140.3340  155.4281 H   0  0  0  0  0  0  0  0  0  0  0  0  # atno 8009 bound_to 7997
  156.2235  140.1809  156.7404 H   0  0  0  0  0  0  0  0  0  0  0  0  # atno 8010 bound_to 7997
  140.4550  143.2471  151.8433 H   0  0  0  0  0  0  0  0  0  0  0  0  # atno 10167 bound_to 10162
  155.9998  130.4726  150.4539 H   0  0  0  0  0  0  0  0  0  0  0  0  # atno 10718 bound_to 10713
  152.9785  135.5886  154.4217 H   0  0  0  0  0  0  0  0  0  0  0  0  # atno 10763 bound_to 10752
  154.3840  135.2767  155.2196 H   0  0  0  0  0  0  0  0  0  0  0  0  # atno 10764 bound_to 10752
  154.4097  135.6084  153.6000 H   0  0  0  0  0  0  0  0  0  0  0  0  # atno 10765 bound_to 10752
  140.9436  133.7264  156.1112 H   0  0  0  0  0  0  0  0  0  0  0  0  # atno 11005 bound_to 11000
  146.2236  139.5681  142.9602 LP  0  0  0  0  0  0  0  0  0  0  0  0  # atno 17320 bound_to 7965
  145.5658  141.0399  143.2201 LP  0  0  0  0  0  0  0  0  0  0  0  0  # atno 17321 bound_to 7965
  139.4800  144.5075  151.8978 LP  0  0  0  0  0  0  0  0  0  0  0  0  # atno 17342 bound_to 10162
  140.4162  144.2304  150.5887 LP  0  0  0  0  0  0  0  0  0  0  0  0  # atno 17343 bound_to 10162
  157.2570  131.0558  151.2344 LP  0  0  0  0  0  0  0  0  0  0  0  0  # atno 17370 bound_to 10713
  157.3473  130.7064  149.6418 LP  0  0  0  0  0  0  0  0  0  0  0  0  # atno 17371 bound_to 10713
  140.7701  134.3843  157.5509 LP  0  0  0  0  0  0  0  0  0  0  0  0  # atno 17394 bound_to 11000
  139.8827  134.9016  156.2815 LP  0  0  0  0  0  0  0  0  0  0  0  0  # atno 17395 bound_to 11000

$$$$
