AV-unprocessed.smi:1210|AV-procd|sdf|5077|dock7
  -GOLD-   22720 4123D 1   1.00000     0.00000
 Structure written by MMmdl.
 44 45  0  0  0  0  0  0  0  0  1 V2000
  144.3478  141.4357  160.4559 C   0  0  0  0  0  0  0  0  0  0  0  0
  145.0483  142.7100  160.8320 C   0  0  0  0  0  0  0  0  0  0  0  0
  145.0229  143.1188  162.0894 N   0  0  0  0  0  0  0  0  0  0  0  0
  145.7585  144.3073  162.1210 O   0  0  0  0  0  0  0  0  0  0  0  0
  146.2055  144.5692  160.8665 C   0  0  0  0  0  0  0  0  0  0  0  0
  147.0233  145.8035  160.6887 C   0  0  0  0  0  0  0  0  0  0  0  0
  145.7909  143.5966  159.9989 C   0  0  0  0  0  0  0  0  0  0  0  0
  146.0581  143.4848  158.5197 C   0  0  0  0  0  0  0  0  0  0  0  0
  146.9002  142.2396  158.2425 C   0  0  0  0  0  0  0  0  0  0  0  0
  146.5987  141.1638  158.7594 O   0  0  0  0  0  0  0  0  0  0  0  0
  147.9417  142.3956  157.4112 N   0  0  0  0  0  0  0  0  0  0  0  0
  148.8305  141.3285  156.9713 C   0  0  0  0  0  0  0  0  0  0  0  0
  150.2430  141.8649  156.6732 C   0  0  0  0  0  0  0  0  0  0  0  0
  151.0106  142.0686  157.9103 N   0  0  0  0  0  0  0  0  0  0  0  0
  150.5174  143.1328  158.7980 C   0  0  0  0  0  0  0  0  0  0  0  0
  151.5234  144.2897  158.9561 C   0  0  0  0  0  0  0  0  0  0  0  0
  152.6350  144.0166  159.9804 C   0  0  0  0  0  0  0  0  0  0  0  0
  153.5610  142.8480  159.6141 C   0  0  0  0  0  0  0  0  0  0  0  0
  152.8278  141.4999  159.5211 C   0  0  0  0  0  0  0  0  0  0  0  0
  152.1013  141.3130  158.1831 C   0  0  0  0  0  0  0  0  0  0  0  0
  152.5296  140.4604  157.4041 O   0  0  0  0  0  0  0  0  0  0  0  0
  145.0413  140.5947  160.4651 H   0  0  0  0  0  0  0  0  0  0  0  0
  143.9208  141.5020  159.4553 H   0  0  0  0  0  0  0  0  0  0  0  0
  143.5351  141.2047  161.1456 H   0  0  0  0  0  0  0  0  0  0  0  0
  147.9758  145.5687  160.2137 H   0  0  0  0  0  0  0  0  0  0  0  0
  147.2320  146.2794  161.6469 H   0  0  0  0  0  0  0  0  0  0  0  0
  146.5005  146.5247  160.0604 H   0  0  0  0  0  0  0  0  0  0  0  0
  145.1278  143.4388  157.9523 H   0  0  0  0  0  0  0  0  0  0  0  0
  146.5959  144.3562  158.1446 H   0  0  0  0  0  0  0  0  0  0  0  0
  148.1152  143.3167  157.0355 H   0  0  0  0  0  0  0  0  0  0  0  0
  148.8681  140.5811  157.7643 H   0  0  0  0  0  0  0  0  0  0  0  0
  148.4164  140.8289  156.0937 H   0  0  0  0  0  0  0  0  0  0  0  0
  150.7673  141.1865  155.9990 H   0  0  0  0  0  0  0  0  0  0  0  0
  150.1728  142.8023  156.1182 H   0  0  0  0  0  0  0  0  0  0  0  0
  149.5930  143.5541  158.4020 H   0  0  0  0  0  0  0  0  0  0  0  0
  150.2466  142.7172  159.7694 H   0  0  0  0  0  0  0  0  0  0  0  0
  151.9533  144.5517  157.9882 H   0  0  0  0  0  0  0  0  0  0  0  0
  150.9777  145.1742  159.2865 H   0  0  0  0  0  0  0  0  0  0  0  0
  153.2381  144.9181  160.0911 H   0  0  0  0  0  0  0  0  0  0  0  0
  152.1901  143.8345  160.9594 H   0  0  0  0  0  0  0  0  0  0  0  0
  154.0816  143.0633  158.6797 H   0  0  0  0  0  0  0  0  0  0  0  0
  154.3382  142.7714  160.3753 H   0  0  0  0  0  0  0  0  0  0  0  0
  153.5603  140.6973  159.6182 H   0  0  0  0  0  0  0  0  0  0  0  0
  152.1346  141.3686  160.3527 H   0  0  0  0  0  0  0  0  0  0  0  0
  1  2  1  0  0  0  0
  1 22  1  0  0  0  0
  1 23  1  0  0  0  0
  1 24  1  0  0  0  0
  2  7  1  0  0  0  0
  2  3  2  0  0  0  0
  3  4  1  0  0  0  0
  4  5  1  0  0  0  0
  5  6  1  0  0  0  0
  5  7  2  0  0  0  0
  6 25  1  0  0  0  0
  6 26  1  0  0  0  0
  6 27  1  0  0  0  0
  7  8  1  0  0  0  0
  8  9  1  0  0  0  0
  8 28  1  0  0  0  0
  8 29  1  0  0  0  0
  9 10  2  0  0  0  0
  9 11  1  0  0  0  0
 11 12  1  0  0  0  0
 11 30  1  0  0  0  0
 12 13  1  0  0  0  0
 12 31  1  0  0  0  0
 12 32  1  0  0  0  0
 13 14  1  0  0  0  0
 13 33  1  0  0  0  0
 13 34  1  0  0  0  0
 14 20  1  0  0  0  0
 14 15  1  0  0  0  0
 15 16  1  0  0  0  0
 15 35  1  0  0  0  0
 15 36  1  0  0  0  0
 16 17  1  0  0  0  0
 16 37  1  0  0  0  0
 16 38  1  0  0  0  0
 17 18  1  0  0  0  0
 17 39  1  0  0  0  0
 17 40  1  0  0  0  0
 18 19  1  0  0  0  0
 18 41  1  0  0  0  0
 18 42  1  0  0  0  0
 19 20  1  0  0  0  0
 19 43  1  0  0  0  0
 19 44  1  0  0  0  0
 20 21  2  0  0  0  0
M  END
> <s_m_source_file>
AV-unprocessed.smi

> <i_m_source_file_index>
1210

> <i_lp_mmshare_version>
43012

> <i_f3d_flags>
0

> <s_epik_input>
W0NIM11jMW5vYyhbQ0gzXSljMVtDSDJdQyg9TylbTkhdW0NIMl1bQ0gyXU4yW0NIMl1bQ0gyXVtDSDJdW0NIMl1bQ0gyXUMyPU8=

> <s_epik_cmdline>
J2VwaWtfcHl0aG9uJywgJy1waCcsICc3LjAnLCAnLXRuJywgJzgnLCAnLW1hJywgJzIwMCcsICctbWV0YWxfYmluZGluZycsICctaW1hZScsICc8aW5maWxlLm1hZT4nLCAnLW9tYWUnLCAnPG91dGZpbGUubWFlPic=

> <r_lp_tautomer_probability>
1

> <r_epik_Ionization_Penalty>
5.48219e-08

> <r_epik_Ionization_Penalty_Charging>
0

> <r_epik_Ionization_Penalty_Neutral>
5.48219e-08

> <r_epik_State_Penalty>
-0

> <r_epik_Charging_Adjusted_Penalty>
0

> <i_epik_Tot_Q>
0

> <i_epik_Tot_abs_Q>
0

> <r_epik_Metal_State_Penalty>
-0

> <b_epik_Metal_Only>
0

> <s_lp_Force_Field>
OPLS_2005

> <r_lp_Energy>
11.1007

> <b_lp_Chiralities_Consistent>
1

> <s_lp_Variant>
AV-unprocessed.smi:1210-1

> <Gold.Version>
5.8.1

> <Gold.Id.Protein>
6NUR|6NUR_protein|mol2

> <Gold.PLP.Fitness>
43.7039

> <Gold.PLP.PLP>
-38.9661

> <Gold.PLP.part.hbond>
-4.0000

> <Gold.PLP.part.metal>
0.0000

> <Gold.PLP.part.buried>
-5.3152

> <Gold.PLP.part.nonpolar>
-28.7474

> <Gold.PLP.part.repulsive>
0.2076

> <Gold.PLP.ligand.clash>
0.0000

> <Gold.PLP.ligand.torsion>
0.4943

> <Gold.PLP.Chemscore.Hbond>
1.8999

> <Gold.PLP.Chemscore.CHOScore>
0.0000

> <Gold.PLP.Chemscore.Metal>
0.0000

> <Gold.Chemscore.Hbonds>
donor molecule, donor type, donor heavy atom, donor atom, acceptor molecule, acceptor atom, score
      L1  H    11    30       P1  8028  0.56
      P1  H  6934  6946       L1    10  0.45
      P1  H  7997  8010       L1    21  0.86

> <Gold.PLP.Chemscore.Internal.Correction>
0.0267

> <Gold.Rescore>
     Score         DG    S(hbond)    S(metal)    S(lipo)     H(rot)  DE(clash)    DE(int)     intcor
     14.97     -15.82       1.62        0.00      81.27       1.79       0.05       0.80       ----

> <Gold.Chemscore.Fitness>
14.9704

> <Gold.Chemscore.DG>
-15.8197

> <Gold.Chemscore.ZeroCoef>
-5.4800

> <Gold.Chemscore.Hbond>
1.6225

> <Gold.Chemscore.Metal>
0.0000

> <Gold.Chemscore.Lipo>
81.2717

> <Gold.Chemscore.Internal_Hbond>
0.0000

> <Gold.Chemscore.DEClash>
0.0526

> <Gold.Chemscore.DEInternal>
0.7968

> <Gold.Chemscore.Rot>
1.7923

> <Gold.Chemscore.Internal.Correction>
   9.000000E+99

> <Gold.Chemscore.Hbonds>
donor molecule, donor type, donor heavy atom, donor atom, acceptor molecule, acceptor atom, score
      L1  H    11    30       P1  8028  0.05
      P1  H  6934  6946       L1    10  0.44
      P1  H  7997  8010       L1    21  0.79

> <Gold.Chemscore.Hbond.Weighted>
-5.4193

> <Gold.Chemscore.Metal.Weighted>
-0.0000

> <Gold.Chemscore.Lipo.Weighted>
-9.5088

> <Gold.Chemscore.Internal_Hbond.Weighted>
0.0000

> <Gold.Chemscore.DEClash.Weighted>
0.0526

> <Gold.Chemscore.DEInternal.Weighted>
0.7968

> <Gold.Chemscore.Rot.Weighted>
4.5884

> <Gold.Chemscore.Internal.Correction.Weighted>
   9.000000E+99

> <Gold.Protein.RotatedTorsions>
[ 6907 6896 6895 6894 ] final -173.98 input  -60.11 | X-H torsion
[ 7974 7965 7964 7962 ] final -122.28 input  175.53 | X-H torsion
[ 8008 7997 7996 7995 ] final   62.91 input   59.86 | X-H torsion
[ 10167 10162 10161 10158 ] final    7.95 input  -65.29 | X-H torsion
[ 10718 10713 10712 10709 ] final   34.27 input   66.30 | X-H torsion
[ 10763 10752 10751 10750 ] final  -50.34 input  -60.55 | X-H torsion
[ 11005 11000 10999 10996 ] final  -20.06 input  -57.11 | X-H torsion

> <Gold.Protein.ActiveResidues>
 VAL166  LYS551  ARG553  GLY616  TRP617  ASP618  TYR619  PRO620  LYS621  CYS622 
 ASP623  PHE694  ASN695  SER759  ASP760  ASP761  ALA762  ILE779  LEU786  VAL792 
 PHE793  MET794  SER795  GLU796  ALA797  LYS798  CYS799  TRP800  GLU811  SER814 

> <Gold.Protein.RotatedAtoms>
  151.5649  133.3398  159.2978 H   0  0  0  0  0  0  0  0  0  0  0  0  # atno 6907 bound_to 6896
  150.8401  134.7692  159.6936 H   0  0  0  0  0  0  0  0  0  0  0  0  # atno 6908 bound_to 6896
  152.4470  134.5481  159.9910 H   0  0  0  0  0  0  0  0  0  0  0  0  # atno 6909 bound_to 6896
  145.0312  140.8069  143.4322 H   0  0  0  0  0  0  0  0  0  0  0  0  # atno 7974 bound_to 7965
  155.6218  140.3496  155.4654 H   0  0  0  0  0  0  0  0  0  0  0  0  # atno 8008 bound_to 7997
  156.0073  140.1226  157.0513 H   0  0  0  0  0  0  0  0  0  0  0  0  # atno 8009 bound_to 7997
  154.4268  140.1088  156.5766 H   0  0  0  0  0  0  0  0  0  0  0  0  # atno 8010 bound_to 7997
  140.6342  143.7924  150.7337 H   0  0  0  0  0  0  0  0  0  0  0  0  # atno 10167 bound_to 10162
  157.3082  130.7386  149.6709 H   0  0  0  0  0  0  0  0  0  0  0  0  # atno 10718 bound_to 10713
  154.1088  135.6552  153.4881 H   0  0  0  0  0  0  0  0  0  0  0  0  # atno 10763 bound_to 10752
  153.0263  135.5243  154.7212 H   0  0  0  0  0  0  0  0  0  0  0  0  # atno 10764 bound_to 10752
  154.6386  135.2985  155.0100 H   0  0  0  0  0  0  0  0  0  0  0  0  # atno 10765 bound_to 10752
  140.8427  133.7914  155.9879 H   0  0  0  0  0  0  0  0  0  0  0  0  # atno 11005 bound_to 11000
  145.1768  139.2373  143.5313 LP  0  0  0  0  0  0  0  0  0  0  0  0  # atno 17320 bound_to 7965
  146.3498  140.1533  142.8592 LP  0  0  0  0  0  0  0  0  0  0  0  0  # atno 17321 bound_to 7965
  140.1542  143.4331  152.2111 LP  0  0  0  0  0  0  0  0  0  0  0  0  # atno 17342 bound_to 10162
  139.5554  144.7368  151.4311 LP  0  0  0  0  0  0  0  0  0  0  0  0  # atno 17343 bound_to 10162
  155.9676  130.4259  150.4675 LP  0  0  0  0  0  0  0  0  0  0  0  0  # atno 17370 bound_to 10713
  157.2669  131.0579  151.2285 LP  0  0  0  0  0  0  0  0  0  0  0  0  # atno 17371 bound_to 10713
  140.8877  134.2534  157.5111 LP  0  0  0  0  0  0  0  0  0  0  0  0  # atno 17394 bound_to 11000
  139.8703  134.9646  156.4501 LP  0  0  0  0  0  0  0  0  0  0  0  0  # atno 17395 bound_to 11000

$$$$
