AV-unprocessed.smi:1966|AV-procd|sdf|7950|dock1
  -GOLD-   2272010113D 1   1.00000     0.00000
 Structure written by MMmdl.
 53 54  0  0  0  0  0  0  0  0  1 V2000
  153.6971  133.5377  165.2293 C   0  0  0  0  0  0  0  0  0  0  0  0
  154.7484  134.3558  164.4879 C   0  0  0  0  0  0  0  0  0  0  0  0
  155.6526  134.9116  165.1109 O   0  0  0  0  0  0  0  0  0  0  0  0
  154.6166  134.4214  163.1534 N   0  0  0  0  0  0  0  0  0  0  0  0
  155.4976  135.1616  162.2473 C   0  0  2  0  0  0  0  0  0  0  0  0
  154.6478  136.1651  161.4425 C   0  0  0  0  0  0  0  0  0  0  0  0
  153.8281  135.7529  160.6210 O   0  0  0  0  0  0  0  0  0  0  0  0
  154.9021  137.4647  161.6846 N   0  0  0  0  0  0  0  0  0  0  0  0
  154.2829  138.6180  161.1302 C   0  0  0  0  0  0  0  0  0  0  0  0
  154.4837  139.9393  161.5934 C   0  0  0  0  0  0  0  0  0  0  0  0
  153.8247  140.9987  160.9409 C   0  0  0  0  0  0  0  0  0  0  0  0
  152.9887  140.7197  159.8344 C   0  0  0  0  0  0  0  0  0  0  0  0
  152.3249  141.7702  159.1639 N   0  0  0  0  0  0  0  0  0  0  0  0
  152.5262  143.1314  159.6529 C   0  0  0  0  0  0  0  0  0  0  0  0
  152.0155  144.1539  158.6222 C   0  0  2  0  0  0  0  0  0  0  0  0
  152.0867  145.5881  159.1563 C   0  0  0  0  0  0  0  0  0  0  0  0
  150.6546  143.8702  158.3006 O   0  0  0  0  0  0  0  0  0  0  0  0
  150.4226  142.5566  157.7876 C   0  0  1  0  0  0  0  0  0  0  0  0
  150.9742  142.3832  156.3611 C   0  0  0  0  0  0  0  0  0  0  0  0
  150.9427  141.4968  158.7790 C   0  0  0  0  0  0  0  0  0  0  0  0
  152.8022  139.4526  159.3905 N   0  0  0  0  0  0  0  0  0  0  0  0
  153.4355  138.4400  160.0185 C   0  0  0  0  0  0  0  0  0  0  0  0
  156.1945  134.1514  161.2881 C   0  0  0  0  0  0  0  0  0  0  0  0
  155.1704  133.3283  160.4814 C   0  0  0  0  0  0  0  0  0  0  0  0
  157.1545  133.1871  162.0158 C   0  0  0  0  0  0  0  0  0  0  0  0
  152.7022  133.9478  165.0528 H   0  0  0  0  0  0  0  0  0  0  0  0
  153.8843  133.5470  166.3036 H   0  0  0  0  0  0  0  0  0  0  0  0
  153.7101  132.5021  164.8890 H   0  0  0  0  0  0  0  0  0  0  0  0
  153.8389  133.9360  162.7304 H   0  0  0  0  0  0  0  0  0  0  0  0
  156.2560  135.6930  162.8266 H   0  0  0  0  0  0  0  0  0  0  0  0
  155.6585  137.6503  162.3275 H   0  0  0  0  0  0  0  0  0  0  0  0
  155.1339  140.1675  162.4230 H   0  0  0  0  0  0  0  0  0  0  0  0
  153.9611  142.0074  161.3015 H   0  0  0  0  0  0  0  0  0  0  0  0
  151.9986  143.2535  160.6000 H   0  0  0  0  0  0  0  0  0  0  0  0
  153.5851  143.3109  159.8432 H   0  0  0  0  0  0  0  0  0  0  0  0
  152.6257  144.1000  157.7205 H   0  0  0  0  0  0  0  0  0  0  0  0
  153.1113  145.8629  159.4080 H   0  0  0  0  0  0  0  0  0  0  0  0
  151.4778  145.7059  160.0533 H   0  0  0  0  0  0  0  0  0  0  0  0
  151.7249  146.2983  158.4123 H   0  0  0  0  0  0  0  0  0  0  0  0
  149.3401  142.4445  157.7213 H   0  0  0  0  0  0  0  0  0  0  0  0
  150.6618  141.4269  155.9409 H   0  0  0  0  0  0  0  0  0  0  0  0
  152.0634  142.4066  156.3329 H   0  0  0  0  0  0  0  0  0  0  0  0
  150.6044  143.1691  155.7024 H   0  0  0  0  0  0  0  0  0  0  0  0
  150.8266  140.5063  158.3413 H   0  0  0  0  0  0  0  0  0  0  0  0
  150.3307  141.5109  159.6818 H   0  0  0  0  0  0  0  0  0  0  0  0
  153.2558  137.4526  159.6183 H   0  0  0  0  0  0  0  0  0  0  0  0
  156.7899  134.7137  160.5665 H   0  0  0  0  0  0  0  0  0  0  0  0
  154.5144  132.7597  161.1411 H   0  0  0  0  0  0  0  0  0  0  0  0
  155.6698  132.6194  159.8205 H   0  0  0  0  0  0  0  0  0  0  0  0
  154.5428  133.9591  159.8516 H   0  0  0  0  0  0  0  0  0  0  0  0
  156.6356  132.6268  162.7942 H   0  0  0  0  0  0  0  0  0  0  0  0
  157.9898  133.7105  162.4809 H   0  0  0  0  0  0  0  0  0  0  0  0
  157.5856  132.4656  161.3210 H   0  0  0  0  0  0  0  0  0  0  0  0
  1  2  1  0  0  0  0
  1 26  1  0  0  0  0
  1 27  1  0  0  0  0
  1 28  1  0  0  0  0
  2  3  2  0  0  0  0
  2  4  1  0  0  0  0
  4  5  1  0  0  0  0
  4 29  1  0  0  0  0
  5  6  1  0  0  0  0
  5 23  1  0  0  0  0
  5 30  1  0  0  0  0
  6  7  2  0  0  0  0
  6  8  1  0  0  0  0
  8  9  1  0  0  0  0
  8 31  1  0  0  0  0
  9 22  1  0  0  0  0
  9 10  2  0  0  0  0
 10 11  1  0  0  0  0
 10 32  1  0  0  0  0
 11 12  2  0  0  0  0
 11 33  1  0  0  0  0
 12 13  1  0  0  0  0
 12 21  1  0  0  0  0
 13 20  1  0  0  0  0
 13 14  1  0  0  0  0
 14 15  1  0  0  0  0
 14 34  1  0  0  0  0
 14 35  1  0  0  0  0
 15 16  1  0  0  0  0
 15 17  1  0  0  0  0
 15 36  1  0  0  0  0
 16 37  1  0  0  0  0
 16 38  1  0  0  0  0
 16 39  1  0  0  0  0
 17 18  1  0  0  0  0
 18 19  1  0  0  0  0
 18 20  1  0  0  0  0
 18 40  1  0  0  0  0
 19 41  1  0  0  0  0
 19 42  1  0  0  0  0
 19 43  1  0  0  0  0
 20 44  1  0  0  0  0
 20 45  1  0  0  0  0
 21 22  2  0  0  0  0
 22 46  1  0  0  0  0
 23 24  1  0  0  0  0
 23 25  1  0  0  0  0
 23 47  1  0  0  0  0
 24 48  1  0  0  0  0
 24 49  1  0  0  0  0
 24 50  1  0  0  0  0
 25 51  1  0  0  0  0
 25 52  1  0  0  0  0
 25 53  1  0  0  0  0
M  END
> <s_m_source_file>
AV-unprocessed.smi

> <i_m_source_file_index>
1966

> <i_lp_mmshare_version>
43012

> <i_f3d_flags>
0

> <s_epik_input>
W0NIM11DKD1PKVtOSF1bQ0BASF0oW0NIXShbQ0gzXSlbQ0gzXSlDKD1PKVtOSF1jMVtjSF1bY0hdYyhuW2NIXTEpTjJbQ0gyXVtDQEBIXShbQ0gzXSlPW0NAQEhdKFtDSDNdKVtDSDJdMg==

> <s_epik_cmdline>
J2VwaWtfcHl0aG9uJywgJy1waCcsICc3LjAnLCAnLXRuJywgJzgnLCAnLW1hJywgJzIwMCcsICctbWV0YWxfYmluZGluZycsICctaW1hZScsICc8aW5maWxlLm1hZT4nLCAnLW9tYWUnLCAnPG91dGZpbGUubWFlPic=

> <r_lp_tautomer_probability>
1

> <r_epik_Ionization_Penalty>
0.000679699

> <r_epik_Ionization_Penalty_Charging>
0

> <r_epik_Ionization_Penalty_Neutral>
0.000679699

> <r_epik_State_Penalty>
0.000430485

> <r_epik_Charging_Adjusted_Penalty>
0.000430485

> <i_epik_Tot_Q>
0

> <i_epik_Tot_abs_Q>
0

> <r_epik_Metal_State_Penalty>
-0

> <b_epik_Metal_Only>
0

> <s_lp_Force_Field>
OPLS_2005

> <r_lp_Energy>
28.7238

> <b_lp_Chiralities_Consistent>
1

> <s_lp_Variant>
AV-unprocessed.smi:1966-3

> <Gold.Version>
5.8.1

> <Gold.Id.Protein>
6NUR|6NUR_protein|mol2

> <Gold.PLP.Fitness>
42.2516

> <Gold.PLP.PLP>
-39.6708

> <Gold.PLP.part.hbond>
-1.0000

> <Gold.PLP.part.metal>
0.0000

> <Gold.PLP.part.buried>
-5.3399

> <Gold.PLP.part.nonpolar>
-32.7397

> <Gold.PLP.part.repulsive>
0.2828

> <Gold.PLP.ligand.clash>
0.0000

> <Gold.PLP.ligand.torsion>
0.4020

> <Gold.PLP.Chemscore.Hbond>
1.0000

> <Gold.PLP.Chemscore.CHOScore>
0.0000

> <Gold.PLP.Chemscore.Metal>
0.0000

> <Gold.Chemscore.Hbonds>
donor molecule, donor type, donor heavy atom, donor atom, acceptor molecule, acceptor atom, score
      P1  H  6896  6909       L1     7  1.00

> <Gold.PLP.Chemscore.Internal.Correction>
0.3848

> <Gold.Rescore>
     Score         DG    S(hbond)    S(metal)    S(lipo)     H(rot)  DE(clash)    DE(int)     intcor
     13.87     -17.10       1.00        0.00     107.47       1.68       0.08       3.16       ----

> <Gold.Chemscore.Fitness>
13.8679

> <Gold.Chemscore.DG>
-17.1043

> <Gold.Chemscore.ZeroCoef>
-5.4800

> <Gold.Chemscore.Hbond>
1.0000

> <Gold.Chemscore.Metal>
0.0000

> <Gold.Chemscore.Lipo>
107.4747

> <Gold.Chemscore.Internal_Hbond>
0.0000

> <Gold.Chemscore.DEClash>
0.0793

> <Gold.Chemscore.DEInternal>
3.1571

> <Gold.Chemscore.Rot>
1.6759

> <Gold.Chemscore.Internal.Correction>
   9.000000E+99

> <Gold.Chemscore.Hbonds>
donor molecule, donor type, donor heavy atom, donor atom, acceptor molecule, acceptor atom, score
      P1  H  6896  6909       L1     7  1.00

> <Gold.Chemscore.Hbond.Weighted>
-3.3399

> <Gold.Chemscore.Metal.Weighted>
-0.0000

> <Gold.Chemscore.Lipo.Weighted>
-12.5745

> <Gold.Chemscore.Internal_Hbond.Weighted>
0.0000

> <Gold.Chemscore.DEClash.Weighted>
0.0793

> <Gold.Chemscore.DEInternal.Weighted>
3.1571

> <Gold.Chemscore.Rot.Weighted>
4.2902

> <Gold.Chemscore.Internal.Correction.Weighted>
   9.000000E+99

> <Gold.Protein.RotatedTorsions>
[ 6907 6896 6895 6894 ] final  172.47 input  -60.11 | X-H torsion
[ 7974 7965 7964 7962 ] final   22.80 input  175.53 | X-H torsion
[ 8008 7997 7996 7995 ] final  -84.65 input   59.86 | X-H torsion
[ 10167 10162 10161 10158 ] final   89.72 input  -65.29 | X-H torsion
[ 10718 10713 10712 10709 ] final  153.41 input   66.30 | X-H torsion
[ 10763 10752 10751 10750 ] final  -83.33 input  -60.55 | X-H torsion
[ 11005 11000 10999 10996 ] final   34.48 input  -57.11 | X-H torsion

> <Gold.Protein.ActiveResidues>
 VAL166  LYS551  ARG553  GLY616  TRP617  ASP618  TYR619  PRO620  LYS621  CYS622 
 ASP623  PHE694  ASN695  SER759  ASP760  ASP761  ALA762  ILE779  LEU786  VAL792 
 PHE793  MET794  SER795  GLU796  ALA797  LYS798  CYS799  TRP800  GLU811  SER814 

> <Gold.Protein.RotatedAtoms>
  151.7838  133.3352  159.3478 H   0  0  0  0  0  0  0  0  0  0  0  0  # atno 6907 bound_to 6896
  150.7416  134.5906  159.5995 H   0  0  0  0  0  0  0  0  0  0  0  0  # atno 6908 bound_to 6896
  152.3258  134.7324  160.0353 H   0  0  0  0  0  0  0  0  0  0  0  0  # atno 6909 bound_to 6896
  146.2013  139.7835  142.8759 H   0  0  0  0  0  0  0  0  0  0  0  0  # atno 7974 bound_to 7965
  154.6321  140.0602  156.9745 H   0  0  0  0  0  0  0  0  0  0  0  0  # atno 8008 bound_to 7997
  155.1649  140.3286  155.4385 H   0  0  0  0  0  0  0  0  0  0  0  0  # atno 8009 bound_to 7997
  156.2488  140.1924  156.6754 H   0  0  0  0  0  0  0  0  0  0  0  0  # atno 8010 bound_to 7997
  139.8545  144.6576  150.9131 H   0  0  0  0  0  0  0  0  0  0  0  0  # atno 10167 bound_to 10162
  157.2452  131.0767  151.1766 H   0  0  0  0  0  0  0  0  0  0  0  0  # atno 10718 bound_to 10713
  154.5865  135.5559  153.7236 H   0  0  0  0  0  0  0  0  0  0  0  0  # atno 10763 bound_to 10752
  153.0100  135.6333  154.1909 H   0  0  0  0  0  0  0  0  0  0  0  0  # atno 10764 bound_to 10752
  154.1850  135.2885  155.3020 H   0  0  0  0  0  0  0  0  0  0  0  0  # atno 10765 bound_to 10752
  140.2524  134.3287  155.7885 H   0  0  0  0  0  0  0  0  0  0  0  0  # atno 11005 bound_to 11000
  145.3474  141.0300  143.3358 LP  0  0  0  0  0  0  0  0  0  0  0  0  # atno 17320 bound_to 7965
  144.8690  139.5066  143.6777 LP  0  0  0  0  0  0  0  0  0  0  0  0  # atno 17321 bound_to 7965
  140.7783  143.3798  151.1497 LP  0  0  0  0  0  0  0  0  0  0  0  0  # atno 17342 bound_to 10162
  139.7433  143.8890  152.3056 LP  0  0  0  0  0  0  0  0  0  0  0  0  # atno 17343 bound_to 10162
  157.3337  130.6998  149.6339 LP  0  0  0  0  0  0  0  0  0  0  0  0  # atno 17370 bound_to 10713
  155.9668  130.4300  150.4857 LP  0  0  0  0  0  0  0  0  0  0  0  0  # atno 17371 bound_to 10713
  141.2200  133.7361  156.9059 LP  0  0  0  0  0  0  0  0  0  0  0  0  # atno 17394 bound_to 11000
  140.1544  134.9208  157.2635 LP  0  0  0  0  0  0  0  0  0  0  0  0  # atno 17395 bound_to 11000

$$$$
