AV-unprocessed.smi:1554|AV-procd|sdf|6241|dock5
  -GOLD-   22720 6423D 1   1.00000     0.00000
 Structure written by MMmdl.
 47 49  0  0  0  0  0  0  0  0  1 V2000
  150.6810  145.4600  160.1114 C   0  0  0  0  0  0  0  0  0  0  0  0
  151.5040  144.1874  160.2081 C   0  0  0  0  0  0  0  0  0  0  0  0
  152.2044  143.9112  161.4040 C   0  0  0  0  0  0  0  0  0  0  0  0
  152.9778  142.7372  161.5355 C   0  0  0  0  0  0  0  0  0  0  0  0
  153.7299  142.2711  162.6004 N   0  0  0  0  0  0  0  0  0  0  0  0
  154.2084  141.1306  162.1117 C   0  0  0  0  0  0  0  0  0  0  0  0
  153.8547  140.8015  160.8545 N   0  0  0  0  0  0  0  0  0  0  0  0
  154.2540  139.6144  160.1192 C   0  0  0  0  0  0  0  0  0  0  0  0
  153.8716  138.3119  160.8473 C   0  0  1  0  0  0  0  0  0  0  0  0
  153.2591  137.4297  159.9267 O   0  0  0  0  0  0  0  0  0  0  0  0
  155.1118  137.6166  161.4456 C   0  0  0  0  0  0  0  0  0  0  0  0
  154.9620  136.1895  161.7380 N   0  0  0  0  0  0  0  0  0  0  0  0
  156.0320  135.4180  161.1152 C   0  0  0  0  0  0  0  0  0  0  0  0
  155.8996  133.9132  161.4025 C   0  0  0  0  0  0  0  0  0  0  0  0
  155.8789  133.7001  162.8098 O   0  0  0  0  0  0  0  0  0  0  0  0
  154.8169  134.3933  163.4592 C   0  0  1  0  0  0  0  0  0  0  0  0
  154.8820  134.0807  164.9580 C   0  0  0  0  0  0  0  0  0  0  0  0
  154.9462  135.9025  163.1717 C   0  0  0  0  0  0  0  0  0  0  0  0
  153.0341  141.8407  160.4282 C   0  0  0  0  0  0  0  0  0  0  0  0
  152.3414  142.1044  159.2335 C   0  0  0  0  0  0  0  0  0  0  0  0
  151.5721  143.2813  159.1194 C   0  0  0  0  0  0  0  0  0  0  0  0
  150.8250  143.5555  157.8263 C   0  0  0  0  0  0  0  0  0  0  0  0
  150.7487  146.0484  161.0269 H   0  0  0  0  0  0  0  0  0  0  0  0
  149.6302  145.2230  159.9428 H   0  0  0  0  0  0  0  0  0  0  0  0
  151.0326  146.0821  159.2880 H   0  0  0  0  0  0  0  0  0  0  0  0
  152.1520  144.6004  162.2339 H   0  0  0  0  0  0  0  0  0  0  0  0
  154.8531  140.4958  162.7019 H   0  0  0  0  0  0  0  0  0  0  0  0
  153.8021  139.6475  159.1269 H   0  0  0  0  0  0  0  0  0  0  0  0
  155.3336  139.6566  159.9691 H   0  0  0  0  0  0  0  0  0  0  0  0
  153.1487  138.5558  161.6245 H   0  0  0  0  0  0  0  0  0  0  0  0
  153.5969  137.6151  159.0638 H   0  0  0  0  0  0  0  0  0  0  0  0
  155.9425  137.7577  160.7524 H   0  0  0  0  0  0  0  0  0  0  0  0
  155.4040  138.1339  162.3608 H   0  0  0  0  0  0  0  0  0  0  0  0
  156.0240  135.5779  160.0363 H   0  0  0  0  0  0  0  0  0  0  0  0
  157.0002  135.7691  161.4758 H   0  0  0  0  0  0  0  0  0  0  0  0
  154.9909  133.5110  160.9521 H   0  0  0  0  0  0  0  0  0  0  0  0
  156.7398  133.3690  160.9713 H   0  0  0  0  0  0  0  0  0  0  0  0
  153.8662  134.0283  163.0668 H   0  0  0  0  0  0  0  0  0  0  0  0
  154.0771  134.5801  165.4979 H   0  0  0  0  0  0  0  0  0  0  0  0
  155.8285  134.4084  165.3888 H   0  0  0  0  0  0  0  0  0  0  0  0
  154.7871  133.0096  165.1368 H   0  0  0  0  0  0  0  0  0  0  0  0
  155.8583  136.2837  163.6339 H   0  0  0  0  0  0  0  0  0  0  0  0
  154.1147  136.4151  163.6529 H   0  0  0  0  0  0  0  0  0  0  0  0
  152.3996  141.4045  158.4130 H   0  0  0  0  0  0  0  0  0  0  0  0
  150.9973  142.7674  157.0926 H   0  0  0  0  0  0  0  0  0  0  0  0
  151.1529  144.4981  157.3870 H   0  0  0  0  0  0  0  0  0  0  0  0
  149.7521  143.6127  158.0107 H   0  0  0  0  0  0  0  0  0  0  0  0
  1  2  1  0  0  0  0
  1 23  1  0  0  0  0
  1 24  1  0  0  0  0
  1 25  1  0  0  0  0
  2 21  1  0  0  0  0
  2  3  2  0  0  0  0
  3  4  1  0  0  0  0
  3 26  1  0  0  0  0
  4 19  2  0  0  0  0
  4  5  1  0  0  0  0
  5  6  2  0  0  0  0
  6  7  1  0  0  0  0
  6 27  1  0  0  0  0
  7  8  1  0  0  0  0
  7 19  1  0  0  0  0
  8  9  1  0  0  0  0
  8 28  1  0  0  0  0
  8 29  1  0  0  0  0
  9 10  1  0  0  0  0
  9 11  1  0  0  0  0
  9 30  1  0  0  0  0
 10 31  1  0  0  0  0
 11 12  1  0  0  0  0
 11 32  1  0  0  0  0
 11 33  1  0  0  0  0
 12 18  1  0  0  0  0
 12 13  1  0  0  0  0
 13 14  1  0  0  0  0
 13 34  1  0  0  0  0
 13 35  1  0  0  0  0
 14 15  1  0  0  0  0
 14 36  1  0  0  0  0
 14 37  1  0  0  0  0
 15 16  1  0  0  0  0
 16 17  1  0  0  0  0
 16 18  1  0  0  0  0
 16 38  1  0  0  0  0
 17 39  1  0  0  0  0
 17 40  1  0  0  0  0
 17 41  1  0  0  0  0
 18 42  1  0  0  0  0
 18 43  1  0  0  0  0
 19 20  1  0  0  0  0
 20 21  2  0  0  0  0
 20 44  1  0  0  0  0
 21 22  1  0  0  0  0
 22 45  1  0  0  0  0
 22 46  1  0  0  0  0
 22 47  1  0  0  0  0
M  END
> <s_m_source_file>
AV-unprocessed.smi

> <i_m_source_file_index>
1554

> <i_lp_mmshare_version>
43012

> <i_f3d_flags>
0

> <s_epik_input>
W0NIM11jKFtjSF0xKWMoW0NIM10pW2NIXWMoYzEyKW4oW2NIXW4yKVtDSDJdW0NASF0oW09IXSlbQ0gyXU4zW0NIMl1bQ0gyXU9bQ0BASF0oW0NIM10pW0NIMl0z

> <s_epik_cmdline>
J2VwaWtfcHl0aG9uJywgJy1waCcsICc3LjAnLCAnLXRuJywgJzgnLCAnLW1hJywgJzIwMCcsICctbWV0YWxfYmluZGluZycsICctaW1hZScsICc8aW5maWxlLm1hZT4nLCAnLW9tYWUnLCAnPG91dGZpbGUubWFlPic=

> <r_epik_Ionization_Penalty>
0.345108

> <r_epik_Ionization_Penalty_Charging>
0

> <r_epik_Ionization_Penalty_Neutral>
0.345108

> <r_epik_State_Penalty>
0.314544

> <r_epik_Charging_Adjusted_Penalty>
0.314544

> <i_epik_Tot_Q>
0

> <i_epik_Tot_abs_Q>
0

> <r_epik_Metal_State_Penalty>
0.239719

> <b_epik_Metal_Only>
0

> <s_lp_Force_Field>
OPLS_2005

> <r_lp_Energy>
29.8053

> <b_lp_Chiralities_Consistent>
1

> <s_lp_Variant>
AV-unprocessed.smi:1554-2

> <Gold.Version>
5.8.1

> <Gold.Id.Protein>
6NUR|6NUR_protein|mol2

> <Gold.PLP.Fitness>
45.3499

> <Gold.PLP.PLP>
-48.5014

> <Gold.PLP.part.hbond>
-0.3861

> <Gold.PLP.part.metal>
0.0000

> <Gold.PLP.part.buried>
-5.6365

> <Gold.PLP.part.nonpolar>
-42.2657

> <Gold.PLP.part.repulsive>
0.0401

> <Gold.PLP.ligand.clash>
0.0000

> <Gold.PLP.ligand.torsion>
1.5877

> <Gold.PLP.Chemscore.Hbond>
0.0000

> <Gold.PLP.Chemscore.CHOScore>
0.0000

> <Gold.PLP.Chemscore.Metal>
0.0000

> <Gold.PLP.Chemscore.Internal.Correction>
0.0239

> <Gold.Rescore>
     Score         DG    S(hbond)    S(metal)    S(lipo)     H(rot)  DE(clash)    DE(int)     intcor
     15.79     -17.43       0.00        0.00     145.59       1.98       0.15       1.49       ----

> <Gold.Chemscore.Fitness>
15.7906

> <Gold.Chemscore.DG>
-17.4328

> <Gold.Chemscore.ZeroCoef>
-5.4800

> <Gold.Chemscore.Hbond>
0.0000

> <Gold.Chemscore.Metal>
0.0000

> <Gold.Chemscore.Lipo>
145.5884

> <Gold.Chemscore.Internal_Hbond>
0.0000

> <Gold.Chemscore.DEClash>
0.1522

> <Gold.Chemscore.DEInternal>
1.4900

> <Gold.Chemscore.Rot>
1.9848

> <Gold.Chemscore.Internal.Correction>
   9.000000E+99

> <Gold.Chemscore.Hbond.Weighted>
-0.0000

> <Gold.Chemscore.Metal.Weighted>
-0.0000

> <Gold.Chemscore.Lipo.Weighted>
-17.0338

> <Gold.Chemscore.Internal_Hbond.Weighted>
0.0000

> <Gold.Chemscore.DEClash.Weighted>
0.1522

> <Gold.Chemscore.DEInternal.Weighted>
1.4900

> <Gold.Chemscore.Rot.Weighted>
5.0810

> <Gold.Chemscore.Internal.Correction.Weighted>
   9.000000E+99

> <Gold.Protein.RotatedTorsions>
[ 6907 6896 6895 6894 ] final   49.87 input  -60.11 | X-H torsion
[ 7974 7965 7964 7962 ] final   82.44 input  175.53 | X-H torsion
[ 8008 7997 7996 7995 ] final  -13.98 input   59.86 | X-H torsion
[ 10167 10162 10161 10158 ] final  -63.58 input  -65.29 | X-H torsion
[ 10718 10713 10712 10709 ] final   26.14 input   66.30 | X-H torsion
[ 10763 10752 10751 10750 ] final   36.72 input  -60.55 | X-H torsion
[ 11005 11000 10999 10996 ] final  130.13 input  -57.11 | X-H torsion

> <Gold.Protein.ActiveResidues>
 VAL166  LYS551  ARG553  GLY616  TRP617  ASP618  TYR619  PRO620  LYS621  CYS622 
 ASP623  PHE694  ASN695  SER759  ASP760  ASP761  ALA762  ILE779  LEU786  VAL792 
 PHE793  MET794  SER795  GLU796  ALA797  LYS798  CYS799  TRP800  GLU811  SER814 

> <Gold.Protein.RotatedAtoms>
  152.2956  134.7671  160.0368 H   0  0  0  0  0  0  0  0  0  0  0  0  # atno 6907 bound_to 6896
  151.8202  133.3388  159.3590 H   0  0  0  0  0  0  0  0  0  0  0  0  # atno 6908 bound_to 6896
  150.7250  134.5510  159.5839 H   0  0  0  0  0  0  0  0  0  0  0  0  # atno 6909 bound_to 6896
  145.6250  139.2393  143.2117 H   0  0  0  0  0  0  0  0  0  0  0  0  # atno 7974 bound_to 7965
  154.5248  140.2235  155.8911 H   0  0  0  0  0  0  0  0  0  0  0  0  # atno 8008 bound_to 7997
  156.1701  140.3123  155.8923 H   0  0  0  0  0  0  0  0  0  0  0  0  # atno 8009 bound_to 7997
  155.3576  140.0459  157.3037 H   0  0  0  0  0  0  0  0  0  0  0  0  # atno 8010 bound_to 7997
  140.5861  143.2334  151.6240 H   0  0  0  0  0  0  0  0  0  0  0  0  # atno 10167 bound_to 10162
  157.2029  130.6898  149.6196 H   0  0  0  0  0  0  0  0  0  0  0  0  # atno 10718 bound_to 10713
  153.0065  135.6298  154.2031 H   0  0  0  0  0  0  0  0  0  0  0  0  # atno 10763 bound_to 10752
  154.1774  135.2815  155.3064 H   0  0  0  0  0  0  0  0  0  0  0  0  # atno 10764 bound_to 10752
  154.5861  135.5632  153.7292 H   0  0  0  0  0  0  0  0  0  0  0  0  # atno 10765 bound_to 10752
  139.9655  134.9592  156.9249 H   0  0  0  0  0  0  0  0  0  0  0  0  # atno 11005 bound_to 11000
  146.1401  140.7069  142.9371 LP  0  0  0  0  0  0  0  0  0  0  0  0  # atno 17320 bound_to 7965
  144.7216  140.4391  143.7004 LP  0  0  0  0  0  0  0  0  0  0  0  0  # atno 17321 bound_to 7965
  139.5198  144.3241  152.0884 LP  0  0  0  0  0  0  0  0  0  0  0  0  # atno 17342 bound_to 10162
  140.2398  144.4281  150.6264 LP  0  0  0  0  0  0  0  0  0  0  0  0  # atno 17343 bound_to 10162
  155.9698  130.4577  150.5971 LP  0  0  0  0  0  0  0  0  0  0  0  0  # atno 17370 bound_to 10713
  157.3749  131.0771  151.1526 LP  0  0  0  0  0  0  0  0  0  0  0  0  # atno 17371 bound_to 10713
  140.5407  134.0723  155.7340 LP  0  0  0  0  0  0  0  0  0  0  0  0  # atno 17394 bound_to 11000
  141.1334  133.9263  157.2486 LP  0  0  0  0  0  0  0  0  0  0  0  0  # atno 17395 bound_to 11000

$$$$
