AV-unprocessed.smi:36|AV-procd|sdf|280|dock4
  -GOLD-   2262016 53D 1   1.00000     0.00000
 Structure written by MMmdl.
 64 67  0  0  0  0  0  0  0  0  1 V2000
  147.5216  136.7015  159.8224 C   0  0  0  0  0  0  0  0  0  0  0  0
  146.0688  136.5215  160.2940 C   0  0  0  0  0  0  0  0  0  0  0  0
  145.9849  136.7775  161.8084 C   0  0  0  0  0  0  0  0  0  0  0  0
  145.1566  137.5109  159.5503 C   0  0  0  0  0  0  0  0  0  0  0  0
  145.5028  134.7338  159.9062 Si  0  0  0  0  0  0  0  0  0  0  0  0
  146.4012  133.4960  161.0331 C   0  0  0  0  0  0  0  0  0  0  0  0
  143.6217  134.5554  160.1240 C   0  0  0  0  0  0  0  0  0  0  0  0
  145.9062  134.3557  158.3051 O   0  0  0  0  0  0  0  0  0  0  0  0
  147.1847  133.8996  157.9129 C   0  0  0  0  0  0  0  0  0  0  0  0
  147.2817  133.8218  156.3775 C   0  0  1  0  0  0  0  0  0  0  0  0
  147.3710  135.1601  155.8871 O   0  0  0  0  0  0  0  0  0  0  0  0
  148.6568  135.4229  155.4063 C   0  0  1  0  0  0  0  0  0  0  0  0
  149.1428  136.6878  156.0288 N   0  0  0  0  0  0  0  0  0  0  0  0
  149.2140  137.0221  157.3640 C   0  0  0  0  0  0  0  0  0  0  0  0
  149.6847  138.2142  157.6162 N   0  0  0  0  0  0  0  0  0  0  0  0
  149.9621  138.7383  156.3601 C   0  0  0  0  0  0  0  0  0  0  0  0
  150.4837  139.9766  155.9049 C   0  0  0  0  0  0  0  0  0  0  0  0
  150.8133  140.9411  156.7951 N   0  0  0  0  0  0  0  0  0  0  0  0
  151.8479  140.9068  157.8136 C   0  0  0  0  0  0  0  0  0  0  0  0
  152.5062  139.8924  158.0456 O   0  0  0  0  0  0  0  0  0  0  0  0
  152.0115  142.1571  158.6278 C   0  0  0  0  0  0  0  0  0  0  0  0
  151.6116  143.4045  158.0974 C   0  0  0  0  0  0  0  0  0  0  0  0
  151.7401  144.5793  158.8637 C   0  0  0  0  0  0  0  0  0  0  0  0
  152.2618  144.5158  160.1695 C   0  0  0  0  0  0  0  0  0  0  0  0
  152.6525  143.2762  160.7098 C   0  0  0  0  0  0  0  0  0  0  0  0
  152.5260  142.1009  159.9440 C   0  0  0  0  0  0  0  0  0  0  0  0
  150.6229  140.1413  154.5627 N   0  0  0  0  0  0  0  0  0  0  0  0
  150.2760  139.1594  153.7246 C   0  0  0  0  0  0  0  0  0  0  0  0
  149.7749  137.9556  154.0112 N   0  0  0  0  0  0  0  0  0  0  0  0
  149.6305  137.7864  155.3569 C   0  0  0  0  0  0  0  0  0  0  0  0
  149.5451  134.2517  155.8170 C   0  0  0  0  0  0  0  0  0  0  0  0
  148.5336  133.1278  155.8182 C   0  0  1  0  0  0  0  0  0  0  0  0
  148.9770  132.0179  156.5709 O   0  0  0  0  0  0  0  0  0  0  0  0
  147.8785  137.7135  160.0163 H   0  0  0  0  0  0  0  0  0  0  0  0
  147.6182  136.5204  158.7517 H   0  0  0  0  0  0  0  0  0  0  0  0
  148.1940  136.0132  160.3351 H   0  0  0  0  0  0  0  0  0  0  0  0
  146.5988  136.0712  162.3672 H   0  0  0  0  0  0  0  0  0  0  0  0
  144.9626  136.6880  162.1730 H   0  0  0  0  0  0  0  0  0  0  0  0
  146.3292  137.7817  162.0585 H   0  0  0  0  0  0  0  0  0  0  0  0
  145.4364  138.5437  159.7610 H   0  0  0  0  0  0  0  0  0  0  0  0
  144.1140  137.3863  159.8424 H   0  0  0  0  0  0  0  0  0  0  0  0
  145.2141  137.3708  158.4707 H   0  0  0  0  0  0  0  0  0  0  0  0
  146.2003  133.6917  162.0861 H   0  0  0  0  0  0  0  0  0  0  0  0
  147.4813  133.5365  160.8948 H   0  0  0  0  0  0  0  0  0  0  0  0
  146.0873  132.4727  160.8285 H   0  0  0  0  0  0  0  0  0  0  0  0
  143.3155  134.7683  161.1479 H   0  0  0  0  0  0  0  0  0  0  0  0
  143.2877  133.5447  159.8906 H   0  0  0  0  0  0  0  0  0  0  0  0
  143.0733  135.2367  159.4737 H   0  0  0  0  0  0  0  0  0  0  0  0
  147.9169  134.6166  158.2856 H   0  0  0  0  0  0  0  0  0  0  0  0
  147.4145  132.9429  158.3804 H   0  0  0  0  0  0  0  0  0  0  0  0
  146.3746  133.3621  155.9835 H   0  0  0  0  0  0  0  0  0  0  0  0
  148.6294  135.6011  154.3306 H   0  0  0  0  0  0  0  0  0  0  0  0
  148.9013  136.3536  158.1520 H   0  0  0  0  0  0  0  0  0  0  0  0
  150.2949  141.8044  156.7204 H   0  0  0  0  0  0  0  0  0  0  0  0
  151.2065  143.4696  157.0977 H   0  0  0  0  0  0  0  0  0  0  0  0
  151.4357  145.5291  158.4495 H   0  0  0  0  0  0  0  0  0  0  0  0
  152.3582  145.4163  160.7577 H   0  0  0  0  0  0  0  0  0  0  0  0
  153.0465  143.2254  161.7143 H   0  0  0  0  0  0  0  0  0  0  0  0
  152.8234  141.1590  160.3818 H   0  0  0  0  0  0  0  0  0  0  0  0
  150.4183  139.3699  152.6750 H   0  0  0  0  0  0  0  0  0  0  0  0
  150.3670  134.1118  155.1142 H   0  0  0  0  0  0  0  0  0  0  0  0
  149.9505  134.4205  156.8162 H   0  0  0  0  0  0  0  0  0  0  0  0
  148.3457  132.8089  154.7919 H   0  0  0  0  0  0  0  0  0  0  0  0
  149.5636  132.3269  157.2447 H   0  0  0  0  0  0  0  0  0  0  0  0
  1  2  1  0  0  0  0
  1 34  1  0  0  0  0
  1 35  1  0  0  0  0
  1 36  1  0  0  0  0
  2  3  1  0  0  0  0
  2  4  1  0  0  0  0
  2  5  1  0  0  0  0
  3 37  1  0  0  0  0
  3 38  1  0  0  0  0
  3 39  1  0  0  0  0
  4 40  1  0  0  0  0
  4 41  1  0  0  0  0
  4 42  1  0  0  0  0
  5  6  1  0  0  0  0
  5  7  1  0  0  0  0
  5  8  1  0  0  0  0
  6 43  1  0  0  0  0
  6 44  1  0  0  0  0
  6 45  1  0  0  0  0
  7 46  1  0  0  0  0
  7 47  1  0  0  0  0
  7 48  1  0  0  0  0
  8  9  1  0  0  0  0
  9 10  1  0  0  0  0
  9 49  1  0  0  0  0
  9 50  1  0  0  0  0
 10 32  1  0  0  0  0
 10 11  1  0  0  0  0
 10 51  1  0  0  0  0
 11 12  1  0  0  0  0
 12 13  1  0  0  0  0
 12 31  1  0  0  0  0
 12 52  1  0  0  0  0
 13 30  1  0  0  0  0
 13 14  1  0  0  0  0
 14 15  2  0  0  0  0
 14 53  1  0  0  0  0
 15 16  1  0  0  0  0
 16 30  2  0  0  0  0
 16 17  1  0  0  0  0
 17 18  1  0  0  0  0
 17 27  2  0  0  0  0
 18 19  1  0  0  0  0
 18 54  1  0  0  0  0
 19 20  2  0  0  0  0
 19 21  1  0  0  0  0
 21 26  1  0  0  0  0
 21 22  2  0  0  0  0
 22 23  1  0  0  0  0
 22 55  1  0  0  0  0
 23 24  2  0  0  0  0
 23 56  1  0  0  0  0
 24 25  1  0  0  0  0
 24 57  1  0  0  0  0
 25 26  2  0  0  0  0
 25 58  1  0  0  0  0
 26 59  1  0  0  0  0
 27 28  1  0  0  0  0
 28 29  2  0  0  0  0
 28 60  1  0  0  0  0
 29 30  1  0  0  0  0
 31 32  1  0  0  0  0
 31 61  1  0  0  0  0
 31 62  1  0  0  0  0
 32 33  1  0  0  0  0
 32 63  1  0  0  0  0
 33 64  1  0  0  0  0
M  END
> <s_m_source_file>
AV-unprocessed.smi

> <i_m_source_file_index>
36

> <i_lp_mmshare_version>
43012

> <i_f3d_flags>
0

> <s_epik_input>
W0NIM11DKFtDSDNdKShbQ0gzXSlbU2ldKFtDSDNdKShbQ0gzXSlPW0NIMl1bQ0BASF0xT1tDQEhdKFtDSDJdW0NASF0xW09IXSluKFtjSF1uMiljKGMyMyluW2NIXW5jM1tOSF1DKD1PKWM0W2NIXVtjSF1bY0hdW2NIXVtjSF00

> <s_epik_cmdline>
J2VwaWtfcHl0aG9uJywgJy1waCcsICc3LjAnLCAnLXRuJywgJzgnLCAnLW1hJywgJzIwMCcsICctbWV0YWxfYmluZGluZycsICctaW1hZScsICc8aW5maWxlLm1hZT4nLCAnLW9tYWUnLCAnPG91dGZpbGUubWFlPic=

> <r_lp_tautomer_probability>
1

> <r_epik_Ionization_Penalty>
0.00150433

> <r_epik_Ionization_Penalty_Charging>
0

> <r_epik_Ionization_Penalty_Neutral>
0.00150433

> <r_epik_State_Penalty>
0.00724046

> <r_epik_Charging_Adjusted_Penalty>
0.00724046

> <i_epik_Tot_Q>
0

> <i_epik_Tot_abs_Q>
0

> <r_epik_Metal_State_Penalty>
0.323355

> <b_epik_Metal_Only>
0

> <s_epik_Chemistry_Notes>
This compound contains an acetal/aminal-like group ( X-CH(R)-Y where X, Y are N, S, or O) that may be acid/base labile, releasing an aldehyde.

> <s_lp_Force_Field>
OPLS_2005

> <r_lp_Energy>
33.9603

> <b_lp_Chiralities_Consistent>
1

> <s_lp_Variant>
AV-unprocessed.smi:36-2

> <Gold.Version>
5.8.1

> <Gold.Id.Protein>
6NUR|6NUR_protein|mol2

> <Gold.PLP.Fitness>
55.4842

> <Gold.PLP.PLP>
-49.9202

> <Gold.PLP.part.hbond>
-2.0000

> <Gold.PLP.part.metal>
0.0000

> <Gold.PLP.part.buried>
-8.6353

> <Gold.PLP.part.nonpolar>
-38.9144

> <Gold.PLP.part.repulsive>
0.3493

> <Gold.PLP.ligand.clash>
0.0000

> <Gold.PLP.ligand.torsion>
1.6738

> <Gold.PLP.Chemscore.Hbond>
1.9000

> <Gold.PLP.Chemscore.CHOScore>
0.9961

> <Gold.PLP.Chemscore.Metal>
0.0000

> <Gold.Chemscore.Hbonds>
donor molecule, donor type, donor heavy atom, donor atom, acceptor molecule, acceptor atom, score
      P1  H  7989  7998       L1    27  0.70
      P1  H  7997  8008       L1    20  0.32
      L1  C    28    60       P1  7957  0.49

> <Gold.PLP.Chemscore.Internal.Correction>
0.2235

> <Gold.Rescore>
     Score         DG    S(hbond)    S(metal)    S(lipo)     H(rot)  DE(clash)    DE(int)     intcor
     16.00     -18.97       1.69        0.00     126.24       2.70       1.40       1.57       ----

> <Gold.Chemscore.Fitness>
16.0028

> <Gold.Chemscore.DG>
-18.9732

> <Gold.Chemscore.ZeroCoef>
-5.4800

> <Gold.Chemscore.Hbond>
1.6902

> <Gold.Chemscore.Metal>
0.0000

> <Gold.Chemscore.Lipo>
126.2445

> <Gold.Chemscore.Internal_Hbond>
0.0000

> <Gold.Chemscore.DEClash>
1.4003

> <Gold.Chemscore.DEInternal>
1.5701

> <Gold.Chemscore.Rot>
2.7041

> <Gold.Chemscore.Internal.Correction>
   9.000000E+99

> <Gold.Chemscore.Hbonds>
donor molecule, donor type, donor heavy atom, donor atom, acceptor molecule, acceptor atom, score
      P1  H  7989  7998       L1    27  0.07
      P1  H  7997  8008       L1    20  0.21

> <Gold.Chemscore.Hbond.Weighted>
-5.6451

> <Gold.Chemscore.Metal.Weighted>
-0.0000

> <Gold.Chemscore.Lipo.Weighted>
-14.7706

> <Gold.Chemscore.Internal_Hbond.Weighted>
0.0000

> <Gold.Chemscore.DEClash.Weighted>
1.4003

> <Gold.Chemscore.DEInternal.Weighted>
1.5701

> <Gold.Chemscore.Rot.Weighted>
6.9225

> <Gold.Chemscore.Internal.Correction.Weighted>
   9.000000E+99

> <Gold.Protein.RotatedTorsions>
[ 6907 6896 6895 6894 ] final  159.62 input  -60.11 | X-H torsion
[ 7974 7965 7964 7962 ] final   -1.66 input  175.53 | X-H torsion
[ 8008 7997 7996 7995 ] final  -79.76 input   59.86 | X-H torsion
[ 10167 10162 10161 10158 ] final   27.82 input  -65.29 | X-H torsion
[ 10718 10713 10712 10709 ] final   70.62 input   66.30 | X-H torsion
[ 10763 10752 10751 10750 ] final -168.02 input  -60.55 | X-H torsion
[ 11005 11000 10999 10996 ] final   71.43 input  -57.11 | X-H torsion

> <Gold.Protein.ActiveResidues>
 VAL166  LYS551  ARG553  GLY616  TRP617  ASP618  TYR619  PRO620  LYS621  CYS622 
 ASP623  PHE694  ASN695  SER759  ASP760  ASP761  ALA762  ILE779  LEU786  VAL792 
 PHE793  MET794  SER795  GLU796  ALA797  LYS798  CYS799  TRP800  GLU811  SER814 

> <Gold.Protein.RotatedAtoms>
  151.9828  133.3763  159.4113 H   0  0  0  0  0  0  0  0  0  0  0  0  # atno 6907 bound_to 6896
  150.6932  134.4020  159.5132 H   0  0  0  0  0  0  0  0  0  0  0  0  # atno 6908 bound_to 6896
  152.1742  134.8809  160.0582 H   0  0  0  0  0  0  0  0  0  0  0  0  # atno 6909 bound_to 6896
  146.2414  140.1454  142.8335 H   0  0  0  0  0  0  0  0  0  0  0  0  # atno 7974 bound_to 7965
  154.5816  140.0673  156.9112 H   0  0  0  0  0  0  0  0  0  0  0  0  # atno 8008 bound_to 7997
  155.2453  140.3347  155.4269 H   0  0  0  0  0  0  0  0  0  0  0  0  # atno 8009 bound_to 7997
  156.2193  140.1792  156.7499 H   0  0  0  0  0  0  0  0  0  0  0  0  # atno 8010 bound_to 7997
  140.4906  144.0473  150.6296 H   0  0  0  0  0  0  0  0  0  0  0  0  # atno 10167 bound_to 10162
  157.6409  130.9486  150.0676 H   0  0  0  0  0  0  0  0  0  0  0  0  # atno 10718 bound_to 10713
  154.6672  135.2934  154.9790 H   0  0  0  0  0  0  0  0  0  0  0  0  # atno 10763 bound_to 10752
  154.0829  135.6602  153.4844 H   0  0  0  0  0  0  0  0  0  0  0  0  # atno 10764 bound_to 10752
  153.0464  135.5201  154.7651 H   0  0  0  0  0  0  0  0  0  0  0  0  # atno 10765 bound_to 10752
  139.9544  134.7171  156.0788 H   0  0  0  0  0  0  0  0  0  0  0  0  # atno 11005 bound_to 11000
  145.0212  140.8795  143.5166 LP  0  0  0  0  0  0  0  0  0  0  0  0  # atno 17320 bound_to 7965
  145.1503  139.2519  143.5444 LP  0  0  0  0  0  0  0  0  0  0  0  0  # atno 17321 bound_to 7965
  140.3741  143.2838  152.0245 LP  0  0  0  0  0  0  0  0  0  0  0  0  # atno 17342 bound_to 10162
  139.4850  144.6207  151.7261 LP  0  0  0  0  0  0  0  0  0  0  0  0  # atno 17343 bound_to 10162
  156.1689  130.3646  149.9192 LP  0  0  0  0  0  0  0  0  0  0  0  0  # atno 17370 bound_to 10713
  156.7172  130.8993  151.3615 LP  0  0  0  0  0  0  0  0  0  0  0  0  # atno 17371 bound_to 10713
  141.1212  133.6612  156.3221 LP  0  0  0  0  0  0  0  0  0  0  0  0  # atno 17394 bound_to 11000
  140.5644  134.5902  157.5442 LP  0  0  0  0  0  0  0  0  0  0  0  0  # atno 17395 bound_to 11000

$$$$
