AV-unprocessed.smi:187|AV-procd|sdf|1471|dock2
  -GOLD-   2262019283D 1   1.00000     0.00000
 Structure written by MMmdl.
 53 56  0  0  0  0  0  0  0  0  1 V2000
  153.4481  139.1453  159.1934 C   0  0  0  0  0  0  0  0  0  0  0  0
  152.6775  140.4459  159.5043 C   0  0  1  0  0  0  0  0  0  0  0  0
  153.4842  141.2861  160.5169 C   0  0  0  0  0  0  0  0  0  0  0  0
  152.8052  142.6294  160.8135 C   0  0  0  0  0  0  0  0  0  0  0  0
  152.5832  143.4035  159.5021 C   0  0  2  0  0  0  0  0  0  0  0  0
  151.8856  144.7448  159.7622 C   0  0  0  0  0  0  0  0  0  0  0  0
  151.4248  144.9613  160.9966 N   0  0  0  0  0  0  0  0  0  0  0  0
  151.7626  145.5757  158.8639 O   0  0  0  0  0  0  0  0  0  0  0  0
  151.7610  142.5384  158.5284 C   0  0  0  0  0  0  0  0  0  0  0  0
  152.3911  141.2379  158.2967 N   0  0  0  0  0  0  0  0  0  0  0  0
  151.7675  140.6045  157.2745 C   0  0  0  0  0  0  0  0  0  0  0  0
  152.4937  140.0190  156.2850 N   0  0  0  0  0  0  0  0  0  0  0  0
  151.8728  139.3719  155.2939 C   0  0  0  0  0  0  0  0  0  0  0  0
  150.5636  139.1894  155.1071 N   0  0  0  0  0  0  0  0  0  0  0  0
  149.8345  139.7690  156.1037 C   0  0  0  0  0  0  0  0  0  0  0  0
  150.3538  140.4826  157.2195 C   0  0  0  0  0  0  0  0  0  0  0  0
  149.3163  140.9111  158.0376 N   0  0  0  0  0  0  0  0  0  0  0  0
  148.2421  140.4700  157.4409 C   0  0  0  0  0  0  0  0  0  0  0  0
  148.4596  139.7972  156.2587 N   0  0  0  0  0  0  0  0  0  0  0  0
  147.4733  139.1772  155.4234 C   0  0  0  0  0  0  0  0  0  0  0  0
  147.8829  138.2568  154.2726 C   0  0  0  0  0  0  0  0  0  0  0  0
  146.6366  138.7098  153.4775 C   0  0  0  0  0  0  0  0  0  0  0  0
  146.8438  138.9781  151.9763 C   0  0  0  0  0  0  0  0  0  0  0  0
  147.1156  137.7926  151.2580 O   0  0  0  0  0  0  0  0  0  0  0  0
  145.3547  137.8724  153.6729 C   0  0  0  0  0  0  0  0  0  0  0  0
  145.4936  136.5566  153.1779 O   0  0  0  0  0  0  0  0  0  0  0  0
  146.7013  139.9727  154.3669 C   0  0  0  0  0  0  0  0  0  0  0  0
  153.6861  138.6065  160.1108 H   0  0  0  0  0  0  0  0  0  0  0  0
  154.3876  139.3562  158.6813 H   0  0  0  0  0  0  0  0  0  0  0  0
  152.8751  138.4627  158.5665 H   0  0  0  0  0  0  0  0  0  0  0  0
  151.7259  140.1829  159.9690 H   0  0  0  0  0  0  0  0  0  0  0  0
  153.6130  140.7293  161.4457 H   0  0  0  0  0  0  0  0  0  0  0  0
  154.4865  141.4702  160.1272 H   0  0  0  0  0  0  0  0  0  0  0  0
  151.8545  142.4519  161.3191 H   0  0  0  0  0  0  0  0  0  0  0  0
  153.4217  143.2109  161.5002 H   0  0  0  0  0  0  0  0  0  0  0  0
  153.5563  143.6003  159.0481 H   0  0  0  0  0  0  0  0  0  0  0  0
  150.9580  145.8293  161.2156 H   0  0  0  0  0  0  0  0  0  0  0  0
  151.5452  144.2540  161.7071 H   0  0  0  0  0  0  0  0  0  0  0  0
  150.7559  142.3774  158.9223 H   0  0  0  0  0  0  0  0  0  0  0  0
  151.6469  143.0694  157.5816 H   0  0  0  0  0  0  0  0  0  0  0  0
  152.5172  138.9374  154.5442 H   0  0  0  0  0  0  0  0  0  0  0  0
  147.2550  140.6304  157.8495 H   0  0  0  0  0  0  0  0  0  0  0  0
  146.7870  138.6651  156.1000 H   0  0  0  0  0  0  0  0  0  0  0  0
  148.8198  138.5660  153.8050 H   0  0  0  0  0  0  0  0  0  0  0  0
  147.9094  137.1978  154.5304 H   0  0  0  0  0  0  0  0  0  0  0  0
  145.9730  139.4653  151.5370 H   0  0  0  0  0  0  0  0  0  0  0  0
  147.6846  139.6535  151.8161 H   0  0  0  0  0  0  0  0  0  0  0  0
  147.6068  137.2088  151.8152 H   0  0  0  0  0  0  0  0  0  0  0  0
  145.0911  137.7964  154.7278 H   0  0  0  0  0  0  0  0  0  0  0  0
  144.5005  138.3411  153.1836 H   0  0  0  0  0  0  0  0  0  0  0  0
  144.7131  136.0695  153.3929 H   0  0  0  0  0  0  0  0  0  0  0  0
  145.7344  140.3493  154.7025 H   0  0  0  0  0  0  0  0  0  0  0  0
  147.3000  140.7745  153.9304 H   0  0  0  0  0  0  0  0  0  0  0  0
  1  2  1  0  0  0  0
  1 28  1  0  0  0  0
  1 29  1  0  0  0  0
  1 30  1  0  0  0  0
  2 10  1  0  0  0  0
  2  3  1  0  0  0  0
  2 31  1  0  0  0  0
  3  4  1  0  0  0  0
  3 32  1  0  0  0  0
  3 33  1  0  0  0  0
  4  5  1  0  0  0  0
  4 34  1  0  0  0  0
  4 35  1  0  0  0  0
  5  6  1  0  0  0  0
  5  9  1  0  0  0  0
  5 36  1  0  0  0  0
  6  7  1  0  0  0  0
  6  8  2  0  0  0  0
  7 37  1  0  0  0  0
  7 38  1  0  0  0  0
  9 10  1  0  0  0  0
  9 39  1  0  0  0  0
  9 40  1  0  0  0  0
 10 11  1  0  0  0  0
 11 16  1  0  0  0  0
 11 12  2  0  0  0  0
 12 13  1  0  0  0  0
 13 14  2  0  0  0  0
 13 41  1  0  0  0  0
 14 15  1  0  0  0  0
 15 19  1  0  0  0  0
 15 16  2  0  0  0  0
 16 17  1  0  0  0  0
 17 18  2  0  0  0  0
 18 19  1  0  0  0  0
 18 42  1  0  0  0  0
 19 20  1  0  0  0  0
 20 27  1  0  0  0  0
 20 21  1  0  0  0  0
 20 43  1  0  0  0  0
 21 22  1  0  0  0  0
 21 44  1  0  0  0  0
 21 45  1  0  0  0  0
 22 23  1  0  0  0  0
 22 25  1  0  0  0  0
 22 27  1  0  0  0  0
 23 24  1  0  0  0  0
 23 46  1  0  0  0  0
 23 47  1  0  0  0  0
 24 48  1  0  0  0  0
 25 26  1  0  0  0  0
 25 49  1  0  0  0  0
 25 50  1  0  0  0  0
 26 51  1  0  0  0  0
 27 52  1  0  0  0  0
 27 53  1  0  0  0  0
M  END
> <s_m_source_file>
AV-unprocessed.smi

> <i_m_source_file_index>
187

> <i_lp_mmshare_version>
43012

> <i_f3d_flags>
0

> <s_epik_input>
W0NIM11bQ0BASF0xW0NIMl1bQ0gyXVtDQEBIXShDKD1PKVtOSDJdKVtDSDJdTjFjKG5bY0hdbjIpYyhjMjMpbltjSF1uM1tDSF0oW0NIMl00KVtDSDJdQzQoW0NIMl1bT0hdKVtDSDJdW09IXQ==

> <s_epik_cmdline>
J2VwaWtfcHl0aG9uJywgJy1waCcsICc3LjAnLCAnLXRuJywgJzgnLCAnLW1hJywgJzIwMCcsICctbWV0YWxfYmluZGluZycsICctaW1hZScsICc8aW5maWxlLm1hZT4nLCAnLW9tYWUnLCAnPG91dGZpbGUubWFlPic=

> <r_lp_tautomer_probability>
1

> <r_epik_Ionization_Penalty>
0.0017711

> <r_epik_Ionization_Penalty_Charging>
0

> <r_epik_Ionization_Penalty_Neutral>
0.0017711

> <r_epik_State_Penalty>
0.00107211

> <r_epik_Charging_Adjusted_Penalty>
0.00107211

> <i_epik_Tot_Q>
0

> <i_epik_Tot_abs_Q>
0

> <r_epik_Metal_State_Penalty>
-0

> <b_epik_Metal_Only>
0

> <s_lp_Force_Field>
OPLS_2005

> <r_lp_Energy>
43.5948

> <b_lp_Chiralities_Consistent>
1

> <s_lp_Variant>
AV-unprocessed.smi:187-4

> <Gold.Version>
5.8.1

> <Gold.Id.Protein>
6NUR|6NUR_protein|mol2

> <Gold.PLP.Fitness>
48.7512

> <Gold.PLP.PLP>
-43.1242

> <Gold.PLP.part.hbond>
-4.8963

> <Gold.PLP.part.metal>
0.0000

> <Gold.PLP.part.buried>
-4.6915

> <Gold.PLP.part.nonpolar>
-33.8637

> <Gold.PLP.part.repulsive>
0.3244

> <Gold.PLP.ligand.clash>
1.2278

> <Gold.PLP.ligand.torsion>
1.1892

> <Gold.PLP.Chemscore.Hbond>
2.8320

> <Gold.PLP.Chemscore.CHOScore>
0.0000

> <Gold.PLP.Chemscore.Metal>
0.0000

> <Gold.Chemscore.Hbonds>
donor molecule, donor type, donor heavy atom, donor atom, acceptor molecule, acceptor atom, score
      L1  H    24    48       P1  7948  0.83
      P1  H  7954  7966       L1    24  1.00
      P1  H  7997  8010       L1    12  1.00

> <Gold.PLP.Chemscore.Internal.Correction>
0.7371

> <Gold.Rescore>
     Score         DG    S(hbond)    S(metal)    S(lipo)     H(rot)  DE(clash)    DE(int)     intcor
      9.34     -11.93       2.01        0.00      85.17       3.99       0.40       2.19       ----

> <Gold.Chemscore.Fitness>
9.3380

> <Gold.Chemscore.DG>
-11.9305

> <Gold.Chemscore.ZeroCoef>
-5.4800

> <Gold.Chemscore.Hbond>
2.0061

> <Gold.Chemscore.Metal>
0.0000

> <Gold.Chemscore.Lipo>
85.1702

> <Gold.Chemscore.Internal_Hbond>
0.0000

> <Gold.Chemscore.DEClash>
0.4020

> <Gold.Chemscore.DEInternal>
2.1906

> <Gold.Chemscore.Rot>
3.9902

> <Gold.Chemscore.Internal.Correction>
   9.000000E+99

> <Gold.Chemscore.Hbonds>
donor molecule, donor type, donor heavy atom, donor atom, acceptor molecule, acceptor atom, score
      L1  H    24    48       P1  7948  0.81
      P1  H  7954  7966       L1    24  0.25
      P1  H  7997  8010       L1    12  0.95

> <Gold.Chemscore.Hbond.Weighted>
-6.7004

> <Gold.Chemscore.Metal.Weighted>
-0.0000

> <Gold.Chemscore.Lipo.Weighted>
-9.9649

> <Gold.Chemscore.Internal_Hbond.Weighted>
0.0000

> <Gold.Chemscore.DEClash.Weighted>
0.4020

> <Gold.Chemscore.DEInternal.Weighted>
2.1906

> <Gold.Chemscore.Rot.Weighted>
10.2148

> <Gold.Chemscore.Internal.Correction.Weighted>
   9.000000E+99

> <Gold.Protein.RotatedTorsions>
[ 6907 6896 6895 6894 ] final   73.20 input  -60.11 | X-H torsion
[ 7974 7965 7964 7962 ] final   -6.74 input  175.53 | X-H torsion
[ 8008 7997 7996 7995 ] final   79.98 input   59.86 | X-H torsion
[ 10167 10162 10161 10158 ] final   26.72 input  -65.29 | X-H torsion
[ 10718 10713 10712 10709 ] final  162.05 input   66.30 | X-H torsion
[ 10763 10752 10751 10750 ] final  154.54 input  -60.55 | X-H torsion
[ 11005 11000 10999 10996 ] final -135.85 input  -57.11 | X-H torsion

> <Gold.Protein.ActiveResidues>
 VAL166  LYS551  ARG553  GLY616  TRP617  ASP618  TYR619  PRO620  LYS621  CYS622 
 ASP623  PHE694  ASN695  SER759  ASP760  ASP761  ALA762  ILE779  LEU786  VAL792 
 PHE793  MET794  SER795  GLU796  ALA797  LYS798  CYS799  TRP800  GLU811  SER814 

> <Gold.Protein.RotatedAtoms>
  152.4910  134.4457  159.9557 H   0  0  0  0  0  0  0  0  0  0  0  0  # atno 6907 bound_to 6896
  151.4444  133.3628  159.2794 H   0  0  0  0  0  0  0  0  0  0  0  0  # atno 6908 bound_to 6896
  150.9065  134.8504  159.7456 H   0  0  0  0  0  0  0  0  0  0  0  0  # atno 6909 bound_to 6896
  146.2324  140.2216  142.8337 H   0  0  0  0  0  0  0  0  0  0  0  0  # atno 7974 bound_to 7965
  155.8772  140.3446  155.5862 H   0  0  0  0  0  0  0  0  0  0  0  0  # atno 8008 bound_to 7997
  155.7760  140.0852  157.2102 H   0  0  0  0  0  0  0  0  0  0  0  0  # atno 8009 bound_to 7997
  154.4021  140.1509  156.2985 H   0  0  0  0  0  0  0  0  0  0  0  0  # atno 8010 bound_to 7997
  140.4999  144.0332  150.6328 H   0  0  0  0  0  0  0  0  0  0  0  0  # atno 10167 bound_to 10162
  157.1279  131.0509  151.2385 H   0  0  0  0  0  0  0  0  0  0  0  0  # atno 10718 bound_to 10713
  154.1540  135.2813  155.3127 H   0  0  0  0  0  0  0  0  0  0  0  0  # atno 10763 bound_to 10752
  154.6196  135.5472  153.7564 H   0  0  0  0  0  0  0  0  0  0  0  0  # atno 10764 bound_to 10752
  153.0212  135.6435  154.1684 H   0  0  0  0  0  0  0  0  0  0  0  0  # atno 10765 bound_to 10752
  140.8860  134.1872  157.4560 H   0  0  0  0  0  0  0  0  0  0  0  0  # atno 11005 bound_to 11000
  144.9627  140.8291  143.5503 LP  0  0  0  0  0  0  0  0  0  0  0  0  # atno 17320 bound_to 7965
  145.2189  139.2169  143.5103 LP  0  0  0  0  0  0  0  0  0  0  0  0  # atno 17321 bound_to 7965
  140.3625  143.2900  152.0368 LP  0  0  0  0  0  0  0  0  0  0  0  0  # atno 17342 bound_to 10162
  139.4869  144.6292  151.7104 LP  0  0  0  0  0  0  0  0  0  0  0  0  # atno 17343 bound_to 10162
  157.4418  130.7548  149.7076 LP  0  0  0  0  0  0  0  0  0  0  0  0  # atno 17370 bound_to 10713
  155.9814  130.4020  150.3473 LP  0  0  0  0  0  0  0  0  0  0  0  0  # atno 17371 bound_to 10713
  139.8724  134.9838  156.5212 LP  0  0  0  0  0  0  0  0  0  0  0  0  # atno 17394 bound_to 11000
  140.8404  133.8209  155.9070 LP  0  0  0  0  0  0  0  0  0  0  0  0  # atno 17395 bound_to 11000

$$$$
