AV-unprocessed.smi:2709|AV-procd|sdf|10462|dock5
  -GOLD-   2272014503D 1   1.00000     0.00000
 Structure written by MMmdl.
 40 42  0  0  0  0  0  0  0  0  1 V2000
  144.3640  134.7832  155.2873 C   0  0  0  0  0  0  0  0  0  0  0  0
  145.0095  135.2040  154.0974 O   0  0  0  0  0  0  0  0  0  0  0  0
  144.1304  135.8123  153.1548 C   0  0  2  0  0  0  0  0  0  0  0  0
  143.3308  134.6859  152.4975 C   0  0  0  0  0  0  0  0  0  0  0  0
  144.2547  134.1572  151.4037 C   0  0  0  0  0  0  0  0  0  0  0  0
  144.9728  135.3989  150.8683 C   0  0  0  0  0  0  0  0  0  0  0  0
  144.9272  136.4512  151.9938 C   0  0  2  0  0  0  0  0  0  0  0  0
  146.2735  136.8658  152.3838 N   0  0  0  0  0  0  0  0  0  0  0  0
  146.5509  137.7874  153.3159 C   0  0  0  0  0  0  0  0  0  0  0  0
  145.6859  138.3959  153.9451 O   0  0  0  0  0  0  0  0  0  0  0  0
  147.8772  137.9521  153.4547 N   0  0  0  0  0  0  0  0  0  0  0  0
  148.5752  138.8397  154.3174 C   0  0  0  0  0  0  0  0  0  0  0  0
  149.8716  139.2612  153.9546 C   0  0  0  0  0  0  0  0  0  0  0  0
  150.5952  140.1003  154.7264 N   0  0  0  0  0  0  0  0  0  0  0  0
  150.0329  140.5044  155.8686 C   0  0  0  0  0  0  0  0  0  0  0  0
  150.8141  141.4786  156.6953 C   0  0  0  0  0  0  0  0  0  0  0  0
  151.3383  141.0939  158.0637 C   0  0  0  0  0  0  0  0  0  0  0  0
  150.2174  142.0892  157.9472 C   0  0  0  0  0  0  0  0  0  0  0  0
  148.8198  140.1734  156.3188 N   0  0  0  0  0  0  0  0  0  0  0  0
  148.0880  139.3357  155.5523 C   0  0  0  0  0  0  0  0  0  0  0  0
  145.0950  134.3435  155.9657 H   0  0  0  0  0  0  0  0  0  0  0  0
  143.6036  134.0305  155.0748 H   0  0  0  0  0  0  0  0  0  0  0  0
  143.8933  135.6238  155.7987 H   0  0  0  0  0  0  0  0  0  0  0  0
  143.4661  136.5402  153.6257 H   0  0  0  0  0  0  0  0  0  0  0  0
  143.0247  133.9130  153.2034 H   0  0  0  0  0  0  0  0  0  0  0  0
  142.4273  135.0952  152.0433 H   0  0  0  0  0  0  0  0  0  0  0  0
  144.9823  133.4717  151.8406 H   0  0  0  0  0  0  0  0  0  0  0  0
  143.7160  133.6161  150.6253 H   0  0  0  0  0  0  0  0  0  0  0  0
  145.9875  135.1582  150.5486 H   0  0  0  0  0  0  0  0  0  0  0  0
  144.4459  135.7813  149.9930 H   0  0  0  0  0  0  0  0  0  0  0  0
  144.3759  137.3155  151.6179 H   0  0  0  0  0  0  0  0  0  0  0  0
  147.0435  136.4080  151.9189 H   0  0  0  0  0  0  0  0  0  0  0  0
  148.4574  137.4129  152.8287 H   0  0  0  0  0  0  0  0  0  0  0  0
  150.3314  138.9295  153.0350 H   0  0  0  0  0  0  0  0  0  0  0  0
  151.4415  142.1117  156.0707 H   0  0  0  0  0  0  0  0  0  0  0  0
  151.0909  140.1048  158.4445 H   0  0  0  0  0  0  0  0  0  0  0  0
  152.3188  141.4707  158.3476 H   0  0  0  0  0  0  0  0  0  0  0  0
  150.4467  143.1327  158.1533 H   0  0  0  0  0  0  0  0  0  0  0  0
  149.2249  141.7616  158.2504 H   0  0  0  0  0  0  0  0  0  0  0  0
  147.1239  139.0671  155.9537 H   0  0  0  0  0  0  0  0  0  0  0  0
  1  2  1  0  0  0  0
  1 21  1  0  0  0  0
  1 22  1  0  0  0  0
  1 23  1  0  0  0  0
  2  3  1  0  0  0  0
  3  7  1  0  0  0  0
  3  4  1  0  0  0  0
  3 24  1  0  0  0  0
  4  5  1  0  0  0  0
  4 25  1  0  0  0  0
  4 26  1  0  0  0  0
  5  6  1  0  0  0  0
  5 27  1  0  0  0  0
  5 28  1  0  0  0  0
  6  7  1  0  0  0  0
  6 29  1  0  0  0  0
  6 30  1  0  0  0  0
  7  8  1  0  0  0  0
  7 31  1  0  0  0  0
  8  9  1  0  0  0  0
  8 32  1  0  0  0  0
  9 10  2  0  0  0  0
  9 11  1  0  0  0  0
 11 12  1  0  0  0  0
 11 33  1  0  0  0  0
 12 20  1  0  0  0  0
 12 13  2  0  0  0  0
 13 14  1  0  0  0  0
 13 34  1  0  0  0  0
 14 15  2  0  0  0  0
 15 16  1  0  0  0  0
 15 19  1  0  0  0  0
 16 18  1  0  0  0  0
 16 17  1  0  0  0  0
 16 35  1  0  0  0  0
 17 18  1  0  0  0  0
 17 36  1  0  0  0  0
 17 37  1  0  0  0  0
 18 38  1  0  0  0  0
 18 39  1  0  0  0  0
 19 20  2  0  0  0  0
 20 40  1  0  0  0  0
M  END
> <s_m_source_file>
AV-unprocessed.smi

> <i_m_source_file_index>
2709

> <i_lp_mmshare_version>
43012

> <i_f3d_flags>
0

> <s_epik_input>
W0NIM11PW0NAQEhdMVtDSDJdW0NIMl1bQ0gyXVtDQEhdMVtOSF1DKD1PKVtOSF1jMltjSF1uYyhuW2NIXTIpW0NIXTNbQ0gyXVtDSDJdMw==

> <s_epik_cmdline>
J2VwaWtfcHl0aG9uJywgJy1waCcsICc3LjAnLCAnLXRuJywgJzgnLCAnLW1hJywgJzIwMCcsICctbWV0YWxfYmluZGluZycsICctaW1hZScsICc8aW5maWxlLm1hZT4nLCAnLW9tYWUnLCAnPG91dGZpbGUubWFlPic=

> <r_lp_tautomer_probability>
1

> <r_epik_Ionization_Penalty>
2.49969e-05

> <r_epik_Ionization_Penalty_Charging>
0

> <r_epik_Ionization_Penalty_Neutral>
2.49969e-05

> <r_epik_State_Penalty>
-0

> <r_epik_Charging_Adjusted_Penalty>
0

> <i_epik_Tot_Q>
0

> <i_epik_Tot_abs_Q>
0

> <r_epik_Metal_State_Penalty>
-0

> <b_epik_Metal_Only>
0

> <s_lp_Force_Field>
OPLS_2005

> <r_lp_Energy>
20.8159

> <b_lp_Chiralities_Consistent>
1

> <s_lp_Variant>
AV-unprocessed.smi:2709-3

> <Gold.Version>
5.8.1

> <Gold.Id.Protein>
6NUR|6NUR_protein|mol2

> <Gold.PLP.Fitness>
36.5069

> <Gold.PLP.PLP>
-26.0451

> <Gold.PLP.part.hbond>
-3.0000

> <Gold.PLP.part.metal>
0.0000

> <Gold.PLP.part.buried>
-2.8850

> <Gold.PLP.part.nonpolar>
-21.3261

> <Gold.PLP.part.repulsive>
0.3632

> <Gold.PLP.ligand.clash>
0.0000

> <Gold.PLP.ligand.torsion>
0.2970

> <Gold.PLP.Chemscore.Hbond>
2.9280

> <Gold.PLP.Chemscore.CHOScore>
0.7117

> <Gold.PLP.Chemscore.Metal>
0.0000

> <Gold.Chemscore.Hbonds>
donor molecule, donor type, donor heavy atom, donor atom, acceptor molecule, acceptor atom, score
      L1  H     8    32       P1  7948  0.91
      L1  H    11    33       P1  7948  1.00
      P1  H  7989  7998       L1    14  1.00
      L1  C    13    34       P1  7957  0.71

> <Gold.PLP.Chemscore.Internal.Correction>
0.1365

> <Gold.Rescore>
     Score         DG    S(hbond)    S(metal)    S(lipo)     H(rot)  DE(clash)    DE(int)     intcor
     15.58     -17.47       2.58        0.00      59.80       1.41       1.41       0.48       ----

> <Gold.Chemscore.Fitness>
15.5816

> <Gold.Chemscore.DG>
-17.4723

> <Gold.Chemscore.ZeroCoef>
-5.4800

> <Gold.Chemscore.Hbond>
2.5777

> <Gold.Chemscore.Metal>
0.0000

> <Gold.Chemscore.Lipo>
59.7955

> <Gold.Chemscore.Internal_Hbond>
0.0000

> <Gold.Chemscore.DEClash>
1.4083

> <Gold.Chemscore.DEInternal>
0.4824

> <Gold.Chemscore.Rot>
1.4114

> <Gold.Chemscore.Internal.Correction>
   9.000000E+99

> <Gold.Chemscore.Hbonds>
donor molecule, donor type, donor heavy atom, donor atom, acceptor molecule, acceptor atom, score
      L1  H     8    32       P1  7948  0.89
      L1  H    11    33       P1  7948  0.98
      P1  H  7989  7998       L1    14  0.30

> <Gold.Chemscore.Hbond.Weighted>
-8.6095

> <Gold.Chemscore.Metal.Weighted>
-0.0000

> <Gold.Chemscore.Lipo.Weighted>
-6.9961

> <Gold.Chemscore.Internal_Hbond.Weighted>
0.0000

> <Gold.Chemscore.DEClash.Weighted>
1.4083

> <Gold.Chemscore.DEInternal.Weighted>
0.4824

> <Gold.Chemscore.Rot.Weighted>
3.6133

> <Gold.Chemscore.Internal.Correction.Weighted>
   9.000000E+99

> <Gold.Protein.RotatedTorsions>
[ 6907 6896 6895 6894 ] final   98.75 input  -60.11 | X-H torsion
[ 7974 7965 7964 7962 ] final -154.56 input  175.53 | X-H torsion
[ 8008 7997 7996 7995 ] final  -45.70 input   59.86 | X-H torsion
[ 10167 10162 10161 10158 ] final -152.64 input  -65.29 | X-H torsion
[ 10718 10713 10712 10709 ] final -172.04 input   66.30 | X-H torsion
[ 10763 10752 10751 10750 ] final   69.52 input  -60.55 | X-H torsion
[ 11005 11000 10999 10996 ] final  156.32 input  -57.11 | X-H torsion

> <Gold.Protein.ActiveResidues>
 VAL166  LYS551  ARG553  GLY616  TRP617  ASP618  TYR619  PRO620  LYS621  CYS622 
 ASP623  PHE694  ASN695  SER759  ASP760  ASP761  ALA762  ILE779  LEU786  VAL792 
 PHE793  MET794  SER795  GLU796  ALA797  LYS798  CYS799  TRP800  GLU811  SER814 

> <Gold.Protein.RotatedAtoms>
  152.5404  134.0533  159.8119 H   0  0  0  0  0  0  0  0  0  0  0  0  # atno 6907 bound_to 6896
  151.0671  133.5489  159.2637 H   0  0  0  0  0  0  0  0  0  0  0  0  # atno 6908 bound_to 6896
  151.2365  135.0582  159.9062 H   0  0  0  0  0  0  0  0  0  0  0  0  # atno 6909 bound_to 6896
  144.7683  140.4371  143.5926 H   0  0  0  0  0  0  0  0  0  0  0  0  # atno 7974 bound_to 7965
  154.4002  140.1390  156.3890 H   0  0  0  0  0  0  0  0  0  0  0  0  # atno 8008 bound_to 7997
  155.7932  140.3478  155.5340 H   0  0  0  0  0  0  0  0  0  0  0  0  # atno 8009 bound_to 7997
  155.8558  140.0948  157.1636 H   0  0  0  0  0  0  0  0  0  0  0  0  # atno 8010 bound_to 7997
  139.7164  143.9026  152.2487 H   0  0  0  0  0  0  0  0  0  0  0  0  # atno 10167 bound_to 10162
  156.7498  130.9373  151.3114 H   0  0  0  0  0  0  0  0  0  0  0  0  # atno 10718 bound_to 10713
  153.0291  135.5208  154.7300 H   0  0  0  0  0  0  0  0  0  0  0  0  # atno 10763 bound_to 10752
  154.6330  135.2902  155.0196 H   0  0  0  0  0  0  0  0  0  0  0  0  # atno 10764 bound_to 10752
  154.1141  135.6617  153.4943 H   0  0  0  0  0  0  0  0  0  0  0  0  # atno 10765 bound_to 10752
  140.1664  134.8574  157.2637 H   0  0  0  0  0  0  0  0  0  0  0  0  # atno 11005 bound_to 11000
  145.6402  139.1549  143.2920 LP  0  0  0  0  0  0  0  0  0  0  0  0  # atno 17320 bound_to 7965
  146.1809  140.6499  142.9189 LP  0  0  0  0  0  0  0  0  0  0  0  0  # atno 17321 bound_to 7965
  139.8909  144.6966  150.8771 LP  0  0  0  0  0  0  0  0  0  0  0  0  # atno 17342 bound_to 10162
  140.7744  143.3587  151.1871 LP  0  0  0  0  0  0  0  0  0  0  0  0  # atno 17343 bound_to 10162
  157.6782  130.9114  150.0202 LP  0  0  0  0  0  0  0  0  0  0  0  0  # atno 17370 bound_to 10713
  156.1409  130.3642  149.9584 LP  0  0  0  0  0  0  0  0  0  0  0  0  # atno 17371 bound_to 10713
  140.2429  134.3774  155.7473 LP  0  0  0  0  0  0  0  0  0  0  0  0  # atno 17394 bound_to 11000
  141.2214  133.7275  156.8817 LP  0  0  0  0  0  0  0  0  0  0  0  0  # atno 17395 bound_to 11000

$$$$
