AV-unprocessed.smi:750|AV-procd|sdf|3589|dock8
  -GOLD-   22720 0583D 1   1.00000     0.00000
 Structure written by MMmdl.
 23 24  0  0  0  0  0  0  0  0  1 V2000
  145.7621  135.2914  153.8797 C   0  0  0  0  0  0  0  0  0  0  0  0
  145.3806  135.8389  152.4895 C   0  0  2  0  0  0  0  0  0  0  0  0
  144.8642  134.7396  151.5480 C   0  0  0  0  0  0  0  0  0  0  0  0
  144.8429  133.3878  151.9640 C   0  0  0  0  0  0  0  0  0  0  0  0
  144.3668  132.3990  151.0828 C   0  0  0  0  0  0  0  0  0  0  0  0
  143.9264  132.7959  149.8065 C   0  0  0  0  0  0  0  0  0  0  0  0
  143.9385  134.0781  149.3878 N   0  0  0  0  0  0  0  0  0  0  0  0
  144.3961  135.0201  150.2404 C   0  0  0  0  0  0  0  0  0  0  0  0
  146.4886  136.6129  151.9428 N   0  0  0  0  0  0  0  0  0  0  0  0
  146.1734  137.8957  151.7182 C   0  0  0  0  0  0  0  0  0  0  0  0
  146.9174  138.7513  151.2451 O   0  0  0  0  0  0  0  0  0  0  0  0
  144.9096  138.0804  152.1089 N   0  0  0  0  0  0  0  0  0  0  0  0
  144.3587  136.9685  152.5924 C   0  0  0  0  0  0  0  0  0  0  0  0
  143.2235  136.8547  153.0524 O   0  0  0  0  0  0  0  0  0  0  0  0
  144.9164  134.8176  154.3786 H   0  0  0  0  0  0  0  0  0  0  0  0
  146.1205  136.0842  154.5380 H   0  0  0  0  0  0  0  0  0  0  0  0
  146.5560  134.5481  153.8015 H   0  0  0  0  0  0  0  0  0  0  0  0
  145.1819  133.1060  152.9497 H   0  0  0  0  0  0  0  0  0  0  0  0
  144.3389  131.3610  151.3794 H   0  0  0  0  0  0  0  0  0  0  0  0
  143.5539  132.0649  149.1042 H   0  0  0  0  0  0  0  0  0  0  0  0
  144.3817  136.0266  149.8504 H   0  0  0  0  0  0  0  0  0  0  0  0
  147.3908  136.2070  151.7408 H   0  0  0  0  0  0  0  0  0  0  0  0
  144.4309  138.9679  152.0593 H   0  0  0  0  0  0  0  0  0  0  0  0
  1  2  1  0  0  0  0
  1 15  1  0  0  0  0
  1 16  1  0  0  0  0
  1 17  1  0  0  0  0
  2 13  1  0  0  0  0
  2  3  1  0  0  0  0
  2  9  1  0  0  0  0
  3  8  1  0  0  0  0
  3  4  2  0  0  0  0
  4  5  1  0  0  0  0
  4 18  1  0  0  0  0
  5  6  2  0  0  0  0
  5 19  1  0  0  0  0
  6  7  1  0  0  0  0
  6 20  1  0  0  0  0
  7  8  2  0  0  0  0
  8 21  1  0  0  0  0
  9 10  1  0  0  0  0
  9 22  1  0  0  0  0
 10 11  2  0  0  0  0
 10 12  1  0  0  0  0
 12 13  1  0  0  0  0
 12 23  1  0  0  0  0
 13 14  2  0  0  0  0
M  END
> <s_m_source_file>
AV-unprocessed.smi

> <i_m_source_file_index>
750

> <i_lp_mmshare_version>
43012

> <i_f3d_flags>
0

> <s_epik_input>
Tz1DMVtOSF1DKD1PKVtOSF1bQ0BAXTEoW0NIM10pYzJbY0hdW2NIXVtjSF1uW2NIXTI=

> <s_epik_cmdline>
J2VwaWtfcHl0aG9uJywgJy1waCcsICc3LjAnLCAnLXRuJywgJzgnLCAnLW1hJywgJzIwMCcsICctbWV0YWxfYmluZGluZycsICctaW1hZScsICc8aW5maWxlLm1hZT4nLCAnLW9tYWUnLCAnPG91dGZpbGUubWFlPic=

> <r_lp_tautomer_probability>
1

> <r_epik_Ionization_Penalty>
0.0296909

> <r_epik_Ionization_Penalty_Charging>
0

> <r_epik_Ionization_Penalty_Neutral>
0.0296909

> <r_epik_State_Penalty>
0.022996

> <r_epik_Charging_Adjusted_Penalty>
0.022996

> <i_epik_Tot_Q>
0

> <i_epik_Tot_abs_Q>
0

> <r_epik_Metal_State_Penalty>
0.427807

> <b_epik_Metal_Only>
0

> <s_lp_Force_Field>
OPLS_2005

> <r_lp_Energy>
18.5111

> <b_lp_Chiralities_Consistent>
1

> <s_lp_Variant>
AV-unprocessed.smi:750-2

> <Gold.Version>
5.8.1

> <Gold.Id.Protein>
6NUR|6NUR_protein|mol2

> <Gold.PLP.Fitness>
32.4703

> <Gold.PLP.PLP>
-20.9585

> <Gold.PLP.part.hbond>
-3.7857

> <Gold.PLP.part.metal>
0.0000

> <Gold.PLP.part.buried>
-3.4035

> <Gold.PLP.part.nonpolar>
-17.9164

> <Gold.PLP.part.repulsive>
4.6338

> <Gold.PLP.ligand.clash>
0.0000

> <Gold.PLP.ligand.torsion>
0.0832

> <Gold.PLP.Chemscore.Hbond>
2.9920

> <Gold.PLP.Chemscore.CHOScore>
0.8613

> <Gold.PLP.Chemscore.Metal>
0.0000

> <Gold.Chemscore.Hbonds>
donor molecule, donor type, donor heavy atom, donor atom, acceptor molecule, acceptor atom, score
      L1  H     9    22       P1  7948  1.00
      L1  H    12    23       P1 10175  1.00
      P1  H  7954  7966       L1    11  0.98
      L1  C     8    21       P1 10171  0.86

> <Gold.PLP.Chemscore.Internal.Correction>
0.1182

> <Gold.Rescore>
     Score         DG    S(hbond)    S(metal)    S(lipo)     H(rot)  DE(clash)    DE(int)     intcor
     16.09     -16.76       2.83        0.00      37.47       1.00       0.61       0.06       ----

> <Gold.Chemscore.Fitness>
16.0897

> <Gold.Chemscore.DG>
-16.7570

> <Gold.Chemscore.ZeroCoef>
-5.4800

> <Gold.Chemscore.Hbond>
2.8303

> <Gold.Chemscore.Metal>
0.0000

> <Gold.Chemscore.Lipo>
37.4666

> <Gold.Chemscore.Internal_Hbond>
0.0000

> <Gold.Chemscore.DEClash>
0.6081

> <Gold.Chemscore.DEInternal>
0.0591

> <Gold.Chemscore.Rot>
1.0000

> <Gold.Chemscore.Internal.Correction>
   9.000000E+99

> <Gold.Chemscore.Hbonds>
donor molecule, donor type, donor heavy atom, donor atom, acceptor molecule, acceptor atom, score
      L1  H     9    22       P1  7948  0.90
      L1  H    12    23       P1 10175  1.00
      P1  H  7954  7966       L1    11  0.64

> <Gold.Chemscore.Hbond.Weighted>
-9.4534

> <Gold.Chemscore.Metal.Weighted>
-0.0000

> <Gold.Chemscore.Lipo.Weighted>
-4.3836

> <Gold.Chemscore.Internal_Hbond.Weighted>
0.0000

> <Gold.Chemscore.DEClash.Weighted>
0.6081

> <Gold.Chemscore.DEInternal.Weighted>
0.0591

> <Gold.Chemscore.Rot.Weighted>
2.5600

> <Gold.Chemscore.Internal.Correction.Weighted>
   9.000000E+99

> <Gold.Protein.RotatedTorsions>
[ 6907 6896 6895 6894 ] final  172.84 input  -60.11 | X-H torsion
[ 7974 7965 7964 7962 ] final    2.43 input  175.53 | X-H torsion
[ 8008 7997 7996 7995 ] final   -9.83 input   59.86 | X-H torsion
[ 10167 10162 10161 10158 ] final  111.58 input  -65.29 | X-H torsion
[ 10718 10713 10712 10709 ] final  168.69 input   66.30 | X-H torsion
[ 10763 10752 10751 10750 ] final  149.07 input  -60.55 | X-H torsion
[ 11005 11000 10999 10996 ] final   28.26 input  -57.11 | X-H torsion

> <Gold.Protein.ActiveResidues>
 VAL166  LYS551  ARG553  GLY616  TRP617  ASP618  TYR619  PRO620  LYS621  CYS622 
 ASP623  PHE694  ASN695  SER759  ASP760  ASP761  ALA762  ILE779  LEU786  VAL792 
 PHE793  MET794  SER795  GLU796  ALA797  LYS798  CYS799  TRP800  GLU811  SER814 

> <Gold.Protein.RotatedAtoms>
  151.7778  133.3347  159.3462 H   0  0  0  0  0  0  0  0  0  0  0  0  # atno 6907 bound_to 6896
  150.7437  134.5959  159.6021 H   0  0  0  0  0  0  0  0  0  0  0  0  # atno 6908 bound_to 6896
  152.3297  134.7277  160.0344 H   0  0  0  0  0  0  0  0  0  0  0  0  # atno 6909 bound_to 6896
  146.2444  140.0838  142.8355 H   0  0  0  0  0  0  0  0  0  0  0  0  # atno 7974 bound_to 7965
  154.5611  140.2345  155.8334 H   0  0  0  0  0  0  0  0  0  0  0  0  # atno 8008 bound_to 7997
  156.2030  140.3047  155.9525 H   0  0  0  0  0  0  0  0  0  0  0  0  # atno 8009 bound_to 7997
  155.2888  140.0426  157.3012 H   0  0  0  0  0  0  0  0  0  0  0  0  # atno 8010 bound_to 7997
  139.6601  144.7129  151.1882 H   0  0  0  0  0  0  0  0  0  0  0  0  # atno 10167 bound_to 10162
  157.0335  131.0266  151.2737 H   0  0  0  0  0  0  0  0  0  0  0  0  # atno 10718 bound_to 10713
  154.0652  135.2871  155.3318 H   0  0  0  0  0  0  0  0  0  0  0  0  # atno 10763 bound_to 10752
  154.6782  135.5273  153.8231 H   0  0  0  0  0  0  0  0  0  0  0  0  # atno 10764 bound_to 10752
  153.0507  135.6575  154.0838 H   0  0  0  0  0  0  0  0  0  0  0  0  # atno 10765 bound_to 10752
  140.3175  134.2580  155.7723 H   0  0  0  0  0  0  0  0  0  0  0  0  # atno 11005 bound_to 11000
  145.0710  140.9155  143.4882 LP  0  0  0  0  0  0  0  0  0  0  0  0  # atno 17320 bound_to 7965
  145.0972  139.2848  143.5705 LP  0  0  0  0  0  0  0  0  0  0  0  0  # atno 17321 bound_to 7965
  140.7576  143.6009  150.8701 LP  0  0  0  0  0  0  0  0  0  0  0  0  # atno 17342 bound_to 10162
  139.9665  143.6104  152.2986 LP  0  0  0  0  0  0  0  0  0  0  0  0  # atno 17343 bound_to 10162
  157.5159  130.7968  149.7756 LP  0  0  0  0  0  0  0  0  0  0  0  0  # atno 17370 bound_to 10713
  156.0061  130.3855  150.2425 LP  0  0  0  0  0  0  0  0  0  0  0  0  # atno 17371 bound_to 10713
  141.2094  133.7749  156.9998 LP  0  0  0  0  0  0  0  0  0  0  0  0  # atno 17394 bound_to 11000
  140.0971  134.9558  157.1865 LP  0  0  0  0  0  0  0  0  0  0  0  0  # atno 17395 bound_to 11000

$$$$
