AV-unprocessed.smi:21|AV-procd|sdf|130|dock5
  -GOLD-   2262015313D 1   1.00000     0.00000
 Structure written by MMmdl.
 62 65  0  0  0  0  0  0  0  0  2 V2000
  145.5136  132.3698  151.2720 C   0  0  0  0  0  0  0  0  0  0  0  0
  146.3439  131.8215  152.2827 O   0  0  0  0  0  0  0  0  0  0  0  0
  147.2037  132.7751  152.8881 C   0  0  2  0  0  0  0  0  0  0  0  0
  147.6913  132.2689  154.2401 C   0  0  0  0  0  0  0  0  0  0  0  0
  148.0553  133.5420  155.0259 C   0  0  1  0  0  0  0  0  0  0  0  0
  149.5673  133.8563  155.0222 C   0  0  0  0  0  0  0  0  0  0  0  0
  150.1084  134.1390  156.3517 N   0  0  0  0  0  0  0  0  0  0  0  0
  150.2770  133.0298  157.2898 C   0  0  0  0  0  0  0  0  0  0  0  0
  150.2635  135.4190  156.8029 C   0  0  0  0  0  0  0  0  0  0  0  0
  149.7675  135.7283  158.0320 N   0  0  0  0  0  0  0  0  0  0  0  0
  149.8822  136.9602  158.5327 C   0  0  0  0  0  0  0  0  0  0  0  0
  150.4539  138.0306  157.9834 N   0  0  0  0  0  0  0  0  0  0  0  0
  150.9623  137.7393  156.7534 C   0  0  0  0  0  0  0  0  0  0  0  0
  150.9130  136.4767  156.0909 C   0  0  0  0  0  0  0  0  0  0  0  0
  151.5486  136.5859  154.8570 N   0  0  0  0  0  0  0  0  0  0  0  0
  151.9485  137.8259  154.7972 C   0  0  0  0  0  0  0  0  0  0  0  0
  151.6429  138.5885  155.8985 N   0  0  0  0  0  0  0  0  0  0  0  0
  151.9703  139.9903  156.0991 C   0  0  0  0  0  0  0  0  0  0  0  0
  150.7467  140.8601  156.4860 C   0  0  2  0  0  0  0  0  0  0  0  0
  149.9373  141.2795  155.2314 C   0  0  0  0  0  0  0  0  0  0  0  0
  149.9613  140.2821  154.2324 O   0  0  0  0  0  0  0  0  0  0  0  0
  151.2047  142.0842  157.3269 C   0  0  1  0  0  0  0  0  0  0  0  0
  150.0958  142.9802  157.8526 C   0  0  0  0  0  0  0  0  0  0  0  0
  150.8000  143.7548  158.9600 C   0  0  0  0  0  0  0  0  0  0  0  0
  151.7562  142.8541  159.5043 O   0  0  0  0  0  0  0  0  0  0  0  0
  151.9104  141.7309  158.6426 C   0  0  0  0  0  0  0  0  0  0  0  0
  147.3161  134.6475  154.3645 N   0  3  2  0  0  0  0  0  0  0  0  0
  146.5582  135.5210  155.2858 C   0  0  0  0  0  0  0  0  0  0  0  0
  146.4978  134.0735  153.2757 C   0  0  0  0  0  0  0  0  0  0  0  0
  148.0666  132.9848  152.2529 H   0  0  0  0  0  0  0  0  0  0  0  0
  147.7072  133.4278  156.0537 H   0  0  0  0  0  0  0  0  0  0  0  0
  144.9043  131.5796  150.8340 H   0  0  0  0  0  0  0  0  0  0  0  0
  146.1064  132.8172  150.4733 H   0  0  0  0  0  0  0  0  0  0  0  0
  144.8394  133.1264  151.6740 H   0  0  0  0  0  0  0  0  0  0  0  0
  146.8740  131.7579  154.7514 H   0  0  0  0  0  0  0  0  0  0  0  0
  148.5060  131.5527  154.1452 H   0  0  0  0  0  0  0  0  0  0  0  0
  150.1035  133.0094  154.5930 H   0  0  0  0  0  0  0  0  0  0  0  0
  149.7916  134.6854  154.3535 H   0  0  0  0  0  0  0  0  0  0  0  0
  151.2581  133.0742  157.7641 H   0  0  0  0  0  0  0  0  0  0  0  0
  150.1985  132.0654  156.7879 H   0  0  0  0  0  0  0  0  0  0  0  0
  149.5149  133.0618  158.0693 H   0  0  0  0  0  0  0  0  0  0  0  0
  149.4583  137.1087  159.5149 H   0  0  0  0  0  0  0  0  0  0  0  0
  152.4853  138.2197  153.9462 H   0  0  0  0  0  0  0  0  0  0  0  0
  152.7354  140.0304  156.8740 H   0  0  0  0  0  0  0  0  0  0  0  0
  152.4345  140.3772  155.1911 H   0  0  0  0  0  0  0  0  0  0  0  0
  150.0996  140.2408  157.1096 H   0  0  0  0  0  0  0  0  0  0  0  0
  148.9050  141.5110  155.4955 H   0  0  0  0  0  0  0  0  0  0  0  0
  150.3488  142.1741  154.7670 H   0  0  0  0  0  0  0  0  0  0  0  0
  149.5622  139.4991  154.5803 H   0  0  0  0  0  0  0  0  0  0  0  0
  151.8816  142.6967  156.7287 H   0  0  0  0  0  0  0  0  0  0  0  0
  149.6772  143.6416  157.0937 H   0  0  0  0  0  0  0  0  0  0  0  0
  149.2859  142.3810  158.2715 H   0  0  0  0  0  0  0  0  0  0  0  0
  151.3288  144.6140  158.5454 H   0  0  0  0  0  0  0  0  0  0  0  0
  150.1101  144.1158  159.7230 H   0  0  0  0  0  0  0  0  0  0  0  0
  151.4360  140.8710  159.1175 H   0  0  0  0  0  0  0  0  0  0  0  0
  152.9657  141.4976  158.4999 H   0  0  0  0  0  0  0  0  0  0  0  0
  145.7937  134.9581  155.8230 H   0  0  0  0  0  0  0  0  0  0  0  0
  146.0690  136.3237  154.7335 H   0  0  0  0  0  0  0  0  0  0  0  0
  147.2266  135.9763  156.0167 H   0  0  0  0  0  0  0  0  0  0  0  0
  146.3994  134.7684  152.4413 H   0  0  0  0  0  0  0  0  0  0  0  0
  145.4964  133.8479  153.6474 H   0  0  0  0  0  0  0  0  0  0  0  0
  148.0169  135.2217  153.9181 H   0  0  0  0  0  0  0  0  0  0  0  0
  1  2  1  0  0  0  0
  1 32  1  0  0  0  0
  1 33  1  0  0  0  0
  1 34  1  0  0  0  0
  2  3  1  0  0  0  0
  3 30  1  0  0  0  0
  3 29  1  0  0  0  0
  3  4  1  0  0  0  0
  4  5  1  0  0  0  0
  4 35  1  0  0  0  0
  4 36  1  0  0  0  0
  5 31  1  0  0  0  0
  5  6  1  0  0  0  0
  5 27  1  0  0  0  0
  6  7  1  0  0  0  0
  6 37  1  0  0  0  0
  6 38  1  0  0  0  0
  7  8  1  0  0  0  0
  7  9  1  0  0  0  0
  8 39  1  0  0  0  0
  8 40  1  0  0  0  0
  8 41  1  0  0  0  0
  9 14  1  0  0  0  0
  9 10  2  0  0  0  0
 10 11  1  0  0  0  0
 11 12  2  0  0  0  0
 11 42  1  0  0  0  0
 12 13  1  0  0  0  0
 13 17  1  0  0  0  0
 13 14  2  0  0  0  0
 14 15  1  0  0  0  0
 15 16  2  0  0  0  0
 16 17  1  0  0  0  0
 16 43  1  0  0  0  0
 17 18  1  0  0  0  0
 18 19  1  0  0  0  0
 18 44  1  0  0  0  0
 18 45  1  0  0  0  0
 19 20  1  0  0  0  0
 19 22  1  0  0  0  0
 19 46  1  0  0  0  0
 20 21  1  0  0  0  0
 20 47  1  0  0  0  0
 20 48  1  0  0  0  0
 21 49  1  0  0  0  0
 22 26  1  0  0  0  0
 22 23  1  0  0  0  0
 22 50  1  0  0  0  0
 23 24  1  0  0  0  0
 23 51  1  0  0  0  0
 23 52  1  0  0  0  0
 24 25  1  0  0  0  0
 24 53  1  0  0  0  0
 24 54  1  0  0  0  0
 25 26  1  0  0  0  0
 26 55  1  0  0  0  0
 26 56  1  0  0  0  0
 27 28  1  0  0  0  0
 27 29  1  0  0  0  0
 27 62  1  0  0  0  0
 28 57  1  0  0  0  0
 28 58  1  0  0  0  0
 28 59  1  0  0  0  0
 29 60  1  0  0  0  0
 29 61  1  0  0  0  0
M  CHG  1  27   1
M  END
> <s_m_source_file>
AV-unprocessed.smi

> <i_m_source_file_index>
21

> <i_lp_mmshare_version>
43012

> <i_f3d_flags>
0

> <s_epik_input>
W0NIM11PW0NASF0xW0NIMl1bQ0BIXShOKFtDSDNdKVtDSDJdMSlbQ0gyXU4oW0NIM10pYyhuW2NIXW4yKWMoYzIzKW5bY0hdbjNbQ0gyXVtDQEhdKFtDSDJdW09IXSlbQ0BASF00W0NIMl1bQ0gyXU9bQ0gyXTQ=

> <s_epik_cmdline>
J2VwaWtfcHl0aG9uJywgJy1waCcsICc3LjAnLCAnLXRuJywgJzgnLCAnLW1hJywgJzIwMCcsICctbWV0YWxfYmluZGluZycsICctaW1hZScsICc8aW5maWxlLm1hZT4nLCAnLW9tYWUnLCAnPG91dGZpbGUubWFlPic=

> <r_lp_tautomer_probability>
1

> <r_epik_Ionization_Penalty>
0.0157465

> <r_epik_Ionization_Penalty_Charging>
0.015354

> <r_epik_Ionization_Penalty_Neutral>
0.000392529

> <r_epik_State_Penalty>
0.0120612

> <r_epik_Charging_Adjusted_Penalty>
0.0274152

> <i_epik_Tot_Q>
1

> <i_epik_Tot_abs_Q>
1

> <r_epik_Metal_State_Penalty>
0.0121253

> <b_epik_Metal_Only>
0

> <s_lp_Force_Field>
OPLS_2005

> <r_lp_Energy>
59.1571

> <b_lp_Chiralities_Consistent>
1

> <s_lp_Variant>
AV-unprocessed.smi:21-10

> <Gold.Version>
5.8.1

> <Gold.Id.Protein>
6NUR|6NUR_protein|mol2

> <Gold.PLP.Fitness>
54.2728

> <Gold.PLP.PLP>
-46.7618

> <Gold.PLP.part.hbond>
-4.4862

> <Gold.PLP.part.metal>
0.0000

> <Gold.PLP.part.buried>
-8.2700

> <Gold.PLP.part.nonpolar>
-36.4466

> <Gold.PLP.part.repulsive>
0.9904

> <Gold.PLP.ligand.clash>
0.0000

> <Gold.PLP.ligand.torsion>
2.4387

> <Gold.PLP.Chemscore.Hbond>
3.8979

> <Gold.PLP.Chemscore.CHOScore>
0.0000

> <Gold.PLP.Chemscore.Metal>
0.0000

> <Gold.Chemscore.Hbonds>
donor molecule, donor type, donor heavy atom, donor atom, acceptor molecule, acceptor atom, score
      P1  H  6896  6909       L1    10  0.54
      P1  H  7989  7998       L1    21  0.62
      P1  H 10752 10765       L1    15  1.00

> <Gold.PLP.Chemscore.Internal.Correction>
0.6947

> <Gold.Rescore>
     Score         DG    S(hbond)    S(metal)    S(lipo)     H(rot)  DE(clash)    DE(int)     intcor
     13.25     -17.63       2.88        0.00      88.96       3.08       0.15       4.23       ----

> <Gold.Chemscore.Fitness>
13.2478

> <Gold.Chemscore.DG>
-17.6287

> <Gold.Chemscore.ZeroCoef>
-5.4800

> <Gold.Chemscore.Hbond>
2.8787

> <Gold.Chemscore.Metal>
0.0000

> <Gold.Chemscore.Lipo>
88.9588

> <Gold.Chemscore.Internal_Hbond>
0.0000

> <Gold.Chemscore.DEClash>
0.1497

> <Gold.Chemscore.DEInternal>
4.2312

> <Gold.Chemscore.Rot>
3.0758

> <Gold.Chemscore.Internal.Correction>
   9.000000E+99

> <Gold.Chemscore.Hbonds>
donor molecule, donor type, donor heavy atom, donor atom, acceptor molecule, acceptor atom, score
      L1  H    27    62       P1  7948  0.04
      P1  H  6896  6909       L1    10  0.20
      P1  H  7989  7998       L1    21  0.06
      P1  H 10752 10765       L1    15  0.50

> <Gold.Chemscore.Hbond.Weighted>
-9.6147

> <Gold.Chemscore.Metal.Weighted>
-0.0000

> <Gold.Chemscore.Lipo.Weighted>
-10.4082

> <Gold.Chemscore.Internal_Hbond.Weighted>
0.0000

> <Gold.Chemscore.DEClash.Weighted>
0.1497

> <Gold.Chemscore.DEInternal.Weighted>
4.2312

> <Gold.Chemscore.Rot.Weighted>
7.8741

> <Gold.Chemscore.Internal.Correction.Weighted>
   9.000000E+99

> <Gold.Protein.RotatedTorsions>
[ 6907 6896 6895 6894 ] final   31.55 input  -60.11 | X-H torsion
[ 7974 7965 7964 7962 ] final   29.75 input  175.53 | X-H torsion
[ 8008 7997 7996 7995 ] final  -17.42 input   59.86 | X-H torsion
[ 10167 10162 10161 10158 ] final   49.67 input  -65.29 | X-H torsion
[ 10718 10713 10712 10709 ] final  137.12 input   66.30 | X-H torsion
[ 10763 10752 10751 10750 ] final  169.52 input  -60.55 | X-H torsion
[ 11005 11000 10999 10996 ] final  -93.56 input  -57.11 | X-H torsion

> <Gold.Protein.ActiveResidues>
 VAL166  LYS551  ARG553  GLY616  TRP617  ASP618  TYR619  PRO620  LYS621  CYS622 
 ASP623  PHE694  ASN695  SER759  ASP760  ASP761  ALA762  ILE779  LEU786  VAL792 
 PHE793  MET794  SER795  GLU796  ALA797  LYS798  CYS799  TRP800  GLU811  SER814 

> <Gold.Protein.RotatedAtoms>
  152.0618  134.9589  160.0574 H   0  0  0  0  0  0  0  0  0  0  0  0  # atno 6907 bound_to 6896
  152.0950  133.4215  159.4569 H   0  0  0  0  0  0  0  0  0  0  0  0  # atno 6908 bound_to 6896
  150.6838  134.2747  159.4646 H   0  0  0  0  0  0  0  0  0  0  0  0  # atno 6909 bound_to 6896
  146.1653  139.6880  142.9005 H   0  0  0  0  0  0  0  0  0  0  0  0  # atno 7974 bound_to 7965
  154.4979  140.2143  155.9407 H   0  0  0  0  0  0  0  0  0  0  0  0  # atno 8008 bound_to 7997
  156.1395  140.3182  155.8441 H   0  0  0  0  0  0  0  0  0  0  0  0  # atno 8009 bound_to 7997
  155.4146  140.0493  157.3020 H   0  0  0  0  0  0  0  0  0  0  0  0  # atno 8010 bound_to 7997
  140.2805  144.3162  150.6265 H   0  0  0  0  0  0  0  0  0  0  0  0  # atno 10167 bound_to 10162
  157.4394  131.1056  151.0160 H   0  0  0  0  0  0  0  0  0  0  0  0  # atno 10718 bound_to 10713
  154.3844  135.2753  155.2192 H   0  0  0  0  0  0  0  0  0  0  0  0  # atno 10763 bound_to 10752
  154.4285  135.5983  153.6057 H   0  0  0  0  0  0  0  0  0  0  0  0  # atno 10764 bound_to 10752
  152.9833  135.5990  154.4090 H   0  0  0  0  0  0  0  0  0  0  0  0  # atno 10765 bound_to 10752
  141.1494  133.7896  157.0176 H   0  0  0  0  0  0  0  0  0  0  0  0  # atno 11005 bound_to 11000
  145.4483  141.0427  143.2819 LP  0  0  0  0  0  0  0  0  0  0  0  0  # atno 17320 bound_to 7965
  144.8084  139.6008  143.7040 LP  0  0  0  0  0  0  0  0  0  0  0  0  # atno 17321 bound_to 7965
  140.5816  143.2172  151.7418 LP  0  0  0  0  0  0  0  0  0  0  0  0  # atno 17342 bound_to 10162
  139.4964  144.4072  152.0119 LP  0  0  0  0  0  0  0  0  0  0  0  0  # atno 17343 bound_to 10162
  157.1028  130.5989  149.5464 LP  0  0  0  0  0  0  0  0  0  0  0  0  # atno 17370 bound_to 10713
  155.9943  130.5006  150.7414 LP  0  0  0  0  0  0  0  0  0  0  0  0  # atno 17371 bound_to 10713
  140.0836  134.9633  157.1665 LP  0  0  0  0  0  0  0  0  0  0  0  0  # atno 17394 bound_to 11000
  140.3542  134.2565  155.7194 LP  0  0  0  0  0  0  0  0  0  0  0  0  # atno 17395 bound_to 11000

$$$$
