AV-unprocessed.smi:2237|AV-procd|sdf|9053|dock4
  -GOLD-   2272012263D 1   1.00000     0.00000
 Structure written by MMmdl.
 54 56  0  0  0  0  0  0  0  0  2 V2000
  151.8058  145.0480  159.7715 C   0  0  0  0  0  0  0  0  0  0  0  0
  152.1707  143.5864  159.6187 C   0  0  0  0  0  0  0  0  0  0  0  0
  152.9840  142.9387  160.5691 C   0  0  0  0  0  0  0  0  0  0  0  0
  153.2820  141.5789  160.3691 C   0  0  0  0  0  0  0  0  0  0  0  0
  152.7579  140.9273  159.2358 C   0  0  0  0  0  0  0  0  0  0  0  0
  151.9541  141.6519  158.3274 C   0  0  0  0  0  0  0  0  0  0  0  0
  151.4687  140.9045  157.2212 N   0  0  0  0  0  0  0  0  0  0  0  0
  150.2569  140.9748  156.6423 C   0  0  0  0  0  0  0  0  0  0  0  0
  149.3679  141.7707  156.9465 O   0  0  0  0  0  0  0  0  0  0  0  0
  150.1312  140.0681  155.6617 N   0  0  0  0  0  0  0  0  0  0  0  0
  148.9496  139.9011  154.8201 C   0  0  2  0  0  0  0  0  0  0  0  0
  148.6252  141.2206  154.0982 C   0  0  0  0  0  0  0  0  0  0  0  0
  147.3083  141.0999  153.3085 C   0  0  0  0  0  0  0  0  0  0  0  0
  146.1674  140.7282  154.1938 N   0  3  2  0  0  0  0  0  0  0  0  0
  145.6971  141.8020  155.1334 C   0  0  0  0  0  0  0  0  0  0  0  0
  144.4116  141.3831  155.8860 C   0  0  0  0  0  0  0  0  0  0  0  0
  143.8598  142.5157  156.7686 C   0  0  0  0  0  0  0  0  0  0  0  0
  143.5664  143.6897  155.9520 N   0  0  0  0  0  0  0  0  0  0  0  0
  142.9780  144.7254  156.7894 C   0  0  0  0  0  0  0  0  0  0  0  0
  144.8032  144.1923  155.3615 C   0  0  0  0  0  0  0  0  0  0  0  0
  145.4016  143.1400  154.4130 C   0  0  0  0  0  0  0  0  0  0  0  0
  146.4507  139.4111  154.8341 C   0  0  0  0  0  0  0  0  0  0  0  0
  147.7480  139.4384  155.6670 C   0  0  0  0  0  0  0  0  0  0  0  0
  151.6721  142.9632  158.5292 N   0  0  0  0  0  0  0  0  0  0  0  0
  152.0846  145.4241  160.7562 H   0  0  0  0  0  0  0  0  0  0  0  0
  150.7314  145.1880  159.6473 H   0  0  0  0  0  0  0  0  0  0  0  0
  152.3196  145.6455  159.0183 H   0  0  0  0  0  0  0  0  0  0  0  0
  153.3696  143.4668  161.4290 H   0  0  0  0  0  0  0  0  0  0  0  0
  153.9017  141.0432  161.0728 H   0  0  0  0  0  0  0  0  0  0  0  0
  152.9767  139.8826  159.0690 H   0  0  0  0  0  0  0  0  0  0  0  0
  152.1170  140.2361  156.8319 H   0  0  0  0  0  0  0  0  0  0  0  0
  150.9125  139.4552  155.4791 H   0  0  0  0  0  0  0  0  0  0  0  0
  149.1465  139.1470  154.0553 H   0  0  0  0  0  0  0  0  0  0  0  0
  148.5574  142.0399  154.8147 H   0  0  0  0  0  0  0  0  0  0  0  0
  149.4374  141.4775  153.4172 H   0  0  0  0  0  0  0  0  0  0  0  0
  147.1081  142.0023  152.7345 H   0  0  0  0  0  0  0  0  0  0  0  0
  147.4201  140.3190  152.5549 H   0  0  0  0  0  0  0  0  0  0  0  0
  146.4764  141.9925  155.8714 H   0  0  0  0  0  0  0  0  0  0  0  0
  143.6466  141.0724  155.1725 H   0  0  0  0  0  0  0  0  0  0  0  0
  144.5964  140.5298  156.5361 H   0  0  0  0  0  0  0  0  0  0  0  0
  142.9468  142.1782  157.2610 H   0  0  0  0  0  0  0  0  0  0  0  0
  144.5730  142.7679  157.5553 H   0  0  0  0  0  0  0  0  0  0  0  0
  142.7393  145.6077  156.1945 H   0  0  0  0  0  0  0  0  0  0  0  0
  143.6560  145.0259  157.5898 H   0  0  0  0  0  0  0  0  0  0  0  0
  142.0510  144.3712  157.2416 H   0  0  0  0  0  0  0  0  0  0  0  0
  144.5947  145.1059  154.8032 H   0  0  0  0  0  0  0  0  0  0  0  0
  145.5196  144.4516  156.1431 H   0  0  0  0  0  0  0  0  0  0  0  0
  146.3135  143.5677  153.9980 H   0  0  0  0  0  0  0  0  0  0  0  0
  144.7203  142.9738  153.5772 H   0  0  0  0  0  0  0  0  0  0  0  0
  145.6157  139.0580  155.4354 H   0  0  0  0  0  0  0  0  0  0  0  0
  146.5566  138.6670  154.0433 H   0  0  0  0  0  0  0  0  0  0  0  0
  147.9425  138.4433  156.0691 H   0  0  0  0  0  0  0  0  0  0  0  0
  147.6225  140.0914  156.5312 H   0  0  0  0  0  0  0  0  0  0  0  0
  145.3867  140.5698  153.5724 H   0  0  0  0  0  0  0  0  0  0  0  0
  1  2  1  0  0  0  0
  1 25  1  0  0  0  0
  1 26  1  0  0  0  0
  1 27  1  0  0  0  0
  2 24  1  0  0  0  0
  2  3  2  0  0  0  0
  3  4  1  0  0  0  0
  3 28  1  0  0  0  0
  4  5  2  0  0  0  0
  4 29  1  0  0  0  0
  5  6  1  0  0  0  0
  5 30  1  0  0  0  0
  6  7  1  0  0  0  0
  6 24  2  0  0  0  0
  7  8  1  0  0  0  0
  7 31  1  0  0  0  0
  8  9  2  0  0  0  0
  8 10  1  0  0  0  0
 10 11  1  0  0  0  0
 10 32  1  0  0  0  0
 11 23  1  0  0  0  0
 11 12  1  0  0  0  0
 11 33  1  0  0  0  0
 12 13  1  0  0  0  0
 12 34  1  0  0  0  0
 12 35  1  0  0  0  0
 13 14  1  0  0  0  0
 13 36  1  0  0  0  0
 13 37  1  0  0  0  0
 14 15  1  0  0  0  0
 14 22  1  0  0  0  0
 14 54  1  0  0  0  0
 15 21  1  0  0  0  0
 15 16  1  0  0  0  0
 15 38  1  0  0  0  0
 16 17  1  0  0  0  0
 16 39  1  0  0  0  0
 16 40  1  0  0  0  0
 17 18  1  0  0  0  0
 17 41  1  0  0  0  0
 17 42  1  0  0  0  0
 18 19  1  0  0  0  0
 18 20  1  0  0  0  0
 19 43  1  0  0  0  0
 19 44  1  0  0  0  0
 19 45  1  0  0  0  0
 20 21  1  0  0  0  0
 20 46  1  0  0  0  0
 20 47  1  0  0  0  0
 21 48  1  0  0  0  0
 21 49  1  0  0  0  0
 22 23  1  0  0  0  0
 22 50  1  0  0  0  0
 22 51  1  0  0  0  0
 23 52  1  0  0  0  0
 23 53  1  0  0  0  0
M  CHG  1  14   1
M  END
> <s_m_source_file>
AV-unprocessed.smi

> <i_m_source_file_index>
2237

> <i_lp_mmshare_version>
43012

> <i_f3d_flags>
0

> <s_epik_input>
W0NIM11jMVtjSF1bY0hdW2NIXWMobjEpW05IXUMoPU8pW05IXVtDSF0yW0NIMl1bQ0gyXU4oW0NIMl1bQ0gyXTIpW0NIXTNbQ0gyXVtDSDJdTihbQ0gzXSlbQ0gyXVtDSDJdMw==

> <s_epik_cmdline>
J2VwaWtfcHl0aG9uJywgJy1waCcsICc3LjAnLCAnLXRuJywgJzgnLCAnLW1hJywgJzIwMCcsICctbWV0YWxfYmluZGluZycsICctaW1hZScsICc8aW5maWxlLm1hZT4nLCAnLW9tYWUnLCAnPG91dGZpbGUubWFlPic=

> <r_epik_Ionization_Penalty>
1.37251

> <r_epik_Ionization_Penalty_Charging>
0.00081195

> <r_epik_Ionization_Penalty_Neutral>
1.3717

> <r_epik_State_Penalty>
1.55149

> <r_epik_Charging_Adjusted_Penalty>
1.5523

> <i_epik_Tot_Q>
1

> <i_epik_Tot_abs_Q>
1

> <r_epik_Metal_State_Penalty>
1.55149

> <b_epik_Metal_Only>
0

> <s_lp_Force_Field>
OPLS_2005

> <r_lp_Energy>
34.5276

> <b_lp_Chiralities_Consistent>
1

> <s_lp_Variant>
AV-unprocessed.smi:2237-8

> <Gold.Version>
5.8.1

> <Gold.Id.Protein>
6NUR|6NUR_protein|mol2

> <Gold.PLP.Fitness>
44.8296

> <Gold.PLP.PLP>
-39.4592

> <Gold.PLP.part.hbond>
-1.0000

> <Gold.PLP.part.metal>
0.0000

> <Gold.PLP.part.buried>
-7.1368

> <Gold.PLP.part.nonpolar>
-32.3329

> <Gold.PLP.part.repulsive>
0.3817

> <Gold.PLP.ligand.clash>
0.0000

> <Gold.PLP.ligand.torsion>
0.3373

> <Gold.PLP.Chemscore.Hbond>
2.0000

> <Gold.PLP.Chemscore.CHOScore>
0.0000

> <Gold.PLP.Chemscore.Metal>
0.0000

> <Gold.Chemscore.Hbonds>
donor molecule, donor type, donor heavy atom, donor atom, acceptor molecule, acceptor atom, score
      L1  H    14    54       P1 10175  2.00

> <Gold.PLP.Chemscore.Internal.Correction>
0.0450

> <Gold.Rescore>
     Score         DG    S(hbond)    S(metal)    S(lipo)     H(rot)  DE(clash)    DE(int)     intcor
     15.36     -17.72       0.96        0.00     103.64       1.21       0.07       2.29       ----

> <Gold.Chemscore.Fitness>
15.3610

> <Gold.Chemscore.DG>
-17.7204

> <Gold.Chemscore.ZeroCoef>
-5.4800

> <Gold.Chemscore.Hbond>
0.9628

> <Gold.Chemscore.Metal>
0.0000

> <Gold.Chemscore.Lipo>
103.6375

> <Gold.Chemscore.Internal_Hbond>
0.0000

> <Gold.Chemscore.DEClash>
0.0716

> <Gold.Chemscore.DEInternal>
2.2878

> <Gold.Chemscore.Rot>
1.2113

> <Gold.Chemscore.Internal.Correction>
   9.000000E+99

> <Gold.Chemscore.Hbonds>
donor molecule, donor type, donor heavy atom, donor atom, acceptor molecule, acceptor atom, score
      L1  H    14    54       P1 10175  0.91

> <Gold.Chemscore.Hbond.Weighted>
-3.2157

> <Gold.Chemscore.Metal.Weighted>
-0.0000

> <Gold.Chemscore.Lipo.Weighted>
-12.1256

> <Gold.Chemscore.Internal_Hbond.Weighted>
0.0000

> <Gold.Chemscore.DEClash.Weighted>
0.0716

> <Gold.Chemscore.DEInternal.Weighted>
2.2878

> <Gold.Chemscore.Rot.Weighted>
3.1009

> <Gold.Chemscore.Internal.Correction.Weighted>
   9.000000E+99

> <Gold.Protein.RotatedTorsions>
[ 6907 6896 6895 6894 ] final   11.01 input  -60.11 | X-H torsion
[ 7974 7965 7964 7962 ] final -155.42 input  175.53 | X-H torsion
[ 8008 7997 7996 7995 ] final -101.58 input   59.86 | X-H torsion
[ 10167 10162 10161 10158 ] final   -0.35 input  -65.29 | X-H torsion
[ 10718 10713 10712 10709 ] final -136.21 input   66.30 | X-H torsion
[ 10763 10752 10751 10750 ] final -159.11 input  -60.55 | X-H torsion
[ 11005 11000 10999 10996 ] final -129.26 input  -57.11 | X-H torsion

> <Gold.Protein.ActiveResidues>
 VAL166  LYS551  ARG553  GLY616  TRP617  ASP618  TYR619  PRO620  LYS621  CYS622 
 ASP623  PHE694  ASN695  SER759  ASP760  ASP761  ALA762  ILE779  LEU786  VAL792 
 PHE793  MET794  SER795  GLU796  ALA797  LYS798  CYS799  TRP800  GLU811  SER814 

> <Gold.Protein.RotatedAtoms>
  151.7475  135.0840  160.0325 H   0  0  0  0  0  0  0  0  0  0  0  0  # atno 6907 bound_to 6896
  152.3439  133.6094  159.5904 H   0  0  0  0  0  0  0  0  0  0  0  0  # atno 6908 bound_to 6896
  150.7496  133.9596  159.3553 H   0  0  0  0  0  0  0  0  0  0  0  0  # atno 6909 bound_to 6896
  144.7641  140.4251  143.5955 H   0  0  0  0  0  0  0  0  0  0  0  0  # atno 7974 bound_to 7965
  154.8446  140.0433  157.1564 H   0  0  0  0  0  0  0  0  0  0  0  0  # atno 8008 bound_to 7997
  154.9009  140.3000  155.5298 H   0  0  0  0  0  0  0  0  0  0  0  0  # atno 8009 bound_to 7997
  156.2994  140.2376  156.4037 H   0  0  0  0  0  0  0  0  0  0  0  0  # atno 8010 bound_to 7997
  140.6764  143.6905  150.8032 H   0  0  0  0  0  0  0  0  0  0  0  0  # atno 10167 bound_to 10162
  156.2745  130.7285  151.1263 H   0  0  0  0  0  0  0  0  0  0  0  0  # atno 10718 bound_to 10713
  154.7502  135.3090  154.8572 H   0  0  0  0  0  0  0  0  0  0  0  0  # atno 10763 bound_to 10752
  153.9361  135.6780  153.4749 H   0  0  0  0  0  0  0  0  0  0  0  0  # atno 10764 bound_to 10752
  153.1098  135.4872  154.8942 H   0  0  0  0  0  0  0  0  0  0  0  0  # atno 10765 bound_to 10752
  140.9446  134.1147  157.4119 H   0  0  0  0  0  0  0  0  0  0  0  0  # atno 11005 bound_to 11000
  145.6526  139.1567  143.2853 LP  0  0  0  0  0  0  0  0  0  0  0  0  # atno 17320 bound_to 7965
  146.1732  140.6613  142.9223 LP  0  0  0  0  0  0  0  0  0  0  0  0  # atno 17321 bound_to 7965
  140.0598  143.5166  152.2633 LP  0  0  0  0  0  0  0  0  0  0  0  0  # atno 17342 bound_to 10162
  139.6058  144.7596  151.3065 LP  0  0  0  0  0  0  0  0  0  0  0  0  # atno 17343 bound_to 10162
  157.7295  131.0624  150.5772 LP  0  0  0  0  0  0  0  0  0  0  0  0  # atno 17370 bound_to 10713
  156.5872  130.4319  149.5952 LP  0  0  0  0  0  0  0  0  0  0  0  0  # atno 17371 bound_to 10713
  139.8830  135.0047  156.6268 LP  0  0  0  0  0  0  0  0  0  0  0  0  # atno 17394 bound_to 11000
  140.7686  133.8757  155.8474 LP  0  0  0  0  0  0  0  0  0  0  0  0  # atno 17395 bound_to 11000

$$$$
