AV-unprocessed.smi:1809|AV-procd|sdf|7325|dock5
  -GOLD-   22720 8583D 1   1.00000     0.00000
 Structure written by MMmdl.
 39 41  0  0  0  0  0  0  0  0  3 V2000
  147.2761  135.4313  162.7587 C   0  0  0  0  0  0  0  0  0  0  0  0
  147.6240  135.8222  161.3637 C   0  0  0  0  0  0  0  0  0  0  0  0
  147.9832  137.0641  161.0297 N   0  0  0  0  0  0  0  0  0  0  0  0
  148.2569  137.1824  159.6748 N   0  0  0  0  0  0  0  0  0  0  0  0
  148.0887  136.0348  159.0023 C   0  0  0  0  0  0  0  0  0  0  0  0
  148.3027  135.9364  157.6798 N   0  5  0  0  0  0  0  0  0  0  0  0
  148.1887  134.7377  157.0649 C   0  0  0  0  0  0  0  0  0  0  0  0
  148.9759  133.7923  157.1491 O   0  0  0  0  0  0  0  0  0  0  0  0
  147.0936  134.6261  156.3033 N   0  0  0  0  0  0  0  0  0  0  0  0
  146.7259  133.4453  155.5341 C   0  0  0  0  0  0  0  0  0  0  0  0
  146.9516  133.6846  154.0353 C   0  0  2  0  0  0  0  0  0  0  0  0
  146.2317  134.9506  153.5436 C   0  0  0  0  0  0  0  0  0  0  0  0
  146.4128  135.1468  152.0830 N   0  3  2  0  0  0  0  0  0  0  0  0
  145.5003  136.1754  151.5383 C   0  0  0  0  0  0  0  0  0  0  0  0
  144.2801  135.4257  150.9733 C   0  0  0  0  0  0  0  0  0  0  0  0
  144.6251  133.9347  151.0742 C   0  0  0  0  0  0  0  0  0  0  0  0
  146.1385  133.9249  151.2959 C   0  0  2  0  0  0  0  0  0  0  0  0
  146.7205  132.6468  151.9338 C   0  0  0  0  0  0  0  0  0  0  0  0
  146.4134  132.5804  153.3184 O   0  0  0  0  0  0  0  0  0  0  0  0
  147.5903  134.6872  160.0248 S   0  0  0  0  0  0  0  0  0  0  0  0
  146.2552  135.7376  162.9873 H   0  0  0  0  0  0  0  0  0  0  0  0
  147.9543  135.9102  163.4655 H   0  0  0  0  0  0  0  0  0  0  0  0
  147.3529  134.3506  162.8795 H   0  0  0  0  0  0  0  0  0  0  0  0
  146.4744  135.4217  156.2559 H   0  0  0  0  0  0  0  0  0  0  0  0
  147.3073  132.5862  155.8732 H   0  0  0  0  0  0  0  0  0  0  0  0
  145.6750  133.2192  155.7210 H   0  0  0  0  0  0  0  0  0  0  0  0
  148.0236  133.7709  153.8461 H   0  0  0  0  0  0  0  0  0  0  0  0
  145.1684  134.8749  153.7781 H   0  0  0  0  0  0  0  0  0  0  0  0
  146.6084  135.8291  154.0687 H   0  0  0  0  0  0  0  0  0  0  0  0
  145.2249  136.9276  152.2790 H   0  0  0  0  0  0  0  0  0  0  0  0
  146.0165  136.6932  150.7289 H   0  0  0  0  0  0  0  0  0  0  0  0
  143.3750  135.6518  151.5381 H   0  0  0  0  0  0  0  0  0  0  0  0
  144.1024  135.7176  149.9378 H   0  0  0  0  0  0  0  0  0  0  0  0
  144.1147  133.4947  151.9322 H   0  0  0  0  0  0  0  0  0  0  0  0
  144.3277  133.3733  150.1879 H   0  0  0  0  0  0  0  0  0  0  0  0
  146.6100  134.0608  150.3210 H   0  0  0  0  0  0  0  0  0  0  0  0
  146.3256  131.7612  151.4358 H   0  0  0  0  0  0  0  0  0  0  0  0
  147.8036  132.6184  151.8041 H   0  0  0  0  0  0  0  0  0  0  0  0
  147.3715  135.4268  151.9309 H   0  0  0  0  0  0  0  0  0  0  0  0
  1  2  1  0  0  0  0
  1 21  1  0  0  0  0
  1 22  1  0  0  0  0
  1 23  1  0  0  0  0
  2 20  1  0  0  0  0
  2  3  2  0  0  0  0
  3  4  1  0  0  0  0
  4  5  2  0  0  0  0
  5  6  1  0  0  0  0
  5 20  1  0  0  0  0
  6  7  1  0  0  0  0
  7  8  2  0  0  0  0
  7  9  1  0  0  0  0
  9 10  1  0  0  0  0
  9 24  1  0  0  0  0
 10 11  1  0  0  0  0
 10 25  1  0  0  0  0
 10 26  1  0  0  0  0
 11 19  1  0  0  0  0
 11 12  1  0  0  0  0
 11 27  1  0  0  0  0
 12 13  1  0  0  0  0
 12 28  1  0  0  0  0
 12 29  1  0  0  0  0
 13 17  1  0  0  0  0
 13 14  1  0  0  0  0
 13 39  1  0  0  0  0
 14 15  1  0  0  0  0
 14 30  1  0  0  0  0
 14 31  1  0  0  0  0
 15 16  1  0  0  0  0
 15 32  1  0  0  0  0
 15 33  1  0  0  0  0
 16 17  1  0  0  0  0
 16 34  1  0  0  0  0
 16 35  1  0  0  0  0
 17 18  1  0  0  0  0
 17 36  1  0  0  0  0
 18 19  1  0  0  0  0
 18 37  1  0  0  0  0
 18 38  1  0  0  0  0
M  CHG  1   6  -1
M  CHG  1  13   1
M  END
> <s_m_source_file>
AV-unprocessed.smi

> <i_m_source_file_index>
1809

> <i_lp_mmshare_version>
43012

> <i_f3d_flags>
0

> <s_epik_input>
W0NIM11jMW5uYyhzMSlbTkhdQyg9TylbTkhdW0NIMl1bQ0BIXShbQ0gyXTIpT1tDSDJdW0NAQEhdKE4yMylbQ0gyXVtDSDJdW0NIMl0z

> <s_epik_cmdline>
J2VwaWtfcHl0aG9uJywgJy1waCcsICc3LjAnLCAnLXRuJywgJzgnLCAnLW1hJywgJzIwMCcsICctbWV0YWxfYmluZGluZycsICctaW1hZScsICc8aW5maWxlLm1hZT4nLCAnLW9tYWUnLCAnPG91dGZpbGUubWFlPic=

> <r_lp_tautomer_probability>
1

> <r_epik_Ionization_Penalty>
3.2601

> <r_epik_Ionization_Penalty_Charging>
3.1406

> <r_epik_Ionization_Penalty_Neutral>
0.119497

> <r_epik_State_Penalty>
3.08894

> <r_epik_Charging_Adjusted_Penalty>
6.22954

> <i_epik_Tot_Q>
0

> <i_epik_Tot_abs_Q>
2

> <r_epik_Metal_State_Penalty>
0.510807

> <b_epik_Metal_Only>
1

> <s_lp_Force_Field>
OPLS_2005

> <r_lp_Energy>
31.3106

> <b_lp_Chiralities_Consistent>
1

> <s_lp_Variant>
AV-unprocessed.smi:1809-17

> <Gold.Version>
5.8.1

> <Gold.Id.Protein>
6NUR|6NUR_protein|mol2

> <Gold.PLP.Fitness>
36.8294

> <Gold.PLP.PLP>
-28.6818

> <Gold.PLP.part.hbond>
-4.3931

> <Gold.PLP.part.metal>
0.0000

> <Gold.PLP.part.buried>
-4.2303

> <Gold.PLP.part.nonpolar>
-20.9106

> <Gold.PLP.part.repulsive>
0.1387

> <Gold.PLP.ligand.clash>
0.0000

> <Gold.PLP.ligand.torsion>
0.7880

> <Gold.PLP.Chemscore.Hbond>
3.2362

> <Gold.PLP.Chemscore.CHOScore>
0.0000

> <Gold.PLP.Chemscore.Metal>
0.0000

> <Gold.Chemscore.Hbonds>
donor molecule, donor type, donor heavy atom, donor atom, acceptor molecule, acceptor atom, score
      L1  H    13    39       P1  7948  2.00
      P1  H  6931  6943       L1     3  1.00
      P1  H  6934  6947       L1     3  0.21

> <Gold.PLP.Chemscore.Internal.Correction>
0.0149

> <Gold.Rescore>
     Score         DG    S(hbond)    S(metal)    S(lipo)     H(rot)  DE(clash)    DE(int)     intcor
     14.55     -15.33       1.90        0.00      58.92       1.32       0.01       0.77       ----

> <Gold.Chemscore.Fitness>
14.5505

> <Gold.Chemscore.DG>
-15.3340

> <Gold.Chemscore.ZeroCoef>
-5.4800

> <Gold.Chemscore.Hbond>
1.9017

> <Gold.Chemscore.Metal>
0.0000

> <Gold.Chemscore.Lipo>
58.9162

> <Gold.Chemscore.Internal_Hbond>
0.0000

> <Gold.Chemscore.DEClash>
0.0149

> <Gold.Chemscore.DEInternal>
0.7686

> <Gold.Chemscore.Rot>
1.3246

> <Gold.Chemscore.Internal.Correction>
   9.000000E+99

> <Gold.Chemscore.Hbonds>
donor molecule, donor type, donor heavy atom, donor atom, acceptor molecule, acceptor atom, score
      L1  H    13    39       P1  7948  1.00
      P1  H  6931  6943       L1     3  0.58

> <Gold.Chemscore.Hbond.Weighted>
-6.3517

> <Gold.Chemscore.Metal.Weighted>
-0.0000

> <Gold.Chemscore.Lipo.Weighted>
-6.8932

> <Gold.Chemscore.Internal_Hbond.Weighted>
0.0000

> <Gold.Chemscore.DEClash.Weighted>
0.0149

> <Gold.Chemscore.DEInternal.Weighted>
0.7686

> <Gold.Chemscore.Rot.Weighted>
3.3910

> <Gold.Chemscore.Internal.Correction.Weighted>
   9.000000E+99

> <Gold.Protein.RotatedTorsions>
[ 6907 6896 6895 6894 ] final  170.62 input  -60.11 | X-H torsion
[ 7974 7965 7964 7962 ] final  -54.45 input  175.53 | X-H torsion
[ 8008 7997 7996 7995 ] final -154.41 input   59.86 | X-H torsion
[ 10167 10162 10161 10158 ] final   13.64 input  -65.29 | X-H torsion
[ 10718 10713 10712 10709 ] final  -40.17 input   66.30 | X-H torsion
[ 10763 10752 10751 10750 ] final   40.57 input  -60.55 | X-H torsion
[ 11005 11000 10999 10996 ] final    0.95 input  -57.11 | X-H torsion

> <Gold.Protein.ActiveResidues>
 VAL166  LYS551  ARG553  GLY616  TRP617  ASP618  TYR619  PRO620  LYS621  CYS622 
 ASP623  PHE694  ASN695  SER759  ASP760  ASP761  ALA762  ILE779  LEU786  VAL792 
 PHE793  MET794  SER795  GLU796  ALA797  LYS798  CYS799  TRP800  GLU811  SER814 

> <Gold.Protein.RotatedAtoms>
  151.8132  133.3384  159.3561 H   0  0  0  0  0  0  0  0  0  0  0  0  # atno 6907 bound_to 6896
  150.7319  134.5644  159.5868 H   0  0  0  0  0  0  0  0  0  0  0  0  # atno 6908 bound_to 6896
  152.3059  134.7556  160.0398 H   0  0  0  0  0  0  0  0  0  0  0  0  # atno 6909 bound_to 6896
  145.8854  140.8112  142.9818 H   0  0  0  0  0  0  0  0  0  0  0  0  # atno 7974 bound_to 7965
  155.6860  140.0750  157.2466 H   0  0  0  0  0  0  0  0  0  0  0  0  # atno 8008 bound_to 7997
  154.4097  140.1673  156.2086 H   0  0  0  0  0  0  0  0  0  0  0  0  # atno 8009 bound_to 7997
  155.9493  140.3378  155.6397 H   0  0  0  0  0  0  0  0  0  0  0  0  # atno 8010 bound_to 7997
  140.5989  143.8645  150.6945 H   0  0  0  0  0  0  0  0  0  0  0  0  # atno 10167 bound_to 10162
  156.2842  130.4220  149.8305 H   0  0  0  0  0  0  0  0  0  0  0  0  # atno 10718 bound_to 10713
  152.9932  135.6187  154.2647 H   0  0  0  0  0  0  0  0  0  0  0  0  # atno 10763 bound_to 10752
  154.2382  135.2789  155.2866 H   0  0  0  0  0  0  0  0  0  0  0  0  # atno 10764 bound_to 10752
  154.5392  135.5766  153.6882 H   0  0  0  0  0  0  0  0  0  0  0  0  # atno 10765 bound_to 10752
  140.6209  133.9662  155.8224 H   0  0  0  0  0  0  0  0  0  0  0  0  # atno 11005 bound_to 11000
  144.6728  140.1448  143.7434 LP  0  0  0  0  0  0  0  0  0  0  0  0  # atno 17320 bound_to 7965
  145.8973  139.2410  143.1514 LP  0  0  0  0  0  0  0  0  0  0  0  0  # atno 17321 bound_to 7965
  140.2186  143.3827  152.1661 LP  0  0  0  0  0  0  0  0  0  0  0  0  # atno 17342 bound_to 10162
  139.5277  144.7122  151.5168 LP  0  0  0  0  0  0  0  0  0  0  0  0  # atno 17343 bound_to 10162
  156.5741  130.8437  151.3365 LP  0  0  0  0  0  0  0  0  0  0  0  0  # atno 17370 bound_to 10713
  157.7324  130.9714  150.1925 LP  0  0  0  0  0  0  0  0  0  0  0  0  # atno 17371 bound_to 10713
  141.0743  134.0159  157.3481 LP  0  0  0  0  0  0  0  0  0  0  0  0  # atno 17394 bound_to 11000
  139.9154  135.0196  156.7859 LP  0  0  0  0  0  0  0  0  0  0  0  0  # atno 17395 bound_to 11000

$$$$
