AV-unprocessed.smi:1760|AV-procd|sdf|7094|dock3
  -GOLD-   22720 8313D 1   1.00000     0.00000
 Structure written by MMmdl.
 42 44  0  0  0  0  0  0  0  0  2 V2000
  149.9377  134.1922  155.7957 O   0  0  0  0  0  0  0  0  0  0  0  0
  149.6017  134.7724  154.7638 C   0  0  0  0  0  0  0  0  0  0  0  0
  148.8532  134.2543  153.7727 N   0  0  0  0  0  0  0  0  0  0  0  0
  148.2726  132.9790  153.6582 C   0  0  0  0  0  0  0  0  0  0  0  0
  148.9232  131.8014  153.8715 C   0  0  0  0  0  0  0  0  0  0  0  0
  148.2617  130.5092  153.7394 C   0  0  0  0  0  0  0  0  0  0  0  0
  148.9781  129.1766  153.8675 C   0  0  0  0  0  0  0  0  0  0  0  0
  148.8902  128.4756  152.7368 F   0  0  0  0  0  0  0  0  0  0  0  0
  150.2681  129.3517  154.1541 F   0  0  0  0  0  0  0  0  0  0  0  0
  148.4282  128.4575  154.8450 F   0  0  0  0  0  0  0  0  0  0  0  0
  146.9352  130.6340  153.3752 C   0  0  0  0  0  0  0  0  0  0  0  0
  146.2100  131.7560  153.1745 N   0  5  0  0  0  0  0  0  0  0  0  0
  146.8388  132.9587  153.2994 C   0  0  0  0  0  0  0  0  0  0  0  0
  146.2390  134.0195  153.1212 O   0  0  0  0  0  0  0  0  0  0  0  0
  149.9656  136.0299  154.4732 N   0  0  0  0  0  0  0  0  0  0  0  0
  150.8051  136.8930  155.3004 C   0  0  0  0  0  0  0  0  0  0  0  0
  150.0534  137.2990  156.5777 C   0  0  0  0  0  0  0  0  0  0  0  0
  150.8574  138.3338  157.3845 C   0  0  0  0  0  0  0  0  0  0  0  0
  151.1207  139.5185  156.5673 N   0  0  0  0  0  0  0  0  0  0  0  0
  151.8415  140.4926  157.3706 C   0  0  0  0  0  0  0  0  0  0  0  0
  151.3269  140.7666  158.7654 C   0  0  0  0  0  0  0  0  0  0  0  0
  151.1440  141.7980  157.6784 C   0  0  0  0  0  0  0  0  0  0  0  0
  151.9448  139.1548  155.4144 C   0  0  0  0  0  0  0  0  0  0  0  0
  151.1930  138.1564  154.5164 C   0  0  0  0  0  0  0  0  0  0  0  0
  148.7096  134.8444  152.9661 H   0  0  0  0  0  0  0  0  0  0  0  0
  149.9597  131.7844  154.1635 H   0  0  0  0  0  0  0  0  0  0  0  0
  146.3735  129.6890  153.2148 H   0  0  0  0  0  0  0  0  0  0  0  0
  149.6439  136.4199  153.5994 H   0  0  0  0  0  0  0  0  0  0  0  0
  151.7222  136.3773  155.5909 H   0  0  0  0  0  0  0  0  0  0  0  0
  149.0789  137.7186  156.3222 H   0  0  0  0  0  0  0  0  0  0  0  0
  149.8606  136.4196  157.1931 H   0  0  0  0  0  0  0  0  0  0  0  0
  150.2916  138.6218  158.2713 H   0  0  0  0  0  0  0  0  0  0  0  0
  151.7960  137.8981  157.7310 H   0  0  0  0  0  0  0  0  0  0  0  0
  152.9220  140.5611  157.2556 H   0  0  0  0  0  0  0  0  0  0  0  0
  150.4422  140.2270  159.0983 H   0  0  0  0  0  0  0  0  0  0  0  0
  152.0633  140.9751  159.5386 H   0  0  0  0  0  0  0  0  0  0  0  0
  151.7581  142.6948  157.7279 H   0  0  0  0  0  0  0  0  0  0  0  0
  150.1373  141.9436  157.2907 H   0  0  0  0  0  0  0  0  0  0  0  0
  152.1836  140.0510  154.8404 H   0  0  0  0  0  0  0  0  0  0  0  0
  152.8917  138.7261  155.7471 H   0  0  0  0  0  0  0  0  0  0  0  0
  151.8147  137.8882  153.6616 H   0  0  0  0  0  0  0  0  0  0  0  0
  150.3001  138.6359  154.1120 H   0  0  0  0  0  0  0  0  0  0  0  0
  1  2  2  0  0  0  0
  2  3  1  0  0  0  0
  2 15  1  0  0  0  0
  3  4  1  0  0  0  0
  3 25  1  0  0  0  0
  4 13  1  0  0  0  0
  4  5  2  0  0  0  0
  5  6  1  0  0  0  0
  5 26  1  0  0  0  0
  6  7  1  0  0  0  0
  6 11  2  0  0  0  0
  7  8  1  0  0  0  0
  7  9  1  0  0  0  0
  7 10  1  0  0  0  0
 11 12  1  0  0  0  0
 11 27  1  0  0  0  0
 12 13  1  0  0  0  0
 13 14  2  0  0  0  0
 15 16  1  0  0  0  0
 15 28  1  0  0  0  0
 16 24  1  0  0  0  0
 16 17  1  0  0  0  0
 16 29  1  0  0  0  0
 17 18  1  0  0  0  0
 17 30  1  0  0  0  0
 17 31  1  0  0  0  0
 18 19  1  0  0  0  0
 18 32  1  0  0  0  0
 18 33  1  0  0  0  0
 19 20  1  0  0  0  0
 19 23  1  0  0  0  0
 20 22  1  0  0  0  0
 20 21  1  0  0  0  0
 20 34  1  0  0  0  0
 21 22  1  0  0  0  0
 21 35  1  0  0  0  0
 21 36  1  0  0  0  0
 22 37  1  0  0  0  0
 22 38  1  0  0  0  0
 23 24  1  0  0  0  0
 23 39  1  0  0  0  0
 23 40  1  0  0  0  0
 24 41  1  0  0  0  0
 24 42  1  0  0  0  0
M  CHG  1  12  -1
M  END
> <s_m_source_file>
AV-unprocessed.smi

> <i_m_source_file_index>
1760

> <i_lp_mmshare_version>
43012

> <i_f3d_flags>
0

> <s_epik_input>
W0NIMl0xW0NIMl1bQ0hdMU4oW0NIMl1bQ0gyXTIpW0NIMl1bQ0gyXVtDSF0yW05IXUMoPU8pW05IXWMzW2NIXWMoQyhGKShGKUYpW2NIXVtuSF1jMz1P

> <s_epik_cmdline>
J2VwaWtfcHl0aG9uJywgJy1waCcsICc3LjAnLCAnLXRuJywgJzgnLCAnLW1hJywgJzIwMCcsICctbWV0YWxfYmluZGluZycsICctaW1hZScsICc8aW5maWxlLm1hZT4nLCAnLW9tYWUnLCAnPG91dGZpbGUubWFlPic=

> <r_lp_tautomer_probability>
0.999

> <r_epik_Ionization_Penalty>
4.20788

> <r_epik_Ionization_Penalty_Charging>
0.176783

> <r_epik_Ionization_Penalty_Neutral>
4.0311

> <r_epik_State_Penalty>
4.02505

> <r_epik_Charging_Adjusted_Penalty>
4.20183

> <i_epik_Tot_Q>
-1

> <i_epik_Tot_abs_Q>
1

> <r_epik_Metal_State_Penalty>
1.4828

> <b_epik_Metal_Only>
1

> <s_lp_Force_Field>
OPLS_2005

> <r_lp_Energy>
35.3535

> <b_lp_Chiralities_Consistent>
1

> <s_lp_Variant>
AV-unprocessed.smi:1760-6

> <Gold.Version>
5.8.1

> <Gold.Id.Protein>
6NUR|6NUR_protein|mol2

> <Gold.PLP.Fitness>
39.8964

> <Gold.PLP.PLP>
-35.4230

> <Gold.PLP.part.hbond>
-2.6808

> <Gold.PLP.part.metal>
0.0000

> <Gold.PLP.part.buried>
-4.0871

> <Gold.PLP.part.nonpolar>
-28.5909

> <Gold.PLP.part.repulsive>
0.3417

> <Gold.PLP.ligand.clash>
0.0000

> <Gold.PLP.ligand.torsion>
1.3781

> <Gold.PLP.Chemscore.Hbond>
2.0000

> <Gold.PLP.Chemscore.CHOScore>
0.0000

> <Gold.PLP.Chemscore.Metal>
0.0000

> <Gold.Chemscore.Hbonds>
donor molecule, donor type, donor heavy atom, donor atom, acceptor molecule, acceptor atom, score
      L1  H     3    25       P1  7948  1.00
      L1  H    15    28       P1  7948  1.00

> <Gold.PLP.Chemscore.Internal.Correction>
1.2296

> <Gold.Rescore>
     Score         DG    S(hbond)    S(metal)    S(lipo)     H(rot)  DE(clash)    DE(int)     intcor
     14.24     -15.73       1.54        0.00      71.38       1.26       0.06       1.42       ----

> <Gold.Chemscore.Fitness>
14.2403

> <Gold.Chemscore.DG>
-15.7265

> <Gold.Chemscore.ZeroCoef>
-5.4800

> <Gold.Chemscore.Hbond>
1.5364

> <Gold.Chemscore.Metal>
0.0000

> <Gold.Chemscore.Lipo>
71.3818

> <Gold.Chemscore.Internal_Hbond>
0.0000

> <Gold.Chemscore.DEClash>
0.0633

> <Gold.Chemscore.DEInternal>
1.4230

> <Gold.Chemscore.Rot>
1.2644

> <Gold.Chemscore.Internal.Correction>
   9.000000E+99

> <Gold.Chemscore.Hbonds>
donor molecule, donor type, donor heavy atom, donor atom, acceptor molecule, acceptor atom, score
      L1  H     3    25       P1  7948  0.25
      L1  H    15    28       P1  7948  0.48

> <Gold.Chemscore.Hbond.Weighted>
-5.1316

> <Gold.Chemscore.Metal.Weighted>
-0.0000

> <Gold.Chemscore.Lipo.Weighted>
-8.3517

> <Gold.Chemscore.Internal_Hbond.Weighted>
0.0000

> <Gold.Chemscore.DEClash.Weighted>
0.0633

> <Gold.Chemscore.DEInternal.Weighted>
1.4230

> <Gold.Chemscore.Rot.Weighted>
3.2367

> <Gold.Chemscore.Internal.Correction.Weighted>
   9.000000E+99

> <Gold.Protein.RotatedTorsions>
[ 6907 6896 6895 6894 ] final  -59.36 input  -60.11 | X-H torsion
[ 7974 7965 7964 7962 ] final   24.46 input  175.53 | X-H torsion
[ 8008 7997 7996 7995 ] final    7.12 input   59.86 | X-H torsion
[ 10167 10162 10161 10158 ] final   -5.96 input  -65.29 | X-H torsion
[ 10718 10713 10712 10709 ] final   29.31 input   66.30 | X-H torsion
[ 10763 10752 10751 10750 ] final  -52.94 input  -60.55 | X-H torsion
[ 11005 11000 10999 10996 ] final  150.78 input  -57.11 | X-H torsion

> <Gold.Protein.ActiveResidues>
 VAL166  LYS551  ARG553  GLY616  TRP617  ASP618  TYR619  PRO620  LYS621  CYS622 
 ASP623  PHE694  ASN695  SER759  ASP760  ASP761  ALA762  ILE779  LEU786  VAL792 
 PHE793  MET794  SER795  GLU796  ALA797  LYS798  CYS799  TRP800  GLU811  SER814 

> <Gold.Protein.RotatedAtoms>
  150.7936  134.6979  159.6532 H   0  0  0  0  0  0  0  0  0  0  0  0  # atno 6907 bound_to 6896
  152.4045  134.6227  160.0064 H   0  0  0  0  0  0  0  0  0  0  0  0  # atno 6908 bound_to 6896
  151.6488  133.3285  159.3183 H   0  0  0  0  0  0  0  0  0  0  0  0  # atno 6909 bound_to 6896
  146.1936  139.7601  142.8814 H   0  0  0  0  0  0  0  0  0  0  0  0  # atno 7974 bound_to 7965
  154.7497  140.2764  155.6303 H   0  0  0  0  0  0  0  0  0  0  0  0  # atno 8008 bound_to 7997
  156.2893  140.2681  156.2174 H   0  0  0  0  0  0  0  0  0  0  0  0  # atno 8009 bound_to 7997
  155.0152  140.0372  157.2405 H   0  0  0  0  0  0  0  0  0  0  0  0  # atno 8010 bound_to 7997
  140.6981  143.6248  150.8578 H   0  0  0  0  0  0  0  0  0  0  0  0  # atno 10167 bound_to 10162
  157.2449  130.7087  149.6376 H   0  0  0  0  0  0  0  0  0  0  0  0  # atno 10718 bound_to 10713
  154.1508  135.6490  153.4963 H   0  0  0  0  0  0  0  0  0  0  0  0  # atno 10763 bound_to 10752
  153.0138  135.5337  154.6810 H   0  0  0  0  0  0  0  0  0  0  0  0  # atno 10764 bound_to 10752
  154.6097  135.2952  155.0417 H   0  0  0  0  0  0  0  0  0  0  0  0  # atno 10765 bound_to 10752
  140.1161  134.8893  157.2006 H   0  0  0  0  0  0  0  0  0  0  0  0  # atno 11005 bound_to 11000
  145.3715  141.0343  143.3228 LP  0  0  0  0  0  0  0  0  0  0  0  0  # atno 17320 bound_to 7965
  144.8535  139.5285  143.6845 LP  0  0  0  0  0  0  0  0  0  0  0  0  # atno 17321 bound_to 7965
  139.9968  143.5787  152.2890 LP  0  0  0  0  0  0  0  0  0  0  0  0  # atno 17342 bound_to 10162
  139.6462  144.7658  151.2239 LP  0  0  0  0  0  0  0  0  0  0  0  0  # atno 17343 bound_to 10162
  155.9668  130.4446  150.5468 LP  0  0  0  0  0  0  0  0  0  0  0  0  # atno 17370 bound_to 10713
  157.3340  131.0704  151.1839 LP  0  0  0  0  0  0  0  0  0  0  0  0  # atno 17371 bound_to 10713
  140.3027  134.3114  155.7286 LP  0  0  0  0  0  0  0  0  0  0  0  0  # atno 17394 bound_to 11000
  141.2141  133.7601  156.9663 LP  0  0  0  0  0  0  0  0  0  0  0  0  # atno 17395 bound_to 11000

$$$$
