AV-unprocessed.smi:906|AV-procd|sdf|4103|dock4
  -GOLD-   22720 1593D 1   1.00000     0.00000
 Structure written by MMmdl.
 48 49  0  0  0  0  0  0  0  0  2 V2000
  151.9998  145.1071  159.3554 C   0  0  0  0  0  0  0  0  0  0  0  0
  152.5924  143.9009  160.0526 C   0  0  0  0  0  0  0  0  0  0  0  0
  152.4095  143.6642  161.4319 C   0  0  0  0  0  0  0  0  0  0  0  0
  152.9878  142.5183  162.0167 C   0  0  0  0  0  0  0  0  0  0  0  0
  153.7361  141.6326  161.2110 C   0  0  0  0  0  0  0  0  0  0  0  0
  154.3671  140.3896  161.8066 C   0  0  0  0  0  0  0  0  0  0  0  0
  153.8554  139.1034  161.1373 C   0  0  0  0  0  0  0  0  0  0  0  0
  154.4795  137.9162  161.7093 N   0  0  0  0  0  0  0  0  0  0  0  0
  154.2060  136.6500  161.3506 C   0  0  0  0  0  0  0  0  0  0  0  0
  153.3883  136.3840  160.4684 O   0  0  0  0  0  0  0  0  0  0  0  0
  154.9241  135.7056  162.0077 N   0  0  0  0  0  0  0  0  0  0  0  0
  155.6663  135.8775  163.2648 C   0  0  0  0  0  0  0  0  0  0  0  0
  154.9258  135.1198  164.3835 C   0  0  0  0  0  0  0  0  0  0  0  0
  154.8123  133.6961  164.0430 N   0  0  0  0  0  0  0  0  0  0  0  0
  154.2605  132.9103  165.1600 C   0  0  1  0  0  0  0  0  0  0  0  0
  152.8033  133.2742  165.5203 C   0  0  0  0  0  0  0  0  0  0  0  0
  154.4511  131.3896  164.9466 C   0  0  0  0  0  0  0  0  0  0  0  0
  155.6832  131.1356  164.5041 F   0  0  0  0  0  0  0  0  0  0  0  0
  154.2956  130.7642  166.1133 F   0  0  0  0  0  0  0  0  0  0  0  0
  153.5679  130.8857  164.0847 F   0  0  0  0  0  0  0  0  0  0  0  0
  154.1263  133.5172  162.7557 C   0  0  0  0  0  0  0  0  0  0  0  0
  154.8737  134.2857  161.6490 C   0  0  0  0  0  0  0  0  0  0  0  0
  153.8841  141.9196  159.8370 C   0  0  0  0  0  0  0  0  0  0  0  0
  153.3145  143.0277  159.3149 N   0  3  0  0  0  0  0  0  0  0  0  0
  151.7885  145.9034  160.0696 H   0  0  0  0  0  0  0  0  0  0  0  0
  151.0680  144.8357  158.8583 H   0  0  0  0  0  0  0  0  0  0  0  0
  152.6888  145.4989  158.6066 H   0  0  0  0  0  0  0  0  0  0  0  0
  151.8338  144.3502  162.0362 H   0  0  0  0  0  0  0  0  0  0  0  0
  152.8554  142.3226  163.0711 H   0  0  0  0  0  0  0  0  0  0  0  0
  155.4505  140.4656  161.7047 H   0  0  0  0  0  0  0  0  0  0  0  0
  154.1614  140.3620  162.8775 H   0  0  0  0  0  0  0  0  0  0  0  0
  152.7766  139.0173  161.2703 H   0  0  0  0  0  0  0  0  0  0  0  0
  154.0337  139.1341  160.0609 H   0  0  0  0  0  0  0  0  0  0  0  0
  155.1685  138.0638  162.4326 H   0  0  0  0  0  0  0  0  0  0  0  0
  156.6744  135.4773  163.1447 H   0  0  0  0  0  0  0  0  0  0  0  0
  155.8009  136.9177  163.5599 H   0  0  0  0  0  0  0  0  0  0  0  0
  155.4756  135.2324  165.3185 H   0  0  0  0  0  0  0  0  0  0  0  0
  153.9390  135.5579  164.5349 H   0  0  0  0  0  0  0  0  0  0  0  0
  154.8738  133.1568  166.0279 H   0  0  0  0  0  0  0  0  0  0  0  0
  152.4901  132.7469  166.4214 H   0  0  0  0  0  0  0  0  0  0  0  0
  152.1056  132.9966  164.7302 H   0  0  0  0  0  0  0  0  0  0  0  0
  152.6816  134.3384  165.7183 H   0  0  0  0  0  0  0  0  0  0  0  0
  154.0893  132.4643  162.4839 H   0  0  0  0  0  0  0  0  0  0  0  0
  153.0974  133.8732  162.8173 H   0  0  0  0  0  0  0  0  0  0  0  0
  154.3875  134.1119  160.6882 H   0  0  0  0  0  0  0  0  0  0  0  0
  155.8890  133.9008  161.5398 H   0  0  0  0  0  0  0  0  0  0  0  0
  154.4351  141.2997  159.1444 H   0  0  0  0  0  0  0  0  0  0  0  0
  153.4348  143.2137  158.3189 H   0  0  0  0  0  0  0  0  0  0  0  0
  1  2  1  0  0  0  0
  1 25  1  0  0  0  0
  1 26  1  0  0  0  0
  1 27  1  0  0  0  0
  2 24  1  0  0  0  0
  2  3  2  0  0  0  0
  3  4  1  0  0  0  0
  3 28  1  0  0  0  0
  4  5  2  0  0  0  0
  4 29  1  0  0  0  0
  5  6  1  0  0  0  0
  5 23  1  0  0  0  0
  6  7  1  0  0  0  0
  6 30  1  0  0  0  0
  6 31  1  0  0  0  0
  7  8  1  0  0  0  0
  7 32  1  0  0  0  0
  7 33  1  0  0  0  0
  8  9  1  0  0  0  0
  8 34  1  0  0  0  0
  9 10  2  0  0  0  0
  9 11  1  0  0  0  0
 11 22  1  0  0  0  0
 11 12  1  0  0  0  0
 12 13  1  0  0  0  0
 12 35  1  0  0  0  0
 12 36  1  0  0  0  0
 13 14  1  0  0  0  0
 13 37  1  0  0  0  0
 13 38  1  0  0  0  0
 14 15  1  0  0  0  0
 14 21  1  0  0  0  0
 15 16  1  0  0  0  0
 15 17  1  0  0  0  0
 15 39  1  0  0  0  0
 16 40  1  0  0  0  0
 16 41  1  0  0  0  0
 16 42  1  0  0  0  0
 17 18  1  0  0  0  0
 17 19  1  0  0  0  0
 17 20  1  0  0  0  0
 21 22  1  0  0  0  0
 21 43  1  0  0  0  0
 21 44  1  0  0  0  0
 22 45  1  0  0  0  0
 22 46  1  0  0  0  0
 23 24  2  0  0  0  0
 23 47  1  0  0  0  0
 24 48  1  0  0  0  0
M  CHG  1  24   1
M  END
> <s_m_source_file>
AV-unprocessed.smi

> <i_m_source_file_index>
906

> <i_lp_mmshare_version>
43012

> <i_f3d_flags>
0

> <s_epik_input>
W0NIM11jMVtjSF1bY0hdYyhbY0hdbjEpW0NIMl1bQ0gyXVtOSF1DKD1PKU4yW0NIMl1bQ0gyXU4oW0NASF0oW0NIM10pQyhGKShGKUYpW0NIMl1bQ0gyXTI=

> <s_epik_cmdline>
J2VwaWtfcHl0aG9uJywgJy1waCcsICc3LjAnLCAnLXRuJywgJzgnLCAnLW1hJywgJzIwMCcsICctbWV0YWxfYmluZGluZycsICctaW1hZScsICc8aW5maWxlLm1hZT4nLCAnLW9tYWUnLCAnPG91dGZpbGUubWFlPic=

> <r_epik_Ionization_Penalty>
1.4413

> <r_epik_Ionization_Penalty_Charging>
1.42075

> <r_epik_Ionization_Penalty_Neutral>
0.0205507

> <r_epik_State_Penalty>
1.52216

> <r_epik_Charging_Adjusted_Penalty>
2.94291

> <i_epik_Tot_Q>
1

> <i_epik_Tot_abs_Q>
1

> <r_epik_Metal_State_Penalty>
1.57308

> <b_epik_Metal_Only>
0

> <s_lp_Force_Field>
OPLS_2005

> <r_lp_Energy>
53.1846

> <b_lp_Chiralities_Consistent>
1

> <s_lp_Variant>
AV-unprocessed.smi:906-4

> <Gold.Version>
5.8.1

> <Gold.Id.Protein>
6NUR|6NUR_protein|mol2

> <Gold.PLP.Fitness>
48.8698

> <Gold.PLP.PLP>
-45.9700

> <Gold.PLP.part.hbond>
-1.0000

> <Gold.PLP.part.metal>
0.0000

> <Gold.PLP.part.buried>
-5.7295

> <Gold.PLP.part.nonpolar>
-39.7719

> <Gold.PLP.part.repulsive>
0.0621

> <Gold.PLP.ligand.clash>
0.0000

> <Gold.PLP.ligand.torsion>
0.3937

> <Gold.PLP.Chemscore.Hbond>
1.0000

> <Gold.PLP.Chemscore.CHOScore>
0.0000

> <Gold.PLP.Chemscore.Metal>
0.0000

> <Gold.Chemscore.Hbonds>
donor molecule, donor type, donor heavy atom, donor atom, acceptor molecule, acceptor atom, score
      P1  H  6896  6907       L1    10  1.00

> <Gold.PLP.Chemscore.Internal.Correction>
0.6871

> <Gold.Rescore>
     Score         DG    S(hbond)    S(metal)    S(lipo)     H(rot)  DE(clash)    DE(int)     intcor
     19.44     -20.07       1.00        0.00     132.42       1.66       0.04       0.59       ----

> <Gold.Chemscore.Fitness>
19.4377

> <Gold.Chemscore.DG>
-20.0673

> <Gold.Chemscore.ZeroCoef>
-5.4800

> <Gold.Chemscore.Hbond>
0.9975

> <Gold.Chemscore.Metal>
0.0000

> <Gold.Chemscore.Lipo>
132.4199

> <Gold.Chemscore.Internal_Hbond>
0.0000

> <Gold.Chemscore.DEClash>
0.0401

> <Gold.Chemscore.DEInternal>
0.5894

> <Gold.Chemscore.Rot>
1.6553

> <Gold.Chemscore.Internal.Correction>
   9.000000E+99

> <Gold.Chemscore.Hbonds>
donor molecule, donor type, donor heavy atom, donor atom, acceptor molecule, acceptor atom, score
      P1  H  6896  6907       L1    10  1.00

> <Gold.Chemscore.Hbond.Weighted>
-3.3317

> <Gold.Chemscore.Metal.Weighted>
-0.0000

> <Gold.Chemscore.Lipo.Weighted>
-15.4931

> <Gold.Chemscore.Internal_Hbond.Weighted>
0.0000

> <Gold.Chemscore.DEClash.Weighted>
0.0401

> <Gold.Chemscore.DEInternal.Weighted>
0.5894

> <Gold.Chemscore.Rot.Weighted>
4.2376

> <Gold.Chemscore.Internal.Correction.Weighted>
   9.000000E+99

> <Gold.Protein.RotatedTorsions>
[ 6907 6896 6895 6894 ] final   37.43 input  -60.11 | X-H torsion
[ 7974 7965 7964 7962 ] final  143.74 input  175.53 | X-H torsion
[ 8008 7997 7996 7995 ] final   18.84 input   59.86 | X-H torsion
[ 10167 10162 10161 10158 ] final -123.71 input  -65.29 | X-H torsion
[ 10718 10713 10712 10709 ] final -179.68 input   66.30 | X-H torsion
[ 10763 10752 10751 10750 ] final  -32.15 input  -60.55 | X-H torsion
[ 11005 11000 10999 10996 ] final  142.06 input  -57.11 | X-H torsion

> <Gold.Protein.ActiveResidues>
 VAL166  LYS551  ARG553  GLY616  TRP617  ASP618  TYR619  PRO620  LYS621  CYS622 
 ASP623  PHE694  ASN695  SER759  ASP760  ASP761  ALA762  ILE779  LEU786  VAL792 
 PHE793  MET794  SER795  GLU796  ALA797  LYS798  CYS799  TRP800  GLU811  SER814 

> <Gold.Protein.RotatedAtoms>
  152.1430  134.9047  160.0552 H   0  0  0  0  0  0  0  0  0  0  0  0  # atno 6907 bound_to 6896
  152.0108  133.3856  159.4227 H   0  0  0  0  0  0  0  0  0  0  0  0  # atno 6908 bound_to 6896
  150.6867  134.3654  159.5012 H   0  0  0  0  0  0  0  0  0  0  0  0  # atno 6909 bound_to 6896
  144.8895  139.5580  143.5805 H   0  0  0  0  0  0  0  0  0  0  0  0  # atno 7974 bound_to 7965
  154.9119  140.3015  155.5262 H   0  0  0  0  0  0  0  0  0  0  0  0  # atno 8008 bound_to 7997
  156.3014  140.2387  156.4094 H   0  0  0  0  0  0  0  0  0  0  0  0  # atno 8009 bound_to 7997
  154.8417  140.0413  157.1534 H   0  0  0  0  0  0  0  0  0  0  0  0  # atno 8010 bound_to 7997
  140.0006  143.5545  152.2305 H   0  0  0  0  0  0  0  0  0  0  0  0  # atno 10167 bound_to 10162
  156.8627  130.9757  151.3081 H   0  0  0  0  0  0  0  0  0  0  0  0  # atno 10718 bound_to 10713
  153.8090  135.6884  153.4844 H   0  0  0  0  0  0  0  0  0  0  0  0  # atno 10763 bound_to 10752
  153.1640  135.4568  154.9810 H   0  0  0  0  0  0  0  0  0  0  0  0  # atno 10764 bound_to 10752
  154.7975  135.3325  154.7572 H   0  0  0  0  0  0  0  0  0  0  0  0  # atno 10765 bound_to 10752
  140.0448  134.9286  157.0909 H   0  0  0  0  0  0  0  0  0  0  0  0  # atno 11005 bound_to 11000
  146.3045  139.7534  142.9067 LP  0  0  0  0  0  0  0  0  0  0  0  0  # atno 17320 bound_to 7965
  145.3809  141.0358  143.3178 LP  0  0  0  0  0  0  0  0  0  0  0  0  # atno 17321 bound_to 7965
  139.6275  144.7639  151.2608 LP  0  0  0  0  0  0  0  0  0  0  0  0  # atno 17342 bound_to 10162
  140.7420  143.6538  150.8224 LP  0  0  0  0  0  0  0  0  0  0  0  0  # atno 17343 bound_to 10162
  157.6241  130.8677  149.9158 LP  0  0  0  0  0  0  0  0  0  0  0  0  # atno 17370 bound_to 10713
  156.0768  130.3678  150.0661 LP  0  0  0  0  0  0  0  0  0  0  0  0  # atno 17371 bound_to 10713
  140.4011  134.2081  155.7163 LP  0  0  0  0  0  0  0  0  0  0  0  0  # atno 17394 bound_to 11000
  141.1901  133.8223  157.0930 LP  0  0  0  0  0  0  0  0  0  0  0  0  # atno 17395 bound_to 11000

$$$$
