AV-unprocessed.smi:2503|AV-procd|sdf|9847|dock8
  -GOLD-   2272013473D 1   1.00000     0.00000
 Structure written by MMmdl.
 37 38  0  0  0  0  0  0  0  0  2 V2000
  150.5047  141.9889  156.4153 C   0  0  0  0  0  0  0  0  0  0  0  0
  149.7665  140.7719  155.8413 C   0  0  0  0  0  0  0  0  0  0  0  0
  150.7307  139.8119  155.1268 C   0  0  0  0  0  0  0  0  0  0  0  0
  148.6285  141.1957  154.9534 C   0  0  0  0  0  0  0  0  0  0  0  0
  148.1292  142.4359  154.8740 N   0  3  0  0  0  0  0  0  0  0  0  0
  147.0793  142.4776  153.9988 C   0  0  0  0  0  0  0  0  0  0  0  0
  146.9148  141.2005  153.5330 C   0  0  0  0  0  0  0  0  0  0  0  0
  147.8729  140.4301  154.1429 N   0  0  0  0  0  0  0  0  0  0  0  0
  148.0669  138.9845  153.9491 C   0  0  0  0  0  0  0  0  0  0  0  0
  146.7491  138.2454  153.6872 C   0  0  0  0  0  0  0  0  0  0  0  0
  145.7404  138.5585  154.3242 O   0  0  0  0  0  0  0  0  0  0  0  0
  146.8172  137.2817  152.7400 N   0  0  0  0  0  0  0  0  0  0  0  0
  145.8648  136.4658  152.2290 C   0  0  0  0  0  0  0  0  0  0  0  0
  144.6733  136.7258  152.3870 O   0  0  0  0  0  0  0  0  0  0  0  0
  146.2845  135.3749  151.5614 N   0  0  0  0  0  0  0  0  0  0  0  0
  145.4448  134.3958  150.9510 C   0  0  0  0  0  0  0  0  0  0  0  0
  144.4172  133.7106  151.8254 C   0  0  0  0  0  0  0  0  0  0  0  0
  145.6334  132.9534  151.3680 C   0  0  0  0  0  0  0  0  0  0  0  0
  149.8273  142.6303  156.9795 H   0  0  0  0  0  0  0  0  0  0  0  0
  150.9526  142.5913  155.6243 H   0  0  0  0  0  0  0  0  0  0  0  0
  151.3034  141.6798  157.0901 H   0  0  0  0  0  0  0  0  0  0  0  0
  149.3240  140.2214  156.6702 H   0  0  0  0  0  0  0  0  0  0  0  0
  150.2050  138.9296  154.7605 H   0  0  0  0  0  0  0  0  0  0  0  0
  151.5129  139.4686  155.8043 H   0  0  0  0  0  0  0  0  0  0  0  0
  151.2182  140.2891  154.2762 H   0  0  0  0  0  0  0  0  0  0  0  0
  146.5394  143.3879  153.7819 H   0  0  0  0  0  0  0  0  0  0  0  0
  146.2024  140.7919  152.8308 H   0  0  0  0  0  0  0  0  0  0  0  0
  148.7728  138.8373  153.1304 H   0  0  0  0  0  0  0  0  0  0  0  0
  148.5309  138.5800  154.8495 H   0  0  0  0  0  0  0  0  0  0  0  0
  147.7342  137.1470  152.3396 H   0  0  0  0  0  0  0  0  0  0  0  0
  147.2809  135.2280  151.4821 H   0  0  0  0  0  0  0  0  0  0  0  0
  145.1591  134.5578  149.9125 H   0  0  0  0  0  0  0  0  0  0  0  0
  144.3690  133.9956  152.8747 H   0  0  0  0  0  0  0  0  0  0  0  0
  143.4633  133.4527  151.3695 H   0  0  0  0  0  0  0  0  0  0  0  0
  145.4918  132.1890  150.6068 H   0  0  0  0  0  0  0  0  0  0  0  0
  146.3961  132.7330  152.1127 H   0  0  0  0  0  0  0  0  0  0  0  0
  148.4851  143.2312  155.3894 H   0  0  0  0  0  0  0  0  0  0  0  0
  1  2  1  0  0  0  0
  1 19  1  0  0  0  0
  1 20  1  0  0  0  0
  1 21  1  0  0  0  0
  2  3  1  0  0  0  0
  2  4  1  0  0  0  0
  2 22  1  0  0  0  0
  3 23  1  0  0  0  0
  3 24  1  0  0  0  0
  3 25  1  0  0  0  0
  4  8  1  0  0  0  0
  4  5  2  0  0  0  0
  5  6  1  0  0  0  0
  5 37  1  0  0  0  0
  6  7  2  0  0  0  0
  6 26  1  0  0  0  0
  7  8  1  0  0  0  0
  7 27  1  0  0  0  0
  8  9  1  0  0  0  0
  9 10  1  0  0  0  0
  9 28  1  0  0  0  0
  9 29  1  0  0  0  0
 10 11  2  0  0  0  0
 10 12  1  0  0  0  0
 12 13  1  0  0  0  0
 12 30  1  0  0  0  0
 13 14  2  0  0  0  0
 13 15  1  0  0  0  0
 15 16  1  0  0  0  0
 15 31  1  0  0  0  0
 16 18  1  0  0  0  0
 16 17  1  0  0  0  0
 16 32  1  0  0  0  0
 17 18  1  0  0  0  0
 17 33  1  0  0  0  0
 17 34  1  0  0  0  0
 18 35  1  0  0  0  0
 18 36  1  0  0  0  0
M  CHG  1   5   1
M  END
> <s_m_source_file>
AV-unprocessed.smi

> <i_m_source_file_index>
2503

> <i_lp_mmshare_version>
43012

> <i_f3d_flags>
0

> <s_epik_input>
W0NIM11bQ0hdKFtDSDNdKWMxbltjSF1bY0hdbjFbQ0gyXUMoPU8pW05IXUMoPU8pW05IXVtDSF0yW0NIMl1bQ0gyXTI=

> <s_epik_cmdline>
J2VwaWtfcHl0aG9uJywgJy1waCcsICc3LjAnLCAnLXRuJywgJzgnLCAnLW1hJywgJzIwMCcsICctbWV0YWxfYmluZGluZycsICctaW1hZScsICc8aW5maWxlLm1hZT4nLCAnLW9tYWUnLCAnPG91dGZpbGUubWFlPic=

> <r_lp_tautomer_probability>
1

> <r_epik_Ionization_Penalty>
0.381304

> <r_epik_Ionization_Penalty_Charging>
0

> <r_epik_Ionization_Penalty_Neutral>
0.381304

> <r_epik_State_Penalty>
0.37936

> <r_epik_Charging_Adjusted_Penalty>
0.37936

> <i_epik_Tot_Q>
1

> <i_epik_Tot_abs_Q>
1

> <r_epik_Metal_State_Penalty>
0.628559

> <b_epik_Metal_Only>
0

> <s_lp_Force_Field>
OPLS_2005

> <r_lp_Energy>
25.6891

> <b_lp_Chiralities_Consistent>
1

> <s_lp_Variant>
AV-unprocessed.smi:2503-1

> <Gold.Version>
5.8.1

> <Gold.Id.Protein>
6NUR|6NUR_protein|mol2

> <Gold.PLP.Fitness>
43.6570

> <Gold.PLP.PLP>
-31.2674

> <Gold.PLP.part.hbond>
-2.8503

> <Gold.PLP.part.metal>
0.0000

> <Gold.PLP.part.buried>
-3.4861

> <Gold.PLP.part.nonpolar>
-25.7241

> <Gold.PLP.part.repulsive>
0.6155

> <Gold.PLP.ligand.clash>
0.0000

> <Gold.PLP.ligand.torsion>
1.0632

> <Gold.PLP.Chemscore.Hbond>
3.8080

> <Gold.PLP.Chemscore.CHOScore>
1.0000

> <Gold.PLP.Chemscore.Metal>
0.0000

> <Gold.Chemscore.Hbonds>
donor molecule, donor type, donor heavy atom, donor atom, acceptor molecule, acceptor atom, score
      L1  H     5    37       P1  8028  2.00
      L1  H    12    30       P1  7948  1.00
      L1  H    15    31       P1  7948  0.78
      L1  C     7    27       P1 10175  0.94

> <Gold.PLP.Chemscore.Internal.Correction>
0.0920

> <Gold.Rescore>
     Score         DG    S(hbond)    S(metal)    S(lipo)     H(rot)  DE(clash)    DE(int)     intcor
     13.56     -15.57       2.49        0.00      55.13       1.82       0.04       1.97       ----

> <Gold.Chemscore.Fitness>
13.5578

> <Gold.Chemscore.DG>
-15.5721

> <Gold.Chemscore.ZeroCoef>
-5.4800

> <Gold.Chemscore.Hbond>
2.4870

> <Gold.Chemscore.Metal>
0.0000

> <Gold.Chemscore.Lipo>
55.1254

> <Gold.Chemscore.Internal_Hbond>
0.0000

> <Gold.Chemscore.DEClash>
0.0410

> <Gold.Chemscore.DEInternal>
1.9732

> <Gold.Chemscore.Rot>
1.8220

> <Gold.Chemscore.Internal.Correction>
   9.000000E+99

> <Gold.Chemscore.Hbonds>
donor molecule, donor type, donor heavy atom, donor atom, acceptor molecule, acceptor atom, score
      L1  H     5    37       P1  8028  0.94
      L1  H    12    30       P1  7948  0.95
      L1  H    15    31       P1  7948  0.66

> <Gold.Chemscore.Hbond.Weighted>
-8.3067

> <Gold.Chemscore.Metal.Weighted>
-0.0000

> <Gold.Chemscore.Lipo.Weighted>
-6.4497

> <Gold.Chemscore.Internal_Hbond.Weighted>
0.0000

> <Gold.Chemscore.DEClash.Weighted>
0.0410

> <Gold.Chemscore.DEInternal.Weighted>
1.9732

> <Gold.Chemscore.Rot.Weighted>
4.6643

> <Gold.Chemscore.Internal.Correction.Weighted>
   9.000000E+99

> <Gold.Protein.RotatedTorsions>
[ 6907 6896 6895 6894 ] final  170.31 input  -60.11 | X-H torsion
[ 7974 7965 7964 7962 ] final -137.37 input  175.53 | X-H torsion
[ 8008 7997 7996 7995 ] final  -73.78 input   59.86 | X-H torsion
[ 10167 10162 10161 10158 ] final -151.69 input  -65.29 | X-H torsion
[ 10718 10713 10712 10709 ] final -161.90 input   66.30 | X-H torsion
[ 10763 10752 10751 10750 ] final   39.04 input  -60.55 | X-H torsion
[ 11005 11000 10999 10996 ] final  -26.50 input  -57.11 | X-H torsion

> <Gold.Protein.ActiveResidues>
 VAL166  LYS551  ARG553  GLY616  TRP617  ASP618  TYR619  PRO620  LYS621  CYS622 
 ASP623  PHE694  ASN695  SER759  ASP760  ASP761  ALA762  ILE779  LEU786  VAL792 
 PHE793  MET794  SER795  GLU796  ALA797  LYS798  CYS799  TRP800  GLU811  SER814 

> <Gold.Protein.RotatedAtoms>
  151.8181  133.3391  159.3575 H   0  0  0  0  0  0  0  0  0  0  0  0  # atno 6907 bound_to 6896
  150.7304  134.5600  159.5847 H   0  0  0  0  0  0  0  0  0  0  0  0  # atno 6908 bound_to 6896
  152.3026  134.7594  160.0405 H   0  0  0  0  0  0  0  0  0  0  0  0  # atno 6909 bound_to 6896
  144.8848  140.6559  143.5183 H   0  0  0  0  0  0  0  0  0  0  0  0  # atno 7974 bound_to 7965
  154.5276  140.0773  156.8286 H   0  0  0  0  0  0  0  0  0  0  0  0  # atno 8008 bound_to 7997
  155.3443  140.3409  155.4221 H   0  0  0  0  0  0  0  0  0  0  0  0  # atno 8009 bound_to 7997
  156.1747  140.1632  156.8370 H   0  0  0  0  0  0  0  0  0  0  0  0  # atno 8010 bound_to 7997
  139.7245  143.8904  152.2515 H   0  0  0  0  0  0  0  0  0  0  0  0  # atno 10167 bound_to 10162
  156.6028  130.8817  151.2918 H   0  0  0  0  0  0  0  0  0  0  0  0  # atno 10718 bound_to 10713
  152.9980  135.6232  154.2401 H   0  0  0  0  0  0  0  0  0  0  0  0  # atno 10763 bound_to 10752
  154.2141  135.2798  155.2949 H   0  0  0  0  0  0  0  0  0  0  0  0  # atno 10764 bound_to 10752
  154.5582  135.5713  153.7042 H   0  0  0  0  0  0  0  0  0  0  0  0  # atno 10765 bound_to 10752
  140.9035  133.7508  156.0575 H   0  0  0  0  0  0  0  0  0  0  0  0  # atno 11005 bound_to 11000
  145.3889  139.1621  143.4240 LP  0  0  0  0  0  0  0  0  0  0  0  0  # atno 17320 bound_to 7965
  146.3017  140.3976  142.8701 LP  0  0  0  0  0  0  0  0  0  0  0  0  # atno 17321 bound_to 7965
  139.8810  144.7018  150.8878 LP  0  0  0  0  0  0  0  0  0  0  0  0  # atno 17342 bound_to 10162
  140.7760  143.3661  151.1735 LP  0  0  0  0  0  0  0  0  0  0  0  0  # atno 17343 bound_to 10162
  157.7275  130.9644  150.1702 LP  0  0  0  0  0  0  0  0  0  0  0  0  # atno 17370 bound_to 10713
  156.2455  130.3695  149.8290 LP  0  0  0  0  0  0  0  0  0  0  0  0  # atno 17371 bound_to 10713
  140.8200  134.3300  157.5384 LP  0  0  0  0  0  0  0  0  0  0  0  0  # atno 17394 bound_to 11000
  139.8746  134.9304  156.3501 LP  0  0  0  0  0  0  0  0  0  0  0  0  # atno 17395 bound_to 11000

$$$$
