AV-unprocessed.smi:1361|AV-procd|sdf|5557|dock4
  -GOLD-   22720 5153D 1   1.00000     0.00000
 Structure written by MMmdl.
 45 46  0  0  0  0  0  0  0  0  2 V2000
  146.4551  138.3085  152.2862 C   0  0  0  0  0  0  0  0  0  0  0  0
  146.7908  139.2398  153.4312 C   0  0  0  0  0  0  0  0  0  0  0  0
  146.0707  139.2174  154.4872 N   0  0  0  0  0  0  0  0  0  0  0  0
  146.3811  140.0770  155.5544 C   0  0  0  0  0  0  0  0  0  0  0  0
  145.4750  139.9761  156.7694 C   0  0  0  0  0  0  0  0  0  0  0  0
  147.4358  140.9392  155.4827 C   0  0  0  0  0  0  0  0  0  0  0  0
  147.8194  141.8877  156.6175 C   0  0  0  0  0  0  0  0  0  0  0  0
  149.2371  141.7143  157.1646 C   0  0  0  0  0  0  0  0  0  0  0  0
  149.6082  140.6172  157.5806 O   0  0  0  0  0  0  0  0  0  0  0  0
  150.0179  142.8060  157.1567 N   0  0  0  0  0  0  0  0  0  0  0  0
  151.4002  142.8722  157.6250 C   0  0  0  0  0  0  0  0  0  0  0  0
  151.5530  142.0390  158.9179 C   0  0  0  0  0  0  0  0  0  0  0  0
  152.8839  142.2417  159.6658 C   0  0  0  0  0  0  0  0  0  0  0  0
  152.7460  142.9164  161.0434 C   0  0  0  0  0  0  0  0  0  0  0  0
  151.8047  144.1354  161.1388 C   0  0  0  0  0  0  0  0  0  0  0  0
  152.0586  145.2732  160.1345 C   0  0  0  0  0  0  0  0  0  0  0  0
  151.2311  145.2027  158.8328 C   0  0  0  0  0  0  0  0  0  0  0  0
  151.8466  144.3515  157.7060 C   0  0  0  0  0  0  0  0  0  0  0  0
  148.2359  140.9393  154.2445 C   0  0  0  0  0  0  0  0  0  0  0  0
  149.1889  141.7075  154.1199 O   0  0  0  0  0  0  0  0  0  0  0  0
  147.8767  140.0681  153.2589 N   0  5  0  0  0  0  0  0  0  0  0  0
  145.4818  137.8389  152.4338 H   0  0  0  0  0  0  0  0  0  0  0  0
  147.2076  137.5233  152.2080 H   0  0  0  0  0  0  0  0  0  0  0  0
  146.4286  138.8576  151.3443 H   0  0  0  0  0  0  0  0  0  0  0  0
  146.0462  139.6966  157.6547 H   0  0  0  0  0  0  0  0  0  0  0  0
  144.7004  139.2227  156.6218 H   0  0  0  0  0  0  0  0  0  0  0  0
  144.9804  140.9285  156.9588 H   0  0  0  0  0  0  0  0  0  0  0  0
  147.6905  142.9125  156.2681 H   0  0  0  0  0  0  0  0  0  0  0  0
  147.1218  141.7975  157.4506 H   0  0  0  0  0  0  0  0  0  0  0  0
  149.6237  143.6606  156.7915 H   0  0  0  0  0  0  0  0  0  0  0  0
  152.0344  142.4129  156.8640 H   0  0  0  0  0  0  0  0  0  0  0  0
  150.7066  142.2109  159.5817 H   0  0  0  0  0  0  0  0  0  0  0  0
  151.4713  140.9849  158.6492 H   0  0  0  0  0  0  0  0  0  0  0  0
  153.3517  141.2681  159.8173 H   0  0  0  0  0  0  0  0  0  0  0  0
  153.5989  142.7901  159.0548 H   0  0  0  0  0  0  0  0  0  0  0  0
  152.3975  142.1712  161.7594 H   0  0  0  0  0  0  0  0  0  0  0  0
  153.7402  143.2058  161.3854 H   0  0  0  0  0  0  0  0  0  0  0  0
  150.7604  143.8268  161.0965 H   0  0  0  0  0  0  0  0  0  0  0  0
  151.9254  144.5445  162.1428 H   0  0  0  0  0  0  0  0  0  0  0  0
  151.7752  146.2008  160.6334 H   0  0  0  0  0  0  0  0  0  0  0  0
  153.1234  145.3784  159.9237 H   0  0  0  0  0  0  0  0  0  0  0  0
  150.2011  144.9078  159.0345 H   0  0  0  0  0  0  0  0  0  0  0  0
  151.1638  146.2227  158.4524 H   0  0  0  0  0  0  0  0  0  0  0  0
  152.9332  144.4256  157.7412 H   0  0  0  0  0  0  0  0  0  0  0  0
  151.5838  144.8185  156.7552 H   0  0  0  0  0  0  0  0  0  0  0  0
  1  2  1  0  0  0  0
  1 22  1  0  0  0  0
  1 23  1  0  0  0  0
  1 24  1  0  0  0  0
  2 21  1  0  0  0  0
  2  3  2  0  0  0  0
  3  4  1  0  0  0  0
  4  5  1  0  0  0  0
  4  6  2  0  0  0  0
  5 25  1  0  0  0  0
  5 26  1  0  0  0  0
  5 27  1  0  0  0  0
  6  7  1  0  0  0  0
  6 19  1  0  0  0  0
  7  8  1  0  0  0  0
  7 28  1  0  0  0  0
  7 29  1  0  0  0  0
  8  9  2  0  0  0  0
  8 10  1  0  0  0  0
 10 11  1  0  0  0  0
 10 30  1  0  0  0  0
 11 18  1  0  0  0  0
 11 12  1  0  0  0  0
 11 31  1  0  0  0  0
 12 13  1  0  0  0  0
 12 32  1  0  0  0  0
 12 33  1  0  0  0  0
 13 14  1  0  0  0  0
 13 34  1  0  0  0  0
 13 35  1  0  0  0  0
 14 15  1  0  0  0  0
 14 36  1  0  0  0  0
 14 37  1  0  0  0  0
 15 16  1  0  0  0  0
 15 38  1  0  0  0  0
 15 39  1  0  0  0  0
 16 17  1  0  0  0  0
 16 40  1  0  0  0  0
 16 41  1  0  0  0  0
 17 18  1  0  0  0  0
 17 42  1  0  0  0  0
 17 43  1  0  0  0  0
 18 44  1  0  0  0  0
 18 45  1  0  0  0  0
 19 20  2  0  0  0  0
 19 21  1  0  0  0  0
M  CHG  1  21  -1
M  END
> <s_m_source_file>
AV-unprocessed.smi

> <i_m_source_file_index>
1361

> <i_lp_mmshare_version>
43012

> <i_f3d_flags>
0

> <s_epik_input>
W0NIM11jMW5jKFtDSDNdKWMoYyg9TylbbkhdMSlbQ0gyXUMoPU8pW05IXVtDSF0yW0NIMl1bQ0gyXVtDSDJdW0NIMl1bQ0gyXVtDSDJdW0NIMl0y

> <s_epik_cmdline>
J2VwaWtfcHl0aG9uJywgJy1waCcsICc3LjAnLCAnLXRuJywgJzgnLCAnLW1hJywgJzIwMCcsICctbWV0YWxfYmluZGluZycsICctaW1hZScsICc8aW5maWxlLm1hZT4nLCAnLW9tYWUnLCAnPG91dGZpbGUubWFlPic=

> <r_lp_tautomer_probability>
0.839158

> <r_epik_Ionization_Penalty>
6.62804

> <r_epik_Ionization_Penalty_Charging>
7.40585e-08

> <r_epik_Ionization_Penalty_Neutral>
6.62804

> <r_epik_State_Penalty>
4.44437

> <r_epik_Charging_Adjusted_Penalty>
4.44437

> <i_epik_Tot_Q>
-1

> <i_epik_Tot_abs_Q>
1

> <r_epik_Metal_State_Penalty>
0.804717

> <b_epik_Metal_Only>
1

> <s_lp_Force_Field>
OPLS_2005

> <r_lp_Energy>
26.9664

> <b_lp_Chiralities_Consistent>
1

> <s_lp_Variant>
AV-unprocessed.smi:1361-3

> <Gold.Version>
5.8.1

> <Gold.Id.Protein>
6NUR|6NUR_protein|mol2

> <Gold.PLP.Fitness>
45.7762

> <Gold.PLP.PLP>
-41.5833

> <Gold.PLP.part.hbond>
-2.8110

> <Gold.PLP.part.metal>
0.0000

> <Gold.PLP.part.buried>
-6.0304

> <Gold.PLP.part.nonpolar>
-35.8549

> <Gold.PLP.part.repulsive>
3.5588

> <Gold.PLP.ligand.clash>
0.0000

> <Gold.PLP.ligand.torsion>
0.2164

> <Gold.PLP.Chemscore.Hbond>
1.5280

> <Gold.PLP.Chemscore.CHOScore>
0.0000

> <Gold.PLP.Chemscore.Metal>
0.0000

> <Gold.Chemscore.Hbonds>
donor molecule, donor type, donor heavy atom, donor atom, acceptor molecule, acceptor atom, score
      L1  H    10    30       P1  8028  1.00
      P1  H  8011  8017       L1    20  0.56

> <Gold.PLP.Chemscore.Internal.Correction>
0.0417

> <Gold.Rescore>
     Score         DG    S(hbond)    S(metal)    S(lipo)     H(rot)  DE(clash)    DE(int)     intcor
     16.81     -20.08       1.79        0.00     105.20       1.43       1.75       1.52       ----

> <Gold.Chemscore.Fitness>
16.8099

> <Gold.Chemscore.DG>
-20.0804

> <Gold.Chemscore.ZeroCoef>
-5.4800

> <Gold.Chemscore.Hbond>
1.7852

> <Gold.Chemscore.Metal>
0.0000

> <Gold.Chemscore.Lipo>
105.2020

> <Gold.Chemscore.Internal_Hbond>
0.0000

> <Gold.Chemscore.DEClash>
1.7510

> <Gold.Chemscore.DEInternal>
1.5195

> <Gold.Chemscore.Rot>
1.4339

> <Gold.Chemscore.Internal.Correction>
   9.000000E+99

> <Gold.Chemscore.Hbonds>
donor molecule, donor type, donor heavy atom, donor atom, acceptor molecule, acceptor atom, score
      L1  H    10    30       P1  8028  0.98
      P1  H  8011  8017       L1    20  0.53

> <Gold.Chemscore.Hbond.Weighted>
-5.9625

> <Gold.Chemscore.Metal.Weighted>
-0.0000

> <Gold.Chemscore.Lipo.Weighted>
-12.3086

> <Gold.Chemscore.Internal_Hbond.Weighted>
0.0000

> <Gold.Chemscore.DEClash.Weighted>
1.7510

> <Gold.Chemscore.DEInternal.Weighted>
1.5195

> <Gold.Chemscore.Rot.Weighted>
3.6708

> <Gold.Chemscore.Internal.Correction.Weighted>
   9.000000E+99

> <Gold.Protein.RotatedTorsions>
[ 6907 6896 6895 6894 ] final  -81.63 input  -60.11 | X-H torsion
[ 7974 7965 7964 7962 ] final   80.74 input  175.53 | X-H torsion
[ 8008 7997 7996 7995 ] final  -11.60 input   59.86 | X-H torsion
[ 10167 10162 10161 10158 ] final   74.00 input  -65.29 | X-H torsion
[ 10718 10713 10712 10709 ] final  155.15 input   66.30 | X-H torsion
[ 10763 10752 10751 10750 ] final  147.91 input  -60.55 | X-H torsion
[ 11005 11000 10999 10996 ] final  -43.18 input  -57.11 | X-H torsion

> <Gold.Protein.ActiveResidues>
 VAL166  LYS551  ARG553  GLY616  TRP617  ASP618  TYR619  PRO620  LYS621  CYS622 
 ASP623  PHE694  ASN695  SER759  ASP760  ASP761  ALA762  ILE779  LEU786  VAL792 
 PHE793  MET794  SER795  GLU796  ALA797  LYS798  CYS799  TRP800  GLU811  SER814 

> <Gold.Protein.RotatedAtoms>
  150.6909  134.3788  159.5024 H   0  0  0  0  0  0  0  0  0  0  0  0  # atno 6907 bound_to 6896
  152.1593  134.8922  160.0552 H   0  0  0  0  0  0  0  0  0  0  0  0  # atno 6908 bound_to 6896
  151.9990  133.3783  159.4211 H   0  0  0  0  0  0  0  0  0  0  0  0  # atno 6909 bound_to 6896
  145.6473  139.2439  143.1997 H   0  0  0  0  0  0  0  0  0  0  0  0  # atno 7974 bound_to 7965
  154.5450  140.2298  155.8578 H   0  0  0  0  0  0  0  0  0  0  0  0  # atno 8008 bound_to 7997
  156.1894  140.3081  155.9265 H   0  0  0  0  0  0  0  0  0  0  0  0  # atno 8009 bound_to 7997
  155.3182  140.0439  157.3028 H   0  0  0  0  0  0  0  0  0  0  0  0  # atno 8010 bound_to 7997
  140.0184  144.5559  150.7601 H   0  0  0  0  0  0  0  0  0  0  0  0  # atno 10167 bound_to 10162
  157.2222  131.0721  151.1905 H   0  0  0  0  0  0  0  0  0  0  0  0  # atno 10718 bound_to 10713
  154.0461  135.2885  155.3347 H   0  0  0  0  0  0  0  0  0  0  0  0  # atno 10763 bound_to 10752
  154.6898  135.5231  153.8380 H   0  0  0  0  0  0  0  0  0  0  0  0  # atno 10764 bound_to 10752
  153.0580  135.6602  154.0661 H   0  0  0  0  0  0  0  0  0  0  0  0  # atno 10765 bound_to 10752
  141.0366  133.6797  156.2697 H   0  0  0  0  0  0  0  0  0  0  0  0  # atno 11005 bound_to 11000
  146.1233  140.7281  142.9447 LP  0  0  0  0  0  0  0  0  0  0  0  0  # atno 17320 bound_to 7965
  144.7135  140.4127  143.7062 LP  0  0  0  0  0  0  0  0  0  0  0  0  # atno 17321 bound_to 7965
  140.7352  143.2738  151.3804 LP  0  0  0  0  0  0  0  0  0  0  0  0  # atno 17342 bound_to 10162
  139.6156  144.1009  152.2342 LP  0  0  0  0  0  0  0  0  0  0  0  0  # atno 17343 bound_to 10162
  157.3564  130.7109  149.6474 LP  0  0  0  0  0  0  0  0  0  0  0  0  # atno 17370 bound_to 10713
  155.9681  130.4238  150.4578 LP  0  0  0  0  0  0  0  0  0  0  0  0  # atno 17371 bound_to 10713
  140.6310  134.5264  157.5559 LP  0  0  0  0  0  0  0  0  0  0  0  0  # atno 17394 bound_to 11000
  139.9245  134.8082  156.1109 LP  0  0  0  0  0  0  0  0  0  0  0  0  # atno 17395 bound_to 11000

$$$$
