AV-unprocessed.smi:155|AV-procd|sdf|1269|dock4
  -GOLD-   2262018523D 1   1.00000     0.00000
 Structure written by MMmdl.
 63 66  0  0  0  0  0  0  0  0  2 V2000
  145.9414  133.1442  151.2502 C   0  0  0  0  0  0  0  0  0  0  0  0
  146.6980  131.9004  151.3464 N   0  0  0  0  0  0  0  0  0  0  0  0
  145.7649  130.7884  151.2242 C   0  0  0  0  0  0  0  0  0  0  0  0
  147.4042  131.7977  152.6227 C   0  0  0  0  0  0  0  0  0  0  0  0
  148.4167  132.9446  152.8636 C   0  0  0  0  0  0  0  0  0  0  0  0
  148.9968  132.9956  154.2327 N   0  3  2  0  0  0  0  0  0  0  0  0
  150.0575  131.9810  154.4858 C   0  0  0  0  0  0  0  0  0  0  0  0
  150.6497  132.0317  155.9103 C   0  0  0  0  0  0  0  0  0  0  0  0
  151.0466  133.4403  156.3952 C   0  0  0  0  0  0  0  0  0  0  0  0
  149.9251  134.3829  156.3877 N   0  0  0  0  0  0  0  0  0  0  0  0
  150.1705  135.7017  156.1742 C   0  0  0  0  0  0  0  0  0  0  0  0
  149.9003  136.2146  154.9453 N   0  0  0  0  0  0  0  0  0  0  0  0
  150.1330  137.5038  154.6824 C   0  0  0  0  0  0  0  0  0  0  0  0
  150.6181  138.4452  155.4931 N   0  0  0  0  0  0  0  0  0  0  0  0
  150.8772  137.9434  156.7339 C   0  0  0  0  0  0  0  0  0  0  0  0
  150.6841  136.5974  157.1583 C   0  0  0  0  0  0  0  0  0  0  0  0
  151.0409  136.4751  158.4975 N   0  0  0  0  0  0  0  0  0  0  0  0
  151.4402  137.6701  158.8369 C   0  0  0  0  0  0  0  0  0  0  0  0
  151.3761  138.6121  157.8373 N   0  0  0  0  0  0  0  0  0  0  0  0
  151.7590  140.0093  157.9396 C   0  0  0  0  0  0  0  0  0  0  0  0
  152.5297  140.3123  159.2395 C   0  0  1  0  0  0  0  0  0  0  0  0
  153.8724  139.8883  159.0985 O   0  0  0  0  0  0  0  0  0  0  0  0
  152.5122  141.8113  159.5902 C   0  0  2  0  0  0  0  0  0  0  0  0
  153.0451  142.1447  160.9862 C   0  0  0  0  0  0  0  0  0  0  0  0
  152.3154  143.4257  161.3628 C   0  0  0  0  0  0  0  0  0  0  0  0
  151.2215  143.5589  160.3011 C   0  0  0  0  0  0  0  0  0  0  0  0
  151.1786  142.2908  159.6640 O   0  0  0  0  0  0  0  0  0  0  0  0
  148.5523  133.9028  156.5603 C   0  0  0  0  0  0  0  0  0  0  0  0
  147.9958  133.1534  155.3233 C   0  0  0  0  0  0  0  0  0  0  0  0
  146.5937  134.0157  151.2830 H   0  0  0  0  0  0  0  0  0  0  0  0
  145.2138  133.2314  152.0586 H   0  0  0  0  0  0  0  0  0  0  0  0
  145.4003  133.1858  150.3043 H   0  0  0  0  0  0  0  0  0  0  0  0
  146.2956  129.8362  151.2546 H   0  0  0  0  0  0  0  0  0  0  0  0
  145.2326  130.8363  150.2735 H   0  0  0  0  0  0  0  0  0  0  0  0
  145.0282  130.7956  152.0292 H   0  0  0  0  0  0  0  0  0  0  0  0
  146.6671  131.7902  153.4274 H   0  0  0  0  0  0  0  0  0  0  0  0
  147.9165  130.8379  152.6875 H   0  0  0  0  0  0  0  0  0  0  0  0
  149.2172  132.9499  152.1249 H   0  0  0  0  0  0  0  0  0  0  0  0
  147.8924  133.8892  152.7144 H   0  0  0  0  0  0  0  0  0  0  0  0
  149.6670  130.9786  154.3191 H   0  0  0  0  0  0  0  0  0  0  0  0
  150.8544  132.1321  153.7567 H   0  0  0  0  0  0  0  0  0  0  0  0
  149.9500  131.5817  156.6151 H   0  0  0  0  0  0  0  0  0  0  0  0
  151.5298  131.3887  155.9431 H   0  0  0  0  0  0  0  0  0  0  0  0
  151.4491  133.3838  157.4070 H   0  0  0  0  0  0  0  0  0  0  0  0
  151.8483  133.8152  155.7569 H   0  0  0  0  0  0  0  0  0  0  0  0
  149.8977  137.8267  153.6788 H   0  0  0  0  0  0  0  0  0  0  0  0
  151.7958  137.8997  159.8311 H   0  0  0  0  0  0  0  0  0  0  0  0
  152.3577  140.2753  157.0676 H   0  0  0  0  0  0  0  0  0  0  0  0
  150.8520  140.6126  157.8889 H   0  0  0  0  0  0  0  0  0  0  0  0
  152.0866  139.7462  160.0600 H   0  0  0  0  0  0  0  0  0  0  0  0
  154.0333  139.1908  159.7157 H   0  0  0  0  0  0  0  0  0  0  0  0
  153.0524  142.3883  158.8369 H   0  0  0  0  0  0  0  0  0  0  0  0
  152.7815  141.3559  161.6919 H   0  0  0  0  0  0  0  0  0  0  0  0
  154.1295  142.2568  161.0011 H   0  0  0  0  0  0  0  0  0  0  0  0
  151.8911  143.3449  162.3640 H   0  0  0  0  0  0  0  0  0  0  0  0
  152.9792  144.2907  161.3479 H   0  0  0  0  0  0  0  0  0  0  0  0
  150.2527  143.8224  160.7256 H   0  0  0  0  0  0  0  0  0  0  0  0
  151.4901  144.3195  159.5666 H   0  0  0  0  0  0  0  0  0  0  0  0
  148.5411  133.2327  157.4203 H   0  0  0  0  0  0  0  0  0  0  0  0
  147.8882  134.7211  156.8397 H   0  0  0  0  0  0  0  0  0  0  0  0
  147.1472  133.7244  154.9448 H   0  0  0  0  0  0  0  0  0  0  0  0
  147.5990  132.1796  155.6129 H   0  0  0  0  0  0  0  0  0  0  0  0
  149.4950  133.8743  154.2443 H   0  0  0  0  0  0  0  0  0  0  0  0
  1  2  1  0  0  0  0
  1 30  1  0  0  0  0
  1 31  1  0  0  0  0
  1 32  1  0  0  0  0
  2  3  1  0  0  0  0
  2  4  1  0  0  0  0
  3 33  1  0  0  0  0
  3 34  1  0  0  0  0
  3 35  1  0  0  0  0
  4  5  1  0  0  0  0
  4 36  1  0  0  0  0
  4 37  1  0  0  0  0
  5  6  1  0  0  0  0
  5 38  1  0  0  0  0
  5 39  1  0  0  0  0
  6 29  1  0  0  0  0
  6  7  1  0  0  0  0
  6 63  1  0  0  0  0
  7  8  1  0  0  0  0
  7 40  1  0  0  0  0
  7 41  1  0  0  0  0
  8  9  1  0  0  0  0
  8 42  1  0  0  0  0
  8 43  1  0  0  0  0
  9 10  1  0  0  0  0
  9 44  1  0  0  0  0
  9 45  1  0  0  0  0
 10 11  1  0  0  0  0
 10 28  1  0  0  0  0
 11 16  1  0  0  0  0
 11 12  2  0  0  0  0
 12 13  1  0  0  0  0
 13 14  2  0  0  0  0
 13 46  1  0  0  0  0
 14 15  1  0  0  0  0
 15 19  1  0  0  0  0
 15 16  2  0  0  0  0
 16 17  1  0  0  0  0
 17 18  2  0  0  0  0
 18 19  1  0  0  0  0
 18 47  1  0  0  0  0
 19 20  1  0  0  0  0
 20 21  1  0  0  0  0
 20 48  1  0  0  0  0
 20 49  1  0  0  0  0
 21 22  1  0  0  0  0
 21 23  1  0  0  0  0
 21 50  1  0  0  0  0
 22 51  1  0  0  0  0
 23 27  1  0  0  0  0
 23 24  1  0  0  0  0
 23 52  1  0  0  0  0
 24 25  1  0  0  0  0
 24 53  1  0  0  0  0
 24 54  1  0  0  0  0
 25 26  1  0  0  0  0
 25 55  1  0  0  0  0
 25 56  1  0  0  0  0
 26 27  1  0  0  0  0
 26 57  1  0  0  0  0
 26 58  1  0  0  0  0
 28 29  1  0  0  0  0
 28 59  1  0  0  0  0
 28 60  1  0  0  0  0
 29 61  1  0  0  0  0
 29 62  1  0  0  0  0
M  CHG  1   6   1
M  END
> <s_m_source_file>
AV-unprocessed.smi

> <i_m_source_file_index>
155

> <i_lp_mmshare_version>
43012

> <i_f3d_flags>
0

> <s_epik_input>
W0NIM11OKFtDSDNdKVtDSDJdW0NIMl1OMVtDSDJdW0NIMl1bQ0gyXU4oW0NIMl1bQ0gyXTEpYyhuW2NIXW4yKWMoYzIzKW5bY0hdbjNbQ0gyXVtDQEhdKFtPSF0pW0NAQEhdNFtDSDJdW0NIMl1bQ0gyXU80

> <s_epik_cmdline>
J2VwaWtfcHl0aG9uJywgJy1waCcsICc3LjAnLCAnLXRuJywgJzgnLCAnLW1hJywgJzIwMCcsICctbWV0YWxfYmluZGluZycsICctaW1hZScsICc8aW5maWxlLm1hZT4nLCAnLW9tYWUnLCAnPG91dGZpbGUubWFlPic=

> <r_epik_Ionization_Penalty>
0.0619615

> <r_epik_Ionization_Penalty_Charging>
0.0161638

> <r_epik_Ionization_Penalty_Neutral>
0.0457976

> <r_epik_State_Penalty>
0.403408

> <r_epik_Charging_Adjusted_Penalty>
0.419572

> <i_epik_Tot_Q>
1

> <i_epik_Tot_abs_Q>
1

> <r_epik_Metal_State_Penalty>
0.404222

> <b_epik_Metal_Only>
0

> <s_lp_Force_Field>
OPLS_2005

> <r_lp_Energy>
55.2712

> <b_lp_Chiralities_Consistent>
1

> <s_lp_Variant>
AV-unprocessed.smi:155-3

> <Gold.Version>
5.8.1

> <Gold.Id.Protein>
6NUR|6NUR_protein|mol2

> <Gold.PLP.Fitness>
46.8210

> <Gold.PLP.PLP>
-43.5502

> <Gold.PLP.part.hbond>
-2.3687

> <Gold.PLP.part.metal>
0.0000

> <Gold.PLP.part.buried>
-7.5667

> <Gold.PLP.part.nonpolar>
-34.1621

> <Gold.PLP.part.repulsive>
0.3417

> <Gold.PLP.ligand.clash>
0.0000

> <Gold.PLP.ligand.torsion>
1.8546

> <Gold.PLP.Chemscore.Hbond>
1.7520

> <Gold.PLP.Chemscore.CHOScore>
0.5085

> <Gold.PLP.Chemscore.Metal>
0.0000

> <Gold.Chemscore.Hbonds>
donor molecule, donor type, donor heavy atom, donor atom, acceptor molecule, acceptor atom, score
      P1  H  6896  6909       L1    17  0.75
      P1  H  7997  8010       L1    22  0.63
      L1  C    13    46       P1  7948  0.81

> <Gold.PLP.Chemscore.Internal.Correction>
0.1984

> <Gold.Rescore>
     Score         DG    S(hbond)    S(metal)    S(lipo)     H(rot)  DE(clash)    DE(int)     intcor
     14.96     -16.81       1.69        0.00     106.04       2.63       0.04       1.80       ----

> <Gold.Chemscore.Fitness>
14.9620

> <Gold.Chemscore.DG>
-16.8067

> <Gold.Chemscore.ZeroCoef>
-5.4800

> <Gold.Chemscore.Hbond>
1.6942

> <Gold.Chemscore.Metal>
0.0000

> <Gold.Chemscore.Lipo>
106.0423

> <Gold.Chemscore.Internal_Hbond>
0.0000

> <Gold.Chemscore.DEClash>
0.0405

> <Gold.Chemscore.DEInternal>
1.8042

> <Gold.Chemscore.Rot>
2.6324

> <Gold.Chemscore.Internal.Correction>
   9.000000E+99

> <Gold.Chemscore.Hbonds>
donor molecule, donor type, donor heavy atom, donor atom, acceptor molecule, acceptor atom, score
      P1  H  6896  6909       L1    17  0.74
      P1  H  7997  8010       L1    22  0.58

> <Gold.Chemscore.Hbond.Weighted>
-5.6586

> <Gold.Chemscore.Metal.Weighted>
-0.0000

> <Gold.Chemscore.Lipo.Weighted>
-12.4069

> <Gold.Chemscore.Internal_Hbond.Weighted>
0.0000

> <Gold.Chemscore.DEClash.Weighted>
0.0405

> <Gold.Chemscore.DEInternal.Weighted>
1.8042

> <Gold.Chemscore.Rot.Weighted>
6.7389

> <Gold.Chemscore.Internal.Correction.Weighted>
   9.000000E+99

> <Gold.Protein.RotatedTorsions>
[ 6907 6896 6895 6894 ] final   85.43 input  -60.11 | X-H torsion
[ 7974 7965 7964 7962 ] final  177.94 input  175.53 | X-H torsion
[ 8008 7997 7996 7995 ] final   -1.78 input   59.86 | X-H torsion
[ 10167 10162 10161 10158 ] final   50.48 input  -65.29 | X-H torsion
[ 10718 10713 10712 10709 ] final  -21.07 input   66.30 | X-H torsion
[ 10763 10752 10751 10750 ] final   23.46 input  -60.55 | X-H torsion
[ 11005 11000 10999 10996 ] final   84.30 input  -57.11 | X-H torsion

> <Gold.Protein.ActiveResidues>
 VAL166  LYS551  ARG553  GLY616  TRP617  ASP618  TYR619  PRO620  LYS621  CYS622 
 ASP623  PHE694  ASN695  SER759  ASP760  ASP761  ALA762  ILE779  LEU786  VAL792 
 PHE793  MET794  SER795  GLU796  ALA797  LYS798  CYS799  TRP800  GLU811  SER814 

> <Gold.Protein.RotatedAtoms>
  152.5374  134.2587  159.8926 H   0  0  0  0  0  0  0  0  0  0  0  0  # atno 6907 bound_to 6896
  151.2548  133.4325  159.2621 H   0  0  0  0  0  0  0  0  0  0  0  0  # atno 6908 bound_to 6896
  151.0506  134.9685  159.8266 H   0  0  0  0  0  0  0  0  0  0  0  0  # atno 6909 bound_to 6896
  144.7162  140.0322  143.6439 H   0  0  0  0  0  0  0  0  0  0  0  0  # atno 7974 bound_to 7965
  154.6429  140.2551  155.7301 H   0  0  0  0  0  0  0  0  0  0  0  0  # atno 8008 bound_to 7997
  156.2538  140.2883  156.0751 H   0  0  0  0  0  0  0  0  0  0  0  0  # atno 8009 bound_to 7997
  155.1568  140.0383  157.2824 H   0  0  0  0  0  0  0  0  0  0  0  0  # atno 8010 bound_to 7997
  140.2719  144.3255  150.6287 H   0  0  0  0  0  0  0  0  0  0  0  0  # atno 10167 bound_to 10162
  156.5232  130.4637  149.6585 H   0  0  0  0  0  0  0  0  0  0  0  0  # atno 10718 bound_to 10713
  153.0837  135.6626  153.9993 H   0  0  0  0  0  0  0  0  0  0  0  0  # atno 10763 bound_to 10752
  153.9608  135.2974  155.3435 H   0  0  0  0  0  0  0  0  0  0  0  0  # atno 10764 bound_to 10752
  154.7241  135.5152  153.8930 H   0  0  0  0  0  0  0  0  0  0  0  0  # atno 10765 bound_to 10752
  139.9004  134.8206  156.2426 H   0  0  0  0  0  0  0  0  0  0  0  0  # atno 11005 bound_to 11000
  146.0093  139.3156  143.0880 LP  0  0  0  0  0  0  0  0  0  0  0  0  # atno 17320 bound_to 7965
  145.8701  140.9425  143.0655 LP  0  0  0  0  0  0  0  0  0  0  0  0  # atno 17321 bound_to 7965
  140.5882  143.2169  151.7302 LP  0  0  0  0  0  0  0  0  0  0  0  0  # atno 17342 bound_to 10162
  139.4986  144.3979  152.0212 LP  0  0  0  0  0  0  0  0  0  0  0  0  # atno 17343 bound_to 10162
  156.3129  130.7239  151.2135 LP  0  0  0  0  0  0  0  0  0  0  0  0  # atno 17370 bound_to 10713
  157.7433  131.0476  150.4954 LP  0  0  0  0  0  0  0  0  0  0  0  0  # atno 17371 bound_to 10713
  141.0275  133.7007  156.1373 LP  0  0  0  0  0  0  0  0  0  0  0  0  # atno 17394 bound_to 11000
  140.7145  134.4426  157.5579 LP  0  0  0  0  0  0  0  0  0  0  0  0  # atno 17395 bound_to 11000

$$$$
