AV-unprocessed.smi:980|AV-procd|sdf|4311|dock3
  -GOLD-   22720 2213D 1   1.00000     0.00000
 Structure written by MMmdl.
 44 45  0  0  0  0  0  0  0  0  1 V2000
  147.7111  134.2514  162.6863 C   0  0  0  0  0  0  0  0  0  0  0  0
  147.2162  135.6394  162.2262 C   0  0  0  0  0  0  0  0  0  0  0  0
  145.6819  135.6695  162.3720 C   0  0  0  0  0  0  0  0  0  0  0  0
  147.8508  136.6997  163.1475 C   0  0  0  0  0  0  0  0  0  0  0  0
  147.6043  135.9090  160.7858 C   0  0  0  0  0  0  0  0  0  0  0  0
  147.4980  135.0637  159.7045 C   0  0  0  0  0  0  0  0  0  0  0  0
  148.0632  135.7992  158.2298 S   0  0  0  0  0  0  0  0  0  0  0  0
  148.4497  137.2507  159.1407 C   0  0  0  0  0  0  0  0  0  0  0  0
  149.0029  138.4878  158.5173 C   0  0  0  0  0  0  0  0  0  0  0  0
  150.5364  138.4928  158.4930 C   0  0  0  0  0  0  0  0  0  0  0  0
  151.0515  139.8243  158.7788 N   0  0  0  0  0  0  0  0  0  0  0  0
  152.2370  140.2839  158.3535 C   0  0  0  0  0  0  0  0  0  0  0  0
  153.0238  139.6048  157.6929 O   0  0  0  0  0  0  0  0  0  0  0  0
  152.5866  141.7307  158.7267 C   0  0  2  0  0  0  0  0  0  0  0  0
  152.5326  141.9371  160.2579 C   0  0  0  0  0  0  0  0  0  0  0  0
  152.6219  143.4034  160.6422 C   0  0  0  0  0  0  0  0  0  0  0  0
  152.4249  144.4087  159.7722 C   0  0  0  0  0  0  0  0  0  0  0  0
  152.0860  144.1927  158.3078 C   0  0  0  0  0  0  0  0  0  0  0  0
  151.6640  142.7403  158.0144 C   0  0  0  0  0  0  0  0  0  0  0  0
  148.1454  137.1536  160.4366 N   0  0  0  0  0  0  0  0  0  0  0  0
  147.4364  134.0558  163.7234 H   0  0  0  0  0  0  0  0  0  0  0  0
  148.7968  134.1707  162.6194 H   0  0  0  0  0  0  0  0  0  0  0  0
  147.2802  133.4520  162.0822 H   0  0  0  0  0  0  0  0  0  0  0  0
  145.2086  134.9279  161.7276 H   0  0  0  0  0  0  0  0  0  0  0  0
  145.2710  136.6442  162.1070 H   0  0  0  0  0  0  0  0  0  0  0  0
  145.3760  135.4579  163.3970 H   0  0  0  0  0  0  0  0  0  0  0  0
  147.6033  136.5168  164.1936 H   0  0  0  0  0  0  0  0  0  0  0  0
  147.5032  137.7042  162.9036 H   0  0  0  0  0  0  0  0  0  0  0  0
  148.9381  136.6986  163.0617 H   0  0  0  0  0  0  0  0  0  0  0  0
  147.1187  134.0530  159.6798 H   0  0  0  0  0  0  0  0  0  0  0  0
  148.6095  138.5733  157.5034 H   0  0  0  0  0  0  0  0  0  0  0  0
  148.6324  139.3511  159.0714 H   0  0  0  0  0  0  0  0  0  0  0  0
  150.9266  137.7869  159.2281 H   0  0  0  0  0  0  0  0  0  0  0  0
  150.8937  138.1704  157.5135 H   0  0  0  0  0  0  0  0  0  0  0  0
  150.4636  140.4418  159.3196 H   0  0  0  0  0  0  0  0  0  0  0  0
  153.6078  141.9295  158.3956 H   0  0  0  0  0  0  0  0  0  0  0  0
  151.6106  141.5353  160.6810 H   0  0  0  0  0  0  0  0  0  0  0  0
  153.3576  141.4027  160.7306 H   0  0  0  0  0  0  0  0  0  0  0  0
  152.8435  143.6234  161.6763 H   0  0  0  0  0  0  0  0  0  0  0  0
  152.5156  145.4321  160.1056 H   0  0  0  0  0  0  0  0  0  0  0  0
  151.2883  144.8769  158.0181 H   0  0  0  0  0  0  0  0  0  0  0  0
  152.9626  144.4575  157.7160 H   0  0  0  0  0  0  0  0  0  0  0  0
  151.6615  142.5702  156.9371 H   0  0  0  0  0  0  0  0  0  0  0  0
  150.6360  142.5945  158.3507 H   0  0  0  0  0  0  0  0  0  0  0  0
  1  2  1  0  0  0  0
  1 21  1  0  0  0  0
  1 22  1  0  0  0  0
  1 23  1  0  0  0  0
  2  3  1  0  0  0  0
  2  4  1  0  0  0  0
  2  5  1  0  0  0  0
  3 24  1  0  0  0  0
  3 25  1  0  0  0  0
  3 26  1  0  0  0  0
  4 27  1  0  0  0  0
  4 28  1  0  0  0  0
  4 29  1  0  0  0  0
  5 20  1  0  0  0  0
  5  6  2  0  0  0  0
  6  7  1  0  0  0  0
  6 30  1  0  0  0  0
  7  8  1  0  0  0  0
  8  9  1  0  0  0  0
  8 20  2  0  0  0  0
  9 10  1  0  0  0  0
  9 31  1  0  0  0  0
  9 32  1  0  0  0  0
 10 11  1  0  0  0  0
 10 33  1  0  0  0  0
 10 34  1  0  0  0  0
 11 12  1  0  0  0  0
 11 35  1  0  0  0  0
 12 13  2  0  0  0  0
 12 14  1  0  0  0  0
 14 19  1  0  0  0  0
 14 15  1  0  0  0  0
 14 36  1  0  0  0  0
 15 16  1  0  0  0  0
 15 37  1  0  0  0  0
 15 38  1  0  0  0  0
 16 17  2  0  0  0  0
 16 39  1  0  0  0  0
 17 18  1  0  0  0  0
 17 40  1  0  0  0  0
 18 19  1  0  0  0  0
 18 41  1  0  0  0  0
 18 42  1  0  0  0  0
 19 43  1  0  0  0  0
 19 44  1  0  0  0  0
M  END
> <s_m_source_file>
AV-unprocessed.smi

> <i_m_source_file_index>
980

> <i_lp_mmshare_version>
43012

> <i_f3d_flags>
0

> <s_epik_input>
W0NIM11DKFtDSDNdKShbQ0gzXSljMVtjSF1zYyhuMSlbQ0gyXVtDSDJdW05IXUMoPU8pW0NAQEhdMltDSDJdW0NIXT1bQ0hdW0NIMl1bQ0gyXTI=

> <s_epik_cmdline>
J2VwaWtfcHl0aG9uJywgJy1waCcsICc3LjAnLCAnLXRuJywgJzgnLCAnLW1hJywgJzIwMCcsICctbWV0YWxfYmluZGluZycsICctaW1hZScsICc8aW5maWxlLm1hZT4nLCAnLW9tYWUnLCAnPG91dGZpbGUubWFlPic=

> <r_epik_Ionization_Penalty>
0.000809238

> <r_epik_Ionization_Penalty_Charging>
0

> <r_epik_Ionization_Penalty_Neutral>
0.000809238

> <r_epik_State_Penalty>
0.000520038

> <r_epik_Charging_Adjusted_Penalty>
0.000520038

> <i_epik_Tot_Q>
0

> <i_epik_Tot_abs_Q>
0

> <r_epik_Metal_State_Penalty>
-0

> <b_epik_Metal_Only>
0

> <s_lp_Force_Field>
OPLS_2005

> <r_lp_Energy>
0.0985756

> <b_lp_Chiralities_Consistent>
1

> <s_lp_Variant>
AV-unprocessed.smi:980-1

> <Gold.Version>
5.8.1

> <Gold.Id.Protein>
6NUR|6NUR_protein|mol2

> <Gold.PLP.Fitness>
49.5778

> <Gold.PLP.PLP>
-45.1439

> <Gold.PLP.part.hbond>
-3.0000

> <Gold.PLP.part.metal>
0.0000

> <Gold.PLP.part.buried>
-4.9323

> <Gold.PLP.part.nonpolar>
-37.3143

> <Gold.PLP.part.repulsive>
0.1838

> <Gold.PLP.ligand.clash>
0.0000

> <Gold.PLP.ligand.torsion>
1.4329

> <Gold.PLP.Chemscore.Hbond>
2.4113

> <Gold.PLP.Chemscore.CHOScore>
0.0000

> <Gold.PLP.Chemscore.Metal>
0.0000

> <Gold.Chemscore.Hbonds>
donor molecule, donor type, donor heavy atom, donor atom, acceptor molecule, acceptor atom, score
      P1  H  6931  6943       L1    20  0.75
      P1  H  6934  6947       L1    20  0.49
      P1  H  7997  8008       L1    13  1.00

> <Gold.PLP.Chemscore.Internal.Correction>
0.0658

> <Gold.Rescore>
     Score         DG    S(hbond)    S(metal)    S(lipo)     H(rot)  DE(clash)    DE(int)     intcor
     22.48     -23.81       2.11        0.00     127.20       1.41       0.22       1.11       ----

> <Gold.Chemscore.Fitness>
22.4815

> <Gold.Chemscore.DG>
-23.8113

> <Gold.Chemscore.ZeroCoef>
-5.4800

> <Gold.Chemscore.Hbond>
2.1131

> <Gold.Chemscore.Metal>
0.0000

> <Gold.Chemscore.Lipo>
127.1998

> <Gold.Chemscore.Internal_Hbond>
0.0000

> <Gold.Chemscore.DEClash>
0.2170

> <Gold.Chemscore.DEInternal>
1.1128

> <Gold.Chemscore.Rot>
1.4097

> <Gold.Chemscore.Internal.Correction>
   9.000000E+99

> <Gold.Chemscore.Hbonds>
donor molecule, donor type, donor heavy atom, donor atom, acceptor molecule, acceptor atom, score
      P1  H  6931  6943       L1    20  0.68
      P1  H  6934  6947       L1    20  0.24
      P1  H  7997  8008       L1    13  1.00

> <Gold.Chemscore.Hbond.Weighted>
-7.0576

> <Gold.Chemscore.Metal.Weighted>
-0.0000

> <Gold.Chemscore.Lipo.Weighted>
-14.8824

> <Gold.Chemscore.Internal_Hbond.Weighted>
0.0000

> <Gold.Chemscore.DEClash.Weighted>
0.2170

> <Gold.Chemscore.DEInternal.Weighted>
1.1128

> <Gold.Chemscore.Rot.Weighted>
3.6087

> <Gold.Chemscore.Internal.Correction.Weighted>
   9.000000E+99

> <Gold.Protein.RotatedTorsions>
[ 6907 6896 6895 6894 ] final  -58.94 input  -60.11 | X-H torsion
[ 7974 7965 7964 7962 ] final  174.67 input  175.53 | X-H torsion
[ 8008 7997 7996 7995 ] final  -66.88 input   59.86 | X-H torsion
[ 10167 10162 10161 10158 ] final   35.11 input  -65.29 | X-H torsion
[ 10718 10713 10712 10709 ] final  -70.00 input   66.30 | X-H torsion
[ 10763 10752 10751 10750 ] final  173.10 input  -60.55 | X-H torsion
[ 11005 11000 10999 10996 ] final  -39.14 input  -57.11 | X-H torsion

> <Gold.Protein.ActiveResidues>
 VAL166  LYS551  ARG553  GLY616  TRP617  ASP618  TYR619  PRO620  LYS621  CYS622 
 ASP623  PHE694  ASN695  SER759  ASP760  ASP761  ALA762  ILE779  LEU786  VAL792 
 PHE793  MET794  SER795  GLU796  ALA797  LYS798  CYS799  TRP800  GLU811  SER814 

> <Gold.Protein.RotatedAtoms>
  150.7968  134.7033  159.6562 H   0  0  0  0  0  0  0  0  0  0  0  0  # atno 6907 bound_to 6896
  152.4081  134.6169  160.0050 H   0  0  0  0  0  0  0  0  0  0  0  0  # atno 6908 bound_to 6896
  151.6420  133.3288  159.3168 H   0  0  0  0  0  0  0  0  0  0  0  0  # atno 6909 bound_to 6896
  144.7217  139.9832  143.6439 H   0  0  0  0  0  0  0  0  0  0  0  0  # atno 7974 bound_to 7965
  154.4763  140.0904  156.7270 H   0  0  0  0  0  0  0  0  0  0  0  0  # atno 8008 bound_to 7997
  155.4587  140.3460  155.4292 H   0  0  0  0  0  0  0  0  0  0  0  0  # atno 8009 bound_to 7997
  156.1122  140.1451  156.9311 H   0  0  0  0  0  0  0  0  0  0  0  0  # atno 8010 bound_to 7997
  140.4252  144.1403  150.6152 H   0  0  0  0  0  0  0  0  0  0  0  0  # atno 10167 bound_to 10162
  156.0428  130.4323  150.2231 H   0  0  0  0  0  0  0  0  0  0  0  0  # atno 10718 bound_to 10713
  154.4354  135.2761  155.1884 H   0  0  0  0  0  0  0  0  0  0  0  0  # atno 10763 bound_to 10752
  154.3772  135.6095  153.5775 H   0  0  0  0  0  0  0  0  0  0  0  0  # atno 10764 bound_to 10752
  152.9838  135.5871  154.4673 H   0  0  0  0  0  0  0  0  0  0  0  0  # atno 10765 bound_to 10752
  141.0080  133.6922  156.2147 H   0  0  0  0  0  0  0  0  0  0  0  0  # atno 11005 bound_to 11000
  146.0471  139.3476  143.0662 LP  0  0  0  0  0  0  0  0  0  0  0  0  # atno 17320 bound_to 7965
  145.8262  140.9654  143.0873 LP  0  0  0  0  0  0  0  0  0  0  0  0  # atno 17321 bound_to 7965
  140.4489  143.2495  151.9374 LP  0  0  0  0  0  0  0  0  0  0  0  0  # atno 17342 bound_to 10162
  139.4783  144.5582  151.8281 LP  0  0  0  0  0  0  0  0  0  0  0  0  # atno 17343 bound_to 10162
  157.0324  131.0011  151.3308 LP  0  0  0  0  0  0  0  0  0  0  0  0  # atno 17370 bound_to 10713
  157.5268  130.8033  149.7871 LP  0  0  0  0  0  0  0  0  0  0  0  0  # atno 17371 bound_to 10713
  140.6781  134.4797  157.5588 LP  0  0  0  0  0  0  0  0  0  0  0  0  # atno 17394 bound_to 11000
  139.9074  134.8419  156.1655 LP  0  0  0  0  0  0  0  0  0  0  0  0  # atno 17395 bound_to 11000

$$$$
