AV-unprocessed.smi:488|AV-procd|sdf|2701|dock2
  -GOLD-   2262023133D 1   1.00000     0.00000
 Structure written by MMmdl.
 45 46  0  0  0  0  0  0  0  0  1 V2000
  148.0758  133.1267  152.7050 C   0  0  0  0  0  0  0  0  0  0  0  0
  148.7281  133.4681  154.0175 C   0  0  0  0  0  0  0  0  0  0  0  0
  148.6857  134.7077  154.3812 N   0  0  0  0  0  0  0  0  0  0  0  0
  149.2616  135.1314  155.5638 N   0  0  0  0  0  0  0  0  0  0  0  0
  149.1292  136.5739  155.8108 C   0  0  0  0  0  0  0  0  0  0  0  0
  150.4959  137.2540  155.9466 C   0  0  0  0  0  0  0  0  0  0  0  0
  151.5181  136.5990  155.7351 O   0  0  0  0  0  0  0  0  0  0  0  0
  150.4644  138.5559  156.2986 N   0  0  0  0  0  0  0  0  0  0  0  0
  151.5104  139.3867  156.4675 C   0  0  0  0  0  0  0  0  0  0  0  0
  152.6988  139.0796  156.3514 O   0  0  0  0  0  0  0  0  0  0  0  0
  151.0956  140.6221  156.7844 N   0  0  0  0  0  0  0  0  0  0  0  0
  151.9205  141.6569  157.4006 C   0  0  0  0  0  0  0  0  0  0  0  0
  151.9511  141.4528  158.9269 C   0  0  0  0  0  0  0  0  0  0  0  0
  152.7664  142.5539  159.6237 C   0  0  0  0  0  0  0  0  0  0  0  0
  152.2317  143.9505  159.2699 C   0  0  0  0  0  0  0  0  0  0  0  0
  152.1982  144.1626  157.7480 C   0  0  0  0  0  0  0  0  0  0  0  0
  151.3869  143.0605  157.0468 C   0  0  0  0  0  0  0  0  0  0  0  0
  149.9090  134.3174  156.4469 C   0  0  0  0  0  0  0  0  0  0  0  0
  150.4091  134.7365  157.4915 O   0  0  0  0  0  0  0  0  0  0  0  0
  149.9499  132.9140  156.0299 C   0  0  0  0  0  0  0  0  0  0  0  0
  150.6237  132.0277  156.9233 C   0  0  0  0  0  0  0  0  0  0  0  0
  151.1873  131.3224  157.6479 N   0  0  0  0  0  0  0  0  0  0  0  0
  149.3874  132.4861  154.8721 C   0  0  0  0  0  0  0  0  0  0  0  0
  149.4059  131.0402  154.3953 C   0  0  0  0  0  0  0  0  0  0  0  0
  147.2057  132.4889  152.8610 H   0  0  0  0  0  0  0  0  0  0  0  0
  148.7708  132.5986  152.0518 H   0  0  0  0  0  0  0  0  0  0  0  0
  147.7407  134.0185  152.1731 H   0  0  0  0  0  0  0  0  0  0  0  0
  148.5774  137.0498  154.9976 H   0  0  0  0  0  0  0  0  0  0  0  0
  148.5361  136.7611  156.7081 H   0  0  0  0  0  0  0  0  0  0  0  0
  149.5486  138.9530  156.4482 H   0  0  0  0  0  0  0  0  0  0  0  0
  150.1350  140.8655  156.5919 H   0  0  0  0  0  0  0  0  0  0  0  0
  152.9434  141.5658  157.0295 H   0  0  0  0  0  0  0  0  0  0  0  0
  150.9339  141.4525  159.3216 H   0  0  0  0  0  0  0  0  0  0  0  0
  152.3753  140.4765  159.1650 H   0  0  0  0  0  0  0  0  0  0  0  0
  152.7408  142.4081  160.7038 H   0  0  0  0  0  0  0  0  0  0  0  0
  153.8130  142.4770  159.3260 H   0  0  0  0  0  0  0  0  0  0  0  0
  151.2279  144.0718  159.6785 H   0  0  0  0  0  0  0  0  0  0  0  0
  152.8510  144.7159  159.7386 H   0  0  0  0  0  0  0  0  0  0  0  0
  151.7736  145.1402  157.5185 H   0  0  0  0  0  0  0  0  0  0  0  0
  153.2167  144.1688  157.3578 H   0  0  0  0  0  0  0  0  0  0  0  0
  151.4190  143.2155  155.9677 H   0  0  0  0  0  0  0  0  0  0  0  0
  150.3388  143.1422  157.3390 H   0  0  0  0  0  0  0  0  0  0  0  0
  149.7786  130.3600  155.1605 H   0  0  0  0  0  0  0  0  0  0  0  0
  150.0475  130.9386  153.5196 H   0  0  0  0  0  0  0  0  0  0  0  0
  148.4031  130.7052  154.1285 H   0  0  0  0  0  0  0  0  0  0  0  0
  1  2  1  0  0  0  0
  1 25  1  0  0  0  0
  1 26  1  0  0  0  0
  1 27  1  0  0  0  0
  2 23  1  0  0  0  0
  2  3  2  0  0  0  0
  3  4  1  0  0  0  0
  4  5  1  0  0  0  0
  4 18  1  0  0  0  0
  5  6  1  0  0  0  0
  5 28  1  0  0  0  0
  5 29  1  0  0  0  0
  6  7  2  0  0  0  0
  6  8  1  0  0  0  0
  8  9  1  0  0  0  0
  8 30  1  0  0  0  0
  9 10  2  0  0  0  0
  9 11  1  0  0  0  0
 11 12  1  0  0  0  0
 11 31  1  0  0  0  0
 12 17  1  0  0  0  0
 12 13  1  0  0  0  0
 12 32  1  0  0  0  0
 13 14  1  0  0  0  0
 13 33  1  0  0  0  0
 13 34  1  0  0  0  0
 14 15  1  0  0  0  0
 14 35  1  0  0  0  0
 14 36  1  0  0  0  0
 15 16  1  0  0  0  0
 15 37  1  0  0  0  0
 15 38  1  0  0  0  0
 16 17  1  0  0  0  0
 16 39  1  0  0  0  0
 16 40  1  0  0  0  0
 17 41  1  0  0  0  0
 17 42  1  0  0  0  0
 18 19  2  0  0  0  0
 18 20  1  0  0  0  0
 20 21  1  0  0  0  0
 20 23  2  0  0  0  0
 21 22  3  0  0  0  0
 23 24  1  0  0  0  0
 24 43  1  0  0  0  0
 24 44  1  0  0  0  0
 24 45  1  0  0  0  0
M  END
> <s_m_source_file>
AV-unprocessed.smi

> <i_m_source_file_index>
488

> <i_lp_mmshare_version>
43012

> <i_f3d_flags>
0

> <s_epik_input>
TiNDYyhjMVtDSDNdKWMoPU8pbihuYzFbQ0gzXSlbQ0gyXUMoPU8pW05IXUMoPU8pW05IXVtDSF0yW0NIMl1bQ0gyXVtDSDJdW0NIMl1bQ0gyXTI=

> <s_epik_cmdline>
J2VwaWtfcHl0aG9uJywgJy1waCcsICc3LjAnLCAnLXRuJywgJzgnLCAnLW1hJywgJzIwMCcsICctbWV0YWxfYmluZGluZycsICctaW1hZScsICc8aW5maWxlLm1hZT4nLCAnLW9tYWUnLCAnPG91dGZpbGUubWFlPic=

> <r_lp_tautomer_probability>
1

> <r_epik_Ionization_Penalty>
3.27035e-05

> <r_epik_Ionization_Penalty_Charging>
1.69167e-11

> <r_epik_Ionization_Penalty_Neutral>
3.27035e-05

> <r_epik_State_Penalty>
-0

> <r_epik_Charging_Adjusted_Penalty>
1.69167e-11

> <i_epik_Tot_Q>
0

> <i_epik_Tot_abs_Q>
0

> <r_epik_Metal_State_Penalty>
-0

> <b_epik_Metal_Only>
0

> <s_lp_Force_Field>
OPLS_2005

> <r_lp_Energy>
25.832

> <b_lp_Chiralities_Consistent>
1

> <s_lp_Variant>
AV-unprocessed.smi:488-1

> <Gold.Version>
5.8.1

> <Gold.Id.Protein>
6NUR|6NUR_protein|mol2

> <Gold.PLP.Fitness>
47.4568

> <Gold.PLP.PLP>
-41.9495

> <Gold.PLP.part.hbond>
-3.0000

> <Gold.PLP.part.metal>
0.0000

> <Gold.PLP.part.buried>
-6.8630

> <Gold.PLP.part.nonpolar>
-32.6180

> <Gold.PLP.part.repulsive>
0.5901

> <Gold.PLP.ligand.clash>
0.0000

> <Gold.PLP.ligand.torsion>
0.4592

> <Gold.PLP.Chemscore.Hbond>
2.1342

> <Gold.PLP.Chemscore.CHOScore>
0.0000

> <Gold.PLP.Chemscore.Metal>
0.0000

> <Gold.Chemscore.Hbonds>
donor molecule, donor type, donor heavy atom, donor atom, acceptor molecule, acceptor atom, score
      P1  H  6896  6908       L1    19  0.50
      P1  H  7997  8009       L1    10  1.00
      P1  H 10752 10765       L1     7  0.98

> <Gold.PLP.Chemscore.Internal.Correction>
0.0233

> <Gold.Rescore>
     Score         DG    S(hbond)    S(metal)    S(lipo)     H(rot)  DE(clash)    DE(int)     intcor
     13.91     -19.52       2.14        0.00      93.62       1.59       0.05       5.56       ----

> <Gold.Chemscore.Fitness>
13.9095

> <Gold.Chemscore.DG>
-19.5212

> <Gold.Chemscore.ZeroCoef>
-5.4800

> <Gold.Chemscore.Hbond>
2.1403

> <Gold.Chemscore.Metal>
0.0000

> <Gold.Chemscore.Lipo>
93.6183

> <Gold.Chemscore.Internal_Hbond>
0.0000

> <Gold.Chemscore.DEClash>
0.0509

> <Gold.Chemscore.DEInternal>
5.5608

> <Gold.Chemscore.Rot>
1.5862

> <Gold.Chemscore.Internal.Correction>
   9.000000E+99

> <Gold.Chemscore.Hbonds>
donor molecule, donor type, donor heavy atom, donor atom, acceptor molecule, acceptor atom, score
      P1  H  6896  6908       L1    19  0.45
      P1  H  7997  8009       L1    10  0.99
      P1  H 10752 10765       L1     7  0.92

> <Gold.Chemscore.Hbond.Weighted>
-7.1485

> <Gold.Chemscore.Metal.Weighted>
-0.0000

> <Gold.Chemscore.Lipo.Weighted>
-10.9533

> <Gold.Chemscore.Internal_Hbond.Weighted>
0.0000

> <Gold.Chemscore.DEClash.Weighted>
0.0509

> <Gold.Chemscore.DEInternal.Weighted>
5.5608

> <Gold.Chemscore.Rot.Weighted>
4.0607

> <Gold.Chemscore.Internal.Correction.Weighted>
   9.000000E+99

> <Gold.Protein.RotatedTorsions>
[ 6907 6896 6895 6894 ] final  165.67 input  -60.11 | X-H torsion
[ 7974 7965 7964 7962 ] final  -49.59 input  175.53 | X-H torsion
[ 8008 7997 7996 7995 ] final -175.85 input   59.86 | X-H torsion
[ 10167 10162 10161 10158 ] final  -15.00 input  -65.29 | X-H torsion
[ 10718 10713 10712 10709 ] final -161.32 input   66.30 | X-H torsion
[ 10763 10752 10751 10750 ] final -166.88 input  -60.55 | X-H torsion
[ 11005 11000 10999 10996 ] final -124.64 input  -57.11 | X-H torsion

> <Gold.Protein.ActiveResidues>
 VAL166  LYS551  ARG553  GLY616  TRP617  ASP618  TYR619  PRO620  LYS621  CYS622 
 ASP623  PHE694  ASN695  SER759  ASP760  ASP761  ALA762  ILE779  LEU786  VAL792 
 PHE793  MET794  SER795  GLU796  ALA797  LYS798  CYS799  TRP800  GLU811  SER814 

> <Gold.Protein.RotatedAtoms>
  151.8909  133.3516  159.3797 H   0  0  0  0  0  0  0  0  0  0  0  0  # atno 6907 bound_to 6896
  150.7103  134.4925  159.5532 H   0  0  0  0  0  0  0  0  0  0  0  0  # atno 6908 bound_to 6896
  152.2495  134.8147  160.0499 H   0  0  0  0  0  0  0  0  0  0  0  0  # atno 6909 bound_to 6896
  145.9390  140.7680  142.9562 H   0  0  0  0  0  0  0  0  0  0  0  0  # atno 7974 bound_to 7965
  155.9877  140.1194  157.0668 H   0  0  0  0  0  0  0  0  0  0  0  0  # atno 8008 bound_to 7997
  154.4202  140.1132  156.5590 H   0  0  0  0  0  0  0  0  0  0  0  0  # atno 8009 bound_to 7997
  155.6385  140.3473  155.4709 H   0  0  0  0  0  0  0  0  0  0  0  0  # atno 8010 bound_to 7997
  140.7211  143.5263  150.9573 H   0  0  0  0  0  0  0  0  0  0  0  0  # atno 10167 bound_to 10162
  156.5946  130.8785  151.2898 H   0  0  0  0  0  0  0  0  0  0  0  0  # atno 10718 bound_to 10713
  154.6789  135.2951  154.9641 H   0  0  0  0  0  0  0  0  0  0  0  0  # atno 10763 bound_to 10752
  154.0643  135.6627  153.4820 H   0  0  0  0  0  0  0  0  0  0  0  0  # atno 10764 bound_to 10752
  153.0534  135.5159  154.7821 H   0  0  0  0  0  0  0  0  0  0  0  0  # atno 10765 bound_to 10752
  140.9825  134.0653  157.3749 H   0  0  0  0  0  0  0  0  0  0  0  0  # atno 11005 bound_to 11000
  144.6776  140.2249  143.7362 LP  0  0  0  0  0  0  0  0  0  0  0  0  # atno 17320 bound_to 7965
  145.8326  139.2093  143.1874 LP  0  0  0  0  0  0  0  0  0  0  0  0  # atno 17321 bound_to 7965
  139.8982  143.6869  152.3135 LP  0  0  0  0  0  0  0  0  0  0  0  0  # atno 17342 bound_to 10162
  139.7209  144.7603  151.0957 LP  0  0  0  0  0  0  0  0  0  0  0  0  # atno 17343 bound_to 10162
  157.7295  130.9672  150.1790 LP  0  0  0  0  0  0  0  0  0  0  0  0  # atno 17370 bound_to 10713
  156.2520  130.3701  149.8222 LP  0  0  0  0  0  0  0  0  0  0  0  0  # atno 17371 bound_to 10713
  139.8956  135.0142  156.7011 LP  0  0  0  0  0  0  0  0  0  0  0  0  # atno 17394 bound_to 11000
  140.7165  133.9178  155.8118 LP  0  0  0  0  0  0  0  0  0  0  0  0  # atno 17395 bound_to 11000

$$$$
