AV-unprocessed.smi:1535|AV-procd|sdf|6175|dock6
  -GOLD-   22720 6333D 1   1.00000     0.00000
 Structure written by MMmdl.
 47 48  0  0  0  0  0  0  0  0  2 V2000
  153.3322  142.2876  161.2462 C   0  0  0  0  0  0  0  0  0  0  0  0
  152.6370  142.0282  159.9205 C   0  0  0  0  0  0  0  0  0  0  0  0
  152.4367  140.6894  159.5148 C   0  0  0  0  0  0  0  0  0  0  0  0
  151.8004  140.4841  158.2964 C   0  0  0  0  0  0  0  0  0  0  0  0
  151.4630  139.3056  157.6272 N   0  3  0  0  0  0  0  0  0  0  0  0
  150.8472  139.6112  156.4515 C   0  0  0  0  0  0  0  0  0  0  0  0
  150.7868  140.9678  156.3606 N   0  0  0  0  0  0  0  0  0  0  0  0
  150.2326  141.8204  155.3000 C   0  0  0  0  0  0  0  0  0  0  0  0
  149.1898  141.0939  154.4271 C   0  0  1  0  0  0  0  0  0  0  0  0
  149.8409  140.1008  153.6584 O   0  0  0  0  0  0  0  0  0  0  0  0
  148.1054  140.4136  155.2882 C   0  0  0  0  0  0  0  0  0  0  0  0
  146.7562  140.4023  154.7115 N   0  0  0  0  0  0  0  0  0  0  0  0
  146.4944  139.1563  153.9962 C   0  0  0  0  0  0  0  0  0  0  0  0
  146.5338  141.5394  153.8150 C   0  0  0  0  0  0  0  0  0  0  0  0
  146.1290  142.8615  154.4980 C   0  0  2  0  0  0  0  0  0  0  0  0
  145.0980  142.6463  155.6154 C   0  0  0  0  0  0  0  0  0  0  0  0
  145.6124  143.8141  153.5025 C   0  0  0  0  0  0  0  0  0  0  0  0
  145.2062  144.5631  152.7199 N   0  0  0  0  0  0  0  0  0  0  0  0
  151.3668  141.5545  157.4904 C   0  0  0  0  0  0  0  0  0  0  0  0
  151.5527  142.8796  157.8763 C   0  0  0  0  0  0  0  0  0  0  0  0
  152.1997  143.1094  159.1117 C   0  0  0  0  0  0  0  0  0  0  0  0
  152.4197  144.5447  159.5583 C   0  0  0  0  0  0  0  0  0  0  0  0
  153.6351  141.3569  161.7270 H   0  0  0  0  0  0  0  0  0  0  0  0
  152.6668  142.8148  161.9300 H   0  0  0  0  0  0  0  0  0  0  0  0
  154.2279  142.8911  161.0992 H   0  0  0  0  0  0  0  0  0  0  0  0
  152.7654  139.8613  160.1255 H   0  0  0  0  0  0  0  0  0  0  0  0
  150.4783  138.9053  155.7215 H   0  0  0  0  0  0  0  0  0  0  0  0
  149.7849  142.6913  155.7813 H   0  0  0  0  0  0  0  0  0  0  0  0
  151.0590  142.1918  154.6927 H   0  0  0  0  0  0  0  0  0  0  0  0
  148.7504  141.8176  153.7431 H   0  0  0  0  0  0  0  0  0  0  0  0
  149.5049  140.1358  152.7760 H   0  0  0  0  0  0  0  0  0  0  0  0
  148.4417  139.3974  155.4858 H   0  0  0  0  0  0  0  0  0  0  0  0
  148.0656  140.8991  156.2645 H   0  0  0  0  0  0  0  0  0  0  0  0
  145.4954  139.1643  153.5593 H   0  0  0  0  0  0  0  0  0  0  0  0
  146.5386  138.2935  154.6586 H   0  0  0  0  0  0  0  0  0  0  0  0
  147.2128  139.0053  153.1893 H   0  0  0  0  0  0  0  0  0  0  0  0
  147.4286  141.7044  153.2123 H   0  0  0  0  0  0  0  0  0  0  0  0
  145.7438  141.2874  153.1059 H   0  0  0  0  0  0  0  0  0  0  0  0
  147.0040  143.3512  154.9218 H   0  0  0  0  0  0  0  0  0  0  0  0
  144.8177  143.5946  156.0748 H   0  0  0  0  0  0  0  0  0  0  0  0
  145.4941  142.0051  156.4032 H   0  0  0  0  0  0  0  0  0  0  0  0
  144.1898  142.1815  155.2305 H   0  0  0  0  0  0  0  0  0  0  0  0
  151.2209  143.7015  157.2592 H   0  0  0  0  0  0  0  0  0  0  0  0
  152.0247  145.2545  158.8309 H   0  0  0  0  0  0  0  0  0  0  0  0
  153.4837  144.7495  159.6787 H   0  0  0  0  0  0  0  0  0  0  0  0
  151.9206  144.7307  160.5096 H   0  0  0  0  0  0  0  0  0  0  0  0
  151.6413  138.3616  157.9450 H   0  0  0  0  0  0  0  0  0  0  0  0
  1  2  1  0  0  0  0
  1 23  1  0  0  0  0
  1 24  1  0  0  0  0
  1 25  1  0  0  0  0
  2 21  1  0  0  0  0
  2  3  2  0  0  0  0
  3  4  1  0  0  0  0
  3 26  1  0  0  0  0
  4 19  2  0  0  0  0
  4  5  1  0  0  0  0
  5  6  2  0  0  0  0
  5 47  1  0  0  0  0
  6  7  1  0  0  0  0
  6 27  1  0  0  0  0
  7  8  1  0  0  0  0
  7 19  1  0  0  0  0
  8  9  1  0  0  0  0
  8 28  1  0  0  0  0
  8 29  1  0  0  0  0
  9 10  1  0  0  0  0
  9 11  1  0  0  0  0
  9 30  1  0  0  0  0
 10 31  1  0  0  0  0
 11 12  1  0  0  0  0
 11 32  1  0  0  0  0
 11 33  1  0  0  0  0
 12 13  1  0  0  0  0
 12 14  1  0  0  0  0
 13 34  1  0  0  0  0
 13 35  1  0  0  0  0
 13 36  1  0  0  0  0
 14 15  1  0  0  0  0
 14 37  1  0  0  0  0
 14 38  1  0  0  0  0
 15 16  1  0  0  0  0
 15 17  1  0  0  0  0
 15 39  1  0  0  0  0
 16 40  1  0  0  0  0
 16 41  1  0  0  0  0
 16 42  1  0  0  0  0
 17 18  3  0  0  0  0
 19 20  1  0  0  0  0
 20 21  2  0  0  0  0
 20 43  1  0  0  0  0
 21 22  1  0  0  0  0
 22 44  1  0  0  0  0
 22 45  1  0  0  0  0
 22 46  1  0  0  0  0
M  CHG  1   5   1
M  END
> <s_m_source_file>
AV-unprocessed.smi

> <i_m_source_file_index>
1535

> <i_lp_mmshare_version>
43012

> <i_f3d_flags>
0

> <s_epik_input>
W0NIM11jKFtjSF0xKWMoW0NIM10pW2NIXWMoYzEyKW4oW2NIXW4yKVtDSDJdW0NASF0oW09IXSlbQ0gyXU4oW0NIM10pW0NIMl1bQ0BIXShbQ0gzXSlDI04=

> <s_epik_cmdline>
J2VwaWtfcHl0aG9uJywgJy1waCcsICc3LjAnLCAnLXRuJywgJzgnLCAnLW1hJywgJzIwMCcsICctbWV0YWxfYmluZGluZycsICctaW1hZScsICc8aW5maWxlLm1hZT4nLCAnLW9tYWUnLCAnPG91dGZpbGUubWFlPic=

> <r_epik_Ionization_Penalty>
1.22846

> <r_epik_Ionization_Penalty_Charging>
1.21333

> <r_epik_Ionization_Penalty_Neutral>
0.0151341

> <r_epik_State_Penalty>
1.27012

> <r_epik_Charging_Adjusted_Penalty>
2.48344

> <i_epik_Tot_Q>
1

> <i_epik_Tot_abs_Q>
1

> <r_epik_Metal_State_Penalty>
5.28751

> <b_epik_Metal_Only>
0

> <s_lp_Force_Field>
OPLS_2005

> <r_lp_Energy>
30.2724

> <b_lp_Chiralities_Consistent>
1

> <s_lp_Variant>
AV-unprocessed.smi:1535-6

> <Gold.Version>
5.8.1

> <Gold.Id.Protein>
6NUR|6NUR_protein|mol2

> <Gold.PLP.Fitness>
48.2642

> <Gold.PLP.PLP>
-46.3028

> <Gold.PLP.part.hbond>
-2.0315

> <Gold.PLP.part.metal>
0.0000

> <Gold.PLP.part.buried>
-6.0289

> <Gold.PLP.part.nonpolar>
-38.8764

> <Gold.PLP.part.repulsive>
0.3261

> <Gold.PLP.ligand.clash>
0.0000

> <Gold.PLP.ligand.torsion>
1.6624

> <Gold.PLP.Chemscore.Hbond>
1.7040

> <Gold.PLP.Chemscore.CHOScore>
0.0000

> <Gold.PLP.Chemscore.Metal>
0.0000

> <Gold.Chemscore.Hbonds>
donor molecule, donor type, donor heavy atom, donor atom, acceptor molecule, acceptor atom, score
      L1  H    10    31       P1  7957  1.00
      P1  H  7989  7998       L1    10  0.69

> <Gold.PLP.Chemscore.Internal.Correction>
0.1742

> <Gold.Rescore>
     Score         DG    S(hbond)    S(metal)    S(lipo)     H(rot)  DE(clash)    DE(int)     intcor
     13.07     -16.10       1.07        0.00     116.82       2.59       0.53       2.50       ----

> <Gold.Chemscore.Fitness>
13.0706

> <Gold.Chemscore.DG>
-16.1032

> <Gold.Chemscore.ZeroCoef>
-5.4800

> <Gold.Chemscore.Hbond>
1.0748

> <Gold.Chemscore.Metal>
0.0000

> <Gold.Chemscore.Lipo>
116.8249

> <Gold.Chemscore.Internal_Hbond>
0.0000

> <Gold.Chemscore.DEClash>
0.5284

> <Gold.Chemscore.DEInternal>
2.5042

> <Gold.Chemscore.Rot>
2.5918

> <Gold.Chemscore.Internal.Correction>
   9.000000E+99

> <Gold.Chemscore.Hbonds>
donor molecule, donor type, donor heavy atom, donor atom, acceptor molecule, acceptor atom, score
      L1  H    10    31       P1  7957  0.97
      P1  H  7989  7998       L1    10  0.07

> <Gold.Chemscore.Hbond.Weighted>
-3.5898

> <Gold.Chemscore.Metal.Weighted>
-0.0000

> <Gold.Chemscore.Lipo.Weighted>
-13.6685

> <Gold.Chemscore.Internal_Hbond.Weighted>
0.0000

> <Gold.Chemscore.DEClash.Weighted>
0.5284

> <Gold.Chemscore.DEInternal.Weighted>
2.5042

> <Gold.Chemscore.Rot.Weighted>
6.6351

> <Gold.Chemscore.Internal.Correction.Weighted>
   9.000000E+99

> <Gold.Protein.RotatedTorsions>
[ 6907 6896 6895 6894 ] final -143.46 input  -60.11 | X-H torsion
[ 7974 7965 7964 7962 ] final  154.48 input  175.53 | X-H torsion
[ 8008 7997 7996 7995 ] final  -53.38 input   59.86 | X-H torsion
[ 10167 10162 10161 10158 ] final  -42.34 input  -65.29 | X-H torsion
[ 10718 10713 10712 10709 ] final   65.88 input   66.30 | X-H torsion
[ 10763 10752 10751 10750 ] final   91.47 input  -60.55 | X-H torsion
[ 11005 11000 10999 10996 ] final  173.86 input  -57.11 | X-H torsion

> <Gold.Protein.ActiveResidues>
 VAL166  LYS551  ARG553  GLY616  TRP617  ASP618  TYR619  PRO620  LYS621  CYS622 
 ASP623  PHE694  ASN695  SER759  ASP760  ASP761  ALA762  ILE779  LEU786  VAL792 
 PHE793  MET794  SER795  GLU796  ALA797  LYS798  CYS799  TRP800  GLU811  SER814 

> <Gold.Protein.RotatedAtoms>
  151.1008  133.5245  159.2609 H   0  0  0  0  0  0  0  0  0  0  0  0  # atno 6907 bound_to 6896
  151.2077  135.0468  159.8908 H   0  0  0  0  0  0  0  0  0  0  0  0  # atno 6908 bound_to 6896
  152.5442  134.0827  159.8296 H   0  0  0  0  0  0  0  0  0  0  0  0  # atno 6909 bound_to 6896
  144.8086  139.6940  143.6151 H   0  0  0  0  0  0  0  0  0  0  0  0  # atno 7974 bound_to 7965
  154.4132  140.1201  156.5144 H   0  0  0  0  0  0  0  0  0  0  0  0  # atno 8008 bound_to 7997
  155.6766  140.3496  155.4819 H   0  0  0  0  0  0  0  0  0  0  0  0  # atno 8009 bound_to 7997
  155.9587  140.1119  157.0904 H   0  0  0  0  0  0  0  0  0  0  0  0  # atno 8010 bound_to 7997
  140.6972  143.3043  151.3196 H   0  0  0  0  0  0  0  0  0  0  0  0  # atno 10167 bound_to 10162
  157.6134  130.9238  150.0035 H   0  0  0  0  0  0  0  0  0  0  0  0  # atno 10718 bound_to 10713
  153.2086  135.4396  155.0352 H   0  0  0  0  0  0  0  0  0  0  0  0  # atno 10763 bound_to 10752
  154.8187  135.3327  154.7103 H   0  0  0  0  0  0  0  0  0  0  0  0  # atno 10764 bound_to 10752
  153.7543  135.6996  153.4994 H   0  0  0  0  0  0  0  0  0  0  0  0  # atno 10765 bound_to 10752
  140.3451  134.7243  157.4229 H   0  0  0  0  0  0  0  0  0  0  0  0  # atno 11005 bound_to 11000
  146.2381  139.5946  142.9510 LP  0  0  0  0  0  0  0  0  0  0  0  0  # atno 17320 bound_to 7965
  145.5379  141.0423  143.2347 LP  0  0  0  0  0  0  0  0  0  0  0  0  # atno 17321 bound_to 7965
  139.6443  144.0481  152.2578 LP  0  0  0  0  0  0  0  0  0  0  0  0  # atno 17342 bound_to 10162
  139.9996  144.6302  150.7741 LP  0  0  0  0  0  0  0  0  0  0  0  0  # atno 17343 bound_to 10162
  156.1246  130.3645  149.9831 LP  0  0  0  0  0  0  0  0  0  0  0  0  # atno 17370 bound_to 10713
  156.7904  130.9254  151.3646 LP  0  0  0  0  0  0  0  0  0  0  0  0  # atno 17371 bound_to 10713
  140.0749  134.5811  155.8602 LP  0  0  0  0  0  0  0  0  0  0  0  0  # atno 17394 bound_to 11000
  141.2028  133.6627  156.6025 LP  0  0  0  0  0  0  0  0  0  0  0  0  # atno 17395 bound_to 11000

$$$$
