AV-unprocessed.smi:2321|AV-procd|sdf|9284|dock7
  -GOLD-   2272012503D 1   1.00000     0.00000
 Structure written by MMmdl.
 36 37  0  0  0  0  0  0  0  0  1 V2000
  146.6297  138.1485  155.1062 O   0  0  0  0  0  0  0  0  0  0  0  0
  147.3535  137.5869  154.2869 C   0  0  0  0  0  0  0  0  0  0  0  0
  148.6464  137.8940  154.0643 N   0  0  0  0  0  0  0  0  0  0  0  0
  149.4462  138.8978  154.6737 C   0  0  0  0  0  0  0  0  0  0  0  0
  148.9445  140.1305  155.1568 C   0  0  0  0  0  0  0  0  0  0  0  0
  149.8433  141.0342  155.7585 C   0  0  0  0  0  0  0  0  0  0  0  0
  151.1619  140.7855  155.9064 N   0  0  0  0  0  0  0  0  0  0  0  0
  151.6336  139.6036  155.4564 C   0  0  0  0  0  0  0  0  0  0  0  0
  150.8212  138.6300  154.8416 C   0  0  0  0  0  0  0  0  0  0  0  0
  151.3581  137.4607  154.4164 F   0  0  0  0  0  0  0  0  0  0  0  0
  146.8787  136.6007  153.5036 N   0  0  0  0  0  0  0  0  0  0  0  0
  145.5316  136.0201  153.4774 C   0  0  1  0  0  0  0  0  0  0  0  0
  144.6137  136.8514  152.5607 C   0  0  0  0  0  0  0  0  0  0  0  0
  144.9694  136.6832  151.0740 C   0  0  0  0  0  0  0  0  0  0  0  0
  144.9685  135.2030  150.6623 C   0  0  0  0  0  0  0  0  0  0  0  0
  145.9210  134.3666  151.5422 C   0  0  2  0  0  0  0  0  0  0  0  0
  145.9417  132.8820  151.1233 C   0  0  0  0  0  0  0  0  0  0  0  0
  146.8407  132.2006  151.8341 F   0  0  0  0  0  0  0  0  0  0  0  0
  144.7401  132.3370  151.3122 F   0  0  0  0  0  0  0  0  0  0  0  0
  146.2465  132.7782  149.8298 F   0  0  0  0  0  0  0  0  0  0  0  0
  145.5540  134.5396  153.0336 C   0  0  0  0  0  0  0  0  0  0  0  0
  149.0905  137.3954  153.3071 H   0  0  0  0  0  0  0  0  0  0  0  0
  147.9004  140.3939  155.0909 H   0  0  0  0  0  0  0  0  0  0  0  0
  149.4909  141.9822  156.1371 H   0  0  0  0  0  0  0  0  0  0  0  0
  152.6903  139.4272  155.5919 H   0  0  0  0  0  0  0  0  0  0  0  0
  147.5278  136.2176  152.8314 H   0  0  0  0  0  0  0  0  0  0  0  0
  145.1142  136.0773  154.4842 H   0  0  0  0  0  0  0  0  0  0  0  0
  143.5800  136.5382  152.7139 H   0  0  0  0  0  0  0  0  0  0  0  0
  144.6538  137.9055  152.8386 H   0  0  0  0  0  0  0  0  0  0  0  0
  144.2593  137.2378  150.4601 H   0  0  0  0  0  0  0  0  0  0  0  0
  145.9499  137.1174  150.8756 H   0  0  0  0  0  0  0  0  0  0  0  0
  143.9547  134.8071  150.7338 H   0  0  0  0  0  0  0  0  0  0  0  0
  145.2567  135.1211  149.6140 H   0  0  0  0  0  0  0  0  0  0  0  0
  146.9304  134.7550  151.3981 H   0  0  0  0  0  0  0  0  0  0  0  0
  146.2425  133.9689  153.6570 H   0  0  0  0  0  0  0  0  0  0  0  0
  144.5686  134.1072  153.2107 H   0  0  0  0  0  0  0  0  0  0  0  0
  1  2  2  0  0  0  0
  2  3  1  0  0  0  0
  2 11  1  0  0  0  0
  3  4  1  0  0  0  0
  3 22  1  0  0  0  0
  4  9  1  0  0  0  0
  4  5  2  0  0  0  0
  5  6  1  0  0  0  0
  5 23  1  0  0  0  0
  6  7  2  0  0  0  0
  6 24  1  0  0  0  0
  7  8  1  0  0  0  0
  8  9  2  0  0  0  0
  8 25  1  0  0  0  0
  9 10  1  0  0  0  0
 11 12  1  0  0  0  0
 11 26  1  0  0  0  0
 12 21  1  0  0  0  0
 12 13  1  0  0  0  0
 12 27  1  0  0  0  0
 13 14  1  0  0  0  0
 13 28  1  0  0  0  0
 13 29  1  0  0  0  0
 14 15  1  0  0  0  0
 14 30  1  0  0  0  0
 14 31  1  0  0  0  0
 15 16  1  0  0  0  0
 15 32  1  0  0  0  0
 15 33  1  0  0  0  0
 16 17  1  0  0  0  0
 16 21  1  0  0  0  0
 16 34  1  0  0  0  0
 17 18  1  0  0  0  0
 17 19  1  0  0  0  0
 17 20  1  0  0  0  0
 21 35  1  0  0  0  0
 21 36  1  0  0  0  0
M  END
> <s_m_source_file>
AV-unprocessed.smi

> <i_m_source_file_index>
2321

> <i_lp_mmshare_version>
43012

> <i_f3d_flags>
0

> <s_epik_input>
RkMoRikoRilbQ0BASF0oW0NIMl0xKVtDSDJdW0NIMl1bQ0gyXVtDQEhdMVtOSF1DKD1PKVtOSF1jMltjSF1bY0hdbltjSF1jMkY=

> <s_epik_cmdline>
J2VwaWtfcHl0aG9uJywgJy1waCcsICc3LjAnLCAnLXRuJywgJzgnLCAnLW1hJywgJzIwMCcsICctbWV0YWxfYmluZGluZycsICctaW1hZScsICc8aW5maWxlLm1hZT4nLCAnLW9tYWUnLCAnPG91dGZpbGUubWFlPic=

> <r_epik_Ionization_Penalty>
0.00319438

> <r_epik_Ionization_Penalty_Charging>
0

> <r_epik_Ionization_Penalty_Neutral>
0.00319438

> <r_epik_State_Penalty>
0.00222511

> <r_epik_Charging_Adjusted_Penalty>
0.00222511

> <i_epik_Tot_Q>
0

> <i_epik_Tot_abs_Q>
0

> <r_epik_Metal_State_Penalty>
-0

> <b_epik_Metal_Only>
0

> <s_lp_Force_Field>
OPLS_2005

> <r_lp_Energy>
25.9848

> <b_lp_Chiralities_Consistent>
1

> <s_lp_Variant>
AV-unprocessed.smi:2321-4

> <Gold.Version>
5.8.1

> <Gold.Id.Protein>
6NUR|6NUR_protein|mol2

> <Gold.PLP.Fitness>
42.5310

> <Gold.PLP.PLP>
-34.6873

> <Gold.PLP.part.hbond>
-3.0000

> <Gold.PLP.part.metal>
0.0000

> <Gold.PLP.part.buried>
2.1100

> <Gold.PLP.part.nonpolar>
-33.9745

> <Gold.PLP.part.repulsive>
0.1061

> <Gold.PLP.ligand.clash>
0.0000

> <Gold.PLP.ligand.torsion>
0.5887

> <Gold.PLP.Chemscore.Hbond>
2.0000

> <Gold.PLP.Chemscore.CHOScore>
1.0000

> <Gold.PLP.Chemscore.Metal>
0.0000

> <Gold.Chemscore.Hbonds>
donor molecule, donor type, donor heavy atom, donor atom, acceptor molecule, acceptor atom, score
      L1  H     3    22       P1  7948  1.00
      L1  H    11    26       P1  7948  1.00
      L1  C     6    24       P1  8028  0.22

> <Gold.PLP.Chemscore.Internal.Correction>
0.0211

> <Gold.Rescore>
     Score         DG    S(hbond)    S(metal)    S(lipo)     H(rot)  DE(clash)    DE(int)     intcor
     13.20     -17.45       1.96        0.00      68.23       1.00       2.70       1.55       ----

> <Gold.Chemscore.Fitness>
13.1956

> <Gold.Chemscore.DG>
-17.4478

> <Gold.Chemscore.ZeroCoef>
-5.4800

> <Gold.Chemscore.Hbond>
1.9595

> <Gold.Chemscore.Metal>
0.0000

> <Gold.Chemscore.Lipo>
68.2319

> <Gold.Chemscore.Internal_Hbond>
0.0000

> <Gold.Chemscore.DEClash>
2.6979

> <Gold.Chemscore.DEInternal>
1.5543

> <Gold.Chemscore.Rot>
1.0000

> <Gold.Chemscore.Internal.Correction>
   9.000000E+99

> <Gold.Chemscore.Hbonds>
donor molecule, donor type, donor heavy atom, donor atom, acceptor molecule, acceptor atom, score
      L1  H     3    22       P1  7948  0.95
      L1  H    11    26       P1  7948  0.98

> <Gold.Chemscore.Hbond.Weighted>
-6.5447

> <Gold.Chemscore.Metal.Weighted>
-0.0000

> <Gold.Chemscore.Lipo.Weighted>
-7.9831

> <Gold.Chemscore.Internal_Hbond.Weighted>
0.0000

> <Gold.Chemscore.DEClash.Weighted>
2.6979

> <Gold.Chemscore.DEInternal.Weighted>
1.5543

> <Gold.Chemscore.Rot.Weighted>
2.5600

> <Gold.Chemscore.Internal.Correction.Weighted>
   9.000000E+99

> <Gold.Protein.RotatedTorsions>
[ 6907 6896 6895 6894 ] final -100.71 input  -60.11 | X-H torsion
[ 7974 7965 7964 7962 ] final   39.83 input  175.53 | X-H torsion
[ 8008 7997 7996 7995 ] final  -52.00 input   59.86 | X-H torsion
[ 10167 10162 10161 10158 ] final   42.15 input  -65.29 | X-H torsion
[ 10718 10713 10712 10709 ] final  -53.98 input   66.30 | X-H torsion
[ 10763 10752 10751 10750 ] final -174.97 input  -60.55 | X-H torsion
[ 11005 11000 10999 10996 ] final   11.84 input  -57.11 | X-H torsion

> <Gold.Protein.ActiveResidues>
 VAL166  LYS551  ARG553  GLY616  TRP617  ASP618  TYR619  PRO620  LYS621  CYS622 
 ASP623  PHE694  ASN695  SER759  ASP760  ASP761  ALA762  ILE779  LEU786  VAL792 
 PHE793  MET794  SER795  GLU796  ALA797  LYS798  CYS799  TRP800  GLU811  SER814 

> <Gold.Protein.RotatedAtoms>
  150.7126  134.0845  159.3909 H   0  0  0  0  0  0  0  0  0  0  0  0  # atno 6907 bound_to 6896
  151.8830  135.0444  160.0500 H   0  0  0  0  0  0  0  0  0  0  0  0  # atno 6908 bound_to 6896
  152.2553  133.5214  159.5386 H   0  0  0  0  0  0  0  0  0  0  0  0  # atno 6909 bound_to 6896
  146.0953  139.5605  142.9449 H   0  0  0  0  0  0  0  0  0  0  0  0  # atno 7974 bound_to 7965
  154.4096  140.1234  156.4920 H   0  0  0  0  0  0  0  0  0  0  0  0  # atno 8008 bound_to 7997
  155.6980  140.3495  155.4901 H   0  0  0  0  0  0  0  0  0  0  0  0  # atno 8009 bound_to 7997
  155.9410  140.1087  157.1045 H   0  0  0  0  0  0  0  0  0  0  0  0  # atno 8010 bound_to 7997
  140.3572  144.2275  150.6141 H   0  0  0  0  0  0  0  0  0  0  0  0  # atno 10167 bound_to 10162
  156.1489  130.4152  149.9978 H   0  0  0  0  0  0  0  0  0  0  0  0  # atno 10718 bound_to 10713
  154.5899  135.2844  155.0646 H   0  0  0  0  0  0  0  0  0  0  0  0  # atno 10763 bound_to 10752
  154.1951  135.6434  153.5074 H   0  0  0  0  0  0  0  0  0  0  0  0  # atno 10764 bound_to 10752
  153.0117  135.5455  154.6581 H   0  0  0  0  0  0  0  0  0  0  0  0  # atno 10765 bound_to 10752
  140.4987  134.0767  155.7788 H   0  0  0  0  0  0  0  0  0  0  0  0  # atno 11005 bound_to 11000
  145.5959  141.0362  143.2044 LP  0  0  0  0  0  0  0  0  0  0  0  0  # atno 17320 bound_to 7965
  144.7391  139.7500  143.7318 LP  0  0  0  0  0  0  0  0  0  0  0  0  # atno 17321 bound_to 7965
  140.5162  143.2277  151.8459 LP  0  0  0  0  0  0  0  0  0  0  0  0  # atno 17342 bound_to 10162
  139.4818  144.4891  151.9208 LP  0  0  0  0  0  0  0  0  0  0  0  0  # atno 17343 bound_to 10162
  156.7841  130.9232  151.3646 LP  0  0  0  0  0  0  0  0  0  0  0  0  # atno 17370 bound_to 10713
  157.6640  130.8991  149.9891 LP  0  0  0  0  0  0  0  0  0  0  0  0  # atno 17371 bound_to 10713
  141.1447  133.9077  157.2244 LP  0  0  0  0  0  0  0  0  0  0  0  0  # atno 17394 bound_to 11000
  139.9726  135.0123  156.9550 LP  0  0  0  0  0  0  0  0  0  0  0  0  # atno 17395 bound_to 11000

$$$$
