AV-unprocessed.smi:1753|AV-procd|sdf|7063|dock1
  -GOLD-   22720 8283D 1   1.00000     0.00000
 Structure written by MMmdl.
 37 38  0  0  0  0  0  0  0  0  1 V2000
  145.7265  129.6866  151.7766 C   0  0  0  0  0  0  0  0  0  0  0  0
  146.2572  131.0803  151.9397 C   0  0  0  0  0  0  0  0  0  0  0  0
  147.3939  131.5047  152.6869 C   0  0  0  0  0  0  0  0  0  0  0  0
  147.4034  132.8574  152.4807 C   0  0  0  0  0  0  0  0  0  0  0  0
  148.2736  133.7862  152.9596 N   0  0  0  0  0  0  0  0  0  0  0  0
  148.9919  133.7612  154.0961 C   0  0  0  0  0  0  0  0  0  0  0  0
  148.9917  132.8479  154.9215 O   0  0  0  0  0  0  0  0  0  0  0  0
  149.7298  134.8736  154.2240 N   0  0  0  0  0  0  0  0  0  0  0  0
  150.6247  135.1761  155.3374 C   0  0  0  0  0  0  0  0  0  0  0  0
  150.7778  136.6933  155.5570 C   0  0  1  0  0  0  0  0  0  0  0  0
  151.7185  137.0212  156.7327 C   0  0  0  0  0  0  0  0  0  0  0  0
  152.0144  138.5241  156.7186 C   0  0  0  0  0  0  0  0  0  0  0  0
  152.0523  139.0001  154.9513 S   0  0  0  0  0  0  0  0  0  0  0  0
  151.1276  140.1237  154.7383 O   0  0  0  0  0  0  0  0  0  0  0  0
  153.4476  139.0692  154.4917 O   0  0  0  0  0  0  0  0  0  0  0  0
  151.2947  137.4535  154.3228 C   0  0  0  0  0  0  0  0  0  0  0  0
  146.3398  133.1904  151.6690 N   0  0  0  0  0  0  0  0  0  0  0  0
  145.9149  134.4816  151.1630 C   0  0  0  0  0  0  0  0  0  0  0  0
  145.6363  132.0871  151.3360 N   0  0  0  0  0  0  0  0  0  0  0  0
  146.2244  128.9938  152.4555 H   0  0  0  0  0  0  0  0  0  0  0  0
  145.8828  129.3250  150.7602 H   0  0  0  0  0  0  0  0  0  0  0  0
  144.6573  129.6441  151.9862 H   0  0  0  0  0  0  0  0  0  0  0  0
  148.0734  130.9006  153.2688 H   0  0  0  0  0  0  0  0  0  0  0  0
  148.3894  134.6039  152.3797 H   0  0  0  0  0  0  0  0  0  0  0  0
  149.6668  135.5689  153.4947 H   0  0  0  0  0  0  0  0  0  0  0  0
  150.2004  134.7195  156.2321 H   0  0  0  0  0  0  0  0  0  0  0  0
  151.6008  134.7093  155.1940 H   0  0  0  0  0  0  0  0  0  0  0  0
  149.7988  137.1048  155.8078 H   0  0  0  0  0  0  0  0  0  0  0  0
  151.2965  136.7088  157.6884 H   0  0  0  0  0  0  0  0  0  0  0  0
  152.6554  136.4770  156.6050 H   0  0  0  0  0  0  0  0  0  0  0  0
  151.2114  139.0814  157.2014 H   0  0  0  0  0  0  0  0  0  0  0  0
  152.9578  138.7803  157.2009 H   0  0  0  0  0  0  0  0  0  0  0  0
  152.0738  136.8874  153.8112 H   0  0  0  0  0  0  0  0  0  0  0  0
  150.5083  137.6857  153.6045 H   0  0  0  0  0  0  0  0  0  0  0  0
  146.5331  135.2799  151.5736 H   0  0  0  0  0  0  0  0  0  0  0  0
  144.8768  134.6632  151.4432 H   0  0  0  0  0  0  0  0  0  0  0  0
  145.9983  134.4947  150.0760 H   0  0  0  0  0  0  0  0  0  0  0  0
  1  2  1  0  0  0  0
  1 20  1  0  0  0  0
  1 21  1  0  0  0  0
  1 22  1  0  0  0  0
  2 19  2  0  0  0  0
  2  3  1  0  0  0  0
  3  4  2  0  0  0  0
  3 23  1  0  0  0  0
  4  5  1  0  0  0  0
  4 17  1  0  0  0  0
  5  6  1  0  0  0  0
  5 24  1  0  0  0  0
  6  7  2  0  0  0  0
  6  8  1  0  0  0  0
  8  9  1  0  0  0  0
  8 25  1  0  0  0  0
  9 10  1  0  0  0  0
  9 26  1  0  0  0  0
  9 27  1  0  0  0  0
 10 16  1  0  0  0  0
 10 11  1  0  0  0  0
 10 28  1  0  0  0  0
 11 12  1  0  0  0  0
 11 29  1  0  0  0  0
 11 30  1  0  0  0  0
 12 13  1  0  0  0  0
 12 31  1  0  0  0  0
 12 32  1  0  0  0  0
 13 14  2  0  0  0  0
 13 15  2  0  0  0  0
 13 16  1  0  0  0  0
 16 33  1  0  0  0  0
 16 34  1  0  0  0  0
 17 18  1  0  0  0  0
 17 19  1  0  0  0  0
 18 35  1  0  0  0  0
 18 36  1  0  0  0  0
 18 37  1  0  0  0  0
M  END
> <s_m_source_file>
AV-unprocessed.smi

> <i_m_source_file_index>
1753

> <i_lp_mmshare_version>
43012

> <i_f3d_flags>
0

> <s_epik_input>
W0NIM11jMVtjSF1jKG4objEpW0NIM10pW05IXUMoPU8pW05IXVtDSDJdW0NAQEhdKFtDSDJdMilbQ0gyXVtDSDJdUzIoPU8pPU8=

> <s_epik_cmdline>
J2VwaWtfcHl0aG9uJywgJy1waCcsICc3LjAnLCAnLXRuJywgJzgnLCAnLW1hJywgJzIwMCcsICctbWV0YWxfYmluZGluZycsICctaW1hZScsICc8aW5maWxlLm1hZT4nLCAnLW9tYWUnLCAnPG91dGZpbGUubWFlPic=

> <r_lp_tautomer_probability>
1

> <r_epik_Ionization_Penalty>
9.06651e-05

> <r_epik_Ionization_Penalty_Charging>
0

> <r_epik_Ionization_Penalty_Neutral>
9.06651e-05

> <r_epik_State_Penalty>
-0

> <r_epik_Charging_Adjusted_Penalty>
0

> <i_epik_Tot_Q>
0

> <i_epik_Tot_abs_Q>
0

> <r_epik_Metal_State_Penalty>
-0

> <b_epik_Metal_Only>
0

> <s_lp_Force_Field>
OPLS_2005

> <r_lp_Energy>
6.63642

> <b_lp_Chiralities_Consistent>
1

> <s_lp_Variant>
AV-unprocessed.smi:1753-2

> <Gold.Version>
5.8.1

> <Gold.Id.Protein>
6NUR|6NUR_protein|mol2

> <Gold.PLP.Fitness>
44.0721

> <Gold.PLP.PLP>
-32.7659

> <Gold.PLP.part.hbond>
-4.1752

> <Gold.PLP.part.metal>
0.0000

> <Gold.PLP.part.buried>
-5.7071

> <Gold.PLP.part.nonpolar>
-23.3847

> <Gold.PLP.part.repulsive>
0.2542

> <Gold.PLP.ligand.clash>
0.0000

> <Gold.PLP.ligand.torsion>
0.3553

> <Gold.PLP.Chemscore.Hbond>
4.0000

> <Gold.PLP.Chemscore.CHOScore>
0.0000

> <Gold.PLP.Chemscore.Metal>
0.0000

> <Gold.Chemscore.Hbonds>
donor molecule, donor type, donor heavy atom, donor atom, acceptor molecule, acceptor atom, score
      L1  H     5    24       P1  7948  0.80
      L1  H     8    25       P1  7948  0.70
      P1  H  7989  7998       L1    14  1.00
      P1  H  7997  8009       L1    15  1.00

> <Gold.PLP.Chemscore.Internal.Correction>
0.0167

> <Gold.Rescore>
     Score         DG    S(hbond)    S(metal)    S(lipo)     H(rot)  DE(clash)    DE(int)     intcor
     19.05     -19.66       3.46        0.00      51.04       1.31       0.00       0.60       ----

> <Gold.Chemscore.Fitness>
19.0534

> <Gold.Chemscore.DG>
-19.6595

> <Gold.Chemscore.ZeroCoef>
-5.4800

> <Gold.Chemscore.Hbond>
3.4599

> <Gold.Chemscore.Metal>
0.0000

> <Gold.Chemscore.Lipo>
51.0439

> <Gold.Chemscore.Internal_Hbond>
0.0000

> <Gold.Chemscore.DEClash>
0.0015

> <Gold.Chemscore.DEInternal>
0.6046

> <Gold.Chemscore.Rot>
1.3080

> <Gold.Chemscore.Internal.Correction>
   9.000000E+99

> <Gold.Chemscore.Hbonds>
donor molecule, donor type, donor heavy atom, donor atom, acceptor molecule, acceptor atom, score
      L1  H     5    24       P1  7948  0.12
      L1  H     8    25       P1  7948  0.07
      P1  H  7989  7998       L1    14  0.52
      P1  H  7997  8009       L1    15  0.65

> <Gold.Chemscore.Hbond.Weighted>
-11.5559

> <Gold.Chemscore.Metal.Weighted>
-0.0000

> <Gold.Chemscore.Lipo.Weighted>
-5.9721

> <Gold.Chemscore.Internal_Hbond.Weighted>
0.0000

> <Gold.Chemscore.DEClash.Weighted>
0.0015

> <Gold.Chemscore.DEInternal.Weighted>
0.6046

> <Gold.Chemscore.Rot.Weighted>
3.3485

> <Gold.Chemscore.Internal.Correction.Weighted>
   9.000000E+99

> <Gold.Protein.RotatedTorsions>
[ 6907 6896 6895 6894 ] final   -8.85 input  -60.11 | X-H torsion
[ 7974 7965 7964 7962 ] final  141.96 input  175.53 | X-H torsion
[ 8008 7997 7996 7995 ] final -129.00 input   59.86 | X-H torsion
[ 10167 10162 10161 10158 ] final  137.35 input  -65.29 | X-H torsion
[ 10718 10713 10712 10709 ] final   14.80 input   66.30 | X-H torsion
[ 10763 10752 10751 10750 ] final -167.54 input  -60.55 | X-H torsion
[ 11005 11000 10999 10996 ] final  152.08 input  -57.11 | X-H torsion

> <Gold.Protein.ActiveResidues>
 VAL166  LYS551  ARG553  GLY616  TRP617  ASP618  TYR619  PRO620  LYS621  CYS622 
 ASP623  PHE694  ASN695  SER759  ASP760  ASP761  ALA762  ILE779  LEU786  VAL792 
 PHE793  MET794  SER795  GLU796  ALA797  LYS798  CYS799  TRP800  GLU811  SER814 

> <Gold.Protein.RotatedAtoms>
  151.4270  135.1005  159.9630 H   0  0  0  0  0  0  0  0  0  0  0  0  # atno 6907 bound_to 6896
  152.4969  133.8653  159.7281 H   0  0  0  0  0  0  0  0  0  0  0  0  # atno 6908 bound_to 6896
  150.9182  133.6855  159.2866 H   0  0  0  0  0  0  0  0  0  0  0  0  # atno 6909 bound_to 6896
  144.9050  139.5371  143.5736 H   0  0  0  0  0  0  0  0  0  0  0  0  # atno 7974 bound_to 7965
  155.2720  140.0440  157.3008 H   0  0  0  0  0  0  0  0  0  0  0  0  # atno 8008 bound_to 7997
  154.5647  140.2356  155.8249 H   0  0  0  0  0  0  0  0  0  0  0  0  # atno 8009 bound_to 7997
  156.2076  140.3008  155.9668 H   0  0  0  0  0  0  0  0  0  0  0  0  # atno 8010 bound_to 7997
  139.5147  144.6414  151.5557 H   0  0  0  0  0  0  0  0  0  0  0  0  # atno 10167 bound_to 10162
  157.0444  130.6244  149.5756 H   0  0  0  0  0  0  0  0  0  0  0  0  # atno 10718 bound_to 10713
  154.6721  135.2941  154.9727 H   0  0  0  0  0  0  0  0  0  0  0  0  # atno 10763 bound_to 10752
  154.0751  135.6612  153.4833 H   0  0  0  0  0  0  0  0  0  0  0  0  # atno 10764 bound_to 10752
  153.0493  135.5184  154.7723 H   0  0  0  0  0  0  0  0  0  0  0  0  # atno 10765 bound_to 10752
  140.1276  134.8823  157.2159 H   0  0  0  0  0  0  0  0  0  0  0  0  # atno 11005 bound_to 11000
  146.3128  139.7810  142.9006 LP  0  0  0  0  0  0  0  0  0  0  0  0  # atno 17320 bound_to 7965
  145.3552  141.0315  143.3316 LP  0  0  0  0  0  0  0  0  0  0  0  0  # atno 17321 bound_to 7965
  140.6183  143.9307  150.6505 LP  0  0  0  0  0  0  0  0  0  0  0  0  # atno 17342 bound_to 10162
  140.2572  143.3550  152.1354 LP  0  0  0  0  0  0  0  0  0  0  0  0  # atno 17343 bound_to 10162
  156.0027  130.5109  150.7723 LP  0  0  0  0  0  0  0  0  0  0  0  0  # atno 17370 bound_to 10713
  157.5079  131.0923  151.0234 LP  0  0  0  0  0  0  0  0  0  0  0  0  # atno 17371 bound_to 10713
  140.2884  134.3269  155.7322 LP  0  0  0  0  0  0  0  0  0  0  0  0  # atno 17394 bound_to 11000
  141.2164  133.7519  156.9466 LP  0  0  0  0  0  0  0  0  0  0  0  0  # atno 17395 bound_to 11000

$$$$
