AV-unprocessed.smi:2090|AV-procd|sdf|8533|dock3
  -GOLD-   2272011253D 1   1.00000     0.00000
 Structure written by MMmdl.
 42 43  0  0  0  0  0  0  0  0  2 V2000
  153.7970  137.8464  157.0462 C   0  0  0  0  0  0  0  0  0  0  0  0
  152.7832  138.2905  156.0482 C   0  0  0  0  0  0  0  0  0  0  0  0
  151.8050  137.6309  155.3584 C   0  0  0  0  0  0  0  0  0  0  0  0
  151.2105  138.6618  154.5831 C   0  0  0  0  0  0  0  0  0  0  0  0
  150.1259  138.3853  153.7120 N   0  0  0  0  0  0  0  0  0  0  0  0
  148.9463  139.0259  153.6476 C   0  0  0  0  0  0  0  0  0  0  0  0
  148.6214  139.9887  154.3434 O   0  0  0  0  0  0  0  0  0  0  0  0
  148.1420  138.4823  152.7223 N   0  0  0  0  0  0  0  0  0  0  0  0
  146.7942  138.9487  152.4165 C   0  0  0  0  0  0  0  0  0  0  0  0
  146.1323  138.0875  151.3231 C   0  0  0  0  0  0  0  0  0  0  0  0
  146.2297  136.6337  151.6075 N   0  3  2  0  0  0  0  0  0  0  0  0
  145.6075  135.8125  150.5369 C   0  0  0  0  0  0  0  0  0  0  0  0
  145.8413  134.3104  150.7768 C   0  0  0  0  0  0  0  0  0  0  0  0
  145.3408  133.8574  152.1601 C   0  0  2  0  0  0  0  0  0  0  0  0
  143.8064  133.7731  152.2403 C   0  0  0  0  0  0  0  0  0  0  0  0
  145.9456  134.7674  153.2447 C   0  0  0  0  0  0  0  0  0  0  0  0
  145.7137  136.2610  152.9515 C   0  0  0  0  0  0  0  0  0  0  0  0
  151.7751  139.8431  154.7808 N   0  0  0  0  0  0  0  0  0  0  0  0
  152.7867  139.6110  155.7200 O   0  0  0  0  0  0  0  0  0  0  0  0
  153.6329  136.8077  157.3332 H   0  0  0  0  0  0  0  0  0  0  0  0
  153.7462  138.4577  157.9474 H   0  0  0  0  0  0  0  0  0  0  0  0
  154.8038  137.9293  156.6366 H   0  0  0  0  0  0  0  0  0  0  0  0
  151.5569  136.5809  155.4053 H   0  0  0  0  0  0  0  0  0  0  0  0
  150.2609  137.6120  153.0776 H   0  0  0  0  0  0  0  0  0  0  0  0
  148.4869  137.6954  152.1914 H   0  0  0  0  0  0  0  0  0  0  0  0
  146.1872  138.9493  153.3237 H   0  0  0  0  0  0  0  0  0  0  0  0
  146.8777  139.9870  152.0977 H   0  0  0  0  0  0  0  0  0  0  0  0
  145.0873  138.3694  151.1856 H   0  0  0  0  0  0  0  0  0  0  0  0
  146.6315  138.2937  150.3754 H   0  0  0  0  0  0  0  0  0  0  0  0
  144.5405  136.0312  150.4802 H   0  0  0  0  0  0  0  0  0  0  0  0
  146.0340  136.0845  149.5705 H   0  0  0  0  0  0  0  0  0  0  0  0
  145.3615  133.7263  149.9905 H   0  0  0  0  0  0  0  0  0  0  0  0
  146.9091  134.1026  150.6976 H   0  0  0  0  0  0  0  0  0  0  0  0
  145.7141  132.8467  152.3311 H   0  0  0  0  0  0  0  0  0  0  0  0
  143.3315  134.7416  152.0860 H   0  0  0  0  0  0  0  0  0  0  0  0
  143.4863  133.4016  153.2142 H   0  0  0  0  0  0  0  0  0  0  0  0
  143.4140  133.0901  151.4862 H   0  0  0  0  0  0  0  0  0  0  0  0
  145.5385  134.5102  154.2232 H   0  0  0  0  0  0  0  0  0  0  0  0
  147.0190  134.5830  153.3070 H   0  0  0  0  0  0  0  0  0  0  0  0
  146.2122  136.8469  153.7224 H   0  0  0  0  0  0  0  0  0  0  0  0
  144.6519  136.5024  153.0165 H   0  0  0  0  0  0  0  0  0  0  0  0
  147.2141  136.4075  151.5957 H   0  0  0  0  0  0  0  0  0  0  0  0
  1  2  1  0  0  0  0
  1 20  1  0  0  0  0
  1 21  1  0  0  0  0
  1 22  1  0  0  0  0
  2 19  1  0  0  0  0
  2  3  2  0  0  0  0
  3  4  1  0  0  0  0
  3 23  1  0  0  0  0
  4  5  1  0  0  0  0
  4 18  2  0  0  0  0
  5  6  1  0  0  0  0
  5 24  1  0  0  0  0
  6  7  2  0  0  0  0
  6  8  1  0  0  0  0
  8  9  1  0  0  0  0
  8 25  1  0  0  0  0
  9 10  1  0  0  0  0
  9 26  1  0  0  0  0
  9 27  1  0  0  0  0
 10 11  1  0  0  0  0
 10 28  1  0  0  0  0
 10 29  1  0  0  0  0
 11 17  1  0  0  0  0
 11 12  1  0  0  0  0
 11 42  1  0  0  0  0
 12 13  1  0  0  0  0
 12 30  1  0  0  0  0
 12 31  1  0  0  0  0
 13 14  1  0  0  0  0
 13 32  1  0  0  0  0
 13 33  1  0  0  0  0
 14 15  1  0  0  0  0
 14 16  1  0  0  0  0
 14 34  1  0  0  0  0
 15 35  1  0  0  0  0
 15 36  1  0  0  0  0
 15 37  1  0  0  0  0
 16 17  1  0  0  0  0
 16 38  1  0  0  0  0
 16 39  1  0  0  0  0
 17 40  1  0  0  0  0
 17 41  1  0  0  0  0
 18 19  1  0  0  0  0
M  CHG  1  11   1
M  END
> <s_m_source_file>
AV-unprocessed.smi

> <i_m_source_file_index>
2090

> <i_lp_mmshare_version>
43012

> <i_f3d_flags>
0

> <s_epik_input>
W0NIM11jMVtjSF1jKG5vMSlbTkhdQyg9TylbTkhdW0NIMl1bQ0gyXU4yW0NIMl1bQ0gyXVtDSF0oW0NIM10pW0NIMl1bQ0gyXTI=

> <s_epik_cmdline>
J2VwaWtfcHl0aG9uJywgJy1waCcsICc3LjAnLCAnLXRuJywgJzgnLCAnLW1hJywgJzIwMCcsICctbWV0YWxfYmluZGluZycsICctaW1hZScsICc8aW5maWxlLm1hZT4nLCAnLW9tYWUnLCAnPG91dGZpbGUubWFlPic=

> <r_epik_Ionization_Penalty>
0.00176265

> <r_epik_Ionization_Penalty_Charging>
0.00172695

> <r_epik_Ionization_Penalty_Neutral>
3.56992e-05

> <r_epik_State_Penalty>
0.00116803

> <r_epik_Charging_Adjusted_Penalty>
0.00289498

> <i_epik_Tot_Q>
1

> <i_epik_Tot_abs_Q>
1

> <r_epik_Metal_State_Penalty>
0.0215312

> <b_epik_Metal_Only>
0

> <s_lp_Force_Field>
OPLS_2005

> <r_lp_Energy>
14.8541

> <b_lp_Chiralities_Consistent>
1

> <s_lp_Variant>
AV-unprocessed.smi:2090-2

> <Gold.Version>
5.8.1

> <Gold.Id.Protein>
6NUR|6NUR_protein|mol2

> <Gold.PLP.Fitness>
45.7651

> <Gold.PLP.PLP>
-30.5687

> <Gold.PLP.part.hbond>
-6.8053

> <Gold.PLP.part.metal>
0.0000

> <Gold.PLP.part.buried>
2.3770

> <Gold.PLP.part.nonpolar>
-26.6333

> <Gold.PLP.part.repulsive>
0.3820

> <Gold.PLP.ligand.clash>
0.0000

> <Gold.PLP.ligand.torsion>
0.4904

> <Gold.PLP.Chemscore.Hbond>
5.3873

> <Gold.PLP.Chemscore.CHOScore>
0.0000

> <Gold.PLP.Chemscore.Metal>
0.0000

> <Gold.Chemscore.Hbonds>
donor molecule, donor type, donor heavy atom, donor atom, acceptor molecule, acceptor atom, score
      L1  H     5    24       P1  7948  0.33
      L1  H     8    25       P1  7948  1.00
      L1  H    11    42       P1  7948  2.00
      P1  H  7989  7998       L1    18  1.00
      P1  H  7997  8009       L1    19  1.00

> <Gold.PLP.Chemscore.Internal.Correction>
0.0153

> <Gold.Rescore>
     Score         DG    S(hbond)    S(metal)    S(lipo)     H(rot)  DE(clash)    DE(int)     intcor
     19.71     -21.49       3.85        0.00      61.33       1.57       1.19       0.59       ----

> <Gold.Chemscore.Fitness>
19.7133

> <Gold.Chemscore.DG>
-21.4916

> <Gold.Chemscore.ZeroCoef>
-5.4800

> <Gold.Chemscore.Hbond>
3.8488

> <Gold.Chemscore.Metal>
0.0000

> <Gold.Chemscore.Lipo>
61.3259

> <Gold.Chemscore.Internal_Hbond>
0.0000

> <Gold.Chemscore.DEClash>
1.1933

> <Gold.Chemscore.DEInternal>
0.5850

> <Gold.Chemscore.Rot>
1.5697

> <Gold.Chemscore.Internal.Correction>
   9.000000E+99

> <Gold.Chemscore.Hbonds>
donor molecule, donor type, donor heavy atom, donor atom, acceptor molecule, acceptor atom, score
      L1  H     5    24       P1  7948  0.04
      L1  H     8    25       P1  7948  0.94
      L1  H    11    42       P1  7948  1.00
      P1  H  7989  7998       L1    18  0.84
      P1  H  7997  8009       L1    19  0.55

> <Gold.Chemscore.Hbond.Weighted>
-12.8550

> <Gold.Chemscore.Metal.Weighted>
-0.0000

> <Gold.Chemscore.Lipo.Weighted>
-7.1751

> <Gold.Chemscore.Internal_Hbond.Weighted>
0.0000

> <Gold.Chemscore.DEClash.Weighted>
1.1933

> <Gold.Chemscore.DEInternal.Weighted>
0.5850

> <Gold.Chemscore.Rot.Weighted>
4.0185

> <Gold.Chemscore.Internal.Correction.Weighted>
   9.000000E+99

> <Gold.Protein.RotatedTorsions>
[ 6907 6896 6895 6894 ] final   48.60 input  -60.11 | X-H torsion
[ 7974 7965 7964 7962 ] final  -96.75 input  175.53 | X-H torsion
[ 8008 7997 7996 7995 ] final -144.08 input   59.86 | X-H torsion
[ 10167 10162 10161 10158 ] final  174.65 input  -65.29 | X-H torsion
[ 10718 10713 10712 10709 ] final   82.89 input   66.30 | X-H torsion
[ 10763 10752 10751 10750 ] final  -55.15 input  -60.55 | X-H torsion
[ 11005 11000 10999 10996 ] final   32.62 input  -57.11 | X-H torsion

> <Gold.Protein.ActiveResidues>
 VAL166  LYS551  ARG553  GLY616  TRP617  ASP618  TYR619  PRO620  LYS621  CYS622 
 ASP623  PHE694  ASN695  SER759  ASP760  ASP761  ALA762  ILE779  LEU786  VAL792 
 PHE793  MET794  SER795  GLU796  ALA797  LYS798  CYS799  TRP800  GLU811  SER814 

> <Gold.Protein.RotatedAtoms>
  152.2813  134.7825  160.0395 H   0  0  0  0  0  0  0  0  0  0  0  0  # atno 6907 bound_to 6896
  151.8403  133.3417  159.3649 H   0  0  0  0  0  0  0  0  0  0  0  0  # atno 6908 bound_to 6896
  150.7191  134.5326  159.5752 H   0  0  0  0  0  0  0  0  0  0  0  0  # atno 6909 bound_to 6896
  145.3427  140.9463  143.2599 H   0  0  0  0  0  0  0  0  0  0  0  0  # atno 7974 bound_to 7965
  155.5210  140.0591  157.2906 H   0  0  0  0  0  0  0  0  0  0  0  0  # atno 8008 bound_to 7997
  154.4517  140.1952  156.0444 H   0  0  0  0  0  0  0  0  0  0  0  0  # atno 8009 bound_to 7997
  156.0718  140.3259  155.7589 H   0  0  0  0  0  0  0  0  0  0  0  0  # atno 8010 bound_to 7997
  139.5149  144.3122  152.0281 H   0  0  0  0  0  0  0  0  0  0  0  0  # atno 10167 bound_to 10162
  157.6867  131.0067  150.2441 H   0  0  0  0  0  0  0  0  0  0  0  0  # atno 10718 bound_to 10713
  154.1861  135.6435  153.5047 H   0  0  0  0  0  0  0  0  0  0  0  0  # atno 10763 bound_to 10752
  153.0046  135.5417  154.6463 H   0  0  0  0  0  0  0  0  0  0  0  0  # atno 10764 bound_to 10752
  154.5840  135.2928  155.0676 H   0  0  0  0  0  0  0  0  0  0  0  0  # atno 10765 bound_to 10752
  140.2716  134.3076  155.7826 H   0  0  0  0  0  0  0  0  0  0  0  0  # atno 11005 bound_to 11000
  144.8778  139.4947  143.6737 LP  0  0  0  0  0  0  0  0  0  0  0  0  # atno 17320 bound_to 7965
  146.3001  139.7398  142.9098 LP  0  0  0  0  0  0  0  0  0  0  0  0  # atno 17321 bound_to 7965
  140.2566  144.4112  150.6201 LP  0  0  0  0  0  0  0  0  0  0  0  0  # atno 17342 bound_to 10162
  140.6187  143.2174  151.6739 LP  0  0  0  0  0  0  0  0  0  0  0  0  # atno 17343 bound_to 10162
  156.3050  130.3764  149.7715 LP  0  0  0  0  0  0  0  0  0  0  0  0  # atno 17370 bound_to 10713
  156.5333  130.8267  151.3244 LP  0  0  0  0  0  0  0  0  0  0  0  0  # atno 17371 bound_to 10713
  141.2176  133.7470  156.9343 LP  0  0  0  0  0  0  0  0  0  0  0  0  # atno 17394 bound_to 11000
  140.1368  134.9320  157.2412 LP  0  0  0  0  0  0  0  0  0  0  0  0  # atno 17395 bound_to 11000

$$$$
