AV-unprocessed.smi:278|AV-procd|sdf|2092|dock3
  -GOLD-   2262021373D 1   1.00000     0.00000
 Structure written by MMmdl.
 50 54  0  0  0  0  0  0  0  0  1 V2000
  153.5442  139.8202  158.1091 O   0  0  0  0  0  0  0  0  0  0  0  0
  152.1116  139.6576  157.8190 S   0  0  0  0  0  0  0  0  0  0  0  0
  151.4339  138.3770  158.0748 O   0  0  0  0  0  0  0  0  0  0  0  0
  151.1797  141.0036  158.6478 C   0  0  0  0  0  0  0  0  0  0  0  0
  150.8350  142.0245  157.5550 C   0  0  0  0  0  0  0  0  0  0  0  0
  150.7090  141.2956  156.2049 C   0  0  2  0  0  0  0  0  0  0  0  0
  149.4133  140.4926  156.0492 C   0  0  0  0  0  0  0  0  0  0  0  0
  149.7510  139.3956  155.1531 N   0  0  0  0  0  0  0  0  0  0  0  0
  148.8756  138.3813  154.9263 C   0  0  0  0  0  0  0  0  0  0  0  0
  149.0103  137.2262  155.6313 N   0  0  0  0  0  0  0  0  0  0  0  0
  148.1738  136.2046  155.4287 C   0  0  0  0  0  0  0  0  0  0  0  0
  147.1422  136.1256  154.5873 N   0  0  0  0  0  0  0  0  0  0  0  0
  146.9888  137.2851  153.8872 C   0  0  0  0  0  0  0  0  0  0  0  0
  147.7985  138.4524  153.9941 C   0  0  0  0  0  0  0  0  0  0  0  0
  147.3204  139.4322  153.1297 N   0  0  0  0  0  0  0  0  0  0  0  0
  146.3020  138.8723  152.5368 C   0  0  0  0  0  0  0  0  0  0  0  0
  146.0388  137.5794  152.9261 N   0  0  0  0  0  0  0  0  0  0  0  0
  144.9870  136.7161  152.4216 C   0  0  0  0  0  0  0  0  0  0  0  0
  145.5135  135.6075  151.4850 C   0  0  1  0  0  0  0  0  0  0  0  0
  146.4517  134.8481  152.2204 O   0  0  0  0  0  0  0  0  0  0  0  0
  144.4194  134.6660  150.9323 C   0  0  2  0  0  0  0  0  0  0  0  0
  143.6918  133.8409  151.9948 C   0  0  0  0  0  0  0  0  0  0  0  0
  143.1234  132.6765  151.2017 C   0  0  0  0  0  0  0  0  0  0  0  0
  144.0039  132.6213  149.9506 C   0  0  0  0  0  0  0  0  0  0  0  0
  144.9831  133.6343  150.1349 O   0  0  0  0  0  0  0  0  0  0  0  0
  151.1830  139.1285  155.2021 C   0  0  0  0  0  0  0  0  0  0  0  0
  151.7913  140.2211  156.0931 C   0  0  2  0  0  0  0  0  0  0  0  0
  150.7934  141.9969  155.3737 H   0  0  0  0  0  0  0  0  0  0  0  0
  152.7232  140.6172  155.6885 H   0  0  0  0  0  0  0  0  0  0  0  0
  150.2742  140.5714  159.0738 H   0  0  0  0  0  0  0  0  0  0  0  0
  151.7726  141.4304  159.4568 H   0  0  0  0  0  0  0  0  0  0  0  0
  149.9352  142.5899  157.7993 H   0  0  0  0  0  0  0  0  0  0  0  0
  151.6503  142.7454  157.4828 H   0  0  0  0  0  0  0  0  0  0  0  0
  149.0841  140.0892  157.0078 H   0  0  0  0  0  0  0  0  0  0  0  0
  148.6090  141.1071  155.6433 H   0  0  0  0  0  0  0  0  0  0  0  0
  148.3589  135.3233  156.0249 H   0  0  0  0  0  0  0  0  0  0  0  0
  145.7191  139.3867  151.7865 H   0  0  0  0  0  0  0  0  0  0  0  0
  144.4690  136.2767  153.2752 H   0  0  0  0  0  0  0  0  0  0  0  0
  144.2567  137.3355  151.8988 H   0  0  0  0  0  0  0  0  0  0  0  0
  146.0469  136.0634  150.6500 H   0  0  0  0  0  0  0  0  0  0  0  0
  147.2272  135.3728  152.3481 H   0  0  0  0  0  0  0  0  0  0  0  0
  143.6960  135.2265  150.3369 H   0  0  0  0  0  0  0  0  0  0  0  0
  144.4038  133.4682  152.7328 H   0  0  0  0  0  0  0  0  0  0  0  0
  142.9235  134.4072  152.5218 H   0  0  0  0  0  0  0  0  0  0  0  0
  143.1566  131.7479  151.7725 H   0  0  0  0  0  0  0  0  0  0  0  0
  142.0857  132.8651  150.9245 H   0  0  0  0  0  0  0  0  0  0  0  0
  144.4806  131.6499  149.8183 H   0  0  0  0  0  0  0  0  0  0  0  0
  143.4194  132.8392  149.0559 H   0  0  0  0  0  0  0  0  0  0  0  0
  151.4077  138.1273  155.5709 H   0  0  0  0  0  0  0  0  0  0  0  0
  151.5824  139.2064  154.1905 H   0  0  0  0  0  0  0  0  0  0  0  0
  1  2  2  0  0  0  0
  2 27  1  0  0  0  0
  2  3  2  0  0  0  0
  2  4  1  0  0  0  0
  4  5  1  0  0  0  0
  4 30  1  0  0  0  0
  4 31  1  0  0  0  0
  5  6  1  0  0  0  0
  5 32  1  0  0  0  0
  5 33  1  0  0  0  0
  6 28  1  0  0  0  0
  6 27  1  0  0  0  0
  6  7  1  0  0  0  0
  7  8  1  0  0  0  0
  7 34  1  0  0  0  0
  7 35  1  0  0  0  0
  8  9  1  0  0  0  0
  8 26  1  0  0  0  0
  9 14  1  0  0  0  0
  9 10  2  0  0  0  0
 10 11  1  0  0  0  0
 11 12  2  0  0  0  0
 11 36  1  0  0  0  0
 12 13  1  0  0  0  0
 13 17  1  0  0  0  0
 13 14  2  0  0  0  0
 14 15  1  0  0  0  0
 15 16  2  0  0  0  0
 16 17  1  0  0  0  0
 16 37  1  0  0  0  0
 17 18  1  0  0  0  0
 18 19  1  0  0  0  0
 18 38  1  0  0  0  0
 18 39  1  0  0  0  0
 19 20  1  0  0  0  0
 19 21  1  0  0  0  0
 19 40  1  0  0  0  0
 20 41  1  0  0  0  0
 21 25  1  0  0  0  0
 21 22  1  0  0  0  0
 21 42  1  0  0  0  0
 22 23  1  0  0  0  0
 22 43  1  0  0  0  0
 22 44  1  0  0  0  0
 23 24  1  0  0  0  0
 23 45  1  0  0  0  0
 23 46  1  0  0  0  0
 24 25  1  0  0  0  0
 24 47  1  0  0  0  0
 24 48  1  0  0  0  0
 26 27  1  0  0  0  0
 26 49  1  0  0  0  0
 26 50  1  0  0  0  0
 27 29  1  0  0  0  0
M  END
> <s_m_source_file>
AV-unprocessed.smi

> <i_m_source_file_index>
278

> <i_lp_mmshare_version>
43012

> <i_f3d_flags>
0

> <s_epik_input>
W0NIMl0xW0NIMl1TKD1PKSg9TylbQ0BASF0oW0NAQEhdMTIpW0NIMl1OKFtDSDJdMiljKG5bY0hdbjMpYyhjMzQpbltjSF1uNFtDSDJdW0NASF0oW09IXSlbQ0BASF01W0NIMl1bQ0gyXVtDSDJdTzU=

> <s_epik_cmdline>
J2VwaWtfcHl0aG9uJywgJy1waCcsICc3LjAnLCAnLXRuJywgJzgnLCAnLW1hJywgJzIwMCcsICctbWV0YWxfYmluZGluZycsICctaW1hZScsICc8aW5maWxlLm1hZT4nLCAnLW9tYWUnLCAnPG91dGZpbGUubWFlPic=

> <r_lp_tautomer_probability>
1

> <r_epik_Ionization_Penalty>
0.000636766

> <r_epik_Ionization_Penalty_Charging>
0

> <r_epik_Ionization_Penalty_Neutral>
0.000636766

> <r_epik_State_Penalty>
0.000329976

> <r_epik_Charging_Adjusted_Penalty>
0.000329976

> <i_epik_Tot_Q>
0

> <i_epik_Tot_abs_Q>
0

> <r_epik_Metal_State_Penalty>
-0

> <b_epik_Metal_Only>
0

> <s_lp_Force_Field>
OPLS_2005

> <r_lp_Energy>
49.0353

> <b_lp_Chiralities_Consistent>
1

> <s_lp_Variant>
AV-unprocessed.smi:278-6

> <Gold.Version>
5.8.1

> <Gold.Id.Protein>
6NUR|6NUR_protein|mol2

> <Gold.PLP.Fitness>
45.6088

> <Gold.PLP.PLP>
-37.5476

> <Gold.PLP.part.hbond>
-2.0000

> <Gold.PLP.part.metal>
0.0000

> <Gold.PLP.part.buried>
-3.2133

> <Gold.PLP.part.nonpolar>
-36.3806

> <Gold.PLP.part.repulsive>
2.5523

> <Gold.PLP.ligand.clash>
0.0000

> <Gold.PLP.ligand.torsion>
1.3132

> <Gold.PLP.Chemscore.Hbond>
1.9440

> <Gold.PLP.Chemscore.CHOScore>
1.5154

> <Gold.PLP.Chemscore.Metal>
0.0000

> <Gold.Chemscore.Hbonds>
donor molecule, donor type, donor heavy atom, donor atom, acceptor molecule, acceptor atom, score
      L1  H    20    41       P1  7948  1.00
      P1  H  7997  8010       L1     1  1.00
      L1  C    16    37       P1 10171  0.33
      L1  C    16    37       P1 10175  0.79

> <Gold.PLP.Chemscore.Internal.Correction>
0.3094

> <Gold.Rescore>
     Score         DG    S(hbond)    S(metal)    S(lipo)     H(rot)  DE(clash)    DE(int)     intcor
     12.55     -15.50       1.87        0.00      78.94       2.13       0.35       2.60       ----

> <Gold.Chemscore.Fitness>
12.5528

> <Gold.Chemscore.DG>
-15.5025

> <Gold.Chemscore.ZeroCoef>
-5.4800

> <Gold.Chemscore.Hbond>
1.8716

> <Gold.Chemscore.Metal>
0.0000

> <Gold.Chemscore.Lipo>
78.9405

> <Gold.Chemscore.Internal_Hbond>
0.0000

> <Gold.Chemscore.DEClash>
0.3493

> <Gold.Chemscore.DEInternal>
2.6004

> <Gold.Chemscore.Rot>
2.1346

> <Gold.Chemscore.Internal.Correction>
   9.000000E+99

> <Gold.Chemscore.Hbonds>
donor molecule, donor type, donor heavy atom, donor atom, acceptor molecule, acceptor atom, score
      L1  H    20    41       P1  7948  0.97
      P1  H  7997  8010       L1     1  0.88

> <Gold.Chemscore.Hbond.Weighted>
-6.2511

> <Gold.Chemscore.Metal.Weighted>
-0.0000

> <Gold.Chemscore.Lipo.Weighted>
-9.2360

> <Gold.Chemscore.Internal_Hbond.Weighted>
0.0000

> <Gold.Chemscore.DEClash.Weighted>
0.3493

> <Gold.Chemscore.DEInternal.Weighted>
2.6004

> <Gold.Chemscore.Rot.Weighted>
5.4646

> <Gold.Chemscore.Internal.Correction.Weighted>
   9.000000E+99

> <Gold.Protein.RotatedTorsions>
[ 6907 6896 6895 6894 ] final -102.85 input  -60.11 | X-H torsion
[ 7974 7965 7964 7962 ] final  -14.15 input  175.53 | X-H torsion
[ 8008 7997 7996 7995 ] final   43.50 input   59.86 | X-H torsion
[ 10167 10162 10161 10158 ] final -171.12 input  -65.29 | X-H torsion
[ 10718 10713 10712 10709 ] final  140.20 input   66.30 | X-H torsion
[ 10763 10752 10751 10750 ] final  -57.69 input  -60.55 | X-H torsion
[ 11005 11000 10999 10996 ] final  124.42 input  -57.11 | X-H torsion

> <Gold.Protein.ActiveResidues>
 VAL166  LYS551  ARG553  GLY616  TRP617  ASP618  TYR619  PRO620  LYS621  CYS622 
 ASP623  PHE694  ASN695  SER759  ASP760  ASP761  ALA762  ILE779  LEU786  VAL792 
 PHE793  MET794  SER795  GLU796  ALA797  LYS798  CYS799  TRP800  GLU811  SER814 

> <Gold.Protein.RotatedAtoms>
  150.7214  134.0519  159.3801 H   0  0  0  0  0  0  0  0  0  0  0  0  # atno 6907 bound_to 6896
  151.8496  135.0560  160.0467 H   0  0  0  0  0  0  0  0  0  0  0  0  # atno 6908 bound_to 6896
  152.2800  133.5426  159.5528 H   0  0  0  0  0  0  0  0  0  0  0  0  # atno 6909 bound_to 6896
  146.2086  140.3306  142.8398 H   0  0  0  0  0  0  0  0  0  0  0  0  # atno 7974 bound_to 7965
  155.3038  140.3386  155.4246 H   0  0  0  0  0  0  0  0  0  0  0  0  # atno 8008 bound_to 7997
  156.1989  140.1725  156.7980 H   0  0  0  0  0  0  0  0  0  0  0  0  # atno 8009 bound_to 7997
  154.5533  140.0701  156.8687 H   0  0  0  0  0  0  0  0  0  0  0  0  # atno 8010 bound_to 7997
  139.5821  144.1400  152.1529 H   0  0  0  0  0  0  0  0  0  0  0  0  # atno 10167 bound_to 10162
  157.4060  131.1022  151.0503 H   0  0  0  0  0  0  0  0  0  0  0  0  # atno 10718 bound_to 10713
  154.2264  135.6368  153.5161 H   0  0  0  0  0  0  0  0  0  0  0  0  # atno 10763 bound_to 10752
  152.9958  135.5509  154.6059 H   0  0  0  0  0  0  0  0  0  0  0  0  # atno 10764 bound_to 10752
  154.5531  135.2903  155.0964 H   0  0  0  0  0  0  0  0  0  0  0  0  # atno 10765 bound_to 10752
  139.9358  134.9639  156.8407 H   0  0  0  0  0  0  0  0  0  0  0  0  # atno 11005 bound_to 11000
  144.8855  140.7456  143.5960 LP  0  0  0  0  0  0  0  0  0  0  0  0  # atno 17320 bound_to 7965
  145.3227  139.1783  143.4579 LP  0  0  0  0  0  0  0  0  0  0  0  0  # atno 17321 bound_to 7965
  140.0955  144.5584  150.7025 LP  0  0  0  0  0  0  0  0  0  0  0  0  # atno 17342 bound_to 10162
  140.7098  143.2496  151.4616 LP  0  0  0  0  0  0  0  0  0  0  0  0  # atno 17343 bound_to 10162
  157.1485  130.6174  149.5575 LP  0  0  0  0  0  0  0  0  0  0  0  0  # atno 17370 bound_to 10713
  155.9836  130.4857  150.6943 LP  0  0  0  0  0  0  0  0  0  0  0  0  # atno 17371 bound_to 10713
  140.6080  134.0109  155.7564 LP  0  0  0  0  0  0  0  0  0  0  0  0  # atno 17394 bound_to 11000
  141.0971  133.9827  157.3142 LP  0  0  0  0  0  0  0  0  0  0  0  0  # atno 17395 bound_to 11000

$$$$
