AV-unprocessed.smi:1157|AV-procd|sdf|4910|dock9
  -GOLD-   22720 3483D 1   1.00000     0.00000
 Structure written by MMmdl.
 55 57  0  0  0  0  0  0  0  0  4 V2000
  150.2002  133.2567  154.9892 C   0  0  0  0  0  0  0  0  0  0  0  0
  149.3293  134.5322  155.1890 C   0  0  0  0  0  0  0  0  0  0  0  0
  148.6856  134.3807  156.5992 C   0  0  0  0  0  0  0  0  0  0  0  0
  150.2238  135.8323  155.1230 C   0  0  0  0  0  0  0  0  0  0  0  0
  151.3581  135.7694  156.0514 N   0  5  0  0  0  0  0  0  0  0  0  0
  151.6238  136.6807  157.0250 C   0  0  0  0  0  0  0  0  0  0  0  0
  151.8913  136.4600  158.2113 O   0  0  0  0  0  0  0  0  0  0  0  0
  151.5529  137.9433  156.5659 N   0  0  0  0  0  0  0  0  0  0  0  0
  151.7181  139.1643  157.2734 C   0  0  0  0  0  0  0  0  0  0  0  0
  151.2106  140.3402  156.6830 C   0  0  0  0  0  0  0  0  0  0  0  0
  151.3586  141.5764  157.3443 C   0  0  0  0  0  0  0  0  0  0  0  0
  152.0289  141.6285  158.5891 C   0  0  0  0  0  0  0  0  0  0  0  0
  152.2025  142.8235  159.3123 N   0  0  0  0  0  0  0  0  0  0  0  0
  151.3684  143.9909  159.0771 C   0  0  0  0  0  0  0  0  0  0  0  0
  151.8051  144.9945  160.1435 C   0  0  0  0  0  0  0  0  0  0  0  0
  152.1971  144.1010  161.3211 C   0  0  0  0  0  0  0  0  0  0  0  0
  152.7497  142.8316  160.6613 C   0  0  0  0  0  0  0  0  0  0  0  0
  152.5156  140.4773  159.1107 N   0  3  0  0  0  0  0  0  0  0  0  0
  152.3946  139.2728  158.5114 C   0  0  0  0  0  0  0  0  0  0  0  0
  148.2189  134.5206  154.1516 N   0  3  0  0  0  0  0  0  0  0  0  0
  147.8321  133.1999  153.5663 C   0  0  0  0  0  0  0  0  0  0  0  0
  146.9226  133.3986  152.3430 C   0  0  0  0  0  0  0  0  0  0  0  0
  145.7708  134.1420  152.7154 O   0  0  0  0  0  0  0  0  0  0  0  0
  146.1115  135.4381  153.1865 C   0  0  0  0  0  0  0  0  0  0  0  0
  146.9898  135.3214  154.4430 C   0  0  0  0  0  0  0  0  0  0  0  0
  150.8776  133.0822  155.8275 H   0  0  0  0  0  0  0  0  0  0  0  0
  150.8248  133.2864  154.0947 H   0  0  0  0  0  0  0  0  0  0  0  0
  149.5734  132.3672  154.9146 H   0  0  0  0  0  0  0  0  0  0  0  0
  149.4252  134.1548  157.3700 H   0  0  0  0  0  0  0  0  0  0  0  0
  147.9709  133.5569  156.6127 H   0  0  0  0  0  0  0  0  0  0  0  0
  148.1563  135.2727  156.9389 H   0  0  0  0  0  0  0  0  0  0  0  0
  150.5819  135.9582  154.1014 H   0  0  0  0  0  0  0  0  0  0  0  0
  149.5894  136.7005  155.3039 H   0  0  0  0  0  0  0  0  0  0  0  0
  151.2530  138.0334  155.6061 H   0  0  0  0  0  0  0  0  0  0  0  0
  150.6991  140.2965  155.7324 H   0  0  0  0  0  0  0  0  0  0  0  0
  150.9491  142.4668  156.8913 H   0  0  0  0  0  0  0  0  0  0  0  0
  151.5024  144.3883  158.0705 H   0  0  0  0  0  0  0  0  0  0  0  0
  150.3195  143.7212  159.2080 H   0  0  0  0  0  0  0  0  0  0  0  0
  152.6788  145.5476  159.7954 H   0  0  0  0  0  0  0  0  0  0  0  0
  151.0262  145.7155  160.3926 H   0  0  0  0  0  0  0  0  0  0  0  0
  152.9123  144.5741  161.9943 H   0  0  0  0  0  0  0  0  0  0  0  0
  151.3064  143.8534  161.9004 H   0  0  0  0  0  0  0  0  0  0  0  0
  152.4681  141.9427  161.2273 H   0  0  0  0  0  0  0  0  0  0  0  0
  153.8378  142.8702  160.5998 H   0  0  0  0  0  0  0  0  0  0  0  0
  152.8506  138.4512  159.0431 H   0  0  0  0  0  0  0  0  0  0  0  0
  148.7006  132.6298  153.2436 H   0  0  0  0  0  0  0  0  0  0  0  0
  147.3079  132.5930  154.3057 H   0  0  0  0  0  0  0  0  0  0  0  0
  147.4569  133.9073  151.5387 H   0  0  0  0  0  0  0  0  0  0  0  0
  146.6049  132.4321  151.9515 H   0  0  0  0  0  0  0  0  0  0  0  0
  146.6220  136.0022  152.4042 H   0  0  0  0  0  0  0  0  0  0  0  0
  145.1942  135.9786  153.4199 H   0  0  0  0  0  0  0  0  0  0  0  0
  146.4101  134.8551  155.2405 H   0  0  0  0  0  0  0  0  0  0  0  0
  147.2323  136.3293  154.7731 H   0  0  0  0  0  0  0  0  0  0  0  0
  148.6417  135.0092  153.3757 H   0  0  0  0  0  0  0  0  0  0  0  0
  153.0022  140.5195  160.0060 H   0  0  0  0  0  0  0  0  0  0  0  0
  1  2  1  0  0  0  0
  1 26  1  0  0  0  0
  1 27  1  0  0  0  0
  1 28  1  0  0  0  0
  2  3  1  0  0  0  0
  2  4  1  0  0  0  0
  2 20  1  0  0  0  0
  3 29  1  0  0  0  0
  3 30  1  0  0  0  0
  3 31  1  0  0  0  0
  4  5  1  0  0  0  0
  4 32  1  0  0  0  0
  4 33  1  0  0  0  0
  5  6  1  0  0  0  0
  6  7  2  0  0  0  0
  6  8  1  0  0  0  0
  8  9  1  0  0  0  0
  8 34  1  0  0  0  0
  9 19  1  0  0  0  0
  9 10  2  0  0  0  0
 10 11  1  0  0  0  0
 10 35  1  0  0  0  0
 11 12  2  0  0  0  0
 11 36  1  0  0  0  0
 12 13  1  0  0  0  0
 12 18  1  0  0  0  0
 13 17  1  0  0  0  0
 13 14  1  0  0  0  0
 14 15  1  0  0  0  0
 14 37  1  0  0  0  0
 14 38  1  0  0  0  0
 15 16  1  0  0  0  0
 15 39  1  0  0  0  0
 15 40  1  0  0  0  0
 16 17  1  0  0  0  0
 16 41  1  0  0  0  0
 16 42  1  0  0  0  0
 17 43  1  0  0  0  0
 17 44  1  0  0  0  0
 18 19  2  0  0  0  0
 18 55  1  0  0  0  0
 19 45  1  0  0  0  0
 20 25  1  0  0  0  0
 20 21  1  0  0  0  0
 20 54  1  0  0  0  0
 21 22  1  0  0  0  0
 21 46  1  0  0  0  0
 21 47  1  0  0  0  0
 22 23  1  0  0  0  0
 22 48  1  0  0  0  0
 22 49  1  0  0  0  0
 23 24  1  0  0  0  0
 24 25  1  0  0  0  0
 24 50  1  0  0  0  0
 24 51  1  0  0  0  0
 25 52  1  0  0  0  0
 25 53  1  0  0  0  0
M  CHG  1   5  -1
M  CHG  1  18   1
M  CHG  1  20   1
M  END
> <s_m_source_file>
AV-unprocessed.smi

> <i_m_source_file_index>
1157

> <i_lp_mmshare_version>
43012

> <i_f3d_flags>
0

> <s_epik_input>
W0NIMl0xW0NIMl1PW0NIMl1bQ0gyXU4xQyhbQ0gzXSkoW0NIM10pW0NIMl1bTkhdQyg9TylbTkhdYzJbY0hdW2NIXWMobltjSF0yKU4zW0NIMl1bQ0gyXVtDSDJdW0NIMl0z

> <s_epik_cmdline>
J2VwaWtfcHl0aG9uJywgJy1waCcsICc3LjAnLCAnLXRuJywgJzgnLCAnLW1hJywgJzIwMCcsICctbWV0YWxfYmluZGluZycsICctaW1hZScsICc8aW5maWxlLm1hZT4nLCAnLW9tYWUnLCAnPG91dGZpbGUubWFlPic=

> <r_lp_tautomer_probability>
0.999994

> <r_epik_Ionization_Penalty>
8.57565

> <r_epik_Ionization_Penalty_Charging>
8.57565

> <r_epik_Ionization_Penalty_Neutral>
3.57932e-06

> <r_epik_State_Penalty>
8.56988

> <r_epik_Charging_Adjusted_Penalty>
17.1455

> <i_epik_Tot_Q>
1

> <i_epik_Tot_abs_Q>
3

> <r_epik_Metal_State_Penalty>
4.56714

> <b_epik_Metal_Only>
1

> <s_lp_Force_Field>
OPLS_2005

> <r_lp_Energy>
57.9076

> <b_lp_Chiralities_Consistent>
1

> <s_lp_Variant>
AV-unprocessed.smi:1157-5

> <Gold.Version>
5.8.1

> <Gold.Id.Protein>
6NUR|6NUR_protein|mol2

> <Gold.PLP.Fitness>
53.1949

> <Gold.PLP.PLP>
-43.0137

> <Gold.PLP.part.hbond>
-3.0000

> <Gold.PLP.part.metal>
0.0000

> <Gold.PLP.part.buried>
-5.2930

> <Gold.PLP.part.nonpolar>
-34.6470

> <Gold.PLP.part.repulsive>
0.3035

> <Gold.PLP.ligand.clash>
0.0000

> <Gold.PLP.ligand.torsion>
1.5809

> <Gold.PLP.Chemscore.Hbond>
4.3143

> <Gold.PLP.Chemscore.CHOScore>
0.0000

> <Gold.PLP.Chemscore.Metal>
0.0000

> <Gold.Chemscore.Hbonds>
donor molecule, donor type, donor heavy atom, donor atom, acceptor molecule, acceptor atom, score
      L1  H    20    54       P1  7948  2.00
      P1  H  6896  6908       L1     7  0.29
      P1  H 10752 10764       L1     5  1.76

> <Gold.PLP.Chemscore.Internal.Correction>
0.4001

> <Gold.Rescore>
     Score         DG    S(hbond)    S(metal)    S(lipo)     H(rot)  DE(clash)    DE(int)     intcor
     16.60     -18.90       1.62        0.00      99.56       1.42       0.01       2.29       ----

> <Gold.Chemscore.Fitness>
16.5974

> <Gold.Chemscore.DG>
-18.9011

> <Gold.Chemscore.ZeroCoef>
-5.4800

> <Gold.Chemscore.Hbond>
1.6224

> <Gold.Chemscore.Metal>
0.0000

> <Gold.Chemscore.Lipo>
99.5603

> <Gold.Chemscore.Internal_Hbond>
0.0000

> <Gold.Chemscore.DEClash>
0.0098

> <Gold.Chemscore.DEInternal>
2.2940

> <Gold.Chemscore.Rot>
1.4243

> <Gold.Chemscore.Internal.Correction>
   9.000000E+99

> <Gold.Chemscore.Hbonds>
donor molecule, donor type, donor heavy atom, donor atom, acceptor molecule, acceptor atom, score
      L1  H    20    54       P1  7948  0.69
      P1  H  6896  6908       L1     7  0.29
      P1  H 10752 10764       L1     5  0.24

> <Gold.Chemscore.Hbond.Weighted>
-5.4188

> <Gold.Chemscore.Metal.Weighted>
-0.0000

> <Gold.Chemscore.Lipo.Weighted>
-11.6486

> <Gold.Chemscore.Internal_Hbond.Weighted>
0.0000

> <Gold.Chemscore.DEClash.Weighted>
0.0098

> <Gold.Chemscore.DEInternal.Weighted>
2.2940

> <Gold.Chemscore.Rot.Weighted>
3.6462

> <Gold.Chemscore.Internal.Correction.Weighted>
   9.000000E+99

> <Gold.Protein.RotatedTorsions>
[ 6907 6896 6895 6894 ] final -123.96 input  -60.11 | X-H torsion
[ 7974 7965 7964 7962 ] final -168.68 input  175.53 | X-H torsion
[ 8008 7997 7996 7995 ] final  135.61 input   59.86 | X-H torsion
[ 10167 10162 10161 10158 ] final   37.22 input  -65.29 | X-H torsion
[ 10718 10713 10712 10709 ] final  161.95 input   66.30 | X-H torsion
[ 10763 10752 10751 10750 ] final  -50.60 input  -60.55 | X-H torsion
[ 11005 11000 10999 10996 ] final   88.44 input  -57.11 | X-H torsion

> <Gold.Protein.ActiveResidues>
 VAL166  LYS551  ARG553  GLY616  TRP617  ASP618  TYR619  PRO620  LYS621  CYS622 
 ASP623  PHE694  ASN695  SER759  ASP760  ASP761  ALA762  ILE779  LEU786  VAL792 
 PHE793  MET794  SER795  GLU796  ALA797  LYS798  CYS799  TRP800  GLU811  SER814 

> <Gold.Protein.RotatedAtoms>
  150.8722  133.7490  159.2957 H   0  0  0  0  0  0  0  0  0  0  0  0  # atno 6907 bound_to 6896
  151.5098  135.1063  159.9860 H   0  0  0  0  0  0  0  0  0  0  0  0  # atno 6908 bound_to 6896
  152.4703  133.7969  159.6988 H   0  0  0  0  0  0  0  0  0  0  0  0  # atno 6909 bound_to 6896
  144.7199  140.2334  143.6301 H   0  0  0  0  0  0  0  0  0  0  0  0  # atno 7974 bound_to 7965
  156.3003  140.2466  156.3610 H   0  0  0  0  0  0  0  0  0  0  0  0  # atno 8008 bound_to 7997
  154.8877  140.0410  157.1839 H   0  0  0  0  0  0  0  0  0  0  0  0  # atno 8009 bound_to 7997
  154.8630  140.2923  155.5532 H   0  0  0  0  0  0  0  0  0  0  0  0  # atno 8010 bound_to 7997
  140.4054  144.1667  150.6136 H   0  0  0  0  0  0  0  0  0  0  0  0  # atno 10167 bound_to 10162
  157.1294  131.0512  151.2378 H   0  0  0  0  0  0  0  0  0  0  0  0  # atno 10718 bound_to 10713
  154.1130  135.6546  153.4888 H   0  0  0  0  0  0  0  0  0  0  0  0  # atno 10763 bound_to 10752
  153.0250  135.5252  154.7173 H   0  0  0  0  0  0  0  0  0  0  0  0  # atno 10764 bound_to 10752
  154.6359  135.2982  155.0131 H   0  0  0  0  0  0  0  0  0  0  0  0  # atno 10765 bound_to 10752
  139.8896  134.8488  156.3000 H   0  0  0  0  0  0  0  0  0  0  0  0  # atno 11005 bound_to 11000
  145.8389  139.2120  143.1839 LP  0  0  0  0  0  0  0  0  0  0  0  0  # atno 17320 bound_to 7965
  146.0364  140.8207  142.9850 LP  0  0  0  0  0  0  0  0  0  0  0  0  # atno 17321 bound_to 7965
  140.4695  143.2418  151.9108 LP  0  0  0  0  0  0  0  0  0  0  0  0  # atno 17342 bound_to 10162
  139.4783  144.5384  151.8564 LP  0  0  0  0  0  0  0  0  0  0  0  0  # atno 17343 bound_to 10162
  157.4406  130.7542  149.7066 LP  0  0  0  0  0  0  0  0  0  0  0  0  # atno 17370 bound_to 10713
  155.9811  130.4022  150.3490 LP  0  0  0  0  0  0  0  0  0  0  0  0  # atno 17371 bound_to 10713
  140.9919  133.7203  156.0827 LP  0  0  0  0  0  0  0  0  0  0  0  0  # atno 17394 bound_to 11000
  140.7613  134.3936  157.5525 LP  0  0  0  0  0  0  0  0  0  0  0  0  # atno 17395 bound_to 11000

$$$$
