AV-unprocessed.smi:1920|AV-procd|sdf|7783|dock2
  -GOLD-   22720 9523D 1   1.00000     0.00000
 Structure written by MMmdl.
 36 37  0  0  0  0  0  0  0  0  1 V2000
  146.7849  142.6005  154.0150 C   0  0  0  0  0  0  0  0  0  0  0  0
  147.9785  141.6430  154.1916 C   0  0  2  0  0  0  0  0  0  0  0  0
  147.5604  140.2362  154.6636 C   0  0  0  0  0  0  0  0  0  0  0  0
  147.0821  139.3984  153.5798 N   0  0  0  0  0  0  0  0  0  0  0  0
  147.0885  139.7007  152.2245 C   0  0  0  0  0  0  0  0  0  0  0  0
  146.5450  138.6142  151.5771 C   0  0  0  0  0  0  0  0  0  0  0  0
  146.2036  137.6361  152.5082 N   0  0  0  0  0  0  0  0  0  0  0  0
  146.5537  138.1703  153.6712 C   0  0  0  0  0  0  0  0  0  0  0  0
  148.9355  142.1989  155.1441 N   0  0  0  0  0  0  0  0  0  0  0  0
  150.0628  141.5985  155.5566 C   0  0  0  0  0  0  0  0  0  0  0  0
  150.4183  140.4855  155.1695 O   0  0  0  0  0  0  0  0  0  0  0  0
  150.9214  142.3745  156.5609 C   0  0  0  0  0  0  0  0  0  0  0  0
  150.9053  141.7706  157.9823 C   0  0  1  0  0  0  0  0  0  0  0  0
  151.6933  140.4884  158.1040 C   0  0  0  0  0  0  0  0  0  0  0  0
  152.5994  140.5321  159.0778 C   0  0  0  0  0  0  0  0  0  0  0  0
  152.6024  141.8488  159.8032 C   0  0  0  0  0  0  0  0  0  0  0  0
  151.5559  142.6947  159.0437 C   0  0  0  0  0  0  0  0  0  0  0  0
  146.0896  142.2373  153.2581 H   0  0  0  0  0  0  0  0  0  0  0  0
  147.1147  143.5900  153.6968 H   0  0  0  0  0  0  0  0  0  0  0  0
  146.2316  142.7187  154.9471 H   0  0  0  0  0  0  0  0  0  0  0  0
  148.4750  141.5359  153.2251 H   0  0  0  0  0  0  0  0  0  0  0  0
  148.4038  139.7291  155.1345 H   0  0  0  0  0  0  0  0  0  0  0  0
  146.7767  140.3064  155.4196 H   0  0  0  0  0  0  0  0  0  0  0  0
  147.4665  140.6385  151.8442 H   0  0  0  0  0  0  0  0  0  0  0  0
  146.3766  138.4616  150.5212 H   0  0  0  0  0  0  0  0  0  0  0  0
  146.4186  137.6574  154.6122 H   0  0  0  0  0  0  0  0  0  0  0  0
  148.7258  143.1135  155.5170 H   0  0  0  0  0  0  0  0  0  0  0  0
  151.9489  142.4306  156.1973 H   0  0  0  0  0  0  0  0  0  0  0  0
  150.5520  143.3999  156.5960 H   0  0  0  0  0  0  0  0  0  0  0  0
  149.8781  141.5517  158.2783 H   0  0  0  0  0  0  0  0  0  0  0  0
  151.5107  139.6347  157.4675 H   0  0  0  0  0  0  0  0  0  0  0  0
  153.2631  139.7242  159.3481 H   0  0  0  0  0  0  0  0  0  0  0  0
  152.3203  141.6994  160.8458 H   0  0  0  0  0  0  0  0  0  0  0  0
  153.5931  142.3031  159.7703 H   0  0  0  0  0  0  0  0  0  0  0  0
  152.0459  143.5477  158.5723 H   0  0  0  0  0  0  0  0  0  0  0  0
  150.8062  143.0975  159.7254 H   0  0  0  0  0  0  0  0  0  0  0  0
  1  2  1  0  0  0  0
  1 18  1  0  0  0  0
  1 19  1  0  0  0  0
  1 20  1  0  0  0  0
  2  3  1  0  0  0  0
  2  9  1  0  0  0  0
  2 21  1  0  0  0  0
  3  4  1  0  0  0  0
  3 22  1  0  0  0  0
  3 23  1  0  0  0  0
  4  8  1  0  0  0  0
  4  5  1  0  0  0  0
  5  6  2  0  0  0  0
  5 24  1  0  0  0  0
  6  7  1  0  0  0  0
  6 25  1  0  0  0  0
  7  8  2  0  0  0  0
  8 26  1  0  0  0  0
  9 10  1  0  0  0  0
  9 27  1  0  0  0  0
 10 11  2  0  0  0  0
 10 12  1  0  0  0  0
 12 13  1  0  0  0  0
 12 28  1  0  0  0  0
 12 29  1  0  0  0  0
 13 17  1  0  0  0  0
 13 14  1  0  0  0  0
 13 30  1  0  0  0  0
 14 15  2  0  0  0  0
 14 31  1  0  0  0  0
 15 16  1  0  0  0  0
 15 32  1  0  0  0  0
 16 17  1  0  0  0  0
 16 33  1  0  0  0  0
 16 34  1  0  0  0  0
 17 35  1  0  0  0  0
 17 36  1  0  0  0  0
M  END
> <s_m_source_file>
AV-unprocessed.smi

> <i_m_source_file_index>
1920

> <i_lp_mmshare_version>
43012

> <i_f3d_flags>
0

> <s_epik_input>
W2NIXTFuW2NIXVtjSF1uMVtDSDJdW0NAQEhdKFtDSDNdKVtOSF1DKD1PKVtDSDJdW0NAQEhdMltDSF09W0NIXVtDSDJdW0NIMl0y

> <s_epik_cmdline>
J2VwaWtfcHl0aG9uJywgJy1waCcsICc3LjAnLCAnLXRuJywgJzgnLCAnLW1hJywgJzIwMCcsICctbWV0YWxfYmluZGluZycsICctaW1hZScsICc8aW5maWxlLm1hZT4nLCAnLW9tYWUnLCAnPG91dGZpbGUubWFlPic=

> <r_lp_tautomer_probability>
1

> <r_epik_Ionization_Penalty>
0.635367

> <r_epik_Ionization_Penalty_Charging>
0.635367

> <r_epik_Ionization_Penalty_Neutral>
2.1249e-08

> <r_epik_State_Penalty>
0.65258

> <r_epik_Charging_Adjusted_Penalty>
1.28795

> <i_epik_Tot_Q>
0

> <i_epik_Tot_abs_Q>
0

> <r_epik_Metal_State_Penalty>
0.310403

> <b_epik_Metal_Only>
0

> <s_lp_Force_Field>
OPLS_2005

> <r_lp_Energy>
18.7511

> <b_lp_Chiralities_Consistent>
1

> <s_lp_Variant>
AV-unprocessed.smi:1920-7

> <Gold.Version>
5.8.1

> <Gold.Id.Protein>
6NUR|6NUR_protein|mol2

> <Gold.PLP.Fitness>
43.6179

> <Gold.PLP.PLP>
-35.0577

> <Gold.PLP.part.hbond>
-2.0000

> <Gold.PLP.part.metal>
0.0000

> <Gold.PLP.part.buried>
-2.1635

> <Gold.PLP.part.nonpolar>
-31.6516

> <Gold.PLP.part.repulsive>
0.5344

> <Gold.PLP.ligand.clash>
0.0000

> <Gold.PLP.ligand.torsion>
0.4633

> <Gold.PLP.Chemscore.Hbond>
2.0000

> <Gold.PLP.Chemscore.CHOScore>
1.1191

> <Gold.PLP.Chemscore.Metal>
0.0000

> <Gold.Chemscore.Hbonds>
donor molecule, donor type, donor heavy atom, donor atom, acceptor molecule, acceptor atom, score
      L1  H     9    27       P1  8028  1.00
      P1  H  7989  7998       L1    11  0.82
      L1  C     5    24       P1  7957  0.44
      L1  C     6    25       P1 10171  0.60

> <Gold.PLP.Chemscore.Internal.Correction>
0.1297

> <Gold.Rescore>
     Score         DG    S(hbond)    S(metal)    S(lipo)     H(rot)  DE(clash)    DE(int)     intcor
     15.25     -15.85       1.56        0.00      86.30       1.93       0.05       0.55       ----

> <Gold.Chemscore.Fitness>
15.2495

> <Gold.Chemscore.DG>
-15.8479

> <Gold.Chemscore.ZeroCoef>
-5.4800

> <Gold.Chemscore.Hbond>
1.5608

> <Gold.Chemscore.Metal>
0.0000

> <Gold.Chemscore.Lipo>
86.3026

> <Gold.Chemscore.Internal_Hbond>
0.0000

> <Gold.Chemscore.DEClash>
0.0478

> <Gold.Chemscore.DEInternal>
0.5505

> <Gold.Chemscore.Rot>
1.9306

> <Gold.Chemscore.Internal.Correction>
   9.000000E+99

> <Gold.Chemscore.Hbonds>
donor molecule, donor type, donor heavy atom, donor atom, acceptor molecule, acceptor atom, score
      L1  H     9    27       P1  8028  0.97
      P1  H  7989  7998       L1    11  0.35

> <Gold.Chemscore.Hbond.Weighted>
-5.2129

> <Gold.Chemscore.Metal.Weighted>
-0.0000

> <Gold.Chemscore.Lipo.Weighted>
-10.0974

> <Gold.Chemscore.Internal_Hbond.Weighted>
0.0000

> <Gold.Chemscore.DEClash.Weighted>
0.0478

> <Gold.Chemscore.DEInternal.Weighted>
0.5505

> <Gold.Chemscore.Rot.Weighted>
4.9424

> <Gold.Chemscore.Internal.Correction.Weighted>
   9.000000E+99

> <Gold.Protein.RotatedTorsions>
[ 6907 6896 6895 6894 ] final -135.45 input  -60.11 | X-H torsion
[ 7974 7965 7964 7962 ] final   77.38 input  175.53 | X-H torsion
[ 8008 7997 7996 7995 ] final -100.91 input   59.86 | X-H torsion
[ 10167 10162 10161 10158 ] final  -26.35 input  -65.29 | X-H torsion
[ 10718 10713 10712 10709 ] final    2.27 input   66.30 | X-H torsion
[ 10763 10752 10751 10750 ] final  -10.96 input  -60.55 | X-H torsion
[ 11005 11000 10999 10996 ] final -111.62 input  -57.11 | X-H torsion

> <Gold.Protein.ActiveResidues>
 VAL166  LYS551  ARG553  GLY616  TRP617  ASP618  TYR619  PRO620  LYS621  CYS622 
 ASP623  PHE694  ASN695  SER759  ASP760  ASP761  ALA762  ILE779  LEU786  VAL792 
 PHE793  MET794  SER795  GLU796  ALA797  LYS798  CYS799  TRP800  GLU811  SER814 

> <Gold.Protein.RotatedAtoms>
  150.9980  133.6084  159.2698 H   0  0  0  0  0  0  0  0  0  0  0  0  # atno 6907 bound_to 6896
  151.3280  135.0834  159.9338 H   0  0  0  0  0  0  0  0  0  0  0  0  # atno 6908 bound_to 6896
  152.5265  133.9615  159.7773 H   0  0  0  0  0  0  0  0  0  0  0  0  # atno 6909 bound_to 6896
  145.6907  139.2551  143.1761 H   0  0  0  0  0  0  0  0  0  0  0  0  # atno 7974 bound_to 7965
  154.8352  140.0438  157.1504 H   0  0  0  0  0  0  0  0  0  0  0  0  # atno 8008 bound_to 7997
  154.9108  140.3013  155.5247 H   0  0  0  0  0  0  0  0  0  0  0  0  # atno 8009 bound_to 7997
  156.2989  140.2358  156.4147 H   0  0  0  0  0  0  0  0  0  0  0  0  # atno 8010 bound_to 7997
  140.7283  143.4186  151.0988 H   0  0  0  0  0  0  0  0  0  0  0  0  # atno 10167 bound_to 10162
  156.8605  130.5585  149.5663 H   0  0  0  0  0  0  0  0  0  0  0  0  # atno 10718 bound_to 10713
  153.4768  135.7017  153.5961 H   0  0  0  0  0  0  0  0  0  0  0  0  # atno 10763 bound_to 10752
  153.4192  135.3829  155.2100 H   0  0  0  0  0  0  0  0  0  0  0  0  # atno 10764 bound_to 10752
  154.8723  135.3923  154.4212 H   0  0  0  0  0  0  0  0  0  0  0  0  # atno 10765 bound_to 10752
  141.0723  133.9358  157.2459 H   0  0  0  0  0  0  0  0  0  0  0  0  # atno 11005 bound_to 11000
  146.0884  140.7684  142.9607 LP  0  0  0  0  0  0  0  0  0  0  0  0  # atno 17320 bound_to 7965
  144.6997  140.3598  143.7166 LP  0  0  0  0  0  0  0  0  0  0  0  0  # atno 17321 bound_to 7965
  139.7829  143.8330  152.3140 LP  0  0  0  0  0  0  0  0  0  0  0  0  # atno 17342 bound_to 10162
  139.8287  144.7263  150.9478 LP  0  0  0  0  0  0  0  0  0  0  0  0  # atno 17343 bound_to 10162
  156.0779  130.5797  150.9508 LP  0  0  0  0  0  0  0  0  0  0  0  0  # atno 17370 bound_to 10713
  157.6252  131.0926  150.8546 LP  0  0  0  0  0  0  0  0  0  0  0  0  # atno 17371 bound_to 10713
  139.9536  135.0170  156.9065 LP  0  0  0  0  0  0  0  0  0  0  0  0  # atno 17394 bound_to 11000
  140.5646  134.0502  155.7410 LP  0  0  0  0  0  0  0  0  0  0  0  0  # atno 17395 bound_to 11000

$$$$
