AV-unprocessed.smi:2151|AV-procd|sdf|8760|dock6
  -GOLD-   2272011533D 1   1.00000     0.00000
 Structure written by MMmdl.
 39 40  0  0  0  0  0  0  0  0  1 V2000
  148.6112  140.3923  154.8392 C   0  0  0  0  0  0  0  0  0  0  0  0
  148.8940  141.3253  156.0259 C   0  0  2  0  0  0  0  0  0  0  0  0
  149.8801  140.6925  156.9001 N   0  0  0  0  0  0  0  0  0  0  0  0
  151.0995  140.2669  156.5352 C   0  0  0  0  0  0  0  0  0  0  0  0
  151.5245  140.3329  155.3811 O   0  0  0  0  0  0  0  0  0  0  0  0
  151.9626  139.6679  157.6546 C   0  0  0  0  0  0  0  0  0  0  0  0
  152.3697  140.6595  158.6642 N   0  0  0  0  0  0  0  0  0  0  0  0
  152.1443  142.0162  158.3595 C   0  0  0  0  0  0  0  0  0  0  0  0
  152.4775  143.0201  159.1933 C   0  0  0  0  0  0  0  0  0  0  0  0
  152.1603  144.4711  158.8658 C   0  0  0  0  0  0  0  0  0  0  0  0
  152.8516  144.8854  157.8038 F   0  0  0  0  0  0  0  0  0  0  0  0
  150.8629  144.6004  158.5923 F   0  0  0  0  0  0  0  0  0  0  0  0
  152.4497  145.2717  159.8924 F   0  0  0  0  0  0  0  0  0  0  0  0
  153.0660  142.6366  160.4615 C   0  0  0  0  0  0  0  0  0  0  0  0
  153.2754  141.3428  160.7747 C   0  0  0  0  0  0  0  0  0  0  0  0
  152.9200  140.2632  159.8512 C   0  0  0  0  0  0  0  0  0  0  0  0
  153.1035  139.0771  160.1274 O   0  0  0  0  0  0  0  0  0  0  0  0
  147.6099  141.6537  156.8158 C   0  0  1  0  0  0  0  0  0  0  0  0
  147.7946  142.6304  157.9802 C   0  0  0  0  0  0  0  0  0  0  0  0
  146.3985  143.1873  158.1347 C   0  0  0  0  0  0  0  0  0  0  0  0
  145.9495  143.3032  156.6815 C   0  0  0  0  0  0  0  0  0  0  0  0
  146.6482  142.2835  155.9712 O   0  0  0  0  0  0  0  0  0  0  0  0
  147.9020  140.8430  154.1445 H   0  0  0  0  0  0  0  0  0  0  0  0
  148.1921  139.4417  155.1711 H   0  0  0  0  0  0  0  0  0  0  0  0
  149.5236  140.1789  154.2815 H   0  0  0  0  0  0  0  0  0  0  0  0
  149.2973  142.2560  155.6230 H   0  0  0  0  0  0  0  0  0  0  0  0
  149.6201  140.5913  157.8706 H   0  0  0  0  0  0  0  0  0  0  0  0
  151.4216  138.8499  158.1346 H   0  0  0  0  0  0  0  0  0  0  0  0
  152.8364  139.2023  157.1968 H   0  0  0  0  0  0  0  0  0  0  0  0
  151.6682  142.1892  157.4052 H   0  0  0  0  0  0  0  0  0  0  0  0
  153.3469  143.3998  161.1722 H   0  0  0  0  0  0  0  0  0  0  0  0
  153.7170  141.0940  161.7288 H   0  0  0  0  0  0  0  0  0  0  0  0
  147.1613  140.7349  157.1978 H   0  0  0  0  0  0  0  0  0  0  0  0
  148.1660  142.1506  158.8863 H   0  0  0  0  0  0  0  0  0  0  0  0
  148.4856  143.4295  157.7077 H   0  0  0  0  0  0  0  0  0  0  0  0
  145.7685  142.4741  158.6681 H   0  0  0  0  0  0  0  0  0  0  0  0
  146.3695  144.1376  158.6686 H   0  0  0  0  0  0  0  0  0  0  0  0
  144.8700  143.1973  156.5717 H   0  0  0  0  0  0  0  0  0  0  0  0
  146.2387  144.2705  156.2690 H   0  0  0  0  0  0  0  0  0  0  0  0
  1  2  1  0  0  0  0
  1 23  1  0  0  0  0
  1 24  1  0  0  0  0
  1 25  1  0  0  0  0
  2  3  1  0  0  0  0
  2 18  1  0  0  0  0
  2 26  1  0  0  0  0
  3  4  1  0  0  0  0
  3 27  1  0  0  0  0
  4  5  2  0  0  0  0
  4  6  1  0  0  0  0
  6  7  1  0  0  0  0
  6 28  1  0  0  0  0
  6 29  1  0  0  0  0
  7 16  1  0  0  0  0
  7  8  1  0  0  0  0
  8  9  2  0  0  0  0
  8 30  1  0  0  0  0
  9 10  1  0  0  0  0
  9 14  1  0  0  0  0
 10 11  1  0  0  0  0
 10 12  1  0  0  0  0
 10 13  1  0  0  0  0
 14 15  2  0  0  0  0
 14 31  1  0  0  0  0
 15 16  1  0  0  0  0
 15 32  1  0  0  0  0
 16 17  2  0  0  0  0
 18 22  1  0  0  0  0
 18 19  1  0  0  0  0
 18 33  1  0  0  0  0
 19 20  1  0  0  0  0
 19 34  1  0  0  0  0
 19 35  1  0  0  0  0
 20 21  1  0  0  0  0
 20 36  1  0  0  0  0
 20 37  1  0  0  0  0
 21 22  1  0  0  0  0
 21 38  1  0  0  0  0
 21 39  1  0  0  0  0
M  END
> <s_m_source_file>
AV-unprocessed.smi

> <i_m_source_file_index>
2151

> <i_lp_mmshare_version>
43012

> <i_f3d_flags>
0

> <s_epik_input>
TzFbQ0gyXVtDSDJdW0NIMl1bQ0BIXTFbQ0BIXShbQ0gzXSlbTkhdQyg9TylbQ0gyXW4yW2NIXWMoQyhGKShGKUYpW2NIXVtjSF1jMj1P

> <s_epik_cmdline>
J2VwaWtfcHl0aG9uJywgJy1waCcsICc3LjAnLCAnLXRuJywgJzgnLCAnLW1hJywgJzIwMCcsICctbWV0YWxfYmluZGluZycsICctaW1hZScsICc8aW5maWxlLm1hZT4nLCAnLW9tYWUnLCAnPG91dGZpbGUubWFlPic=

> <r_lp_tautomer_probability>
1

> <r_epik_Ionization_Penalty>
4.20109e-08

> <r_epik_Ionization_Penalty_Charging>
1.89977e-08

> <r_epik_Ionization_Penalty_Neutral>
2.30132e-08

> <r_epik_State_Penalty>
-0

> <r_epik_Charging_Adjusted_Penalty>
1.89977e-08

> <i_epik_Tot_Q>
0

> <i_epik_Tot_abs_Q>
0

> <r_epik_Metal_State_Penalty>
-0

> <b_epik_Metal_Only>
0

> <s_lp_Force_Field>
OPLS_2005

> <r_lp_Energy>
29.4657

> <b_lp_Chiralities_Consistent>
1

> <s_lp_Variant>
AV-unprocessed.smi:2151-3

> <Gold.Version>
5.8.1

> <Gold.Id.Protein>
6NUR|6NUR_protein|mol2

> <Gold.PLP.Fitness>
45.5699

> <Gold.PLP.PLP>
-44.0106

> <Gold.PLP.part.hbond>
-1.0000

> <Gold.PLP.part.metal>
0.0000

> <Gold.PLP.part.buried>
-6.8495

> <Gold.PLP.part.nonpolar>
-36.1586

> <Gold.PLP.part.repulsive>
0.1537

> <Gold.PLP.ligand.clash>
0.5462

> <Gold.PLP.ligand.torsion>
0.2556

> <Gold.PLP.Chemscore.Hbond>
0.8480

> <Gold.PLP.Chemscore.CHOScore>
0.0000

> <Gold.PLP.Chemscore.Metal>
0.0000

> <Gold.Chemscore.Hbonds>
donor molecule, donor type, donor heavy atom, donor atom, acceptor molecule, acceptor atom, score
      P1  H  7989  7998       L1     5  0.90

> <Gold.PLP.Chemscore.Internal.Correction>
0.0727

> <Gold.Rescore>
     Score         DG    S(hbond)    S(metal)    S(lipo)     H(rot)  DE(clash)    DE(int)     intcor
      9.93     -12.52       0.86        0.00      75.37       1.82       0.28       2.31       ----

> <Gold.Chemscore.Fitness>
9.9313

> <Gold.Chemscore.DG>
-12.5203

> <Gold.Chemscore.ZeroCoef>
-5.4800

> <Gold.Chemscore.Hbond>
0.8648

> <Gold.Chemscore.Metal>
0.0000

> <Gold.Chemscore.Lipo>
75.3701

> <Gold.Chemscore.Internal_Hbond>
0.0000

> <Gold.Chemscore.DEClash>
0.2797

> <Gold.Chemscore.DEInternal>
2.3092

> <Gold.Chemscore.Rot>
1.8228

> <Gold.Chemscore.Internal.Correction>
   9.000000E+99

> <Gold.Chemscore.Hbonds>
donor molecule, donor type, donor heavy atom, donor atom, acceptor molecule, acceptor atom, score
      P1  H  7989  7998       L1     5  0.87

> <Gold.Chemscore.Hbond.Weighted>
-2.8885

> <Gold.Chemscore.Metal.Weighted>
-0.0000

> <Gold.Chemscore.Lipo.Weighted>
-8.8183

> <Gold.Chemscore.Internal_Hbond.Weighted>
0.0000

> <Gold.Chemscore.DEClash.Weighted>
0.2797

> <Gold.Chemscore.DEInternal.Weighted>
2.3092

> <Gold.Chemscore.Rot.Weighted>
4.6665

> <Gold.Chemscore.Internal.Correction.Weighted>
   9.000000E+99

> <Gold.Protein.RotatedTorsions>
[ 6907 6896 6895 6894 ] final -135.12 input  -60.11 | X-H torsion
[ 7974 7965 7964 7962 ] final  131.32 input  175.53 | X-H torsion
[ 8008 7997 7996 7995 ] final -177.14 input   59.86 | X-H torsion
[ 10167 10162 10161 10158 ] final -117.63 input  -65.29 | X-H torsion
[ 10718 10713 10712 10709 ] final   19.59 input   66.30 | X-H torsion
[ 10763 10752 10751 10750 ] final -176.13 input  -60.55 | X-H torsion
[ 11005 11000 10999 10996 ] final  -98.58 input  -57.11 | X-H torsion

> <Gold.Protein.ActiveResidues>
 VAL166  LYS551  ARG553  GLY616  TRP617  ASP618  TYR619  PRO620  LYS621  CYS622 
 ASP623  PHE694  ASN695  SER759  ASP760  ASP761  ALA762  ILE779  LEU786  VAL792 
 PHE793  MET794  SER795  GLU796  ALA797  LYS798  CYS799  TRP800  GLU811  SER814 

> <Gold.Protein.RotatedAtoms>
  150.9940  133.6121  159.2704 H   0  0  0  0  0  0  0  0  0  0  0  0  # atno 6907 bound_to 6896
  151.3331  135.0845  159.9355 H   0  0  0  0  0  0  0  0  0  0  0  0  # atno 6908 bound_to 6896
  152.5254  133.9566  159.7751 H   0  0  0  0  0  0  0  0  0  0  0  0  # atno 6909 bound_to 6896
  145.0085  139.4243  143.5256 H   0  0  0  0  0  0  0  0  0  0  0  0  # atno 7974 bound_to 7965
  156.0033  140.1225  157.0526 H   0  0  0  0  0  0  0  0  0  0  0  0  # atno 8008 bound_to 7997
  154.4250  140.1102  156.5796 H   0  0  0  0  0  0  0  0  0  0  0  0  # atno 8009 bound_to 7997
  155.6182  140.3472  155.4646 H   0  0  0  0  0  0  0  0  0  0  0  0  # atno 8010 bound_to 7997
  140.0663  143.4920  152.2004 H   0  0  0  0  0  0  0  0  0  0  0  0  # atno 10167 bound_to 10162
  157.1125  130.6515  149.5901 H   0  0  0  0  0  0  0  0  0  0  0  0  # atno 10718 bound_to 10713
  154.5760  135.2832  155.0780 H   0  0  0  0  0  0  0  0  0  0  0  0  # atno 10763 bound_to 10752
  154.2134  135.6404  153.5126 H   0  0  0  0  0  0  0  0  0  0  0  0  # atno 10764 bound_to 10752
  153.0073  135.5497  154.6399 H   0  0  0  0  0  0  0  0  0  0  0  0  # atno 10765 bound_to 10752
  141.1339  133.8256  157.0858 H   0  0  0  0  0  0  0  0  0  0  0  0  # atno 11005 bound_to 11000
  146.3465  139.9516  142.8728 LP  0  0  0  0  0  0  0  0  0  0  0  0  # atno 17320 bound_to 7965
  145.2055  140.9873  143.4131 LP  0  0  0  0  0  0  0  0  0  0  0  0  # atno 17321 bound_to 7965
  139.5863  144.7532  151.3512 LP  0  0  0  0  0  0  0  0  0  0  0  0  # atno 17342 bound_to 10162
  140.7147  143.7297  150.7633 LP  0  0  0  0  0  0  0  0  0  0  0  0  # atno 17343 bound_to 10162
  155.9847  130.4873  150.6996 LP  0  0  0  0  0  0  0  0  0  0  0  0  # atno 17370 bound_to 10713
  157.4547  131.0876  151.0809 LP  0  0  0  0  0  0  0  0  0  0  0  0  # atno 17371 bound_to 10713
  140.0423  134.9848  157.0984 LP  0  0  0  0  0  0  0  0  0  0  0  0  # atno 17394 bound_to 11000
  140.4117  134.1974  155.7163 LP  0  0  0  0  0  0  0  0  0  0  0  0  # atno 17395 bound_to 11000

$$$$
