AV-unprocessed.smi:241|AV-procd|sdf|1842|dock2
  -GOLD-   2262020453D 1   1.00000     0.00000
 Structure written by MMmdl.
 54 57  0  0  0  0  0  0  0  0  1 V2000
  153.7148  129.3293  154.6799 C   0  0  0  0  0  0  0  0  0  0  0  0
  152.4975  129.5843  155.3616 O   0  0  0  0  0  0  0  0  0  0  0  0
  151.3380  129.3813  154.5665 C   0  0  0  0  0  0  0  0  0  0  0  0
  150.0887  129.2043  155.4512 C   0  0  2  0  0  0  0  0  0  0  0  0
  150.1575  128.0436  156.4426 C   0  0  0  0  0  0  0  0  0  0  0  0
  148.6877  127.8484  156.8023 C   0  0  2  0  0  0  0  0  0  0  0  0
  148.4534  126.5323  157.2815 O   0  0  0  0  0  0  0  0  0  0  0  0
  149.1416  126.2412  158.4869 C   0  0  0  0  0  0  0  0  0  0  0  0
  147.9611  128.1554  155.4840 C   0  0  0  0  0  0  0  0  0  0  0  0
  148.8882  128.9318  154.6660 N   0  0  0  0  0  0  0  0  0  0  0  0
  148.3343  129.9925  154.0385 C   0  0  0  0  0  0  0  0  0  0  0  0
  148.7958  131.2480  154.2795 N   0  0  0  0  0  0  0  0  0  0  0  0
  148.2431  132.2919  153.6537 C   0  0  0  0  0  0  0  0  0  0  0  0
  147.2389  132.3022  152.7738 N   0  0  0  0  0  0  0  0  0  0  0  0
  146.7728  131.0420  152.5369 C   0  0  0  0  0  0  0  0  0  0  0  0
  147.2643  129.8410  153.1195 C   0  0  0  0  0  0  0  0  0  0  0  0
  146.5611  128.7484  152.6299 N   0  0  0  0  0  0  0  0  0  0  0  0
  145.7033  129.2740  151.7980 C   0  0  0  0  0  0  0  0  0  0  0  0
  145.7417  130.6479  151.7026 N   0  0  0  0  0  0  0  0  0  0  0  0
  144.9438  131.4756  150.8465 C   0  0  0  0  0  0  0  0  0  0  0  0
  145.5780  132.5949  150.0191 C   0  0  0  0  0  0  0  0  0  0  0  0
  144.2758  133.4185  150.1516 C   0  0  0  0  0  0  0  0  0  0  0  0
  144.4443  134.9226  150.4280 C   0  0  0  0  0  0  0  0  0  0  0  0
  144.7464  135.6491  149.2544 O   0  0  0  0  0  0  0  0  0  0  0  0
  143.2190  133.2212  149.0444 C   0  0  0  0  0  0  0  0  0  0  0  0
  143.5330  133.9504  147.8761 O   0  0  0  0  0  0  0  0  0  0  0  0
  144.0273  132.5627  151.4142 C   0  0  0  0  0  0  0  0  0  0  0  0
  149.9371  130.1241  156.0185 H   0  0  0  0  0  0  0  0  0  0  0  0
  148.4146  128.5887  157.5569 H   0  0  0  0  0  0  0  0  0  0  0  0
  154.5530  129.4902  155.3577 H   0  0  0  0  0  0  0  0  0  0  0  0
  153.8363  130.0057  153.8329 H   0  0  0  0  0  0  0  0  0  0  0  0
  153.7698  128.3037  154.3165 H   0  0  0  0  0  0  0  0  0  0  0  0
  151.2205  130.2776  153.9569 H   0  0  0  0  0  0  0  0  0  0  0  0
  151.4523  128.5518  153.8661 H   0  0  0  0  0  0  0  0  0  0  0  0
  150.5475  127.1493  155.9538 H   0  0  0  0  0  0  0  0  0  0  0  0
  150.7788  128.2596  157.3120 H   0  0  0  0  0  0  0  0  0  0  0  0
  148.9293  125.2159  158.7893 H   0  0  0  0  0  0  0  0  0  0  0  0
  148.8274  126.8993  159.2977 H   0  0  0  0  0  0  0  0  0  0  0  0
  150.2203  126.3359  158.3577 H   0  0  0  0  0  0  0  0  0  0  0  0
  147.7446  127.2315  154.9469 H   0  0  0  0  0  0  0  0  0  0  0  0
  147.0110  128.6613  155.6621 H   0  0  0  0  0  0  0  0  0  0  0  0
  148.6641  133.2572  153.8936 H   0  0  0  0  0  0  0  0  0  0  0  0
  145.0104  128.6680  151.2325 H   0  0  0  0  0  0  0  0  0  0  0  0
  144.3848  130.7929  150.2044 H   0  0  0  0  0  0  0  0  0  0  0  0
  146.4267  133.0582  150.5259 H   0  0  0  0  0  0  0  0  0  0  0  0
  145.8453  132.3056  149.0025 H   0  0  0  0  0  0  0  0  0  0  0  0
  143.5467  135.3432  150.8826 H   0  0  0  0  0  0  0  0  0  0  0  0
  145.2554  135.0965  151.1359 H   0  0  0  0  0  0  0  0  0  0  0  0
  145.0950  135.0504  148.6115 H   0  0  0  0  0  0  0  0  0  0  0  0
  143.1326  132.1718  148.7616 H   0  0  0  0  0  0  0  0  0  0  0  0
  142.2292  133.5228  149.3883 H   0  0  0  0  0  0  0  0  0  0  0  0
  144.4341  134.2311  147.9344 H   0  0  0  0  0  0  0  0  0  0  0  0
  142.9935  132.2486  151.5621 H   0  0  0  0  0  0  0  0  0  0  0  0
  144.4299  133.0137  152.3231 H   0  0  0  0  0  0  0  0  0  0  0  0
  1  2  1  0  0  0  0
  1 30  1  0  0  0  0
  1 31  1  0  0  0  0
  1 32  1  0  0  0  0
  2  3  1  0  0  0  0
  3  4  1  0  0  0  0
  3 33  1  0  0  0  0
  3 34  1  0  0  0  0
  4 28  1  0  0  0  0
  4 10  1  0  0  0  0
  4  5  1  0  0  0  0
  5  6  1  0  0  0  0
  5 35  1  0  0  0  0
  5 36  1  0  0  0  0
  6 29  1  0  0  0  0
  6  7  1  0  0  0  0
  6  9  1  0  0  0  0
  7  8  1  0  0  0  0
  8 37  1  0  0  0  0
  8 38  1  0  0  0  0
  8 39  1  0  0  0  0
  9 10  1  0  0  0  0
  9 40  1  0  0  0  0
  9 41  1  0  0  0  0
 10 11  1  0  0  0  0
 11 16  1  0  0  0  0
 11 12  2  0  0  0  0
 12 13  1  0  0  0  0
 13 14  2  0  0  0  0
 13 42  1  0  0  0  0
 14 15  1  0  0  0  0
 15 19  1  0  0  0  0
 15 16  2  0  0  0  0
 16 17  1  0  0  0  0
 17 18  2  0  0  0  0
 18 19  1  0  0  0  0
 18 43  1  0  0  0  0
 19 20  1  0  0  0  0
 20 27  1  0  0  0  0
 20 21  1  0  0  0  0
 20 44  1  0  0  0  0
 21 22  1  0  0  0  0
 21 45  1  0  0  0  0
 21 46  1  0  0  0  0
 22 23  1  0  0  0  0
 22 25  1  0  0  0  0
 22 27  1  0  0  0  0
 23 24  1  0  0  0  0
 23 47  1  0  0  0  0
 23 48  1  0  0  0  0
 24 49  1  0  0  0  0
 25 26  1  0  0  0  0
 25 50  1  0  0  0  0
 25 51  1  0  0  0  0
 26 52  1  0  0  0  0
 27 53  1  0  0  0  0
 27 54  1  0  0  0  0
M  END
> <s_m_source_file>
AV-unprocessed.smi

> <i_m_source_file_index>
241

> <i_lp_mmshare_version>
43012

> <i_f3d_flags>
0

> <s_epik_input>
W0NIM11PW0NIMl1bQ0BASF0xW0NIMl1bQ0BASF0oT1tDSDNdKVtDSDJdTjFjKG5bY0hdbjIpYyhjMjMpbltjSF1uM1tDSF0oW0NIMl00KVtDSDJdQzQoW0NIMl1bT0hdKVtDSDJdW09IXQ==

> <s_epik_cmdline>
J2VwaWtfcHl0aG9uJywgJy1waCcsICc3LjAnLCAnLXRuJywgJzgnLCAnLW1hJywgJzIwMCcsICctbWV0YWxfYmluZGluZycsICctaW1hZScsICc8aW5maWxlLm1hZT4nLCAnLW9tYWUnLCAnPG91dGZpbGUubWFlPic=

> <r_lp_tautomer_probability>
1

> <r_epik_Ionization_Penalty>
0.00568677

> <r_epik_Ionization_Penalty_Charging>
0

> <r_epik_Ionization_Penalty_Neutral>
0.00568677

> <r_epik_State_Penalty>
0.00400877

> <r_epik_Charging_Adjusted_Penalty>
0.00400877

> <i_epik_Tot_Q>
0

> <i_epik_Tot_abs_Q>
0

> <r_epik_Metal_State_Penalty>
-0

> <b_epik_Metal_Only>
0

> <s_lp_Force_Field>
OPLS_2005

> <r_lp_Energy>
58.6567

> <b_lp_Chiralities_Consistent>
1

> <s_lp_Variant>
AV-unprocessed.smi:241-3

> <Gold.Version>
5.8.1

> <Gold.Id.Protein>
6NUR|6NUR_protein|mol2

> <Gold.PLP.Fitness>
50.6970

> <Gold.PLP.PLP>
-42.1209

> <Gold.PLP.part.hbond>
-5.5470

> <Gold.PLP.part.metal>
0.0000

> <Gold.PLP.part.buried>
-3.1210

> <Gold.PLP.part.nonpolar>
-33.8028

> <Gold.PLP.part.repulsive>
0.3820

> <Gold.PLP.ligand.clash>
0.0000

> <Gold.PLP.ligand.torsion>
0.5619

> <Gold.PLP.Chemscore.Hbond>
2.9920

> <Gold.PLP.Chemscore.CHOScore>
0.0000

> <Gold.PLP.Chemscore.Metal>
0.0000

> <Gold.Chemscore.Hbonds>
donor molecule, donor type, donor heavy atom, donor atom, acceptor molecule, acceptor atom, score
      L1  H    24    49       P1  7921  0.71
      L1  H    26    52       P1  7921  1.00
      P1  H 10192 10197       L1    26  0.89

> <Gold.PLP.Chemscore.Internal.Correction>
0.7238

> <Gold.Rescore>
     Score         DG    S(hbond)    S(metal)    S(lipo)     H(rot)  DE(clash)    DE(int)     intcor
     12.01     -14.73       2.90        0.00      83.09       3.97       2.15       0.57       ----

> <Gold.Chemscore.Fitness>
12.0096

> <Gold.Chemscore.DG>
-14.7285

> <Gold.Chemscore.ZeroCoef>
-5.4800

> <Gold.Chemscore.Hbond>
2.9034

> <Gold.Chemscore.Metal>
0.0000

> <Gold.Chemscore.Lipo>
83.0872

> <Gold.Chemscore.Internal_Hbond>
0.0000

> <Gold.Chemscore.DEClash>
2.1485

> <Gold.Chemscore.DEInternal>
0.5704

> <Gold.Chemscore.Rot>
3.9727

> <Gold.Chemscore.Internal.Correction>
   9.000000E+99

> <Gold.Chemscore.Hbonds>
donor molecule, donor type, donor heavy atom, donor atom, acceptor molecule, acceptor atom, score
      L1  H    24    49       P1  7921  0.69
      L1  H    26    52       P1  7921  1.00
      P1  H 10192 10197       L1    26  0.80

> <Gold.Chemscore.Hbond.Weighted>
-9.6975

> <Gold.Chemscore.Metal.Weighted>
-0.0000

> <Gold.Chemscore.Lipo.Weighted>
-9.7212

> <Gold.Chemscore.Internal_Hbond.Weighted>
0.0000

> <Gold.Chemscore.DEClash.Weighted>
2.1485

> <Gold.Chemscore.DEInternal.Weighted>
0.5704

> <Gold.Chemscore.Rot.Weighted>
10.1702

> <Gold.Chemscore.Internal.Correction.Weighted>
   9.000000E+99

> <Gold.Protein.RotatedTorsions>
[ 6907 6896 6895 6894 ] final   39.29 input  -60.11 | X-H torsion
[ 7974 7965 7964 7962 ] final   10.04 input  175.53 | X-H torsion
[ 8008 7997 7996 7995 ] final  175.19 input   59.86 | X-H torsion
[ 10167 10162 10161 10158 ] final -156.50 input  -65.29 | X-H torsion
[ 10718 10713 10712 10709 ] final   82.14 input   66.30 | X-H torsion
[ 10763 10752 10751 10750 ] final   33.06 input  -60.55 | X-H torsion
[ 11005 11000 10999 10996 ] final -123.24 input  -57.11 | X-H torsion

> <Gold.Protein.ActiveResidues>
 VAL166  LYS551  ARG553  GLY616  TRP617  ASP618  TYR619  PRO620  LYS621  CYS622 
 ASP623  PHE694  ASN695  SER759  ASP760  ASP761  ALA762  ILE779  LEU786  VAL792 
 PHE793  MET794  SER795  GLU796  ALA797  LYS798  CYS799  TRP800  GLU811  SER814 

> <Gold.Protein.RotatedAtoms>
  152.1676  134.8861  160.0536 H   0  0  0  0  0  0  0  0  0  0  0  0  # atno 6907 bound_to 6896
  151.9833  133.3760  159.4124 H   0  0  0  0  0  0  0  0  0  0  0  0  # atno 6908 bound_to 6896
  150.6897  134.3938  159.5132 H   0  0  0  0  0  0  0  0  0  0  0  0  # atno 6909 bound_to 6896
  146.2394  139.9694  142.8449 H   0  0  0  0  0  0  0  0  0  0  0  0  # atno 7974 bound_to 7965
  156.0896  140.1415  156.9609 H   0  0  0  0  0  0  0  0  0  0  0  0  # atno 8008 bound_to 7997
  154.4634  140.0935  156.7001 H   0  0  0  0  0  0  0  0  0  0  0  0  # atno 8009 bound_to 7997
  155.4942  140.3449  155.4362 H   0  0  0  0  0  0  0  0  0  0  0  0  # atno 8010 bound_to 7997
  139.6845  143.9524  152.2354 H   0  0  0  0  0  0  0  0  0  0  0  0  # atno 10167 bound_to 10162
  157.6850  131.0035  150.2331 H   0  0  0  0  0  0  0  0  0  0  0  0  # atno 10718 bound_to 10713
  153.0231  135.6397  154.1452 H   0  0  0  0  0  0  0  0  0  0  0  0  # atno 10763 bound_to 10752
  154.1184  135.2848  155.3216 H   0  0  0  0  0  0  0  0  0  0  0  0  # atno 10764 bound_to 10752
  154.6281  135.5502  153.7712 H   0  0  0  0  0  0  0  0  0  0  0  0  # atno 10765 bound_to 10752
  140.9934  134.0507  157.3627 H   0  0  0  0  0  0  0  0  0  0  0  0  # atno 11005 bound_to 11000
  145.1695  140.9714  143.4330 LP  0  0  0  0  0  0  0  0  0  0  0  0  # atno 17320 bound_to 7965
  145.0041  139.3571  143.6153 LP  0  0  0  0  0  0  0  0  0  0  0  0  # atno 17321 bound_to 7965
  139.9323  144.6733  150.8350 LP  0  0  0  0  0  0  0  0  0  0  0  0  # atno 17342 bound_to 10162
  140.7663  143.3300  151.2431 LP  0  0  0  0  0  0  0  0  0  0  0  0  # atno 17343 bound_to 10162
  156.2960  130.3752  149.7796 LP  0  0  0  0  0  0  0  0  0  0  0  0  # atno 17370 bound_to 10713
  156.5440  130.8312  151.3278 LP  0  0  0  0  0  0  0  0  0  0  0  0  # atno 17371 bound_to 10713
  139.9003  135.0162  156.7235 LP  0  0  0  0  0  0  0  0  0  0  0  0  # atno 17394 bound_to 11000
  140.7005  133.9311  155.8021 LP  0  0  0  0  0  0  0  0  0  0  0  0  # atno 17395 bound_to 11000

$$$$
