AV-unprocessed.smi:1480|AV-procd|sdf|5985|dock8
  -GOLD-   22720 6 73D 1   1.00000     0.00000
 Structure written by MMmdl.
 37 38  0  0  0  0  0  0  0  0  1 V2000
  152.8103  143.8831  163.1441 C   0  0  0  0  0  0  0  0  0  0  0  0
  152.7179  143.1710  161.8682 N   0  0  0  0  0  0  0  0  0  0  0  0
  153.6157  142.0149  161.7360 C   0  0  0  0  0  0  0  0  0  0  0  0
  153.2220  141.0581  160.6035 C   0  0  0  0  0  0  0  0  0  0  0  0
  152.9448  141.8490  159.3187 C   0  0  1  0  0  0  0  0  0  0  0  0
  152.6121  140.9009  158.1574 C   0  0  0  0  0  0  0  0  0  0  0  0
  153.2387  139.8486  158.0315 O   0  0  0  0  0  0  0  0  0  0  0  0
  151.6273  141.3074  157.3353 N   0  0  0  0  0  0  0  0  0  0  0  0
  151.1045  140.6564  156.1879 C   0  0  0  0  0  0  0  0  0  0  0  0
  150.0453  141.1325  155.3578 C   0  0  0  0  0  0  0  0  0  0  0  0
  149.9268  140.1553  154.4113 C   0  0  0  0  0  0  0  0  0  0  0  0
  150.8692  139.1860  154.6924 N   0  0  0  0  0  0  0  0  0  0  0  0
  151.1329  137.9499  153.9758 C   0  0  0  0  0  0  0  0  0  0  0  0
  150.9782  136.7304  154.8884 C   0  0  0  0  0  0  0  0  0  0  0  0
  149.9983  135.8712  154.5965 N   0  0  0  0  0  0  0  0  0  0  0  0
  151.7333  136.5632  155.8438 O   0  0  0  0  0  0  0  0  0  0  0  0
  151.5918  139.4928  155.7924 N   0  0  0  0  0  0  0  0  0  0  0  0
  151.7968  142.8491  159.5639 C   0  0  0  0  0  0  0  0  0  0  0  0
  151.9057  143.6294  160.8850 C   0  0  0  0  0  0  0  0  0  0  0  0
  151.2185  144.6427  161.0156 O   0  0  0  0  0  0  0  0  0  0  0  0
  153.0746  144.9297  162.9856 H   0  0  0  0  0  0  0  0  0  0  0  0
  153.5678  143.4550  163.8017 H   0  0  0  0  0  0  0  0  0  0  0  0
  151.8559  143.8477  163.6709 H   0  0  0  0  0  0  0  0  0  0  0  0
  154.6238  142.3924  161.5600 H   0  0  0  0  0  0  0  0  0  0  0  0
  153.6505  141.4578  162.6733 H   0  0  0  0  0  0  0  0  0  0  0  0
  154.0164  140.3270  160.4460 H   0  0  0  0  0  0  0  0  0  0  0  0
  152.3348  140.4950  160.8984 H   0  0  0  0  0  0  0  0  0  0  0  0
  153.8445  142.4123  159.0623 H   0  0  0  0  0  0  0  0  0  0  0  0
  151.1946  142.1908  157.5625 H   0  0  0  0  0  0  0  0  0  0  0  0
  149.4589  142.0360  155.4286 H   0  0  0  0  0  0  0  0  0  0  0  0
  149.2583  140.0705  153.5672 H   0  0  0  0  0  0  0  0  0  0  0  0
  150.4440  137.8596  153.1344 H   0  0  0  0  0  0  0  0  0  0  0  0
  152.1408  137.9989  153.5612 H   0  0  0  0  0  0  0  0  0  0  0  0
  149.8569  135.0516  155.1688 H   0  0  0  0  0  0  0  0  0  0  0  0
  149.4010  136.0455  153.8013 H   0  0  0  0  0  0  0  0  0  0  0  0
  151.7483  143.5615  158.7392 H   0  0  0  0  0  0  0  0  0  0  0  0
  150.8357  142.3324  159.5798 H   0  0  0  0  0  0  0  0  0  0  0  0
  1  2  1  0  0  0  0
  1 21  1  0  0  0  0
  1 22  1  0  0  0  0
  1 23  1  0  0  0  0
  2 19  1  0  0  0  0
  2  3  1  0  0  0  0
  3  4  1  0  0  0  0
  3 24  1  0  0  0  0
  3 25  1  0  0  0  0
  4  5  1  0  0  0  0
  4 26  1  0  0  0  0
  4 27  1  0  0  0  0
  5  6  1  0  0  0  0
  5 18  1  0  0  0  0
  5 28  1  0  0  0  0
  6  7  2  0  0  0  0
  6  8  1  0  0  0  0
  8  9  1  0  0  0  0
  8 29  1  0  0  0  0
  9 17  2  0  0  0  0
  9 10  1  0  0  0  0
 10 11  2  0  0  0  0
 10 30  1  0  0  0  0
 11 12  1  0  0  0  0
 11 31  1  0  0  0  0
 12 13  1  0  0  0  0
 12 17  1  0  0  0  0
 13 14  1  0  0  0  0
 13 32  1  0  0  0  0
 13 33  1  0  0  0  0
 14 15  1  0  0  0  0
 14 16  2  0  0  0  0
 15 34  1  0  0  0  0
 15 35  1  0  0  0  0
 18 19  1  0  0  0  0
 18 36  1  0  0  0  0
 18 37  1  0  0  0  0
 19 20  2  0  0  0  0
M  END
> <s_m_source_file>
AV-unprocessed.smi

> <i_m_source_file_index>
1480

> <i_lp_mmshare_version>
43012

> <i_f3d_flags>
0

> <s_epik_input>
W0NIM11OMVtDSDJdW0NIMl1bQ0BIXShbQ0gyXUMxPU8pQyg9TylbTkhdYzJbY0hdW2NIXW4objIpW0NIMl1DKD1PKVtOSDJd

> <s_epik_cmdline>
J2VwaWtfcHl0aG9uJywgJy1waCcsICc3LjAnLCAnLXRuJywgJzgnLCAnLW1hJywgJzIwMCcsICctbWV0YWxfYmluZGluZycsICctaW1hZScsICc8aW5maWxlLm1hZT4nLCAnLW9tYWUnLCAnPG91dGZpbGUubWFlPic=

> <r_lp_tautomer_probability>
1

> <r_epik_Ionization_Penalty>
3.93272e-06

> <r_epik_Ionization_Penalty_Charging>
0

> <r_epik_Ionization_Penalty_Neutral>
3.93272e-06

> <r_epik_State_Penalty>
-0

> <r_epik_Charging_Adjusted_Penalty>
0

> <i_epik_Tot_Q>
0

> <i_epik_Tot_abs_Q>
0

> <r_epik_Metal_State_Penalty>
-0

> <b_epik_Metal_Only>
0

> <s_lp_Force_Field>
OPLS_2005

> <r_lp_Energy>
17.1692

> <b_lp_Chiralities_Consistent>
1

> <s_lp_Variant>
AV-unprocessed.smi:1480-1

> <Gold.Version>
5.8.1

> <Gold.Id.Protein>
6NUR|6NUR_protein|mol2

> <Gold.PLP.Fitness>
50.6052

> <Gold.PLP.PLP>
-41.0784

> <Gold.PLP.part.hbond>
-3.0000

> <Gold.PLP.part.metal>
0.0000

> <Gold.PLP.part.buried>
-0.7230

> <Gold.PLP.part.nonpolar>
-37.1524

> <Gold.PLP.part.repulsive>
1.2305

> <Gold.PLP.ligand.clash>
1.2605

> <Gold.PLP.ligand.torsion>
0.5560

> <Gold.PLP.Chemscore.Hbond>
2.9920

> <Gold.PLP.Chemscore.CHOScore>
0.9705

> <Gold.PLP.Chemscore.Metal>
0.0000

> <Gold.Chemscore.Hbonds>
donor molecule, donor type, donor heavy atom, donor atom, acceptor molecule, acceptor atom, score
      L1  H    15    35       P1  7948  1.00
      P1  H  7997  8008       L1     7  0.99
      P1  H 10752 10763       L1    16  1.00
      L1  C    11    31       P1  7957  1.00

> <Gold.PLP.Chemscore.Internal.Correction>
0.0119

> <Gold.Rescore>
     Score         DG    S(hbond)    S(metal)    S(lipo)     H(rot)  DE(clash)    DE(int)     intcor
     14.53     -17.55       2.50        0.00      76.22       2.03       0.53       2.48       ----

> <Gold.Chemscore.Fitness>
14.5309

> <Gold.Chemscore.DG>
-17.5495

> <Gold.Chemscore.ZeroCoef>
-5.4800

> <Gold.Chemscore.Hbond>
2.4971

> <Gold.Chemscore.Metal>
0.0000

> <Gold.Chemscore.Lipo>
76.2216

> <Gold.Chemscore.Internal_Hbond>
0.0000

> <Gold.Chemscore.DEClash>
0.5338

> <Gold.Chemscore.DEInternal>
2.4848

> <Gold.Chemscore.Rot>
2.0269

> <Gold.Chemscore.Internal.Correction>
   9.000000E+99

> <Gold.Chemscore.Hbonds>
donor molecule, donor type, donor heavy atom, donor atom, acceptor molecule, acceptor atom, score
      L1  H    15    35       P1  7948  0.67
      P1  H  7997  8008       L1     7  0.80
      P1  H 10752 10763       L1    16  0.39

> <Gold.Chemscore.Hbond.Weighted>
-8.3403

> <Gold.Chemscore.Metal.Weighted>
-0.0000

> <Gold.Chemscore.Lipo.Weighted>
-8.9179

> <Gold.Chemscore.Internal_Hbond.Weighted>
0.0000

> <Gold.Chemscore.DEClash.Weighted>
0.5338

> <Gold.Chemscore.DEInternal.Weighted>
2.4848

> <Gold.Chemscore.Rot.Weighted>
5.1888

> <Gold.Chemscore.Internal.Correction.Weighted>
   9.000000E+99

> <Gold.Protein.RotatedTorsions>
[ 6907 6896 6895 6894 ] final  166.93 input  -60.11 | X-H torsion
[ 7974 7965 7964 7962 ] final -110.92 input  175.53 | X-H torsion
[ 8008 7997 7996 7995 ] final  -97.85 input   59.86 | X-H torsion
[ 10167 10162 10161 10158 ] final  -26.29 input  -65.29 | X-H torsion
[ 10718 10713 10712 10709 ] final  -31.66 input   66.30 | X-H torsion
[ 10763 10752 10751 10750 ] final   92.52 input  -60.55 | X-H torsion
[ 11005 11000 10999 10996 ] final   35.82 input  -57.11 | X-H torsion

> <Gold.Protein.ActiveResidues>
 VAL166  LYS551  ARG553  GLY616  TRP617  ASP618  TYR619  PRO620  LYS621  CYS622 
 ASP623  PHE694  ASN695  SER759  ASP760  ASP761  ALA762  ILE779  LEU786  VAL792 
 PHE793  MET794  SER795  GLU796  ALA797  LYS798  CYS799  TRP800  GLU811  SER814 

> <Gold.Protein.RotatedAtoms>
  151.8712  133.3476  159.3735 H   0  0  0  0  0  0  0  0  0  0  0  0  # atno 6907 bound_to 6896
  150.7152  134.5110  159.5617 H   0  0  0  0  0  0  0  0  0  0  0  0  # atno 6908 bound_to 6896
  152.2643  134.8001  160.0476 H   0  0  0  0  0  0  0  0  0  0  0  0  # atno 6909 bound_to 6896
  145.1623  140.8885  143.3583 H   0  0  0  0  0  0  0  0  0  0  0  0  # atno 7974 bound_to 7965
  154.7933  140.0460  157.1218 H   0  0  0  0  0  0  0  0  0  0  0  0  # atno 8008 bound_to 7997
  154.9565  140.3072  155.5031 H   0  0  0  0  0  0  0  0  0  0  0  0  # atno 8009 bound_to 7997
  156.2952  140.2278  156.4647 H   0  0  0  0  0  0  0  0  0  0  0  0  # atno 8010 bound_to 7997
  140.7283  143.4191  151.0981 H   0  0  0  0  0  0  0  0  0  0  0  0  # atno 10167 bound_to 10162
  156.3845  130.4362  149.7442 H   0  0  0  0  0  0  0  0  0  0  0  0  # atno 10718 bound_to 10713
  153.2200  135.4358  155.0479 H   0  0  0  0  0  0  0  0  0  0  0  0  # atno 10763 bound_to 10752
  154.8245  135.3354  154.6941 H   0  0  0  0  0  0  0  0  0  0  0  0  # atno 10764 bound_to 10752
  153.7373  135.7007  153.5031 H   0  0  0  0  0  0  0  0  0  0  0  0  # atno 10765 bound_to 10752
  140.2388  134.3440  155.7934 H   0  0  0  0  0  0  0  0  0  0  0  0  # atno 11005 bound_to 11000
  145.0318  139.3334  143.6021 LP  0  0  0  0  0  0  0  0  0  0  0  0  # atno 17320 bound_to 7965
  146.3480  139.9658  142.8712 LP  0  0  0  0  0  0  0  0  0  0  0  0  # atno 17321 bound_to 7965
  139.7834  143.8323  152.3141 LP  0  0  0  0  0  0  0  0  0  0  0  0  # atno 17342 bound_to 10162
  139.8281  144.7266  150.9485 LP  0  0  0  0  0  0  0  0  0  0  0  0  # atno 17343 bound_to 10162
  156.4520  130.7911  151.2932 LP  0  0  0  0  0  0  0  0  0  0  0  0  # atno 17370 bound_to 10713
  157.7495  131.0092  150.3260 LP  0  0  0  0  0  0  0  0  0  0  0  0  # atno 17371 bound_to 10713
  141.2212  133.7287  156.8851 LP  0  0  0  0  0  0  0  0  0  0  0  0  # atno 17394 bound_to 11000
  140.1675  134.9123  157.2791 LP  0  0  0  0  0  0  0  0  0  0  0  0  # atno 17395 bound_to 11000

$$$$
