AV-unprocessed.smi:1788|AV-procd|sdf|7211|dock4
  -GOLD-   22720 8453D 1   1.00000     0.00000
 Structure written by MMmdl.
 55 57  0  0  0  0  0  0  0  0  2 V2000
  145.8902  136.7601  152.4355 C   0  0  0  0  0  0  0  0  0  0  0  0
  145.3375  135.3733  152.8088 C   0  0  1  0  0  0  0  0  0  0  0  0
  144.7497  134.6194  151.6014 C   0  0  0  0  0  0  0  0  0  0  0  0
  145.8587  134.0887  150.6820 C   0  0  0  0  0  0  0  0  0  0  0  0
  146.8780  133.2531  151.4723 C   0  0  0  0  0  0  0  0  0  0  0  0
  147.4492  134.0316  152.6016 N   0  3  2  0  0  0  0  0  0  0  0  0
  148.5444  133.3028  153.2895 C   0  0  0  0  0  0  0  0  0  0  0  0
  148.9501  133.9721  154.6171 C   0  0  0  0  0  0  0  0  0  0  0  0
  149.3900  135.3474  154.4118 N   0  0  0  0  0  0  0  0  0  0  0  0
  149.7415  136.1922  155.3917 C   0  0  0  0  0  0  0  0  0  0  0  0
  149.7440  135.8801  156.5823 O   0  0  0  0  0  0  0  0  0  0  0  0
  150.1021  137.3892  154.8979 N   0  0  0  0  0  0  0  0  0  0  0  0
  150.5249  138.5483  155.6036 C   0  0  0  0  0  0  0  0  0  0  0  0
  150.6305  139.8379  155.0326 C   0  0  0  0  0  0  0  0  0  0  0  0
  151.0813  140.9040  155.8341 C   0  0  0  0  0  0  0  0  0  0  0  0
  151.4248  140.6596  157.1846 C   0  0  0  0  0  0  0  0  0  0  0  0
  151.8794  141.7158  158.0036 N   0  0  0  0  0  0  0  0  0  0  0  0
  151.2854  143.0374  157.8104 C   0  0  0  0  0  0  0  0  0  0  0  0
  152.0936  144.1033  158.5694 C   0  0  0  0  0  0  0  0  0  0  0  0
  152.1914  143.7419  159.9430 O   0  0  0  0  0  0  0  0  0  0  0  0
  152.8711  142.5030  160.1169 C   0  0  0  0  0  0  0  0  0  0  0  0
  152.0965  141.3780  159.4083 C   0  0  0  0  0  0  0  0  0  0  0  0
  151.3278  139.4208  157.7265 N   0  0  0  0  0  0  0  0  0  0  0  0
  150.8982  138.4012  156.9543 C   0  0  0  0  0  0  0  0  0  0  0  0
  146.3867  134.5033  153.5316 C   0  0  0  0  0  0  0  0  0  0  0  0
  146.7368  136.6919  151.7524 H   0  0  0  0  0  0  0  0  0  0  0  0
  146.2265  137.2981  153.3223 H   0  0  0  0  0  0  0  0  0  0  0  0
  145.1246  137.3701  151.9551 H   0  0  0  0  0  0  0  0  0  0  0  0
  144.5202  135.5486  153.5098 H   0  0  0  0  0  0  0  0  0  0  0  0
  144.1532  133.7791  151.9594 H   0  0  0  0  0  0  0  0  0  0  0  0
  144.0676  135.2608  151.0427 H   0  0  0  0  0  0  0  0  0  0  0  0
  145.4214  133.4844  149.8867 H   0  0  0  0  0  0  0  0  0  0  0  0
  146.3655  134.9195  150.1900 H   0  0  0  0  0  0  0  0  0  0  0  0
  146.4077  132.3457  151.8548 H   0  0  0  0  0  0  0  0  0  0  0  0
  147.6755  132.9376  150.7986 H   0  0  0  0  0  0  0  0  0  0  0  0
  148.2494  132.2635  153.4428 H   0  0  0  0  0  0  0  0  0  0  0  0
  149.4243  133.2790  152.6446 H   0  0  0  0  0  0  0  0  0  0  0  0
  148.0999  133.9872  155.2995 H   0  0  0  0  0  0  0  0  0  0  0  0
  149.7417  133.4180  155.1223 H   0  0  0  0  0  0  0  0  0  0  0  0
  149.4193  135.6822  153.4595 H   0  0  0  0  0  0  0  0  0  0  0  0
  150.1226  137.4670  153.8915 H   0  0  0  0  0  0  0  0  0  0  0  0
  150.3879  140.0316  153.9996 H   0  0  0  0  0  0  0  0  0  0  0  0
  151.1479  141.8936  155.4074 H   0  0  0  0  0  0  0  0  0  0  0  0
  151.2615  143.2897  156.7493 H   0  0  0  0  0  0  0  0  0  0  0  0
  150.2545  143.0266  158.1674 H   0  0  0  0  0  0  0  0  0  0  0  0
  153.0904  144.2154  158.1390 H   0  0  0  0  0  0  0  0  0  0  0  0
  151.6022  145.0731  158.4910 H   0  0  0  0  0  0  0  0  0  0  0  0
  153.8893  142.5770  159.7312 H   0  0  0  0  0  0  0  0  0  0  0  0
  152.9501  142.2887  161.1828 H   0  0  0  0  0  0  0  0  0  0  0  0
  151.1275  141.2340  159.8882 H   0  0  0  0  0  0  0  0  0  0  0  0
  152.6468  140.4447  159.5199 H   0  0  0  0  0  0  0  0  0  0  0  0
  150.8463  137.4355  157.4359 H   0  0  0  0  0  0  0  0  0  0  0  0
  146.8182  135.0719  154.3546 H   0  0  0  0  0  0  0  0  0  0  0  0
  145.8985  133.6367  153.9809 H   0  0  0  0  0  0  0  0  0  0  0  0
  147.8679  134.8534  152.1903 H   0  0  0  0  0  0  0  0  0  0  0  0
  1  2  1  0  0  0  0
  1 26  1  0  0  0  0
  1 27  1  0  0  0  0
  1 28  1  0  0  0  0
  2 25  1  0  0  0  0
  2  3  1  0  0  0  0
  2 29  1  0  0  0  0
  3  4  1  0  0  0  0
  3 30  1  0  0  0  0
  3 31  1  0  0  0  0
  4  5  1  0  0  0  0
  4 32  1  0  0  0  0
  4 33  1  0  0  0  0
  5  6  1  0  0  0  0
  5 34  1  0  0  0  0
  5 35  1  0  0  0  0
  6  7  1  0  0  0  0
  6 25  1  0  0  0  0
  6 55  1  0  0  0  0
  7  8  1  0  0  0  0
  7 36  1  0  0  0  0
  7 37  1  0  0  0  0
  8  9  1  0  0  0  0
  8 38  1  0  0  0  0
  8 39  1  0  0  0  0
  9 10  1  0  0  0  0
  9 40  1  0  0  0  0
 10 11  2  0  0  0  0
 10 12  1  0  0  0  0
 12 13  1  0  0  0  0
 12 41  1  0  0  0  0
 13 24  1  0  0  0  0
 13 14  2  0  0  0  0
 14 15  1  0  0  0  0
 14 42  1  0  0  0  0
 15 16  2  0  0  0  0
 15 43  1  0  0  0  0
 16 17  1  0  0  0  0
 16 23  1  0  0  0  0
 17 22  1  0  0  0  0
 17 18  1  0  0  0  0
 18 19  1  0  0  0  0
 18 44  1  0  0  0  0
 18 45  1  0  0  0  0
 19 20  1  0  0  0  0
 19 46  1  0  0  0  0
 19 47  1  0  0  0  0
 20 21  1  0  0  0  0
 21 22  1  0  0  0  0
 21 48  1  0  0  0  0
 21 49  1  0  0  0  0
 22 50  1  0  0  0  0
 22 51  1  0  0  0  0
 23 24  2  0  0  0  0
 24 52  1  0  0  0  0
 25 53  1  0  0  0  0
 25 54  1  0  0  0  0
M  CHG  1   6   1
M  END
> <s_m_source_file>
AV-unprocessed.smi

> <i_m_source_file_index>
1788

> <i_lp_mmshare_version>
43012

> <i_f3d_flags>
0

> <s_epik_input>
W0NIM11bQ0BASF0xW0NIMl1bQ0gyXVtDSDJdTihbQ0gyXTEpW0NIMl1bQ0gyXVtOSF1DKD1PKVtOSF1jMltjSF1bY0hdYyhuW2NIXTIpTjNbQ0gyXVtDSDJdT1tDSDJdW0NIMl0z

> <s_epik_cmdline>
J2VwaWtfcHl0aG9uJywgJy1waCcsICc3LjAnLCAnLXRuJywgJzgnLCAnLW1hJywgJzIwMCcsICctbWV0YWxfYmluZGluZycsICctaW1hZScsICc8aW5maWxlLm1hZT4nLCAnLW9tYWUnLCAnPG91dGZpbGUubWFlPic=

> <r_lp_tautomer_probability>
1

> <r_epik_Ionization_Penalty>
0.00340126

> <r_epik_Ionization_Penalty_Charging>
0.00171832

> <r_epik_Ionization_Penalty_Neutral>
0.00168294

> <r_epik_State_Penalty>
-0

> <r_epik_Charging_Adjusted_Penalty>
0.00171832

> <i_epik_Tot_Q>
1

> <i_epik_Tot_abs_Q>
1

> <r_epik_Metal_State_Penalty>
-0

> <b_epik_Metal_Only>
0

> <s_lp_Force_Field>
OPLS_2005

> <r_lp_Energy>
36.4544

> <b_lp_Chiralities_Consistent>
1

> <s_lp_Variant>
AV-unprocessed.smi:1788-2

> <Gold.Version>
5.8.1

> <Gold.Id.Protein>
6NUR|6NUR_protein|mol2

> <Gold.PLP.Fitness>
49.4168

> <Gold.PLP.PLP>
-41.0522

> <Gold.PLP.part.hbond>
-2.0000

> <Gold.PLP.part.metal>
0.0000

> <Gold.PLP.part.buried>
-2.9191

> <Gold.PLP.part.nonpolar>
-34.7958

> <Gold.PLP.part.repulsive>
0.0983

> <Gold.PLP.ligand.clash>
0.0000

> <Gold.PLP.ligand.torsion>
0.5276

> <Gold.PLP.Chemscore.Hbond>
3.0000

> <Gold.PLP.Chemscore.CHOScore>
0.0000

> <Gold.PLP.Chemscore.Metal>
0.0000

> <Gold.Chemscore.Hbonds>
donor molecule, donor type, donor heavy atom, donor atom, acceptor molecule, acceptor atom, score
      L1  H     6    55       P1  7948  2.00
      L1  H     9    40       P1  7948  1.00

> <Gold.PLP.Chemscore.Internal.Correction>
0.4198

> <Gold.Rescore>
     Score         DG    S(hbond)    S(metal)    S(lipo)     H(rot)  DE(clash)    DE(int)     intcor
     17.32     -19.33       1.81        0.00     101.58       1.60       0.17       1.84       ----

> <Gold.Chemscore.Fitness>
17.3176

> <Gold.Chemscore.DG>
-19.3263

> <Gold.Chemscore.ZeroCoef>
-5.4800

> <Gold.Chemscore.Hbond>
1.8119

> <Gold.Chemscore.Metal>
0.0000

> <Gold.Chemscore.Lipo>
101.5754

> <Gold.Chemscore.Internal_Hbond>
0.0000

> <Gold.Chemscore.DEClash>
0.1681

> <Gold.Chemscore.DEInternal>
1.8406

> <Gold.Chemscore.Rot>
1.5976

> <Gold.Chemscore.Internal.Correction>
   9.000000E+99

> <Gold.Chemscore.Hbonds>
donor molecule, donor type, donor heavy atom, donor atom, acceptor molecule, acceptor atom, score
      L1  H     6    55       P1  7948  0.70
      L1  H     9    40       P1  7948  0.30

> <Gold.Chemscore.Hbond.Weighted>
-6.0519

> <Gold.Chemscore.Metal.Weighted>
-0.0000

> <Gold.Chemscore.Lipo.Weighted>
-11.8843

> <Gold.Chemscore.Internal_Hbond.Weighted>
0.0000

> <Gold.Chemscore.DEClash.Weighted>
0.1681

> <Gold.Chemscore.DEInternal.Weighted>
1.8406

> <Gold.Chemscore.Rot.Weighted>
4.0899

> <Gold.Chemscore.Internal.Correction.Weighted>
   9.000000E+99

> <Gold.Protein.RotatedTorsions>
[ 6907 6896 6895 6894 ] final  -22.51 input  -60.11 | X-H torsion
[ 7974 7965 7964 7962 ] final  103.77 input  175.53 | X-H torsion
[ 8008 7997 7996 7995 ] final  164.92 input   59.86 | X-H torsion
[ 10167 10162 10161 10158 ] final -136.32 input  -65.29 | X-H torsion
[ 10718 10713 10712 10709 ] final -155.15 input   66.30 | X-H torsion
[ 10763 10752 10751 10750 ] final  -62.45 input  -60.55 | X-H torsion
[ 11005 11000 10999 10996 ] final  -20.57 input  -57.11 | X-H torsion

> <Gold.Protein.ActiveResidues>
 VAL166  LYS551  ARG553  GLY616  TRP617  ASP618  TYR619  PRO620  LYS621  CYS622 
 ASP623  PHE694  ASN695  SER759  ASP760  ASP761  ALA762  ILE779  LEU786  VAL792 
 PHE793  MET794  SER795  GLU796  ALA797  LYS798  CYS799  TRP800  GLU811  SER814 

> <Gold.Protein.RotatedAtoms>
  151.2175  135.0506  159.8936 H   0  0  0  0  0  0  0  0  0  0  0  0  # atno 6907 bound_to 6896
  152.5418  134.0676  159.8190 H   0  0  0  0  0  0  0  0  0  0  0  0  # atno 6908 bound_to 6896
  151.0838  133.5321  159.2651 H   0  0  0  0  0  0  0  0  0  0  0  0  # atno 6909 bound_to 6896
  145.3416  139.2461  143.3606 H   0  0  0  0  0  0  0  0  0  0  0  0  # atno 7974 bound_to 7965
  156.1841  140.1684  156.8218 H   0  0  0  0  0  0  0  0  0  0  0  0  # atno 8008 bound_to 7997
  154.5394  140.0740  156.8517 H   0  0  0  0  0  0  0  0  0  0  0  0  # atno 8009 bound_to 7997
  155.3245  140.3375  155.4243 H   0  0  0  0  0  0  0  0  0  0  0  0  # atno 8010 bound_to 7997
  139.8690  143.6981  152.2642 H   0  0  0  0  0  0  0  0  0  0  0  0  # atno 10167 bound_to 10162
  156.5090  130.8426  151.2639 H   0  0  0  0  0  0  0  0  0  0  0  0  # atno 10718 bound_to 10713
  154.3001  135.6236  153.5421 H   0  0  0  0  0  0  0  0  0  0  0  0  # atno 10763 bound_to 10752
  152.9841  135.5676  154.5294 H   0  0  0  0  0  0  0  0  0  0  0  0  # atno 10764 bound_to 10752
  154.4922  135.2868  155.1463 H   0  0  0  0  0  0  0  0  0  0  0  0  # atno 10765 bound_to 10752
  140.8477  133.7879  155.9931 H   0  0  0  0  0  0  0  0  0  0  0  0  # atno 11005 bound_to 11000
  146.3005  140.4014  142.8706 LP  0  0  0  0  0  0  0  0  0  0  0  0  # atno 17320 bound_to 7965
  144.8786  140.7370  143.6001 LP  0  0  0  0  0  0  0  0  0  0  0  0  # atno 17321 bound_to 7965
  139.7302  144.7584  151.0814 LP  0  0  0  0  0  0  0  0  0  0  0  0  # atno 17342 bound_to 10162
  140.7763  143.5098  150.9667 LP  0  0  0  0  0  0  0  0  0  0  0  0  # atno 17343 bound_to 10162
  157.7453  130.9956  150.2750 LP  0  0  0  0  0  0  0  0  0  0  0  0  # atno 17370 bound_to 10713
  156.3259  130.3793  149.7534 LP  0  0  0  0  0  0  0  0  0  0  0  0  # atno 17371 bound_to 10713
  140.8825  134.2594  157.5137 LP  0  0  0  0  0  0  0  0  0  0  0  0  # atno 17394 bound_to 11000
  139.8703  134.9622  156.4420 LP  0  0  0  0  0  0  0  0  0  0  0  0  # atno 17395 bound_to 11000

$$$$
