AV-unprocessed.smi:3279|AV-procd|sdf|12550|dock4
  -GOLD-   2272018463D 1   1.00000     0.00000
 Structure written by MMmdl.
 36 36  0  0  0  0  0  0  0  0  1 V2000
  146.8283  142.6962  154.4174 C   0  0  0  0  0  0  0  0  0  0  0  0
  147.0866  141.4523  155.2860 C   0  0  2  0  0  0  0  0  0  0  0  0
  146.9698  141.7185  156.8024 C   0  0  0  0  0  0  0  0  0  0  0  0
  148.0756  142.5190  157.3208 N   0  0  0  0  0  0  0  0  0  0  0  0
  148.2303  142.9060  158.5968 C   0  0  0  0  0  0  0  0  0  0  0  0
  147.4535  142.5992  159.5007 O   0  0  0  0  0  0  0  0  0  0  0  0
  149.4602  143.7574  158.8999 C   0  0  0  0  0  0  0  0  0  0  0  0
  150.5482  142.8857  159.1930 O   0  0  0  0  0  0  0  0  0  0  0  0
  151.8205  143.4686  159.4867 C   0  0  0  0  0  0  0  0  0  0  0  0
  152.3200  144.3030  158.2909 C   0  0  0  0  0  0  0  0  0  0  0  0
  152.8549  142.3987  159.8913 C   0  0  0  0  0  0  0  0  0  0  0  0
  151.5478  144.3960  160.6817 C   0  0  0  0  0  0  0  0  0  0  0  0
  148.4096  140.8344  154.9521 C   0  0  0  0  0  0  0  0  0  0  0  0
  149.2934  141.2894  154.0715 N   0  0  0  0  0  0  0  0  0  0  0  0
  150.3279  140.3705  154.1381 N   0  0  0  0  0  0  0  0  0  0  0  0
  150.0729  139.4292  155.0024 N   0  0  0  0  0  0  0  0  0  0  0  0
  148.8585  139.7145  155.5235 N   0  0  0  0  0  0  0  0  0  0  0  0
  148.4056  139.1461  156.2246 H   0  0  0  0  0  0  0  0  0  0  0  0
  146.9142  142.4556  153.3572 H   0  0  0  0  0  0  0  0  0  0  0  0
  147.5453  143.4877  154.6375 H   0  0  0  0  0  0  0  0  0  0  0  0
  145.8285  143.0992  154.5757 H   0  0  0  0  0  0  0  0  0  0  0  0
  146.3207  140.7195  155.0270 H   0  0  0  0  0  0  0  0  0  0  0  0
  146.0538  142.2757  157.0020 H   0  0  0  0  0  0  0  0  0  0  0  0
  146.8758  140.7791  157.3502 H   0  0  0  0  0  0  0  0  0  0  0  0
  148.7689  142.8239  156.6528 H   0  0  0  0  0  0  0  0  0  0  0  0
  149.6798  144.3843  158.0356 H   0  0  0  0  0  0  0  0  0  0  0  0
  149.2268  144.4108  159.7399 H   0  0  0  0  0  0  0  0  0  0  0  0
  153.2137  144.8690  158.5561 H   0  0  0  0  0  0  0  0  0  0  0  0
  151.5632  145.0171  157.9650 H   0  0  0  0  0  0  0  0  0  0  0  0
  152.5819  143.6810  157.4354 H   0  0  0  0  0  0  0  0  0  0  0  0
  153.1287  141.7563  159.0543 H   0  0  0  0  0  0  0  0  0  0  0  0
  152.4731  141.7627  160.6906 H   0  0  0  0  0  0  0  0  0  0  0  0
  153.7752  142.8609  160.2500 H   0  0  0  0  0  0  0  0  0  0  0  0
  152.4534  144.9141  160.9992 H   0  0  0  0  0  0  0  0  0  0  0  0
  151.1717  143.8352  161.5381 H   0  0  0  0  0  0  0  0  0  0  0  0
  150.8036  145.1537  160.4333 H   0  0  0  0  0  0  0  0  0  0  0  0
  1  2  1  0  0  0  0
  1 19  1  0  0  0  0
  1 20  1  0  0  0  0
  1 21  1  0  0  0  0
  2  3  1  0  0  0  0
  2 13  1  0  0  0  0
  2 22  1  0  0  0  0
  3  4  1  0  0  0  0
  3 23  1  0  0  0  0
  3 24  1  0  0  0  0
  4  5  1  0  0  0  0
  4 25  1  0  0  0  0
  5  6  2  0  0  0  0
  5  7  1  0  0  0  0
  7  8  1  0  0  0  0
  7 26  1  0  0  0  0
  7 27  1  0  0  0  0
  8  9  1  0  0  0  0
  9 10  1  0  0  0  0
  9 11  1  0  0  0  0
  9 12  1  0  0  0  0
 10 28  1  0  0  0  0
 10 29  1  0  0  0  0
 10 30  1  0  0  0  0
 11 31  1  0  0  0  0
 11 32  1  0  0  0  0
 11 33  1  0  0  0  0
 12 34  1  0  0  0  0
 12 35  1  0  0  0  0
 12 36  1  0  0  0  0
 13 17  1  0  0  0  0
 13 14  2  0  0  0  0
 14 15  1  0  0  0  0
 15 16  2  0  0  0  0
 16 17  1  0  0  0  0
 17 18  1  0  0  0  0
M  END
> <s_m_source_file>
AV-unprocessed.smi

> <i_m_source_file_index>
3279

> <i_lp_mmshare_version>
43012

> <i_f3d_flags>
0

> <s_epik_input>
W25IXTFubm5jMVtDQEhdKFtDSDNdKVtDSDJdW05IXUMoPU8pW0NIMl1PQyhbQ0gzXSkoW0NIM10pW0NIM10=

> <s_epik_cmdline>
J2VwaWtfcHl0aG9uJywgJy1waCcsICc3LjAnLCAnLXRuJywgJzgnLCAnLW1hJywgJzIwMCcsICctbWV0YWxfYmluZGluZycsICctaW1hZScsICc8aW5maWxlLm1hZT4nLCAnLW9tYWUnLCAnPG91dGZpbGUubWFlPic=

> <r_lp_tautomer_probability>
0.3

> <r_epik_Ionization_Penalty>
1.45055

> <r_epik_Ionization_Penalty_Charging>
0

> <r_epik_Ionization_Penalty_Neutral>
1.45055

> <r_epik_State_Penalty>
2.31845

> <r_epik_Charging_Adjusted_Penalty>
2.31845

> <i_epik_Tot_Q>
0

> <i_epik_Tot_abs_Q>
0

> <r_epik_Metal_State_Penalty>
2.36898

> <b_epik_Metal_Only>
0

> <s_lp_Force_Field>
OPLS_2005

> <r_lp_Energy>
6.97201

> <b_lp_Chiralities_Consistent>
1

> <s_lp_Variant>
AV-unprocessed.smi:3279-3

> <Gold.Version>
5.8.1

> <Gold.Id.Protein>
6NUR|6NUR_protein|mol2

> <Gold.PLP.Fitness>
38.3032

> <Gold.PLP.PLP>
-31.1322

> <Gold.PLP.part.hbond>
-6.1435

> <Gold.PLP.part.metal>
0.0000

> <Gold.PLP.part.buried>
-3.1725

> <Gold.PLP.part.nonpolar>
-23.8156

> <Gold.PLP.part.repulsive>
0.8998

> <Gold.PLP.ligand.clash>
0.0000

> <Gold.PLP.ligand.torsion>
0.4491

> <Gold.PLP.Chemscore.Hbond>
2.6499

> <Gold.PLP.Chemscore.CHOScore>
0.0000

> <Gold.PLP.Chemscore.Metal>
0.0000

> <Gold.Chemscore.Hbonds>
donor molecule, donor type, donor heavy atom, donor atom, acceptor molecule, acceptor atom, score
      L1  H     4    25       P1  8028  0.40
      P1  H  6933  6944       L1     6  0.34
      P1  H  6934  6946       L1     6  0.40
      P1  H  7989  7998       L1    15  0.92
      P1  H  8011  8017       L1    14  0.57

> <Gold.PLP.Chemscore.Internal.Correction>
0.1194

> <Gold.Rescore>
     Score         DG    S(hbond)    S(metal)    S(lipo)     H(rot)  DE(clash)    DE(int)     intcor
     12.50     -12.81       1.97        0.00      65.59       2.71       0.08       0.22       ----

> <Gold.Chemscore.Fitness>
12.5042

> <Gold.Chemscore.DG>
-12.8080

> <Gold.Chemscore.ZeroCoef>
-5.4800

> <Gold.Chemscore.Hbond>
1.9730

> <Gold.Chemscore.Metal>
0.0000

> <Gold.Chemscore.Lipo>
65.5899

> <Gold.Chemscore.Internal_Hbond>
0.0000

> <Gold.Chemscore.DEClash>
0.0801

> <Gold.Chemscore.DEInternal>
0.2236

> <Gold.Chemscore.Rot>
2.7094

> <Gold.Chemscore.Internal.Correction>
   9.000000E+99

> <Gold.Chemscore.Hbonds>
donor molecule, donor type, donor heavy atom, donor atom, acceptor molecule, acceptor atom, score
      L1  H     4    25       P1  8028  0.37
      P1  H  6933  6944       L1     6  0.29
      P1  H  6934  6946       L1     6  0.40
      P1  H  7989  7998       L1    15  0.69
      P1  H  8011  8017       L1    14  0.20

> <Gold.Chemscore.Hbond.Weighted>
-6.5900

> <Gold.Chemscore.Metal.Weighted>
-0.0000

> <Gold.Chemscore.Lipo.Weighted>
-7.6740

> <Gold.Chemscore.Internal_Hbond.Weighted>
0.0000

> <Gold.Chemscore.DEClash.Weighted>
0.0801

> <Gold.Chemscore.DEInternal.Weighted>
0.2236

> <Gold.Chemscore.Rot.Weighted>
6.9360

> <Gold.Chemscore.Internal.Correction.Weighted>
   9.000000E+99

> <Gold.Protein.RotatedTorsions>
[ 6907 6896 6895 6894 ] final  157.75 input  -60.11 | X-H torsion
[ 7974 7965 7964 7962 ] final  -53.93 input  175.53 | X-H torsion
[ 8008 7997 7996 7995 ] final -127.62 input   59.86 | X-H torsion
[ 10167 10162 10161 10158 ] final   44.73 input  -65.29 | X-H torsion
[ 10718 10713 10712 10709 ] final  -65.70 input   66.30 | X-H torsion
[ 10763 10752 10751 10750 ] final -147.47 input  -60.55 | X-H torsion
[ 11005 11000 10999 10996 ] final  -52.27 input  -57.11 | X-H torsion

> <Gold.Protein.ActiveResidues>
 VAL166  LYS551  ARG553  GLY616  TRP617  ASP618  TYR619  PRO620  LYS621  CYS622 
 ASP623  PHE694  ASN695  SER759  ASP760  ASP761  ALA762  ILE779  LEU786  VAL792 
 PHE793  MET794  SER795  GLU796  ALA797  LYS798  CYS799  TRP800  GLU811  SER814 

> <Gold.Protein.RotatedAtoms>
  152.0105  133.3859  159.4217 H   0  0  0  0  0  0  0  0  0  0  0  0  # atno 6907 bound_to 6896
  150.6900  134.3735  159.5012 H   0  0  0  0  0  0  0  0  0  0  0  0  # atno 6908 bound_to 6896
  152.1495  134.8999  160.0599 H   0  0  0  0  0  0  0  0  0  0  0  0  # atno 6909 bound_to 6896
  145.8913  140.8068  142.9790 H   0  0  0  0  0  0  0  0  0  0  0  0  # atno 7974 bound_to 7965
  155.2492  140.0431  157.2984 H   0  0  0  0  0  0  0  0  0  0  0  0  # atno 8008 bound_to 7997
  154.5780  140.2392  155.8064 H   0  0  0  0  0  0  0  0  0  0  0  0  # atno 8009 bound_to 7997
  156.2172  140.2981  155.9875 H   0  0  0  0  0  0  0  0  0  0  0  0  # atno 8010 bound_to 7997
  140.3313  144.2585  150.6168 H   0  0  0  0  0  0  0  0  0  0  0  0  # atno 10167 bound_to 10162
  156.0654  130.4251  150.1602 H   0  0  0  0  0  0  0  0  0  0  0  0  # atno 10718 bound_to 10713
  154.8284  135.3359  154.6823 H   0  0  0  0  0  0  0  0  0  0  0  0  # atno 10763 bound_to 10752
  153.7446  135.6943  153.4964 H   0  0  0  0  0  0  0  0  0  0  0  0  # atno 10764 bound_to 10752
  153.2220  135.4446  155.0450 H   0  0  0  0  0  0  0  0  0  0  0  0  # atno 10765 bound_to 10752
  141.0915  133.6632  156.4000 H   0  0  0  0  0  0  0  0  0  0  0  0  # atno 11005 bound_to 11000
  144.6730  140.1533  143.7428 LP  0  0  0  0  0  0  0  0  0  0  0  0  # atno 17320 bound_to 7965
  145.8905  139.2373  143.1552 LP  0  0  0  0  0  0  0  0  0  0  0  0  # atno 17321 bound_to 7965
  140.5394  143.2226  151.8109 LP  0  0  0  0  0  0  0  0  0  0  0  0  # atno 17342 bound_to 10162
  139.4856  144.4619  151.9531 LP  0  0  0  0  0  0  0  0  0  0  0  0  # atno 17343 bound_to 10162
  156.9663  130.9820  151.3468 LP  0  0  0  0  0  0  0  0  0  0  0  0  # atno 17370 bound_to 10713
  157.5692  130.8299  149.8369 LP  0  0  0  0  0  0  0  0  0  0  0  0  # atno 17371 bound_to 10713
  140.5240  134.6277  157.5328 LP  0  0  0  0  0  0  0  0  0  0  0  0  # atno 17394 bound_to 11000
  139.9742  134.7242  155.9981 LP  0  0  0  0  0  0  0  0  0  0  0  0  # atno 17395 bound_to 11000

$$$$
