AV-unprocessed.smi:3031|AV-procd|sdf|11546|dock1
  -GOLD-   2272016503D 1   1.00000     0.00000
 Structure written by MMmdl.
 47 48  0  0  0  0  0  0  0  0  2 V2000
  151.6235  141.2032  158.1731 C   0  0  0  0  0  0  0  0  0  0  0  0
  150.9758  140.9557  156.8414 C   0  0  0  0  0  0  0  0  0  0  0  0
  151.2870  139.9404  155.8928 C   0  0  0  0  0  0  0  0  0  0  0  0
  150.5245  139.9939  154.8129 N   0  0  0  0  0  0  0  0  0  0  0  0
  149.7043  141.0438  155.0312 N   0  0  0  0  0  0  0  0  0  0  0  0
  148.7099  141.4073  154.0373 C   0  0  0  0  0  0  0  0  0  0  0  0
  147.2565  141.2262  154.5402 C   0  0  1  0  0  0  0  0  0  0  0  0
  146.2881  142.2524  153.9266 C   0  0  0  0  0  0  0  0  0  0  0  0
  146.7511  139.8761  154.2707 N   0  0  0  0  0  0  0  0  0  0  0  0
  146.8490  139.4291  152.8808 C   0  0  0  0  0  0  0  0  0  0  0  0
  146.0673  138.1239  152.6562 C   0  0  2  0  0  0  0  0  0  0  0  0
  144.6920  138.4495  152.6603 O   0  0  0  0  0  0  0  0  0  0  0  0
  146.3177  137.0780  153.7639 C   0  0  0  0  0  0  0  0  0  0  0  0
  146.4441  135.6994  153.2263 N   0  3  0  0  0  0  0  0  0  0  0  0
  146.5204  134.6546  154.2779 C   0  0  0  0  0  0  0  0  0  0  0  0
  146.6928  133.2647  153.6419 C   0  0  0  0  0  0  0  0  0  0  0  0
  145.6197  133.0144  152.7429 O   0  0  0  0  0  0  0  0  0  0  0  0
  145.5869  133.9572  151.6792 C   0  0  0  0  0  0  0  0  0  0  0  0
  145.3794  135.3711  152.2485 C   0  0  0  0  0  0  0  0  0  0  0  0
  149.9520  141.6397  156.2495 C   0  0  0  0  0  0  0  0  0  0  0  0
  152.6213  140.7670  158.2253 H   0  0  0  0  0  0  0  0  0  0  0  0
  151.0411  140.7731  158.9880 H   0  0  0  0  0  0  0  0  0  0  0  0
  151.7280  142.2685  158.3793 H   0  0  0  0  0  0  0  0  0  0  0  0
  152.0405  139.1695  155.9575 H   0  0  0  0  0  0  0  0  0  0  0  0
  148.8774  142.4423  153.7340 H   0  0  0  0  0  0  0  0  0  0  0  0
  148.8966  140.7910  153.1580 H   0  0  0  0  0  0  0  0  0  0  0  0
  147.2533  141.3879  155.6192 H   0  0  0  0  0  0  0  0  0  0  0  0
  146.5503  143.2726  154.2080 H   0  0  0  0  0  0  0  0  0  0  0  0
  145.2668  142.0814  154.2685 H   0  0  0  0  0  0  0  0  0  0  0  0
  146.2882  142.1970  152.8376 H   0  0  0  0  0  0  0  0  0  0  0  0
  145.7886  139.8077  154.5853 H   0  0  0  0  0  0  0  0  0  0  0  0
  146.4733  140.1926  152.1997 H   0  0  0  0  0  0  0  0  0  0  0  0
  147.8983  139.2705  152.6274 H   0  0  0  0  0  0  0  0  0  0  0  0
  146.3177  137.7262  151.6729 H   0  0  0  0  0  0  0  0  0  0  0  0
  144.4039  138.5580  151.7667 H   0  0  0  0  0  0  0  0  0  0  0  0
  147.2179  137.3196  154.3309 H   0  0  0  0  0  0  0  0  0  0  0  0
  145.4924  137.1219  154.4765 H   0  0  0  0  0  0  0  0  0  0  0  0
  147.3548  134.8473  154.9510 H   0  0  0  0  0  0  0  0  0  0  0  0
  145.6120  134.6751  154.8822 H   0  0  0  0  0  0  0  0  0  0  0  0
  147.6474  133.1903  153.1188 H   0  0  0  0  0  0  0  0  0  0  0  0
  146.6926  132.4956  154.4145 H   0  0  0  0  0  0  0  0  0  0  0  0
  146.5088  133.9015  151.0980 H   0  0  0  0  0  0  0  0  0  0  0  0
  144.7697  133.7000  151.0050 H   0  0  0  0  0  0  0  0  0  0  0  0
  144.4037  135.4405  152.7322 H   0  0  0  0  0  0  0  0  0  0  0  0
  145.3869  136.0967  151.4342 H   0  0  0  0  0  0  0  0  0  0  0  0
  149.3858  142.4943  156.5895 H   0  0  0  0  0  0  0  0  0  0  0  0
  147.3157  135.6721  152.7160 H   0  0  0  0  0  0  0  0  0  0  0  0
  1  2  1  0  0  0  0
  1 21  1  0  0  0  0
  1 22  1  0  0  0  0
  1 23  1  0  0  0  0
  2 20  2  0  0  0  0
  2  3  1  0  0  0  0
  3  4  2  0  0  0  0
  3 24  1  0  0  0  0
  4  5  1  0  0  0  0
  5  6  1  0  0  0  0
  5 20  1  0  0  0  0
  6  7  1  0  0  0  0
  6 25  1  0  0  0  0
  6 26  1  0  0  0  0
  7  8  1  0  0  0  0
  7  9  1  0  0  0  0
  7 27  1  0  0  0  0
  8 28  1  0  0  0  0
  8 29  1  0  0  0  0
  8 30  1  0  0  0  0
  9 10  1  0  0  0  0
  9 31  1  0  0  0  0
 10 11  1  0  0  0  0
 10 32  1  0  0  0  0
 10 33  1  0  0  0  0
 11 12  1  0  0  0  0
 11 13  1  0  0  0  0
 11 34  1  0  0  0  0
 12 35  1  0  0  0  0
 13 14  1  0  0  0  0
 13 36  1  0  0  0  0
 13 37  1  0  0  0  0
 14 19  1  0  0  0  0
 14 15  1  0  0  0  0
 14 47  1  0  0  0  0
 15 16  1  0  0  0  0
 15 38  1  0  0  0  0
 15 39  1  0  0  0  0
 16 17  1  0  0  0  0
 16 40  1  0  0  0  0
 16 41  1  0  0  0  0
 17 18  1  0  0  0  0
 18 19  1  0  0  0  0
 18 42  1  0  0  0  0
 18 43  1  0  0  0  0
 19 44  1  0  0  0  0
 19 45  1  0  0  0  0
 20 46  1  0  0  0  0
M  CHG  1  14   1
M  END
> <s_m_source_file>
AV-unprocessed.smi

> <i_m_source_file_index>
3031

> <i_lp_mmshare_version>
43012

> <i_f3d_flags>
0

> <s_epik_input>
W0NIM11jMVtjSF1ubihbY0hdMSlbQ0gyXVtDQEhdKFtDSDNdKVtOSF1bQ0gyXVtDQEhdKFtPSF0pW0NIMl1OMltDSDJdW0NIMl1PW0NIMl1bQ0gyXTI=

> <s_epik_cmdline>
J2VwaWtfcHl0aG9uJywgJy1waCcsICc3LjAnLCAnLXRuJywgJzgnLCAnLW1hJywgJzIwMCcsICctbWV0YWxfYmluZGluZycsICctaW1hZScsICc8aW5maWxlLm1hZT4nLCAnLW9tYWUnLCAnPG91dGZpbGUubWFlPic=

> <r_epik_Ionization_Penalty>
0.467051

> <r_epik_Ionization_Penalty_Charging>
0.202493

> <r_epik_Ionization_Penalty_Neutral>
0.264558

> <r_epik_State_Penalty>
1.34287

> <r_epik_Charging_Adjusted_Penalty>
1.54537

> <i_epik_Tot_Q>
1

> <i_epik_Tot_abs_Q>
1

> <r_epik_Metal_State_Penalty>
1.34281

> <b_epik_Metal_Only>
0

> <s_lp_Force_Field>
OPLS_2005

> <r_lp_Energy>
23.2864

> <b_lp_Chiralities_Consistent>
1

> <s_lp_Variant>
AV-unprocessed.smi:3031-6

> <Gold.Version>
5.8.1

> <Gold.Id.Protein>
6NUR|6NUR_protein|mol2

> <Gold.PLP.Fitness>
47.8387

> <Gold.PLP.PLP>
-35.0120

> <Gold.PLP.part.hbond>
-3.3821

> <Gold.PLP.part.metal>
0.0000

> <Gold.PLP.part.buried>
-1.5590

> <Gold.PLP.part.nonpolar>
-31.0038

> <Gold.PLP.part.repulsive>
0.1866

> <Gold.PLP.ligand.clash>
0.0000

> <Gold.PLP.ligand.torsion>
1.2121

> <Gold.PLP.Chemscore.Hbond>
4.0000

> <Gold.PLP.Chemscore.CHOScore>
0.9969

> <Gold.PLP.Chemscore.Metal>
0.0000

> <Gold.Chemscore.Hbonds>
donor molecule, donor type, donor heavy atom, donor atom, acceptor molecule, acceptor atom, score
      L1  H    12    35       P1 10171  1.00
      L1  H    14    47       P1  7948  2.00
      P1  H  7989  7998       L1     4  0.80
      L1  C    20    46       P1  8028  1.00

> <Gold.PLP.Chemscore.Internal.Correction>
0.2602

> <Gold.Rescore>
     Score         DG    S(hbond)    S(metal)    S(lipo)     H(rot)  DE(clash)    DE(int)     intcor
     15.89     -17.07       2.87        0.00      75.00       2.65       0.00       1.18       ----

> <Gold.Chemscore.Fitness>
15.8871

> <Gold.Chemscore.DG>
-17.0677

> <Gold.Chemscore.ZeroCoef>
-5.4800

> <Gold.Chemscore.Hbond>
2.8749

> <Gold.Chemscore.Metal>
0.0000

> <Gold.Chemscore.Lipo>
75.0000

> <Gold.Chemscore.Internal_Hbond>
0.0000

> <Gold.Chemscore.DEClash>
0.0048

> <Gold.Chemscore.DEInternal>
1.1758

> <Gold.Chemscore.Rot>
2.6521

> <Gold.Chemscore.Internal.Correction>
   9.000000E+99

> <Gold.Chemscore.Hbonds>
donor molecule, donor type, donor heavy atom, donor atom, acceptor molecule, acceptor atom, score
      L1  H    12    35       P1 10171  0.94
      L1  H    14    47       P1  7948  0.99
      P1  H  7989  7998       L1     4  0.05

> <Gold.Chemscore.Hbond.Weighted>
-9.6021

> <Gold.Chemscore.Metal.Weighted>
-0.0000

> <Gold.Chemscore.Lipo.Weighted>
-8.7750

> <Gold.Chemscore.Internal_Hbond.Weighted>
0.0000

> <Gold.Chemscore.DEClash.Weighted>
0.0048

> <Gold.Chemscore.DEInternal.Weighted>
1.1758

> <Gold.Chemscore.Rot.Weighted>
6.7894

> <Gold.Chemscore.Internal.Correction.Weighted>
   9.000000E+99

> <Gold.Protein.RotatedTorsions>
[ 6907 6896 6895 6894 ] final  138.49 input  -60.11 | X-H torsion
[ 7974 7965 7964 7962 ] final  154.54 input  175.53 | X-H torsion
[ 8008 7997 7996 7995 ] final   15.40 input   59.86 | X-H torsion
[ 10167 10162 10161 10158 ] final -105.16 input  -65.29 | X-H torsion
[ 10718 10713 10712 10709 ] final -173.74 input   66.30 | X-H torsion
[ 10763 10752 10751 10750 ] final   85.98 input  -60.55 | X-H torsion
[ 11005 11000 10999 10996 ] final   22.45 input  -57.11 | X-H torsion

> <Gold.Protein.ActiveResidues>
 VAL166  LYS551  ARG553  GLY616  TRP617  ASP618  TYR619  PRO620  LYS621  CYS622 
 ASP623  PHE694  ASN695  SER759  ASP760  ASP761  ALA762  ILE779  LEU786  VAL792 
 PHE793  MET794  SER795  GLU796  ALA797  LYS798  CYS799  TRP800  GLU811  SER814 

> <Gold.Protein.RotatedAtoms>
  152.2660  133.5340  159.5410 H   0  0  0  0  0  0  0  0  0  0  0  0  # atno 6907 bound_to 6896
  150.7142  134.0764  159.3891 H   0  0  0  0  0  0  0  0  0  0  0  0  # atno 6908 bound_to 6896
  151.8680  135.0500  160.0527 H   0  0  0  0  0  0  0  0  0  0  0  0  # atno 6909 bound_to 6896
  144.8082  139.6947  143.6153 H   0  0  0  0  0  0  0  0  0  0  0  0  # atno 7974 bound_to 7965
  154.8621  140.2946  155.5532 H   0  0  0  0  0  0  0  0  0  0  0  0  # atno 8008 bound_to 7997
  156.3020  140.2476  156.3530 H   0  0  0  0  0  0  0  0  0  0  0  0  # atno 8009 bound_to 7997
  154.8907  140.0394  157.1826 H   0  0  0  0  0  0  0  0  0  0  0  0  # atno 8010 bound_to 7997
  140.2015  143.3815  152.1125 H   0  0  0  0  0  0  0  0  0  0  0  0  # atno 10167 bound_to 10162
  156.7748  130.9462  151.3120 H   0  0  0  0  0  0  0  0  0  0  0  0  # atno 10718 bound_to 10713
  153.1526  135.4597  154.9659 H   0  0  0  0  0  0  0  0  0  0  0  0  # atno 10763 bound_to 10752
  154.7837  135.3197  154.7937 H   0  0  0  0  0  0  0  0  0  0  0  0  # atno 10764 bound_to 10752
  153.8439  135.6927  153.4854 H   0  0  0  0  0  0  0  0  0  0  0  0  # atno 10765 bound_to 10752
  140.3804  134.1926  155.7664 H   0  0  0  0  0  0  0  0  0  0  0  0  # atno 11005 bound_to 11000
  146.2377  139.5938  142.9512 LP  0  0  0  0  0  0  0  0  0  0  0  0  # atno 17320 bound_to 7965
  145.5387  141.0422  143.2343 LP  0  0  0  0  0  0  0  0  0  0  0  0  # atno 17321 bound_to 7965
  139.5215  144.7047  151.5389 LP  0  0  0  0  0  0  0  0  0  0  0  0  # atno 17342 bound_to 10162
  140.6387  143.8932  150.6671 LP  0  0  0  0  0  0  0  0  0  0  0  0  # atno 17343 bound_to 10162
  157.6674  130.9020  149.9963 LP  0  0  0  0  0  0  0  0  0  0  0  0  # atno 17370 bound_to 10713
  156.1255  130.3644  149.9817 LP  0  0  0  0  0  0  0  0  0  0  0  0  # atno 17371 bound_to 10713
  141.1925  133.8171  157.0836 LP  0  0  0  0  0  0  0  0  0  0  0  0  # atno 17394 bound_to 11000
  140.0483  134.9819  157.1089 LP  0  0  0  0  0  0  0  0  0  0  0  0  # atno 17395 bound_to 11000

$$$$
