AV-unprocessed.smi:1783|AV-procd|sdf|7193|dock10
  -GOLD-   22720 8433D 1   1.00000     0.00000
 Structure written by MMmdl.
 30 31  0  0  0  0  0  0  0  0  1 V2000
  153.1176  138.6789  156.1706 O   0  0  0  0  0  0  0  0  0  0  0  0
  152.5738  138.4137  157.2424 C   0  0  0  0  0  0  0  0  0  0  0  0
  151.8784  139.2926  157.9920 N   0  0  0  0  0  0  0  0  0  0  0  0
  151.5994  140.6483  157.7523 C   0  0  0  0  0  0  0  0  0  0  0  0
  151.6889  141.6363  158.6807 C   0  0  0  0  0  0  0  0  0  0  0  0
  151.3962  143.0236  158.3613 C   0  0  0  0  0  0  0  0  0  0  0  0
  151.4159  144.1070  159.4284 C   0  0  0  0  0  0  0  0  0  0  0  0
  152.1958  145.1138  159.0370 F   0  0  0  0  0  0  0  0  0  0  0  0
  150.1927  144.5907  159.6500 F   0  0  0  0  0  0  0  0  0  0  0  0
  151.8941  143.6353  160.5800 F   0  0  0  0  0  0  0  0  0  0  0  0
  151.0246  143.2823  157.0939 C   0  0  0  0  0  0  0  0  0  0  0  0
  150.9529  142.2761  156.1281 N   0  0  0  0  0  0  0  0  0  0  0  0
  151.2157  140.9719  156.3683 C   0  0  0  0  0  0  0  0  0  0  0  0
  151.1271  140.1435  155.4627 O   0  0  0  0  0  0  0  0  0  0  0  0
  152.6703  136.9846  157.8138 C   0  0  1  0  0  0  0  0  0  0  0  0
  154.1018  136.4834  158.0316 C   0  0  0  0  0  0  0  0  0  0  0  0
  154.4917  137.0924  159.3685 C   0  0  0  0  0  0  0  0  0  0  0  0
  153.1502  137.3341  160.0687 C   0  0  0  0  0  0  0  0  0  0  0  0
  152.1442  136.9381  159.1377 O   0  0  0  0  0  0  0  0  0  0  0  0
  150.6829  142.5535  155.1954 H   0  0  0  0  0  0  0  0  0  0  0  0
  151.5464  138.9465  158.8814 H   0  0  0  0  0  0  0  0  0  0  0  0
  152.0050  141.4242  159.6888 H   0  0  0  0  0  0  0  0  0  0  0  0
  150.7508  144.2608  156.7279 H   0  0  0  0  0  0  0  0  0  0  0  0
  152.1101  136.3135  157.1620 H   0  0  0  0  0  0  0  0  0  0  0  0
  154.0938  135.3957  158.1114 H   0  0  0  0  0  0  0  0  0  0  0  0
  154.7944  136.7448  157.2307 H   0  0  0  0  0  0  0  0  0  0  0  0
  155.1489  136.4359  159.9395 H   0  0  0  0  0  0  0  0  0  0  0  0
  155.0111  138.0399  159.2195 H   0  0  0  0  0  0  0  0  0  0  0  0
  153.0564  136.7552  160.9879 H   0  0  0  0  0  0  0  0  0  0  0  0
  153.0288  138.3887  160.3195 H   0  0  0  0  0  0  0  0  0  0  0  0
  1  2  2  0  0  0  0
  2  3  1  0  0  0  0
  2 15  1  0  0  0  0
  3  4  1  0  0  0  0
  3 21  1  0  0  0  0
  4 13  1  0  0  0  0
  4  5  2  0  0  0  0
  5  6  1  0  0  0  0
  5 22  1  0  0  0  0
  6  7  1  0  0  0  0
  6 11  2  0  0  0  0
  7  8  1  0  0  0  0
  7  9  1  0  0  0  0
  7 10  1  0  0  0  0
 11 12  1  0  0  0  0
 11 23  1  0  0  0  0
 12 20  1  0  0  0  0
 12 13  1  0  0  0  0
 13 14  2  0  0  0  0
 15 19  1  0  0  0  0
 15 16  1  0  0  0  0
 15 24  1  0  0  0  0
 16 17  1  0  0  0  0
 16 25  1  0  0  0  0
 16 26  1  0  0  0  0
 17 18  1  0  0  0  0
 17 27  1  0  0  0  0
 17 28  1  0  0  0  0
 18 19  1  0  0  0  0
 18 29  1  0  0  0  0
 18 30  1  0  0  0  0
M  END
> <s_m_source_file>
AV-unprocessed.smi

> <i_m_source_file_index>
1783

> <i_lp_mmshare_version>
43012

> <i_f3d_flags>
0

> <s_epik_input>
TzFbQ0gyXVtDSDJdW0NIMl1bQ0BIXTFDKD1PKVtOSF1jMltjSF1jKEMoRikoRilGKVtjSF1bbkhdYzI9Tw==

> <s_epik_cmdline>
J2VwaWtfcHl0aG9uJywgJy1waCcsICc3LjAnLCAnLXRuJywgJzgnLCAnLW1hJywgJzIwMCcsICctbWV0YWxfYmluZGluZycsICctaW1hZScsICc8aW5maWxlLm1hZT4nLCAnLW9tYWUnLCAnPG91dGZpbGUubWFlPic=

> <r_lp_tautomer_probability>
0.999

> <r_epik_Ionization_Penalty>
0.00885957

> <r_epik_Ionization_Penalty_Charging>
0.00885947

> <r_epik_Ionization_Penalty_Neutral>
9.33956e-08

> <r_epik_State_Penalty>
0.00669851

> <r_epik_Charging_Adjusted_Penalty>
0.015558

> <i_epik_Tot_Q>
0

> <i_epik_Tot_abs_Q>
0

> <r_epik_Metal_State_Penalty>
0.320804

> <b_epik_Metal_Only>
0

> <s_lp_Force_Field>
OPLS_2005

> <r_lp_Energy>
32.0123

> <b_lp_Chiralities_Consistent>
1

> <s_lp_Variant>
AV-unprocessed.smi:1783-2

> <Gold.Version>
5.8.1

> <Gold.Id.Protein>
6NUR|6NUR_protein|mol2

> <Gold.PLP.Fitness>
41.8743

> <Gold.PLP.PLP>
-32.0377

> <Gold.PLP.part.hbond>
-3.1284

> <Gold.PLP.part.metal>
0.0000

> <Gold.PLP.part.buried>
-3.1327

> <Gold.PLP.part.nonpolar>
-26.0462

> <Gold.PLP.part.repulsive>
0.2247

> <Gold.PLP.ligand.clash>
0.0000

> <Gold.PLP.ligand.torsion>
0.5242

> <Gold.PLP.Chemscore.Hbond>
2.6821

> <Gold.PLP.Chemscore.CHOScore>
0.9233

> <Gold.PLP.Chemscore.Metal>
0.0000

> <Gold.Chemscore.Hbonds>
donor molecule, donor type, donor heavy atom, donor atom, acceptor molecule, acceptor atom, score
      P1  H  6896  6908       L1    19  0.93
      P1  H  7989  7998       L1    14  0.70
      P1  H  7997  8010       L1     1  1.00
      L1  C    11    23       P1  8028  0.92

> <Gold.PLP.Chemscore.Internal.Correction>
0.0688

> <Gold.Rescore>
     Score         DG    S(hbond)    S(metal)    S(lipo)     H(rot)  DE(clash)    DE(int)     intcor
     11.38     -16.14       1.84        0.00      60.55       1.00       0.16       4.60       ----

> <Gold.Chemscore.Fitness>
11.3780

> <Gold.Chemscore.DG>
-16.1440

> <Gold.Chemscore.ZeroCoef>
-5.4800

> <Gold.Chemscore.Hbond>
1.8382

> <Gold.Chemscore.Metal>
0.0000

> <Gold.Chemscore.Lipo>
60.5495

> <Gold.Chemscore.Internal_Hbond>
0.0000

> <Gold.Chemscore.DEClash>
0.1626

> <Gold.Chemscore.DEInternal>
4.6034

> <Gold.Chemscore.Rot>
1.0000

> <Gold.Chemscore.Internal.Correction>
   9.000000E+99

> <Gold.Chemscore.Hbonds>
donor molecule, donor type, donor heavy atom, donor atom, acceptor molecule, acceptor atom, score
      P1  H  6896  6908       L1    19  0.19
      P1  H  7989  7998       L1    14  0.61
      P1  H  7997  8010       L1     1  0.83

> <Gold.Chemscore.Hbond.Weighted>
-6.1397

> <Gold.Chemscore.Metal.Weighted>
-0.0000

> <Gold.Chemscore.Lipo.Weighted>
-7.0843

> <Gold.Chemscore.Internal_Hbond.Weighted>
0.0000

> <Gold.Chemscore.DEClash.Weighted>
0.1626

> <Gold.Chemscore.DEInternal.Weighted>
4.6034

> <Gold.Chemscore.Rot.Weighted>
2.5600

> <Gold.Chemscore.Internal.Correction.Weighted>
   9.000000E+99

> <Gold.Protein.RotatedTorsions>
[ 6907 6896 6895 6894 ] final -119.97 input  -60.11 | X-H torsion
[ 7974 7965 7964 7962 ] final  -80.94 input  175.53 | X-H torsion
[ 8008 7997 7996 7995 ] final   79.44 input   59.86 | X-H torsion
[ 10167 10162 10161 10158 ] final  126.32 input  -65.29 | X-H torsion
[ 10718 10713 10712 10709 ] final   15.41 input   66.30 | X-H torsion
[ 10763 10752 10751 10750 ] final   -6.83 input  -60.55 | X-H torsion
[ 11005 11000 10999 10996 ] final  117.85 input  -57.11 | X-H torsion

> <Gold.Protein.ActiveResidues>
 VAL166  LYS551  ARG553  GLY616  TRP617  ASP618  TYR619  PRO620  LYS621  CYS622 
 ASP623  PHE694  ASN695  SER759  ASP760  ASP761  ALA762  ILE779  LEU786  VAL792 
 PHE793  MET794  SER795  GLU796  ALA797  LYS798  CYS799  TRP800  GLU811  SER814 

> <Gold.Protein.RotatedAtoms>
  150.8351  133.8026  159.3082 H   0  0  0  0  0  0  0  0  0  0  0  0  # atno 6907 bound_to 6896
  151.5744  135.1059  160.0012 H   0  0  0  0  0  0  0  0  0  0  0  0  # atno 6908 bound_to 6896
  152.4425  133.7433  159.6709 H   0  0  0  0  0  0  0  0  0  0  0  0  # atno 6909 bound_to 6896
  145.5532  140.9493  143.1488 H   0  0  0  0  0  0  0  0  0  0  0  0  # atno 7974 bound_to 7965
  155.8697  140.3449  155.5813 H   0  0  0  0  0  0  0  0  0  0  0  0  # atno 8008 bound_to 7997
  155.7841  140.0862  157.2063 H   0  0  0  0  0  0  0  0  0  0  0  0  # atno 8009 bound_to 7997
  154.4016  140.1495  156.3073 H   0  0  0  0  0  0  0  0  0  0  0  0  # atno 8010 bound_to 7997
  139.5637  144.6898  151.3970 H   0  0  0  0  0  0  0  0  0  0  0  0  # atno 10167 bound_to 10162
  157.0532  130.6278  149.5772 H   0  0  0  0  0  0  0  0  0  0  0  0  # atno 10718 bound_to 10713
  153.4179  135.7009  153.6314 H   0  0  0  0  0  0  0  0  0  0  0  0  # atno 10763 bound_to 10752
  153.4781  135.3700  155.2427 H   0  0  0  0  0  0  0  0  0  0  0  0  # atno 10764 bound_to 10752
  154.8720  135.4059  154.3542 H   0  0  0  0  0  0  0  0  0  0  0  0  # atno 10765 bound_to 10752
  139.9089  134.9614  156.7414 H   0  0  0  0  0  0  0  0  0  0  0  0  # atno 11005 bound_to 11000
  144.7519  139.7172  143.7269 LP  0  0  0  0  0  0  0  0  0  0  0  0  # atno 17320 bound_to 7965
  146.1902  139.5139  142.9810 LP  0  0  0  0  0  0  0  0  0  0  0  0  # atno 17321 bound_to 7965
  140.6919  143.7841  150.7268 LP  0  0  0  0  0  0  0  0  0  0  0  0  # atno 17342 bound_to 10162
  140.1325  143.4513  152.2245 LP  0  0  0  0  0  0  0  0  0  0  0  0  # atno 17343 bound_to 10162
  156.0001  130.5078  150.7631 LP  0  0  0  0  0  0  0  0  0  0  0  0  # atno 17370 bound_to 10713
  157.5014  131.0919  151.0310 LP  0  0  0  0  0  0  0  0  0  0  0  0  # atno 17371 bound_to 10713
  140.6846  133.9444  155.7930 LP  0  0  0  0  0  0  0  0  0  0  0  0  # atno 17394 bound_to 11000
  141.0485  134.0518  157.3813 LP  0  0  0  0  0  0  0  0  0  0  0  0  # atno 17395 bound_to 11000

$$$$
