AV-unprocessed.smi:1240|AV-procd|sdf|5208|dock5
  -GOLD-   22720 4303D 1   1.00000     0.00000
 Structure written by MMmdl.
 49 51  0  0  0  0  0  0  0  0  3 V2000
  146.3522  131.3160  153.7957 O   0  0  0  0  0  0  0  0  0  0  0  0
  147.1528  131.4008  152.8649 C   0  0  0  0  0  0  0  0  0  0  0  0
  148.4518  131.0902  152.9800 N   0  0  0  0  0  0  0  0  0  0  0  0
  149.0945  130.6175  154.2011 C   0  0  0  0  0  0  0  0  0  0  0  0
  150.3596  129.7449  153.9557 C   0  0  1  0  0  0  0  0  0  0  0  0
  151.4047  129.8049  155.1065 C   0  0  2  0  0  0  0  0  0  0  0  0
  151.7494  131.1940  155.6248 C   0  0  0  0  0  0  0  0  0  0  0  0
  153.1199  131.0052  156.2749 C   0  0  0  0  0  0  0  0  0  0  0  0
  153.6684  129.8188  155.7127 O   0  0  0  0  0  0  0  0  0  0  0  0
  152.8027  129.3298  154.7000 C   0  0  0  0  0  0  0  0  0  0  0  0
  150.0016  128.3230  153.6679 N   0  3  0  0  0  0  0  0  0  0  0  0
  149.6844  127.4772  154.8467 C   0  0  0  0  0  0  0  0  0  0  0  0
  149.5232  126.0118  154.4100 C   0  0  0  0  0  0  0  0  0  0  0  0
  148.5053  125.9210  153.4200 O   0  0  0  0  0  0  0  0  0  0  0  0
  148.8250  126.6680  152.2518 C   0  0  0  0  0  0  0  0  0  0  0  0
  148.9738  128.1563  152.6115 C   0  0  0  0  0  0  0  0  0  0  0  0
  146.8601  131.8190  151.6214 N   0  0  0  0  0  0  0  0  0  0  0  0
  145.5999  132.2118  151.0942 C   0  0  0  0  0  0  0  0  0  0  0  0
  144.6524  132.7482  151.9943 C   0  0  0  0  0  0  0  0  0  0  0  0
  143.3958  133.1681  151.5128 C   0  0  0  0  0  0  0  0  0  0  0  0
  143.1111  133.0644  150.1972 N   0  3  0  0  0  0  0  0  0  0  0  0
  143.9887  132.5717  149.2967 C   0  0  0  0  0  0  0  0  0  0  0  0
  145.2612  132.1359  149.7190 C   0  0  0  0  0  0  0  0  0  0  0  0
  149.0422  131.1938  152.1671 H   0  0  0  0  0  0  0  0  0  0  0  0
  149.3540  131.5021  154.7825 H   0  0  0  0  0  0  0  0  0  0  0  0
  148.3526  130.0748  154.7879 H   0  0  0  0  0  0  0  0  0  0  0  0
  150.8612  130.1169  153.0614 H   0  0  0  0  0  0  0  0  0  0  0  0
  151.0661  129.2018  155.9499 H   0  0  0  0  0  0  0  0  0  0  0  0
  151.8314  131.8988  154.7960 H   0  0  0  0  0  0  0  0  0  0  0  0
  151.0183  131.5854  156.3321 H   0  0  0  0  0  0  0  0  0  0  0  0
  153.7725  131.8602  156.0960 H   0  0  0  0  0  0  0  0  0  0  0  0
  153.0269  130.8707  157.3530 H   0  0  0  0  0  0  0  0  0  0  0  0
  152.8752  128.2449  154.6180 H   0  0  0  0  0  0  0  0  0  0  0  0
  153.0985  129.7640  153.7435 H   0  0  0  0  0  0  0  0  0  0  0  0
  150.4742  127.5487  155.5940 H   0  0  0  0  0  0  0  0  0  0  0  0
  148.7606  127.8142  155.3182 H   0  0  0  0  0  0  0  0  0  0  0  0
  150.4629  125.6140  154.0232 H   0  0  0  0  0  0  0  0  0  0  0  0
  149.2425  125.3942  155.2632 H   0  0  0  0  0  0  0  0  0  0  0  0
  149.7409  126.2833  151.8000 H   0  0  0  0  0  0  0  0  0  0  0  0
  148.0291  126.5363  151.5188 H   0  0  0  0  0  0  0  0  0  0  0  0
  148.0153  128.5496  152.9509 H   0  0  0  0  0  0  0  0  0  0  0  0
  149.2554  128.7195  151.7211 H   0  0  0  0  0  0  0  0  0  0  0  0
  147.6429  131.9199  150.9918 H   0  0  0  0  0  0  0  0  0  0  0  0
  144.8802  132.8335  153.0471 H   0  0  0  0  0  0  0  0  0  0  0  0
  142.6165  133.5828  152.1357 H   0  0  0  0  0  0  0  0  0  0  0  0
  143.6517  132.5467  148.2707 H   0  0  0  0  0  0  0  0  0  0  0  0
  145.9544  131.7649  148.9795 H   0  0  0  0  0  0  0  0  0  0  0  0
  150.8408  127.9256  153.2703 H   0  0  0  0  0  0  0  0  0  0  0  0
  142.1965  133.3757  149.8689 H   0  0  0  0  0  0  0  0  0  0  0  0
  1  2  2  0  0  0  0
  2  3  1  0  0  0  0
  2 17  1  0  0  0  0
  3  4  1  0  0  0  0
  3 24  1  0  0  0  0
  4  5  1  0  0  0  0
  4 25  1  0  0  0  0
  4 26  1  0  0  0  0
  5  6  1  0  0  0  0
  5 11  1  0  0  0  0
  5 27  1  0  0  0  0
  6 10  1  0  0  0  0
  6  7  1  0  0  0  0
  6 28  1  0  0  0  0
  7  8  1  0  0  0  0
  7 29  1  0  0  0  0
  7 30  1  0  0  0  0
  8  9  1  0  0  0  0
  8 31  1  0  0  0  0
  8 32  1  0  0  0  0
  9 10  1  0  0  0  0
 10 33  1  0  0  0  0
 10 34  1  0  0  0  0
 11 16  1  0  0  0  0
 11 12  1  0  0  0  0
 11 48  1  0  0  0  0
 12 13  1  0  0  0  0
 12 35  1  0  0  0  0
 12 36  1  0  0  0  0
 13 14  1  0  0  0  0
 13 37  1  0  0  0  0
 13 38  1  0  0  0  0
 14 15  1  0  0  0  0
 15 16  1  0  0  0  0
 15 39  1  0  0  0  0
 15 40  1  0  0  0  0
 16 41  1  0  0  0  0
 16 42  1  0  0  0  0
 17 18  1  0  0  0  0
 17 43  1  0  0  0  0
 18 23  1  0  0  0  0
 18 19  2  0  0  0  0
 19 20  1  0  0  0  0
 19 44  1  0  0  0  0
 20 21  2  0  0  0  0
 20 45  1  0  0  0  0
 21 22  1  0  0  0  0
 21 49  1  0  0  0  0
 22 23  2  0  0  0  0
 22 46  1  0  0  0  0
 23 47  1  0  0  0  0
M  CHG  1  11   1
M  CHG  1  21   1
M  END
> <s_m_source_file>
AV-unprocessed.smi

> <i_m_source_file_index>
1240

> <i_lp_mmshare_version>
43012

> <i_f3d_flags>
0

> <s_epik_input>
W2NIXTFbY0hdbltjSF1bY0hdYzFbTkhdQyg9TylbTkhdW0NIMl1bQ0BIXShbQ0BASF0yW0NIMl1bQ0gyXU9bQ0gyXTIpTjNbQ0gyXVtDSDJdT1tDSDJdW0NIMl0z

> <s_epik_cmdline>
J2VwaWtfcHl0aG9uJywgJy1waCcsICc3LjAnLCAnLXRuJywgJzgnLCAnLW1hJywgJzIwMCcsICctbWV0YWxfYmluZGluZycsICctaW1hZScsICc8aW5maWxlLm1hZT4nLCAnLW9tYWUnLCAnPG91dGZpbGUubWFlPic=

> <r_epik_Ionization_Penalty>
2.08105

> <r_epik_Ionization_Penalty_Charging>
2.08103

> <r_epik_Ionization_Penalty_Neutral>
2.04144e-05

> <r_epik_State_Penalty>
2.15598

> <r_epik_Charging_Adjusted_Penalty>
4.23701

> <i_epik_Tot_Q>
2

> <i_epik_Tot_abs_Q>
2

> <r_epik_Metal_State_Penalty>
2.25158

> <b_epik_Metal_Only>
0

> <s_lp_Force_Field>
OPLS_2005

> <r_lp_Energy>
49.9195

> <b_lp_Chiralities_Consistent>
1

> <s_lp_Variant>
AV-unprocessed.smi:1240-14

> <Gold.Version>
5.8.1

> <Gold.Id.Protein>
6NUR|6NUR_protein|mol2

> <Gold.PLP.Fitness>
49.7308

> <Gold.PLP.PLP>
-37.7224

> <Gold.PLP.part.hbond>
-4.0000

> <Gold.PLP.part.metal>
0.0000

> <Gold.PLP.part.buried>
-6.7052

> <Gold.PLP.part.nonpolar>
-26.9748

> <Gold.PLP.part.repulsive>
0.3236

> <Gold.PLP.ligand.clash>
0.0000

> <Gold.PLP.ligand.torsion>
0.9436

> <Gold.PLP.Chemscore.Hbond>
4.5440

> <Gold.PLP.Chemscore.CHOScore>
0.0000

> <Gold.PLP.Chemscore.Metal>
0.0000

> <Gold.Chemscore.Hbonds>
donor molecule, donor type, donor heavy atom, donor atom, acceptor molecule, acceptor atom, score
      L1  H     3    24       P1 10747  0.80
      L1  H    11    48       P1 10737  0.98
      L1  H    17    43       P1 10747  0.77
      L1  H    21    49       P1 10186  2.00

> <Gold.PLP.Chemscore.Internal.Correction>
0.2637

> <Gold.Rescore>
     Score         DG    S(hbond)    S(metal)    S(lipo)     H(rot)  DE(clash)    DE(int)     intcor
     18.87     -22.52       3.18        0.00      92.97       1.74       0.28       3.37       ----

> <Gold.Chemscore.Fitness>
18.8719

> <Gold.Chemscore.DG>
-22.5227

> <Gold.Chemscore.ZeroCoef>
-5.4800

> <Gold.Chemscore.Hbond>
3.1812

> <Gold.Chemscore.Metal>
0.0000

> <Gold.Chemscore.Lipo>
92.9678

> <Gold.Chemscore.Internal_Hbond>
0.0000

> <Gold.Chemscore.DEClash>
0.2826

> <Gold.Chemscore.DEInternal>
3.3682

> <Gold.Chemscore.Rot>
1.7421

> <Gold.Chemscore.Internal.Correction>
   9.000000E+99

> <Gold.Chemscore.Hbonds>
donor molecule, donor type, donor heavy atom, donor atom, acceptor molecule, acceptor atom, score
      L1  H     3    24       P1 10747  0.40
      L1  H    11    48       P1 10737  0.92
      L1  H    17    43       P1 10747  0.78
      L1  H    21    49       P1 10186  0.98

> <Gold.Chemscore.Hbond.Weighted>
-10.6252

> <Gold.Chemscore.Metal.Weighted>
-0.0000

> <Gold.Chemscore.Lipo.Weighted>
-10.8772

> <Gold.Chemscore.Internal_Hbond.Weighted>
0.0000

> <Gold.Chemscore.DEClash.Weighted>
0.2826

> <Gold.Chemscore.DEInternal.Weighted>
3.3682

> <Gold.Chemscore.Rot.Weighted>
4.4597

> <Gold.Chemscore.Internal.Correction.Weighted>
   9.000000E+99

> <Gold.Protein.RotatedTorsions>
[ 6907 6896 6895 6894 ] final  109.40 input  -60.11 | X-H torsion
[ 7974 7965 7964 7962 ] final   75.27 input  175.53 | X-H torsion
[ 8008 7997 7996 7995 ] final   46.17 input   59.86 | X-H torsion
[ 10167 10162 10161 10158 ] final  -53.64 input  -65.29 | X-H torsion
[ 10718 10713 10712 10709 ] final  -64.50 input   66.30 | X-H torsion
[ 10763 10752 10751 10750 ] final   -5.76 input  -60.55 | X-H torsion
[ 11005 11000 10999 10996 ] final  120.77 input  -57.11 | X-H torsion

> <Gold.Protein.ActiveResidues>
 VAL166  LYS551  ARG553  GLY616  TRP617  ASP618  TYR619  PRO620  LYS621  CYS622 
 ASP623  PHE694  ASN695  SER759  ASP760  ASP761  ALA762  ILE779  LEU786  VAL792 
 PHE793  MET794  SER795  GLU796  ALA797  LYS798  CYS799  TRP800  GLU811  SER814 

> <Gold.Protein.RotatedAtoms>
  152.5069  133.8950  159.7412 H   0  0  0  0  0  0  0  0  0  0  0  0  # atno 6907 bound_to 6896
  150.9380  133.6681  159.2803 H   0  0  0  0  0  0  0  0  0  0  0  0  # atno 6908 bound_to 6896
  151.4003  135.0975  159.9606 H   0  0  0  0  0  0  0  0  0  0  0  0  # atno 6909 bound_to 6896
  145.7177  139.2637  143.1614 H   0  0  0  0  0  0  0  0  0  0  0  0  # atno 7974 bound_to 7965
  155.3481  140.3412  155.4239 H   0  0  0  0  0  0  0  0  0  0  0  0  # atno 8008 bound_to 7997
  156.1778  140.1653  156.8365 H   0  0  0  0  0  0  0  0  0  0  0  0  # atno 8009 bound_to 7997
  154.5301  140.0747  156.8312 H   0  0  0  0  0  0  0  0  0  0  0  0  # atno 8010 bound_to 7997
  140.6474  143.2543  151.4822 H   0  0  0  0  0  0  0  0  0  0  0  0  # atno 10167 bound_to 10162
  156.0725  130.4234  150.1429 H   0  0  0  0  0  0  0  0  0  0  0  0  # atno 10718 bound_to 10713
  153.4030  135.7005  153.6413 H   0  0  0  0  0  0  0  0  0  0  0  0  # atno 10763 bound_to 10752
  153.4938  135.3667  155.2506 H   0  0  0  0  0  0  0  0  0  0  0  0  # atno 10764 bound_to 10752
  154.8712  135.4095  154.3368 H   0  0  0  0  0  0  0  0  0  0  0  0  # atno 10765 bound_to 10752
  139.9198  134.9636  156.7857 H   0  0  0  0  0  0  0  0  0  0  0  0  # atno 11005 bound_to 11000
  146.0654  140.7926  142.9714 LP  0  0  0  0  0  0  0  0  0  0  0  0  # atno 17320 bound_to 7965
  144.6925  140.3260  143.7224 LP  0  0  0  0  0  0  0  0  0  0  0  0  # atno 17321 bound_to 7965
  139.5685  144.1984  152.1801 LP  0  0  0  0  0  0  0  0  0  0  0  0  # atno 17342 bound_to 10162
  140.1273  144.5320  150.6824 LP  0  0  0  0  0  0  0  0  0  0  0  0  # atno 17343 bound_to 10162
  156.9477  130.9765  151.3504 LP  0  0  0  0  0  0  0  0  0  0  0  0  # atno 17370 bound_to 10713
  157.5804  130.8372  149.8514 LP  0  0  0  0  0  0  0  0  0  0  0  0  # atno 17371 bound_to 10713
  140.6508  133.9733  155.7754 LP  0  0  0  0  0  0  0  0  0  0  0  0  # atno 17394 bound_to 11000
  141.0709  134.0206  157.3527 LP  0  0  0  0  0  0  0  0  0  0  0  0  # atno 17395 bound_to 11000

$$$$
