AV-unprocessed.smi:3290|AV-procd|sdf|12617|dock4
  -GOLD-   2272018553D 1   1.00000     0.00000
 Structure written by MMmdl.
 43 44  0  0  0  0  0  0  0  0  2 V2000
  152.2663  145.3630  160.4619 C   0  0  0  0  0  0  0  0  0  0  0  0
  151.5532  144.0324  160.7776 C   0  0  2  0  0  0  0  0  0  0  0  0
  152.3498  143.1871  161.7944 C   0  0  0  0  0  0  0  0  0  0  0  0
  153.6111  142.5617  161.1748 C   0  0  0  0  0  0  0  0  0  0  0  0
  153.2666  141.7353  159.9272 C   0  0  0  0  0  0  0  0  0  0  0  0
  152.4808  142.5662  158.9005 C   0  0  0  0  0  0  0  0  0  0  0  0
  151.2080  143.1829  159.5250 C   0  0  2  0  0  0  0  0  0  0  0  0
  150.3650  143.9597  158.4937 C   0  0  0  0  0  0  0  0  0  0  0  0
  150.4698  143.3624  157.1480 N   0  3  0  0  0  0  0  0  0  0  0  0
  150.0552  141.9466  157.0816 C   0  0  0  0  0  0  0  0  0  0  0  0
  150.5124  141.2856  155.7687 C   0  0  1  0  0  0  0  0  0  0  0  0
  151.4408  140.2696  156.0852 O   0  0  0  0  0  0  0  0  0  0  0  0
  149.3394  140.7554  154.9570 C   0  0  0  0  0  0  0  0  0  0  0  0
  149.2030  139.3757  154.6919 C   0  0  0  0  0  0  0  0  0  0  0  0
  148.0876  138.9391  153.9496 C   0  0  0  0  0  0  0  0  0  0  0  0
  147.1375  139.7752  153.4797 N   0  0  0  0  0  0  0  0  0  0  0  0
  147.2731  141.0938  153.7355 C   0  0  0  0  0  0  0  0  0  0  0  0
  148.3494  141.6334  154.4677 C   0  0  0  0  0  0  0  0  0  0  0  0
  153.2011  145.2125  159.9230 H   0  0  0  0  0  0  0  0  0  0  0  0
  152.5025  145.9037  161.3789 H   0  0  0  0  0  0  0  0  0  0  0  0
  151.6396  146.0208  159.8602 H   0  0  0  0  0  0  0  0  0  0  0  0
  150.6121  144.2992  161.2606 H   0  0  0  0  0  0  0  0  0  0  0  0
  152.6214  143.7923  162.6603 H   0  0  0  0  0  0  0  0  0  0  0  0
  151.7106  142.3898  162.1757 H   0  0  0  0  0  0  0  0  0  0  0  0
  154.3249  143.3430  160.9128 H   0  0  0  0  0  0  0  0  0  0  0  0
  154.1089  141.9293  161.9106 H   0  0  0  0  0  0  0  0  0  0  0  0
  154.1799  141.3493  159.4733 H   0  0  0  0  0  0  0  0  0  0  0  0
  152.6769  140.8653  160.2190 H   0  0  0  0  0  0  0  0  0  0  0  0
  153.1211  143.3499  158.4948 H   0  0  0  0  0  0  0  0  0  0  0  0
  152.2177  141.9262  158.0579 H   0  0  0  0  0  0  0  0  0  0  0  0
  150.5899  142.3551  159.8777 H   0  0  0  0  0  0  0  0  0  0  0  0
  149.3156  143.9555  158.7921 H   0  0  0  0  0  0  0  0  0  0  0  0
  150.6827  145.0021  158.4469 H   0  0  0  0  0  0  0  0  0  0  0  0
  149.8825  143.8938  156.5209 H   0  0  0  0  0  0  0  0  0  0  0  0
  150.4817  141.4195  157.9363 H   0  0  0  0  0  0  0  0  0  0  0  0
  148.9700  141.8826  157.1761 H   0  0  0  0  0  0  0  0  0  0  0  0
  151.0487  142.0228  155.1690 H   0  0  0  0  0  0  0  0  0  0  0  0
  151.0081  139.4325  156.0094 H   0  0  0  0  0  0  0  0  0  0  0  0
  149.9335  138.6641  155.0481 H   0  0  0  0  0  0  0  0  0  0  0  0
  147.9539  137.8900  153.7308 H   0  0  0  0  0  0  0  0  0  0  0  0
  146.4983  141.7386  153.3478 H   0  0  0  0  0  0  0  0  0  0  0  0
  148.4081  142.6972  154.6459 H   0  0  0  0  0  0  0  0  0  0  0  0
  151.4269  143.4351  156.8333 H   0  0  0  0  0  0  0  0  0  0  0  0
  1  2  1  0  0  0  0
  1 19  1  0  0  0  0
  1 20  1  0  0  0  0
  1 21  1  0  0  0  0
  2  7  1  0  0  0  0
  2  3  1  0  0  0  0
  2 22  1  0  0  0  0
  3  4  1  0  0  0  0
  3 23  1  0  0  0  0
  3 24  1  0  0  0  0
  4  5  1  0  0  0  0
  4 25  1  0  0  0  0
  4 26  1  0  0  0  0
  5  6  1  0  0  0  0
  5 27  1  0  0  0  0
  5 28  1  0  0  0  0
  6  7  1  0  0  0  0
  6 29  1  0  0  0  0
  6 30  1  0  0  0  0
  7  8  1  0  0  0  0
  7 31  1  0  0  0  0
  8  9  1  0  0  0  0
  8 32  1  0  0  0  0
  8 33  1  0  0  0  0
  9 10  1  0  0  0  0
  9 34  1  0  0  0  0
  9 43  1  0  0  0  0
 10 11  1  0  0  0  0
 10 35  1  0  0  0  0
 10 36  1  0  0  0  0
 11 12  1  0  0  0  0
 11 13  1  0  0  0  0
 11 37  1  0  0  0  0
 12 38  1  0  0  0  0
 13 18  1  0  0  0  0
 13 14  2  0  0  0  0
 14 15  1  0  0  0  0
 14 39  1  0  0  0  0
 15 16  2  0  0  0  0
 15 40  1  0  0  0  0
 16 17  1  0  0  0  0
 17 18  2  0  0  0  0
 17 41  1  0  0  0  0
 18 42  1  0  0  0  0
M  CHG  1   9   1
M  END
> <s_m_source_file>
AV-unprocessed.smi

> <i_m_source_file_index>
3290

> <i_lp_mmshare_version>
43012

> <i_f3d_flags>
0

> <s_epik_input>
W0NIM11bQ0BASF0xW0NIMl1bQ0gyXVtDSDJdW0NIMl1bQ0BIXTFbQ0gyXVtOSF1bQ0gyXVtDQEhdKFtPSF0pYzJbY0hdW2NIXW5bY0hdW2NIXTI=

> <s_epik_cmdline>
J2VwaWtfcHl0aG9uJywgJy1waCcsICc3LjAnLCAnLXRuJywgJzgnLCAnLW1hJywgJzIwMCcsICctbWV0YWxfYmluZGluZycsICctaW1hZScsICc8aW5maWxlLm1hZT4nLCAnLW9tYWUnLCAnPG91dGZpbGUubWFlPic=

> <r_lp_tautomer_probability>
1

> <r_epik_Ionization_Penalty>
0.00420552

> <r_epik_Ionization_Penalty_Charging>
0.00207255

> <r_epik_Ionization_Penalty_Neutral>
0.00213297

> <r_epik_State_Penalty>
-0

> <r_epik_Charging_Adjusted_Penalty>
0.00207255

> <i_epik_Tot_Q>
1

> <i_epik_Tot_abs_Q>
1

> <r_epik_Metal_State_Penalty>
-0

> <b_epik_Metal_Only>
0

> <s_lp_Force_Field>
OPLS_2005

> <r_lp_Energy>
19.3175

> <b_lp_Chiralities_Consistent>
1

> <s_lp_Variant>
AV-unprocessed.smi:3290-7

> <Gold.Version>
5.8.1

> <Gold.Id.Protein>
6NUR|6NUR_protein|mol2

> <Gold.PLP.Fitness>
47.0800

> <Gold.PLP.PLP>
-40.2171

> <Gold.PLP.part.hbond>
-1.0000

> <Gold.PLP.part.metal>
0.0000

> <Gold.PLP.part.buried>
-3.5936

> <Gold.PLP.part.nonpolar>
-35.1380

> <Gold.PLP.part.repulsive>
0.2646

> <Gold.PLP.ligand.clash>
0.0000

> <Gold.PLP.ligand.torsion>
1.0962

> <Gold.PLP.Chemscore.Hbond>
2.0000

> <Gold.PLP.Chemscore.CHOScore>
1.0000

> <Gold.PLP.Chemscore.Metal>
0.0000

> <Gold.Chemscore.Hbonds>
donor molecule, donor type, donor heavy atom, donor atom, acceptor molecule, acceptor atom, score
      L1  H     9    34       P1  8028  2.00
      L1  C    15    40       P1  7948  0.62

> <Gold.PLP.Chemscore.Internal.Correction>
0.0552

> <Gold.Rescore>
     Score         DG    S(hbond)    S(metal)    S(lipo)     H(rot)  DE(clash)    DE(int)     intcor
     17.91     -19.02       0.97        0.00     132.81       2.05       0.09       1.02       ----

> <Gold.Chemscore.Fitness>
17.9121

> <Gold.Chemscore.DG>
-19.0213

> <Gold.Chemscore.ZeroCoef>
-5.4800

> <Gold.Chemscore.Hbond>
0.9731

> <Gold.Chemscore.Metal>
0.0000

> <Gold.Chemscore.Lipo>
132.8100

> <Gold.Chemscore.Internal_Hbond>
0.0000

> <Gold.Chemscore.DEClash>
0.0910

> <Gold.Chemscore.DEInternal>
1.0183

> <Gold.Chemscore.Rot>
2.0498

> <Gold.Chemscore.Internal.Correction>
   9.000000E+99

> <Gold.Chemscore.Hbonds>
donor molecule, donor type, donor heavy atom, donor atom, acceptor molecule, acceptor atom, score
      L1  H     9    34       P1  8028  0.94

> <Gold.Chemscore.Hbond.Weighted>
-3.2501

> <Gold.Chemscore.Metal.Weighted>
-0.0000

> <Gold.Chemscore.Lipo.Weighted>
-15.5388

> <Gold.Chemscore.Internal_Hbond.Weighted>
0.0000

> <Gold.Chemscore.DEClash.Weighted>
0.0910

> <Gold.Chemscore.DEInternal.Weighted>
1.0183

> <Gold.Chemscore.Rot.Weighted>
5.2475

> <Gold.Chemscore.Internal.Correction.Weighted>
   9.000000E+99

> <Gold.Protein.RotatedTorsions>
[ 6907 6896 6895 6894 ] final  135.30 input  -60.11 | X-H torsion
[ 7974 7965 7964 7962 ] final -139.93 input  175.53 | X-H torsion
[ 8008 7997 7996 7995 ] final  130.72 input   59.86 | X-H torsion
[ 10167 10162 10161 10158 ] final  -33.58 input  -65.29 | X-H torsion
[ 10718 10713 10712 10709 ] final -173.01 input   66.30 | X-H torsion
[ 10763 10752 10751 10750 ] final   66.87 input  -60.55 | X-H torsion
[ 11005 11000 10999 10996 ] final -150.10 input  -57.11 | X-H torsion

> <Gold.Protein.ActiveResidues>
 VAL166  LYS551  ARG553  GLY616  TRP617  ASP618  TYR619  PRO620  LYS621  CYS622 
 ASP623  PHE694  ASN695  SER759  ASP760  ASP761  ALA762  ILE779  LEU786  VAL792 
 PHE793  MET794  SER795  GLU796  ALA797  LYS798  CYS799  TRP800  GLU811  SER814 

> <Gold.Protein.RotatedAtoms>
  152.3019  133.5664  159.5623 H   0  0  0  0  0  0  0  0  0  0  0  0  # atno 6907 bound_to 6896
  150.7282  134.0278  159.3732 H   0  0  0  0  0  0  0  0  0  0  0  0  # atno 6908 bound_to 6896
  151.8178  135.0661  160.0472 H   0  0  0  0  0  0  0  0  0  0  0  0  # atno 6909 bound_to 6896
  144.8638  140.6261  143.5311 H   0  0  0  0  0  0  0  0  0  0  0  0  # atno 7974 bound_to 7965
  156.2959  140.2589  156.2808 H   0  0  0  0  0  0  0  0  0  0  0  0  # atno 8008 bound_to 7997
  154.9604  140.0392  157.2206 H   0  0  0  0  0  0  0  0  0  0  0  0  # atno 8009 bound_to 7997
  154.7952  140.2819  155.5966 H   0  0  0  0  0  0  0  0  0  0  0  0  # atno 8010 bound_to 7997
  140.7202  143.3610  151.1963 H   0  0  0  0  0  0  0  0  0  0  0  0  # atno 10167 bound_to 10162
  156.7640  130.9424  151.3118 H   0  0  0  0  0  0  0  0  0  0  0  0  # atno 10718 bound_to 10713
  153.0159  135.5305  154.6891 H   0  0  0  0  0  0  0  0  0  0  0  0  # atno 10763 bound_to 10752
  154.6030  135.2870  155.0517 H   0  0  0  0  0  0  0  0  0  0  0  0  # atno 10764 bound_to 10752
  154.1567  135.6554  153.5028 H   0  0  0  0  0  0  0  0  0  0  0  0  # atno 10765 bound_to 10752
  140.7438  134.3484  157.5141 H   0  0  0  0  0  0  0  0  0  0  0  0  # atno 11005 bound_to 11000
  145.4261  139.1556  143.4047 LP  0  0  0  0  0  0  0  0  0  0  0  0  # atno 17320 bound_to 7965
  146.2880  140.4375  142.8750 LP  0  0  0  0  0  0  0  0  0  0  0  0  # atno 17321 bound_to 7965
  139.7162  143.9296  152.2967 LP  0  0  0  0  0  0  0  0  0  0  0  0  # atno 17342 bound_to 10162
  139.9038  144.6896  150.8636 LP  0  0  0  0  0  0  0  0  0  0  0  0  # atno 17343 bound_to 10162
  157.6721  130.9061  150.0065 LP  0  0  0  0  0  0  0  0  0  0  0  0  # atno 17370 bound_to 10713
  156.1321  130.3643  149.9716 LP  0  0  0  0  0  0  0  0  0  0  0  0  # atno 17371 bound_to 10713
  139.8801  134.9098  156.2999 LP  0  0  0  0  0  0  0  0  0  0  0  0  # atno 17394 bound_to 11000
  140.9813  133.7266  156.0676 LP  0  0  0  0  0  0  0  0  0  0  0  0  # atno 17395 bound_to 11000

$$$$
