AV-unprocessed.smi:282|AV-procd|sdf|2119|dock1
  -GOLD-   2262021413D 1   1.00000     0.00000
 Structure written by MMmdl.
 65 69  0  0  0  0  0  0  0  0  2 V2000
  148.8716  132.9745  153.2083 C   0  0  0  0  0  0  0  0  0  0  0  0
  147.9257  132.5006  154.3204 C   0  0  0  0  0  0  0  0  0  0  0  0
  146.4622  132.9955  154.1694 C   0  0  2  0  0  0  0  0  0  0  0  0
  145.8338  132.4605  152.8611 C   0  0  0  0  0  0  0  0  0  0  0  0
  144.4637  132.9890  152.6337 N   0  3  2  0  0  0  0  0  0  0  0  0
  143.8083  132.4392  151.4179 C   0  0  0  0  0  0  0  0  0  0  0  0
  144.3647  133.0645  150.1237 C   0  0  0  0  0  0  0  0  0  0  0  0
  144.2822  134.5970  150.1693 C   0  0  0  0  0  0  0  0  0  0  0  0
  144.9655  135.1347  151.4351 C   0  0  0  0  0  0  0  0  0  0  0  0
  144.3778  134.4737  152.7013 C   0  0  2  0  0  0  0  0  0  0  0  0
  145.0144  134.9955  153.9998 C   0  0  0  0  0  0  0  0  0  0  0  0
  146.3582  134.4610  154.2019 N   0  0  0  0  0  0  0  0  0  0  0  0
  146.9686  135.0702  155.2432 C   0  0  0  0  0  0  0  0  0  0  0  0
  147.2218  134.3779  156.3849 N   0  0  0  0  0  0  0  0  0  0  0  0
  147.8372  134.9839  157.4056 C   0  0  0  0  0  0  0  0  0  0  0  0
  148.2730  136.2435  157.4896 N   0  0  0  0  0  0  0  0  0  0  0  0
  148.0186  136.9360  156.3417 C   0  0  0  0  0  0  0  0  0  0  0  0
  147.3766  136.4269  155.1796 C   0  0  0  0  0  0  0  0  0  0  0  0
  147.3000  137.4098  154.2028 N   0  0  0  0  0  0  0  0  0  0  0  0
  147.8714  138.4449  154.7555 C   0  0  0  0  0  0  0  0  0  0  0  0
  148.3172  138.2553  156.0456 N   0  0  0  0  0  0  0  0  0  0  0  0
  148.9932  139.2323  156.8875 C   0  0  0  0  0  0  0  0  0  0  0  0
  149.7068  140.3903  156.1205 C   0  0  0  0  0  0  0  0  0  0  0  0
  148.6221  141.3504  155.5568 C   0  0  0  0  0  0  0  0  0  0  0  0
  149.1041  142.2080  154.5409 O   0  0  0  0  0  0  0  0  0  0  0  0
  150.6348  141.1482  157.1047 C   0  0  0  0  0  0  0  0  0  0  0  0
  151.8792  140.3289  157.4999 C   0  0  0  0  0  0  0  0  0  0  0  0
  152.5915  139.9234  156.3371 O   0  0  0  0  0  0  0  0  0  0  0  0
  151.8246  139.0915  155.4753 C   0  0  0  0  0  0  0  0  0  0  0  0
  150.5953  139.8633  154.9636 C   0  0  0  0  0  0  0  0  0  0  0  0
  149.8488  132.5022  153.3107 H   0  0  0  0  0  0  0  0  0  0  0  0
  149.0307  134.0519  153.2408 H   0  0  0  0  0  0  0  0  0  0  0  0
  148.4816  132.7170  152.2232 H   0  0  0  0  0  0  0  0  0  0  0  0
  147.9583  131.4110  154.3132 H   0  0  0  0  0  0  0  0  0  0  0  0
  148.3221  132.8067  155.2895 H   0  0  0  0  0  0  0  0  0  0  0  0
  145.8809  132.6090  155.0080 H   0  0  0  0  0  0  0  0  0  0  0  0
  146.4762  132.7156  152.0179 H   0  0  0  0  0  0  0  0  0  0  0  0
  145.7742  131.3728  152.8910 H   0  0  0  0  0  0  0  0  0  0  0  0
  143.9136  131.3541  151.3943 H   0  0  0  0  0  0  0  0  0  0  0  0
  142.7385  132.6403  151.4856 H   0  0  0  0  0  0  0  0  0  0  0  0
  145.3993  132.7562  149.9704 H   0  0  0  0  0  0  0  0  0  0  0  0
  143.8078  132.6905  149.2640 H   0  0  0  0  0  0  0  0  0  0  0  0
  144.7449  135.0258  149.2799 H   0  0  0  0  0  0  0  0  0  0  0  0
  143.2367  134.9078  150.1568 H   0  0  0  0  0  0  0  0  0  0  0  0
  146.0402  134.9596  151.3760 H   0  0  0  0  0  0  0  0  0  0  0  0
  144.8369  136.2164  151.4865 H   0  0  0  0  0  0  0  0  0  0  0  0
  143.3182  134.7317  152.7383 H   0  0  0  0  0  0  0  0  0  0  0  0
  145.0400  136.0866  153.9896 H   0  0  0  0  0  0  0  0  0  0  0  0
  144.3884  134.7054  154.8451 H   0  0  0  0  0  0  0  0  0  0  0  0
  148.0067  134.3717  158.2791 H   0  0  0  0  0  0  0  0  0  0  0  0
  147.9802  139.3846  154.2339 H   0  0  0  0  0  0  0  0  0  0  0  0
  148.2550  139.6476  157.5752 H   0  0  0  0  0  0  0  0  0  0  0  0
  149.6903  138.6816  157.5167 H   0  0  0  0  0  0  0  0  0  0  0  0
  147.7892  140.7886  155.1344 H   0  0  0  0  0  0  0  0  0  0  0  0
  148.2124  141.9703  156.3548 H   0  0  0  0  0  0  0  0  0  0  0  0
  148.9783  143.1029  154.8178 H   0  0  0  0  0  0  0  0  0  0  0  0
  150.9884  142.0746  156.6514 H   0  0  0  0  0  0  0  0  0  0  0  0
  150.0838  141.4441  157.9980 H   0  0  0  0  0  0  0  0  0  0  0  0
  152.5413  140.9392  158.1143 H   0  0  0  0  0  0  0  0  0  0  0  0
  151.6180  139.4587  158.1020 H   0  0  0  0  0  0  0  0  0  0  0  0
  152.4503  138.7940  154.6338 H   0  0  0  0  0  0  0  0  0  0  0  0
  151.5399  138.1741  155.9910 H   0  0  0  0  0  0  0  0  0  0  0  0
  150.0210  139.2492  154.2713 H   0  0  0  0  0  0  0  0  0  0  0  0
  150.9625  140.7007  154.3695 H   0  0  0  0  0  0  0  0  0  0  0  0
  143.9223  132.6490  153.4159 H   0  0  0  0  0  0  0  0  0  0  0  0
  1  2  1  0  0  0  0
  1 31  1  0  0  0  0
  1 32  1  0  0  0  0
  1 33  1  0  0  0  0
  2  3  1  0  0  0  0
  2 34  1  0  0  0  0
  2 35  1  0  0  0  0
  3 12  1  0  0  0  0
  3  4  1  0  0  0  0
  3 36  1  0  0  0  0
  4  5  1  0  0  0  0
  4 37  1  0  0  0  0
  4 38  1  0  0  0  0
  5 10  1  0  0  0  0
  5  6  1  0  0  0  0
  5 65  1  0  0  0  0
  6  7  1  0  0  0  0
  6 39  1  0  0  0  0
  6 40  1  0  0  0  0
  7  8  1  0  0  0  0
  7 41  1  0  0  0  0
  7 42  1  0  0  0  0
  8  9  1  0  0  0  0
  8 43  1  0  0  0  0
  8 44  1  0  0  0  0
  9 10  1  0  0  0  0
  9 45  1  0  0  0  0
  9 46  1  0  0  0  0
 10 11  1  0  0  0  0
 10 47  1  0  0  0  0
 11 12  1  0  0  0  0
 11 48  1  0  0  0  0
 11 49  1  0  0  0  0
 12 13  1  0  0  0  0
 13 18  1  0  0  0  0
 13 14  2  0  0  0  0
 14 15  1  0  0  0  0
 15 16  2  0  0  0  0
 15 50  1  0  0  0  0
 16 17  1  0  0  0  0
 17 21  1  0  0  0  0
 17 18  2  0  0  0  0
 18 19  1  0  0  0  0
 19 20  2  0  0  0  0
 20 21  1  0  0  0  0
 20 51  1  0  0  0  0
 21 22  1  0  0  0  0
 22 23  1  0  0  0  0
 22 52  1  0  0  0  0
 22 53  1  0  0  0  0
 23 30  1  0  0  0  0
 23 24  1  0  0  0  0
 23 26  1  0  0  0  0
 24 25  1  0  0  0  0
 24 54  1  0  0  0  0
 24 55  1  0  0  0  0
 25 56  1  0  0  0  0
 26 27  1  0  0  0  0
 26 57  1  0  0  0  0
 26 58  1  0  0  0  0
 27 28  1  0  0  0  0
 27 59  1  0  0  0  0
 27 60  1  0  0  0  0
 28 29  1  0  0  0  0
 29 30  1  0  0  0  0
 29 61  1  0  0  0  0
 29 62  1  0  0  0  0
 30 63  1  0  0  0  0
 30 64  1  0  0  0  0
M  CHG  1   5   1
M  END
> <s_m_source_file>
AV-unprocessed.smi

> <i_m_source_file_index>
282

> <i_lp_mmshare_version>
43012

> <i_f3d_flags>
0

> <s_epik_input>
W0NIMl0xW0NIMl1bQ0gyXVtDSDJdW0NAQEhdKE4xMilbQ0gyXU4oW0NAQEhdKFtDSDJdMilbQ0gyXVtDSDNdKWMobltjSF1uMyljKGMzNCluW2NIXW40W0NIMl1DNShbQ0gyXVtPSF0pW0NIMl1bQ0gyXU9bQ0gyXVtDSDJdNQ==

> <s_epik_cmdline>
J2VwaWtfcHl0aG9uJywgJy1waCcsICc3LjAnLCAnLXRuJywgJzgnLCAnLW1hJywgJzIwMCcsICctbWV0YWxfYmluZGluZycsICctaW1hZScsICc8aW5maWxlLm1hZT4nLCAnLW9tYWUnLCAnPG91dGZpbGUubWFlPic=

> <r_lp_tautomer_probability>
1

> <r_epik_Ionization_Penalty>
0.00308583

> <r_epik_Ionization_Penalty_Charging>
0.00300384

> <r_epik_Ionization_Penalty_Neutral>
8.19894e-05

> <r_epik_State_Penalty>
-0

> <r_epik_Charging_Adjusted_Penalty>
0.00300384

> <i_epik_Tot_Q>
1

> <i_epik_Tot_abs_Q>
1

> <r_epik_Metal_State_Penalty>
-0

> <b_epik_Metal_Only>
0

> <s_lp_Force_Field>
OPLS_2005

> <r_lp_Energy>
60.5871

> <b_lp_Chiralities_Consistent>
1

> <s_lp_Variant>
AV-unprocessed.smi:282-3

> <Gold.Version>
5.8.1

> <Gold.Id.Protein>
6NUR|6NUR_protein|mol2

> <Gold.PLP.Fitness>
45.6220

> <Gold.PLP.PLP>
-35.1292

> <Gold.PLP.part.hbond>
-3.9593

> <Gold.PLP.part.metal>
0.0000

> <Gold.PLP.part.buried>
-3.0675

> <Gold.PLP.part.nonpolar>
-28.4913

> <Gold.PLP.part.repulsive>
0.6333

> <Gold.PLP.ligand.clash>
0.0000

> <Gold.PLP.ligand.torsion>
1.0807

> <Gold.PLP.Chemscore.Hbond>
4.1047

> <Gold.PLP.Chemscore.CHOScore>
0.0000

> <Gold.PLP.Chemscore.Metal>
0.0000

> <Gold.Chemscore.Hbonds>
donor molecule, donor type, donor heavy atom, donor atom, acceptor molecule, acceptor atom, score
      L1  H     5    65       P1 10957  1.92
      L1  H    25    56       P1  8028  1.00
      P1  H  7997  8008       L1    28  1.00
      P1  H  8011  8017       L1    25  0.08

> <Gold.PLP.Chemscore.Internal.Correction>
0.3402

> <Gold.Rescore>
     Score         DG    S(hbond)    S(metal)    S(lipo)     H(rot)  DE(clash)    DE(int)     intcor
     16.08     -18.49       2.80        0.00      84.97       2.46       0.12       2.29       ----

> <Gold.Chemscore.Fitness>
16.0808

> <Gold.Chemscore.DG>
-18.4892

> <Gold.Chemscore.ZeroCoef>
-5.4800

> <Gold.Chemscore.Hbond>
2.8022

> <Gold.Chemscore.Metal>
0.0000

> <Gold.Chemscore.Lipo>
84.9703

> <Gold.Chemscore.Internal_Hbond>
0.0000

> <Gold.Chemscore.DEClash>
0.1232

> <Gold.Chemscore.DEInternal>
2.2851

> <Gold.Chemscore.Rot>
2.4576

> <Gold.Chemscore.Internal.Correction>
   9.000000E+99

> <Gold.Chemscore.Hbonds>
donor molecule, donor type, donor heavy atom, donor atom, acceptor molecule, acceptor atom, score
      L1  H     5    65       P1 10957  0.36
      L1  H    25    56       P1  8028  1.00
      P1  H  7997  8008       L1    28  0.96
      P1  H  8011  8017       L1    25  0.03

> <Gold.Chemscore.Hbond.Weighted>
-9.3592

> <Gold.Chemscore.Metal.Weighted>
-0.0000

> <Gold.Chemscore.Lipo.Weighted>
-9.9415

> <Gold.Chemscore.Internal_Hbond.Weighted>
0.0000

> <Gold.Chemscore.DEClash.Weighted>
0.1232

> <Gold.Chemscore.DEInternal.Weighted>
2.2851

> <Gold.Chemscore.Rot.Weighted>
6.2915

> <Gold.Chemscore.Internal.Correction.Weighted>
   9.000000E+99

> <Gold.Protein.RotatedTorsions>
[ 6907 6896 6895 6894 ] final  138.58 input  -60.11 | X-H torsion
[ 7974 7965 7964 7962 ] final   97.92 input  175.53 | X-H torsion
[ 8008 7997 7996 7995 ] final  -40.68 input   59.86 | X-H torsion
[ 10167 10162 10161 10158 ] final  158.50 input  -65.29 | X-H torsion
[ 10718 10713 10712 10709 ] final  -75.45 input   66.30 | X-H torsion
[ 10763 10752 10751 10750 ] final -164.94 input  -60.55 | X-H torsion
[ 11005 11000 10999 10996 ] final  -52.68 input  -57.11 | X-H torsion

> <Gold.Protein.ActiveResidues>
 VAL166  LYS551  ARG553  GLY616  TRP617  ASP618  TYR619  PRO620  LYS621  CYS622 
 ASP623  PHE694  ASN695  SER759  ASP760  ASP761  ALA762  ILE779  LEU786  VAL792 
 PHE793  MET794  SER795  GLU796  ALA797  LYS798  CYS799  TRP800  GLU811  SER814 

> <Gold.Protein.RotatedAtoms>
  152.2649  133.5330  159.5403 H   0  0  0  0  0  0  0  0  0  0  0  0  # atno 6907 bound_to 6896
  150.7138  134.0778  159.3896 H   0  0  0  0  0  0  0  0  0  0  0  0  # atno 6908 bound_to 6896
  151.8695  135.0495  160.0528 H   0  0  0  0  0  0  0  0  0  0  0  0  # atno 6909 bound_to 6896
  145.4191  139.2323  143.3206 H   0  0  0  0  0  0  0  0  0  0  0  0  # atno 7974 bound_to 7965
  154.4010  140.1519  156.3066 H   0  0  0  0  0  0  0  0  0  0  0  0  # atno 8008 bound_to 7997
  155.8653  140.3451  155.5762 H   0  0  0  0  0  0  0  0  0  0  0  0  # atno 8009 bound_to 7997
  155.7835  140.0846  157.2037 H   0  0  0  0  0  0  0  0  0  0  0  0  # atno 8010 bound_to 7997
  139.4827  144.4819  151.8432 H   0  0  0  0  0  0  0  0  0  0  0  0  # atno 10167 bound_to 10162
  156.0207  130.4441  150.3045 H   0  0  0  0  0  0  0  0  0  0  0  0  # atno 10718 bound_to 10713
  154.6980  135.2983  154.9383 H   0  0  0  0  0  0  0  0  0  0  0  0  # atno 10763 bound_to 10752
  154.0324  135.6668  153.4786 H   0  0  0  0  0  0  0  0  0  0  0  0  # atno 10764 bound_to 10752
  153.0660  135.5088  154.8108 H   0  0  0  0  0  0  0  0  0  0  0  0  # atno 10765 bound_to 10752
  141.0937  133.6628  156.4059 H   0  0  0  0  0  0  0  0  0  0  0  0  # atno 11005 bound_to 11000
  146.2666  140.4913  142.8832 LP  0  0  0  0  0  0  0  0  0  0  0  0  # atno 17320 bound_to 7965
  144.8257  140.6624  143.6324 LP  0  0  0  0  0  0  0  0  0  0  0  0  # atno 17321 bound_to 7965
  140.4295  144.2134  150.5888 LP  0  0  0  0  0  0  0  0  0  0  0  0  # atno 17342 bound_to 10162
  140.4793  143.2385  151.8978 LP  0  0  0  0  0  0  0  0  0  0  0  0  # atno 17343 bound_to 10162
  157.1148  131.0231  151.3033 LP  0  0  0  0  0  0  0  0  0  0  0  0  # atno 17370 bound_to 10713
  157.4676  130.7689  149.7293 LP  0  0  0  0  0  0  0  0  0  0  0  0  # atno 17371 bound_to 10713
  140.5192  134.6321  157.5312 LP  0  0  0  0  0  0  0  0  0  0  0  0  # atno 17394 bound_to 11000
  139.9768  134.7202  155.9934 LP  0  0  0  0  0  0  0  0  0  0  0  0  # atno 17395 bound_to 11000

$$$$
