AV-unprocessed.smi:1146|AV-procd|sdf|4886|dock6
  -GOLD-   22720 3463D 1   1.00000     0.00000
 Structure written by MMmdl.
 46 47  0  0  0  0  0  0  0  0  1 V2000
  152.6283  144.6016  158.0580 C   0  0  0  0  0  0  0  0  0  0  0  0
  152.3733  143.8219  159.3540 C   0  0  0  0  0  0  0  0  0  0  0  0
  152.1239  142.4084  159.0821 N   0  0  0  0  0  0  0  0  0  0  0  0
  151.1709  141.9016  158.2656 C   0  0  0  0  0  0  0  0  0  0  0  0
  150.3534  142.5553  157.6179 O   0  0  0  0  0  0  0  0  0  0  0  0
  151.2712  140.5513  158.2865 N   0  0  0  0  0  0  0  0  0  0  0  0
  150.4246  139.6072  157.5519 C   0  0  0  0  0  0  0  0  0  0  0  0
  150.7326  139.5282  156.0330 C   0  0  0  0  0  0  0  0  0  0  0  0
  152.1866  139.1404  155.7005 C   0  0  0  0  0  0  0  0  0  0  0  0
  149.7546  138.5553  155.3524 C   0  0  0  0  0  0  0  0  0  0  0  0
  150.4651  140.7927  155.4595 O   0  0  0  0  0  0  0  0  0  0  0  0
  152.3120  140.1835  159.1545 C   0  0  0  0  0  0  0  0  0  0  0  0
  152.8125  138.9208  159.5184 C   0  0  0  0  0  0  0  0  0  0  0  0
  153.8933  138.9015  160.4316 C   0  0  0  0  0  0  0  0  0  0  0  0
  154.5845  137.3381  160.9545 S   0  0  0  0  0  0  0  0  0  0  0  0
  155.0386  137.4422  162.3503 O   0  0  0  0  0  0  0  0  0  0  0  0
  153.6361  136.2859  160.5572 O   0  0  0  0  0  0  0  0  0  0  0  0
  155.9886  137.2002  159.9485 N   0  0  0  0  0  0  0  0  0  0  0  0
  157.1117  138.1076  160.2052 C   0  0  0  0  0  0  0  0  0  0  0  0
  155.7765  136.8948  158.5304 C   0  0  0  0  0  0  0  0  0  0  0  0
  154.4373  140.1012  160.9592 C   0  0  0  0  0  0  0  0  0  0  0  0
  153.9135  141.3564  160.5718 C   0  0  0  0  0  0  0  0  0  0  0  0
  152.8456  141.3532  159.6569 C   0  0  0  0  0  0  0  0  0  0  0  0
  152.8174  145.6540  158.2702 H   0  0  0  0  0  0  0  0  0  0  0  0
  151.7693  144.5465  157.3885 H   0  0  0  0  0  0  0  0  0  0  0  0
  153.4954  144.2096  157.5256 H   0  0  0  0  0  0  0  0  0  0  0  0
  153.2303  143.9240  160.0214 H   0  0  0  0  0  0  0  0  0  0  0  0
  151.5244  144.2500  159.8875 H   0  0  0  0  0  0  0  0  0  0  0  0
  150.5590  138.6215  157.9972 H   0  0  0  0  0  0  0  0  0  0  0  0
  149.3730  139.8485  157.7174 H   0  0  0  0  0  0  0  0  0  0  0  0
  152.4433  138.1725  156.1316 H   0  0  0  0  0  0  0  0  0  0  0  0
  152.9022  139.8724  156.0759 H   0  0  0  0  0  0  0  0  0  0  0  0
  152.3385  139.0688  154.6230 H   0  0  0  0  0  0  0  0  0  0  0  0
  149.8852  137.5394  155.7269 H   0  0  0  0  0  0  0  0  0  0  0  0
  149.9051  138.5276  154.2724 H   0  0  0  0  0  0  0  0  0  0  0  0
  148.7171  138.8409  155.5322 H   0  0  0  0  0  0  0  0  0  0  0  0
  150.9572  141.4483  155.9303 H   0  0  0  0  0  0  0  0  0  0  0  0
  152.3949  138.0097  159.1174 H   0  0  0  0  0  0  0  0  0  0  0  0
  157.9864  137.8137  159.6243 H   0  0  0  0  0  0  0  0  0  0  0  0
  157.3879  138.0859  161.2593 H   0  0  0  0  0  0  0  0  0  0  0  0
  156.8395  139.1288  159.9365 H   0  0  0  0  0  0  0  0  0  0  0  0
  156.7052  136.5628  158.0651 H   0  0  0  0  0  0  0  0  0  0  0  0
  155.4161  137.7790  158.0038 H   0  0  0  0  0  0  0  0  0  0  0  0
  155.0386  136.1003  158.4184 H   0  0  0  0  0  0  0  0  0  0  0  0
  155.2577  140.0571  161.6605 H   0  0  0  0  0  0  0  0  0  0  0  0
  154.3200  142.2759  160.9660 H   0  0  0  0  0  0  0  0  0  0  0  0
  1  2  1  0  0  0  0
  1 24  1  0  0  0  0
  1 25  1  0  0  0  0
  1 26  1  0  0  0  0
  2  3  1  0  0  0  0
  2 27  1  0  0  0  0
  2 28  1  0  0  0  0
  3 23  1  0  0  0  0
  3  4  1  0  0  0  0
  4  5  2  0  0  0  0
  4  6  1  0  0  0  0
  6  7  1  0  0  0  0
  6 12  1  0  0  0  0
  7  8  1  0  0  0  0
  7 29  1  0  0  0  0
  7 30  1  0  0  0  0
  8  9  1  0  0  0  0
  8 10  1  0  0  0  0
  8 11  1  0  0  0  0
  9 31  1  0  0  0  0
  9 32  1  0  0  0  0
  9 33  1  0  0  0  0
 10 34  1  0  0  0  0
 10 35  1  0  0  0  0
 10 36  1  0  0  0  0
 11 37  1  0  0  0  0
 12 23  2  0  0  0  0
 12 13  1  0  0  0  0
 13 14  2  0  0  0  0
 13 38  1  0  0  0  0
 14 15  1  0  0  0  0
 14 21  1  0  0  0  0
 15 16  2  0  0  0  0
 15 17  2  0  0  0  0
 15 18  1  0  0  0  0
 18 19  1  0  0  0  0
 18 20  1  0  0  0  0
 19 39  1  0  0  0  0
 19 40  1  0  0  0  0
 19 41  1  0  0  0  0
 20 42  1  0  0  0  0
 20 43  1  0  0  0  0
 20 44  1  0  0  0  0
 21 22  2  0  0  0  0
 21 45  1  0  0  0  0
 22 23  1  0  0  0  0
 22 46  1  0  0  0  0
M  END
> <s_m_source_file>
AV-unprocessed.smi

> <i_m_source_file_index>
1146

> <i_lp_mmshare_version>
43012

> <i_f3d_flags>
0

> <s_epik_input>
W0NIM11DKFtDSDNdKShbT0hdKVtDSDJdbjFjKD1PKW4oW0NIMl1bQ0gzXSljKGMxMilbY0hdW2NIXWMoW2NIXTIpUyg9TykoPU8pTihbQ0gzXSlbQ0gzXQ==

> <s_epik_cmdline>
J2VwaWtfcHl0aG9uJywgJy1waCcsICc3LjAnLCAnLXRuJywgJzgnLCAnLW1hJywgJzIwMCcsICctbWV0YWxfYmluZGluZycsICctaW1hZScsICc8aW5maWxlLm1hZT4nLCAnLW9tYWUnLCAnPG91dGZpbGUubWFlPic=

> <r_lp_tautomer_probability>
1

> <r_epik_Ionization_Penalty>
3.29736e-08

> <r_epik_Ionization_Penalty_Charging>
1.95861e-09

> <r_epik_Ionization_Penalty_Neutral>
3.1015e-08

> <r_epik_State_Penalty>
-0

> <r_epik_Charging_Adjusted_Penalty>
1.95861e-09

> <i_epik_Tot_Q>
0

> <i_epik_Tot_abs_Q>
0

> <r_epik_Metal_State_Penalty>
-0

> <b_epik_Metal_Only>
0

> <s_lp_Force_Field>
OPLS_2005

> <r_lp_Energy>
36.7985

> <b_lp_Chiralities_Consistent>
1

> <s_lp_Variant>
AV-unprocessed.smi:1146-1

> <Gold.Version>
5.8.1

> <Gold.Id.Protein>
6NUR|6NUR_protein|mol2

> <Gold.PLP.Fitness>
46.4945

> <Gold.PLP.PLP>
-41.5569

> <Gold.PLP.part.hbond>
-1.9770

> <Gold.PLP.part.metal>
0.0000

> <Gold.PLP.part.buried>
-4.7837

> <Gold.PLP.part.nonpolar>
-34.9316

> <Gold.PLP.part.repulsive>
0.1372

> <Gold.PLP.ligand.clash>
0.0000

> <Gold.PLP.ligand.torsion>
1.5899

> <Gold.PLP.Chemscore.Hbond>
1.7680

> <Gold.PLP.Chemscore.CHOScore>
0.0000

> <Gold.PLP.Chemscore.Metal>
0.0000

> <Gold.Chemscore.Hbonds>
donor molecule, donor type, donor heavy atom, donor atom, acceptor molecule, acceptor atom, score
      P1  H  6896  6907       L1    17  1.00
      P1  H  7989  7998       L1    11  0.28

> <Gold.PLP.Chemscore.Internal.Correction>
2.8134

> <Gold.Rescore>
     Score         DG    S(hbond)    S(metal)    S(lipo)     H(rot)  DE(clash)    DE(int)     intcor
     15.96     -17.68       1.76        0.00      98.51       2.04       0.03       1.69       ----

> <Gold.Chemscore.Fitness>
15.9603

> <Gold.Chemscore.DG>
-17.6806

> <Gold.Chemscore.ZeroCoef>
-5.4800

> <Gold.Chemscore.Hbond>
1.7643

> <Gold.Chemscore.Metal>
0.0000

> <Gold.Chemscore.Lipo>
98.5139

> <Gold.Chemscore.Internal_Hbond>
0.0000

> <Gold.Chemscore.DEClash>
0.0309

> <Gold.Chemscore.DEInternal>
1.6895

> <Gold.Chemscore.Rot>
2.0383

> <Gold.Chemscore.Internal.Correction>
   9.000000E+99

> <Gold.Chemscore.Hbonds>
donor molecule, donor type, donor heavy atom, donor atom, acceptor molecule, acceptor atom, score
      P1  H  6896  6907       L1    17  0.94
      P1  H  7989  7998       L1    11  0.03

> <Gold.Chemscore.Hbond.Weighted>
-5.8926

> <Gold.Chemscore.Metal.Weighted>
-0.0000

> <Gold.Chemscore.Lipo.Weighted>
-11.5261

> <Gold.Chemscore.Internal_Hbond.Weighted>
0.0000

> <Gold.Chemscore.DEClash.Weighted>
0.0309

> <Gold.Chemscore.DEInternal.Weighted>
1.6895

> <Gold.Chemscore.Rot.Weighted>
5.2181

> <Gold.Chemscore.Internal.Correction.Weighted>
   9.000000E+99

> <Gold.Protein.RotatedTorsions>
[ 6907 6896 6895 6894 ] final   43.69 input  -60.11 | X-H torsion
[ 7974 7965 7964 7962 ] final   12.30 input  175.53 | X-H torsion
[ 8008 7997 7996 7995 ] final  -90.61 input   59.86 | X-H torsion
[ 10167 10162 10161 10158 ] final   33.61 input  -65.29 | X-H torsion
[ 10718 10713 10712 10709 ] final  -16.96 input   66.30 | X-H torsion
[ 10763 10752 10751 10750 ] final  -44.27 input  -60.55 | X-H torsion
[ 11005 11000 10999 10996 ] final   72.29 input  -57.11 | X-H torsion

> <Gold.Protein.ActiveResidues>
 VAL166  LYS551  ARG553  GLY616  TRP617  ASP618  TYR619  PRO620  LYS621  CYS622 
 ASP623  PHE694  ASN695  SER759  ASP760  ASP761  ALA762  ILE779  LEU786  VAL792 
 PHE793  MET794  SER795  GLU796  ALA797  LYS798  CYS799  TRP800  GLU811  SER814 

> <Gold.Protein.RotatedAtoms>
  152.2234  134.8391  160.0482 H   0  0  0  0  0  0  0  0  0  0  0  0  # atno 6907 bound_to 6896
  151.9167  133.3570  159.3890 H   0  0  0  0  0  0  0  0  0  0  0  0  # atno 6908 bound_to 6896
  150.7006  134.4602  159.5421 H   0  0  0  0  0  0  0  0  0  0  0  0  # atno 6909 bound_to 6896
  146.2354  139.9357  142.8490 H   0  0  0  0  0  0  0  0  0  0  0  0  # atno 7974 bound_to 7965
  154.7006  140.0528  157.0454 H   0  0  0  0  0  0  0  0  0  0  0  0  # atno 8008 bound_to 7997
  155.0690  140.3197  155.4617 H   0  0  0  0  0  0  0  0  0  0  0  0  # atno 8009 bound_to 7997
  156.2759  140.2085  156.5817 H   0  0  0  0  0  0  0  0  0  0  0  0  # atno 8010 bound_to 7997
  140.4392  144.1213  150.6171 H   0  0  0  0  0  0  0  0  0  0  0  0  # atno 10167 bound_to 10162
  156.5803  130.4772  149.6323 H   0  0  0  0  0  0  0  0  0  0  0  0  # atno 10718 bound_to 10713
  154.0093  135.6683  153.4764 H   0  0  0  0  0  0  0  0  0  0  0  0  # atno 10763 bound_to 10752
  153.0628  135.5018  154.8127 H   0  0  0  0  0  0  0  0  0  0  0  0  # atno 10764 bound_to 10752
  154.7005  135.3078  154.9312 H   0  0  0  0  0  0  0  0  0  0  0  0  # atno 10765 bound_to 10752
  139.9499  134.7246  156.0888 H   0  0  0  0  0  0  0  0  0  0  0  0  # atno 11005 bound_to 11000
  145.2001  140.9850  143.4160 LP  0  0  0  0  0  0  0  0  0  0  0  0  # atno 17320 bound_to 7965
  144.9781  139.3811  143.6275 LP  0  0  0  0  0  0  0  0  0  0  0  0  # atno 17321 bound_to 7965
  140.4338  143.2556  151.9561 LP  0  0  0  0  0  0  0  0  0  0  0  0  # atno 17342 bound_to 10162
  139.4788  144.5719  151.8075 LP  0  0  0  0  0  0  0  0  0  0  0  0  # atno 17343 bound_to 10162
  156.2638  130.6977  151.1754 LP  0  0  0  0  0  0  0  0  0  0  0  0  # atno 17370 bound_to 10713
  157.7328  131.0596  150.5609 LP  0  0  0  0  0  0  0  0  0  0  0  0  # atno 17371 bound_to 10713
  141.1159  133.6628  156.3092 LP  0  0  0  0  0  0  0  0  0  0  0  0  # atno 17394 bound_to 11000
  140.5745  134.5807  157.5465 LP  0  0  0  0  0  0  0  0  0  0  0  0  # atno 17395 bound_to 11000

$$$$
