AV-unprocessed.smi:1760|AV-procd|sdf|7089|dock4
  -GOLD-   22720 8303D 1   1.00000     0.00000
 Structure written by MMmdl.
 44 46  0  0  0  0  0  0  0  0  2 V2000
  148.5142  139.3296  156.9746 O   0  0  0  0  0  0  0  0  0  0  0  0
  149.0926  139.8002  155.9956 C   0  0  0  0  0  0  0  0  0  0  0  0
  150.2163  140.5402  156.0267 N   0  0  0  0  0  0  0  0  0  0  0  0
  150.9549  140.9858  157.1359 C   0  0  0  0  0  0  0  0  0  0  0  0
  151.0476  142.2810  157.5359 C   0  0  0  0  0  0  0  0  0  0  0  0
  151.8427  142.6781  158.6856 C   0  0  0  0  0  0  0  0  0  0  0  0
  151.8751  144.1187  159.1715 C   0  0  0  0  0  0  0  0  0  0  0  0
  150.6427  144.6008  159.3378 F   0  0  0  0  0  0  0  0  0  0  0  0
  152.5086  144.1871  160.3416 F   0  0  0  0  0  0  0  0  0  0  0  0
  152.5176  144.9023  158.3052 F   0  0  0  0  0  0  0  0  0  0  0  0
  152.4797  141.6927  159.3442 C   0  0  0  0  0  0  0  0  0  0  0  0
  152.4070  140.3618  158.9271 N   0  0  0  0  0  0  0  0  0  0  0  0
  151.6892  139.9371  157.8630 C   0  0  0  0  0  0  0  0  0  0  0  0
  151.6762  138.7450  157.5576 O   0  0  0  0  0  0  0  0  0  0  0  0
  148.6790  139.6142  154.7335 N   0  0  0  0  0  0  0  0  0  0  0  0
  147.5128  138.8364  154.3219 C   0  0  2  0  0  0  0  0  0  0  0  0
  147.7037  137.3605  154.7092 C   0  0  0  0  0  0  0  0  0  0  0  0
  146.5434  136.4962  154.1887 C   0  0  0  0  0  0  0  0  0  0  0  0
  146.3908  136.6395  152.7195 N   0  3  1  0  0  0  0  0  0  0  0  0
  145.3600  135.7291  152.1759 C   0  0  0  0  0  0  0  0  0  0  0  0
  145.9309  134.5464  151.4288 C   0  0  0  0  0  0  0  0  0  0  0  0
  145.3111  135.6964  150.6662 C   0  0  0  0  0  0  0  0  0  0  0  0
  146.1567  138.0515  152.3268 C   0  0  0  0  0  0  0  0  0  0  0  0
  147.3078  138.9543  152.8022 C   0  0  0  0  0  0  0  0  0  0  0  0
  152.9261  139.6832  159.4655 H   0  0  0  0  0  0  0  0  0  0  0  0
  150.6163  140.7872  155.1330 H   0  0  0  0  0  0  0  0  0  0  0  0
  150.5472  143.0661  156.9932 H   0  0  0  0  0  0  0  0  0  0  0  0
  153.0803  141.8426  160.2295 H   0  0  0  0  0  0  0  0  0  0  0  0
  149.2225  140.0393  153.9963 H   0  0  0  0  0  0  0  0  0  0  0  0
  146.6118  139.2051  154.8159 H   0  0  0  0  0  0  0  0  0  0  0  0
  148.6442  136.9869  154.3010 H   0  0  0  0  0  0  0  0  0  0  0  0
  147.7770  137.2643  155.7933 H   0  0  0  0  0  0  0  0  0  0  0  0
  146.7280  135.4505  154.4381 H   0  0  0  0  0  0  0  0  0  0  0  0
  145.6123  136.7795  154.6821 H   0  0  0  0  0  0  0  0  0  0  0  0
  144.4475  135.6258  152.7607 H   0  0  0  0  0  0  0  0  0  0  0  0
  147.0132  134.4388  151.3823 H   0  0  0  0  0  0  0  0  0  0  0  0
  145.3727  133.6131  151.4643 H   0  0  0  0  0  0  0  0  0  0  0  0
  144.3441  135.5211  150.1995 H   0  0  0  0  0  0  0  0  0  0  0  0
  145.9816  136.3524  150.1138 H   0  0  0  0  0  0  0  0  0  0  0  0
  146.0647  138.1205  151.2422 H   0  0  0  0  0  0  0  0  0  0  0  0
  145.2102  138.3955  152.7469 H   0  0  0  0  0  0  0  0  0  0  0  0
  147.0992  139.9903  152.5317 H   0  0  0  0  0  0  0  0  0  0  0  0
  148.2246  138.6764  152.2798 H   0  0  0  0  0  0  0  0  0  0  0  0
  147.2692  136.3622  152.3052 H   0  0  0  0  0  0  0  0  0  0  0  0
  1  2  2  0  0  0  0
  2  3  1  0  0  0  0
  2 15  1  0  0  0  0
  3  4  1  0  0  0  0
  3 26  1  0  0  0  0
  4 13  1  0  0  0  0
  4  5  2  0  0  0  0
  5  6  1  0  0  0  0
  5 27  1  0  0  0  0
  6  7  1  0  0  0  0
  6 11  2  0  0  0  0
  7  8  1  0  0  0  0
  7  9  1  0  0  0  0
  7 10  1  0  0  0  0
 11 12  1  0  0  0  0
 11 28  1  0  0  0  0
 12 25  1  0  0  0  0
 12 13  1  0  0  0  0
 13 14  2  0  0  0  0
 15 16  1  0  0  0  0
 15 29  1  0  0  0  0
 16 24  1  0  0  0  0
 16 17  1  0  0  0  0
 16 30  1  0  0  0  0
 17 18  1  0  0  0  0
 17 31  1  0  0  0  0
 17 32  1  0  0  0  0
 18 19  1  0  0  0  0
 18 33  1  0  0  0  0
 18 34  1  0  0  0  0
 19 20  1  0  0  0  0
 19 23  1  0  0  0  0
 19 44  1  0  0  0  0
 20 22  1  0  0  0  0
 20 21  1  0  0  0  0
 20 35  1  0  0  0  0
 21 22  1  0  0  0  0
 21 36  1  0  0  0  0
 21 37  1  0  0  0  0
 22 38  1  0  0  0  0
 22 39  1  0  0  0  0
 23 24  1  0  0  0  0
 23 40  1  0  0  0  0
 23 41  1  0  0  0  0
 24 42  1  0  0  0  0
 24 43  1  0  0  0  0
M  CHG  1  19   1
M  END
> <s_m_source_file>
AV-unprocessed.smi

> <i_m_source_file_index>
1760

> <i_lp_mmshare_version>
43012

> <i_f3d_flags>
0

> <s_epik_input>
W0NIMl0xW0NIMl1bQ0hdMU4oW0NIMl1bQ0gyXTIpW0NIMl1bQ0gyXVtDSF0yW05IXUMoPU8pW05IXWMzW2NIXWMoQyhGKShGKUYpW2NIXVtuSF1jMz1P

> <s_epik_cmdline>
J2VwaWtfcHl0aG9uJywgJy1waCcsICc3LjAnLCAnLXRuJywgJzgnLCAnLW1hJywgJzIwMCcsICctbWV0YWxfYmluZGluZycsICctaW1hZScsICc8aW5maWxlLm1hZT4nLCAnLW9tYWUnLCAnPG91dGZpbGUubWFlPic=

> <r_lp_tautomer_probability>
0.999

> <r_epik_Ionization_Penalty>
0.131122

> <r_epik_Ionization_Penalty_Charging>
0.131104

> <r_epik_Ionization_Penalty_Neutral>
1.84439e-05

> <r_epik_State_Penalty>
0.116042

> <r_epik_Charging_Adjusted_Penalty>
0.247146

> <i_epik_Tot_Q>
1

> <i_epik_Tot_abs_Q>
1

> <r_epik_Metal_State_Penalty>
0.492282

> <b_epik_Metal_Only>
0

> <s_lp_Force_Field>
OPLS_2005

> <r_lp_Energy>
37.3321

> <b_lp_Chiralities_Consistent>
1

> <s_lp_Variant>
AV-unprocessed.smi:1760-1

> <Gold.Version>
5.8.1

> <Gold.Id.Protein>
6NUR|6NUR_protein|mol2

> <Gold.PLP.Fitness>
42.3788

> <Gold.PLP.PLP>
-40.4346

> <Gold.PLP.part.hbond>
-1.0000

> <Gold.PLP.part.metal>
0.0000

> <Gold.PLP.part.buried>
-5.0351

> <Gold.PLP.part.nonpolar>
-35.0237

> <Gold.PLP.part.repulsive>
0.2560

> <Gold.PLP.ligand.clash>
2.2822

> <Gold.PLP.ligand.torsion>
1.5356

> <Gold.PLP.Chemscore.Hbond>
2.0000

> <Gold.PLP.Chemscore.CHOScore>
0.0000

> <Gold.PLP.Chemscore.Metal>
0.0000

> <Gold.Chemscore.Hbonds>
donor molecule, donor type, donor heavy atom, donor atom, acceptor molecule, acceptor atom, score
      L1  H    19    44       P1  7948  2.00

> <Gold.PLP.Chemscore.Internal.Correction>
1.2977

> <Gold.Rescore>
     Score         DG    S(hbond)    S(metal)    S(lipo)     H(rot)  DE(clash)    DE(int)     intcor
     13.81     -15.48       1.00        0.00      85.19       1.29       0.29       1.38       ----

> <Gold.Chemscore.Fitness>
13.8050

> <Gold.Chemscore.DG>
-15.4841

> <Gold.Chemscore.ZeroCoef>
-5.4800

> <Gold.Chemscore.Hbond>
0.9978

> <Gold.Chemscore.Metal>
0.0000

> <Gold.Chemscore.Lipo>
85.1907

> <Gold.Chemscore.Internal_Hbond>
0.0000

> <Gold.Chemscore.DEClash>
0.2949

> <Gold.Chemscore.DEInternal>
1.3841

> <Gold.Chemscore.Rot>
1.2875

> <Gold.Chemscore.Internal.Correction>
   9.000000E+99

> <Gold.Chemscore.Hbonds>
donor molecule, donor type, donor heavy atom, donor atom, acceptor molecule, acceptor atom, score
      L1  H    19    44       P1  7948  1.00

> <Gold.Chemscore.Hbond.Weighted>
-3.3327

> <Gold.Chemscore.Metal.Weighted>
-0.0000

> <Gold.Chemscore.Lipo.Weighted>
-9.9673

> <Gold.Chemscore.Internal_Hbond.Weighted>
0.0000

> <Gold.Chemscore.DEClash.Weighted>
0.2949

> <Gold.Chemscore.DEInternal.Weighted>
1.3841

> <Gold.Chemscore.Rot.Weighted>
3.2960

> <Gold.Chemscore.Internal.Correction.Weighted>
   9.000000E+99

> <Gold.Protein.RotatedTorsions>
[ 6907 6896 6895 6894 ] final   42.93 input  -60.11 | X-H torsion
[ 7974 7965 7964 7962 ] final -145.51 input  175.53 | X-H torsion
[ 8008 7997 7996 7995 ] final    7.73 input   59.86 | X-H torsion
[ 10167 10162 10161 10158 ] final -168.41 input  -65.29 | X-H torsion
[ 10718 10713 10712 10709 ] final   44.60 input   66.30 | X-H torsion
[ 10763 10752 10751 10750 ] final  111.76 input  -60.55 | X-H torsion
[ 11005 11000 10999 10996 ] final  104.25 input  -57.11 | X-H torsion

> <Gold.Protein.ActiveResidues>
 VAL166  LYS551  ARG553  GLY616  TRP617  ASP618  TYR619  PRO620  LYS621  CYS622 
 ASP623  PHE694  ASN695  SER759  ASP760  ASP761  ALA762  ILE779  LEU786  VAL792 
 PHE793  MET794  SER795  GLU796  ALA797  LYS798  CYS799  TRP800  GLU811  SER814 

> <Gold.Protein.RotatedAtoms>
  152.2140  134.8475  160.0493 H   0  0  0  0  0  0  0  0  0  0  0  0  # atno 6907 bound_to 6896
  151.9283  133.3599  159.3930 H   0  0  0  0  0  0  0  0  0  0  0  0  # atno 6908 bound_to 6896
  150.6983  134.4489  159.5371 H   0  0  0  0  0  0  0  0  0  0  0  0  # atno 6909 bound_to 6896
  144.8222  140.5574  143.5571 H   0  0  0  0  0  0  0  0  0  0  0  0  # atno 7974 bound_to 7965
  154.7576  140.2778  155.6240 H   0  0  0  0  0  0  0  0  0  0  0  0  # atno 8008 bound_to 7997
  156.2909  140.2666  156.2273 H   0  0  0  0  0  0  0  0  0  0  0  0  # atno 8009 bound_to 7997
  155.0058  140.0372  157.2368 H   0  0  0  0  0  0  0  0  0  0  0  0  # atno 8010 bound_to 7997
  139.5987  144.1057  152.1718 H   0  0  0  0  0  0  0  0  0  0  0  0  # atno 10167 bound_to 10162
  157.4285  130.8011  149.7581 H   0  0  0  0  0  0  0  0  0  0  0  0  # atno 10718 bound_to 10713
  153.4680  135.3707  155.2375 H   0  0  0  0  0  0  0  0  0  0  0  0  # atno 10763 bound_to 10752
  154.8757  135.3924  154.3846 H   0  0  0  0  0  0  0  0  0  0  0  0  # atno 10764 bound_to 10752
  153.4430  135.7084  153.6221 H   0  0  0  0  0  0  0  0  0  0  0  0  # atno 10765 bound_to 10752
  139.8790  134.9293  156.5334 H   0  0  0  0  0  0  0  0  0  0  0  0  # atno 11005 bound_to 11000
  145.5079  139.1480  143.3621 LP  0  0  0  0  0  0  0  0  0  0  0  0  # atno 17320 bound_to 7965
  146.2528  140.5220  142.8886 LP  0  0  0  0  0  0  0  0  0  0  0  0  # atno 17321 bound_to 7965
  140.0648  144.5827  150.7236 LP  0  0  0  0  0  0  0  0  0  0  0  0  # atno 17342 bound_to 10162
  140.7232  143.2610  151.4208 LP  0  0  0  0  0  0  0  0  0  0  0  0  # atno 17343 bound_to 10162
  155.9905  130.3944  150.3026 LP  0  0  0  0  0  0  0  0  0  0  0  0  # atno 17370 bound_to 10713
  157.1180  131.0239  151.3021 LP  0  0  0  0  0  0  0  0  0  0  0  0  # atno 17371 bound_to 10713
  140.8364  133.8239  155.9033 LP  0  0  0  0  0  0  0  0  0  0  0  0  # atno 17394 bound_to 11000
  140.9279  134.2058  157.4883 LP  0  0  0  0  0  0  0  0  0  0  0  0  # atno 17395 bound_to 11000

$$$$
