AV-unprocessed.smi:916|AV-procd|sdf|4160|dock5
  -GOLD-   22720 2 63D 1   1.00000     0.00000
 Structure written by MMmdl.
 43 44  0  0  0  0  0  0  0  0  1 V2000
  145.9280  131.7623  149.6915 C   0  0  0  0  0  0  0  0  0  0  0  0
  144.5311  132.0588  150.2489 C   0  0  0  0  0  0  0  0  0  0  0  0
  144.5034  133.3040  151.0821 C   0  0  0  0  0  0  0  0  0  0  0  0
  143.3987  133.8961  151.6444 C   0  0  0  0  0  0  0  0  0  0  0  0
  143.8124  135.3313  152.5436 S   0  0  0  0  0  0  0  0  0  0  0  0
  145.4958  135.0655  152.1180 C   0  0  0  0  0  0  0  0  0  0  0  0
  146.5294  135.9302  152.5636 N   0  0  0  0  0  0  0  0  0  0  0  0
  146.4436  136.9378  153.4497 C   0  0  0  0  0  0  0  0  0  0  0  0
  145.4320  137.2498  154.0790 O   0  0  0  0  0  0  0  0  0  0  0  0
  147.6144  137.5804  153.5689 N   0  0  0  0  0  0  0  0  0  0  0  0
  147.8498  138.7379  154.4262 C   0  0  0  0  0  0  0  0  0  0  0  0
  148.9849  139.6477  153.8911 C   0  0  2  0  0  0  0  0  0  0  0  0
  150.3700  139.0890  154.1873 C   0  0  0  0  0  0  0  0  0  0  0  0
  150.6962  139.6521  155.5730 C   0  0  0  0  0  0  0  0  0  0  0  0
  149.7498  140.6903  155.8108 O   0  0  0  0  0  0  0  0  0  0  0  0
  149.0943  141.0127  154.5916 C   0  0  2  0  0  0  0  0  0  0  0  0
  147.7842  141.7952  154.8367 C   0  0  0  0  0  0  0  0  0  0  0  0
  147.0356  141.2771  156.0768 C   0  0  0  0  0  0  0  0  0  0  0  0
  146.8658  141.7320  153.6055 C   0  0  0  0  0  0  0  0  0  0  0  0
  145.6941  133.9829  151.3577 N   0  0  0  0  0  0  0  0  0  0  0  0
  145.9213  130.8535  149.0896 H   0  0  0  0  0  0  0  0  0  0  0  0
  146.6510  131.6246  150.4960 H   0  0  0  0  0  0  0  0  0  0  0  0
  146.2814  132.5773  149.0590 H   0  0  0  0  0  0  0  0  0  0  0  0
  143.8252  132.1474  149.4224 H   0  0  0  0  0  0  0  0  0  0  0  0
  144.1938  131.2065  150.8396 H   0  0  0  0  0  0  0  0  0  0  0  0
  142.3696  133.5741  151.5856 H   0  0  0  0  0  0  0  0  0  0  0  0
  147.4322  135.7820  152.1372 H   0  0  0  0  0  0  0  0  0  0  0  0
  148.3958  137.2560  153.0184 H   0  0  0  0  0  0  0  0  0  0  0  0
  146.9159  139.2917  154.5225 H   0  0  0  0  0  0  0  0  0  0  0  0
  148.0931  138.3749  155.4252 H   0  0  0  0  0  0  0  0  0  0  0  0
  148.8545  139.7888  152.8176 H   0  0  0  0  0  0  0  0  0  0  0  0
  150.4316  138.0013  154.1483 H   0  0  0  0  0  0  0  0  0  0  0  0
  151.0817  139.4806  153.4592 H   0  0  0  0  0  0  0  0  0  0  0  0
  150.5928  138.8921  156.3476 H   0  0  0  0  0  0  0  0  0  0  0  0
  151.7140  140.0412  155.6127 H   0  0  0  0  0  0  0  0  0  0  0  0
  149.7744  141.6436  154.0150 H   0  0  0  0  0  0  0  0  0  0  0  0
  148.0256  142.8457  154.9995 H   0  0  0  0  0  0  0  0  0  0  0  0
  146.7668  140.2261  155.9649 H   0  0  0  0  0  0  0  0  0  0  0  0
  146.1159  141.8386  156.2430 H   0  0  0  0  0  0  0  0  0  0  0  0
  147.6374  141.3692  156.9808 H   0  0  0  0  0  0  0  0  0  0  0  0
  146.5852  140.7045  153.3715 H   0  0  0  0  0  0  0  0  0  0  0  0
  147.3526  142.1524  152.7251 H   0  0  0  0  0  0  0  0  0  0  0  0
  145.9482  142.2978  153.7701 H   0  0  0  0  0  0  0  0  0  0  0  0
  1  2  1  0  0  0  0
  1 21  1  0  0  0  0
  1 22  1  0  0  0  0
  1 23  1  0  0  0  0
  2  3  1  0  0  0  0
  2 24  1  0  0  0  0
  2 25  1  0  0  0  0
  3 20  1  0  0  0  0
  3  4  2  0  0  0  0
  4  5  1  0  0  0  0
  4 26  1  0  0  0  0
  5  6  1  0  0  0  0
  6  7  1  0  0  0  0
  6 20  2  0  0  0  0
  7  8  1  0  0  0  0
  7 27  1  0  0  0  0
  8  9  2  0  0  0  0
  8 10  1  0  0  0  0
 10 11  1  0  0  0  0
 10 28  1  0  0  0  0
 11 12  1  0  0  0  0
 11 29  1  0  0  0  0
 11 30  1  0  0  0  0
 12 16  1  0  0  0  0
 12 13  1  0  0  0  0
 12 31  1  0  0  0  0
 13 14  1  0  0  0  0
 13 32  1  0  0  0  0
 13 33  1  0  0  0  0
 14 15  1  0  0  0  0
 14 34  1  0  0  0  0
 14 35  1  0  0  0  0
 15 16  1  0  0  0  0
 16 17  1  0  0  0  0
 16 36  1  0  0  0  0
 17 18  1  0  0  0  0
 17 19  1  0  0  0  0
 17 37  1  0  0  0  0
 18 38  1  0  0  0  0
 18 39  1  0  0  0  0
 18 40  1  0  0  0  0
 19 41  1  0  0  0  0
 19 42  1  0  0  0  0
 19 43  1  0  0  0  0
M  END
> <s_m_source_file>
AV-unprocessed.smi

> <i_m_source_file_index>
916

> <i_lp_mmshare_version>
43012

> <i_f3d_flags>
0

> <s_epik_input>
W0NIM11bQ0gyXWMxW2NIXXNjKG4xKVtOSF1DKD1PKVtOSF1bQ0gyXVtDQEBIXTJbQ0gyXVtDSDJdT1tDQEhdMltDSF0oW0NIM10pW0NIM10=

> <s_epik_cmdline>
J2VwaWtfcHl0aG9uJywgJy1waCcsICc3LjAnLCAnLXRuJywgJzgnLCAnLW1hJywgJzIwMCcsICctbWV0YWxfYmluZGluZycsICctaW1hZScsICc8aW5maWxlLm1hZT4nLCAnLW9tYWUnLCAnPG91dGZpbGUubWFlPic=

> <r_lp_tautomer_probability>
0.999

> <r_epik_Ionization_Penalty>
0.000518907

> <r_epik_Ionization_Penalty_Charging>
0

> <r_epik_Ionization_Penalty_Neutral>
0.000518907

> <r_epik_State_Penalty>
0.000177984

> <r_epik_Charging_Adjusted_Penalty>
0.000177984

> <i_epik_Tot_Q>
0

> <i_epik_Tot_abs_Q>
0

> <r_epik_Metal_State_Penalty>
-0

> <b_epik_Metal_Only>
0

> <s_lp_Force_Field>
OPLS_2005

> <r_lp_Energy>
18.5448

> <b_lp_Chiralities_Consistent>
1

> <s_lp_Variant>
AV-unprocessed.smi:916-3

> <Gold.Version>
5.8.1

> <Gold.Id.Protein>
6NUR|6NUR_protein|mol2

> <Gold.PLP.Fitness>
39.3903

> <Gold.PLP.PLP>
-32.5220

> <Gold.PLP.part.hbond>
-1.9501

> <Gold.PLP.part.metal>
0.0000

> <Gold.PLP.part.buried>
-1.7228

> <Gold.PLP.part.nonpolar>
-29.2780

> <Gold.PLP.part.repulsive>
0.2956

> <Gold.PLP.ligand.clash>
0.0000

> <Gold.PLP.ligand.torsion>
0.6982

> <Gold.PLP.Chemscore.Hbond>
1.9600

> <Gold.PLP.Chemscore.CHOScore>
0.7725

> <Gold.PLP.Chemscore.Metal>
0.0000

> <Gold.Chemscore.Hbonds>
donor molecule, donor type, donor heavy atom, donor atom, acceptor molecule, acceptor atom, score
      L1  H     7    27       P1  7948  1.00
      L1  H    10    28       P1  7948  0.98
      L1  C     4    26       P1 10186  0.66

> <Gold.PLP.Chemscore.Internal.Correction>
0.0670

> <Gold.Rescore>
     Score         DG    S(hbond)    S(metal)    S(lipo)     H(rot)  DE(clash)    DE(int)     intcor
     16.01     -17.91       1.94        0.00      84.11       1.52       0.07       1.82       ----

> <Gold.Chemscore.Fitness>
16.0110

> <Gold.Chemscore.DG>
-17.9100

> <Gold.Chemscore.ZeroCoef>
-5.4800

> <Gold.Chemscore.Hbond>
1.9430

> <Gold.Chemscore.Metal>
0.0000

> <Gold.Chemscore.Lipo>
84.1116

> <Gold.Chemscore.Internal_Hbond>
0.0000

> <Gold.Chemscore.DEClash>
0.0742

> <Gold.Chemscore.DEInternal>
1.8248

> <Gold.Chemscore.Rot>
1.5238

> <Gold.Chemscore.Internal.Correction>
   9.000000E+99

> <Gold.Chemscore.Hbonds>
donor molecule, donor type, donor heavy atom, donor atom, acceptor molecule, acceptor atom, score
      L1  H     7    27       P1  7948  0.95
      L1  H    10    28       P1  7948  0.93

> <Gold.Chemscore.Hbond.Weighted>
-6.4898

> <Gold.Chemscore.Metal.Weighted>
-0.0000

> <Gold.Chemscore.Lipo.Weighted>
-9.8411

> <Gold.Chemscore.Internal_Hbond.Weighted>
0.0000

> <Gold.Chemscore.DEClash.Weighted>
0.0742

> <Gold.Chemscore.DEInternal.Weighted>
1.8248

> <Gold.Chemscore.Rot.Weighted>
3.9008

> <Gold.Chemscore.Internal.Correction.Weighted>
   9.000000E+99

> <Gold.Protein.RotatedTorsions>
[ 6907 6896 6895 6894 ] final -160.53 input  -60.11 | X-H torsion
[ 7974 7965 7964 7962 ] final  -94.13 input  175.53 | X-H torsion
[ 8008 7997 7996 7995 ] final  151.27 input   59.86 | X-H torsion
[ 10167 10162 10161 10158 ] final   38.64 input  -65.29 | X-H torsion
[ 10718 10713 10712 10709 ] final -144.95 input   66.30 | X-H torsion
[ 10763 10752 10751 10750 ] final  -86.33 input  -60.55 | X-H torsion
[ 11005 11000 10999 10996 ] final   47.83 input  -57.11 | X-H torsion

> <Gold.Protein.ActiveResidues>
 VAL166  LYS551  ARG553  GLY616  TRP617  ASP618  TYR619  PRO620  LYS621  CYS622 
 ASP623  PHE694  ASN695  SER759  ASP760  ASP761  ALA762  ILE779  LEU786  VAL792 
 PHE793  MET794  SER795  GLU796  ALA797  LYS798  CYS799  TRP800  GLU811  SER814 

> <Gold.Protein.RotatedAtoms>
  151.3505  133.3927  159.2679 H   0  0  0  0  0  0  0  0  0  0  0  0  # atno 6907 bound_to 6896
  150.9805  134.9162  159.7852 H   0  0  0  0  0  0  0  0  0  0  0  0  # atno 6908 bound_to 6896
  152.5215  134.3468  159.9289 H   0  0  0  0  0  0  0  0  0  0  0  0  # atno 6909 bound_to 6896
  145.3773  140.9513  143.2413 H   0  0  0  0  0  0  0  0  0  0  0  0  # atno 7974 bound_to 7965
  156.2681  140.2052  156.6150 H   0  0  0  0  0  0  0  0  0  0  0  0  # atno 8008 bound_to 7997
  154.6802  140.0541  157.0281 H   0  0  0  0  0  0  0  0  0  0  0  0  # atno 8009 bound_to 7997
  155.1012  140.3206  155.4549 H   0  0  0  0  0  0  0  0  0  0  0  0  # atno 8010 bound_to 7997
  140.3917  144.1844  150.6131 H   0  0  0  0  0  0  0  0  0  0  0  0  # atno 10167 bound_to 10162
  156.3765  130.7815  151.2002 H   0  0  0  0  0  0  0  0  0  0  0  0  # atno 10718 bound_to 10713
  154.6212  135.5453  153.7578 H   0  0  0  0  0  0  0  0  0  0  0  0  # atno 10763 bound_to 10752
  153.0239  135.6413  154.1437 H   0  0  0  0  0  0  0  0  0  0  0  0  # atno 10764 bound_to 10752
  154.1371  135.2910  155.3150 H   0  0  0  0  0  0  0  0  0  0  0  0  # atno 10765 bound_to 10752
  140.1244  134.4787  155.8571 H   0  0  0  0  0  0  0  0  0  0  0  0  # atno 11005 bound_to 11000
  144.8533  139.5288  143.6846 LP  0  0  0  0  0  0  0  0  0  0  0  0  # atno 17320 bound_to 7965
  146.2858  139.7000  142.9196 LP  0  0  0  0  0  0  0  0  0  0  0  0  # atno 17321 bound_to 7965
  140.4833  143.2372  151.8924 LP  0  0  0  0  0  0  0  0  0  0  0  0  # atno 17342 bound_to 10162
  139.4789  144.5246  151.8754 LP  0  0  0  0  0  0  0  0  0  0  0  0  # atno 17343 bound_to 10162
  157.7488  131.0357  150.4374 LP  0  0  0  0  0  0  0  0  0  0  0  0  # atno 17370 bound_to 10713
  156.4611  130.4032  149.6576 LP  0  0  0  0  0  0  0  0  0  0  0  0  # atno 17371 bound_to 10713
  141.2158  133.6772  156.6951 LP  0  0  0  0  0  0  0  0  0  0  0  0  # atno 17394 bound_to 11000
  140.2923  134.8231  157.4027 LP  0  0  0  0  0  0  0  0  0  0  0  0  # atno 17395 bound_to 11000

$$$$
