AV-unprocessed.smi:1594|AV-procd|sdf|6414|dock6
  -GOLD-   22720 7 53D 1   1.00000     0.00000
 Structure written by MMmdl.
 35 36  0  0  0  0  0  0  0  0  1 V2000
  150.4136  135.0674  156.6663 C   0  0  0  0  0  0  0  0  0  0  0  0
  150.4788  133.6051  156.3311 C   0  0  0  0  0  0  0  0  0  0  0  0
  150.9186  132.7454  157.2346 N   0  0  0  0  0  0  0  0  0  0  0  0
  150.8531  131.4868  156.6289 O   0  0  0  0  0  0  0  0  0  0  0  0
  150.3715  131.6408  155.3692 C   0  0  0  0  0  0  0  0  0  0  0  0
  150.2220  130.4020  154.5529 C   0  0  0  0  0  0  0  0  0  0  0  0
  150.1178  132.9601  155.1135 C   0  0  0  0  0  0  0  0  0  0  0  0
  149.5808  133.5902  153.8516 C   0  0  0  0  0  0  0  0  0  0  0  0
  148.1988  133.0375  153.4812 C   0  0  0  0  0  0  0  0  0  0  0  0
  147.7551  132.0165  154.0094 O   0  0  0  0  0  0  0  0  0  0  0  0
  147.5219  133.7369  152.5578 N   0  0  0  0  0  0  0  0  0  0  0  0
  146.1894  133.4066  152.0611 C   0  0  0  0  0  0  0  0  0  0  0  0
  146.2015  132.0120  151.4176 C   0  0  0  0  0  0  0  0  0  0  0  0
  144.8463  131.7057  150.7589 C   0  0  0  0  0  0  0  0  0  0  0  0
  144.5298  132.7136  149.8047 O   0  0  0  0  0  0  0  0  0  0  0  0
  144.3890  134.0046  150.3878 C   0  0  0  0  0  0  0  0  0  0  0  0
  145.7172  134.4421  151.0258 C   0  0  0  0  0  0  0  0  0  0  0  0
  149.4716  135.5024  156.3319 H   0  0  0  0  0  0  0  0  0  0  0  0
  151.2223  135.6139  156.1809 H   0  0  0  0  0  0  0  0  0  0  0  0
  150.4930  135.2395  157.7405 H   0  0  0  0  0  0  0  0  0  0  0  0
  149.3444  130.4660  153.9094 H   0  0  0  0  0  0  0  0  0  0  0  0
  150.1084  129.5248  155.1899 H   0  0  0  0  0  0  0  0  0  0  0  0
  151.0960  130.2507  153.9196 H   0  0  0  0  0  0  0  0  0  0  0  0
  149.5045  134.6726  153.9631 H   0  0  0  0  0  0  0  0  0  0  0  0
  150.2539  133.4191  153.0108 H   0  0  0  0  0  0  0  0  0  0  0  0
  147.9597  134.5615  152.1731 H   0  0  0  0  0  0  0  0  0  0  0  0
  145.4862  133.3910  152.8962 H   0  0  0  0  0  0  0  0  0  0  0  0
  146.9861  131.9575  150.6614 H   0  0  0  0  0  0  0  0  0  0  0  0
  146.4337  131.2522  152.1646 H   0  0  0  0  0  0  0  0  0  0  0  0
  144.8864  130.7417  150.2517 H   0  0  0  0  0  0  0  0  0  0  0  0
  144.0558  131.6380  151.5079 H   0  0  0  0  0  0  0  0  0  0  0  0
  144.0964  134.7118  149.6115 H   0  0  0  0  0  0  0  0  0  0  0  0
  143.5872  133.9956  151.1277 H   0  0  0  0  0  0  0  0  0  0  0  0
  145.6000  135.4215  151.4909 H   0  0  0  0  0  0  0  0  0  0  0  0
  146.4696  134.5556  150.2440 H   0  0  0  0  0  0  0  0  0  0  0  0
  1  2  1  0  0  0  0
  1 18  1  0  0  0  0
  1 19  1  0  0  0  0
  1 20  1  0  0  0  0
  2  7  1  0  0  0  0
  2  3  2  0  0  0  0
  3  4  1  0  0  0  0
  4  5  1  0  0  0  0
  5  6  1  0  0  0  0
  5  7  2  0  0  0  0
  6 21  1  0  0  0  0
  6 22  1  0  0  0  0
  6 23  1  0  0  0  0
  7  8  1  0  0  0  0
  8  9  1  0  0  0  0
  8 24  1  0  0  0  0
  8 25  1  0  0  0  0
  9 10  2  0  0  0  0
  9 11  1  0  0  0  0
 11 12  1  0  0  0  0
 11 26  1  0  0  0  0
 12 17  1  0  0  0  0
 12 13  1  0  0  0  0
 12 27  1  0  0  0  0
 13 14  1  0  0  0  0
 13 28  1  0  0  0  0
 13 29  1  0  0  0  0
 14 15  1  0  0  0  0
 14 30  1  0  0  0  0
 14 31  1  0  0  0  0
 15 16  1  0  0  0  0
 16 17  1  0  0  0  0
 16 32  1  0  0  0  0
 16 33  1  0  0  0  0
 17 34  1  0  0  0  0
 17 35  1  0  0  0  0
M  END
> <s_m_source_file>
AV-unprocessed.smi

> <i_m_source_file_index>
1594

> <i_lp_mmshare_version>
43012

> <i_f3d_flags>
0

> <s_epik_input>
W0NIM11jMW5vYyhbQ0gzXSljMVtDSDJdQyg9TylbTkhdW0NIXTJbQ0gyXVtDSDJdT1tDSDJdW0NIMl0y

> <s_epik_cmdline>
J2VwaWtfcHl0aG9uJywgJy1waCcsICc3LjAnLCAnLXRuJywgJzgnLCAnLW1hJywgJzIwMCcsICctbWV0YWxfYmluZGluZycsICctaW1hZScsICc8aW5maWxlLm1hZT4nLCAnLW9tYWUnLCAnPG91dGZpbGUubWFlPic=

> <r_lp_tautomer_probability>
1

> <r_epik_Ionization_Penalty>
2.34123e-08

> <r_epik_Ionization_Penalty_Charging>
0

> <r_epik_Ionization_Penalty_Neutral>
2.34123e-08

> <r_epik_State_Penalty>
-0

> <r_epik_Charging_Adjusted_Penalty>
0

> <i_epik_Tot_Q>
0

> <i_epik_Tot_abs_Q>
0

> <r_epik_Metal_State_Penalty>
-0

> <b_epik_Metal_Only>
0

> <s_lp_Force_Field>
OPLS_2005

> <r_lp_Energy>
1.65601

> <b_lp_Chiralities_Consistent>
1

> <s_lp_Variant>
AV-unprocessed.smi:1594-1

> <Gold.Version>
5.8.1

> <Gold.Id.Protein>
6NUR|6NUR_protein|mol2

> <Gold.PLP.Fitness>
35.3662

> <Gold.PLP.PLP>
-29.7268

> <Gold.PLP.part.hbond>
-2.0000

> <Gold.PLP.part.metal>
0.0000

> <Gold.PLP.part.buried>
-5.2118

> <Gold.PLP.part.nonpolar>
-23.3706

> <Gold.PLP.part.repulsive>
0.2328

> <Gold.PLP.ligand.clash>
0.0000

> <Gold.PLP.ligand.torsion>
0.1682

> <Gold.PLP.Chemscore.Hbond>
1.9913

> <Gold.PLP.Chemscore.CHOScore>
0.0000

> <Gold.PLP.Chemscore.Metal>
0.0000

> <Gold.Chemscore.Hbonds>
donor molecule, donor type, donor heavy atom, donor atom, acceptor molecule, acceptor atom, score
      L1  H    11    26       P1  7948  1.00
      P1  H  6896  6907       L1     3  0.81

> <Gold.PLP.Chemscore.Internal.Correction>
0.0020

> <Gold.Rescore>
     Score         DG    S(hbond)    S(metal)    S(lipo)     H(rot)  DE(clash)    DE(int)     intcor
     12.89     -14.98       1.68        0.00      63.37       1.38       0.00       2.09       ----

> <Gold.Chemscore.Fitness>
12.8922

> <Gold.Chemscore.DG>
-14.9809

> <Gold.Chemscore.ZeroCoef>
-5.4800

> <Gold.Chemscore.Hbond>
1.6815

> <Gold.Chemscore.Metal>
0.0000

> <Gold.Chemscore.Lipo>
63.3673

> <Gold.Chemscore.Internal_Hbond>
0.0000

> <Gold.Chemscore.DEClash>
0.0015

> <Gold.Chemscore.DEInternal>
2.0873

> <Gold.Chemscore.Rot>
1.3786

> <Gold.Chemscore.Internal.Correction>
   9.000000E+99

> <Gold.Chemscore.Hbonds>
donor molecule, donor type, donor heavy atom, donor atom, acceptor molecule, acceptor atom, score
      L1  H    11    26       P1  7948  0.30
      P1  H  6896  6907       L1     3  0.77

> <Gold.Chemscore.Hbond.Weighted>
-5.6163

> <Gold.Chemscore.Metal.Weighted>
-0.0000

> <Gold.Chemscore.Lipo.Weighted>
-7.4140

> <Gold.Chemscore.Internal_Hbond.Weighted>
0.0000

> <Gold.Chemscore.DEClash.Weighted>
0.0015

> <Gold.Chemscore.DEInternal.Weighted>
2.0873

> <Gold.Chemscore.Rot.Weighted>
3.5293

> <Gold.Chemscore.Internal.Correction.Weighted>
   9.000000E+99

> <Gold.Protein.RotatedTorsions>
[ 6907 6896 6895 6894 ] final -158.74 input  -60.11 | X-H torsion
[ 7974 7965 7964 7962 ] final  112.93 input  175.53 | X-H torsion
[ 8008 7997 7996 7995 ] final  -67.53 input   59.86 | X-H torsion
[ 10167 10162 10161 10158 ] final   27.02 input  -65.29 | X-H torsion
[ 10718 10713 10712 10709 ] final  -75.72 input   66.30 | X-H torsion
[ 10763 10752 10751 10750 ] final  112.56 input  -60.55 | X-H torsion
[ 11005 11000 10999 10996 ] final -170.29 input  -57.11 | X-H torsion

> <Gold.Protein.ActiveResidues>
 VAL166  LYS551  ARG553  GLY616  TRP617  ASP618  TYR619  PRO620  LYS621  CYS622 
 ASP623  PHE694  ASN695  SER759  ASP760  ASP761  ALA762  ILE779  LEU786  VAL792 
 PHE793  MET794  SER795  GLU796  ALA797  LYS798  CYS799  TRP800  GLU811  SER814 

> <Gold.Protein.RotatedAtoms>
  151.3228  133.4032  159.2655 H   0  0  0  0  0  0  0  0  0  0  0  0  # atno 6907 bound_to 6896
  151.0020  134.9330  159.7969 H   0  0  0  0  0  0  0  0  0  0  0  0  # atno 6908 bound_to 6896
  152.5277  134.3193  159.9195 H   0  0  0  0  0  0  0  0  0  0  0  0  # atno 6909 bound_to 6896
  145.2233  139.2852  143.4206 H   0  0  0  0  0  0  0  0  0  0  0  0  # atno 7974 bound_to 7965
  154.4806  140.0891  156.7367 H   0  0  0  0  0  0  0  0  0  0  0  0  # atno 8008 bound_to 7997
  155.4481  140.3456  155.4279 H   0  0  0  0  0  0  0  0  0  0  0  0  # atno 8009 bound_to 7997
  156.1185  140.1467  156.9227 H   0  0  0  0  0  0  0  0  0  0  0  0  # atno 8010 bound_to 7997
  140.4974  144.0370  150.6319 H   0  0  0  0  0  0  0  0  0  0  0  0  # atno 10167 bound_to 10162
  156.0198  130.4447  150.3085 H   0  0  0  0  0  0  0  0  0  0  0  0  # atno 10718 bound_to 10713
  153.4796  135.3682  155.2435 H   0  0  0  0  0  0  0  0  0  0  0  0  # atno 10763 bound_to 10752
  154.8755  135.3951  154.3716 H   0  0  0  0  0  0  0  0  0  0  0  0  # atno 10764 bound_to 10752
  153.4317  135.7082  153.6291 H   0  0  0  0  0  0  0  0  0  0  0  0  # atno 10765 bound_to 10752
  140.5211  134.5708  157.5048 H   0  0  0  0  0  0  0  0  0  0  0  0  # atno 11005 bound_to 11000
  146.3371  140.2546  142.8600 LP  0  0  0  0  0  0  0  0  0  0  0  0  # atno 17320 bound_to 7965
  144.9745  140.8400  143.5435 LP  0  0  0  0  0  0  0  0  0  0  0  0  # atno 17321 bound_to 7965
  140.3657  143.2883  152.0335 LP  0  0  0  0  0  0  0  0  0  0  0  0  # atno 17342 bound_to 10162
  139.4864  144.6269  151.7147 LP  0  0  0  0  0  0  0  0  0  0  0  0  # atno 17343 bound_to 10162
  157.1187  131.0241  151.3018 LP  0  0  0  0  0  0  0  0  0  0  0  0  # atno 17370 bound_to 10713
  157.4646  130.7673  149.7267 LP  0  0  0  0  0  0  0  0  0  0  0  0  # atno 17371 bound_to 10713
  139.9605  134.7460  156.0247 LP  0  0  0  0  0  0  0  0  0  0  0  0  # atno 17394 bound_to 11000
  141.1333  133.6581  156.3525 LP  0  0  0  0  0  0  0  0  0  0  0  0  # atno 17395 bound_to 11000

$$$$
