AV-unprocessed.smi:266|AV-procd|sdf|2032|dock6
  -GOLD-   2262021243D 1   1.00000     0.00000
 Structure written by MMmdl.
 52 55  0  0  0  0  0  0  0  0  1 V2000
  153.1141  138.6866  154.6814 C   0  0  0  0  0  0  0  0  0  0  0  0
  151.6417  138.6253  155.1191 C   0  0  1  0  0  0  0  0  0  0  0  0
  150.9873  139.8176  154.6963 O   0  0  0  0  0  0  0  0  0  0  0  0
  149.6193  139.5246  154.4793 C   0  0  0  0  0  0  0  0  0  0  0  0
  149.6876  138.1731  153.7876 C   0  0  0  0  0  0  0  0  0  0  0  0
  150.7934  137.4494  154.5585 C   0  0  1  0  0  0  0  0  0  0  0  0
  151.5186  136.6445  153.6443 O   0  0  0  0  0  0  0  0  0  0  0  0
  150.2704  136.5469  155.7077 C   0  0  0  0  0  0  0  0  0  0  0  0
  149.3566  135.4952  155.2845 N   0  0  0  0  0  0  0  0  0  0  0  0
  148.0148  135.6316  155.0176 C   0  0  0  0  0  0  0  0  0  0  0  0
  147.4065  134.5342  154.6636 N   0  0  0  0  0  0  0  0  0  0  0  0
  148.3941  133.5534  154.7018 C   0  0  0  0  0  0  0  0  0  0  0  0
  148.4286  132.1454  154.4455 C   0  0  0  0  0  0  0  0  0  0  0  0
  147.3579  131.3930  154.0519 N   0  0  0  0  0  0  0  0  0  0  0  0
  147.3417  129.9559  154.2980 C   0  0  0  0  0  0  0  0  0  0  0  0
  146.1275  132.0101  153.5465 C   0  0  0  0  0  0  0  0  0  0  0  0
  146.2243  132.4132  152.0614 C   0  0  2  0  0  0  0  0  0  0  0  0
  145.6068  133.7994  151.7955 C   0  0  0  0  0  0  0  0  0  0  0  0
  145.5204  134.0162  150.2809 C   0  0  0  0  0  0  0  0  0  0  0  0
  145.2151  132.3599  149.5608 S   0  0  0  0  0  0  0  0  0  0  0  0
  143.7919  132.2279  149.2143 O   0  0  0  0  0  0  0  0  0  0  0  0
  146.2657  132.0688  148.5737 O   0  0  0  0  0  0  0  0  0  0  0  0
  145.5455  131.4235  151.1009 C   0  0  0  0  0  0  0  0  0  0  0  0
  149.6279  131.5275  154.6206 N   0  0  0  0  0  0  0  0  0  0  0  0
  150.7092  132.2109  155.0022 C   0  0  0  0  0  0  0  0  0  0  0  0
  150.8197  133.5116  155.2662 N   0  0  0  0  0  0  0  0  0  0  0  0
  149.6275  134.1498  155.1012 C   0  0  0  0  0  0  0  0  0  0  0  0
  153.6565  137.7960  154.9998 H   0  0  0  0  0  0  0  0  0  0  0  0
  153.6125  139.5507  155.1215 H   0  0  0  0  0  0  0  0  0  0  0  0
  153.2053  138.7706  153.5982 H   0  0  0  0  0  0  0  0  0  0  0  0
  151.6085  138.6164  156.2097 H   0  0  0  0  0  0  0  0  0  0  0  0
  149.0960  139.4541  155.4340 H   0  0  0  0  0  0  0  0  0  0  0  0
  149.1348  140.2881  153.8706 H   0  0  0  0  0  0  0  0  0  0  0  0
  148.7288  137.6581  153.7701 H   0  0  0  0  0  0  0  0  0  0  0  0
  149.9861  138.3335  152.7500 H   0  0  0  0  0  0  0  0  0  0  0  0
  151.4154  137.0061  152.7775 H   0  0  0  0  0  0  0  0  0  0  0  0
  151.1093  136.0789  156.2246 H   0  0  0  0  0  0  0  0  0  0  0  0
  149.7568  137.1534  156.4549 H   0  0  0  0  0  0  0  0  0  0  0  0
  147.4981  136.5777  155.0897 H   0  0  0  0  0  0  0  0  0  0  0  0
  147.5149  129.7421  155.3532 H   0  0  0  0  0  0  0  0  0  0  0  0
  148.1049  129.4546  153.7021 H   0  0  0  0  0  0  0  0  0  0  0  0
  146.3785  129.5218  154.0285 H   0  0  0  0  0  0  0  0  0  0  0  0
  145.2502  131.3867  153.7190 H   0  0  0  0  0  0  0  0  0  0  0  0
  145.9521  132.9074  154.1411 H   0  0  0  0  0  0  0  0  0  0  0  0
  147.2764  132.4786  151.7803 H   0  0  0  0  0  0  0  0  0  0  0  0
  144.6001  133.8296  152.2146 H   0  0  0  0  0  0  0  0  0  0  0  0
  146.1763  134.5945  152.2778 H   0  0  0  0  0  0  0  0  0  0  0  0
  144.7281  134.7069  149.9922 H   0  0  0  0  0  0  0  0  0  0  0  0
  146.4679  134.3855  149.8877 H   0  0  0  0  0  0  0  0  0  0  0  0
  146.1560  130.5463  150.8871 H   0  0  0  0  0  0  0  0  0  0  0  0
  144.5847  131.0924  151.4952 H   0  0  0  0  0  0  0  0  0  0  0  0
  151.6150  131.6326  155.1106 H   0  0  0  0  0  0  0  0  0  0  0  0
  1  2  1  0  0  0  0
  1 28  1  0  0  0  0
  1 29  1  0  0  0  0
  1 30  1  0  0  0  0
  2  6  1  0  0  0  0
  2  3  1  0  0  0  0
  2 31  1  0  0  0  0
  3  4  1  0  0  0  0
  4  5  1  0  0  0  0
  4 32  1  0  0  0  0
  4 33  1  0  0  0  0
  5  6  1  0  0  0  0
  5 34  1  0  0  0  0
  5 35  1  0  0  0  0
  6  7  1  0  0  0  0
  6  8  1  0  0  0  0
  7 36  1  0  0  0  0
  8  9  1  0  0  0  0
  8 37  1  0  0  0  0
  8 38  1  0  0  0  0
  9 27  1  0  0  0  0
  9 10  1  0  0  0  0
 10 11  2  0  0  0  0
 10 39  1  0  0  0  0
 11 12  1  0  0  0  0
 12 27  2  0  0  0  0
 12 13  1  0  0  0  0
 13 14  1  0  0  0  0
 13 24  2  0  0  0  0
 14 15  1  0  0  0  0
 14 16  1  0  0  0  0
 15 40  1  0  0  0  0
 15 41  1  0  0  0  0
 15 42  1  0  0  0  0
 16 17  1  0  0  0  0
 16 43  1  0  0  0  0
 16 44  1  0  0  0  0
 17 23  1  0  0  0  0
 17 18  1  0  0  0  0
 17 45  1  0  0  0  0
 18 19  1  0  0  0  0
 18 46  1  0  0  0  0
 18 47  1  0  0  0  0
 19 20  1  0  0  0  0
 19 48  1  0  0  0  0
 19 49  1  0  0  0  0
 20 21  2  0  0  0  0
 20 22  2  0  0  0  0
 20 23  1  0  0  0  0
 23 50  1  0  0  0  0
 23 51  1  0  0  0  0
 24 25  1  0  0  0  0
 25 26  2  0  0  0  0
 25 52  1  0  0  0  0
 26 27  1  0  0  0  0
M  END
> <s_m_source_file>
AV-unprocessed.smi

> <i_m_source_file_index>
266

> <i_lp_mmshare_version>
43012

> <i_f3d_flags>
0

> <s_epik_input>
W0NIMl0xW0NIMl1PW0NAQEhdKFtDSDNdKVtDQEBdMShbT0hdKVtDSDJdbihbY0hdbjIpYyhjMjMpbltjSF1uYzNOKFtDSDNdKVtDSDJdW0NAQEhdKFtDSDJdNClbQ0gyXVtDSDJdUzQoPU8pPU8=

> <s_epik_cmdline>
J2VwaWtfcHl0aG9uJywgJy1waCcsICc3LjAnLCAnLXRuJywgJzgnLCAnLW1hJywgJzIwMCcsICctbWV0YWxfYmluZGluZycsICctaW1hZScsICc8aW5maWxlLm1hZT4nLCAnLW9tYWUnLCAnPG91dGZpbGUubWFlPic=

> <r_lp_tautomer_probability>
1

> <r_epik_Ionization_Penalty>
0.00155497

> <r_epik_Ionization_Penalty_Charging>
0

> <r_epik_Ionization_Penalty_Neutral>
0.00155497

> <r_epik_State_Penalty>
-0

> <r_epik_Charging_Adjusted_Penalty>
0

> <i_epik_Tot_Q>
0

> <i_epik_Tot_abs_Q>
0

> <r_epik_Metal_State_Penalty>
-0

> <b_epik_Metal_Only>
0

> <s_lp_Force_Field>
OPLS_2005

> <r_lp_Energy>
32.0182

> <b_lp_Chiralities_Consistent>
1

> <s_lp_Variant>
AV-unprocessed.smi:266-2

> <Gold.Version>
5.8.1

> <Gold.Id.Protein>
6NUR|6NUR_protein|mol2

> <Gold.PLP.Fitness>
44.6656

> <Gold.PLP.PLP>
-36.8549

> <Gold.PLP.part.hbond>
-4.2585

> <Gold.PLP.part.metal>
0.0000

> <Gold.PLP.part.buried>
-3.5204

> <Gold.PLP.part.nonpolar>
-30.6854

> <Gold.PLP.part.repulsive>
0.8712

> <Gold.PLP.ligand.clash>
0.0000

> <Gold.PLP.ligand.torsion>
1.2526

> <Gold.PLP.Chemscore.Hbond>
3.4024

> <Gold.PLP.Chemscore.CHOScore>
0.0000

> <Gold.PLP.Chemscore.Metal>
0.0000

> <Gold.Chemscore.Hbonds>
donor molecule, donor type, donor heavy atom, donor atom, acceptor molecule, acceptor atom, score
      L1  H     7    36       P1  7949  0.40
      P1  H  7989  7998       L1     3  1.00
      P1  H 10752 10763       L1     7  1.00
      P1  H 10785 10796       L1    21  0.45

> <Gold.PLP.Chemscore.Internal.Correction>
0.1086

> <Gold.Rescore>
     Score         DG    S(hbond)    S(metal)    S(lipo)     H(rot)  DE(clash)    DE(int)     intcor
     16.09     -19.88       3.50        0.00      76.78       2.45       1.67       2.12       ----

> <Gold.Chemscore.Fitness>
16.0863

> <Gold.Chemscore.DG>
-19.8827

> <Gold.Chemscore.ZeroCoef>
-5.4800

> <Gold.Chemscore.Hbond>
3.4981

> <Gold.Chemscore.Metal>
0.0000

> <Gold.Chemscore.Lipo>
76.7828

> <Gold.Chemscore.Internal_Hbond>
0.0000

> <Gold.Chemscore.DEClash>
1.6717

> <Gold.Chemscore.DEInternal>
2.1248

> <Gold.Chemscore.Rot>
2.4471

> <Gold.Chemscore.Internal.Correction>
   9.000000E+99

> <Gold.Chemscore.Hbonds>
donor molecule, donor type, donor heavy atom, donor atom, acceptor molecule, acceptor atom, score
      L1  H     7    36       P1  7949  0.35
      P1  H  7989  7998       L1     3  0.85
      P1  H 10752 10763       L1     7  0.98
      P1  H 10785 10796       L1    21  0.38

> <Gold.Chemscore.Hbond.Weighted>
-11.6836

> <Gold.Chemscore.Metal.Weighted>
-0.0000

> <Gold.Chemscore.Lipo.Weighted>
-8.9836

> <Gold.Chemscore.Internal_Hbond.Weighted>
0.0000

> <Gold.Chemscore.DEClash.Weighted>
1.6717

> <Gold.Chemscore.DEInternal.Weighted>
2.1248

> <Gold.Chemscore.Rot.Weighted>
6.2645

> <Gold.Chemscore.Internal.Correction.Weighted>
   9.000000E+99

> <Gold.Protein.RotatedTorsions>
[ 6907 6896 6895 6894 ] final  -55.49 input  -60.11 | X-H torsion
[ 7974 7965 7964 7962 ] final   91.65 input  175.53 | X-H torsion
[ 8008 7997 7996 7995 ] final  -64.27 input   59.86 | X-H torsion
[ 10167 10162 10161 10158 ] final -119.48 input  -65.29 | X-H torsion
[ 10718 10713 10712 10709 ] final   42.30 input   66.30 | X-H torsion
[ 10763 10752 10751 10750 ] final   30.57 input  -60.55 | X-H torsion
[ 11005 11000 10999 10996 ] final   58.75 input  -57.11 | X-H torsion

> <Gold.Protein.ActiveResidues>
 VAL166  LYS551  ARG553  GLY616  TRP617  ASP618  TYR619  PRO620  LYS621  CYS622 
 ASP623  PHE694  ASN695  SER759  ASP760  ASP761  ALA762  ILE779  LEU786  VAL792 
 PHE793  MET794  SER795  GLU796  ALA797  LYS798  CYS799  TRP800  GLU811  SER814 

> <Gold.Protein.RotatedAtoms>
  150.8247  134.7472  159.6802 H   0  0  0  0  0  0  0  0  0  0  0  0  # atno 6907 bound_to 6896
  152.4359  134.5684  159.9924 H   0  0  0  0  0  0  0  0  0  0  0  0  # atno 6908 bound_to 6896
  151.5859  133.3334  159.3054 H   0  0  0  0  0  0  0  0  0  0  0  0  # atno 6909 bound_to 6896
  145.5028  139.2276  143.2767 H   0  0  0  0  0  0  0  0  0  0  0  0  # atno 7974 bound_to 7965
  154.4602  140.0957  156.6870 H   0  0  0  0  0  0  0  0  0  0  0  0  # atno 8008 bound_to 7997
  155.5018  140.3474  155.4354 H   0  0  0  0  0  0  0  0  0  0  0  0  # atno 8009 bound_to 7997
  156.0855  140.1384  156.9647 H   0  0  0  0  0  0  0  0  0  0  0  0  # atno 8010 bound_to 7997
  140.0462  143.5104  152.2105 H   0  0  0  0  0  0  0  0  0  0  0  0  # atno 10167 bound_to 10162
  157.4033  130.7872  149.7367 H   0  0  0  0  0  0  0  0  0  0  0  0  # atno 10718 bound_to 10713
  153.0364  135.6461  154.1065 H   0  0  0  0  0  0  0  0  0  0  0  0  # atno 10763 bound_to 10752
  154.0779  135.2875  155.3297 H   0  0  0  0  0  0  0  0  0  0  0  0  # atno 10764 bound_to 10752
  154.6550  135.5412  153.8012 H   0  0  0  0  0  0  0  0  0  0  0  0  # atno 10765 bound_to 10752
  140.0354  134.5950  155.9450 H   0  0  0  0  0  0  0  0  0  0  0  0  # atno 11005 bound_to 11000
  146.2215  140.5830  142.9015 LP  0  0  0  0  0  0  0  0  0  0  0  0  # atno 17320 bound_to 7965
  144.7770  140.5761  143.6631 LP  0  0  0  0  0  0  0  0  0  0  0  0  # atno 17321 bound_to 7965
  139.5982  144.7574  151.3235 LP  0  0  0  0  0  0  0  0  0  0  0  0  # atno 17342 bound_to 10162
  140.7237  143.7063  150.7805 LP  0  0  0  0  0  0  0  0  0  0  0  0  # atno 17343 bound_to 10162
  155.9829  130.4005  150.3390 LP  0  0  0  0  0  0  0  0  0  0  0  0  # atno 17370 bound_to 10713
  157.1520  131.0323  151.2880 LP  0  0  0  0  0  0  0  0  0  0  0  0  # atno 17371 bound_to 10713
  141.1854  133.6555  156.5198 LP  0  0  0  0  0  0  0  0  0  0  0  0  # atno 17394 bound_to 11000
  140.4156  134.7234  157.4860 LP  0  0  0  0  0  0  0  0  0  0  0  0  # atno 17395 bound_to 11000

$$$$
