AV-unprocessed.smi:1294|AV-procd|sdf|5400|dock5
  -GOLD-   22720 4563D 1   1.00000     0.00000
 Structure written by MMmdl.
 45 46  0  0  0  0  0  0  0  0  1 V2000
  145.3945  143.4867  153.0212 C   0  0  0  0  0  0  0  0  0  0  0  0
  145.6620  142.7618  154.3092 C   0  0  0  0  0  0  0  0  0  0  0  0
  144.9209  143.0296  155.3718 N   0  0  0  0  0  0  0  0  0  0  0  0
  145.4032  142.2244  156.3394 N   0  0  0  0  0  0  0  0  0  0  0  0
  144.8027  142.2590  157.6587 C   0  0  0  0  0  0  0  0  0  0  0  0
  146.4520  141.4472  155.8873 C   0  0  0  0  0  0  0  0  0  0  0  0
  147.1561  140.4673  156.7692 C   0  0  0  0  0  0  0  0  0  0  0  0
  146.6525  141.7705  154.5719 C   0  0  0  0  0  0  0  0  0  0  0  0
  147.6724  141.2164  153.6091 C   0  0  0  0  0  0  0  0  0  0  0  0
  148.9438  140.8207  154.3629 C   0  0  0  0  0  0  0  0  0  0  0  0
  149.4695  139.7270  154.1546 O   0  0  0  0  0  0  0  0  0  0  0  0
  149.4228  141.7191  155.2377 N   0  0  0  0  0  0  0  0  0  0  0  0
  150.6069  141.5466  156.0737 C   0  0  0  0  0  0  0  0  0  0  0  0
  150.3103  141.8234  157.5564 C   0  0  0  0  0  0  0  0  0  0  0  0
  150.7531  143.5135  158.0529 S   0  0  0  0  0  0  0  0  0  0  0  0
  150.7449  143.3396  159.8600 C   0  0  0  0  0  0  0  0  0  0  0  0
  151.0547  144.6550  160.5727 C   0  0  0  0  0  0  0  0  0  0  0  0
  151.4984  144.2342  161.9758 C   0  0  0  0  0  0  0  0  0  0  0  0
  152.0885  142.8231  161.8297 C   0  0  0  0  0  0  0  0  0  0  0  0
  151.8246  142.3877  160.3817 C   0  0  0  0  0  0  0  0  0  0  0  0
  145.3236  142.7869  152.1884 H   0  0  0  0  0  0  0  0  0  0  0  0
  146.1968  144.1895  152.7970 H   0  0  0  0  0  0  0  0  0  0  0  0
  144.4608  144.0491  153.0591 H   0  0  0  0  0  0  0  0  0  0  0  0
  145.5763  142.4133  158.4113 H   0  0  0  0  0  0  0  0  0  0  0  0
  144.2976  141.3130  157.8544 H   0  0  0  0  0  0  0  0  0  0  0  0
  144.0759  143.0692  157.7305 H   0  0  0  0  0  0  0  0  0  0  0  0
  147.8387  139.8395  156.1967 H   0  0  0  0  0  0  0  0  0  0  0  0
  146.4432  139.8111  157.2687 H   0  0  0  0  0  0  0  0  0  0  0  0
  147.7362  140.9836  157.5340 H   0  0  0  0  0  0  0  0  0  0  0  0
  147.2936  140.3343  153.0922 H   0  0  0  0  0  0  0  0  0  0  0  0
  147.9094  141.9415  152.8291 H   0  0  0  0  0  0  0  0  0  0  0  0
  148.9225  142.5907  155.3363 H   0  0  0  0  0  0  0  0  0  0  0  0
  150.9296  140.5113  155.9625 H   0  0  0  0  0  0  0  0  0  0  0  0
  151.4392  142.1611  155.7262 H   0  0  0  0  0  0  0  0  0  0  0  0
  149.2564  141.6461  157.7742 H   0  0  0  0  0  0  0  0  0  0  0  0
  150.8813  141.1292  158.1727 H   0  0  0  0  0  0  0  0  0  0  0  0
  149.7628  142.9875  160.1788 H   0  0  0  0  0  0  0  0  0  0  0  0
  151.8774  145.1666  160.0705 H   0  0  0  0  0  0  0  0  0  0  0  0
  150.2023  145.3349  160.5899 H   0  0  0  0  0  0  0  0  0  0  0  0
  152.2121  144.9388  162.4035 H   0  0  0  0  0  0  0  0  0  0  0  0
  150.6338  144.2012  162.6400 H   0  0  0  0  0  0  0  0  0  0  0  0
  153.1568  142.8110  162.0488 H   0  0  0  0  0  0  0  0  0  0  0  0
  151.6051  142.1414  162.5306 H   0  0  0  0  0  0  0  0  0  0  0  0
  151.5260  141.3412  160.3142 H   0  0  0  0  0  0  0  0  0  0  0  0
  152.7386  142.5071  159.7980 H   0  0  0  0  0  0  0  0  0  0  0  0
  1  2  1  0  0  0  0
  1 21  1  0  0  0  0
  1 22  1  0  0  0  0
  1 23  1  0  0  0  0
  2  8  1  0  0  0  0
  2  3  2  0  0  0  0
  3  4  1  0  0  0  0
  4  5  1  0  0  0  0
  4  6  1  0  0  0  0
  5 24  1  0  0  0  0
  5 25  1  0  0  0  0
  5 26  1  0  0  0  0
  6  7  1  0  0  0  0
  6  8  2  0  0  0  0
  7 27  1  0  0  0  0
  7 28  1  0  0  0  0
  7 29  1  0  0  0  0
  8  9  1  0  0  0  0
  9 10  1  0  0  0  0
  9 30  1  0  0  0  0
  9 31  1  0  0  0  0
 10 11  2  0  0  0  0
 10 12  1  0  0  0  0
 12 13  1  0  0  0  0
 12 32  1  0  0  0  0
 13 14  1  0  0  0  0
 13 33  1  0  0  0  0
 13 34  1  0  0  0  0
 14 15  1  0  0  0  0
 14 35  1  0  0  0  0
 14 36  1  0  0  0  0
 15 16  1  0  0  0  0
 16 20  1  0  0  0  0
 16 17  1  0  0  0  0
 16 37  1  0  0  0  0
 17 18  1  0  0  0  0
 17 38  1  0  0  0  0
 17 39  1  0  0  0  0
 18 19  1  0  0  0  0
 18 40  1  0  0  0  0
 18 41  1  0  0  0  0
 19 20  1  0  0  0  0
 19 42  1  0  0  0  0
 19 43  1  0  0  0  0
 20 44  1  0  0  0  0
 20 45  1  0  0  0  0
M  END
> <s_m_source_file>
AV-unprocessed.smi

> <i_m_source_file_index>
1294

> <i_lp_mmshare_version>
43012

> <i_f3d_flags>
0

> <s_epik_input>
W0NIM11jMW5uKFtDSDNdKWMoW0NIM10pYzFbQ0gyXUMoPU8pW05IXVtDSDJdW0NIMl1TW0NIXTJbQ0gyXVtDSDJdW0NIMl1bQ0gyXTI=

> <s_epik_cmdline>
J2VwaWtfcHl0aG9uJywgJy1waCcsICc3LjAnLCAnLXRuJywgJzgnLCAnLW1hJywgJzIwMCcsICctbWV0YWxfYmluZGluZycsICctaW1hZScsICc8aW5maWxlLm1hZT4nLCAnLW9tYWUnLCAnPG91dGZpbGUubWFlPic=

> <r_lp_tautomer_probability>
1

> <r_epik_Ionization_Penalty>
0.00302432

> <r_epik_Ionization_Penalty_Charging>
0

> <r_epik_Ionization_Penalty_Neutral>
0.00302432

> <r_epik_State_Penalty>
0.0021246

> <r_epik_Charging_Adjusted_Penalty>
0.0021246

> <i_epik_Tot_Q>
0

> <i_epik_Tot_abs_Q>
0

> <r_epik_Metal_State_Penalty>
-0

> <b_epik_Metal_Only>
0

> <s_lp_Force_Field>
OPLS_2005

> <r_lp_Energy>
15.1488

> <b_lp_Chiralities_Consistent>
1

> <s_lp_Variant>
AV-unprocessed.smi:1294-1

> <Gold.Version>
5.8.1

> <Gold.Id.Protein>
6NUR|6NUR_protein|mol2

> <Gold.PLP.Fitness>
46.4434

> <Gold.PLP.PLP>
-45.1368

> <Gold.PLP.part.hbond>
-1.0000

> <Gold.PLP.part.metal>
0.0000

> <Gold.PLP.part.buried>
-7.9394

> <Gold.PLP.part.nonpolar>
-36.9089

> <Gold.PLP.part.repulsive>
1.2134

> <Gold.PLP.ligand.clash>
0.0000

> <Gold.PLP.ligand.torsion>
0.8694

> <Gold.PLP.Chemscore.Hbond>
1.0000

> <Gold.PLP.Chemscore.CHOScore>
0.0000

> <Gold.PLP.Chemscore.Metal>
0.0000

> <Gold.Chemscore.Hbonds>
donor molecule, donor type, donor heavy atom, donor atom, acceptor molecule, acceptor atom, score
      L1  H    12    32       P1  8028  0.71

> <Gold.PLP.Chemscore.Internal.Correction>
0.0454

> <Gold.Rescore>
     Score         DG    S(hbond)    S(metal)    S(lipo)     H(rot)  DE(clash)    DE(int)     intcor
     15.74     -16.89       0.99        0.00     103.81       1.58       0.07       1.08       ----

> <Gold.Chemscore.Fitness>
15.7372

> <Gold.Chemscore.DG>
-16.8865

> <Gold.Chemscore.ZeroCoef>
-5.4800

> <Gold.Chemscore.Hbond>
0.9879

> <Gold.Chemscore.Metal>
0.0000

> <Gold.Chemscore.Lipo>
103.8086

> <Gold.Chemscore.Internal_Hbond>
0.0000

> <Gold.Chemscore.DEClash>
0.0651

> <Gold.Chemscore.DEInternal>
1.0842

> <Gold.Chemscore.Rot>
1.5776

> <Gold.Chemscore.Internal.Correction>
   9.000000E+99

> <Gold.Chemscore.Hbonds>
donor molecule, donor type, donor heavy atom, donor atom, acceptor molecule, acceptor atom, score
      L1  H    12    32       P1  8028  0.68

> <Gold.Chemscore.Hbond.Weighted>
-3.2996

> <Gold.Chemscore.Metal.Weighted>
-0.0000

> <Gold.Chemscore.Lipo.Weighted>
-12.1456

> <Gold.Chemscore.Internal_Hbond.Weighted>
0.0000

> <Gold.Chemscore.DEClash.Weighted>
0.0651

> <Gold.Chemscore.DEInternal.Weighted>
1.0842

> <Gold.Chemscore.Rot.Weighted>
4.0387

> <Gold.Chemscore.Internal.Correction.Weighted>
   9.000000E+99

> <Gold.Protein.RotatedTorsions>
[ 6907 6896 6895 6894 ] final  -47.03 input  -60.11 | X-H torsion
[ 7974 7965 7964 7962 ] final  114.86 input  175.53 | X-H torsion
[ 8008 7997 7996 7995 ] final -114.75 input   59.86 | X-H torsion
[ 10167 10162 10161 10158 ] final  -85.52 input  -65.29 | X-H torsion
[ 10718 10713 10712 10709 ] final -102.63 input   66.30 | X-H torsion
[ 10763 10752 10751 10750 ] final -166.76 input  -60.55 | X-H torsion
[ 11005 11000 10999 10996 ] final -125.80 input  -57.11 | X-H torsion

> <Gold.Protein.ActiveResidues>
 VAL166  LYS551  ARG553  GLY616  TRP617  ASP618  TYR619  PRO620  LYS621  CYS622 
 ASP623  PHE694  ASN695  SER759  ASP760  ASP761  ALA762  ILE779  LEU786  VAL792 
 PHE793  MET794  SER795  GLU796  ALA797  LYS798  CYS799  TRP800  GLU811  SER814 

> <Gold.Protein.RotatedAtoms>
  150.9050  134.8465  159.7386 H   0  0  0  0  0  0  0  0  0  0  0  0  # atno 6907 bound_to 6896
  152.4914  134.4444  159.9564 H   0  0  0  0  0  0  0  0  0  0  0  0  # atno 6908 bound_to 6896
  151.4492  133.3583  159.2828 H   0  0  0  0  0  0  0  0  0  0  0  0  # atno 6909 bound_to 6896
  145.1991  139.2961  143.4327 H   0  0  0  0  0  0  0  0  0  0  0  0  # atno 7974 bound_to 7965
  155.0412  140.0392  157.2510 H   0  0  0  0  0  0  0  0  0  0  0  0  # atno 8008 bound_to 7997
  154.7215  140.2713  155.6513 H   0  0  0  0  0  0  0  0  0  0  0  0  # atno 8009 bound_to 7997
  156.2818  140.2702  156.1888 H   0  0  0  0  0  0  0  0  0  0  0  0  # atno 8010 bound_to 7997
  140.4030  143.2655  151.9118 H   0  0  0  0  0  0  0  0  0  0  0  0  # atno 10167 bound_to 10162
  156.0235  130.5429  150.7136 H   0  0  0  0  0  0  0  0  0  0  0  0  # atno 10718 bound_to 10713
  154.6801  135.2953  154.9625 H   0  0  0  0  0  0  0  0  0  0  0  0  # atno 10763 bound_to 10752
  154.0623  135.6629  153.4817 H   0  0  0  0  0  0  0  0  0  0  0  0  # atno 10764 bound_to 10752
  153.0541  135.5155  154.7839 H   0  0  0  0  0  0  0  0  0  0  0  0  # atno 10765 bound_to 10752
  140.9733  134.0775  157.3846 H   0  0  0  0  0  0  0  0  0  0  0  0  # atno 11005 bound_to 11000
  146.3421  140.2230  142.8592 LP  0  0  0  0  0  0  0  0  0  0  0  0  # atno 17320 bound_to 7965
  144.9965  140.8594  143.5307 LP  0  0  0  0  0  0  0  0  0  0  0  0  # atno 17321 bound_to 7965
  139.4784  144.5614  151.8232 LP  0  0  0  0  0  0  0  0  0  0  0  0  # atno 17342 bound_to 10162
  140.4720  144.1574  150.5919 LP  0  0  0  0  0  0  0  0  0  0  0  0  # atno 17343 bound_to 10162
  157.4768  131.0898  151.0581 LP  0  0  0  0  0  0  0  0  0  0  0  0  # atno 17370 bound_to 10713
  157.1025  130.5988  149.5463 LP  0  0  0  0  0  0  0  0  0  0  0  0  # atno 17371 bound_to 10713
  139.8920  135.0122  156.6825 LP  0  0  0  0  0  0  0  0  0  0  0  0  # atno 17394 bound_to 11000
  140.7296  133.9070  155.8202 LP  0  0  0  0  0  0  0  0  0  0  0  0  # atno 17395 bound_to 11000

$$$$
