AV-unprocessed.smi:1209|AV-procd|sdf|5070|dock9
  -GOLD-   22720 4113D 1   1.00000     0.00000
 Structure written by MMmdl.
 48 50  0  0  0  0  0  0  0  0  1 V2000
  143.1644  145.8205  154.1540 C   0  0  0  0  0  0  0  0  0  0  0  0
  144.2147  144.7849  154.3653 C   0  0  0  0  0  0  0  0  0  0  0  0
  144.6092  144.0682  155.4589 C   0  0  0  0  0  0  0  0  0  0  0  0
  145.6652  143.2544  154.9642 C   0  0  0  0  0  0  0  0  0  0  0  0
  146.4971  142.2476  155.7133 C   0  0  0  0  0  0  0  0  0  0  0  0
  146.5300  140.9230  155.0834 N   0  0  0  0  0  0  0  0  0  0  0  0
  146.7996  139.8752  156.0643 C   0  0  0  0  0  0  0  0  0  0  0  0
  147.5116  140.8534  153.9990 C   0  0  0  0  0  0  0  0  0  0  0  0
  148.9729  140.6146  154.4379 C   0  0  1  0  0  0  0  0  0  0  0  0
  149.8058  140.6245  153.2933 O   0  0  0  0  0  0  0  0  0  0  0  0
  149.4647  141.7019  155.4140 C   0  0  0  0  0  0  0  0  0  0  0  0
  150.5906  141.2609  156.2185 N   0  0  0  0  0  0  0  0  0  0  0  0
  151.4039  140.2173  155.9672 C   0  0  0  0  0  0  0  0  0  0  0  0
  152.3818  139.9838  156.8377 N   0  0  0  0  0  0  0  0  0  0  0  0
  152.1805  140.9958  157.7611 C   0  0  0  0  0  0  0  0  0  0  0  0
  152.8868  141.3123  158.9421 C   0  0  0  0  0  0  0  0  0  0  0  0
  152.5011  142.4091  159.7456 C   0  0  0  0  0  0  0  0  0  0  0  0
  153.2898  142.7144  161.0069 C   0  0  0  0  0  0  0  0  0  0  0  0
  151.3920  143.2094  159.3705 C   0  0  0  0  0  0  0  0  0  0  0  0
  150.9609  144.3943  160.2167 C   0  0  0  0  0  0  0  0  0  0  0  0
  150.6747  142.9062  158.1942 C   0  0  0  0  0  0  0  0  0  0  0  0
  151.0678  141.8121  157.4032 C   0  0  0  0  0  0  0  0  0  0  0  0
  145.8885  143.4691  153.6776 N   0  0  0  0  0  0  0  0  0  0  0  0
  144.9652  144.4452  153.2861 O   0  0  0  0  0  0  0  0  0  0  0  0
  142.5229  145.9090  155.0309 H   0  0  0  0  0  0  0  0  0  0  0  0
  142.5361  145.5662  153.3002 H   0  0  0  0  0  0  0  0  0  0  0  0
  143.6158  146.7947  153.9655 H   0  0  0  0  0  0  0  0  0  0  0  0
  144.2042  144.1161  156.4585 H   0  0  0  0  0  0  0  0  0  0  0  0
  147.5086  142.6449  155.7902 H   0  0  0  0  0  0  0  0  0  0  0  0
  146.1361  142.1581  156.7386 H   0  0  0  0  0  0  0  0  0  0  0  0
  146.8114  138.8932  155.5901 H   0  0  0  0  0  0  0  0  0  0  0  0
  146.0307  139.8467  156.8365 H   0  0  0  0  0  0  0  0  0  0  0  0
  147.7648  140.0280  156.5492 H   0  0  0  0  0  0  0  0  0  0  0  0
  147.2085  140.1132  153.2562 H   0  0  0  0  0  0  0  0  0  0  0  0
  147.4863  141.8096  153.4743 H   0  0  0  0  0  0  0  0  0  0  0  0
  149.0600  139.6429  154.9266 H   0  0  0  0  0  0  0  0  0  0  0  0
  149.4235  140.0618  152.6376 H   0  0  0  0  0  0  0  0  0  0  0  0
  149.7522  142.6036  154.8720 H   0  0  0  0  0  0  0  0  0  0  0  0
  148.6595  141.9903  156.0910 H   0  0  0  0  0  0  0  0  0  0  0  0
  151.2698  139.5938  155.0953 H   0  0  0  0  0  0  0  0  0  0  0  0
  153.7322  140.7032  159.2267 H   0  0  0  0  0  0  0  0  0  0  0  0
  153.7390  143.7058  160.9449 H   0  0  0  0  0  0  0  0  0  0  0  0
  154.0921  141.9921  161.1600 H   0  0  0  0  0  0  0  0  0  0  0  0
  152.6403  142.6820  161.8818 H   0  0  0  0  0  0  0  0  0  0  0  0
  150.1000  144.9023  159.7810 H   0  0  0  0  0  0  0  0  0  0  0  0
  151.7705  145.1195  160.2990 H   0  0  0  0  0  0  0  0  0  0  0  0
  150.6841  144.0669  161.2189 H   0  0  0  0  0  0  0  0  0  0  0  0
  149.8292  143.5081  157.8963 H   0  0  0  0  0  0  0  0  0  0  0  0
  1  2  1  0  0  0  0
  1 25  1  0  0  0  0
  1 26  1  0  0  0  0
  1 27  1  0  0  0  0
  2 24  1  0  0  0  0
  2  3  2  0  0  0  0
  3  4  1  0  0  0  0
  3 28  1  0  0  0  0
  4  5  1  0  0  0  0
  4 23  2  0  0  0  0
  5  6  1  0  0  0  0
  5 29  1  0  0  0  0
  5 30  1  0  0  0  0
  6  7  1  0  0  0  0
  6  8  1  0  0  0  0
  7 31  1  0  0  0  0
  7 32  1  0  0  0  0
  7 33  1  0  0  0  0
  8  9  1  0  0  0  0
  8 34  1  0  0  0  0
  8 35  1  0  0  0  0
  9 10  1  0  0  0  0
  9 11  1  0  0  0  0
  9 36  1  0  0  0  0
 10 37  1  0  0  0  0
 11 12  1  0  0  0  0
 11 38  1  0  0  0  0
 11 39  1  0  0  0  0
 12 22  1  0  0  0  0
 12 13  1  0  0  0  0
 13 14  2  0  0  0  0
 13 40  1  0  0  0  0
 14 15  1  0  0  0  0
 15 22  2  0  0  0  0
 15 16  1  0  0  0  0
 16 17  2  0  0  0  0
 16 41  1  0  0  0  0
 17 18  1  0  0  0  0
 17 19  1  0  0  0  0
 18 42  1  0  0  0  0
 18 43  1  0  0  0  0
 18 44  1  0  0  0  0
 19 20  1  0  0  0  0
 19 21  2  0  0  0  0
 20 45  1  0  0  0  0
 20 46  1  0  0  0  0
 20 47  1  0  0  0  0
 21 22  1  0  0  0  0
 21 48  1  0  0  0  0
 23 24  1  0  0  0  0
M  END
> <s_m_source_file>
AV-unprocessed.smi

> <i_m_source_file_index>
1209

> <i_lp_mmshare_version>
43012

> <i_f3d_flags>
0

> <s_epik_input>
W0NIM11jMVtjSF1jKG5vMSlbQ0gyXU4oW0NIM10pW0NIMl1bQ0BIXShbT0hdKVtDSDJdbihbY0hdbjIpYyhjMjMpW2NIXWMoW0NIM10pYyhbY0hdMylbQ0gzXQ==

> <s_epik_cmdline>
J2VwaWtfcHl0aG9uJywgJy1waCcsICc3LjAnLCAnLXRuJywgJzgnLCAnLW1hJywgJzIwMCcsICctbWV0YWxfYmluZGluZycsICctaW1hZScsICc8aW5maWxlLm1hZT4nLCAnLW9tYWUnLCAnPG91dGZpbGUubWFlPic=

> <r_epik_Ionization_Penalty>
0.103258

> <r_epik_Ionization_Penalty_Charging>
0

> <r_epik_Ionization_Penalty_Neutral>
0.103258

> <r_epik_State_Penalty>
0.0919675

> <r_epik_Charging_Adjusted_Penalty>
0.0919675

> <i_epik_Tot_Q>
0

> <i_epik_Tot_abs_Q>
0

> <r_epik_Metal_State_Penalty>
0.0812522

> <b_epik_Metal_Only>
0

> <s_lp_Force_Field>
OPLS_2005

> <r_lp_Energy>
16.8498

> <b_lp_Chiralities_Consistent>
1

> <s_lp_Variant>
AV-unprocessed.smi:1209-2

> <Gold.Version>
5.8.1

> <Gold.Id.Protein>
6NUR|6NUR_protein|mol2

> <Gold.PLP.Fitness>
52.4522

> <Gold.PLP.PLP>
-45.5898

> <Gold.PLP.part.hbond>
-2.7995

> <Gold.PLP.part.metal>
0.0000

> <Gold.PLP.part.buried>
-5.8328

> <Gold.PLP.part.nonpolar>
-37.5223

> <Gold.PLP.part.repulsive>
0.4846

> <Gold.PLP.ligand.clash>
0.0000

> <Gold.PLP.ligand.torsion>
0.9492

> <Gold.PLP.Chemscore.Hbond>
2.8893

> <Gold.PLP.Chemscore.CHOScore>
0.0000

> <Gold.PLP.Chemscore.Metal>
0.0000

> <Gold.Chemscore.Hbonds>
donor molecule, donor type, donor heavy atom, donor atom, acceptor molecule, acceptor atom, score
      L1  H    10    37       P1  7957  0.54
      P1  H  7989  7998       L1    10  0.34
      P1  H  7997  8009       L1    14  1.00
      P1  H  8011  8017       L1    10  1.00

> <Gold.PLP.Chemscore.Internal.Correction>
0.0928

> <Gold.Rescore>
     Score         DG    S(hbond)    S(metal)    S(lipo)     H(rot)  DE(clash)    DE(int)     intcor
     18.33     -20.31       2.10        0.00     120.26       2.45       0.16       1.82       ----

> <Gold.Chemscore.Fitness>
18.3252

> <Gold.Chemscore.DG>
-20.3053

> <Gold.Chemscore.ZeroCoef>
-5.4800

> <Gold.Chemscore.Hbond>
2.1010

> <Gold.Chemscore.Metal>
0.0000

> <Gold.Chemscore.Lipo>
120.2593

> <Gold.Chemscore.Internal_Hbond>
0.0000

> <Gold.Chemscore.DEClash>
0.1600

> <Gold.Chemscore.DEInternal>
1.8201

> <Gold.Chemscore.Rot>
2.4462

> <Gold.Chemscore.Internal.Correction>
   9.000000E+99

> <Gold.Chemscore.Hbonds>
donor molecule, donor type, donor heavy atom, donor atom, acceptor molecule, acceptor atom, score
      L1  H    10    37       P1  7957  0.52
      P1  H  7989  7998       L1    10  0.33
      P1  H  7997  8009       L1    14  0.29
      P1  H  8011  8017       L1    10  0.24

> <Gold.Chemscore.Hbond.Weighted>
-7.0173

> <Gold.Chemscore.Metal.Weighted>
-0.0000

> <Gold.Chemscore.Lipo.Weighted>
-14.0703

> <Gold.Chemscore.Internal_Hbond.Weighted>
0.0000

> <Gold.Chemscore.DEClash.Weighted>
0.1600

> <Gold.Chemscore.DEInternal.Weighted>
1.8201

> <Gold.Chemscore.Rot.Weighted>
6.2623

> <Gold.Chemscore.Internal.Correction.Weighted>
   9.000000E+99

> <Gold.Protein.RotatedTorsions>
[ 6907 6896 6895 6894 ] final -148.54 input  -60.11 | X-H torsion
[ 7974 7965 7964 7962 ] final  103.61 input  175.53 | X-H torsion
[ 8008 7997 7996 7995 ] final -173.97 input   59.86 | X-H torsion
[ 10167 10162 10161 10158 ] final  -19.71 input  -65.29 | X-H torsion
[ 10718 10713 10712 10709 ] final  151.47 input   66.30 | X-H torsion
[ 10763 10752 10751 10750 ] final  -93.26 input  -60.55 | X-H torsion
[ 11005 11000 10999 10996 ] final   -0.68 input  -57.11 | X-H torsion

> <Gold.Protein.ActiveResidues>
 VAL166  LYS551  ARG553  GLY616  TRP617  ASP618  TYR619  PRO620  LYS621  CYS622 
 ASP623  PHE694  ASN695  SER759  ASP760  ASP761  ALA762  ILE779  LEU786  VAL792 
 PHE793  MET794  SER795  GLU796  ALA797  LYS798  CYS799  TRP800  GLU811  SER814 

> <Gold.Protein.RotatedAtoms>
  151.1713  133.4782  159.2593 H   0  0  0  0  0  0  0  0  0  0  0  0  # atno 6907 bound_to 6896
  151.1353  135.0151  159.8611 H   0  0  0  0  0  0  0  0  0  0  0  0  # atno 6908 bound_to 6896
  152.5461  134.1612  159.8611 H   0  0  0  0  0  0  0  0  0  0  0  0  # atno 6909 bound_to 6896
  145.3437  139.2456  143.3596 H   0  0  0  0  0  0  0  0  0  0  0  0  # atno 7974 bound_to 7965
  155.9642  140.1150  157.0869 H   0  0  0  0  0  0  0  0  0  0  0  0  # atno 8008 bound_to 7997
  154.4139  140.1176  156.5286 H   0  0  0  0  0  0  0  0  0  0  0  0  # atno 8009 bound_to 7997
  155.6681  140.3473  155.4810 H   0  0  0  0  0  0  0  0  0  0  0  0  # atno 8010 bound_to 7997
  140.7270  143.4793  151.0140 H   0  0  0  0  0  0  0  0  0  0  0  0  # atno 10167 bound_to 10162
  157.2702  131.0815  151.1605 H   0  0  0  0  0  0  0  0  0  0  0  0  # atno 10718 bound_to 10713
  154.6941  135.5201  153.8434 H   0  0  0  0  0  0  0  0  0  0  0  0  # atno 10763 bound_to 10752
  153.0654  135.6583  154.0375 H   0  0  0  0  0  0  0  0  0  0  0  0  # atno 10764 bound_to 10752
  154.0245  135.2990  155.3356 H   0  0  0  0  0  0  0  0  0  0  0  0  # atno 10765 bound_to 10752
  140.6389  133.9507  155.8315 H   0  0  0  0  0  0  0  0  0  0  0  0  # atno 11005 bound_to 11000
  146.2997  140.4039  142.8708 LP  0  0  0  0  0  0  0  0  0  0  0  0  # atno 17320 bound_to 7965
  144.8771  140.7350  143.6010 LP  0  0  0  0  0  0  0  0  0  0  0  0  # atno 17321 bound_to 7965
  139.8490  143.7463  152.3178 LP  0  0  0  0  0  0  0  0  0  0  0  0  # atno 17342 bound_to 10162
  139.7638  144.7498  151.0324 LP  0  0  0  0  0  0  0  0  0  0  0  0  # atno 17343 bound_to 10162
  157.3080  130.6875  149.6200 LP  0  0  0  0  0  0  0  0  0  0  0  0  # atno 17370 bound_to 10713
  155.9663  130.4372  150.5166 LP  0  0  0  0  0  0  0  0  0  0  0  0  # atno 17371 bound_to 10713
  141.0621  134.0331  157.3644 LP  0  0  0  0  0  0  0  0  0  0  0  0  # atno 17394 bound_to 11000
  139.9087  135.0185  156.7600 LP  0  0  0  0  0  0  0  0  0  0  0  0  # atno 17395 bound_to 11000

$$$$
