AV-unprocessed.smi:992|AV-procd|sdf|4330|dock1
  -GOLD-   22720 2233D 1   1.00000     0.00000
 Structure written by MMmdl.
 32 33  0  0  0  0  0  0  0  0  1 V2000
  154.2313  141.4299  160.8375 C   0  0  0  0  0  0  0  0  0  0  0  0
  152.9705  141.8503  160.0749 C   0  0  2  0  0  0  0  0  0  0  0  0
  152.8056  141.0730  158.7550 C   0  0  0  0  0  0  0  0  0  0  0  0
  151.6488  141.5713  158.0220 N   0  0  0  0  0  0  0  0  0  0  0  0
  151.3625  140.8324  156.8654 C   0  0  0  0  0  0  0  0  0  0  0  0
  150.2069  141.1486  156.1200 C   0  0  0  0  0  0  0  0  0  0  0  0
  149.9234  140.4021  154.9600 C   0  0  0  0  0  0  0  0  0  0  0  0
  150.8038  139.3673  154.5878 C   0  0  0  0  0  0  0  0  0  0  0  0
  150.5647  138.6009  153.4481 N   0  0  0  0  0  0  0  0  0  0  0  0
  151.9327  139.1261  155.3969 C   0  0  0  0  0  0  0  0  0  0  0  0
  152.2112  139.8376  156.5099 N   0  0  0  0  0  0  0  0  0  0  0  0
  151.7154  143.0092  157.7937 C   0  0  0  0  0  0  0  0  0  0  0  0
  151.8995  143.7484  159.1327 C   0  0  2  0  0  0  0  0  0  0  0  0
  152.0701  145.2589  158.9387 C   0  0  0  0  0  0  0  0  0  0  0  0
  153.0627  143.2442  159.7866 O   0  0  0  0  0  0  0  0  0  0  0  0
  154.2009  140.3695  161.0897 H   0  0  0  0  0  0  0  0  0  0  0  0
  154.3296  141.9897  161.7678 H   0  0  0  0  0  0  0  0  0  0  0  0
  155.1290  141.6074  160.2449 H   0  0  0  0  0  0  0  0  0  0  0  0
  152.1034  141.6753  160.7145 H   0  0  0  0  0  0  0  0  0  0  0  0
  153.7028  141.1819  158.1434 H   0  0  0  0  0  0  0  0  0  0  0  0
  152.6811  140.0085  158.9584 H   0  0  0  0  0  0  0  0  0  0  0  0
  149.5491  141.9477  156.4295 H   0  0  0  0  0  0  0  0  0  0  0  0
  149.0457  140.6226  154.3701 H   0  0  0  0  0  0  0  0  0  0  0  0
  149.7591  138.7650  152.8612 H   0  0  0  0  0  0  0  0  0  0  0  0
  151.1857  137.8531  153.1737 H   0  0  0  0  0  0  0  0  0  0  0  0
  152.6327  138.3419  155.1473 H   0  0  0  0  0  0  0  0  0  0  0  0
  152.5466  143.2377  157.1247 H   0  0  0  0  0  0  0  0  0  0  0  0
  150.8024  143.3454  157.3008 H   0  0  0  0  0  0  0  0  0  0  0  0
  151.0299  143.5767  159.7695 H   0  0  0  0  0  0  0  0  0  0  0  0
  151.1972  145.6919  158.4501 H   0  0  0  0  0  0  0  0  0  0  0  0
  152.9431  145.4822  158.3243 H   0  0  0  0  0  0  0  0  0  0  0  0
  152.1988  145.7633  159.8966 H   0  0  0  0  0  0  0  0  0  0  0  0
  1  2  1  0  0  0  0
  1 16  1  0  0  0  0
  1 17  1  0  0  0  0
  1 18  1  0  0  0  0
  2 15  1  0  0  0  0
  2  3  1  0  0  0  0
  2 19  1  0  0  0  0
  3  4  1  0  0  0  0
  3 20  1  0  0  0  0
  3 21  1  0  0  0  0
  4  5  1  0  0  0  0
  4 12  1  0  0  0  0
  5 11  1  0  0  0  0
  5  6  2  0  0  0  0
  6  7  1  0  0  0  0
  6 22  1  0  0  0  0
  7  8  2  0  0  0  0
  7 23  1  0  0  0  0
  8  9  1  0  0  0  0
  8 10  1  0  0  0  0
  9 24  1  0  0  0  0
  9 25  1  0  0  0  0
 10 11  2  0  0  0  0
 10 26  1  0  0  0  0
 12 13  1  0  0  0  0
 12 27  1  0  0  0  0
 12 28  1  0  0  0  0
 13 14  1  0  0  0  0
 13 15  1  0  0  0  0
 13 29  1  0  0  0  0
 14 30  1  0  0  0  0
 14 31  1  0  0  0  0
 14 32  1  0  0  0  0
M  END
> <s_m_source_file>
AV-unprocessed.smi

> <i_m_source_file_index>
992

> <i_lp_mmshare_version>
43012

> <i_f3d_flags>
0

> <s_epik_input>
W0NIM11bQ0BASF0xW0NIMl1OKFtDSDJdW0NASF0oTzEpW0NIM10pYzJbY0hdW2NIXWMoW05IMl0pW2NIXW4y

> <s_epik_cmdline>
J2VwaWtfcHl0aG9uJywgJy1waCcsICc3LjAnLCAnLXRuJywgJzgnLCAnLW1hJywgJzIwMCcsICctbWV0YWxfYmluZGluZycsICctaW1hZScsICc8aW5maWxlLm1hZT4nLCAnLW9tYWUnLCAnPG91dGZpbGUubWFlPic=

> <r_lp_tautomer_probability>
1

> <r_epik_Ionization_Penalty>
0.0126232

> <r_epik_Ionization_Penalty_Charging>
0

> <r_epik_Ionization_Penalty_Neutral>
0.0126232

> <r_epik_State_Penalty>
0.00976577

> <r_epik_Charging_Adjusted_Penalty>
0.00976577

> <i_epik_Tot_Q>
0

> <i_epik_Tot_abs_Q>
0

> <r_epik_Metal_State_Penalty>
9.84661e-06

> <b_epik_Metal_Only>
0

> <s_lp_Force_Field>
OPLS_2005

> <r_lp_Energy>
20.2951

> <b_lp_Chiralities_Consistent>
1

> <s_lp_Variant>
AV-unprocessed.smi:992-2

> <Gold.Version>
5.8.1

> <Gold.Id.Protein>
6NUR|6NUR_protein|mol2

> <Gold.PLP.Fitness>
37.2948

> <Gold.PLP.PLP>
-34.2923

> <Gold.PLP.part.hbond>
-2.1108

> <Gold.PLP.part.metal>
0.0000

> <Gold.PLP.part.buried>
-1.3150

> <Gold.PLP.part.nonpolar>
-29.7170

> <Gold.PLP.part.repulsive>
0.1108

> <Gold.PLP.ligand.clash>
0.0000

> <Gold.PLP.ligand.torsion>
0.0485

> <Gold.PLP.Chemscore.Hbond>
1.0009

> <Gold.PLP.Chemscore.CHOScore>
0.0000

> <Gold.PLP.Chemscore.Metal>
0.0000

> <Gold.Chemscore.Hbonds>
donor molecule, donor type, donor heavy atom, donor atom, acceptor molecule, acceptor atom, score
      L1  H     9    24       P1  7957  0.44
      P1  H  7997  8008       L1    11  0.71

> <Gold.PLP.Chemscore.Internal.Correction>
0.0969

> <Gold.Rescore>
     Score         DG    S(hbond)    S(metal)    S(lipo)     H(rot)  DE(clash)    DE(int)     intcor
     15.44     -16.31       0.71        0.00      94.23       1.00       0.80       0.07       ----

> <Gold.Chemscore.Fitness>
15.4426

> <Gold.Chemscore.DG>
-16.3095

> <Gold.Chemscore.ZeroCoef>
-5.4800

> <Gold.Chemscore.Hbond>
0.7079

> <Gold.Chemscore.Metal>
0.0000

> <Gold.Chemscore.Lipo>
94.2328

> <Gold.Chemscore.Internal_Hbond>
0.0000

> <Gold.Chemscore.DEClash>
0.7971

> <Gold.Chemscore.DEInternal>
0.0699

> <Gold.Chemscore.Rot>
1.0000

> <Gold.Chemscore.Internal.Correction>
   9.000000E+99

> <Gold.Chemscore.Hbonds>
donor molecule, donor type, donor heavy atom, donor atom, acceptor molecule, acceptor atom, score
      L1  H     9    24       P1  7957  0.36
      P1  H  7997  8008       L1    11  0.31

> <Gold.Chemscore.Hbond.Weighted>
-2.3643

> <Gold.Chemscore.Metal.Weighted>
-0.0000

> <Gold.Chemscore.Lipo.Weighted>
-11.0252

> <Gold.Chemscore.Internal_Hbond.Weighted>
0.0000

> <Gold.Chemscore.DEClash.Weighted>
0.7971

> <Gold.Chemscore.DEInternal.Weighted>
0.0699

> <Gold.Chemscore.Rot.Weighted>
2.5600

> <Gold.Chemscore.Internal.Correction.Weighted>
   9.000000E+99

> <Gold.Protein.RotatedTorsions>
[ 6907 6896 6895 6894 ] final   62.46 input  -60.11 | X-H torsion
[ 7974 7965 7964 7962 ] final -109.98 input  175.53 | X-H torsion
[ 8008 7997 7996 7995 ] final  -47.34 input   59.86 | X-H torsion
[ 10167 10162 10161 10158 ] final  -13.30 input  -65.29 | X-H torsion
[ 10718 10713 10712 10709 ] final  -22.70 input   66.30 | X-H torsion
[ 10763 10752 10751 10750 ] final  150.01 input  -60.55 | X-H torsion
[ 11005 11000 10999 10996 ] final   92.31 input  -57.11 | X-H torsion

> <Gold.Protein.ActiveResidues>
 VAL166  LYS551  ARG553  GLY616  TRP617  ASP618  TYR619  PRO620  LYS621  CYS622 
 ASP623  PHE694  ASN695  SER759  ASP760  ASP761  ALA762  ILE779  LEU786  VAL792 
 PHE793  MET794  SER795  GLU796  ALA797  LYS798  CYS799  TRP800  GLU811  SER814 

> <Gold.Protein.RotatedAtoms>
  152.4174  134.6017  160.0001 H   0  0  0  0  0  0  0  0  0  0  0  0  # atno 6907 bound_to 6896
  151.6177  133.3336  159.3089 H   0  0  0  0  0  0  0  0  0  0  0  0  # atno 6908 bound_to 6896
  150.8062  134.7227  159.6712 H   0  0  0  0  0  0  0  0  0  0  0  0  # atno 6909 bound_to 6896
  145.1739  140.8939  143.3519 H   0  0  0  0  0  0  0  0  0  0  0  0  # atno 7974 bound_to 7965
  154.4016  140.1349  156.4159 H   0  0  0  0  0  0  0  0  0  0  0  0  # atno 8008 bound_to 7997
  155.7689  140.3484  155.5216 H   0  0  0  0  0  0  0  0  0  0  0  0  # atno 8009 bound_to 7997
  155.8786  140.0983  157.1491 H   0  0  0  0  0  0  0  0  0  0  0  0  # atno 8010 bound_to 7997
  140.7179  143.5441  150.9375 H   0  0  0  0  0  0  0  0  0  0  0  0  # atno 10167 bound_to 10162
  156.5010  130.4588  149.6701 H   0  0  0  0  0  0  0  0  0  0  0  0  # atno 10718 bound_to 10713
  154.0804  135.2860  155.3291 H   0  0  0  0  0  0  0  0  0  0  0  0  # atno 10763 bound_to 10752
  154.6687  135.5307  153.8114 H   0  0  0  0  0  0  0  0  0  0  0  0  # atno 10764 bound_to 10752
  153.0451  135.6552  154.0980 H   0  0  0  0  0  0  0  0  0  0  0  0  # atno 10765 bound_to 10752
  139.8825  134.8725  156.3554 H   0  0  0  0  0  0  0  0  0  0  0  0  # atno 11005 bound_to 11000
  145.0205  139.3428  143.6075 LP  0  0  0  0  0  0  0  0  0  0  0  0  # atno 17320 bound_to 7965
  146.3464  139.9503  142.8729 LP  0  0  0  0  0  0  0  0  0  0  0  0  # atno 17321 bound_to 7965
  139.9164  143.6658  152.3105 LP  0  0  0  0  0  0  0  0  0  0  0  0  # atno 17342 bound_to 10162
  139.7059  144.7628  151.1193 LP  0  0  0  0  0  0  0  0  0  0  0  0  # atno 17343 bound_to 10162
  156.3333  130.7343  151.2276 LP  0  0  0  0  0  0  0  0  0  0  0  0  # atno 17370 bound_to 10713
  157.7463  131.0424  150.4692 LP  0  0  0  0  0  0  0  0  0  0  0  0  # atno 17371 bound_to 10713
  140.9565  133.7416  156.0343 LP  0  0  0  0  0  0  0  0  0  0  0  0  # atno 17394 bound_to 11000
  140.8042  134.3474  157.5431 LP  0  0  0  0  0  0  0  0  0  0  0  0  # atno 17395 bound_to 11000

$$$$
