AV-unprocessed.smi:3141|AV-procd|sdf|11966|dock4
  -GOLD-   2272017363D 1   1.00000     0.00000
 Structure written by MMmdl.
 35 37  0  0  0  0  0  0  0  0  1 V2000
  154.5686  139.8462  159.2047 O   0  0  0  0  0  0  0  0  0  0  0  0
  153.9022  140.1568  160.1925 C   0  0  0  0  0  0  0  0  0  0  0  0
  153.8893  139.4675  161.3408 N   0  0  0  0  0  0  0  0  0  0  0  0
  154.6384  138.2811  161.6004 C   0  0  0  0  0  0  0  0  0  0  0  0
  153.8755  136.9803  161.7303 C   0  0  0  0  0  0  0  0  0  0  0  0
  154.4658  137.6254  162.9536 C   0  0  0  0  0  0  0  0  0  0  0  0
  153.0957  141.2259  160.2470 N   0  0  0  0  0  0  0  0  0  0  0  0
  152.8770  142.1629  159.1483 C   0  0  2  0  0  0  0  0  0  0  0  0
  153.0837  143.6127  159.6267 C   0  0  0  0  0  0  0  0  0  0  0  0
  151.7005  144.2667  159.6217 C   0  0  0  0  0  0  0  0  0  0  0  0
  150.9516  143.5491  158.5037 C   0  0  0  0  0  0  0  0  0  0  0  0
  151.4218  142.0948  158.6256 C   0  0  1  0  0  0  0  0  0  0  0  0
  151.2843  141.3393  157.3900 N   0  0  0  0  0  0  0  0  0  0  0  0
  151.7471  140.0519  157.1494 C   0  0  0  0  0  0  0  0  0  0  0  0
  151.4045  139.7440  155.8524 C   0  0  0  0  0  0  0  0  0  0  0  0
  150.7336  140.8199  155.2767 N   0  0  0  0  0  0  0  0  0  0  0  0
  150.7023  141.7263  156.2448 C   0  0  0  0  0  0  0  0  0  0  0  0
  153.3065  139.8081  162.0913 H   0  0  0  0  0  0  0  0  0  0  0  0
  155.6322  138.2111  161.1603 H   0  0  0  0  0  0  0  0  0  0  0  0
  152.7932  137.0105  161.6195 H   0  0  0  0  0  0  0  0  0  0  0  0
  154.3559  136.0779  161.3574 H   0  0  0  0  0  0  0  0  0  0  0  0
  155.3405  137.1539  163.3973 H   0  0  0  0  0  0  0  0  0  0  0  0
  153.7768  138.0853  163.6595 H   0  0  0  0  0  0  0  0  0  0  0  0
  152.5887  141.3994  161.1026 H   0  0  0  0  0  0  0  0  0  0  0  0
  153.5987  141.9594  158.3546 H   0  0  0  0  0  0  0  0  0  0  0  0
  153.5647  143.6838  160.6034 H   0  0  0  0  0  0  0  0  0  0  0  0
  153.7273  144.1342  158.9168 H   0  0  0  0  0  0  0  0  0  0  0  0
  151.2024  144.0824  160.5743 H   0  0  0  0  0  0  0  0  0  0  0  0
  151.7467  145.3457  159.4723 H   0  0  0  0  0  0  0  0  0  0  0  0
  149.8694  143.6477  158.5943 H   0  0  0  0  0  0  0  0  0  0  0  0
  151.2453  143.9757  157.5437 H   0  0  0  0  0  0  0  0  0  0  0  0
  150.7930  141.6167  159.3796 H   0  0  0  0  0  0  0  0  0  0  0  0
  152.2714  139.4779  157.8990 H   0  0  0  0  0  0  0  0  0  0  0  0
  151.5891  138.8384  155.2938 H   0  0  0  0  0  0  0  0  0  0  0  0
  150.2460  142.6970  156.1168 H   0  0  0  0  0  0  0  0  0  0  0  0
  1  2  2  0  0  0  0
  2  3  1  0  0  0  0
  2  7  1  0  0  0  0
  3  4  1  0  0  0  0
  3 18  1  0  0  0  0
  4  6  1  0  0  0  0
  4  5  1  0  0  0  0
  4 19  1  0  0  0  0
  5  6  1  0  0  0  0
  5 20  1  0  0  0  0
  5 21  1  0  0  0  0
  6 22  1  0  0  0  0
  6 23  1  0  0  0  0
  7  8  1  0  0  0  0
  7 24  1  0  0  0  0
  8 12  1  0  0  0  0
  8  9  1  0  0  0  0
  8 25  1  0  0  0  0
  9 10  1  0  0  0  0
  9 26  1  0  0  0  0
  9 27  1  0  0  0  0
 10 11  1  0  0  0  0
 10 28  1  0  0  0  0
 10 29  1  0  0  0  0
 11 12  1  0  0  0  0
 11 30  1  0  0  0  0
 11 31  1  0  0  0  0
 12 13  1  0  0  0  0
 12 32  1  0  0  0  0
 13 17  1  0  0  0  0
 13 14  1  0  0  0  0
 14 15  2  0  0  0  0
 14 33  1  0  0  0  0
 15 16  1  0  0  0  0
 15 34  1  0  0  0  0
 16 17  2  0  0  0  0
 17 35  1  0  0  0  0
M  END
> <s_m_source_file>
AV-unprocessed.smi

> <i_m_source_file_index>
3141

> <i_lp_mmshare_version>
43012

> <i_f3d_flags>
0

> <s_epik_input>
W0NIMl0xW0NIMl1bQ0hdMVtOSF1DKD1PKVtOSF1bQ0BASF0yW0NIMl1bQ0gyXVtDSDJdW0NASF0ybjNbY0hdW2NIXW5bY0hdMw==

> <s_epik_cmdline>
J2VwaWtfcHl0aG9uJywgJy1waCcsICc3LjAnLCAnLXRuJywgJzgnLCAnLW1hJywgJzIwMCcsICctbWV0YWxfYmluZGluZycsICctaW1hZScsICc8aW5maWxlLm1hZT4nLCAnLW9tYWUnLCAnPG91dGZpbGUubWFlPic=

> <r_lp_tautomer_probability>
1

> <r_epik_Ionization_Penalty>
0.728419

> <r_epik_Ionization_Penalty_Charging>
0.728357

> <r_epik_Ionization_Penalty_Neutral>
6.27871e-05

> <r_epik_State_Penalty>
0.753408

> <r_epik_Charging_Adjusted_Penalty>
1.48176

> <i_epik_Tot_Q>
0

> <i_epik_Tot_abs_Q>
0

> <r_epik_Metal_State_Penalty>
0.332413

> <b_epik_Metal_Only>
0

> <s_lp_Force_Field>
OPLS_2005

> <r_lp_Energy>
34.1677

> <b_lp_Chiralities_Consistent>
1

> <s_lp_Variant>
AV-unprocessed.smi:3141-5

> <Gold.Version>
5.8.1

> <Gold.Id.Protein>
6NUR|6NUR_protein|mol2

> <Gold.PLP.Fitness>
43.3217

> <Gold.PLP.PLP>
-35.1948

> <Gold.PLP.part.hbond>
-2.0000

> <Gold.PLP.part.metal>
0.0000

> <Gold.PLP.part.buried>
-4.4430

> <Gold.PLP.part.nonpolar>
-29.1888

> <Gold.PLP.part.repulsive>
0.1771

> <Gold.PLP.ligand.clash>
0.0000

> <Gold.PLP.ligand.torsion>
0.2048

> <Gold.PLP.Chemscore.Hbond>
1.8320

> <Gold.PLP.Chemscore.CHOScore>
1.0000

> <Gold.PLP.Chemscore.Metal>
0.0000

> <Gold.Chemscore.Hbonds>
donor molecule, donor type, donor heavy atom, donor atom, acceptor molecule, acceptor atom, score
      P1  H  7989  7998       L1    16  0.82
      P1  H  7997  8008       L1     1  1.00
      L1  C    17    35       P1  8028  1.00

> <Gold.PLP.Chemscore.Internal.Correction>
0.0404

> <Gold.Rescore>
     Score         DG    S(hbond)    S(metal)    S(lipo)     H(rot)  DE(clash)    DE(int)     intcor
     17.65     -17.84       1.79        0.00      88.88       1.57       0.05       0.13       ----

> <Gold.Chemscore.Fitness>
17.6481

> <Gold.Chemscore.DG>
-17.8351

> <Gold.Chemscore.ZeroCoef>
-5.4800

> <Gold.Chemscore.Hbond>
1.7894

> <Gold.Chemscore.Metal>
0.0000

> <Gold.Chemscore.Lipo>
88.8820

> <Gold.Chemscore.Internal_Hbond>
0.0000

> <Gold.Chemscore.DEClash>
0.0546

> <Gold.Chemscore.DEInternal>
0.1324

> <Gold.Chemscore.Rot>
1.5705

> <Gold.Chemscore.Internal.Correction>
   9.000000E+99

> <Gold.Chemscore.Hbonds>
donor molecule, donor type, donor heavy atom, donor atom, acceptor molecule, acceptor atom, score
      P1  H  7989  7998       L1    16  0.20
      P1  H  7997  8008       L1     1  0.93

> <Gold.Chemscore.Hbond.Weighted>
-5.9765

> <Gold.Chemscore.Metal.Weighted>
-0.0000

> <Gold.Chemscore.Lipo.Weighted>
-10.3992

> <Gold.Chemscore.Internal_Hbond.Weighted>
0.0000

> <Gold.Chemscore.DEClash.Weighted>
0.0546

> <Gold.Chemscore.DEInternal.Weighted>
0.1324

> <Gold.Chemscore.Rot.Weighted>
4.0206

> <Gold.Chemscore.Internal.Correction.Weighted>
   9.000000E+99

> <Gold.Protein.RotatedTorsions>
[ 6907 6896 6895 6894 ] final   34.29 input  -60.11 | X-H torsion
[ 7974 7965 7964 7962 ] final  -38.00 input  175.53 | X-H torsion
[ 8008 7997 7996 7995 ] final -130.24 input   59.86 | X-H torsion
[ 10167 10162 10161 10158 ] final  -89.92 input  -65.29 | X-H torsion
[ 10718 10713 10712 10709 ] final   29.35 input   66.30 | X-H torsion
[ 10763 10752 10751 10750 ] final   96.89 input  -60.55 | X-H torsion
[ 11005 11000 10999 10996 ] final  126.96 input  -57.11 | X-H torsion

> <Gold.Protein.ActiveResidues>
 VAL166  LYS551  ARG553  GLY616  TRP617  ASP618  TYR619  PRO620  LYS621  CYS622 
 ASP623  PHE694  ASN695  SER759  ASP760  ASP761  ALA762  ILE779  LEU786  VAL792 
 PHE793  MET794  SER795  GLU796  ALA797  LYS798  CYS799  TRP800  GLU811  SER814 

> <Gold.Protein.RotatedAtoms>
  152.1004  134.9346  160.0569 H   0  0  0  0  0  0  0  0  0  0  0  0  # atno 6907 bound_to 6896
  152.0562  133.4036  159.4406 H   0  0  0  0  0  0  0  0  0  0  0  0  # atno 6908 bound_to 6896
  150.6839  134.3172  159.4815 H   0  0  0  0  0  0  0  0  0  0  0  0  # atno 6909 bound_to 6896
  146.0525  140.6461  142.9035 H   0  0  0  0  0  0  0  0  0  0  0  0  # atno 7974 bound_to 7965
  155.2925  140.0449  157.3024 H   0  0  0  0  0  0  0  0  0  0  0  0  # atno 8008 bound_to 7997
  154.5533  140.2324  155.8418 H   0  0  0  0  0  0  0  0  0  0  0  0  # atno 8009 bound_to 7997
  156.1985  140.3032  155.9485 H   0  0  0  0  0  0  0  0  0  0  0  0  # atno 8010 bound_to 7997
  140.3600  143.2847  151.9626 H   0  0  0  0  0  0  0  0  0  0  0  0  # atno 10167 bound_to 10162
  157.2454  130.7089  149.6379 H   0  0  0  0  0  0  0  0  0  0  0  0  # atno 10718 bound_to 10713
  153.2703  135.4202  155.0981 H   0  0  0  0  0  0  0  0  0  0  0  0  # atno 10763 bound_to 10752
  154.8453  135.3470  154.6253 H   0  0  0  0  0  0  0  0  0  0  0  0  # atno 10764 bound_to 10752
  153.6673  135.7045  153.5215 H   0  0  0  0  0  0  0  0  0  0  0  0  # atno 10765 bound_to 10752
  139.9483  134.9626  156.8784 H   0  0  0  0  0  0  0  0  0  0  0  0  # atno 11005 bound_to 11000
  144.7130  140.4110  143.7066 LP  0  0  0  0  0  0  0  0  0  0  0  0  # atno 17320 bound_to 7965
  145.6699  139.1597  143.2760 LP  0  0  0  0  0  0  0  0  0  0  0  0  # atno 17321 bound_to 7965
  139.4815  144.6001  151.7621 LP  0  0  0  0  0  0  0  0  0  0  0  0  # atno 17342 bound_to 10162
  140.5136  144.0987  150.6002 LP  0  0  0  0  0  0  0  0  0  0  0  0  # atno 17343 bound_to 10162
  155.9668  130.4445  150.5463 LP  0  0  0  0  0  0  0  0  0  0  0  0  # atno 17370 bound_to 10713
  157.3335  131.0704  151.1843 LP  0  0  0  0  0  0  0  0  0  0  0  0  # atno 17371 bound_to 10713
  140.5781  134.0378  155.7454 LP  0  0  0  0  0  0  0  0  0  0  0  0  # atno 17394 bound_to 11000
  141.1139  133.9572  157.2859 LP  0  0  0  0  0  0  0  0  0  0  0  0  # atno 17395 bound_to 11000

$$$$
