AV-unprocessed.smi:2014|AV-procd|sdf|8162|dock1
  -GOLD-   2272010403D 1   1.00000     0.00000
 Structure written by MMmdl.
 46 48  0  0  0  0  0  0  0  0  1 V2000
  147.1928  133.0670  151.8746 C   0  0  0  0  0  0  0  0  0  0  0  0
  147.7931  133.2467  153.2761 C   0  0  2  0  0  0  0  0  0  0  0  0
  147.2972  134.5462  153.9396 C   0  0  0  0  0  0  0  0  0  0  0  0
  147.9085  134.7437  155.3397 C   0  0  0  0  0  0  0  0  0  0  0  0
  149.4488  134.7008  155.3137 C   0  0  2  0  0  0  0  0  0  0  0  0
  149.9671  135.8874  154.6361 N   0  0  0  0  0  0  0  0  0  0  0  0
  150.8139  136.7852  155.1610 C   0  0  0  0  0  0  0  0  0  0  0  0
  151.2214  136.7371  156.3217 O   0  0  0  0  0  0  0  0  0  0  0  0
  151.2618  137.9159  154.2258 C   0  0  0  0  0  0  0  0  0  0  0  0
  150.7974  139.2398  154.6918 N   0  0  0  0  0  0  0  0  0  0  0  0
  151.5175  139.8692  155.7397 C   0  0  0  0  0  0  0  0  0  0  0  0
  152.5173  139.3404  156.2299 O   0  0  0  0  0  0  0  0  0  0  0  0
  150.9833  141.1527  156.1881 C   0  0  0  0  0  0  0  0  0  0  0  0
  151.6616  141.7998  157.2619 C   0  0  0  0  0  0  0  0  0  0  0  0
  152.1997  142.3440  158.1302 N   0  0  0  0  0  0  0  0  0  0  0  0
  149.8907  141.6911  155.6082 C   0  0  0  0  0  0  0  0  0  0  0  0
  149.2286  141.0816  154.5647 N   0  0  0  0  0  0  0  0  0  0  0  0
  147.9810  141.5924  154.0704 C   0  0  0  0  0  0  0  0  0  0  0  0
  146.8430  141.8927  155.0265 C   0  0  0  0  0  0  0  0  0  0  0  0
  146.7585  140.7012  154.1043 C   0  0  0  0  0  0  0  0  0  0  0  0
  149.6368  139.8075  154.1124 C   0  0  0  0  0  0  0  0  0  0  0  0
  148.9976  139.2029  153.2479 O   0  0  0  0  0  0  0  0  0  0  0  0
  149.9368  133.3999  154.6392 C   0  0  0  0  0  0  0  0  0  0  0  0
  149.3329  133.2130  153.2364 C   0  0  0  0  0  0  0  0  0  0  0  0
  147.4988  133.8722  151.2058 H   0  0  0  0  0  0  0  0  0  0  0  0
  146.1032  133.0602  151.9116 H   0  0  0  0  0  0  0  0  0  0  0  0
  147.5118  132.1245  151.4287 H   0  0  0  0  0  0  0  0  0  0  0  0
  147.4556  132.4085  153.8878 H   0  0  0  0  0  0  0  0  0  0  0  0
  147.5452  135.3998  153.3073 H   0  0  0  0  0  0  0  0  0  0  0  0
  146.2097  134.5310  154.0177 H   0  0  0  0  0  0  0  0  0  0  0  0
  147.5637  135.6860  155.7675 H   0  0  0  0  0  0  0  0  0  0  0  0
  147.5404  133.9593  156.0021 H   0  0  0  0  0  0  0  0  0  0  0  0
  149.8082  134.7204  156.3440 H   0  0  0  0  0  0  0  0  0  0  0  0
  149.6845  136.0157  153.6752 H   0  0  0  0  0  0  0  0  0  0  0  0
  152.3487  137.9087  154.1242 H   0  0  0  0  0  0  0  0  0  0  0  0
  150.9014  137.6885  153.2217 H   0  0  0  0  0  0  0  0  0  0  0  0
  149.5207  142.6395  155.9706 H   0  0  0  0  0  0  0  0  0  0  0  0
  148.0602  142.2539  153.2094 H   0  0  0  0  0  0  0  0  0  0  0  0
  146.9923  141.6914  156.0857 H   0  0  0  0  0  0  0  0  0  0  0  0
  146.2122  142.7499  154.8001 H   0  0  0  0  0  0  0  0  0  0  0  0
  146.0704  140.7631  153.2638 H   0  0  0  0  0  0  0  0  0  0  0  0
  146.8538  139.7155  154.5558 H   0  0  0  0  0  0  0  0  0  0  0  0
  151.0253  133.3782  154.5803 H   0  0  0  0  0  0  0  0  0  0  0  0
  149.6559  132.5499  155.2621 H   0  0  0  0  0  0  0  0  0  0  0  0
  149.6735  132.2653  152.8183 H   0  0  0  0  0  0  0  0  0  0  0  0
  149.7049  133.9919  152.5692 H   0  0  0  0  0  0  0  0  0  0  0  0
  1  2  1  0  0  0  0
  1 25  1  0  0  0  0
  1 26  1  0  0  0  0
  1 27  1  0  0  0  0
  2 24  1  0  0  0  0
  2  3  1  0  0  0  0
  2 28  1  0  0  0  0
  3  4  1  0  0  0  0
  3 29  1  0  0  0  0
  3 30  1  0  0  0  0
  4  5  1  0  0  0  0
  4 31  1  0  0  0  0
  4 32  1  0  0  0  0
  5  6  1  0  0  0  0
  5 23  1  0  0  0  0
  5 33  1  0  0  0  0
  6  7  1  0  0  0  0
  6 34  1  0  0  0  0
  7  8  2  0  0  0  0
  7  9  1  0  0  0  0
  9 10  1  0  0  0  0
  9 35  1  0  0  0  0
  9 36  1  0  0  0  0
 10 21  1  0  0  0  0
 10 11  1  0  0  0  0
 11 12  2  0  0  0  0
 11 13  1  0  0  0  0
 13 14  1  0  0  0  0
 13 16  2  0  0  0  0
 14 15  3  0  0  0  0
 16 17  1  0  0  0  0
 16 37  1  0  0  0  0
 17 18  1  0  0  0  0
 17 21  1  0  0  0  0
 18 20  1  0  0  0  0
 18 19  1  0  0  0  0
 18 38  1  0  0  0  0
 19 20  1  0  0  0  0
 19 39  1  0  0  0  0
 19 40  1  0  0  0  0
 20 41  1  0  0  0  0
 20 42  1  0  0  0  0
 21 22  2  0  0  0  0
 23 24  1  0  0  0  0
 23 43  1  0  0  0  0
 23 44  1  0  0  0  0
 24 45  1  0  0  0  0
 24 46  1  0  0  0  0
M  END
> <s_m_source_file>
AV-unprocessed.smi

> <i_m_source_file_index>
2014

> <i_lp_mmshare_version>
43012

> <i_f3d_flags>
0

> <s_epik_input>
W0NIM11bQ0BASF0xW0NIMl1bQ0gyXVtDQEhdKFtDSDJdW0NIMl0xKVtOSF1DKD1PKVtDSDJdbjJjKD1PKWMoQyNOKVtjSF1uKGMyPU8pW0NIXTNbQ0gyXVtDSDJdMw==

> <s_epik_cmdline>
J2VwaWtfcHl0aG9uJywgJy1waCcsICc3LjAnLCAnLXRuJywgJzgnLCAnLW1hJywgJzIwMCcsICctbWV0YWxfYmluZGluZycsICctaW1hZScsICc8aW5maWxlLm1hZT4nLCAnLW9tYWUnLCAnPG91dGZpbGUubWFlPic=

> <r_lp_tautomer_probability>
1

> <r_epik_Ionization_Penalty>
1.91358e-08

> <r_epik_Ionization_Penalty_Charging>
8.89021e-11

> <r_epik_Ionization_Penalty_Neutral>
1.90469e-08

> <r_epik_State_Penalty>
-0

> <r_epik_Charging_Adjusted_Penalty>
8.89021e-11

> <i_epik_Tot_Q>
0

> <i_epik_Tot_abs_Q>
0

> <r_epik_Metal_State_Penalty>
-0

> <b_epik_Metal_Only>
0

> <s_lp_Force_Field>
OPLS_2005

> <r_lp_Energy>
34.0364

> <b_lp_Chiralities_Consistent>
1

> <s_lp_Variant>
AV-unprocessed.smi:2014-2

> <Gold.Version>
5.8.1

> <Gold.Id.Protein>
6NUR|6NUR_protein|mol2

> <Gold.PLP.Fitness>
48.7014

> <Gold.PLP.PLP>
-40.3435

> <Gold.PLP.part.hbond>
-1.9492

> <Gold.PLP.part.metal>
0.0000

> <Gold.PLP.part.buried>
-3.1348

> <Gold.PLP.part.nonpolar>
-38.7866

> <Gold.PLP.part.repulsive>
4.7587

> <Gold.PLP.ligand.clash>
0.0000

> <Gold.PLP.ligand.torsion>
0.4215

> <Gold.PLP.Chemscore.Hbond>
1.9913

> <Gold.PLP.Chemscore.CHOScore>
1.0000

> <Gold.PLP.Chemscore.Metal>
0.0000

> <Gold.Chemscore.Hbonds>
donor molecule, donor type, donor heavy atom, donor atom, acceptor molecule, acceptor atom, score
      L1  H     6    34       P1  7948  1.00
      P1  H  7997  8009       L1    12  1.00
      L1  C    16    37       P1  8028  1.00

> <Gold.PLP.Chemscore.Internal.Correction>
0.2271

> <Gold.Rescore>
     Score         DG    S(hbond)    S(metal)    S(lipo)     H(rot)  DE(clash)    DE(int)     intcor
     10.11     -14.97       1.68        0.00      70.56       1.70       1.76       3.10       ----

> <Gold.Chemscore.Fitness>
10.1107

> <Gold.Chemscore.DG>
-14.9704

> <Gold.Chemscore.ZeroCoef>
-5.4800

> <Gold.Chemscore.Hbond>
1.6758

> <Gold.Chemscore.Metal>
0.0000

> <Gold.Chemscore.Lipo>
70.5568

> <Gold.Chemscore.Internal_Hbond>
0.0000

> <Gold.Chemscore.DEClash>
1.7625

> <Gold.Chemscore.DEInternal>
3.0972

> <Gold.Chemscore.Rot>
1.7038

> <Gold.Chemscore.Internal.Correction>
   9.000000E+99

> <Gold.Chemscore.Hbonds>
donor molecule, donor type, donor heavy atom, donor atom, acceptor molecule, acceptor atom, score
      L1  H     6    34       P1  7948  0.25
      P1  H  7997  8009       L1    12  0.97

> <Gold.Chemscore.Hbond.Weighted>
-5.5970

> <Gold.Chemscore.Metal.Weighted>
-0.0000

> <Gold.Chemscore.Lipo.Weighted>
-8.2551

> <Gold.Chemscore.Internal_Hbond.Weighted>
0.0000

> <Gold.Chemscore.DEClash.Weighted>
1.7625

> <Gold.Chemscore.DEInternal.Weighted>
3.0972

> <Gold.Chemscore.Rot.Weighted>
4.3618

> <Gold.Chemscore.Internal.Correction.Weighted>
   9.000000E+99

> <Gold.Protein.RotatedTorsions>
[ 6907 6896 6895 6894 ] final   79.24 input  -60.11 | X-H torsion
[ 7974 7965 7964 7962 ] final  -12.58 input  175.53 | X-H torsion
[ 8008 7997 7996 7995 ] final -168.52 input   59.86 | X-H torsion
[ 10167 10162 10161 10158 ] final -172.88 input  -65.29 | X-H torsion
[ 10718 10713 10712 10709 ] final  -38.74 input   66.30 | X-H torsion
[ 10763 10752 10751 10750 ] final -165.27 input  -60.55 | X-H torsion
[ 11005 11000 10999 10996 ] final   76.14 input  -57.11 | X-H torsion

> <Gold.Protein.ActiveResidues>
 VAL166  LYS551  ARG553  GLY616  TRP617  ASP618  TYR619  PRO620  LYS621  CYS622 
 ASP623  PHE694  ASN695  SER759  ASP760  ASP761  ALA762  ILE779  LEU786  VAL792 
 PHE793  MET794  SER795  GLU796  ALA797  LYS798  CYS799  TRP800  GLU811  SER814 

> <Gold.Protein.RotatedAtoms>
  152.5191  134.3541  159.9261 H   0  0  0  0  0  0  0  0  0  0  0  0  # atno 6907 bound_to 6896
  151.3492  133.3926  159.2686 H   0  0  0  0  0  0  0  0  0  0  0  0  # atno 6908 bound_to 6896
  150.9741  134.9127  159.7863 H   0  0  0  0  0  0  0  0  0  0  0  0  # atno 6909 bound_to 6896
  146.2146  140.3078  142.8380 H   0  0  0  0  0  0  0  0  0  0  0  0  # atno 7974 bound_to 7965
  155.8925  140.1027  157.1408 H   0  0  0  0  0  0  0  0  0  0  0  0  # atno 8008 bound_to 7997
  154.4016  140.1308  156.4398 H   0  0  0  0  0  0  0  0  0  0  0  0  # atno 8009 bound_to 7997
  155.7517  140.3465  155.5156 H   0  0  0  0  0  0  0  0  0  0  0  0  # atno 8010 bound_to 7997
  139.5719  144.1621  152.1396 H   0  0  0  0  0  0  0  0  0  0  0  0  # atno 10167 bound_to 10162
  156.3003  130.4239  149.8150 H   0  0  0  0  0  0  0  0  0  0  0  0  # atno 10718 bound_to 10713
  154.6948  135.2977  154.9427 H   0  0  0  0  0  0  0  0  0  0  0  0  # atno 10763 bound_to 10752
  154.0378  135.6661  153.4791 H   0  0  0  0  0  0  0  0  0  0  0  0  # atno 10764 bound_to 10752
  153.0638  135.5100  154.8060 H   0  0  0  0  0  0  0  0  0  0  0  0  # atno 10765 bound_to 10752
  139.9311  134.7576  156.1358 H   0  0  0  0  0  0  0  0  0  0  0  0  # atno 11005 bound_to 11000
  144.9010  140.7642  143.5867 LP  0  0  0  0  0  0  0  0  0  0  0  0  # atno 17320 bound_to 7965
  145.3004  139.1852  143.4692 LP  0  0  0  0  0  0  0  0  0  0  0  0  # atno 17321 bound_to 7965
  140.1156  144.5419  150.6896 LP  0  0  0  0  0  0  0  0  0  0  0  0  # atno 17342 bound_to 10162
  140.7003  143.2431  151.4882 LP  0  0  0  0  0  0  0  0  0  0  0  0  # atno 17343 bound_to 10162
  156.5530  130.8350  151.3305 LP  0  0  0  0  0  0  0  0  0  0  0  0  # atno 17370 bound_to 10713
  157.7366  130.9782  150.2146 LP  0  0  0  0  0  0  0  0  0  0  0  0  # atno 17371 bound_to 10713
  141.0901  133.6718  156.2521 LP  0  0  0  0  0  0  0  0  0  0  0  0  # atno 17394 bound_to 11000
  140.6198  134.5373  157.5546 LP  0  0  0  0  0  0  0  0  0  0  0  0  # atno 17395 bound_to 11000

$$$$
