AV-unprocessed.smi:284|AV-procd|sdf|2157|dock6
  -GOLD-   2262021503D 1   1.00000     0.00000
 Structure written by MMmdl.
 60 62  0  0  0  0  0  0  0  0  1 V2000
  144.4106  137.5353  156.3239 C   0  0  0  0  0  0  0  0  0  0  0  0
  145.0387  137.7577  154.9568 C   0  0  0  0  0  0  0  0  0  0  0  0
  144.7217  136.9928  153.8862 C   0  0  0  0  0  0  0  0  0  0  0  0
  145.2709  137.1737  152.6282 N   0  0  0  0  0  0  0  0  0  0  0  0
  144.8860  136.3173  151.4376 C   0  0  2  0  0  0  0  0  0  0  0  0
  143.7573  135.3395  151.8143 C   0  0  0  0  0  0  0  0  0  0  0  0
  144.2847  133.9981  151.3379 C   0  0  1  0  0  0  0  0  0  0  0  0
  143.8496  133.7316  150.0176 O   0  0  0  0  0  0  0  0  0  0  0  0
  145.8021  134.1960  151.4179 C   0  0  1  0  0  0  0  0  0  0  0  0
  146.6764  133.2472  150.5791 C   0  0  0  0  0  0  0  0  0  0  0  0
  146.8671  132.0252  151.2602 O   0  0  0  0  0  0  0  0  0  0  0  0
  145.9788  135.5509  151.0190 O   0  0  0  0  0  0  0  0  0  0  0  0
  146.2222  138.1944  152.4259 C   0  0  0  0  0  0  0  0  0  0  0  0
  146.7224  138.3759  151.3130 O   0  0  0  0  0  0  0  0  0  0  0  0
  146.5783  139.0074  153.5246 N   0  0  0  0  0  0  0  0  0  0  0  0
  147.5505  140.1021  153.3055 C   0  0  0  0  0  0  0  0  0  0  0  0
  148.6515  140.1692  154.3765 C   0  0  0  0  0  0  0  0  0  0  0  0
  149.5256  139.3033  154.4220 O   0  0  0  0  0  0  0  0  0  0  0  0
  148.5661  141.2246  155.2079 N   0  0  0  0  0  0  0  0  0  0  0  0
  149.3899  141.5971  156.3079 C   0  0  0  0  0  0  0  0  0  0  0  0
  150.7610  141.2925  156.1997 C   0  0  0  0  0  0  0  0  0  0  0  0
  151.6592  141.6220  157.2327 C   0  0  0  0  0  0  0  0  0  0  0  0
  151.2064  142.2688  158.4082 C   0  0  0  0  0  0  0  0  0  0  0  0
  152.1549  142.6490  159.5611 C   0  0  0  0  0  0  0  0  0  0  0  0
  152.7899  141.3726  160.1510 C   0  0  0  0  0  0  0  0  0  0  0  0
  151.4389  143.3905  160.7125 C   0  0  0  0  0  0  0  0  0  0  0  0
  153.2698  143.5742  159.0310 C   0  0  0  0  0  0  0  0  0  0  0  0
  149.8288  142.5709  158.5111 C   0  0  0  0  0  0  0  0  0  0  0  0
  148.9288  142.2425  157.4798 C   0  0  0  0  0  0  0  0  0  0  0  0
  146.0130  138.8420  154.8124 C   0  0  0  0  0  0  0  0  0  0  0  0
  146.3349  139.5868  155.7403 O   0  0  0  0  0  0  0  0  0  0  0  0
  143.7069  136.7025  156.3182 H   0  0  0  0  0  0  0  0  0  0  0  0
  143.8689  138.4265  156.6432 H   0  0  0  0  0  0  0  0  0  0  0  0
  145.1790  137.3170  157.0663 H   0  0  0  0  0  0  0  0  0  0  0  0
  143.9997  136.2063  154.0414 H   0  0  0  0  0  0  0  0  0  0  0  0
  144.6201  137.0169  150.6432 H   0  0  0  0  0  0  0  0  0  0  0  0
  143.6293  135.3237  152.8979 H   0  0  0  0  0  0  0  0  0  0  0  0
  142.8111  135.6335  151.3584 H   0  0  0  0  0  0  0  0  0  0  0  0
  143.9508  133.1824  151.9800 H   0  0  0  0  0  0  0  0  0  0  0  0
  143.0140  134.1526  149.8858 H   0  0  0  0  0  0  0  0  0  0  0  0
  146.1046  134.1230  152.4640 H   0  0  0  0  0  0  0  0  0  0  0  0
  146.2414  133.0587  149.5976 H   0  0  0  0  0  0  0  0  0  0  0  0
  147.6543  133.6984  150.4100 H   0  0  0  0  0  0  0  0  0  0  0  0
  147.4126  131.4666  150.7274 H   0  0  0  0  0  0  0  0  0  0  0  0
  148.0294  140.0191  152.3286 H   0  0  0  0  0  0  0  0  0  0  0  0
  147.0396  141.0659  153.2658 H   0  0  0  0  0  0  0  0  0  0  0  0
  147.7918  141.8480  155.0310 H   0  0  0  0  0  0  0  0  0  0  0  0
  151.1357  140.8000  155.3142 H   0  0  0  0  0  0  0  0  0  0  0  0
  152.6971  141.3642  157.0922 H   0  0  0  0  0  0  0  0  0  0  0  0
  153.4522  141.6079  160.9847 H   0  0  0  0  0  0  0  0  0  0  0  0
  153.3849  140.8313  159.4150 H   0  0  0  0  0  0  0  0  0  0  0  0
  152.0264  140.6882  160.5227 H   0  0  0  0  0  0  0  0  0  0  0  0
  150.6536  142.7796  161.1596 H   0  0  0  0  0  0  0  0  0  0  0  0
  150.9906  144.3254  160.3737 H   0  0  0  0  0  0  0  0  0  0  0  0
  152.1365  143.6444  161.5114 H   0  0  0  0  0  0  0  0  0  0  0  0
  153.9454  143.8796  159.8308 H   0  0  0  0  0  0  0  0  0  0  0  0
  152.8533  144.4810  158.5907 H   0  0  0  0  0  0  0  0  0  0  0  0
  153.8790  143.0893  158.2681 H   0  0  0  0  0  0  0  0  0  0  0  0
  149.4436  143.0635  159.3912 H   0  0  0  0  0  0  0  0  0  0  0  0
  147.8934  142.5025  157.6249 H   0  0  0  0  0  0  0  0  0  0  0  0
  1  2  1  0  0  0  0
  1 32  1  0  0  0  0
  1 33  1  0  0  0  0
  1 34  1  0  0  0  0
  2 30  1  0  0  0  0
  2  3  2  0  0  0  0
  3  4  1  0  0  0  0
  3 35  1  0  0  0  0
  4  5  1  0  0  0  0
  4 13  1  0  0  0  0
  5 12  1  0  0  0  0
  5  6  1  0  0  0  0
  5 36  1  0  0  0  0
  6  7  1  0  0  0  0
  6 37  1  0  0  0  0
  6 38  1  0  0  0  0
  7  8  1  0  0  0  0
  7  9  1  0  0  0  0
  7 39  1  0  0  0  0
  8 40  1  0  0  0  0
  9 10  1  0  0  0  0
  9 12  1  0  0  0  0
  9 41  1  0  0  0  0
 10 11  1  0  0  0  0
 10 42  1  0  0  0  0
 10 43  1  0  0  0  0
 11 44  1  0  0  0  0
 13 14  2  0  0  0  0
 13 15  1  0  0  0  0
 15 16  1  0  0  0  0
 15 30  1  0  0  0  0
 16 17  1  0  0  0  0
 16 45  1  0  0  0  0
 16 46  1  0  0  0  0
 17 18  2  0  0  0  0
 17 19  1  0  0  0  0
 19 20  1  0  0  0  0
 19 47  1  0  0  0  0
 20 29  1  0  0  0  0
 20 21  2  0  0  0  0
 21 22  1  0  0  0  0
 21 48  1  0  0  0  0
 22 23  2  0  0  0  0
 22 49  1  0  0  0  0
 23 24  1  0  0  0  0
 23 28  1  0  0  0  0
 24 25  1  0  0  0  0
 24 26  1  0  0  0  0
 24 27  1  0  0  0  0
 25 50  1  0  0  0  0
 25 51  1  0  0  0  0
 25 52  1  0  0  0  0
 26 53  1  0  0  0  0
 26 54  1  0  0  0  0
 26 55  1  0  0  0  0
 27 56  1  0  0  0  0
 27 57  1  0  0  0  0
 27 58  1  0  0  0  0
 28 29  2  0  0  0  0
 28 59  1  0  0  0  0
 29 60  1  0  0  0  0
 30 31  2  0  0  0  0
M  END
> <s_m_source_file>
AV-unprocessed.smi

> <i_m_source_file_index>
284

> <i_lp_mmshare_version>
43012

> <i_f3d_flags>
0

> <s_epik_input>
W09IXVtDSDJdW0NAQEhdKE8xKVtDQEhdKFtPSF0pW0NIMl1bQ0BIXTFuKFtjSF1jMltDSDNdKWMoPU8pbihjMj1PKVtDSDJdQyg9TylbTkhdYzNbY0hdW2NIXWMoQyhbQ0gzXSkoW0NIM10pW0NIM10pW2NIXVtjSF0z

> <s_epik_cmdline>
J2VwaWtfcHl0aG9uJywgJy1waCcsICc3LjAnLCAnLXRuJywgJzgnLCAnLW1hJywgJzIwMCcsICctbWV0YWxfYmluZGluZycsICctaW1hZScsICc8aW5maWxlLm1hZT4nLCAnLW9tYWUnLCAnPG91dGZpbGUubWFlPic=

> <r_lp_tautomer_probability>
1

> <r_epik_Ionization_Penalty>
4.92358e-06

> <r_epik_Ionization_Penalty_Charging>
1.29777e-07

> <r_epik_Ionization_Penalty_Neutral>
4.79381e-06

> <r_epik_State_Penalty>
-0

> <r_epik_Charging_Adjusted_Penalty>
1.29777e-07

> <i_epik_Tot_Q>
0

> <i_epik_Tot_abs_Q>
0

> <r_epik_Metal_State_Penalty>
-0

> <b_epik_Metal_Only>
0

> <s_epik_Chemistry_Notes>
This compound contains an acetal/aminal-like group ( X-CH(R)-Y where X, Y are N, S, or O) that may be acid/base labile, releasing an aldehyde.

> <s_lp_Force_Field>
OPLS_2005

> <r_lp_Energy>
42.5826

> <b_lp_Chiralities_Consistent>
1

> <s_lp_Variant>
AV-unprocessed.smi:284-1

> <Gold.Version>
5.8.1

> <Gold.Id.Protein>
6NUR|6NUR_protein|mol2

> <Gold.PLP.Fitness>
50.2404

> <Gold.PLP.PLP>
-42.7620

> <Gold.PLP.part.hbond>
-3.0000

> <Gold.PLP.part.metal>
0.0000

> <Gold.PLP.part.buried>
-3.8284

> <Gold.PLP.part.nonpolar>
-38.4504

> <Gold.PLP.part.repulsive>
1.3248

> <Gold.PLP.ligand.clash>
0.0000

> <Gold.PLP.ligand.torsion>
0.7660

> <Gold.PLP.Chemscore.Hbond>
2.9920

> <Gold.PLP.Chemscore.CHOScore>
0.0000

> <Gold.PLP.Chemscore.Metal>
0.0000

> <Gold.Chemscore.Hbonds>
donor molecule, donor type, donor heavy atom, donor atom, acceptor molecule, acceptor atom, score
      L1  H     8    40       P1 10186  0.96
      L1  H    11    44       P1 10747  1.00
      P1  H  7954  7966       L1    14  0.86

> <Gold.PLP.Chemscore.Internal.Correction>
0.0344

> <Gold.Rescore>
     Score         DG    S(hbond)    S(metal)    S(lipo)     H(rot)  DE(clash)    DE(int)     intcor
     11.95     -18.55       2.52        0.00     111.47       3.27       0.46       6.15       ----

> <Gold.Chemscore.Fitness>
11.9468

> <Gold.Chemscore.DG>
-18.5528

> <Gold.Chemscore.ZeroCoef>
-5.4800

> <Gold.Chemscore.Hbond>
2.5183

> <Gold.Chemscore.Metal>
0.0000

> <Gold.Chemscore.Lipo>
111.4685

> <Gold.Chemscore.Internal_Hbond>
0.0000

> <Gold.Chemscore.DEClash>
0.4574

> <Gold.Chemscore.DEInternal>
6.1487

> <Gold.Chemscore.Rot>
3.2735

> <Gold.Chemscore.Internal.Correction>
   9.000000E+99

> <Gold.Chemscore.Hbonds>
donor molecule, donor type, donor heavy atom, donor atom, acceptor molecule, acceptor atom, score
      L1  H     8    40       P1 10186  0.89
      L1  H    11    44       P1 10747  0.95
      P1  H  7954  7966       L1    14  0.83

> <Gold.Chemscore.Hbond.Weighted>
-8.4111

> <Gold.Chemscore.Metal.Weighted>
-0.0000

> <Gold.Chemscore.Lipo.Weighted>
-13.0418

> <Gold.Chemscore.Internal_Hbond.Weighted>
0.0000

> <Gold.Chemscore.DEClash.Weighted>
0.4574

> <Gold.Chemscore.DEInternal.Weighted>
6.1487

> <Gold.Chemscore.Rot.Weighted>
8.3801

> <Gold.Chemscore.Internal.Correction.Weighted>
   9.000000E+99

> <Gold.Protein.RotatedTorsions>
[ 6907 6896 6895 6894 ] final   21.49 input  -60.11 | X-H torsion
[ 7974 7965 7964 7962 ] final  150.47 input  175.53 | X-H torsion
[ 8008 7997 7996 7995 ] final -114.31 input   59.86 | X-H torsion
[ 10167 10162 10161 10158 ] final -145.82 input  -65.29 | X-H torsion
[ 10718 10713 10712 10709 ] final   -9.79 input   66.30 | X-H torsion
[ 10763 10752 10751 10750 ] final  169.66 input  -60.55 | X-H torsion
[ 11005 11000 10999 10996 ] final  -81.33 input  -57.11 | X-H torsion

> <Gold.Protein.ActiveResidues>
 VAL166  LYS551  ARG553  GLY616  TRP617  ASP618  TYR619  PRO620  LYS621  CYS622 
 ASP623  PHE694  ASN695  SER759  ASP760  ASP761  ALA762  ILE779  LEU786  VAL792 
 PHE793  MET794  SER795  GLU796  ALA797  LYS798  CYS799  TRP800  GLU811  SER814 

> <Gold.Protein.RotatedAtoms>
  151.9126  135.0332  160.0515 H   0  0  0  0  0  0  0  0  0  0  0  0  # atno 6907 bound_to 6896
  152.2266  133.5021  159.5201 H   0  0  0  0  0  0  0  0  0  0  0  0  # atno 6908 bound_to 6896
  150.7014  134.1188  159.4070 H   0  0  0  0  0  0  0  0  0  0  0  0  # atno 6909 bound_to 6896
  144.8362  139.6413  143.6037 H   0  0  0  0  0  0  0  0  0  0  0  0  # atno 7974 bound_to 7965
  155.0344  140.0393  157.2486 H   0  0  0  0  0  0  0  0  0  0  0  0  # atno 8008 bound_to 7997
  154.7269  140.2723  155.6467 H   0  0  0  0  0  0  0  0  0  0  0  0  # atno 8009 bound_to 7997
  156.2831  140.2692  156.1958 H   0  0  0  0  0  0  0  0  0  0  0  0  # atno 8010 bound_to 7997
  139.7770  143.8155  152.2633 H   0  0  0  0  0  0  0  0  0  0  0  0  # atno 10167 bound_to 10162
  156.6829  130.5042  149.5966 H   0  0  0  0  0  0  0  0  0  0  0  0  # atno 10718 bound_to 10713
  154.3864  135.2753  155.2181 H   0  0  0  0  0  0  0  0  0  0  0  0  # atno 10763 bound_to 10752
  154.4266  135.5987  153.6046 H   0  0  0  0  0  0  0  0  0  0  0  0  # atno 10764 bound_to 10752
  152.9833  135.5985  154.4113 H   0  0  0  0  0  0  0  0  0  0  0  0  # atno 10765 bound_to 10752
  141.1666  133.7191  156.8407 H   0  0  0  0  0  0  0  0  0  0  0  0  # atno 11005 bound_to 11000
  146.2660  139.6521  142.9329 LP  0  0  0  0  0  0  0  0  0  0  0  0  # atno 17320 bound_to 7965
  145.4790  141.0437  143.2656 LP  0  0  0  0  0  0  0  0  0  0  0  0  # atno 17321 bound_to 7965
  139.8207  144.7297  150.9577 LP  0  0  0  0  0  0  0  0  0  0  0  0  # atno 17342 bound_to 10162
  140.7817  143.4162  151.0914 LP  0  0  0  0  0  0  0  0  0  0  0  0  # atno 17343 bound_to 10162
  156.1854  130.6526  151.1001 LP  0  0  0  0  0  0  0  0  0  0  0  0  # atno 17370 bound_to 10713
  157.7037  131.0765  150.6737 LP  0  0  0  0  0  0  0  0  0  0  0  0  # atno 17371 bound_to 10713
  140.1985  134.8914  157.3142 LP  0  0  0  0  0  0  0  0  0  0  0  0  # atno 17394 bound_to 11000
  140.2213  134.4020  155.7565 LP  0  0  0  0  0  0  0  0  0  0  0  0  # atno 17395 bound_to 11000

$$$$
