AV-unprocessed.smi:2961|AV-procd|sdf|11314|dock1
  -GOLD-   2272016213D 1   1.00000     0.00000
 Structure written by MMmdl.
 49 51  0  0  0  0  0  0  0  0  2 V2000
  146.8581  141.6977  153.9383 C   0  0  0  0  0  0  0  0  0  0  0  0
  147.1284  140.2494  153.5457 C   0  0  0  0  0  0  0  0  0  0  0  0
  148.1498  139.6838  153.9335 O   0  0  0  0  0  0  0  0  0  0  0  0
  146.1977  139.6575  152.7828 N   0  0  0  0  0  0  0  0  0  0  0  0
  146.2624  138.2838  152.2908 C   0  0  0  0  0  0  0  0  0  0  0  0
  145.2744  137.3322  152.9968 C   0  0  0  0  0  0  0  0  0  0  0  0
  145.1972  135.9822  152.3550 C   0  0  0  0  0  0  0  0  0  0  0  0
  146.2520  135.2772  151.8561 N   0  3  0  0  0  0  0  0  0  0  0  0
  145.8061  134.0602  151.3403 C   0  0  0  0  0  0  0  0  0  0  0  0
  146.5014  133.0201  150.7312 C   0  0  0  0  0  0  0  0  0  0  0  0
  145.7388  131.9120  150.3075 C   0  0  0  0  0  0  0  0  0  0  0  0
  144.3420  131.8671  150.4955 C   0  0  0  0  0  0  0  0  0  0  0  0
  143.6491  132.9263  151.1179 C   0  0  0  0  0  0  0  0  0  0  0  0
  144.4102  134.0185  151.5347 C   0  0  0  0  0  0  0  0  0  0  0  0
  144.0792  135.2232  152.1680 N   0  0  0  0  0  0  0  0  0  0  0  0
  142.6753  135.5022  152.5077 C   0  0  0  0  0  0  0  0  0  0  0  0
  142.3873  135.2960  154.0016 C   0  0  0  0  0  0  0  0  0  0  0  0
  140.9822  135.2742  154.2144 O   0  0  0  0  0  0  0  0  0  0  0  0
  140.2699  136.4355  154.0107 C   0  0  0  0  0  0  0  0  0  0  0  0
  140.8339  137.6428  153.5269 C   0  0  0  0  0  0  0  0  0  0  0  0
  140.0266  138.7825  153.3461 C   0  0  0  0  0  0  0  0  0  0  0  0
  138.6528  138.7317  153.6463 C   0  0  0  0  0  0  0  0  0  0  0  0
  138.0820  137.5387  154.1309 C   0  0  0  0  0  0  0  0  0  0  0  0
  136.6025  137.4842  154.4516 C   0  0  0  0  0  0  0  0  0  0  0  0
  138.8925  136.3988  154.3100 C   0  0  0  0  0  0  0  0  0  0  0  0
  146.5689  142.2856  153.0663 H   0  0  0  0  0  0  0  0  0  0  0  0
  147.7474  142.1527  154.3758 H   0  0  0  0  0  0  0  0  0  0  0  0
  146.0524  141.7465  154.6714 H   0  0  0  0  0  0  0  0  0  0  0  0
  145.3926  140.2027  152.5094 H   0  0  0  0  0  0  0  0  0  0  0  0
  146.0409  138.3134  151.2240 H   0  0  0  0  0  0  0  0  0  0  0  0
  147.2811  137.9034  152.3798 H   0  0  0  0  0  0  0  0  0  0  0  0
  145.5592  137.2132  154.0424 H   0  0  0  0  0  0  0  0  0  0  0  0
  144.2762  137.7711  153.0045 H   0  0  0  0  0  0  0  0  0  0  0  0
  147.5710  133.0537  150.5838 H   0  0  0  0  0  0  0  0  0  0  0  0
  146.2341  131.0812  149.8263 H   0  0  0  0  0  0  0  0  0  0  0  0
  143.7901  131.0032  150.1546 H   0  0  0  0  0  0  0  0  0  0  0  0
  142.5784  132.8830  151.2516 H   0  0  0  0  0  0  0  0  0  0  0  0
  142.4242  136.5161  152.1959 H   0  0  0  0  0  0  0  0  0  0  0  0
  142.0489  134.8368  151.9142 H   0  0  0  0  0  0  0  0  0  0  0  0
  142.8325  134.3570  154.3332 H   0  0  0  0  0  0  0  0  0  0  0  0
  142.8434  136.1064  154.5725 H   0  0  0  0  0  0  0  0  0  0  0  0
  141.8835  137.7211  153.2879 H   0  0  0  0  0  0  0  0  0  0  0  0
  140.4633  139.6984  152.9760 H   0  0  0  0  0  0  0  0  0  0  0  0
  138.0396  139.6098  153.5044 H   0  0  0  0  0  0  0  0  0  0  0  0
  136.3616  136.6120  155.0603 H   0  0  0  0  0  0  0  0  0  0  0  0
  136.0202  137.4315  153.5316 H   0  0  0  0  0  0  0  0  0  0  0  0
  136.2972  138.3751  155.0012 H   0  0  0  0  0  0  0  0  0  0  0  0
  138.4564  135.4821  154.6794 H   0  0  0  0  0  0  0  0  0  0  0  0
  147.2076  135.6101  151.8675 H   0  0  0  0  0  0  0  0  0  0  0  0
  1  2  1  0  0  0  0
  1 26  1  0  0  0  0
  1 27  1  0  0  0  0
  1 28  1  0  0  0  0
  2  3  2  0  0  0  0
  2  4  1  0  0  0  0
  4  5  1  0  0  0  0
  4 29  1  0  0  0  0
  5  6  1  0  0  0  0
  5 30  1  0  0  0  0
  5 31  1  0  0  0  0
  6  7  1  0  0  0  0
  6 32  1  0  0  0  0
  6 33  1  0  0  0  0
  7 15  1  0  0  0  0
  7  8  2  0  0  0  0
  8  9  1  0  0  0  0
  8 49  1  0  0  0  0
  9 14  2  0  0  0  0
  9 10  1  0  0  0  0
 10 11  2  0  0  0  0
 10 34  1  0  0  0  0
 11 12  1  0  0  0  0
 11 35  1  0  0  0  0
 12 13  2  0  0  0  0
 12 36  1  0  0  0  0
 13 14  1  0  0  0  0
 13 37  1  0  0  0  0
 14 15  1  0  0  0  0
 15 16  1  0  0  0  0
 16 17  1  0  0  0  0
 16 38  1  0  0  0  0
 16 39  1  0  0  0  0
 17 18  1  0  0  0  0
 17 40  1  0  0  0  0
 17 41  1  0  0  0  0
 18 19  1  0  0  0  0
 19 25  1  0  0  0  0
 19 20  2  0  0  0  0
 20 21  1  0  0  0  0
 20 42  1  0  0  0  0
 21 22  2  0  0  0  0
 21 43  1  0  0  0  0
 22 23  1  0  0  0  0
 22 44  1  0  0  0  0
 23 24  1  0  0  0  0
 23 25  2  0  0  0  0
 24 45  1  0  0  0  0
 24 46  1  0  0  0  0
 24 47  1  0  0  0  0
 25 48  1  0  0  0  0
M  CHG  1   8   1
M  END
> <s_m_source_file>
AV-unprocessed.smi

> <i_m_source_file_index>
2961

> <i_lp_mmshare_version>
43012

> <i_f3d_flags>
0

> <s_epik_input>
W0NIM11DKD1PKVtOSF1bQ0gyXVtDSDJdYyhuMSluKGMoYzEyKVtjSF1bY0hdW2NIXVtjSF0yKVtDSDJdW0NIMl1PYzNbY0hdW2NIXVtjSF1jKFtDSDNdKVtjSF0z

> <s_epik_cmdline>
J2VwaWtfcHl0aG9uJywgJy1waCcsICc3LjAnLCAnLXRuJywgJzgnLCAnLW1hJywgJzIwMCcsICctbWV0YWxfYmluZGluZycsICctaW1hZScsICc8aW5maWxlLm1hZT4nLCAnLW9tYWUnLCAnPG91dGZpbGUubWFlPic=

> <r_lp_tautomer_probability>
1

> <r_epik_Ionization_Penalty>
1.11168

> <r_epik_Ionization_Penalty_Charging>
1.11168

> <r_epik_Ionization_Penalty_Neutral>
3.05925e-07

> <r_epik_State_Penalty>
1.16973

> <r_epik_Charging_Adjusted_Penalty>
2.28141

> <i_epik_Tot_Q>
1

> <i_epik_Tot_abs_Q>
1

> <r_epik_Metal_State_Penalty>
1.2554

> <b_epik_Metal_Only>
0

> <s_lp_Force_Field>
OPLS_2005

> <r_lp_Energy>
19.5135

> <b_lp_Chiralities_Consistent>
1

> <s_lp_Variant>
AV-unprocessed.smi:2961-2

> <Gold.Version>
5.8.1

> <Gold.Id.Protein>
6NUR|6NUR_protein|mol2

> <Gold.PLP.Fitness>
63.6262

> <Gold.PLP.PLP>
-53.0937

> <Gold.PLP.part.hbond>
-3.0000

> <Gold.PLP.part.metal>
0.0000

> <Gold.PLP.part.buried>
-8.2984

> <Gold.PLP.part.nonpolar>
-44.1375

> <Gold.PLP.part.repulsive>
1.1944

> <Gold.PLP.ligand.clash>
0.0000

> <Gold.PLP.ligand.torsion>
0.6808

> <Gold.PLP.Chemscore.Hbond>
3.9040

> <Gold.PLP.Chemscore.CHOScore>
0.0000

> <Gold.PLP.Chemscore.Metal>
0.0000

> <Gold.Chemscore.Hbonds>
donor molecule, donor type, donor heavy atom, donor atom, acceptor molecule, acceptor atom, score
      L1  H     4    29       P1 10175  1.00
      L1  H     8    49       P1  7948  2.00
      P1  H 11000 11005       L1    18  0.98

> <Gold.PLP.Chemscore.Internal.Correction>
0.1821

> <Gold.Rescore>
     Score         DG    S(hbond)    S(metal)    S(lipo)     H(rot)  DE(clash)    DE(int)     intcor
     21.68     -22.32       2.68        0.00     115.25       2.18       0.04       0.60       ----

> <Gold.Chemscore.Fitness>
21.6805

> <Gold.Chemscore.DG>
-22.3233

> <Gold.Chemscore.ZeroCoef>
-5.4800

> <Gold.Chemscore.Hbond>
2.6761

> <Gold.Chemscore.Metal>
0.0000

> <Gold.Chemscore.Lipo>
115.2496

> <Gold.Chemscore.Internal_Hbond>
0.0000

> <Gold.Chemscore.DEClash>
0.0413

> <Gold.Chemscore.DEInternal>
0.6015

> <Gold.Chemscore.Rot>
2.1793

> <Gold.Chemscore.Internal.Correction>
   9.000000E+99

> <Gold.Chemscore.Hbonds>
donor molecule, donor type, donor heavy atom, donor atom, acceptor molecule, acceptor atom, score
      L1  H     4    29       P1 10175  0.82
      L1  H     8    49       P1  7948  1.00
      P1  H 11000 11005       L1    18  0.59

> <Gold.Chemscore.Hbond.Weighted>
-8.9382

> <Gold.Chemscore.Metal.Weighted>
-0.0000

> <Gold.Chemscore.Lipo.Weighted>
-13.4842

> <Gold.Chemscore.Internal_Hbond.Weighted>
0.0000

> <Gold.Chemscore.DEClash.Weighted>
0.0413

> <Gold.Chemscore.DEInternal.Weighted>
0.6015

> <Gold.Chemscore.Rot.Weighted>
5.5791

> <Gold.Chemscore.Internal.Correction.Weighted>
   9.000000E+99

> <Gold.Protein.RotatedTorsions>
[ 6907 6896 6895 6894 ] final  -99.24 input  -60.11 | X-H torsion
[ 7974 7965 7964 7962 ] final  121.62 input  175.53 | X-H torsion
[ 8008 7997 7996 7995 ] final   68.04 input   59.86 | X-H torsion
[ 10167 10162 10161 10158 ] final -134.35 input  -65.29 | X-H torsion
[ 10718 10713 10712 10709 ] final  167.90 input   66.30 | X-H torsion
[ 10763 10752 10751 10750 ] final  -20.61 input  -60.55 | X-H torsion
[ 11005 11000 10999 10996 ] final   36.72 input  -57.11 | X-H torsion

> <Gold.Protein.ActiveResidues>
 VAL166  LYS551  ARG553  GLY616  TRP617  ASP618  TYR619  PRO620  LYS621  CYS622 
 ASP623  PHE694  ASN695  SER759  ASP760  ASP761  ALA762  ILE779  LEU786  VAL792 
 PHE793  MET794  SER795  GLU796  ALA797  LYS798  CYS799  TRP800  GLU811  SER814 

> <Gold.Protein.RotatedAtoms>
  150.7073  134.1070  159.3986 H   0  0  0  0  0  0  0  0  0  0  0  0  # atno 6907 bound_to 6896
  151.9057  135.0357  160.0519 H   0  0  0  0  0  0  0  0  0  0  0  0  # atno 6908 bound_to 6896
  152.2377  133.5074  159.5289 H   0  0  0  0  0  0  0  0  0  0  0  0  # atno 6909 bound_to 6896
  145.1171  139.3413  143.4733 H   0  0  0  0  0  0  0  0  0  0  0  0  # atno 7974 bound_to 7965
  155.7022  140.3495  155.4938 H   0  0  0  0  0  0  0  0  0  0  0  0  # atno 8008 bound_to 7997
  155.9431  140.1105  157.1061 H   0  0  0  0  0  0  0  0  0  0  0  0  # atno 8009 bound_to 7997
  154.4106  140.1209  156.4939 H   0  0  0  0  0  0  0  0  0  0  0  0  # atno 8010 bound_to 7997
  139.8889  143.6747  152.2615 H   0  0  0  0  0  0  0  0  0  0  0  0  # atno 10167 bound_to 10162
  157.0448  131.0297  151.2701 H   0  0  0  0  0  0  0  0  0  0  0  0  # atno 10718 bound_to 10713
  153.6231  135.6992  153.5303 H   0  0  0  0  0  0  0  0  0  0  0  0  # atno 10763 bound_to 10752
  153.2921  135.4154  155.1176 H   0  0  0  0  0  0  0  0  0  0  0  0  # atno 10764 bound_to 10752
  154.8539  135.3628  154.5772 H   0  0  0  0  0  0  0  0  0  0  0  0  # atno 10765 bound_to 10752
  140.2297  134.3542  155.7969 H   0  0  0  0  0  0  0  0  0  0  0  0  # atno 11005 bound_to 11000
  146.3523  140.1115  142.8603 LP  0  0  0  0  0  0  0  0  0  0  0  0  # atno 17320 bound_to 7965
  145.0781  140.9202  143.4841 LP  0  0  0  0  0  0  0  0  0  0  0  0  # atno 17321 bound_to 7965
  139.7128  144.7617  151.1084 LP  0  0  0  0  0  0  0  0  0  0  0  0  # atno 17342 bound_to 10162
  140.7730  143.5309  150.9425 LP  0  0  0  0  0  0  0  0  0  0  0  0  # atno 17343 bound_to 10162
  157.5076  130.7919  149.7671 LP  0  0  0  0  0  0  0  0  0  0  0  0  # atno 17370 bound_to 10713
  156.0026  130.3872  150.2547 LP  0  0  0  0  0  0  0  0  0  0  0  0  # atno 17371 bound_to 10713
  141.2218  133.7239  156.8712 LP  0  0  0  0  0  0  0  0  0  0  0  0  # atno 17394 bound_to 11000
  140.1763  134.9065  157.2894 LP  0  0  0  0  0  0  0  0  0  0  0  0  # atno 17395 bound_to 11000

$$$$
