AV-unprocessed.smi:2018|AV-procd|sdf|8170|dock8
  -GOLD-   2272010423D 1   1.00000     0.00000
 Structure written by MMmdl.
 34 35  0  0  0  0  0  0  0  0  2 V2000
  153.1456  142.9109  161.1265 C   0  0  0  0  0  0  0  0  0  0  0  0
  152.5097  143.1072  159.7933 C   0  0  0  0  0  0  0  0  0  0  0  0
  152.1245  142.1012  159.0063 N   0  0  0  0  0  0  0  0  0  0  0  0
  151.5267  142.5375  157.8155 C   0  0  0  0  0  0  0  0  0  0  0  0
  151.0043  141.5363  156.8132 C   0  0  0  0  0  0  0  0  0  0  0  0
  149.4719  141.5600  156.6078 C   0  0  0  0  0  0  0  0  0  0  0  0
  149.0717  140.5229  155.6567 N   0  5  0  0  0  0  0  0  0  0  0  0
  149.8945  139.5671  155.1331 C   0  0  0  0  0  0  0  0  0  0  0  0
  150.6599  139.7079  154.1716 O   0  0  0  0  0  0  0  0  0  0  0  0
  149.8826  138.2065  155.7469 C   0  0  0  0  0  0  0  0  0  0  0  0
  149.4405  138.0550  156.9566 N   0  0  0  0  0  0  0  0  0  0  0  0
  149.3650  136.8220  157.5687 N   0  0  0  0  0  0  0  0  0  0  0  0
  148.5727  136.8302  158.7982 C   0  0  0  0  0  0  0  0  0  0  0  0
  149.9704  135.6982  157.1065 C   0  0  0  0  0  0  0  0  0  0  0  0
  149.8831  134.5945  157.6449 O   0  0  0  0  0  0  0  0  0  0  0  0
  150.8313  135.8562  155.8498 C   0  0  0  0  0  0  0  0  0  0  0  0
  150.3399  137.0028  154.9444 C   0  0  0  0  0  0  0  0  0  0  0  0
  151.5023  143.9075  157.7033 C   0  0  0  0  0  0  0  0  0  0  0  0
  152.1912  144.6912  159.0990 S   0  0  0  0  0  0  0  0  0  0  0  0
  153.2078  141.8495  161.3699 H   0  0  0  0  0  0  0  0  0  0  0  0
  152.5570  143.4104  161.8960 H   0  0  0  0  0  0  0  0  0  0  0  0
  154.1518  143.3298  161.1245 H   0  0  0  0  0  0  0  0  0  0  0  0
  151.4813  141.7142  155.8489 H   0  0  0  0  0  0  0  0  0  0  0  0
  151.3111  140.5298  157.1014 H   0  0  0  0  0  0  0  0  0  0  0  0
  148.9860  141.4415  157.5775 H   0  0  0  0  0  0  0  0  0  0  0  0
  149.1829  142.5495  156.2520 H   0  0  0  0  0  0  0  0  0  0  0  0
  148.5465  135.8694  159.3134 H   0  0  0  0  0  0  0  0  0  0  0  0
  147.5426  137.1114  158.5753 H   0  0  0  0  0  0  0  0  0  0  0  0
  148.9746  137.5641  159.4977 H   0  0  0  0  0  0  0  0  0  0  0  0
  151.8518  136.0591  156.1764 H   0  0  0  0  0  0  0  0  0  0  0  0
  150.8597  134.9189  155.2932 H   0  0  0  0  0  0  0  0  0  0  0  0
  149.5183  136.6569  154.3163 H   0  0  0  0  0  0  0  0  0  0  0  0
  151.1519  137.2747  154.2691 H   0  0  0  0  0  0  0  0  0  0  0  0
  151.1081  144.4998  156.8910 H   0  0  0  0  0  0  0  0  0  0  0  0
  1  2  1  0  0  0  0
  1 20  1  0  0  0  0
  1 21  1  0  0  0  0
  1 22  1  0  0  0  0
  2 19  1  0  0  0  0
  2  3  2  0  0  0  0
  3  4  1  0  0  0  0
  4  5  1  0  0  0  0
  4 18  2  0  0  0  0
  5  6  1  0  0  0  0
  5 23  1  0  0  0  0
  5 24  1  0  0  0  0
  6  7  1  0  0  0  0
  6 25  1  0  0  0  0
  6 26  1  0  0  0  0
  7  8  1  0  0  0  0
  8  9  2  0  0  0  0
  8 10  1  0  0  0  0
 10 17  1  0  0  0  0
 10 11  2  0  0  0  0
 11 12  1  0  0  0  0
 12 13  1  0  0  0  0
 12 14  1  0  0  0  0
 13 27  1  0  0  0  0
 13 28  1  0  0  0  0
 13 29  1  0  0  0  0
 14 15  2  0  0  0  0
 14 16  1  0  0  0  0
 16 17  1  0  0  0  0
 16 30  1  0  0  0  0
 16 31  1  0  0  0  0
 17 32  1  0  0  0  0
 17 33  1  0  0  0  0
 18 19  1  0  0  0  0
 18 34  1  0  0  0  0
M  CHG  1   7  -1
M  END
> <s_m_source_file>
AV-unprocessed.smi

> <i_m_source_file_index>
2018

> <i_lp_mmshare_version>
43012

> <i_f3d_flags>
0

> <s_epik_input>
W0NIM11jMW5jKFtjSF1zMSlbQ0gyXVtDSDJdW05IXUMoPU8pQzI9Tk4oW0NIM10pQyg9TylbQ0gyXVtDSDJdMg==

> <s_epik_cmdline>
J2VwaWtfcHl0aG9uJywgJy1waCcsICc3LjAnLCAnLXRuJywgJzgnLCAnLW1hJywgJzIwMCcsICctbWV0YWxfYmluZGluZycsICctaW1hZScsICc8aW5maWxlLm1hZT4nLCAnLW9tYWUnLCAnPG91dGZpbGUubWFlPic=

> <r_epik_Ionization_Penalty>
5.30398

> <r_epik_Ionization_Penalty_Charging>
5.30014

> <r_epik_Ionization_Penalty_Neutral>
0.0038335

> <r_epik_State_Penalty>
5.30046

> <r_epik_Charging_Adjusted_Penalty>
10.6006

> <i_epik_Tot_Q>
-1

> <i_epik_Tot_abs_Q>
1

> <r_epik_Metal_State_Penalty>
1.34504

> <b_epik_Metal_Only>
1

> <s_epik_Chemistry_Notes>
This compound has an imine and may undergo hydrolysis.

> <s_lp_Force_Field>
OPLS_2005

> <r_lp_Energy>
22.7314

> <b_lp_Chiralities_Consistent>
1

> <s_lp_Variant>
AV-unprocessed.smi:2018-2

> <Gold.Version>
5.8.1

> <Gold.Id.Protein>
6NUR|6NUR_protein|mol2

> <Gold.PLP.Fitness>
39.3109

> <Gold.PLP.PLP>
-32.2756

> <Gold.PLP.part.hbond>
-2.0000

> <Gold.PLP.part.metal>
0.0000

> <Gold.PLP.part.buried>
-5.0177

> <Gold.PLP.part.nonpolar>
-25.6096

> <Gold.PLP.part.repulsive>
0.2231

> <Gold.PLP.ligand.clash>
0.0000

> <Gold.PLP.ligand.torsion>
0.9937

> <Gold.PLP.Chemscore.Hbond>
2.0000

> <Gold.PLP.Chemscore.CHOScore>
1.0000

> <Gold.PLP.Chemscore.Metal>
0.0000

> <Gold.Chemscore.Hbonds>
donor molecule, donor type, donor heavy atom, donor atom, acceptor molecule, acceptor atom, score
      P1  H  6896  6908       L1    15  0.93
      P1  H  7989  7998       L1     9  1.00
      L1  C    18    34       P1  8028  1.00

> <Gold.PLP.Chemscore.Internal.Correction>
0.0227

> <Gold.Rescore>
     Score         DG    S(hbond)    S(metal)    S(lipo)     H(rot)  DE(clash)    DE(int)     intcor
     17.67     -18.64       1.98        0.00      87.04       1.42       0.05       0.93       ----

> <Gold.Chemscore.Fitness>
17.6652

> <Gold.Chemscore.DG>
-18.6384

> <Gold.Chemscore.ZeroCoef>
-5.4800

> <Gold.Chemscore.Hbond>
1.9775

> <Gold.Chemscore.Metal>
0.0000

> <Gold.Chemscore.Lipo>
87.0350

> <Gold.Chemscore.Internal_Hbond>
0.0000

> <Gold.Chemscore.DEClash>
0.0462

> <Gold.Chemscore.DEInternal>
0.9269

> <Gold.Chemscore.Rot>
1.4178

> <Gold.Chemscore.Internal.Correction>
   9.000000E+99

> <Gold.Chemscore.Hbonds>
donor molecule, donor type, donor heavy atom, donor atom, acceptor molecule, acceptor atom, score
      P1  H  6896  6908       L1    15  0.90
      P1  H  7989  7998       L1     9  1.00

> <Gold.Chemscore.Hbond.Weighted>
-6.6048

> <Gold.Chemscore.Metal.Weighted>
-0.0000

> <Gold.Chemscore.Lipo.Weighted>
-10.1831

> <Gold.Chemscore.Internal_Hbond.Weighted>
0.0000

> <Gold.Chemscore.DEClash.Weighted>
0.0462

> <Gold.Chemscore.DEInternal.Weighted>
0.9269

> <Gold.Chemscore.Rot.Weighted>
3.6295

> <Gold.Chemscore.Internal.Correction.Weighted>
   9.000000E+99

> <Gold.Protein.RotatedTorsions>
[ 6907 6896 6895 6894 ] final  144.29 input  -60.11 | X-H torsion
[ 7974 7965 7964 7962 ] final   87.66 input  175.53 | X-H torsion
[ 8008 7997 7996 7995 ] final  169.91 input   59.86 | X-H torsion
[ 10167 10162 10161 10158 ] final   99.00 input  -65.29 | X-H torsion
[ 10718 10713 10712 10709 ] final  115.69 input   66.30 | X-H torsion
[ 10763 10752 10751 10750 ] final -105.56 input  -60.55 | X-H torsion
[ 11005 11000 10999 10996 ] final -167.46 input  -57.11 | X-H torsion

> <Gold.Protein.ActiveResidues>
 VAL166  LYS551  ARG553  GLY616  TRP617  ASP618  TYR619  PRO620  LYS621  CYS622 
 ASP623  PHE694  ASN695  SER759  ASP760  ASP761  ALA762  ILE779  LEU786  VAL792 
 PHE793  MET794  SER795  GLU796  ALA797  LYS798  CYS799  TRP800  GLU811  SER814 

> <Gold.Protein.RotatedAtoms>
  152.1955  133.4803  159.5030 H   0  0  0  0  0  0  0  0  0  0  0  0  # atno 6907 bound_to 6896
  150.6959  134.1658  159.4202 H   0  0  0  0  0  0  0  0  0  0  0  0  # atno 6908 bound_to 6896
  151.9574  135.0140  160.0596 H   0  0  0  0  0  0  0  0  0  0  0  0  # atno 6909 bound_to 6896
  145.5560  139.2299  143.2486 H   0  0  0  0  0  0  0  0  0  0  0  0  # atno 7974 bound_to 7965
  156.1414  140.1552  156.8914 H   0  0  0  0  0  0  0  0  0  0  0  0  # atno 8008 bound_to 7997
  154.4991  140.0830  156.7798 H   0  0  0  0  0  0  0  0  0  0  0  0  # atno 8009 bound_to 7997
  155.4070  140.3417  155.4263 H   0  0  0  0  0  0  0  0  0  0  0  0  # atno 8010 bound_to 7997
  139.7657  144.6939  151.0227 H   0  0  0  0  0  0  0  0  0  0  0  0  # atno 10167 bound_to 10162
  157.6206  131.1016  150.7366 H   0  0  0  0  0  0  0  0  0  0  0  0  # atno 10718 bound_to 10713
  154.7955  135.4744  154.0150 H   0  0  0  0  0  0  0  0  0  0  0  0  # atno 10763 bound_to 10752
  153.1696  135.6823  153.8633 H   0  0  0  0  0  0  0  0  0  0  0  0  # atno 10764 bound_to 10752
  153.8219  135.3203  155.3389 H   0  0  0  0  0  0  0  0  0  0  0  0  # atno 10765 bound_to 10752
  140.5530  134.5409  157.5126 H   0  0  0  0  0  0  0  0  0  0  0  0  # atno 11005 bound_to 11000
  146.1884  140.6384  142.9157 LP  0  0  0  0  0  0  0  0  0  0  0  0  # atno 17320 bound_to 7965
  144.7506  140.5181  143.6804 LP  0  0  0  0  0  0  0  0  0  0  0  0  # atno 17321 bound_to 7965
  140.7810  143.4645  151.0231 LP  0  0  0  0  0  0  0  0  0  0  0  0  # atno 17342 bound_to 10162
  139.8330  143.7665  152.3180 LP  0  0  0  0  0  0  0  0  0  0  0  0  # atno 17343 bound_to 10162
  156.7724  130.4833  149.5416 LP  0  0  0  0  0  0  0  0  0  0  0  0  # atno 17370 bound_to 10713
  156.1350  130.6205  151.0387 LP  0  0  0  0  0  0  0  0  0  0  0  0  # atno 17371 bound_to 10713
  139.9445  134.7726  156.0595 LP  0  0  0  0  0  0  0  0  0  0  0  0  # atno 17394 bound_to 11000
  141.1160  133.6627  156.3095 LP  0  0  0  0  0  0  0  0  0  0  0  0  # atno 17395 bound_to 11000

$$$$
