AV-unprocessed.smi:2453|AV-procd|sdf|9689|dock6
  -GOLD-   2272013323D 1   1.00000     0.00000
 Structure written by MMmdl.
 40 41  0  0  0  0  0  0  0  0  1 V2000
  151.0410  145.2607  158.4784 C   0  0  0  0  0  0  0  0  0  0  0  0
  151.6328  143.9178  158.8693 C   0  0  0  0  0  0  0  0  0  0  0  0
  152.7214  143.8634  159.7666 C   0  0  0  0  0  0  0  0  0  0  0  0
  153.3019  142.7137  160.1672 N   0  0  0  0  0  0  0  0  0  0  0  0
  152.8037  141.5574  159.6838 C   0  0  0  0  0  0  0  0  0  0  0  0
  151.7212  141.4942  158.7850 C   0  0  0  0  0  0  0  0  0  0  0  0
  151.1226  142.7022  158.3511 C   0  0  0  0  0  0  0  0  0  0  0  0
  150.0162  142.7546  157.4555 N   0  0  0  0  0  0  0  0  0  0  0  0
  149.1105  141.8031  157.1693 C   0  0  0  0  0  0  0  0  0  0  0  0
  149.0827  140.6722  157.6538 O   0  0  0  0  0  0  0  0  0  0  0  0
  148.2298  142.2369  156.2562 N   0  0  0  0  0  0  0  0  0  0  0  0
  147.1093  141.4625  155.7187 C   0  0  2  0  0  0  0  0  0  0  0  0
  147.0906  141.5155  154.1752 C   0  0  0  0  0  0  0  0  0  0  0  0
  146.7091  142.9081  153.6463 C   0  0  0  0  0  0  0  0  0  0  0  0
  145.3689  143.3753  154.2316 C   0  0  0  0  0  0  0  0  0  0  0  0
  145.3879  143.3432  155.7681 C   0  0  0  0  0  0  0  0  0  0  0  0
  145.7559  141.9442  156.3075 C   0  0  2  0  0  0  0  0  0  0  0  0
  145.7034  141.9130  157.8498 C   0  0  0  0  0  0  0  0  0  0  0  0
  146.1727  140.6760  158.3439 O   0  0  0  0  0  0  0  0  0  0  0  0
  151.5745  146.0835  158.9549 H   0  0  0  0  0  0  0  0  0  0  0  0
  149.9949  145.3179  158.7806 H   0  0  0  0  0  0  0  0  0  0  0  0
  151.0981  145.4032  157.3989 H   0  0  0  0  0  0  0  0  0  0  0  0
  153.1409  144.7696  160.1785 H   0  0  0  0  0  0  0  0  0  0  0  0
  153.2788  140.6513  160.0296 H   0  0  0  0  0  0  0  0  0  0  0  0
  151.3705  140.5268  158.4614 H   0  0  0  0  0  0  0  0  0  0  0  0
  149.9429  143.6055  156.9175 H   0  0  0  0  0  0  0  0  0  0  0  0
  148.3355  143.1778  155.9063 H   0  0  0  0  0  0  0  0  0  0  0  0
  147.2497  140.4210  156.0133 H   0  0  0  0  0  0  0  0  0  0  0  0
  148.0570  141.2145  153.7692 H   0  0  0  0  0  0  0  0  0  0  0  0
  146.3702  140.7858  153.8035 H   0  0  0  0  0  0  0  0  0  0  0  0
  147.4904  143.6265  153.8978 H   0  0  0  0  0  0  0  0  0  0  0  0
  146.6496  142.8870  152.5579 H   0  0  0  0  0  0  0  0  0  0  0  0
  145.1436  144.3836  153.8833 H   0  0  0  0  0  0  0  0  0  0  0  0
  144.5665  142.7351  153.8626 H   0  0  0  0  0  0  0  0  0  0  0  0
  146.0963  144.0846  156.1398 H   0  0  0  0  0  0  0  0  0  0  0  0
  144.4087  143.6413  156.1445 H   0  0  0  0  0  0  0  0  0  0  0  0
  144.9859  141.2579  155.9507 H   0  0  0  0  0  0  0  0  0  0  0  0
  146.2858  142.7237  158.2880 H   0  0  0  0  0  0  0  0  0  0  0  0
  144.6763  142.0413  158.1928 H   0  0  0  0  0  0  0  0  0  0  0  0
  145.4388  140.1910  158.6893 H   0  0  0  0  0  0  0  0  0  0  0  0
  1  2  1  0  0  0  0
  1 20  1  0  0  0  0
  1 21  1  0  0  0  0
  1 22  1  0  0  0  0
  2  7  1  0  0  0  0
  2  3  2  0  0  0  0
  3  4  1  0  0  0  0
  3 23  1  0  0  0  0
  4  5  2  0  0  0  0
  5  6  1  0  0  0  0
  5 24  1  0  0  0  0
  6  7  2  0  0  0  0
  6 25  1  0  0  0  0
  7  8  1  0  0  0  0
  8  9  1  0  0  0  0
  8 26  1  0  0  0  0
  9 10  2  0  0  0  0
  9 11  1  0  0  0  0
 11 12  1  0  0  0  0
 11 27  1  0  0  0  0
 12 17  1  0  0  0  0
 12 13  1  0  0  0  0
 12 28  1  0  0  0  0
 13 14  1  0  0  0  0
 13 29  1  0  0  0  0
 13 30  1  0  0  0  0
 14 15  1  0  0  0  0
 14 31  1  0  0  0  0
 14 32  1  0  0  0  0
 15 16  1  0  0  0  0
 15 33  1  0  0  0  0
 15 34  1  0  0  0  0
 16 17  1  0  0  0  0
 16 35  1  0  0  0  0
 16 36  1  0  0  0  0
 17 18  1  0  0  0  0
 17 37  1  0  0  0  0
 18 19  1  0  0  0  0
 18 38  1  0  0  0  0
 18 39  1  0  0  0  0
 19 40  1  0  0  0  0
M  END
> <s_m_source_file>
AV-unprocessed.smi

> <i_m_source_file_index>
2453

> <i_lp_mmshare_version>
43012

> <i_f3d_flags>
0

> <s_epik_input>
W0NIM11jMVtjSF1uW2NIXVtjSF1jMVtOSF1DKD1PKVtOSF1bQ0BASF0yW0NIMl1bQ0gyXVtDSDJdW0NIMl1bQ0BIXTJbQ0gyXVtPSF0=

> <s_epik_cmdline>
J2VwaWtfcHl0aG9uJywgJy1waCcsICc3LjAnLCAnLXRuJywgJzgnLCAnLW1hJywgJzIwMCcsICctbWV0YWxfYmluZGluZycsICctaW1hZScsICc8aW5maWxlLm1hZT4nLCAnLW9tYWUnLCAnPG91dGZpbGUubWFlPic=

> <r_epik_Ionization_Penalty>
0.210691

> <r_epik_Ionization_Penalty_Charging>
0

> <r_epik_Ionization_Penalty_Neutral>
0.210691

> <r_epik_State_Penalty>
0.200732

> <r_epik_Charging_Adjusted_Penalty>
0.200732

> <i_epik_Tot_Q>
0

> <i_epik_Tot_abs_Q>
0

> <r_epik_Metal_State_Penalty>
0.147519

> <b_epik_Metal_Only>
0

> <s_lp_Force_Field>
OPLS_2005

> <r_lp_Energy>
18.5766

> <b_lp_Chiralities_Consistent>
1

> <s_lp_Variant>
AV-unprocessed.smi:2453-3

> <Gold.Version>
5.8.1

> <Gold.Id.Protein>
6NUR|6NUR_protein|mol2

> <Gold.PLP.Fitness>
40.8618

> <Gold.PLP.PLP>
-35.4213

> <Gold.PLP.part.hbond>
-3.0000

> <Gold.PLP.part.metal>
0.0000

> <Gold.PLP.part.buried>
-6.4298

> <Gold.PLP.part.nonpolar>
-26.6553

> <Gold.PLP.part.repulsive>
0.0705

> <Gold.PLP.ligand.clash>
0.0000

> <Gold.PLP.ligand.torsion>
0.2893

> <Gold.PLP.Chemscore.Hbond>
2.0000

> <Gold.PLP.Chemscore.CHOScore>
0.0000

> <Gold.PLP.Chemscore.Metal>
0.0000

> <Gold.Chemscore.Hbonds>
donor molecule, donor type, donor heavy atom, donor atom, acceptor molecule, acceptor atom, score
      L1  H     8    26       P1  8028  0.98
      L1  H    11    27       P1  8028  1.00

> <Gold.PLP.Chemscore.Internal.Correction>
0.0191

> <Gold.Rescore>
     Score         DG    S(hbond)    S(metal)    S(lipo)     H(rot)  DE(clash)    DE(int)     intcor
     16.49     -17.90       1.92        0.00      89.68       1.75       0.00       1.41       ----

> <Gold.Chemscore.Fitness>
16.4851

> <Gold.Chemscore.DG>
-17.9041

> <Gold.Chemscore.ZeroCoef>
-5.4800

> <Gold.Chemscore.Hbond>
1.9192

> <Gold.Chemscore.Metal>
0.0000

> <Gold.Chemscore.Lipo>
89.6765

> <Gold.Chemscore.Internal_Hbond>
0.0000

> <Gold.Chemscore.DEClash>
0.0043

> <Gold.Chemscore.DEInternal>
1.4147

> <Gold.Chemscore.Rot>
1.7493

> <Gold.Chemscore.Internal.Correction>
   9.000000E+99

> <Gold.Chemscore.Hbonds>
donor molecule, donor type, donor heavy atom, donor atom, acceptor molecule, acceptor atom, score
      L1  H     8    26       P1  8028  0.91
      L1  H    11    27       P1  8028  0.88

> <Gold.Chemscore.Hbond.Weighted>
-6.4101

> <Gold.Chemscore.Metal.Weighted>
-0.0000

> <Gold.Chemscore.Lipo.Weighted>
-10.4921

> <Gold.Chemscore.Internal_Hbond.Weighted>
0.0000

> <Gold.Chemscore.DEClash.Weighted>
0.0043

> <Gold.Chemscore.DEInternal.Weighted>
1.4147

> <Gold.Chemscore.Rot.Weighted>
4.4782

> <Gold.Chemscore.Internal.Correction.Weighted>
   9.000000E+99

> <Gold.Protein.RotatedTorsions>
[ 6907 6896 6895 6894 ] final  100.34 input  -60.11 | X-H torsion
[ 7974 7965 7964 7962 ] final -126.87 input  175.53 | X-H torsion
[ 8008 7997 7996 7995 ] final -121.31 input   59.86 | X-H torsion
[ 10167 10162 10161 10158 ] final -169.42 input  -65.29 | X-H torsion
[ 10718 10713 10712 10709 ] final   18.04 input   66.30 | X-H torsion
[ 10763 10752 10751 10750 ] final -148.33 input  -60.55 | X-H torsion
[ 11005 11000 10999 10996 ] final  102.79 input  -57.11 | X-H torsion

> <Gold.Protein.ActiveResidues>
 VAL166  LYS551  ARG553  GLY616  TRP617  ASP618  TYR619  PRO620  LYS621  CYS622 
 ASP623  PHE694  ASN695  SER759  ASP760  ASP761  ALA762  ILE779  LEU786  VAL792 
 PHE793  MET794  SER795  GLU796  ALA797  LYS798  CYS799  TRP800  GLU811  SER814 

> <Gold.Protein.RotatedAtoms>
  152.5374  134.0292  159.8016 H   0  0  0  0  0  0  0  0  0  0  0  0  # atno 6907 bound_to 6896
  151.0466  133.5652  159.2653 H   0  0  0  0  0  0  0  0  0  0  0  0  # atno 6908 bound_to 6896
  151.2602  135.0659  159.9149 H   0  0  0  0  0  0  0  0  0  0  0  0  # atno 6909 bound_to 6896
  144.9829  140.7657  143.4601 H   0  0  0  0  0  0  0  0  0  0  0  0  # atno 7974 bound_to 7965
  155.1459  140.0403  157.2809 H   0  0  0  0  0  0  0  0  0  0  0  0  # atno 8008 bound_to 7997
  154.6439  140.2553  155.7264 H   0  0  0  0  0  0  0  0  0  0  0  0  # atno 8009 bound_to 7997
  156.2546  140.2850  156.0844 H   0  0  0  0  0  0  0  0  0  0  0  0  # atno 8010 bound_to 7997
  139.5924  144.1185  152.1650 H   0  0  0  0  0  0  0  0  0  0  0  0  # atno 10167 bound_to 10162
  157.0907  130.6426  149.5848 H   0  0  0  0  0  0  0  0  0  0  0  0  # atno 10718 bound_to 10713
  154.8238  135.3337  154.6957 H   0  0  0  0  0  0  0  0  0  0  0  0  # atno 10763 bound_to 10752
  153.7586  135.6934  153.4935 H   0  0  0  0  0  0  0  0  0  0  0  0  # atno 10764 bound_to 10752
  153.2126  135.4477  155.0347 H   0  0  0  0  0  0  0  0  0  0  0  0  # atno 10765 bound_to 10752
  139.8779  134.9238  156.5111 H   0  0  0  0  0  0  0  0  0  0  0  0  # atno 11005 bound_to 11000
  145.2396  139.2078  143.5000 LP  0  0  0  0  0  0  0  0  0  0  0  0  # atno 17320 bound_to 7965
  146.3412  140.2288  142.8593 LP  0  0  0  0  0  0  0  0  0  0  0  0  # atno 17321 bound_to 7965
  140.0762  144.5738  150.7155 LP  0  0  0  0  0  0  0  0  0  0  0  0  # atno 17342 bound_to 10162
  140.7184  143.2565  151.4359 LP  0  0  0  0  0  0  0  0  0  0  0  0  # atno 17343 bound_to 10162
  155.9899  130.4948  150.7233 LP  0  0  0  0  0  0  0  0  0  0  0  0  # atno 17370 bound_to 10713
  157.4724  131.0894  151.0628 LP  0  0  0  0  0  0  0  0  0  0  0  0  # atno 17371 bound_to 10713
  140.8519  133.8125  155.9177 LP  0  0  0  0  0  0  0  0  0  0  0  0  # atno 17394 bound_to 11000
  140.9135  134.2230  157.4971 LP  0  0  0  0  0  0  0  0  0  0  0  0  # atno 17395 bound_to 11000

$$$$
