AV-unprocessed.smi:2061|AV-procd|sdf|8362|dock10
  -GOLD-   2272011 33D 1   1.00000     0.00000
 Structure written by MMmdl.
 45 46  0  0  0  0  0  0  0  0  1 V2000
  138.4934  136.3587  153.4339 C   0  0  0  0  0  0  0  0  0  0  0  0
  139.9735  136.5308  153.4753 C   0  0  0  0  0  0  0  0  0  0  0  0
  140.8174  137.4594  152.9338 C   0  0  0  0  0  0  0  0  0  0  0  0
  142.0974  137.0171  153.3623 C   0  0  0  0  0  0  0  0  0  0  0  0
  143.2723  137.7241  152.9992 N   0  0  0  0  0  0  0  0  0  0  0  0
  144.5373  137.4488  153.3594 C   0  0  0  0  0  0  0  0  0  0  0  0
  144.8800  136.5155  154.0859 O   0  0  0  0  0  0  0  0  0  0  0  0
  145.3970  138.3286  152.8262 N   0  0  0  0  0  0  0  0  0  0  0  0
  146.8459  138.3297  153.0209 C   0  0  0  0  0  0  0  0  0  0  0  0
  147.3167  139.4534  153.9821 C   0  0  2  0  0  0  0  0  0  0  0  0
  147.2020  140.8074  153.2457 C   0  0  0  0  0  0  0  0  0  0  0  0
  148.6497  139.2172  154.5796 N   0  0  0  0  0  0  0  0  0  0  0  0
  149.1580  140.3863  155.3003 C   0  0  0  0  0  0  0  0  0  0  0  0
  150.5304  140.1304  155.9488 C   0  0  2  0  0  0  0  0  0  0  0  0
  151.0886  141.3842  156.6300 C   0  0  0  0  0  0  0  0  0  0  0  0
  151.4593  139.7214  154.9497 O   0  0  0  0  0  0  0  0  0  0  0  0
  151.0524  138.5927  154.1784 C   0  0  1  0  0  0  0  0  0  0  0  0
  151.1640  137.2823  154.9766 C   0  0  0  0  0  0  0  0  0  0  0  0
  149.6503  138.8274  153.5819 C   0  0  0  0  0  0  0  0  0  0  0  0
  142.0394  135.9196  154.1010 N   0  0  0  0  0  0  0  0  0  0  0  0
  140.6782  135.6020  154.1765 O   0  0  0  0  0  0  0  0  0  0  0  0
  137.9969  137.3069  153.2267 H   0  0  0  0  0  0  0  0  0  0  0  0
  138.1179  135.9832  154.3860 H   0  0  0  0  0  0  0  0  0  0  0  0
  138.2102  135.6505  152.6551 H   0  0  0  0  0  0  0  0  0  0  0  0
  140.5580  138.3140  152.3268 H   0  0  0  0  0  0  0  0  0  0  0  0
  143.1351  138.5221  152.3969 H   0  0  0  0  0  0  0  0  0  0  0  0
  145.0218  139.0681  152.2506 H   0  0  0  0  0  0  0  0  0  0  0  0
  147.1871  137.3581  153.3823 H   0  0  0  0  0  0  0  0  0  0  0  0
  147.3183  138.4326  152.0447 H   0  0  0  0  0  0  0  0  0  0  0  0
  146.5875  139.4847  154.7932 H   0  0  0  0  0  0  0  0  0  0  0  0
  146.2548  140.8889  152.7119 H   0  0  0  0  0  0  0  0  0  0  0  0
  148.0024  140.9360  152.5163 H   0  0  0  0  0  0  0  0  0  0  0  0
  147.2346  141.6519  153.9332 H   0  0  0  0  0  0  0  0  0  0  0  0
  149.2254  141.2375  154.6211 H   0  0  0  0  0  0  0  0  0  0  0  0
  148.4723  140.6722  156.0959 H   0  0  0  0  0  0  0  0  0  0  0  0
  150.4369  139.3468  156.7010 H   0  0  0  0  0  0  0  0  0  0  0  0
  150.4221  141.7321  157.4194 H   0  0  0  0  0  0  0  0  0  0  0  0
  151.2162  142.1983  155.9160 H   0  0  0  0  0  0  0  0  0  0  0  0
  152.0603  141.1819  157.0811 H   0  0  0  0  0  0  0  0  0  0  0  0
  151.7585  138.5197  153.3509 H   0  0  0  0  0  0  0  0  0  0  0  0
  150.9647  136.4219  154.3375 H   0  0  0  0  0  0  0  0  0  0  0  0
  150.4551  137.2432  155.8034 H   0  0  0  0  0  0  0  0  0  0  0  0
  152.1662  137.1623  155.3882 H   0  0  0  0  0  0  0  0  0  0  0  0
  149.3508  137.9144  153.0700 H   0  0  0  0  0  0  0  0  0  0  0  0
  149.7179  139.6034  152.8178 H   0  0  0  0  0  0  0  0  0  0  0  0
  1  2  1  0  0  0  0
  1 22  1  0  0  0  0
  1 23  1  0  0  0  0
  1 24  1  0  0  0  0
  2 21  1  0  0  0  0
  2  3  2  0  0  0  0
  3  4  1  0  0  0  0
  3 25  1  0  0  0  0
  4  5  1  0  0  0  0
  4 20  2  0  0  0  0
  5  6  1  0  0  0  0
  5 26  1  0  0  0  0
  6  7  2  0  0  0  0
  6  8  1  0  0  0  0
  8  9  1  0  0  0  0
  8 27  1  0  0  0  0
  9 10  1  0  0  0  0
  9 28  1  0  0  0  0
  9 29  1  0  0  0  0
 10 11  1  0  0  0  0
 10 12  1  0  0  0  0
 10 30  1  0  0  0  0
 11 31  1  0  0  0  0
 11 32  1  0  0  0  0
 11 33  1  0  0  0  0
 12 19  1  0  0  0  0
 12 13  1  0  0  0  0
 13 14  1  0  0  0  0
 13 34  1  0  0  0  0
 13 35  1  0  0  0  0
 14 15  1  0  0  0  0
 14 16  1  0  0  0  0
 14 36  1  0  0  0  0
 15 37  1  0  0  0  0
 15 38  1  0  0  0  0
 15 39  1  0  0  0  0
 16 17  1  0  0  0  0
 17 18  1  0  0  0  0
 17 19  1  0  0  0  0
 17 40  1  0  0  0  0
 18 41  1  0  0  0  0
 18 42  1  0  0  0  0
 18 43  1  0  0  0  0
 19 44  1  0  0  0  0
 19 45  1  0  0  0  0
 20 21  1  0  0  0  0
M  END
> <s_m_source_file>
AV-unprocessed.smi

> <i_m_source_file_index>
2061

> <i_lp_mmshare_version>
43012

> <i_f3d_flags>
0

> <s_epik_input>
W0NIM11jMVtjSF1jKG5vMSlbTkhdQyg9TylbTkhdW0NIMl1bQ0BIXShbQ0gzXSlOMltDSDJdW0NAQEhdKFtDSDNdKU9bQ0BASF0oW0NIM10pW0NIMl0y

> <s_epik_cmdline>
J2VwaWtfcHl0aG9uJywgJy1waCcsICc3LjAnLCAnLXRuJywgJzgnLCAnLW1hJywgJzIwMCcsICctbWV0YWxfYmluZGluZycsICctaW1hZScsICc8aW5maWxlLm1hZT4nLCAnLW9tYWUnLCAnPG91dGZpbGUubWFlPic=

> <r_epik_Ionization_Penalty>
0.214073

> <r_epik_Ionization_Penalty_Charging>
0

> <r_epik_Ionization_Penalty_Neutral>
0.214073

> <r_epik_State_Penalty>
0.204211

> <r_epik_Charging_Adjusted_Penalty>
0.204211

> <i_epik_Tot_Q>
0

> <i_epik_Tot_abs_Q>
0

> <r_epik_Metal_State_Penalty>
0.217067

> <b_epik_Metal_Only>
0

> <s_lp_Force_Field>
OPLS_2005

> <r_lp_Energy>
31.3151

> <b_lp_Chiralities_Consistent>
1

> <s_lp_Variant>
AV-unprocessed.smi:2061-3

> <Gold.Version>
5.8.1

> <Gold.Id.Protein>
6NUR|6NUR_protein|mol2

> <Gold.PLP.Fitness>
40.4526

> <Gold.PLP.PLP>
-31.0781

> <Gold.PLP.part.hbond>
-4.0000

> <Gold.PLP.part.metal>
0.0000

> <Gold.PLP.part.buried>
-2.7115

> <Gold.PLP.part.nonpolar>
-25.2089

> <Gold.PLP.part.repulsive>
0.2979

> <Gold.PLP.ligand.clash>
0.0000

> <Gold.PLP.ligand.torsion>
0.4072

> <Gold.PLP.Chemscore.Hbond>
3.3840

> <Gold.PLP.Chemscore.CHOScore>
0.0000

> <Gold.PLP.Chemscore.Metal>
0.0000

> <Gold.Chemscore.Hbonds>
donor molecule, donor type, donor heavy atom, donor atom, acceptor molecule, acceptor atom, score
      L1  H     5    26       P1 10175  0.72
      L1  H     8    27       P1 10175  0.74
      P1  H  7989  7998       L1    16  0.75
      P1  H 11000 11005       L1    21  1.00

> <Gold.PLP.Chemscore.Internal.Correction>
0.0369

> <Gold.Rescore>
     Score         DG    S(hbond)    S(metal)    S(lipo)     H(rot)  DE(clash)    DE(int)     intcor
     17.58     -19.20       2.80        0.00      71.28       1.55       0.03       1.59       ----

> <Gold.Chemscore.Fitness>
17.5792

> <Gold.Chemscore.DG>
-19.2018

> <Gold.Chemscore.ZeroCoef>
-5.4800

> <Gold.Chemscore.Hbond>
2.7975

> <Gold.Chemscore.Metal>
0.0000

> <Gold.Chemscore.Lipo>
71.2764

> <Gold.Chemscore.Internal_Hbond>
0.0000

> <Gold.Chemscore.DEClash>
0.0291

> <Gold.Chemscore.DEInternal>
1.5935

> <Gold.Chemscore.Rot>
1.5474

> <Gold.Chemscore.Internal.Correction>
   9.000000E+99

> <Gold.Chemscore.Hbonds>
donor molecule, donor type, donor heavy atom, donor atom, acceptor molecule, acceptor atom, score
      L1  H     5    26       P1 10175  0.71
      L1  H     8    27       P1 10175  0.73
      P1  H  7989  7998       L1    16  0.09
      P1  H 11000 11005       L1    21  0.81

> <Gold.Chemscore.Hbond.Weighted>
-9.3437

> <Gold.Chemscore.Metal.Weighted>
-0.0000

> <Gold.Chemscore.Lipo.Weighted>
-8.3393

> <Gold.Chemscore.Internal_Hbond.Weighted>
0.0000

> <Gold.Chemscore.DEClash.Weighted>
0.0291

> <Gold.Chemscore.DEInternal.Weighted>
1.5935

> <Gold.Chemscore.Rot.Weighted>
3.9612

> <Gold.Chemscore.Internal.Correction.Weighted>
   9.000000E+99

> <Gold.Protein.RotatedTorsions>
[ 6907 6896 6895 6894 ] final  120.67 input  -60.11 | X-H torsion
[ 7974 7965 7964 7962 ] final  -40.27 input  175.53 | X-H torsion
[ 8008 7997 7996 7995 ] final  -40.11 input   59.86 | X-H torsion
[ 10167 10162 10161 10158 ] final  -85.93 input  -65.29 | X-H torsion
[ 10718 10713 10712 10709 ] final   28.50 input   66.30 | X-H torsion
[ 10763 10752 10751 10750 ] final  107.77 input  -60.55 | X-H torsion
[ 11005 11000 10999 10996 ] final   41.09 input  -57.11 | X-H torsion

> <Gold.Protein.ActiveResidues>
 VAL166  LYS551  ARG553  GLY616  TRP617  ASP618  TYR619  PRO620  LYS621  CYS622 
 ASP623  PHE694  ASN695  SER759  ASP760  ASP761  ALA762  ILE779  LEU786  VAL792 
 PHE793  MET794  SER795  GLU796  ALA797  LYS798  CYS799  TRP800  GLU811  SER814 

> <Gold.Protein.RotatedAtoms>
  152.4381  133.7397  159.6633 H   0  0  0  0  0  0  0  0  0  0  0  0  # atno 6907 bound_to 6896
  150.8267  133.8149  159.3122 H   0  0  0  0  0  0  0  0  0  0  0  0  # atno 6908 bound_to 6896
  151.5815  135.1060  160.0070 H   0  0  0  0  0  0  0  0  0  0  0  0  # atno 6909 bound_to 6896
  146.0320  140.6719  142.9128 H   0  0  0  0  0  0  0  0  0  0  0  0  # atno 7974 bound_to 7965
  154.4015  140.1534  156.2973 H   0  0  0  0  0  0  0  0  0  0  0  0  # atno 8008 bound_to 7997
  155.8732  140.3447  155.5814 H   0  0  0  0  0  0  0  0  0  0  0  0  # atno 8009 bound_to 7997
  155.7751  140.0835  157.2078 H   0  0  0  0  0  0  0  0  0  0  0  0  # atno 8010 bound_to 7997
  140.3990  143.2671  151.9167 H   0  0  0  0  0  0  0  0  0  0  0  0  # atno 10167 bound_to 10162
  157.2343  130.7039  149.6328 H   0  0  0  0  0  0  0  0  0  0  0  0  # atno 10718 bound_to 10713
  153.4114  135.3833  155.2053 H   0  0  0  0  0  0  0  0  0  0  0  0  # atno 10763 bound_to 10752
  154.8738  135.3795  154.4496 H   0  0  0  0  0  0  0  0  0  0  0  0  # atno 10764 bound_to 10752
  153.5005  135.7088  153.5897 H   0  0  0  0  0  0  0  0  0  0  0  0  # atno 10765 bound_to 10752
  140.1867  134.4036  155.8169 H   0  0  0  0  0  0  0  0  0  0  0  0  # atno 11005 bound_to 11000
  144.7035  140.3753  143.7137 LP  0  0  0  0  0  0  0  0  0  0  0  0  # atno 17320 bound_to 7965
  145.7025  139.1664  143.2585 LP  0  0  0  0  0  0  0  0  0  0  0  0  # atno 17321 bound_to 7965
  139.4785  144.5652  151.8175 LP  0  0  0  0  0  0  0  0  0  0  0  0  # atno 17342 bound_to 10162
  140.4760  144.1518  150.5925 LP  0  0  0  0  0  0  0  0  0  0  0  0  # atno 17343 bound_to 10162
  155.9673  130.4479  150.5597 LP  0  0  0  0  0  0  0  0  0  0  0  0  # atno 17370 bound_to 10713
  157.3445  131.0722  151.1762 LP  0  0  0  0  0  0  0  0  0  0  0  0  # atno 17371 bound_to 10713
  141.2225  133.7026  156.8025 LP  0  0  0  0  0  0  0  0  0  0  0  0  # atno 17394 bound_to 11000
  140.2205  134.8760  157.3372 LP  0  0  0  0  0  0  0  0  0  0  0  0  # atno 17395 bound_to 11000

$$$$
