AV-unprocessed.smi:3355|AV-procd|sdf|12963|dock5
  -GOLD-   2272019403D 1   1.00000     0.00000
 Structure written by MMmdl.
 45 46  0  0  0  0  0  0  0  0  1 V2000
  161.2691  140.5458  161.8175 C   0  0  0  0  0  0  0  0  0  0  0  0
  160.9447  141.9300  161.2449 C   0  0  0  0  0  0  0  0  0  0  0  0
  160.2102  141.8623  159.9401 C   0  0  0  0  0  0  0  0  0  0  0  0
  160.6630  142.4481  158.8243 N   0  0  0  0  0  0  0  0  0  0  0  0
  159.7380  142.1540  157.8440 N   0  0  0  0  0  0  0  0  0  0  0  0
  158.8200  141.4140  158.4628 C   0  0  0  0  0  0  0  0  0  0  0  0
  159.0504  141.1899  159.7657 N   0  0  0  0  0  0  0  0  0  0  0  0
  158.2356  140.4178  160.6881 C   0  0  0  0  0  0  0  0  0  0  0  0
  157.0513  139.7507  159.9759 C   0  0  0  0  0  0  0  0  0  0  0  0
  155.7938  140.3210  160.4364 N   0  0  0  0  0  0  0  0  0  0  0  0
  154.6099  140.1578  159.8222 C   0  0  0  0  0  0  0  0  0  0  0  0
  154.4952  139.4692  158.8066 O   0  0  0  0  0  0  0  0  0  0  0  0
  153.5567  140.7566  160.4400 N   0  0  0  0  0  0  0  0  0  0  0  0
  153.6245  141.3759  161.7808 C   0  0  0  0  0  0  0  0  0  0  0  0
  152.7680  142.6475  161.9554 C   0  0  0  0  0  0  0  0  0  0  0  0
  152.8673  143.6575  160.7960 C   0  0  0  0  0  0  0  0  0  0  0  0
  151.8686  143.3861  159.6510 C   0  0  1  0  0  0  0  0  0  0  0  0
  151.8098  144.5812  158.6869 C   0  0  0  0  0  0  0  0  0  0  0  0
  152.1566  142.0864  158.8729 C   0  0  0  0  0  0  0  0  0  0  0  0
  152.2560  140.8305  159.7576 C   0  0  0  0  0  0  0  0  0  0  0  0
  161.8180  140.6333  162.7552 H   0  0  0  0  0  0  0  0  0  0  0  0
  161.8826  139.9681  161.1254 H   0  0  0  0  0  0  0  0  0  0  0  0
  160.3624  139.9752  162.0162 H   0  0  0  0  0  0  0  0  0  0  0  0
  160.3784  142.5133  161.9689 H   0  0  0  0  0  0  0  0  0  0  0  0
  161.8736  142.4787  161.0849 H   0  0  0  0  0  0  0  0  0  0  0  0
  157.9554  141.0197  157.9491 H   0  0  0  0  0  0  0  0  0  0  0  0
  158.8524  139.6752  161.1926 H   0  0  0  0  0  0  0  0  0  0  0  0
  157.8718  141.0927  161.4643 H   0  0  0  0  0  0  0  0  0  0  0  0
  157.1345  139.8896  158.8966 H   0  0  0  0  0  0  0  0  0  0  0  0
  157.0503  138.6769  160.1637 H   0  0  0  0  0  0  0  0  0  0  0  0
  155.8206  140.8788  161.2774 H   0  0  0  0  0  0  0  0  0  0  0  0
  153.3402  140.6332  162.5273 H   0  0  0  0  0  0  0  0  0  0  0  0
  154.6463  141.6725  162.0211 H   0  0  0  0  0  0  0  0  0  0  0  0
  151.7246  142.3850  162.1331 H   0  0  0  0  0  0  0  0  0  0  0  0
  153.0927  143.1393  162.8731 H   0  0  0  0  0  0  0  0  0  0  0  0
  152.6528  144.6462  161.2036 H   0  0  0  0  0  0  0  0  0  0  0  0
  153.8892  143.7087  160.4172 H   0  0  0  0  0  0  0  0  0  0  0  0
  150.8765  143.2912  160.0949 H   0  0  0  0  0  0  0  0  0  0  0  0
  152.7749  144.7523  158.2087 H   0  0  0  0  0  0  0  0  0  0  0  0
  151.5306  145.4968  159.2091 H   0  0  0  0  0  0  0  0  0  0  0  0
  151.0727  144.4169  157.9001 H   0  0  0  0  0  0  0  0  0  0  0  0
  151.3519  141.9337  158.1528 H   0  0  0  0  0  0  0  0  0  0  0  0
  153.0649  142.1972  158.2787 H   0  0  0  0  0  0  0  0  0  0  0  0
  152.1087  139.9436  159.1385 H   0  0  0  0  0  0  0  0  0  0  0  0
  151.4358  140.7957  160.4753 H   0  0  0  0  0  0  0  0  0  0  0  0
  1  2  1  0  0  0  0
  1 21  1  0  0  0  0
  1 22  1  0  0  0  0
  1 23  1  0  0  0  0
  2  3  1  0  0  0  0
  2 24  1  0  0  0  0
  2 25  1  0  0  0  0
  3  7  1  0  0  0  0
  3  4  2  0  0  0  0
  4  5  1  0  0  0  0
  5  6  2  0  0  0  0
  6  7  1  0  0  0  0
  6 26  1  0  0  0  0
  7  8  1  0  0  0  0
  8  9  1  0  0  0  0
  8 27  1  0  0  0  0
  8 28  1  0  0  0  0
  9 10  1  0  0  0  0
  9 29  1  0  0  0  0
  9 30  1  0  0  0  0
 10 11  1  0  0  0  0
 10 31  1  0  0  0  0
 11 12  2  0  0  0  0
 11 13  1  0  0  0  0
 13 20  1  0  0  0  0
 13 14  1  0  0  0  0
 14 15  1  0  0  0  0
 14 32  1  0  0  0  0
 14 33  1  0  0  0  0
 15 16  1  0  0  0  0
 15 34  1  0  0  0  0
 15 35  1  0  0  0  0
 16 17  1  0  0  0  0
 16 36  1  0  0  0  0
 16 37  1  0  0  0  0
 17 18  1  0  0  0  0
 17 19  1  0  0  0  0
 17 38  1  0  0  0  0
 18 39  1  0  0  0  0
 18 40  1  0  0  0  0
 18 41  1  0  0  0  0
 19 20  1  0  0  0  0
 19 42  1  0  0  0  0
 19 43  1  0  0  0  0
 20 44  1  0  0  0  0
 20 45  1  0  0  0  0
M  END
> <s_m_source_file>
AV-unprocessed.smi

> <i_m_source_file_index>
3355

> <i_lp_mmshare_version>
43012

> <i_f3d_flags>
0

> <s_epik_input>
W0NIM11bQ0gyXWMxbm5bY0hdbjFbQ0gyXVtDSDJdW05IXUMoPU8pTjJbQ0gyXVtDSDJdW0NIMl1bQ0BASF0oW0NIM10pW0NIMl1bQ0gyXTI=

> <s_epik_cmdline>
J2VwaWtfcHl0aG9uJywgJy1waCcsICc3LjAnLCAnLXRuJywgJzgnLCAnLW1hJywgJzIwMCcsICctbWV0YWxfYmluZGluZycsICctaW1hZScsICc8aW5maWxlLm1hZT4nLCAnLW9tYWUnLCAnPG91dGZpbGUubWFlPic=

> <r_lp_tautomer_probability>
1

> <r_epik_Ionization_Penalty>
0.000387734

> <r_epik_Ionization_Penalty_Charging>
0

> <r_epik_Ionization_Penalty_Neutral>
0.000387734

> <r_epik_State_Penalty>
-0

> <r_epik_Charging_Adjusted_Penalty>
0

> <i_epik_Tot_Q>
0

> <i_epik_Tot_abs_Q>
0

> <r_epik_Metal_State_Penalty>
-0

> <b_epik_Metal_Only>
0

> <s_lp_Force_Field>
OPLS_2005

> <r_lp_Energy>
33.7292

> <b_lp_Chiralities_Consistent>
1

> <s_lp_Variant>
AV-unprocessed.smi:3355-1

> <Gold.Version>
5.8.1

> <Gold.Id.Protein>
6NUR|6NUR_protein|mol2

> <Gold.PLP.Fitness>
45.4033

> <Gold.PLP.PLP>
-43.4665

> <Gold.PLP.part.hbond>
-4.4179

> <Gold.PLP.part.metal>
0.0000

> <Gold.PLP.part.buried>
-4.9338

> <Gold.PLP.part.nonpolar>
-35.3294

> <Gold.PLP.part.repulsive>
0.3264

> <Gold.PLP.ligand.clash>
0.0000

> <Gold.PLP.ligand.torsion>
0.5397

> <Gold.PLP.Chemscore.Hbond>
1.0000

> <Gold.PLP.Chemscore.CHOScore>
0.0000

> <Gold.PLP.Chemscore.Metal>
0.0000

> <Gold.Chemscore.Hbonds>
donor molecule, donor type, donor heavy atom, donor atom, acceptor molecule, acceptor atom, score
      P1  H  7997  8010       L1    12  0.93

> <Gold.PLP.Chemscore.Internal.Correction>
0.0163

> <Gold.Rescore>
     Score         DG    S(hbond)    S(metal)    S(lipo)     H(rot)  DE(clash)    DE(int)     intcor
     13.51     -14.90       0.95        0.00      91.25       1.74       0.86       0.52       ----

> <Gold.Chemscore.Fitness>
13.5132

> <Gold.Chemscore.DG>
-14.8962

> <Gold.Chemscore.ZeroCoef>
-5.4800

> <Gold.Chemscore.Hbond>
0.9533

> <Gold.Chemscore.Metal>
0.0000

> <Gold.Chemscore.Lipo>
91.2511

> <Gold.Chemscore.Internal_Hbond>
0.0000

> <Gold.Chemscore.DEClash>
0.8608

> <Gold.Chemscore.DEInternal>
0.5222

> <Gold.Chemscore.Rot>
1.7360

> <Gold.Chemscore.Internal.Correction>
   9.000000E+99

> <Gold.Chemscore.Hbonds>
donor molecule, donor type, donor heavy atom, donor atom, acceptor molecule, acceptor atom, score
      P1  H  7997  8010       L1    12  0.86

> <Gold.Chemscore.Hbond.Weighted>
-3.1841

> <Gold.Chemscore.Metal.Weighted>
-0.0000

> <Gold.Chemscore.Lipo.Weighted>
-10.6764

> <Gold.Chemscore.Internal_Hbond.Weighted>
0.0000

> <Gold.Chemscore.DEClash.Weighted>
0.8608

> <Gold.Chemscore.DEInternal.Weighted>
0.5222

> <Gold.Chemscore.Rot.Weighted>
4.4443

> <Gold.Chemscore.Internal.Correction.Weighted>
   9.000000E+99

> <Gold.Protein.RotatedTorsions>
[ 6907 6896 6895 6894 ] final  -50.37 input  -60.11 | X-H torsion
[ 7974 7965 7964 7962 ] final  122.98 input  175.53 | X-H torsion
[ 8008 7997 7996 7995 ] final  -16.18 input   59.86 | X-H torsion
[ 10167 10162 10161 10158 ] final -144.43 input  -65.29 | X-H torsion
[ 10718 10713 10712 10709 ] final -123.74 input   66.30 | X-H torsion
[ 10763 10752 10751 10750 ] final  -49.80 input  -60.55 | X-H torsion
[ 11005 11000 10999 10996 ] final -102.34 input  -57.11 | X-H torsion

> <Gold.Protein.ActiveResidues>
 VAL166  LYS551  ARG553  GLY616  TRP617  ASP618  TYR619  PRO620  LYS621  CYS622 
 ASP623  PHE694  ASN695  SER759  ASP760  ASP761  ALA762  ILE779  LEU786  VAL792 
 PHE793  MET794  SER795  GLU796  ALA797  LYS798  CYS799  TRP800  GLU811  SER814 

> <Gold.Protein.RotatedAtoms>
  150.8714  134.8088  159.7156 H   0  0  0  0  0  0  0  0  0  0  0  0  # atno 6907 bound_to 6896
  152.4717  134.4941  159.9714 H   0  0  0  0  0  0  0  0  0  0  0  0  # atno 6908 bound_to 6896
  151.5029  133.3462  159.2907 H   0  0  0  0  0  0  0  0  0  0  0  0  # atno 6909 bound_to 6896
  145.1012  139.3517  143.4811 H   0  0  0  0  0  0  0  0  0  0  0  0  # atno 7974 bound_to 7965
  154.5073  140.2176  155.9226 H   0  0  0  0  0  0  0  0  0  0  0  0  # atno 8008 bound_to 7997
  156.1509  140.3161  155.8613 H   0  0  0  0  0  0  0  0  0  0  0  0  # atno 8009 bound_to 7997
  155.3941  140.0480  157.3030 H   0  0  0  0  0  0  0  0  0  0  0  0  # atno 8010 bound_to 7997
  139.7900  143.7980  152.2649 H   0  0  0  0  0  0  0  0  0  0  0  0  # atno 10167 bound_to 10162
  156.1528  130.6546  150.9938 H   0  0  0  0  0  0  0  0  0  0  0  0  # atno 10718 bound_to 10713
  154.1000  135.6565  153.4866 H   0  0  0  0  0  0  0  0  0  0  0  0  # atno 10763 bound_to 10752
  153.0292  135.5223  154.7296 H   0  0  0  0  0  0  0  0  0  0  0  0  # atno 10764 bound_to 10752
  154.6445  135.2993  155.0032 H   0  0  0  0  0  0  0  0  0  0  0  0  # atno 10765 bound_to 10752
  141.1193  133.8550  157.1347 H   0  0  0  0  0  0  0  0  0  0  0  0  # atno 11005 bound_to 11000
  146.3529  140.0891  142.8613 LP  0  0  0  0  0  0  0  0  0  0  0  0  # atno 17320 bound_to 7965
  145.0953  140.9311  143.4745 LP  0  0  0  0  0  0  0  0  0  0  0  0  # atno 17321 bound_to 7965
  139.8068  144.7352  150.9750 LP  0  0  0  0  0  0  0  0  0  0  0  0  # atno 17342 bound_to 10162
  140.7820  143.4290  151.0724 LP  0  0  0  0  0  0  0  0  0  0  0  0  # atno 17343 bound_to 10162
  157.6670  131.0869  150.7703 LP  0  0  0  0  0  0  0  0  0  0  0  0  # atno 17370 bound_to 10713
  156.7770  130.4847  149.5408 LP  0  0  0  0  0  0  0  0  0  0  0  0  # atno 17371 bound_to 10713
  140.0138  134.9976  157.0451 LP  0  0  0  0  0  0  0  0  0  0  0  0  # atno 17394 bound_to 11000
  140.4554  134.1539  155.7185 LP  0  0  0  0  0  0  0  0  0  0  0  0  # atno 17395 bound_to 11000

$$$$
