AV-unprocessed.smi:2618|AV-procd|sdf|10218|dock4
  -GOLD-   2272014223D 1   1.00000     0.00000
 Structure written by MMmdl.
 39 40  0  0  0  0  0  0  0  0  1 V2000
  146.3864  142.8233  154.0798 C   0  0  0  0  0  0  0  0  0  0  0  0
  147.1738  141.6792  153.8013 O   0  0  0  0  0  0  0  0  0  0  0  0
  148.4220  141.6997  154.4760 C   0  0  0  0  0  0  0  0  0  0  0  0
  149.0849  140.3150  154.4037 C   0  0  0  0  0  0  0  0  0  0  0  0
  150.1788  140.1492  155.4241 C   0  0  0  0  0  0  0  0  0  0  0  0
  150.4696  141.0524  156.2844 N   0  0  0  0  0  0  0  0  0  0  0  0
  151.4680  140.6537  157.0727 N   0  0  0  0  0  0  0  0  0  0  0  0
  152.0303  141.4678  158.0622 C   0  0  0  0  0  0  0  0  0  0  0  0
  152.9446  140.9275  158.8777 N   0  0  0  0  0  0  0  0  0  0  0  0
  153.4847  141.7187  159.8295 C   0  0  0  0  0  0  0  0  0  0  0  0
  154.5138  141.0842  160.7402 C   0  0  0  0  0  0  0  0  0  0  0  0
  153.1149  143.0713  159.9677 C   0  0  0  0  0  0  0  0  0  0  0  0
  152.1490  143.5429  159.0563 C   0  0  0  0  0  0  0  0  0  0  0  0
  151.6576  144.9741  159.0953 C   0  0  0  0  0  0  0  0  0  0  0  0
  151.6119  142.7413  158.1113 N   0  0  0  0  0  0  0  0  0  0  0  0
  151.8681  139.2675  156.7866 C   0  0  1  0  0  0  0  0  0  0  0  0
  153.2288  139.0812  156.4311 O   0  0  0  0  0  0  0  0  0  0  0  0
  151.5208  138.2932  157.9473 C   0  0  0  0  0  0  0  0  0  0  0  0
  150.2341  138.4123  158.2801 F   0  0  0  0  0  0  0  0  0  0  0  0
  151.7313  137.0324  157.5652 F   0  0  0  0  0  0  0  0  0  0  0  0
  152.2498  138.5280  159.0376 F   0  0  0  0  0  0  0  0  0  0  0  0
  151.0431  138.9440  155.5336 C   0  0  0  0  0  0  0  0  0  0  0  0
  145.4390  142.7544  153.5455 H   0  0  0  0  0  0  0  0  0  0  0  0
  146.8892  143.7359  153.7566 H   0  0  0  0  0  0  0  0  0  0  0  0
  146.1671  142.9018  155.1454 H   0  0  0  0  0  0  0  0  0  0  0  0
  149.0784  142.4621  154.0517 H   0  0  0  0  0  0  0  0  0  0  0  0
  148.2563  141.9649  155.5212 H   0  0  0  0  0  0  0  0  0  0  0  0
  148.3198  139.5553  154.5706 H   0  0  0  0  0  0  0  0  0  0  0  0
  149.4777  140.1347  153.4028 H   0  0  0  0  0  0  0  0  0  0  0  0
  154.5850  141.6265  161.6832 H   0  0  0  0  0  0  0  0  0  0  0  0
  155.4938  141.0935  160.2629 H   0  0  0  0  0  0  0  0  0  0  0  0
  154.2487  140.0499  160.9635 H   0  0  0  0  0  0  0  0  0  0  0  0
  153.5460  143.7080  160.7264 H   0  0  0  0  0  0  0  0  0  0  0  0
  152.3578  145.6128  159.6345 H   0  0  0  0  0  0  0  0  0  0  0  0
  150.6902  145.0254  159.5954 H   0  0  0  0  0  0  0  0  0  0  0  0
  151.5451  145.3710  158.0857 H   0  0  0  0  0  0  0  0  0  0  0  0
  153.3359  138.1991  156.1106 H   0  0  0  0  0  0  0  0  0  0  0  0
  150.4425  138.0403  155.6394 H   0  0  0  0  0  0  0  0  0  0  0  0
  151.6572  138.8398  154.6380 H   0  0  0  0  0  0  0  0  0  0  0  0
  1  2  1  0  0  0  0
  1 23  1  0  0  0  0
  1 24  1  0  0  0  0
  1 25  1  0  0  0  0
  2  3  1  0  0  0  0
  3  4  1  0  0  0  0
  3 26  1  0  0  0  0
  3 27  1  0  0  0  0
  4  5  1  0  0  0  0
  4 28  1  0  0  0  0
  4 29  1  0  0  0  0
  5 22  1  0  0  0  0
  5  6  2  0  0  0  0
  6  7  1  0  0  0  0
  7  8  1  0  0  0  0
  7 16  1  0  0  0  0
  8 15  1  0  0  0  0
  8  9  2  0  0  0  0
  9 10  1  0  0  0  0
 10 11  1  0  0  0  0
 10 12  2  0  0  0  0
 11 30  1  0  0  0  0
 11 31  1  0  0  0  0
 11 32  1  0  0  0  0
 12 13  1  0  0  0  0
 12 33  1  0  0  0  0
 13 14  1  0  0  0  0
 13 15  2  0  0  0  0
 14 34  1  0  0  0  0
 14 35  1  0  0  0  0
 14 36  1  0  0  0  0
 16 17  1  0  0  0  0
 16 18  1  0  0  0  0
 16 22  1  0  0  0  0
 17 37  1  0  0  0  0
 18 19  1  0  0  0  0
 18 20  1  0  0  0  0
 18 21  1  0  0  0  0
 22 38  1  0  0  0  0
 22 39  1  0  0  0  0
M  END
> <s_m_source_file>
AV-unprocessed.smi

> <i_m_source_file_index>
2618

> <i_lp_mmshare_version>
43012

> <i_f3d_flags>
0

> <s_epik_input>
W0NIM11PW0NIMl1bQ0gyXUMoW0NIMl0xKT1OTihbQ0BAXTEoW09IXSlDKEYpKEYpRiljMm5jKFtDSDNdKVtjSF1jKG4yKVtDSDNd

> <s_epik_cmdline>
J2VwaWtfcHl0aG9uJywgJy1waCcsICc3LjAnLCAnLXRuJywgJzgnLCAnLW1hJywgJzIwMCcsICctbWV0YWxfYmluZGluZycsICctaW1hZScsICc8aW5maWxlLm1hZT4nLCAnLW9tYWUnLCAnPG91dGZpbGUubWFlPic=

> <r_lp_tautomer_probability>
1

> <r_epik_Ionization_Penalty>
0.0648608

> <r_epik_Ionization_Penalty_Charging>
0

> <r_epik_Ionization_Penalty_Neutral>
0.0648608

> <r_epik_State_Penalty>
0.0551477

> <r_epik_Charging_Adjusted_Penalty>
0.0551477

> <i_epik_Tot_Q>
0

> <i_epik_Tot_abs_Q>
0

> <r_epik_Metal_State_Penalty>
0.0550619

> <b_epik_Metal_Only>
0

> <s_epik_Chemistry_Notes>
This compound has an imine and may undergo hydrolysis.

> <s_lp_Force_Field>
OPLS_2005

> <r_lp_Energy>
16.027

> <b_lp_Chiralities_Consistent>
1

> <s_lp_Variant>
AV-unprocessed.smi:2618-1

> <Gold.Version>
5.8.1

> <Gold.Id.Protein>
6NUR|6NUR_protein|mol2

> <Gold.PLP.Fitness>
47.0330

> <Gold.PLP.PLP>
-44.3345

> <Gold.PLP.part.hbond>
-0.8391

> <Gold.PLP.part.metal>
0.0000

> <Gold.PLP.part.buried>
-6.5845

> <Gold.PLP.part.nonpolar>
-37.2486

> <Gold.PLP.part.repulsive>
0.2660

> <Gold.PLP.ligand.clash>
0.0000

> <Gold.PLP.ligand.torsion>
0.1936

> <Gold.PLP.Chemscore.Hbond>
1.0000

> <Gold.PLP.Chemscore.CHOScore>
0.0000

> <Gold.PLP.Chemscore.Metal>
0.0000

> <Gold.Chemscore.Hbonds>
donor molecule, donor type, donor heavy atom, donor atom, acceptor molecule, acceptor atom, score
      P1  H  7997  8008       L1    17  0.99

> <Gold.PLP.Chemscore.Internal.Correction>
0.0857

> <Gold.Rescore>
     Score         DG    S(hbond)    S(metal)    S(lipo)     H(rot)  DE(clash)    DE(int)     intcor
     12.73     -14.60       0.99        0.00      94.21       2.03       0.02       1.86       ----

> <Gold.Chemscore.Fitness>
12.7285

> <Gold.Chemscore.DG>
-14.6031

> <Gold.Chemscore.ZeroCoef>
-5.4800

> <Gold.Chemscore.Hbond>
0.9902

> <Gold.Chemscore.Metal>
0.0000

> <Gold.Chemscore.Lipo>
94.2138

> <Gold.Chemscore.Internal_Hbond>
0.0000

> <Gold.Chemscore.DEClash>
0.0166

> <Gold.Chemscore.DEInternal>
1.8580

> <Gold.Chemscore.Rot>
2.0340

> <Gold.Chemscore.Internal.Correction>
   9.000000E+99

> <Gold.Chemscore.Hbonds>
donor molecule, donor type, donor heavy atom, donor atom, acceptor molecule, acceptor atom, score
      P1  H  7997  8008       L1    17  0.91

> <Gold.Chemscore.Hbond.Weighted>
-3.3072

> <Gold.Chemscore.Metal.Weighted>
-0.0000

> <Gold.Chemscore.Lipo.Weighted>
-11.0230

> <Gold.Chemscore.Internal_Hbond.Weighted>
0.0000

> <Gold.Chemscore.DEClash.Weighted>
0.0166

> <Gold.Chemscore.DEInternal.Weighted>
1.8580

> <Gold.Chemscore.Rot.Weighted>
5.2071

> <Gold.Chemscore.Internal.Correction.Weighted>
   9.000000E+99

> <Gold.Protein.RotatedTorsions>
[ 6907 6896 6895 6894 ] final  -94.82 input  -60.11 | X-H torsion
[ 7974 7965 7964 7962 ] final  -12.85 input  175.53 | X-H torsion
[ 8008 7997 7996 7995 ] final  -61.02 input   59.86 | X-H torsion
[ 10167 10162 10161 10158 ] final   61.52 input  -65.29 | X-H torsion
[ 10718 10713 10712 10709 ] final -108.04 input   66.30 | X-H torsion
[ 10763 10752 10751 10750 ] final  -19.70 input  -60.55 | X-H torsion
[ 11005 11000 10999 10996 ] final   76.24 input  -57.11 | X-H torsion

> <Gold.Protein.ActiveResidues>
 VAL166  LYS551  ARG553  GLY616  TRP617  ASP618  TYR619  PRO620  LYS621  CYS622 
 ASP623  PHE694  ASN695  SER759  ASP760  ASP761  ALA762  ILE779  LEU786  VAL792 
 PHE793  MET794  SER795  GLU796  ALA797  LYS798  CYS799  TRP800  GLU811  SER814 

> <Gold.Protein.RotatedAtoms>
  150.6950  134.1753  159.4227 H   0  0  0  0  0  0  0  0  0  0  0  0  # atno 6907 bound_to 6896
  151.9729  135.0065  160.0563 H   0  0  0  0  0  0  0  0  0  0  0  0  # atno 6908 bound_to 6896
  152.1825  133.4682  159.5002 H   0  0  0  0  0  0  0  0  0  0  0  0  # atno 6909 bound_to 6896
  146.2136  140.3118  142.8383 H   0  0  0  0  0  0  0  0  0  0  0  0  # atno 7974 bound_to 7965
  154.4427  140.1027  156.6365 H   0  0  0  0  0  0  0  0  0  0  0  0  # atno 8008 bound_to 7997
  155.5548  140.3486  155.4458 H   0  0  0  0  0  0  0  0  0  0  0  0  # atno 8009 bound_to 7997
  156.0503  140.1302  157.0047 H   0  0  0  0  0  0  0  0  0  0  0  0  # atno 8010 bound_to 7997
  140.1539  144.4436  150.6745 H   0  0  0  0  0  0  0  0  0  0  0  0  # atno 10167 bound_to 10162
  156.0466  130.5693  150.7906 H   0  0  0  0  0  0  0  0  0  0  0  0  # atno 10718 bound_to 10713
  153.6089  135.6997  153.5355 H   0  0  0  0  0  0  0  0  0  0  0  0  # atno 10763 bound_to 10752
  153.3034  135.4122  155.1272 H   0  0  0  0  0  0  0  0  0  0  0  0  # atno 10764 bound_to 10752
  154.8567  135.3654  154.5626 H   0  0  0  0  0  0  0  0  0  0  0  0  # atno 10765 bound_to 10752
  139.9307  134.7585  156.1371 H   0  0  0  0  0  0  0  0  0  0  0  0  # atno 11005 bound_to 11000
  144.8983  140.7610  143.5883 LP  0  0  0  0  0  0  0  0  0  0  0  0  # atno 17320 bound_to 7965
  145.3043  139.1840  143.4673 LP  0  0  0  0  0  0  0  0  0  0  0  0  # atno 17321 bound_to 7965
  140.6685  143.2277  151.5683 LP  0  0  0  0  0  0  0  0  0  0  0  0  # atno 17342 bound_to 10162
  139.5413  144.2641  152.1356 LP  0  0  0  0  0  0  0  0  0  0  0  0  # atno 17343 bound_to 10162
  157.5348  131.0938  150.9907 LP  0  0  0  0  0  0  0  0  0  0  0  0  # atno 17370 bound_to 10713
  157.0205  130.5672  149.5331 LP  0  0  0  0  0  0  0  0  0  0  0  0  # atno 17371 bound_to 10713
  141.0893  133.6721  156.2506 LP  0  0  0  0  0  0  0  0  0  0  0  0  # atno 17394 bound_to 11000
  140.6210  134.5361  157.5547 LP  0  0  0  0  0  0  0  0  0  0  0  0  # atno 17395 bound_to 11000

$$$$
