AV-unprocessed.smi:2693|AV-procd|sdf|10397|dock1
  -GOLD-   2272014433D 1   1.00000     0.00000
 Structure written by MMmdl.
 45 47  0  0  0  0  0  0  0  0  1 V2000
  151.5380  140.7046  158.3472 C   0  0  0  0  0  0  0  0  0  0  0  0
  150.9034  141.0523  157.0793 N   0  0  0  0  0  0  0  0  0  0  0  0
  150.9652  142.4478  156.6541 C   0  0  0  0  0  0  0  0  0  0  0  0
  150.2564  140.0862  156.3034 C   0  0  0  0  0  0  0  0  0  0  0  0
  149.3761  139.2870  156.9206 N   0  0  0  0  0  0  0  0  0  0  0  0
  148.7476  138.3544  156.1748 C   0  0  0  0  0  0  0  0  0  0  0  0
  149.0003  138.2054  154.7966 C   0  0  0  0  0  0  0  0  0  0  0  0
  148.2889  137.2148  154.0684 N   0  0  0  0  0  0  0  0  0  0  0  0
  147.1438  136.5970  154.4024 C   0  0  0  0  0  0  0  0  0  0  0  0
  146.4772  136.8277  155.4106 O   0  0  0  0  0  0  0  0  0  0  0  0
  146.7909  135.6986  153.4742 N   0  0  0  0  0  0  0  0  0  0  0  0
  145.5766  134.8776  153.5308 C   0  0  2  0  0  0  0  0  0  0  0  0
  145.5984  133.7237  152.5255 C   0  0  2  0  0  0  0  0  0  0  0  0
  146.6406  133.0207  151.7334 C   0  0  0  0  0  0  0  0  0  0  0  0
  145.8343  132.9090  150.4108 C   0  0  0  0  0  0  0  0  0  0  0  0
  144.6583  133.7403  150.5878 O   0  0  0  0  0  0  0  0  0  0  0  0
  145.0724  134.7232  151.5159 C   0  0  1  0  0  0  0  0  0  0  0  0
  144.3513  135.4192  152.6921 C   0  0  0  0  0  0  0  0  0  0  0  0
  142.9533  134.8961  153.0684 C   0  0  0  0  0  0  0  0  0  0  0  0
  144.2078  136.9403  152.5692 C   0  0  0  0  0  0  0  0  0  0  0  0
  149.9414  139.1059  154.2432 C   0  0  0  0  0  0  0  0  0  0  0  0
  150.5616  140.0360  155.0001 N   0  0  0  0  0  0  0  0  0  0  0  0
  150.7873  140.3878  159.0713 H   0  0  0  0  0  0  0  0  0  0  0  0
  152.0817  141.5471  158.7745 H   0  0  0  0  0  0  0  0  0  0  0  0
  152.2493  139.8900  158.2086 H   0  0  0  0  0  0  0  0  0  0  0  0
  149.9651  142.8296  156.4467 H   0  0  0  0  0  0  0  0  0  0  0  0
  151.5644  142.5413  155.7481 H   0  0  0  0  0  0  0  0  0  0  0  0
  151.4088  143.0863  157.4181 H   0  0  0  0  0  0  0  0  0  0  0  0
  148.0378  137.7209  156.6861 H   0  0  0  0  0  0  0  0  0  0  0  0
  148.6778  136.9760  153.1677 H   0  0  0  0  0  0  0  0  0  0  0  0
  147.3918  135.5741  152.6729 H   0  0  0  0  0  0  0  0  0  0  0  0
  145.3045  134.5554  154.5374 H   0  0  0  0  0  0  0  0  0  0  0  0
  144.8448  132.9931  152.8294 H   0  0  0  0  0  0  0  0  0  0  0  0
  147.5440  133.6198  151.6135 H   0  0  0  0  0  0  0  0  0  0  0  0
  146.9060  132.0477  152.1478 H   0  0  0  0  0  0  0  0  0  0  0  0
  146.4258  133.2621  149.5651 H   0  0  0  0  0  0  0  0  0  0  0  0
  145.5285  131.8829  150.2054 H   0  0  0  0  0  0  0  0  0  0  0  0
  145.8453  135.3606  151.0738 H   0  0  0  0  0  0  0  0  0  0  0  0
  142.2286  135.1065  152.2812 H   0  0  0  0  0  0  0  0  0  0  0  0
  142.5876  135.3686  153.9807 H   0  0  0  0  0  0  0  0  0  0  0  0
  142.9218  133.8220  153.2423 H   0  0  0  0  0  0  0  0  0  0  0  0
  143.4019  137.2140  151.8873 H   0  0  0  0  0  0  0  0  0  0  0  0
  145.1144  137.4079  152.1848 H   0  0  0  0  0  0  0  0  0  0  0  0
  143.9933  137.3986  153.5349 H   0  0  0  0  0  0  0  0  0  0  0  0
  150.1977  139.1146  153.1955 H   0  0  0  0  0  0  0  0  0  0  0  0
  1  2  1  0  0  0  0
  1 23  1  0  0  0  0
  1 24  1  0  0  0  0
  1 25  1  0  0  0  0
  2  3  1  0  0  0  0
  2  4  1  0  0  0  0
  3 26  1  0  0  0  0
  3 27  1  0  0  0  0
  3 28  1  0  0  0  0
  4 22  1  0  0  0  0
  4  5  2  0  0  0  0
  5  6  1  0  0  0  0
  6  7  2  0  0  0  0
  6 29  1  0  0  0  0
  7  8  1  0  0  0  0
  7 21  1  0  0  0  0
  8  9  1  0  0  0  0
  8 30  1  0  0  0  0
  9 10  2  0  0  0  0
  9 11  1  0  0  0  0
 11 12  1  0  0  0  0
 11 31  1  0  0  0  0
 12 18  1  0  0  0  0
 12 13  1  0  0  0  0
 12 32  1  0  0  0  0
 13 17  1  0  0  0  0
 13 14  1  0  0  0  0
 13 33  1  0  0  0  0
 14 15  1  0  0  0  0
 14 34  1  0  0  0  0
 14 35  1  0  0  0  0
 15 16  1  0  0  0  0
 15 36  1  0  0  0  0
 15 37  1  0  0  0  0
 16 17  1  0  0  0  0
 17 18  1  0  0  0  0
 17 38  1  0  0  0  0
 18 19  1  0  0  0  0
 18 20  1  0  0  0  0
 19 39  1  0  0  0  0
 19 40  1  0  0  0  0
 19 41  1  0  0  0  0
 20 42  1  0  0  0  0
 20 43  1  0  0  0  0
 20 44  1  0  0  0  0
 21 22  2  0  0  0  0
 21 45  1  0  0  0  0
M  END
> <s_m_source_file>
AV-unprocessed.smi

> <i_m_source_file_index>
2693

> <i_lp_mmshare_version>
43012

> <i_f3d_flags>
0

> <s_epik_input>
W0NIM11OKFtDSDNdKWMxbltjSF1jKFtjSF1uMSlbTkhdQyg9TylbTkhdW0NASF0yQyhbQ0gzXSkoW0NIM10pW0NAQEhdKFtDQEhdMjMpT1tDSDJdW0NIMl0z

> <s_epik_cmdline>
J2VwaWtfcHl0aG9uJywgJy1waCcsICc3LjAnLCAnLXRuJywgJzgnLCAnLW1hJywgJzIwMCcsICctbWV0YWxfYmluZGluZycsICctaW1hZScsICc8aW5maWxlLm1hZT4nLCAnLW9tYWUnLCAnPG91dGZpbGUubWFlPic=

> <r_lp_tautomer_probability>
1

> <r_epik_Ionization_Penalty>
0.00031779

> <r_epik_Ionization_Penalty_Charging>
0

> <r_epik_Ionization_Penalty_Neutral>
0.00031779

> <r_epik_State_Penalty>
-0

> <r_epik_Charging_Adjusted_Penalty>
0

> <i_epik_Tot_Q>
0

> <i_epik_Tot_abs_Q>
0

> <r_epik_Metal_State_Penalty>
-0

> <b_epik_Metal_Only>
0

> <s_lp_Force_Field>
OPLS_2005

> <r_lp_Energy>
57.3168

> <b_lp_Chiralities_Consistent>
1

> <s_lp_Variant>
AV-unprocessed.smi:2693-1

> <Gold.Version>
5.8.1

> <Gold.Id.Protein>
6NUR|6NUR_protein|mol2

> <Gold.PLP.Fitness>
37.7628

> <Gold.PLP.PLP>
-28.7072

> <Gold.PLP.part.hbond>
-2.9150

> <Gold.PLP.part.metal>
0.0000

> <Gold.PLP.part.buried>
-4.4766

> <Gold.PLP.part.nonpolar>
-22.0262

> <Gold.PLP.part.repulsive>
0.2252

> <Gold.PLP.ligand.clash>
0.0000

> <Gold.PLP.ligand.torsion>
1.1864

> <Gold.PLP.Chemscore.Hbond>
2.7212

> <Gold.PLP.Chemscore.CHOScore>
1.0000

> <Gold.PLP.Chemscore.Metal>
0.0000

> <Gold.Chemscore.Hbonds>
donor molecule, donor type, donor heavy atom, donor atom, acceptor molecule, acceptor atom, score
      L1  H     8    30       P1  7948  0.98
      L1  H    11    31       P1  7948  0.88
      P1  H  7989  7998       L1    22  0.80
      L1  C    21    45       P1  7957  1.00

> <Gold.PLP.Chemscore.Internal.Correction>
0.2646

> <Gold.Rescore>
     Score         DG    S(hbond)    S(metal)    S(lipo)     H(rot)  DE(clash)    DE(int)     intcor
     14.45     -16.92       1.99        0.00      62.80       1.00       0.02       2.45       ----

> <Gold.Chemscore.Fitness>
14.4478

> <Gold.Chemscore.DG>
-16.9198

> <Gold.Chemscore.ZeroCoef>
-5.4800

> <Gold.Chemscore.Hbond>
1.9915

> <Gold.Chemscore.Metal>
0.0000

> <Gold.Chemscore.Lipo>
62.8042

> <Gold.Chemscore.Internal_Hbond>
0.0000

> <Gold.Chemscore.DEClash>
0.0211

> <Gold.Chemscore.DEInternal>
2.4509

> <Gold.Chemscore.Rot>
1.0000

> <Gold.Chemscore.Internal.Correction>
   9.000000E+99

> <Gold.Chemscore.Hbonds>
donor molecule, donor type, donor heavy atom, donor atom, acceptor molecule, acceptor atom, score
      L1  H     8    30       P1  7948  0.91
      L1  H    11    31       P1  7948  0.86
      P1  H  7989  7998       L1    22  0.11

> <Gold.Chemscore.Hbond.Weighted>
-6.6517

> <Gold.Chemscore.Metal.Weighted>
-0.0000

> <Gold.Chemscore.Lipo.Weighted>
-7.3481

> <Gold.Chemscore.Internal_Hbond.Weighted>
0.0000

> <Gold.Chemscore.DEClash.Weighted>
0.0211

> <Gold.Chemscore.DEInternal.Weighted>
2.4509

> <Gold.Chemscore.Rot.Weighted>
2.5600

> <Gold.Chemscore.Internal.Correction.Weighted>
   9.000000E+99

> <Gold.Protein.RotatedTorsions>
[ 6907 6896 6895 6894 ] final  110.06 input  -60.11 | X-H torsion
[ 7974 7965 7964 7962 ] final  -12.45 input  175.53 | X-H torsion
[ 8008 7997 7996 7995 ] final  141.19 input   59.86 | X-H torsion
[ 10167 10162 10161 10158 ] final   78.69 input  -65.29 | X-H torsion
[ 10718 10713 10712 10709 ] final   51.98 input   66.30 | X-H torsion
[ 10763 10752 10751 10750 ] final  -26.89 input  -60.55 | X-H torsion
[ 11005 11000 10999 10996 ] final  -78.45 input  -57.11 | X-H torsion

> <Gold.Protein.ActiveResidues>
 VAL166  LYS551  ARG553  GLY616  TRP617  ASP618  TYR619  PRO620  LYS621  CYS622 
 ASP623  PHE694  ASN695  SER759  ASP760  ASP761  ALA762  ILE779  LEU786  VAL792 
 PHE793  MET794  SER795  GLU796  ALA797  LYS798  CYS799  TRP800  GLU811  SER814 

> <Gold.Protein.RotatedAtoms>
  152.5038  133.8855  159.7367 H   0  0  0  0  0  0  0  0  0  0  0  0  # atno 6907 bound_to 6896
  150.9306  133.6762  159.2818 H   0  0  0  0  0  0  0  0  0  0  0  0  # atno 6908 bound_to 6896
  151.4108  135.0989  159.9637 H   0  0  0  0  0  0  0  0  0  0  0  0  # atno 6909 bound_to 6896
  146.2151  140.3059  142.8379 H   0  0  0  0  0  0  0  0  0  0  0  0  # atno 7974 bound_to 7965
  156.2969  140.2321  156.4524 H   0  0  0  0  0  0  0  0  0  0  0  0  # atno 8008 bound_to 7997
  154.8090  140.0444  157.1349 H   0  0  0  0  0  0  0  0  0  0  0  0  # atno 8009 bound_to 7997
  154.9445  140.3034  155.5108 H   0  0  0  0  0  0  0  0  0  0  0  0  # atno 8010 bound_to 7997
  139.9682  144.5913  150.8009 H   0  0  0  0  0  0  0  0  0  0  0  0  # atno 10167 bound_to 10162
  157.5032  130.8451  149.8342 H   0  0  0  0  0  0  0  0  0  0  0  0  # atno 10718 bound_to 10713
  153.7232  135.6943  153.5007 H   0  0  0  0  0  0  0  0  0  0  0  0  # atno 10763 bound_to 10752
  153.2189  135.4377  155.0465 H   0  0  0  0  0  0  0  0  0  0  0  0  # atno 10764 bound_to 10752
  154.8277  135.3455  154.6765 H   0  0  0  0  0  0  0  0  0  0  0  0  # atno 10765 bound_to 10752
  141.1665  133.7064  156.7974 H   0  0  0  0  0  0  0  0  0  0  0  0  # atno 11005 bound_to 11000
  144.9023  140.7658  143.5859 LP  0  0  0  0  0  0  0  0  0  0  0  0  # atno 17320 bound_to 7965
  145.2986  139.1858  143.4702 LP  0  0  0  0  0  0  0  0  0  0  0  0  # atno 17321 bound_to 7965
  140.7531  143.3002  151.3101 LP  0  0  0  0  0  0  0  0  0  0  0  0  # atno 17342 bound_to 10162
  139.6501  144.0378  152.2620 LP  0  0  0  0  0  0  0  0  0  0  0  0  # atno 17343 bound_to 10162
  156.0242  130.3785  150.1872 LP  0  0  0  0  0  0  0  0  0  0  0  0  # atno 17370 bound_to 10713
  157.0062  130.9937  151.3378 LP  0  0  0  0  0  0  0  0  0  0  0  0  # atno 17371 bound_to 10713
  140.2281  134.8706  157.3448 LP  0  0  0  0  0  0  0  0  0  0  0  0  # atno 17394 bound_to 11000
  140.1919  134.4362  155.7711 LP  0  0  0  0  0  0  0  0  0  0  0  0  # atno 17395 bound_to 11000

$$$$
