AV-unprocessed.smi:341|AV-procd|sdf|2383|dock1
  -GOLD-   2262022303D 1   1.00000     0.00000
 Structure written by MMmdl.
 44 46  0  0  0  0  0  0  0  0  1 V2000
  151.4281  144.1156  157.4593 C   0  0  0  0  0  0  0  0  0  0  0  0
  150.9494  142.6983  157.7985 C   0  0  0  0  0  0  0  0  0  0  0  0
  151.9287  141.9927  158.6213 N   0  0  0  0  0  0  0  0  0  0  0  0
  152.5709  140.8435  158.3051 C   0  0  0  0  0  0  0  0  0  0  0  0
  152.4467  140.2098  157.2573 O   0  0  0  0  0  0  0  0  0  0  0  0
  153.3728  140.5102  159.3441 N   0  0  0  0  0  0  0  0  0  0  0  0
  154.2507  139.3433  159.4268 C   0  0  0  0  0  0  0  0  0  0  0  0
  153.4698  138.0261  159.2421 C   0  0  1  0  0  0  0  0  0  0  0  0
  153.2909  137.8206  157.8546 O   0  0  0  0  0  0  0  0  0  0  0  0
  154.2503  136.8171  159.7847 C   0  0  0  0  0  0  0  0  0  0  0  0
  153.6564  136.3995  161.0070 O   0  0  0  0  0  0  0  0  0  0  0  0
  154.1693  136.8950  162.1865 C   0  0  0  0  0  0  0  0  0  0  0  0
  154.8013  138.1541  162.1295 C   0  0  0  0  0  0  0  0  0  0  0  0
  155.3546  138.7378  163.2854 C   0  0  0  0  0  0  0  0  0  0  0  0
  155.2811  138.0631  164.5196 C   0  0  0  0  0  0  0  0  0  0  0  0
  155.8512  138.6624  165.7145 C   0  0  0  0  0  0  0  0  0  0  0  0
  156.3051  139.1396  166.6658 N   0  0  0  0  0  0  0  0  0  0  0  0
  154.6521  136.8044  164.5903 C   0  0  0  0  0  0  0  0  0  0  0  0
  154.0993  136.2221  163.4327 C   0  0  0  0  0  0  0  0  0  0  0  0
  153.2372  141.4722  160.3555 C   0  0  0  0  0  0  0  0  0  0  0  0
  153.8467  141.5813  161.6179 C   0  0  0  0  0  0  0  0  0  0  0  0
  153.4865  142.6919  162.4164 C   0  0  0  0  0  0  0  0  0  0  0  0
  152.5472  143.6482  161.9505 C   0  0  0  0  0  0  0  0  0  0  0  0
  151.9494  143.5149  160.6754 C   0  0  0  0  0  0  0  0  0  0  0  0
  152.3270  142.4037  159.9015 C   0  0  0  0  0  0  0  0  0  0  0  0
  150.6926  144.6374  156.8472 H   0  0  0  0  0  0  0  0  0  0  0  0
  152.3663  144.0927  156.9040 H   0  0  0  0  0  0  0  0  0  0  0  0
  151.5870  144.7055  158.3626 H   0  0  0  0  0  0  0  0  0  0  0  0
  149.9917  142.7457  158.3189 H   0  0  0  0  0  0  0  0  0  0  0  0
  150.7674  142.1356  156.8825 H   0  0  0  0  0  0  0  0  0  0  0  0
  155.0711  139.4189  158.7120 H   0  0  0  0  0  0  0  0  0  0  0  0
  154.7212  139.3563  160.4112 H   0  0  0  0  0  0  0  0  0  0  0  0
  152.5013  138.0888  159.7403 H   0  0  0  0  0  0  0  0  0  0  0  0
  153.6884  136.9961  157.6200 H   0  0  0  0  0  0  0  0  0  0  0  0
  154.2761  136.0101  159.0499 H   0  0  0  0  0  0  0  0  0  0  0  0
  155.2802  137.1120  159.9919 H   0  0  0  0  0  0  0  0  0  0  0  0
  154.8623  138.6794  161.1875 H   0  0  0  0  0  0  0  0  0  0  0  0
  155.8339  139.7041  163.2176 H   0  0  0  0  0  0  0  0  0  0  0  0
  154.5897  136.2778  165.5320 H   0  0  0  0  0  0  0  0  0  0  0  0
  153.6264  135.2567  163.5282 H   0  0  0  0  0  0  0  0  0  0  0  0
  154.5609  140.8513  161.9684 H   0  0  0  0  0  0  0  0  0  0  0  0
  153.9316  142.8126  163.3929 H   0  0  0  0  0  0  0  0  0  0  0  0
  152.2854  144.4880  162.5768 H   0  0  0  0  0  0  0  0  0  0  0  0
  151.2332  144.2390  160.3164 H   0  0  0  0  0  0  0  0  0  0  0  0
  1  2  1  0  0  0  0
  1 26  1  0  0  0  0
  1 27  1  0  0  0  0
  1 28  1  0  0  0  0
  2  3  1  0  0  0  0
  2 29  1  0  0  0  0
  2 30  1  0  0  0  0
  3 25  1  0  0  0  0
  3  4  1  0  0  0  0
  4  5  2  0  0  0  0
  4  6  1  0  0  0  0
  6  7  1  0  0  0  0
  6 20  1  0  0  0  0
  7  8  1  0  0  0  0
  7 31  1  0  0  0  0
  7 32  1  0  0  0  0
  8  9  1  0  0  0  0
  8 10  1  0  0  0  0
  8 33  1  0  0  0  0
  9 34  1  0  0  0  0
 10 11  1  0  0  0  0
 10 35  1  0  0  0  0
 10 36  1  0  0  0  0
 11 12  1  0  0  0  0
 12 19  1  0  0  0  0
 12 13  2  0  0  0  0
 13 14  1  0  0  0  0
 13 37  1  0  0  0  0
 14 15  2  0  0  0  0
 14 38  1  0  0  0  0
 15 16  1  0  0  0  0
 15 18  1  0  0  0  0
 16 17  3  0  0  0  0
 18 19  2  0  0  0  0
 18 39  1  0  0  0  0
 19 40  1  0  0  0  0
 20 25  2  0  0  0  0
 20 21  1  0  0  0  0
 21 22  2  0  0  0  0
 21 41  1  0  0  0  0
 22 23  1  0  0  0  0
 22 42  1  0  0  0  0
 23 24  2  0  0  0  0
 23 43  1  0  0  0  0
 24 25  1  0  0  0  0
 24 44  1  0  0  0  0
M  END
> <s_m_source_file>
AV-unprocessed.smi

> <i_m_source_file_index>
341

> <i_lp_mmshare_version>
43012

> <i_f3d_flags>
0

> <s_epik_input>
W2NIXTFbY0hdW2NIXVtjSF1jKGMxMiluKFtDSDJdW0NIM10pYyg9TyluMltDSDJdW0NASF0oW09IXSlbQ0gyXU9jM1tjSF1bY0hdYyhDI04pW2NIXVtjSF0z

> <s_epik_cmdline>
J2VwaWtfcHl0aG9uJywgJy1waCcsICc3LjAnLCAnLXRuJywgJzgnLCAnLW1hJywgJzIwMCcsICctbWV0YWxfYmluZGluZycsICctaW1hZScsICc8aW5maWxlLm1hZT4nLCAnLW9tYWUnLCAnPG91dGZpbGUubWFlPic=

> <r_lp_tautomer_probability>
1

> <r_epik_Ionization_Penalty>
2.40146e-06

> <r_epik_Ionization_Penalty_Charging>
2.16099e-09

> <r_epik_Ionization_Penalty_Neutral>
2.3993e-06

> <r_epik_State_Penalty>
-0

> <r_epik_Charging_Adjusted_Penalty>
2.16099e-09

> <i_epik_Tot_Q>
0

> <i_epik_Tot_abs_Q>
0

> <r_epik_Metal_State_Penalty>
-0

> <b_epik_Metal_Only>
0

> <s_lp_Force_Field>
OPLS_2005

> <r_lp_Energy>
47.9836

> <b_lp_Chiralities_Consistent>
1

> <s_lp_Variant>
AV-unprocessed.smi:341-2

> <Gold.Version>
5.8.1

> <Gold.Id.Protein>
6NUR|6NUR_protein|mol2

> <Gold.PLP.Fitness>
57.9755

> <Gold.PLP.PLP>
-55.6344

> <Gold.PLP.part.hbond>
-2.5825

> <Gold.PLP.part.metal>
0.0000

> <Gold.PLP.part.buried>
-3.6887

> <Gold.PLP.part.nonpolar>
-48.8928

> <Gold.PLP.part.repulsive>
0.0998

> <Gold.PLP.ligand.clash>
0.0000

> <Gold.PLP.ligand.torsion>
1.4314

> <Gold.PLP.Chemscore.Hbond>
1.6175

> <Gold.PLP.Chemscore.CHOScore>
0.0000

> <Gold.PLP.Chemscore.Metal>
0.0000

> <Gold.Chemscore.Hbonds>
donor molecule, donor type, donor heavy atom, donor atom, acceptor molecule, acceptor atom, score
      P1  H  6896  6909       L1    11  0.34
      P1  H  7997  8010       L1     5  1.00

> <Gold.PLP.Chemscore.Internal.Correction>
0.3513

> <Gold.Rescore>
     Score         DG    S(hbond)    S(metal)    S(lipo)     H(rot)  DE(clash)    DE(int)     intcor
     16.13     -20.67       1.30        0.00     146.81       2.48       2.24       2.29       ----

> <Gold.Chemscore.Fitness>
16.1345

> <Gold.Chemscore.DG>
-20.6708

> <Gold.Chemscore.ZeroCoef>
-5.4800

> <Gold.Chemscore.Hbond>
1.3037

> <Gold.Chemscore.Metal>
0.0000

> <Gold.Chemscore.Lipo>
146.8145

> <Gold.Chemscore.Internal_Hbond>
0.0000

> <Gold.Chemscore.DEClash>
2.2443

> <Gold.Chemscore.DEInternal>
2.2920

> <Gold.Chemscore.Rot>
2.4768

> <Gold.Chemscore.Internal.Correction>
   9.000000E+99

> <Gold.Chemscore.Hbonds>
donor molecule, donor type, donor heavy atom, donor atom, acceptor molecule, acceptor atom, score
      P1  H  6896  6909       L1    11  0.05
      P1  H  7997  8010       L1     5  0.31

> <Gold.Chemscore.Hbond.Weighted>
-4.3542

> <Gold.Chemscore.Metal.Weighted>
-0.0000

> <Gold.Chemscore.Lipo.Weighted>
-17.1773

> <Gold.Chemscore.Internal_Hbond.Weighted>
0.0000

> <Gold.Chemscore.DEClash.Weighted>
2.2443

> <Gold.Chemscore.DEInternal.Weighted>
2.2920

> <Gold.Chemscore.Rot.Weighted>
6.3407

> <Gold.Chemscore.Internal.Correction.Weighted>
   9.000000E+99

> <Gold.Protein.RotatedTorsions>
[ 6907 6896 6895 6894 ] final  156.56 input  -60.11 | X-H torsion
[ 7974 7965 7964 7962 ] final  -30.33 input  175.53 | X-H torsion
[ 8008 7997 7996 7995 ] final   62.99 input   59.86 | X-H torsion
[ 10167 10162 10161 10158 ] final  -52.90 input  -65.29 | X-H torsion
[ 10718 10713 10712 10709 ] final -170.75 input   66.30 | X-H torsion
[ 10763 10752 10751 10750 ] final -152.47 input  -60.55 | X-H torsion
[ 11005 11000 10999 10996 ] final  177.65 input  -57.11 | X-H torsion

> <Gold.Protein.ActiveResidues>
 VAL166  LYS551  ARG553  GLY616  TRP617  ASP618  TYR619  PRO620  LYS621  CYS622 
 ASP623  PHE694  ASN695  SER759  ASP760  ASP761  ALA762  ILE779  LEU786  VAL792 
 PHE793  MET794  SER795  GLU796  ALA797  LYS798  CYS799  TRP800  GLU811  SER814 

> <Gold.Protein.RotatedAtoms>
  152.0279  133.3925  159.4284 H   0  0  0  0  0  0  0  0  0  0  0  0  # atno 6907 bound_to 6896
  150.6884  134.3554  159.4936 H   0  0  0  0  0  0  0  0  0  0  0  0  # atno 6908 bound_to 6896
  152.1336  134.9116  160.0608 H   0  0  0  0  0  0  0  0  0  0  0  0  # atno 6909 bound_to 6896
  146.1151  140.5526  142.8760 H   0  0  0  0  0  0  0  0  0  0  0  0  # atno 7974 bound_to 7965
  155.6231  140.3496  155.4658 H   0  0  0  0  0  0  0  0  0  0  0  0  # atno 8008 bound_to 7997
  156.0063  140.1224  157.0522 H   0  0  0  0  0  0  0  0  0  0  0  0  # atno 8009 bound_to 7997
  154.4265  140.1090  156.5753 H   0  0  0  0  0  0  0  0  0  0  0  0  # atno 8010 bound_to 7997
  140.6513  143.2568  151.4715 H   0  0  0  0  0  0  0  0  0  0  0  0  # atno 10167 bound_to 10162
  156.7307  130.9305  151.3104 H   0  0  0  0  0  0  0  0  0  0  0  0  # atno 10718 bound_to 10713
  154.7991  135.3235  154.7593 H   0  0  0  0  0  0  0  0  0  0  0  0  # atno 10763 bound_to 10752
  153.8265  135.6883  153.4824 H   0  0  0  0  0  0  0  0  0  0  0  0  # atno 10764 bound_to 10752
  153.1699  135.4627  154.9830 H   0  0  0  0  0  0  0  0  0  0  0  0  # atno 10765 bound_to 10752
  140.3864  134.6901  157.4481 H   0  0  0  0  0  0  0  0  0  0  0  0  # atno 11005 bound_to 11000
  144.7546  140.5275  143.6778 LP  0  0  0  0  0  0  0  0  0  0  0  0  # atno 17320 bound_to 7965
  145.5583  139.1478  143.3355 LP  0  0  0  0  0  0  0  0  0  0  0  0  # atno 17321 bound_to 7965
  139.5728  144.1887  152.1861 LP  0  0  0  0  0  0  0  0  0  0  0  0  # atno 17342 bound_to 10162
  140.1189  144.5391  150.6876 LP  0  0  0  0  0  0  0  0  0  0  0  0  # atno 17343 bound_to 10162
  157.6860  130.9186  150.0387 LP  0  0  0  0  0  0  0  0  0  0  0  0  # atno 17370 bound_to 10713
  156.1531  130.3642  149.9409 LP  0  0  0  0  0  0  0  0  0  0  0  0  # atno 17371 bound_to 10713
  140.0440  134.6227  155.8945 LP  0  0  0  0  0  0  0  0  0  0  0  0  # atno 17394 bound_to 11000
  141.1906  133.6569  156.5419 LP  0  0  0  0  0  0  0  0  0  0  0  0  # atno 17395 bound_to 11000

$$$$
