AV-unprocessed.smi:609|AV-procd|sdf|3052|dock8
  -GOLD-   2262023573D 1   1.00000     0.00000
 Structure written by MMmdl.
 43 45  0  0  0  0  0  0  0  0  2 V2000
  152.3268  139.7715  156.4582 C   0  0  0  0  0  0  0  0  0  0  0  0
  151.0567  139.9037  155.6350 C   0  0  0  0  0  0  0  0  0  0  0  0
  150.3896  141.1493  155.6189 C   0  0  0  0  0  0  0  0  0  0  0  0
  149.2313  141.2389  154.8560 C   0  0  0  0  0  0  0  0  0  0  0  0
  148.3627  142.3100  154.6356 N   0  3  0  0  0  0  0  0  0  0  0  0
  147.3579  141.9165  153.8049 C   0  0  0  0  0  0  0  0  0  0  0  0
  147.5711  140.6097  153.4927 N   0  0  0  0  0  0  0  0  0  0  0  0
  146.7857  139.7129  152.6329 C   0  0  0  0  0  0  0  0  0  0  0  0
  146.1773  138.5276  153.4065 C   0  0  1  0  0  0  0  0  0  0  0  0
  145.1135  138.9765  154.2237 O   0  0  0  0  0  0  0  0  0  0  0  0
  145.6545  137.4318  152.4589 C   0  0  0  0  0  0  0  0  0  0  0  0
  145.0543  135.9575  153.3446 S   0  0  0  0  0  0  0  0  0  0  0  0
  145.7017  134.6804  152.3071 C   0  0  0  0  0  0  0  0  0  0  0  0
  146.5870  133.7624  152.6877 N   0  0  0  0  0  0  0  0  0  0  0  0
  146.8049  132.9801  151.5595 C   0  0  0  0  0  0  0  0  0  0  0  0
  146.0400  133.4563  150.5231 C   0  0  0  0  0  0  0  0  0  0  0  0
  145.3398  134.5487  151.0173 N   0  0  0  0  0  0  0  0  0  0  0  0
  144.4046  135.3702  150.2740 C   0  0  0  0  0  0  0  0  0  0  0  0
  148.7295  140.1438  154.1261 C   0  0  0  0  0  0  0  0  0  0  0  0
  149.3750  138.9095  154.1315 C   0  0  0  0  0  0  0  0  0  0  0  0
  150.5553  138.7979  154.9006 C   0  0  0  0  0  0  0  0  0  0  0  0
  151.2811  137.4634  154.9230 C   0  0  0  0  0  0  0  0  0  0  0  0
  152.6076  140.7215  156.9141 H   0  0  0  0  0  0  0  0  0  0  0  0
  153.1583  139.4453  155.8333 H   0  0  0  0  0  0  0  0  0  0  0  0
  152.1882  139.0443  157.2587 H   0  0  0  0  0  0  0  0  0  0  0  0
  150.7654  141.9956  156.1753 H   0  0  0  0  0  0  0  0  0  0  0  0
  146.5402  142.5305  153.4555 H   0  0  0  0  0  0  0  0  0  0  0  0
  146.0191  140.2875  152.1125 H   0  0  0  0  0  0  0  0  0  0  0  0
  147.4626  139.3403  151.8631 H   0  0  0  0  0  0  0  0  0  0  0  0
  146.9442  138.1140  154.0615 H   0  0  0  0  0  0  0  0  0  0  0  0
  144.4662  139.3888  153.6716 H   0  0  0  0  0  0  0  0  0  0  0  0
  144.8356  137.8237  151.8546 H   0  0  0  0  0  0  0  0  0  0  0  0
  146.4304  137.1291  151.7554 H   0  0  0  0  0  0  0  0  0  0  0  0
  147.4884  132.1441  151.5808 H   0  0  0  0  0  0  0  0  0  0  0  0
  145.9397  133.1180  149.5022 H   0  0  0  0  0  0  0  0  0  0  0  0
  144.3147  135.0063  149.2500 H   0  0  0  0  0  0  0  0  0  0  0  0
  144.7558  136.4021  150.2525 H   0  0  0  0  0  0  0  0  0  0  0  0
  143.4237  135.3339  150.7488 H   0  0  0  0  0  0  0  0  0  0  0  0
  148.9980  138.0694  153.5671 H   0  0  0  0  0  0  0  0  0  0  0  0
  150.7483  136.7095  154.3427 H   0  0  0  0  0  0  0  0  0  0  0  0
  151.3725  137.0936  155.9445 H   0  0  0  0  0  0  0  0  0  0  0  0
  152.2805  137.5650  154.4994 H   0  0  0  0  0  0  0  0  0  0  0  0
  148.4478  143.2418  155.0208 H   0  0  0  0  0  0  0  0  0  0  0  0
  1  2  1  0  0  0  0
  1 23  1  0  0  0  0
  1 24  1  0  0  0  0
  1 25  1  0  0  0  0
  2 21  1  0  0  0  0
  2  3  2  0  0  0  0
  3  4  1  0  0  0  0
  3 26  1  0  0  0  0
  4 19  2  0  0  0  0
  4  5  1  0  0  0  0
  5  6  2  0  0  0  0
  5 43  1  0  0  0  0
  6  7  1  0  0  0  0
  6 27  1  0  0  0  0
  7  8  1  0  0  0  0
  7 19  1  0  0  0  0
  8  9  1  0  0  0  0
  8 28  1  0  0  0  0
  8 29  1  0  0  0  0
  9 10  1  0  0  0  0
  9 11  1  0  0  0  0
  9 30  1  0  0  0  0
 10 31  1  0  0  0  0
 11 12  1  0  0  0  0
 11 32  1  0  0  0  0
 11 33  1  0  0  0  0
 12 13  1  0  0  0  0
 13 17  1  0  0  0  0
 13 14  2  0  0  0  0
 14 15  1  0  0  0  0
 15 16  2  0  0  0  0
 15 34  1  0  0  0  0
 16 17  1  0  0  0  0
 16 35  1  0  0  0  0
 17 18  1  0  0  0  0
 18 36  1  0  0  0  0
 18 37  1  0  0  0  0
 18 38  1  0  0  0  0
 19 20  1  0  0  0  0
 20 21  2  0  0  0  0
 20 39  1  0  0  0  0
 21 22  1  0  0  0  0
 22 40  1  0  0  0  0
 22 41  1  0  0  0  0
 22 42  1  0  0  0  0
M  CHG  1   5   1
M  END
> <s_m_source_file>
AV-unprocessed.smi

> <i_m_source_file_index>
609

> <i_lp_mmshare_version>
43012

> <i_f3d_flags>
0

> <s_epik_input>
W0NIM11jKFtjSF0xKWMoW0NIM10pW2NIXWMoYzEyKW4oW2NIXW4yKVtDSDJdW0NASF0oW09IXSlbQ0gyXVNjM25bY0hdW2NIXW4zW0NIM10=

> <s_epik_cmdline>
J2VwaWtfcHl0aG9uJywgJy1waCcsICc3LjAnLCAnLXRuJywgJzgnLCAnLW1hJywgJzIwMCcsICctbWV0YWxfYmluZGluZycsICctaW1hZScsICc8aW5maWxlLm1hZT4nLCAnLW9tYWUnLCAnPG91dGZpbGUubWFlPic=

> <r_epik_Ionization_Penalty>
2.09683

> <r_epik_Ionization_Penalty_Charging>
2.09682

> <r_epik_Ionization_Penalty_Neutral>
2.49751e-06

> <r_epik_State_Penalty>
2.21514

> <r_epik_Charging_Adjusted_Penalty>
4.31197

> <i_epik_Tot_Q>
1

> <i_epik_Tot_abs_Q>
1

> <r_epik_Metal_State_Penalty>
1.52634

> <b_epik_Metal_Only>
0

> <s_lp_Force_Field>
OPLS_2005

> <r_lp_Energy>
12.6573

> <b_lp_Chiralities_Consistent>
1

> <s_lp_Variant>
AV-unprocessed.smi:609-8

> <Gold.Version>
5.8.1

> <Gold.Id.Protein>
6NUR|6NUR_protein|mol2

> <Gold.PLP.Fitness>
55.2412

> <Gold.PLP.PLP>
-42.8174

> <Gold.PLP.part.hbond>
-2.0000

> <Gold.PLP.part.metal>
0.0000

> <Gold.PLP.part.buried>
1.9007

> <Gold.PLP.part.nonpolar>
-41.2461

> <Gold.PLP.part.repulsive>
0.3229

> <Gold.PLP.ligand.clash>
0.0000

> <Gold.PLP.ligand.torsion>
0.4020

> <Gold.PLP.Chemscore.Hbond>
3.0000

> <Gold.PLP.Chemscore.CHOScore>
1.3886

> <Gold.PLP.Chemscore.Metal>
0.0000

> <Gold.Chemscore.Hbonds>
donor molecule, donor type, donor heavy atom, donor atom, acceptor molecule, acceptor atom, score
      L1  H     5    43       P1  8028  2.00
      L1  H    10    31       P1 10175  1.00
      L1  C    15    34       P1 10747  1.00
      L1  C    16    35       P1  7921  0.38

> <Gold.PLP.Chemscore.Internal.Correction>
0.0619

> <Gold.Rescore>
     Score         DG    S(hbond)    S(metal)    S(lipo)     H(rot)  DE(clash)    DE(int)     intcor
     16.73     -17.27       1.99        0.00      98.32       2.48       0.12       0.41       ----

> <Gold.Chemscore.Fitness>
16.7318

> <Gold.Chemscore.DG>
-17.2684

> <Gold.Chemscore.ZeroCoef>
-5.4800

> <Gold.Chemscore.Hbond>
1.9851

> <Gold.Chemscore.Metal>
0.0000

> <Gold.Chemscore.Lipo>
98.3245

> <Gold.Chemscore.Internal_Hbond>
0.0000

> <Gold.Chemscore.DEClash>
0.1224

> <Gold.Chemscore.DEInternal>
0.4142

> <Gold.Chemscore.Rot>
2.4789

> <Gold.Chemscore.Internal.Correction>
   9.000000E+99

> <Gold.Chemscore.Hbonds>
donor molecule, donor type, donor heavy atom, donor atom, acceptor molecule, acceptor atom, score
      L1  H     5    43       P1  8028  1.00
      L1  H    10    31       P1 10175  1.00

> <Gold.Chemscore.Hbond.Weighted>
-6.6303

> <Gold.Chemscore.Metal.Weighted>
-0.0000

> <Gold.Chemscore.Lipo.Weighted>
-11.5040

> <Gold.Chemscore.Internal_Hbond.Weighted>
0.0000

> <Gold.Chemscore.DEClash.Weighted>
0.1224

> <Gold.Chemscore.DEInternal.Weighted>
0.4142

> <Gold.Chemscore.Rot.Weighted>
6.3459

> <Gold.Chemscore.Internal.Correction.Weighted>
   9.000000E+99

> <Gold.Protein.RotatedTorsions>
[ 6907 6896 6895 6894 ] final  -86.83 input  -60.11 | X-H torsion
[ 7974 7965 7964 7962 ] final -167.13 input  175.53 | X-H torsion
[ 8008 7997 7996 7995 ] final  151.95 input   59.86 | X-H torsion
[ 10167 10162 10161 10158 ] final   74.74 input  -65.29 | X-H torsion
[ 10718 10713 10712 10709 ] final   79.66 input   66.30 | X-H torsion
[ 10763 10752 10751 10750 ] final   69.36 input  -60.55 | X-H torsion
[ 11005 11000 10999 10996 ] final  151.84 input  -57.11 | X-H torsion

> <Gold.Protein.ActiveResidues>
 VAL166  LYS551  ARG553  GLY616  TRP617  ASP618  TYR619  PRO620  LYS621  CYS622 
 ASP623  PHE694  ASN695  SER759  ASP760  ASP761  ALA762  ILE779  LEU786  VAL792 
 PHE793  MET794  SER795  GLU796  ALA797  LYS798  CYS799  TRP800  GLU811  SER814 

> <Gold.Protein.RotatedAtoms>
  150.6866  134.2990  159.4698 H   0  0  0  0  0  0  0  0  0  0  0  0  # atno 6907 bound_to 6896
  152.0888  134.9419  160.0581 H   0  0  0  0  0  0  0  0  0  0  0  0  # atno 6908 bound_to 6896
  152.0743  133.4087  159.4510 H   0  0  0  0  0  0  0  0  0  0  0  0  # atno 6909 bound_to 6896
  144.7230  140.2564  143.6271 H   0  0  0  0  0  0  0  0  0  0  0  0  # atno 7974 bound_to 7965
  156.2651  140.2034  156.6256 H   0  0  0  0  0  0  0  0  0  0  0  0  # atno 8008 bound_to 7997
  154.6723  140.0549  157.0202 H   0  0  0  0  0  0  0  0  0  0  0  0  # atno 8009 bound_to 7997
  155.1120  140.3216  155.4522 H   0  0  0  0  0  0  0  0  0  0  0  0  # atno 8010 bound_to 7997
  140.0105  144.5618  150.7663 H   0  0  0  0  0  0  0  0  0  0  0  0  # atno 10167 bound_to 10162
  157.6783  130.9924  150.1965 H   0  0  0  0  0  0  0  0  0  0  0  0  # atno 10718 bound_to 10713
  153.0283  135.5213  154.7276 H   0  0  0  0  0  0  0  0  0  0  0  0  # atno 10763 bound_to 10752
  154.6313  135.2900  155.0215 H   0  0  0  0  0  0  0  0  0  0  0  0  # atno 10764 bound_to 10752
  154.1166  135.6614  153.4947 H   0  0  0  0  0  0  0  0  0  0  0  0  # atno 10765 bound_to 10752
  140.1255  134.8836  157.2131 H   0  0  0  0  0  0  0  0  0  0  0  0  # atno 11005 bound_to 11000
  145.8178  139.2030  143.1956 LP  0  0  0  0  0  0  0  0  0  0  0  0  # atno 17320 bound_to 7965
  146.0540  140.8039  142.9767 LP  0  0  0  0  0  0  0  0  0  0  0  0  # atno 17321 bound_to 7965
  140.7383  143.2777  151.3693 LP  0  0  0  0  0  0  0  0  0  0  0  0  # atno 17342 bound_to 10162
  139.6208  144.0910  152.2390 LP  0  0  0  0  0  0  0  0  0  0  0  0  # atno 17343 bound_to 10162
  156.2665  130.3717  149.8076 LP  0  0  0  0  0  0  0  0  0  0  0  0  # atno 17370 bound_to 10713
  156.5805  130.8464  151.3381 LP  0  0  0  0  0  0  0  0  0  0  0  0  # atno 17371 bound_to 10713
  140.2910  134.3241  155.7315 LP  0  0  0  0  0  0  0  0  0  0  0  0  # atno 17394 bound_to 11000
  141.2160  133.7534  156.9502 LP  0  0  0  0  0  0  0  0  0  0  0  0  # atno 17395 bound_to 11000

$$$$
