AV-unprocessed.smi:1053|AV-procd|sdf|4618|dock4
  -GOLD-   22720 3123D 1   1.00000     0.00000
 Structure written by MMmdl.
 38 39  0  0  0  0  0  0  0  0  2 V2000
  151.6002  138.0825  154.6763 C   0  0  0  0  0  0  0  0  0  0  0  0
  150.1534  138.5023  154.3796 C   0  0  0  0  0  0  0  0  0  0  0  0
  149.1914  137.3792  154.5380 N   0  3  2  0  0  0  0  0  0  0  0  0
  147.7716  137.8060  154.4944 C   0  0  0  0  0  0  0  0  0  0  0  0
  147.3378  138.4311  155.8321 C   0  0  0  0  0  0  0  0  0  0  0  0
  147.5687  137.5015  156.8831 O   0  0  0  0  0  0  0  0  0  0  0  0
  148.9462  137.1681  157.0271 C   0  0  1  0  0  0  0  0  0  0  0  0
  149.0836  136.2134  158.2206 C   0  0  0  0  0  0  0  0  0  0  0  0
  148.7332  136.8637  159.4743 N   0  0  0  0  0  0  0  0  0  0  0  0
  147.9521  136.2826  160.4546 C   0  0  0  0  0  0  0  0  0  0  0  0
  147.6581  137.0656  161.4947 N   0  0  0  0  0  0  0  0  0  0  0  0
  146.8948  136.5279  162.4709 C   0  0  0  0  0  0  0  0  0  0  0  0
  146.4260  135.2010  162.4013 C   0  0  0  0  0  0  0  0  0  0  0  0
  146.7990  134.4642  161.2549 C   0  0  0  0  0  0  0  0  0  0  0  0
  146.3663  133.0214  161.0425 C   0  0  0  0  0  0  0  0  0  0  0  0
  145.4667  132.6406  161.9502 F   0  0  0  0  0  0  0  0  0  0  0  0
  145.8269  132.8881  159.8309 F   0  0  0  0  0  0  0  0  0  0  0  0
  147.4254  132.2168  161.1330 F   0  0  0  0  0  0  0  0  0  0  0  0
  147.5646  135.0140  160.2838 N   0  0  0  0  0  0  0  0  0  0  0  0
  149.4341  136.5092  155.7178 C   0  0  0  0  0  0  0  0  0  0  0  0
  152.2887  138.8976  154.4526 H   0  0  0  0  0  0  0  0  0  0  0  0
  151.8949  137.2268  154.0681 H   0  0  0  0  0  0  0  0  0  0  0  0
  151.7451  137.8183  155.7233 H   0  0  0  0  0  0  0  0  0  0  0  0
  149.8687  139.3524  154.9992 H   0  0  0  0  0  0  0  0  0  0  0  0
  150.1194  138.8534  153.3476 H   0  0  0  0  0  0  0  0  0  0  0  0
  147.5994  138.4969  153.6683 H   0  0  0  0  0  0  0  0  0  0  0  0
  147.1559  136.9286  154.2920 H   0  0  0  0  0  0  0  0  0  0  0  0
  147.8684  139.3641  156.0272 H   0  0  0  0  0  0  0  0  0  0  0  0
  146.2749  138.6717  155.8044 H   0  0  0  0  0  0  0  0  0  0  0  0
  149.5256  138.0702  157.2299 H   0  0  0  0  0  0  0  0  0  0  0  0
  148.4565  135.3327  158.0759 H   0  0  0  0  0  0  0  0  0  0  0  0
  150.1144  135.8647  158.2946 H   0  0  0  0  0  0  0  0  0  0  0  0
  149.0292  137.8175  159.6234 H   0  0  0  0  0  0  0  0  0  0  0  0
  146.6565  137.1605  163.3132 H   0  0  0  0  0  0  0  0  0  0  0  0
  145.8158  134.7796  163.1862 H   0  0  0  0  0  0  0  0  0  0  0  0
  148.8913  135.5756  155.5622 H   0  0  0  0  0  0  0  0  0  0  0  0
  150.4857  136.2351  155.7921 H   0  0  0  0  0  0  0  0  0  0  0  0
  149.3291  136.8003  153.7215 H   0  0  0  0  0  0  0  0  0  0  0  0
  1  2  1  0  0  0  0
  1 21  1  0  0  0  0
  1 22  1  0  0  0  0
  1 23  1  0  0  0  0
  2  3  1  0  0  0  0
  2 24  1  0  0  0  0
  2 25  1  0  0  0  0
  3 20  1  0  0  0  0
  3  4  1  0  0  0  0
  3 38  1  0  0  0  0
  4  5  1  0  0  0  0
  4 26  1  0  0  0  0
  4 27  1  0  0  0  0
  5  6  1  0  0  0  0
  5 28  1  0  0  0  0
  5 29  1  0  0  0  0
  6  7  1  0  0  0  0
  7  8  1  0  0  0  0
  7 20  1  0  0  0  0
  7 30  1  0  0  0  0
  8  9  1  0  0  0  0
  8 31  1  0  0  0  0
  8 32  1  0  0  0  0
  9 10  1  0  0  0  0
  9 33  1  0  0  0  0
 10 19  1  0  0  0  0
 10 11  2  0  0  0  0
 11 12  1  0  0  0  0
 12 13  2  0  0  0  0
 12 34  1  0  0  0  0
 13 14  1  0  0  0  0
 13 35  1  0  0  0  0
 14 15  1  0  0  0  0
 14 19  2  0  0  0  0
 15 16  1  0  0  0  0
 15 17  1  0  0  0  0
 15 18  1  0  0  0  0
 20 36  1  0  0  0  0
 20 37  1  0  0  0  0
M  CHG  1   3   1
M  END
> <s_m_source_file>
AV-unprocessed.smi

> <i_m_source_file_index>
1053

> <i_lp_mmshare_version>
43012

> <i_f3d_flags>
0

> <s_epik_input>
W0NIM11bQ0gyXU4xW0NIMl1bQ0gyXU9bQ0BIXShbQ0gyXTEpW0NIMl1bTkhdYzJuW2NIXVtjSF1jKG4yKUMoRikoRilG

> <s_epik_cmdline>
J2VwaWtfcHl0aG9uJywgJy1waCcsICc3LjAnLCAnLXRuJywgJzgnLCAnLW1hJywgJzIwMCcsICctbWV0YWxfYmluZGluZycsICctaW1hZScsICc8aW5maWxlLm1hZT4nLCAnLW9tYWUnLCAnPG91dGZpbGUubWFlPic=

> <r_lp_tautomer_probability>
1

> <r_epik_Ionization_Penalty>
0.178506

> <r_epik_Ionization_Penalty_Charging>
0.178504

> <r_epik_Ionization_Penalty_Neutral>
2.47619e-06

> <r_epik_State_Penalty>
0.167974

> <r_epik_Charging_Adjusted_Penalty>
0.346478

> <i_epik_Tot_Q>
1

> <i_epik_Tot_abs_Q>
1

> <r_epik_Metal_State_Penalty>
0.167974

> <b_epik_Metal_Only>
0

> <s_lp_Force_Field>
OPLS_2005

> <r_lp_Energy>
12.5681

> <b_lp_Chiralities_Consistent>
1

> <s_lp_Variant>
AV-unprocessed.smi:1053-2

> <Gold.Version>
5.8.1

> <Gold.Id.Protein>
6NUR|6NUR_protein|mol2

> <Gold.PLP.Fitness>
40.4486

> <Gold.PLP.PLP>
-30.2166

> <Gold.PLP.part.hbond>
-3.0000

> <Gold.PLP.part.metal>
0.0000

> <Gold.PLP.part.buried>
-4.0261

> <Gold.PLP.part.nonpolar>
-23.8303

> <Gold.PLP.part.repulsive>
0.2184

> <Gold.PLP.ligand.clash>
0.0000

> <Gold.PLP.ligand.torsion>
0.4585

> <Gold.PLP.Chemscore.Hbond>
3.7040

> <Gold.PLP.Chemscore.CHOScore>
0.0000

> <Gold.PLP.Chemscore.Metal>
0.0000

> <Gold.Chemscore.Hbonds>
donor molecule, donor type, donor heavy atom, donor atom, acceptor molecule, acceptor atom, score
      L1  H     3    38       P1  7948  2.00
      P1  H  6931  6943       L1    11  1.00
      P1  H  6934  6947       L1    11  0.70

> <Gold.PLP.Chemscore.Internal.Correction>
0.0370

> <Gold.Rescore>
     Score         DG    S(hbond)    S(metal)    S(lipo)     H(rot)  DE(clash)    DE(int)     intcor
     15.84     -16.05       2.46        0.00      54.28       1.55       0.00       0.21       ----

> <Gold.Chemscore.Fitness>
15.8424

> <Gold.Chemscore.DG>
-16.0544

> <Gold.Chemscore.ZeroCoef>
-5.4800

> <Gold.Chemscore.Hbond>
2.4564

> <Gold.Chemscore.Metal>
0.0000

> <Gold.Chemscore.Lipo>
54.2789

> <Gold.Chemscore.Internal_Hbond>
0.0000

> <Gold.Chemscore.DEClash>
0.0048

> <Gold.Chemscore.DEInternal>
0.2072

> <Gold.Chemscore.Rot>
1.5549

> <Gold.Chemscore.Internal.Correction>
   9.000000E+99

> <Gold.Chemscore.Hbonds>
donor molecule, donor type, donor heavy atom, donor atom, acceptor molecule, acceptor atom, score
      L1  H     3    38       P1  7948  0.93
      P1  H  6931  6943       L1    11  0.81
      P1  H  6934  6947       L1    11  0.54

> <Gold.Chemscore.Hbond.Weighted>
-8.2043

> <Gold.Chemscore.Metal.Weighted>
-0.0000

> <Gold.Chemscore.Lipo.Weighted>
-6.3506

> <Gold.Chemscore.Internal_Hbond.Weighted>
0.0000

> <Gold.Chemscore.DEClash.Weighted>
0.0048

> <Gold.Chemscore.DEInternal.Weighted>
0.2072

> <Gold.Chemscore.Rot.Weighted>
3.9806

> <Gold.Chemscore.Internal.Correction.Weighted>
   9.000000E+99

> <Gold.Protein.RotatedTorsions>
[ 6907 6896 6895 6894 ] final   28.83 input  -60.11 | X-H torsion
[ 7974 7965 7964 7962 ] final -103.63 input  175.53 | X-H torsion
[ 8008 7997 7996 7995 ] final  174.80 input   59.86 | X-H torsion
[ 10167 10162 10161 10158 ] final   49.99 input  -65.29 | X-H torsion
[ 10718 10713 10712 10709 ] final   96.24 input   66.30 | X-H torsion
[ 10763 10752 10751 10750 ] final -102.51 input  -60.55 | X-H torsion
[ 11005 11000 10999 10996 ] final  118.59 input  -57.11 | X-H torsion

> <Gold.Protein.ActiveResidues>
 VAL166  LYS551  ARG553  GLY616  TRP617  ASP618  TYR619  PRO620  LYS621  CYS622 
 ASP623  PHE694  ASN695  SER759  ASP760  ASP761  ALA762  ILE779  LEU786  VAL792 
 PHE793  MET794  SER795  GLU796  ALA797  LYS798  CYS799  TRP800  GLU811  SER814 

> <Gold.Protein.RotatedAtoms>
  152.0227  134.9813  160.0570 H   0  0  0  0  0  0  0  0  0  0  0  0  # atno 6907 bound_to 6896
  152.1321  133.4409  159.4734 H   0  0  0  0  0  0  0  0  0  0  0  0  # atno 6908 bound_to 6896
  150.6857  134.2326  159.4483 H   0  0  0  0  0  0  0  0  0  0  0  0  # atno 6909 bound_to 6896
  145.2534  140.9245  143.3082 H   0  0  0  0  0  0  0  0  0  0  0  0  # atno 7974 bound_to 7965
  156.0936  140.1425  156.9560 H   0  0  0  0  0  0  0  0  0  0  0  0  # atno 8008 bound_to 7997
  154.4657  140.0927  156.7061 H   0  0  0  0  0  0  0  0  0  0  0  0  # atno 8009 bound_to 7997
  155.4878  140.3447  155.4352 H   0  0  0  0  0  0  0  0  0  0  0  0  # atno 8010 bound_to 7997
  140.2771  144.3199  150.6274 H   0  0  0  0  0  0  0  0  0  0  0  0  # atno 10167 bound_to 10162
  157.6929  131.0571  150.4461 H   0  0  0  0  0  0  0  0  0  0  0  0  # atno 10718 bound_to 10713
  154.7739  135.4858  153.9704 H   0  0  0  0  0  0  0  0  0  0  0  0  # atno 10763 bound_to 10752
  153.1403  135.6771  153.9045 H   0  0  0  0  0  0  0  0  0  0  0  0  # atno 10764 bound_to 10752
  153.8722  135.3142  155.3421 H   0  0  0  0  0  0  0  0  0  0  0  0  # atno 10765 bound_to 10752
  139.9115  134.9621  156.7527 H   0  0  0  0  0  0  0  0  0  0  0  0  # atno 11005 bound_to 11000
  144.9482  139.4112  143.6415 LP  0  0  0  0  0  0  0  0  0  0  0  0  # atno 17320 bound_to 7965
  146.3296  139.8477  142.8879 LP  0  0  0  0  0  0  0  0  0  0  0  0  # atno 17321 bound_to 7965
  140.5842  143.2171  151.7372 LP  0  0  0  0  0  0  0  0  0  0  0  0  # atno 17342 bound_to 10162
  139.4973  144.4035  152.0156 LP  0  0  0  0  0  0  0  0  0  0  0  0  # atno 17343 bound_to 10162
  156.4816  130.4075  149.6458 LP  0  0  0  0  0  0  0  0  0  0  0  0  # atno 17370 bound_to 10713
  156.3502  130.7428  151.2386 LP  0  0  0  0  0  0  0  0  0  0  0  0  # atno 17371 bound_to 10713
  140.6761  133.9516  155.7883 LP  0  0  0  0  0  0  0  0  0  0  0  0  # atno 17394 bound_to 11000
  141.0543  134.0439  157.3742 LP  0  0  0  0  0  0  0  0  0  0  0  0  # atno 17395 bound_to 11000

$$$$
