AV-unprocessed.smi:241|AV-procd|sdf|1843|dock4
  -GOLD-   2262020463D 1   1.00000     0.00000
 Structure written by MMmdl.
 54 57  0  0  0  0  0  0  0  0  1 V2000
  155.6274  140.1091  160.4032 C   0  0  0  0  0  0  0  0  0  0  0  0
  155.0097  139.7134  159.1915 O   0  0  0  0  0  0  0  0  0  0  0  0
  153.7091  139.1826  159.3927 C   0  0  0  0  0  0  0  0  0  0  0  0
  152.6726  140.3227  159.4083 C   0  0  1  0  0  0  0  0  0  0  0  0
  152.8914  141.3511  160.5286 C   0  0  0  0  0  0  0  0  0  0  0  0
  152.5559  142.7132  159.8980 C   0  0  2  0  0  0  0  0  0  0  0  0
  151.5640  143.4289  160.6196 O   0  0  0  0  0  0  0  0  0  0  0  0
  151.5504  144.8181  160.3328 C   0  0  0  0  0  0  0  0  0  0  0  0
  152.0370  142.3740  158.4990 C   0  0  0  0  0  0  0  0  0  0  0  0
  152.6348  141.0922  158.1677 N   0  0  0  0  0  0  0  0  0  0  0  0
  152.1693  140.5375  157.0196 C   0  0  0  0  0  0  0  0  0  0  0  0
  152.9861  139.7820  156.2377 N   0  0  0  0  0  0  0  0  0  0  0  0
  152.5248  139.2339  155.1100 C   0  0  0  0  0  0  0  0  0  0  0  0
  151.2999  139.3082  154.5869 N   0  0  0  0  0  0  0  0  0  0  0  0
  150.4730  140.0598  155.3691 C   0  0  0  0  0  0  0  0  0  0  0  0
  150.8244  140.7068  156.5876 C   0  0  0  0  0  0  0  0  0  0  0  0
  149.7284  141.3995  157.0882 N   0  0  0  0  0  0  0  0  0  0  0  0
  148.7843  141.1757  156.2152 C   0  0  0  0  0  0  0  0  0  0  0  0
  149.1370  140.3576  155.1655 N   0  0  0  0  0  0  0  0  0  0  0  0
  148.3130  139.9888  154.0524 C   0  0  0  0  0  0  0  0  0  0  0  0
  146.7963  139.8540  154.2005 C   0  0  0  0  0  0  0  0  0  0  0  0
  146.7992  138.7347  153.1338 C   0  0  0  0  0  0  0  0  0  0  0  0
  145.9052  137.5160  153.4208 C   0  0  0  0  0  0  0  0  0  0  0  0
  146.3003  136.3901  152.6655 O   0  0  0  0  0  0  0  0  0  0  0  0
  146.5944  139.1795  151.6703 C   0  0  0  0  0  0  0  0  0  0  0  0
  146.9843  138.1812  150.7496 O   0  0  0  0  0  0  0  0  0  0  0  0
  148.2812  138.5503  153.5303 C   0  0  0  0  0  0  0  0  0  0  0  0
  151.6840  139.8869  159.5609 H   0  0  0  0  0  0  0  0  0  0  0  0
  153.4660  143.3074  159.7960 H   0  0  0  0  0  0  0  0  0  0  0  0
  156.6188  140.5114  160.1953 H   0  0  0  0  0  0  0  0  0  0  0  0
  155.7434  139.2626  161.0810 H   0  0  0  0  0  0  0  0  0  0  0  0
  155.0481  140.8844  160.9061 H   0  0  0  0  0  0  0  0  0  0  0  0
  153.4772  138.4589  158.6107 H   0  0  0  0  0  0  0  0  0  0  0  0
  153.6742  138.6459  160.3419 H   0  0  0  0  0  0  0  0  0  0  0  0
  152.2559  141.1205  161.3844 H   0  0  0  0  0  0  0  0  0  0  0  0
  153.9228  141.3550  160.8824 H   0  0  0  0  0  0  0  0  0  0  0  0
  150.7761  145.3042  160.9261 H   0  0  0  0  0  0  0  0  0  0  0  0
  151.3286  144.9991  159.2804 H   0  0  0  0  0  0  0  0  0  0  0  0
  152.5030  145.2907  160.5749 H   0  0  0  0  0  0  0  0  0  0  0  0
  150.9505  142.2716  158.5047 H   0  0  0  0  0  0  0  0  0  0  0  0
  152.2996  143.1527  157.7829 H   0  0  0  0  0  0  0  0  0  0  0  0
  153.2391  138.6510  154.5475 H   0  0  0  0  0  0  0  0  0  0  0  0
  147.7968  141.6020  156.3175 H   0  0  0  0  0  0  0  0  0  0  0  0
  148.5616  140.6863  153.2508 H   0  0  0  0  0  0  0  0  0  0  0  0
  146.5028  139.4932  155.1883 H   0  0  0  0  0  0  0  0  0  0  0  0
  146.2359  140.7493  153.9310 H   0  0  0  0  0  0  0  0  0  0  0  0
  145.9175  137.2548  154.4794 H   0  0  0  0  0  0  0  0  0  0  0  0
  144.8654  137.7272  153.1700 H   0  0  0  0  0  0  0  0  0  0  0  0
  147.1139  136.5954  152.2294 H   0  0  0  0  0  0  0  0  0  0  0  0
  145.5487  139.4157  151.4730 H   0  0  0  0  0  0  0  0  0  0  0  0
  147.1539  140.0903  151.4550 H   0  0  0  0  0  0  0  0  0  0  0  0
  147.5535  137.5703  151.1923 H   0  0  0  0  0  0  0  0  0  0  0  0
  148.9603  138.3581  152.6988 H   0  0  0  0  0  0  0  0  0  0  0  0
  148.4280  137.8193  154.3277 H   0  0  0  0  0  0  0  0  0  0  0  0
  1  2  1  0  0  0  0
  1 30  1  0  0  0  0
  1 31  1  0  0  0  0
  1 32  1  0  0  0  0
  2  3  1  0  0  0  0
  3  4  1  0  0  0  0
  3 33  1  0  0  0  0
  3 34  1  0  0  0  0
  4 28  1  0  0  0  0
  4 10  1  0  0  0  0
  4  5  1  0  0  0  0
  5  6  1  0  0  0  0
  5 35  1  0  0  0  0
  5 36  1  0  0  0  0
  6 29  1  0  0  0  0
  6  7  1  0  0  0  0
  6  9  1  0  0  0  0
  7  8  1  0  0  0  0
  8 37  1  0  0  0  0
  8 38  1  0  0  0  0
  8 39  1  0  0  0  0
  9 10  1  0  0  0  0
  9 40  1  0  0  0  0
  9 41  1  0  0  0  0
 10 11  1  0  0  0  0
 11 16  1  0  0  0  0
 11 12  2  0  0  0  0
 12 13  1  0  0  0  0
 13 14  2  0  0  0  0
 13 42  1  0  0  0  0
 14 15  1  0  0  0  0
 15 19  1  0  0  0  0
 15 16  2  0  0  0  0
 16 17  1  0  0  0  0
 17 18  2  0  0  0  0
 18 19  1  0  0  0  0
 18 43  1  0  0  0  0
 19 20  1  0  0  0  0
 20 27  1  0  0  0  0
 20 21  1  0  0  0  0
 20 44  1  0  0  0  0
 21 22  1  0  0  0  0
 21 45  1  0  0  0  0
 21 46  1  0  0  0  0
 22 23  1  0  0  0  0
 22 25  1  0  0  0  0
 22 27  1  0  0  0  0
 23 24  1  0  0  0  0
 23 47  1  0  0  0  0
 23 48  1  0  0  0  0
 24 49  1  0  0  0  0
 25 26  1  0  0  0  0
 25 50  1  0  0  0  0
 25 51  1  0  0  0  0
 26 52  1  0  0  0  0
 27 53  1  0  0  0  0
 27 54  1  0  0  0  0
M  END
> <s_m_source_file>
AV-unprocessed.smi

> <i_m_source_file_index>
241

> <i_lp_mmshare_version>
43012

> <i_f3d_flags>
0

> <s_epik_input>
W0NIM11PW0NIMl1bQ0BASF0xW0NIMl1bQ0BASF0oT1tDSDNdKVtDSDJdTjFjKG5bY0hdbjIpYyhjMjMpbltjSF1uM1tDSF0oW0NIMl00KVtDSDJdQzQoW0NIMl1bT0hdKVtDSDJdW09IXQ==

> <s_epik_cmdline>
J2VwaWtfcHl0aG9uJywgJy1waCcsICc3LjAnLCAnLXRuJywgJzgnLCAnLW1hJywgJzIwMCcsICctbWV0YWxfYmluZGluZycsICctaW1hZScsICc8aW5maWxlLm1hZT4nLCAnLW9tYWUnLCAnPG91dGZpbGUubWFlPic=

> <r_lp_tautomer_probability>
1

> <r_epik_Ionization_Penalty>
0.00568677

> <r_epik_Ionization_Penalty_Charging>
0

> <r_epik_Ionization_Penalty_Neutral>
0.00568677

> <r_epik_State_Penalty>
0.00400877

> <r_epik_Charging_Adjusted_Penalty>
0.00400877

> <i_epik_Tot_Q>
0

> <i_epik_Tot_abs_Q>
0

> <r_epik_Metal_State_Penalty>
-0

> <b_epik_Metal_Only>
0

> <s_lp_Force_Field>
OPLS_2005

> <r_lp_Energy>
54.996

> <b_lp_Chiralities_Consistent>
1

> <s_lp_Variant>
AV-unprocessed.smi:241-4

> <Gold.Version>
5.8.1

> <Gold.Id.Protein>
6NUR|6NUR_protein|mol2

> <Gold.PLP.Fitness>
54.6671

> <Gold.PLP.PLP>
-44.7528

> <Gold.PLP.part.hbond>
-6.7031

> <Gold.PLP.part.metal>
0.0000

> <Gold.PLP.part.buried>
0.3296

> <Gold.PLP.part.nonpolar>
-37.9404

> <Gold.PLP.part.repulsive>
0.2582

> <Gold.PLP.ligand.clash>
0.0000

> <Gold.PLP.ligand.torsion>
1.7990

> <Gold.PLP.Chemscore.Hbond>
4.2880

> <Gold.PLP.Chemscore.CHOScore>
0.0000

> <Gold.PLP.Chemscore.Metal>
0.0000

> <Gold.Chemscore.Hbonds>
donor molecule, donor type, donor heavy atom, donor atom, acceptor molecule, acceptor atom, score
      L1  H    24    49       P1  7948  1.00
      L1  H    26    52       P1  7948  1.00
      P1  H  7989  7998       L1    14  0.40
      P1  H  7997  8009       L1     2  0.98
      P1  H  7997  8010       L1    12  0.84

> <Gold.PLP.Chemscore.Internal.Correction>
0.6483

> <Gold.Rescore>
     Score         DG    S(hbond)    S(metal)    S(lipo)     H(rot)  DE(clash)    DE(int)     intcor
     15.19     -19.18       3.56        0.00     102.43       3.97       0.82       3.17       ----

> <Gold.Chemscore.Fitness>
15.1895

> <Gold.Chemscore.DG>
-19.1792

> <Gold.Chemscore.ZeroCoef>
-5.4800

> <Gold.Chemscore.Hbond>
3.5585

> <Gold.Chemscore.Metal>
0.0000

> <Gold.Chemscore.Lipo>
102.4269

> <Gold.Chemscore.Internal_Hbond>
0.0000

> <Gold.Chemscore.DEClash>
0.8221

> <Gold.Chemscore.DEInternal>
3.1676

> <Gold.Chemscore.Rot>
3.9727

> <Gold.Chemscore.Internal.Correction>
   9.000000E+99

> <Gold.Chemscore.Hbonds>
donor molecule, donor type, donor heavy atom, donor atom, acceptor molecule, acceptor atom, score
      L1  H    24    49       P1  7948  0.96
      L1  H    26    52       P1  7948  0.96
      P1  H  7997  8009       L1     2  0.86
      P1  H  7997  8010       L1    12  0.54

> <Gold.Chemscore.Hbond.Weighted>
-11.8855

> <Gold.Chemscore.Metal.Weighted>
-0.0000

> <Gold.Chemscore.Lipo.Weighted>
-11.9839

> <Gold.Chemscore.Internal_Hbond.Weighted>
0.0000

> <Gold.Chemscore.DEClash.Weighted>
0.8221

> <Gold.Chemscore.DEInternal.Weighted>
3.1676

> <Gold.Chemscore.Rot.Weighted>
10.1702

> <Gold.Chemscore.Internal.Correction.Weighted>
   9.000000E+99

> <Gold.Protein.RotatedTorsions>
[ 6907 6896 6895 6894 ] final -163.84 input  -60.11 | X-H torsion
[ 7974 7965 7964 7962 ] final  133.74 input  175.53 | X-H torsion
[ 8008 7997 7996 7995 ] final   95.96 input   59.86 | X-H torsion
[ 10167 10162 10161 10158 ] final  105.15 input  -65.29 | X-H torsion
[ 10718 10713 10712 10709 ] final  -98.38 input   66.30 | X-H torsion
[ 10763 10752 10751 10750 ] final  -14.77 input  -60.55 | X-H torsion
[ 11005 11000 10999 10996 ] final -157.18 input  -57.11 | X-H torsion

> <Gold.Protein.ActiveResidues>
 VAL166  LYS551  ARG553  GLY616  TRP617  ASP618  TYR619  PRO620  LYS621  CYS622 
 ASP623  PHE694  ASN695  SER759  ASP760  ASP761  ALA762  ILE779  LEU786  VAL792 
 PHE793  MET794  SER795  GLU796  ALA797  LYS798  CYS799  TRP800  GLU811  SER814 

> <Gold.Protein.RotatedAtoms>
  151.4024  133.3753  159.2733 H   0  0  0  0  0  0  0  0  0  0  0  0  # atno 6907 bound_to 6896
  150.9424  134.8833  159.7631 H   0  0  0  0  0  0  0  0  0  0  0  0  # atno 6908 bound_to 6896
  152.5077  134.3975  159.9457 H   0  0  0  0  0  0  0  0  0  0  0  0  # atno 6909 bound_to 6896
  144.9834  139.4480  143.5375 H   0  0  0  0  0  0  0  0  0  0  0  0  # atno 7974 bound_to 7965
  156.0745  140.3279  155.7616 H   0  0  0  0  0  0  0  0  0  0  0  0  # atno 8008 bound_to 7997
  155.5253  140.0588  157.2916 H   0  0  0  0  0  0  0  0  0  0  0  0  # atno 8009 bound_to 7997
  154.4548  140.1937  156.0430 H   0  0  0  0  0  0  0  0  0  0  0  0  # atno 8010 bound_to 7997
  139.7117  144.7076  151.1016 H   0  0  0  0  0  0  0  0  0  0  0  0  # atno 10167 bound_to 10162
  156.0106  130.5235  150.6514 H   0  0  0  0  0  0  0  0  0  0  0  0  # atno 10718 bound_to 10713
  153.5333  135.7014  153.5673 H   0  0  0  0  0  0  0  0  0  0  0  0  # atno 10763 bound_to 10752
  153.3671  135.3954  155.1761 H   0  0  0  0  0  0  0  0  0  0  0  0  # atno 10764 bound_to 10752
  154.8682  135.3803  154.4831 H   0  0  0  0  0  0  0  0  0  0  0  0  # atno 10765 bound_to 10752
  140.6674  134.4284  157.5233 H   0  0  0  0  0  0  0  0  0  0  0  0  # atno 11005 bound_to 11000
  146.3414  139.9122  142.8778 LP  0  0  0  0  0  0  0  0  0  0  0  0  # atno 17320 bound_to 7965
  145.2388  141.0001  143.3948 LP  0  0  0  0  0  0  0  0  0  0  0  0  # atno 17321 bound_to 7965
  140.7734  143.5284  150.9452 LP  0  0  0  0  0  0  0  0  0  0  0  0  # atno 17342 bound_to 10162
  139.8969  143.6883  152.3137 LP  0  0  0  0  0  0  0  0  0  0  0  0  # atno 17343 bound_to 10162
  157.4275  131.0845  151.1071 LP  0  0  0  0  0  0  0  0  0  0  0  0  # atno 17370 bound_to 10713
  157.1655  130.6244  149.5624 LP  0  0  0  0  0  0  0  0  0  0  0  0  # atno 17371 bound_to 10713
  139.8993  134.8595  156.1967 LP  0  0  0  0  0  0  0  0  0  0  0  0  # atno 17394 bound_to 11000
  141.0418  133.6933  156.1612 LP  0  0  0  0  0  0  0  0  0  0  0  0  # atno 17395 bound_to 11000

$$$$
