AV-unprocessed.smi:212|AV-procd|sdf|1623|dock10
  -GOLD-   2262019563D 1   1.00000     0.00000
 Structure written by MMmdl.
 65 68  0  0  0  0  0  0  0  0  2 V2000
  146.6660  142.8122  155.1023 C   0  0  0  0  0  0  0  0  0  0  0  0
  146.8805  141.4750  155.8315 C   0  0  2  0  0  0  0  0  0  0  0  0
  147.6554  141.6502  157.1547 C   0  0  0  0  0  0  0  0  0  0  0  0
  149.0908  141.9550  156.9127 N   0  3  1  0  0  0  0  0  0  0  0  0
  149.8473  142.2580  158.1562 C   0  0  0  0  0  0  0  0  0  0  0  0
  150.9460  143.3253  157.9396 C   0  0  0  0  0  0  0  0  0  0  0  0
  151.8993  143.3540  159.1463 C   0  0  0  0  0  0  0  0  0  0  0  0
  151.7385  143.0934  156.6393 C   0  0  0  0  0  0  0  0  0  0  0  0
  150.3455  144.6034  157.8708 O   0  0  0  0  0  0  0  0  0  0  0  0
  149.7450  140.9260  156.0661 C   0  0  0  0  0  0  0  0  0  0  0  0
  148.9822  140.7333  154.7424 C   0  0  0  0  0  0  0  0  0  0  0  0
  147.5569  140.4952  154.9774 N   0  0  0  0  0  0  0  0  0  0  0  0
  147.1166  139.2134  155.0790 C   0  0  0  0  0  0  0  0  0  0  0  0
  147.1037  138.5934  156.2893 N   0  0  0  0  0  0  0  0  0  0  0  0
  146.6612  137.3374  156.4012 C   0  0  0  0  0  0  0  0  0  0  0  0
  146.1953  136.5292  155.4474 N   0  0  0  0  0  0  0  0  0  0  0  0
  146.2135  137.1418  154.2296 C   0  0  0  0  0  0  0  0  0  0  0  0
  146.6539  138.4678  153.9580 C   0  0  0  0  0  0  0  0  0  0  0  0
  146.5336  138.7364  152.5992 N   0  0  0  0  0  0  0  0  0  0  0  0
  146.0440  137.6350  152.0978 C   0  0  0  0  0  0  0  0  0  0  0  0
  145.8155  136.6287  153.0089 N   0  0  0  0  0  0  0  0  0  0  0  0
  145.2788  135.3077  152.7346 C   0  0  0  0  0  0  0  0  0  0  0  0
  146.1941  134.4557  151.8205 C   0  0  1  0  0  0  0  0  0  0  0  0
  147.1077  133.4949  152.6199 C   0  0  0  0  0  0  0  0  0  0  0  0
  147.9914  134.2042  153.4642 O   0  0  0  0  0  0  0  0  0  0  0  0
  145.3786  133.7227  150.7258 C   0  0  2  0  0  0  0  0  0  0  0  0
  144.1702  132.9545  151.2315 C   0  0  0  0  0  0  0  0  0  0  0  0
  143.8852  132.0049  150.0735 C   0  0  0  0  0  0  0  0  0  0  0  0
  145.1534  131.7073  149.5009 O   0  0  0  0  0  0  0  0  0  0  0  0
  146.1389  132.6014  150.0091 C   0  0  0  0  0  0  0  0  0  0  0  0
  146.1087  143.5107  155.7271 H   0  0  0  0  0  0  0  0  0  0  0  0
  146.0947  142.6666  154.1850 H   0  0  0  0  0  0  0  0  0  0  0  0
  147.6080  143.2916  154.8357 H   0  0  0  0  0  0  0  0  0  0  0  0
  145.8893  141.1085  156.0978 H   0  0  0  0  0  0  0  0  0  0  0  0
  147.1936  142.4355  157.7526 H   0  0  0  0  0  0  0  0  0  0  0  0
  147.5851  140.7327  157.7414 H   0  0  0  0  0  0  0  0  0  0  0  0
  149.1620  142.5622  158.9496 H   0  0  0  0  0  0  0  0  0  0  0  0
  150.3271  141.3490  158.5231 H   0  0  0  0  0  0  0  0  0  0  0  0
  152.4137  142.3999  159.2652 H   0  0  0  0  0  0  0  0  0  0  0  0
  151.3626  143.5554  160.0743 H   0  0  0  0  0  0  0  0  0  0  0  0
  152.6625  144.1253  159.0349 H   0  0  0  0  0  0  0  0  0  0  0  0
  152.2087  142.1092  156.6352 H   0  0  0  0  0  0  0  0  0  0  0  0
  152.5299  143.8345  156.5203 H   0  0  0  0  0  0  0  0  0  0  0  0
  151.1009  143.1585  155.7567 H   0  0  0  0  0  0  0  0  0  0  0  0
  150.0672  144.7584  156.9808 H   0  0  0  0  0  0  0  0  0  0  0  0
  150.7716  141.2240  155.8496 H   0  0  0  0  0  0  0  0  0  0  0  0
  149.7964  139.9865  156.6179 H   0  0  0  0  0  0  0  0  0  0  0  0
  149.0835  141.6280  154.1278 H   0  0  0  0  0  0  0  0  0  0  0  0
  149.4244  139.9244  154.1591 H   0  0  0  0  0  0  0  0  0  0  0  0
  146.6832  136.9200  157.3971 H   0  0  0  0  0  0  0  0  0  0  0  0
  145.8290  137.5269  151.0444 H   0  0  0  0  0  0  0  0  0  0  0  0
  145.1118  134.7978  153.6844 H   0  0  0  0  0  0  0  0  0  0  0  0
  144.2966  135.4402  152.2803 H   0  0  0  0  0  0  0  0  0  0  0  0
  146.8612  135.1504  151.3080 H   0  0  0  0  0  0  0  0  0  0  0  0
  146.5154  132.8115  153.2280 H   0  0  0  0  0  0  0  0  0  0  0  0
  147.6932  132.8643  151.9510 H   0  0  0  0  0  0  0  0  0  0  0  0
  148.2448  135.0045  153.0302 H   0  0  0  0  0  0  0  0  0  0  0  0
  145.0408  134.4417  149.9778 H   0  0  0  0  0  0  0  0  0  0  0  0
  144.4254  132.3863  152.1273 H   0  0  0  0  0  0  0  0  0  0  0  0
  143.3177  133.5939  151.4625 H   0  0  0  0  0  0  0  0  0  0  0  0
  143.3675  131.0999  150.3926 H   0  0  0  0  0  0  0  0  0  0  0  0
  143.2713  132.4992  149.3195 H   0  0  0  0  0  0  0  0  0  0  0  0
  146.7756  132.9763  149.2073 H   0  0  0  0  0  0  0  0  0  0  0  0
  146.7689  132.0507  150.7089 H   0  0  0  0  0  0  0  0  0  0  0  0
  149.1088  142.8062  156.3693 H   0  0  0  0  0  0  0  0  0  0  0  0
  1  2  1  0  0  0  0
  1 31  1  0  0  0  0
  1 32  1  0  0  0  0
  1 33  1  0  0  0  0
  2 12  1  0  0  0  0
  2  3  1  0  0  0  0
  2 34  1  0  0  0  0
  3  4  1  0  0  0  0
  3 35  1  0  0  0  0
  3 36  1  0  0  0  0
  4  5  1  0  0  0  0
  4 10  1  0  0  0  0
  4 65  1  0  0  0  0
  5  6  1  0  0  0  0
  5 37  1  0  0  0  0
  5 38  1  0  0  0  0
  6  7  1  0  0  0  0
  6  8  1  0  0  0  0
  6  9  1  0  0  0  0
  7 39  1  0  0  0  0
  7 40  1  0  0  0  0
  7 41  1  0  0  0  0
  8 42  1  0  0  0  0
  8 43  1  0  0  0  0
  8 44  1  0  0  0  0
  9 45  1  0  0  0  0
 10 11  1  0  0  0  0
 10 46  1  0  0  0  0
 10 47  1  0  0  0  0
 11 12  1  0  0  0  0
 11 48  1  0  0  0  0
 11 49  1  0  0  0  0
 12 13  1  0  0  0  0
 13 18  1  0  0  0  0
 13 14  2  0  0  0  0
 14 15  1  0  0  0  0
 15 16  2  0  0  0  0
 15 50  1  0  0  0  0
 16 17  1  0  0  0  0
 17 21  1  0  0  0  0
 17 18  2  0  0  0  0
 18 19  1  0  0  0  0
 19 20  2  0  0  0  0
 20 21  1  0  0  0  0
 20 51  1  0  0  0  0
 21 22  1  0  0  0  0
 22 23  1  0  0  0  0
 22 52  1  0  0  0  0
 22 53  1  0  0  0  0
 23 24  1  0  0  0  0
 23 26  1  0  0  0  0
 23 54  1  0  0  0  0
 24 25  1  0  0  0  0
 24 55  1  0  0  0  0
 24 56  1  0  0  0  0
 25 57  1  0  0  0  0
 26 30  1  0  0  0  0
 26 27  1  0  0  0  0
 26 58  1  0  0  0  0
 27 28  1  0  0  0  0
 27 59  1  0  0  0  0
 27 60  1  0  0  0  0
 28 29  1  0  0  0  0
 28 61  1  0  0  0  0
 28 62  1  0  0  0  0
 29 30  1  0  0  0  0
 30 63  1  0  0  0  0
 30 64  1  0  0  0  0
M  CHG  1   4   1
M  END
> <s_m_source_file>
AV-unprocessed.smi

> <i_m_source_file_index>
212

> <i_lp_mmshare_version>
43012

> <i_f3d_flags>
0

> <s_epik_input>
W0NIM11bQ0BASF0xW0NIMl1OKFtDSDJdQyhbQ0gzXSkoW0NIM10pW09IXSlbQ0gyXVtDSDJdTjFjKG5bY0hdbjIpYyhjMjMpbltjSF1uM1tDSDJdW0NASF0oW0NIMl1bT0hdKVtDQEBIXTRbQ0gyXVtDSDJdT1tDSDJdNA==

> <s_epik_cmdline>
J2VwaWtfcHl0aG9uJywgJy1waCcsICc3LjAnLCAnLXRuJywgJzgnLCAnLW1hJywgJzIwMCcsICctbWV0YWxfYmluZGluZycsICctaW1hZScsICc8aW5maWxlLm1hZT4nLCAnLW9tYWUnLCAnPG91dGZpbGUubWFlPic=

> <r_lp_tautomer_probability>
1

> <r_epik_Ionization_Penalty>
0.00182193

> <r_epik_Ionization_Penalty_Charging>
0.00173996

> <r_epik_Ionization_Penalty_Neutral>
8.19718e-05

> <r_epik_State_Penalty>
-0

> <r_epik_Charging_Adjusted_Penalty>
0.00173996

> <i_epik_Tot_Q>
1

> <i_epik_Tot_abs_Q>
1

> <r_epik_Metal_State_Penalty>
-0

> <b_epik_Metal_Only>
0

> <s_lp_Force_Field>
OPLS_2005

> <r_lp_Energy>
57.8669

> <b_lp_Chiralities_Consistent>
1

> <s_lp_Variant>
AV-unprocessed.smi:212-7

> <Gold.Version>
5.8.1

> <Gold.Id.Protein>
6NUR|6NUR_protein|mol2

> <Gold.PLP.Fitness>
46.2060

> <Gold.PLP.PLP>
-35.9499

> <Gold.PLP.part.hbond>
-4.6832

> <Gold.PLP.part.metal>
0.0000

> <Gold.PLP.part.buried>
-2.2357

> <Gold.PLP.part.nonpolar>
-29.9931

> <Gold.PLP.part.repulsive>
0.4959

> <Gold.PLP.ligand.clash>
0.0007

> <Gold.PLP.ligand.torsion>
2.6865

> <Gold.PLP.Chemscore.Hbond>
4.0000

> <Gold.PLP.Chemscore.CHOScore>
0.8474

> <Gold.PLP.Chemscore.Metal>
0.0000

> <Gold.Chemscore.Hbonds>
donor molecule, donor type, donor heavy atom, donor atom, acceptor molecule, acceptor atom, score
      L1  H     4    65       P1  8028  1.89
      L1  H     9    45       P1  8028  1.00
      L1  H    25    57       P1  7948  1.00
      L1  C    20    51       P1 10171  0.90

> <Gold.PLP.Chemscore.Internal.Correction>
1.0878

> <Gold.Rescore>
     Score         DG    S(hbond)    S(metal)    S(lipo)     H(rot)  DE(clash)    DE(int)     intcor
     12.96     -18.31       2.70        0.00     106.82       3.40       1.90       3.45       ----

> <Gold.Chemscore.Fitness>
12.9640

> <Gold.Chemscore.DG>
-18.3096

> <Gold.Chemscore.ZeroCoef>
-5.4800

> <Gold.Chemscore.Hbond>
2.7042

> <Gold.Chemscore.Metal>
0.0000

> <Gold.Chemscore.Lipo>
106.8215

> <Gold.Chemscore.Internal_Hbond>
0.0000

> <Gold.Chemscore.DEClash>
1.8990

> <Gold.Chemscore.DEInternal>
3.4466

> <Gold.Chemscore.Rot>
3.3986

> <Gold.Chemscore.Internal.Correction>
   9.000000E+99

> <Gold.Chemscore.Hbonds>
donor molecule, donor type, donor heavy atom, donor atom, acceptor molecule, acceptor atom, score
      L1  H     4    65       P1  8028  0.90
      L1  H     9    45       P1  8028  0.34
      L1  H    25    57       P1  7948  0.88

> <Gold.Chemscore.Hbond.Weighted>
-9.0320

> <Gold.Chemscore.Metal.Weighted>
-0.0000

> <Gold.Chemscore.Lipo.Weighted>
-12.4981

> <Gold.Chemscore.Internal_Hbond.Weighted>
0.0000

> <Gold.Chemscore.DEClash.Weighted>
1.8990

> <Gold.Chemscore.DEInternal.Weighted>
3.4466

> <Gold.Chemscore.Rot.Weighted>
8.7005

> <Gold.Chemscore.Internal.Correction.Weighted>
   9.000000E+99

> <Gold.Protein.RotatedTorsions>
[ 6907 6896 6895 6894 ] final -169.10 input  -60.11 | X-H torsion
[ 7974 7965 7964 7962 ] final  102.87 input  175.53 | X-H torsion
[ 8008 7997 7996 7995 ] final   41.88 input   59.86 | X-H torsion
[ 10167 10162 10161 10158 ] final -150.91 input  -65.29 | X-H torsion
[ 10718 10713 10712 10709 ] final  -54.61 input   66.30 | X-H torsion
[ 10763 10752 10751 10750 ] final  171.90 input  -60.55 | X-H torsion
[ 11005 11000 10999 10996 ] final -167.65 input  -57.11 | X-H torsion

> <Gold.Protein.ActiveResidues>
 VAL166  LYS551  ARG553  GLY616  TRP617  ASP618  TYR619  PRO620  LYS621  CYS622 
 ASP623  PHE694  ASN695  SER759  ASP760  ASP761  ALA762  ILE779  LEU786  VAL792 
 PHE793  MET794  SER795  GLU796  ALA797  LYS798  CYS799  TRP800  GLU811  SER814 

> <Gold.Protein.RotatedAtoms>
  151.4861  133.3535  159.2845 H   0  0  0  0  0  0  0  0  0  0  0  0  # atno 6907 bound_to 6896
  150.8865  134.8265  159.7273 H   0  0  0  0  0  0  0  0  0  0  0  0  # atno 6908 bound_to 6896
  152.4796  134.4766  159.9704 H   0  0  0  0  0  0  0  0  0  0  0  0  # atno 6909 bound_to 6896
  145.3534  139.2434  143.3546 H   0  0  0  0  0  0  0  0  0  0  0  0  # atno 7974 bound_to 7965
  155.2769  140.3370  155.4261 H   0  0  0  0  0  0  0  0  0  0  0  0  # atno 8008 bound_to 7997
  156.2107  140.1769  156.7742 H   0  0  0  0  0  0  0  0  0  0  0  0  # atno 8009 bound_to 7997
  154.5683  140.0675  156.8909 H   0  0  0  0  0  0  0  0  0  0  0  0  # atno 8010 bound_to 7997
  139.7313  143.8803  152.2535 H   0  0  0  0  0  0  0  0  0  0  0  0  # atno 10167 bound_to 10162
  156.1436  130.4153  150.0061 H   0  0  0  0  0  0  0  0  0  0  0  0  # atno 10718 bound_to 10713
  154.4184  135.2757  155.1991 H   0  0  0  0  0  0  0  0  0  0  0  0  # atno 10763 bound_to 10752
  154.3947  135.6058  153.5867 H   0  0  0  0  0  0  0  0  0  0  0  0  # atno 10764 bound_to 10752
  152.9832  135.5912  154.4477 H   0  0  0  0  0  0  0  0  0  0  0  0  # atno 10765 bound_to 10752
  140.5509  134.5429  157.5122 H   0  0  0  0  0  0  0  0  0  0  0  0  # atno 11005 bound_to 11000
  146.2958  140.4154  142.8722 LP  0  0  0  0  0  0  0  0  0  0  0  0  # atno 17320 bound_to 7965
  144.8700  140.7260  143.6053 LP  0  0  0  0  0  0  0  0  0  0  0  0  # atno 17321 bound_to 7965
  139.8727  144.7059  150.8968 LP  0  0  0  0  0  0  0  0  0  0  0  0  # atno 17342 bound_to 10162
  140.7771  143.3725  151.1624 LP  0  0  0  0  0  0  0  0  0  0  0  0  # atno 17343 bound_to 10162
  156.7939  130.9266  151.3646 LP  0  0  0  0  0  0  0  0  0  0  0  0  # atno 17370 bound_to 10713
  157.6597  130.8955  149.9804 LP  0  0  0  0  0  0  0  0  0  0  0  0  # atno 17371 bound_to 10713
  139.9456  134.7708  156.0571 LP  0  0  0  0  0  0  0  0  0  0  0  0  # atno 17394 bound_to 11000
  141.1172  133.6624  156.3124 LP  0  0  0  0  0  0  0  0  0  0  0  0  # atno 17395 bound_to 11000

$$$$
