AV-unprocessed.smi:1451|AV-procd|sdf|5902|dock10
  -GOLD-   22720 5593D 1   1.00000     0.00000
 Structure written by MMmdl.
 47 48  0  0  0  0  0  0  0  0  2 V2000
  143.0117  135.3767  152.6466 C   0  0  0  0  0  0  0  0  0  0  0  0
  143.3473  136.7814  153.1675 C   0  0  1  0  0  0  0  0  0  0  0  0
  142.7530  137.0185  154.5659 C   0  0  0  0  0  0  0  0  0  0  0  0
  143.1268  138.4172  155.0720 C   0  0  0  0  0  0  0  0  0  0  0  0
  144.6492  138.6252  155.0410 C   0  0  0  0  0  0  0  0  0  0  0  0
  145.1934  138.3957  153.6776 N   0  3  1  0  0  0  0  0  0  0  0  0
  146.6389  138.7243  153.5887 C   0  0  0  0  0  0  0  0  0  0  0  0
  146.8925  140.2378  153.4907 C   0  0  0  0  0  0  0  0  0  0  0  0
  148.2889  140.5405  153.7759 N   0  0  0  0  0  0  0  0  0  0  0  0
  148.7505  140.9594  154.9631 C   0  0  0  0  0  0  0  0  0  0  0  0
  148.0302  141.1068  155.9509 O   0  0  0  0  0  0  0  0  0  0  0  0
  150.2587  141.2339  155.0459 C   0  0  0  0  0  0  0  0  0  0  0  0
  150.7445  141.3501  156.4310 N   0  0  0  0  0  0  0  0  0  0  0  0
  151.0611  142.6414  156.8969 C   0  0  0  0  0  0  0  0  0  0  0  0
  151.5330  142.8780  158.1360 C   0  0  0  0  0  0  0  0  0  0  0  0
  151.8160  144.2890  158.6279 C   0  0  0  0  0  0  0  0  0  0  0  0
  152.7583  144.8755  157.8892 F   0  0  0  0  0  0  0  0  0  0  0  0
  150.7091  145.0264  158.5506 F   0  0  0  0  0  0  0  0  0  0  0  0
  152.2228  144.2831  159.8980 F   0  0  0  0  0  0  0  0  0  0  0  0
  151.6746  141.7252  159.0037 C   0  0  0  0  0  0  0  0  0  0  0  0
  151.3695  140.4844  158.5762 C   0  0  0  0  0  0  0  0  0  0  0  0
  150.8795  140.2406  157.2179 C   0  0  0  0  0  0  0  0  0  0  0  0
  150.6078  139.1102  156.8118 O   0  0  0  0  0  0  0  0  0  0  0  0
  144.8694  137.0289  153.1854 C   0  0  0  0  0  0  0  0  0  0  0  0
  143.4277  134.6034  153.2931 H   0  0  0  0  0  0  0  0  0  0  0  0
  143.4115  135.2231  151.6439 H   0  0  0  0  0  0  0  0  0  0  0  0
  141.9331  135.2240  152.5970 H   0  0  0  0  0  0  0  0  0  0  0  0
  142.8974  137.5009  152.4815 H   0  0  0  0  0  0  0  0  0  0  0  0
  141.6681  136.9109  154.5405 H   0  0  0  0  0  0  0  0  0  0  0  0
  143.1250  136.2653  155.2620 H   0  0  0  0  0  0  0  0  0  0  0  0
  142.6406  139.1735  154.4540 H   0  0  0  0  0  0  0  0  0  0  0  0
  142.7515  138.5585  156.0860 H   0  0  0  0  0  0  0  0  0  0  0  0
  144.8751  139.6421  155.3642 H   0  0  0  0  0  0  0  0  0  0  0  0
  145.1373  137.9514  155.7473 H   0  0  0  0  0  0  0  0  0  0  0  0
  147.1470  138.3563  154.4815 H   0  0  0  0  0  0  0  0  0  0  0  0
  147.0849  138.1990  152.7425 H   0  0  0  0  0  0  0  0  0  0  0  0
  146.6386  140.6057  152.4963 H   0  0  0  0  0  0  0  0  0  0  0  0
  146.2634  140.7742  154.2025 H   0  0  0  0  0  0  0  0  0  0  0  0
  148.9497  140.4322  153.0202 H   0  0  0  0  0  0  0  0  0  0  0  0
  150.7781  140.4316  154.5204 H   0  0  0  0  0  0  0  0  0  0  0  0
  150.5002  142.1415  154.4891 H   0  0  0  0  0  0  0  0  0  0  0  0
  150.8994  143.4316  156.1780 H   0  0  0  0  0  0  0  0  0  0  0  0
  152.0373  141.8569  160.0123 H   0  0  0  0  0  0  0  0  0  0  0  0
  151.4908  139.6482  159.2491 H   0  0  0  0  0  0  0  0  0  0  0  0
  145.3649  136.2890  153.8167 H   0  0  0  0  0  0  0  0  0  0  0  0
  145.2587  136.8904  152.1777 H   0  0  0  0  0  0  0  0  0  0  0  0
  144.7151  139.0481  153.0725 H   0  0  0  0  0  0  0  0  0  0  0  0
  1  2  1  0  0  0  0
  1 25  1  0  0  0  0
  1 26  1  0  0  0  0
  1 27  1  0  0  0  0
  2 24  1  0  0  0  0
  2  3  1  0  0  0  0
  2 28  1  0  0  0  0
  3  4  1  0  0  0  0
  3 29  1  0  0  0  0
  3 30  1  0  0  0  0
  4  5  1  0  0  0  0
  4 31  1  0  0  0  0
  4 32  1  0  0  0  0
  5  6  1  0  0  0  0
  5 33  1  0  0  0  0
  5 34  1  0  0  0  0
  6  7  1  0  0  0  0
  6 24  1  0  0  0  0
  6 47  1  0  0  0  0
  7  8  1  0  0  0  0
  7 35  1  0  0  0  0
  7 36  1  0  0  0  0
  8  9  1  0  0  0  0
  8 37  1  0  0  0  0
  8 38  1  0  0  0  0
  9 10  1  0  0  0  0
  9 39  1  0  0  0  0
 10 11  2  0  0  0  0
 10 12  1  0  0  0  0
 12 13  1  0  0  0  0
 12 40  1  0  0  0  0
 12 41  1  0  0  0  0
 13 22  1  0  0  0  0
 13 14  1  0  0  0  0
 14 15  2  0  0  0  0
 14 42  1  0  0  0  0
 15 16  1  0  0  0  0
 15 20  1  0  0  0  0
 16 17  1  0  0  0  0
 16 18  1  0  0  0  0
 16 19  1  0  0  0  0
 20 21  2  0  0  0  0
 20 43  1  0  0  0  0
 21 22  1  0  0  0  0
 21 44  1  0  0  0  0
 22 23  2  0  0  0  0
 24 45  1  0  0  0  0
 24 46  1  0  0  0  0
M  CHG  1   6   1
M  END
> <s_m_source_file>
AV-unprocessed.smi

> <i_m_source_file_index>
1451

> <i_lp_mmshare_version>
43012

> <i_f3d_flags>
0

> <s_epik_input>
W0NIM11bQ0BASF0xW0NIMl1bQ0gyXVtDSDJdTihbQ0gyXTEpW0NIMl1bQ0gyXVtOSF1DKD1PKVtDSDJdbjJbY0hdYyhDKEYpKEYpRilbY0hdW2NIXWMyPU8=

> <s_epik_cmdline>
J2VwaWtfcHl0aG9uJywgJy1waCcsICc3LjAnLCAnLXRuJywgJzgnLCAnLW1hJywgJzIwMCcsICctbWV0YWxfYmluZGluZycsICctaW1hZScsICc8aW5maWxlLm1hZT4nLCAnLW9tYWUnLCAnPG91dGZpbGUubWFlPic=

> <r_lp_tautomer_probability>
1

> <r_epik_Ionization_Penalty>
0.00192452

> <r_epik_Ionization_Penalty_Charging>
0.00192444

> <r_epik_Ionization_Penalty_Neutral>
8.16761e-08

> <r_epik_State_Penalty>
0.00131115

> <r_epik_Charging_Adjusted_Penalty>
0.00323559

> <i_epik_Tot_Q>
1

> <i_epik_Tot_abs_Q>
1

> <r_epik_Metal_State_Penalty>
-0

> <b_epik_Metal_Only>
0

> <s_lp_Force_Field>
OPLS_2005

> <r_lp_Energy>
29.222

> <b_lp_Chiralities_Consistent>
1

> <s_lp_Variant>
AV-unprocessed.smi:1451-4

> <Gold.Version>
5.8.1

> <Gold.Id.Protein>
6NUR|6NUR_protein|mol2

> <Gold.PLP.Fitness>
52.7421

> <Gold.PLP.PLP>
-42.2571

> <Gold.PLP.part.hbond>
-2.0000

> <Gold.PLP.part.metal>
0.0000

> <Gold.PLP.part.buried>
-4.9022

> <Gold.PLP.part.nonpolar>
-36.7687

> <Gold.PLP.part.repulsive>
0.1831

> <Gold.PLP.ligand.clash>
0.0000

> <Gold.PLP.ligand.torsion>
0.7868

> <Gold.PLP.Chemscore.Hbond>
3.0000

> <Gold.PLP.Chemscore.CHOScore>
1.0000

> <Gold.PLP.Chemscore.Metal>
0.0000

> <Gold.Chemscore.Hbonds>
donor molecule, donor type, donor heavy atom, donor atom, acceptor molecule, acceptor atom, score
      L1  H     6    47       P1 10175  2.00
      L1  H     9    39       P1  7957  1.00
      L1  C    14    42       P1  8028  1.00

> <Gold.PLP.Chemscore.Internal.Correction>
0.0586

> <Gold.Rescore>
     Score         DG    S(hbond)    S(metal)    S(lipo)     H(rot)  DE(clash)    DE(int)     intcor
     14.46     -16.16       1.92        0.00      81.77       2.08       0.91       0.79       ----

> <Gold.Chemscore.Fitness>
14.4627

> <Gold.Chemscore.DG>
-16.1583

> <Gold.Chemscore.ZeroCoef>
-5.4800

> <Gold.Chemscore.Hbond>
1.9240

> <Gold.Chemscore.Metal>
0.0000

> <Gold.Chemscore.Lipo>
81.7717

> <Gold.Chemscore.Internal_Hbond>
0.0000

> <Gold.Chemscore.DEClash>
0.9088

> <Gold.Chemscore.DEInternal>
0.7869

> <Gold.Chemscore.Rot>
2.0762

> <Gold.Chemscore.Internal.Correction>
   9.000000E+99

> <Gold.Chemscore.Hbonds>
donor molecule, donor type, donor heavy atom, donor atom, acceptor molecule, acceptor atom, score
      L1  H     6    47       P1 10175  1.00
      L1  H     9    39       P1  7957  0.94

> <Gold.Chemscore.Hbond.Weighted>
-6.4261

> <Gold.Chemscore.Metal.Weighted>
-0.0000

> <Gold.Chemscore.Lipo.Weighted>
-9.5673

> <Gold.Chemscore.Internal_Hbond.Weighted>
0.0000

> <Gold.Chemscore.DEClash.Weighted>
0.9088

> <Gold.Chemscore.DEInternal.Weighted>
0.7869

> <Gold.Chemscore.Rot.Weighted>
5.3150

> <Gold.Chemscore.Internal.Correction.Weighted>
   9.000000E+99

> <Gold.Protein.RotatedTorsions>
[ 6907 6896 6895 6894 ] final   57.73 input  -60.11 | X-H torsion
[ 7974 7965 7964 7962 ] final -154.98 input  175.53 | X-H torsion
[ 8008 7997 7996 7995 ] final  -37.40 input   59.86 | X-H torsion
[ 10167 10162 10161 10158 ] final   20.04 input  -65.29 | X-H torsion
[ 10718 10713 10712 10709 ] final  103.15 input   66.30 | X-H torsion
[ 10763 10752 10751 10750 ] final  -47.94 input  -60.55 | X-H torsion
[ 11005 11000 10999 10996 ] final  -88.51 input  -57.11 | X-H torsion

> <Gold.Protein.ActiveResidues>
 VAL166  LYS551  ARG553  GLY616  TRP617  ASP618  TYR619  PRO620  LYS621  CYS622 
 ASP623  PHE694  ASN695  SER759  ASP760  ASP761  ALA762  ILE779  LEU786  VAL792 
 PHE793  MET794  SER795  GLU796  ALA797  LYS798  CYS799  TRP800  GLU811  SER814 

> <Gold.Protein.RotatedAtoms>
  152.3758  134.6665  160.0159 H   0  0  0  0  0  0  0  0  0  0  0  0  # atno 6907 bound_to 6896
  151.6944  133.3305  159.3259 H   0  0  0  0  0  0  0  0  0  0  0  0  # atno 6908 bound_to 6896
  150.7709  134.6606  159.6382 H   0  0  0  0  0  0  0  0  0  0  0  0  # atno 6909 bound_to 6896
  144.7662  140.4313  143.5940 H   0  0  0  0  0  0  0  0  0  0  0  0  # atno 7974 bound_to 7965
  154.4054  140.1605  156.2531 H   0  0  0  0  0  0  0  0  0  0  0  0  # atno 8008 bound_to 7997
  155.9101  140.3428  155.6070 H   0  0  0  0  0  0  0  0  0  0  0  0  # atno 8009 bound_to 7997
  155.7345  140.0784  157.2264 H   0  0  0  0  0  0  0  0  0  0  0  0  # atno 8010 bound_to 7997
  140.5534  143.9468  150.6593 H   0  0  0  0  0  0  0  0  0  0  0  0  # atno 10167 bound_to 10162
  157.6781  131.0771  150.5512 H   0  0  0  0  0  0  0  0  0  0  0  0  # atno 10718 bound_to 10713
  154.0697  135.6606  153.4822 H   0  0  0  0  0  0  0  0  0  0  0  0  # atno 10763 bound_to 10752
  153.0395  135.5154  154.7579 H   0  0  0  0  0  0  0  0  0  0  0  0  # atno 10764 bound_to 10752
  154.6641  135.3019  154.9796 H   0  0  0  0  0  0  0  0  0  0  0  0  # atno 10765 bound_to 10752
  141.1600  133.7574  156.9461 H   0  0  0  0  0  0  0  0  0  0  0  0  # atno 11005 bound_to 11000
  145.6462  139.1557  143.2888 LP  0  0  0  0  0  0  0  0  0  0  0  0  # atno 17320 bound_to 7965
  146.1772  140.6555  142.9206 LP  0  0  0  0  0  0  0  0  0  0  0  0  # atno 17321 bound_to 7965
  140.2900  143.3331  152.1071 LP  0  0  0  0  0  0  0  0  0  0  0  0  # atno 17342 bound_to 10162
  139.5037  144.6761  151.6125 LP  0  0  0  0  0  0  0  0  0  0  0  0  # atno 17343 bound_to 10162
  156.5816  130.4306  149.5975 LP  0  0  0  0  0  0  0  0  0  0  0  0  # atno 17370 bound_to 10713
  156.2657  130.6988  151.1770 LP  0  0  0  0  0  0  0  0  0  0  0  0  # atno 17371 bound_to 10713
  140.1288  134.9369  157.2308 LP  0  0  0  0  0  0  0  0  0  0  0  0  # atno 17394 bound_to 11000
  140.2979  134.3166  155.7297 LP  0  0  0  0  0  0  0  0  0  0  0  0  # atno 17395 bound_to 11000

$$$$
