AV-unprocessed.smi:26|AV-procd|sdf|186|dock9
  -GOLD-   2262015453D 1   1.00000     0.00000
 Structure written by MMmdl.
 58 61  0  0  0  0  0  0  0  0  1 V2000
  152.4638  138.8095  155.5737 C   0  0  0  0  0  0  0  0  0  0  0  0
  151.2458  138.8495  156.4414 C   0  0  0  0  0  0  0  0  0  0  0  0
  150.7152  137.8552  157.2071 C   0  0  0  0  0  0  0  0  0  0  0  0
  149.5485  138.3501  157.8487 C   0  0  0  0  0  0  0  0  0  0  0  0
  148.6220  137.6267  158.7582 C   0  0  0  0  0  0  0  0  0  0  0  0
  147.4430  137.9477  158.9162 O   0  0  0  0  0  0  0  0  0  0  0  0
  149.2222  136.4227  159.5090 C   0  0  0  0  0  0  0  0  0  0  0  0
  148.2285  135.4148  159.8595 N   0  0  0  0  0  0  0  0  0  0  0  0
  148.2943  134.1635  159.1962 C   0  0  0  0  0  0  0  0  0  0  0  0
  149.1553  133.9155  158.3501 O   0  0  0  0  0  0  0  0  0  0  0  0
  147.2577  133.2146  159.5873 C   0  0  0  0  0  0  0  0  0  0  0  0
  147.2227  131.9971  159.0194 F   0  0  0  0  0  0  0  0  0  0  0  0
  146.3266  133.5397  160.5095 C   0  0  0  0  0  0  0  0  0  0  0  0
  146.2854  134.7713  161.1410 N   0  0  0  0  0  0  0  0  0  0  0  0
  145.2083  135.0964  162.1513 C   0  0  1  0  0  0  0  0  0  0  0  0
  144.3250  136.2383  161.6355 C   0  0  0  0  0  0  0  0  0  0  0  0
  143.1607  135.4862  161.0275 C   0  0  0  0  0  0  0  0  0  0  0  0
  143.0513  134.2854  161.9594 C   0  0  0  0  0  0  0  0  0  0  0  0
  144.3927  133.9729  162.3238 O   0  0  0  0  0  0  0  0  0  0  0  0
  147.2401  135.7590  160.8133 C   0  0  0  0  0  0  0  0  0  0  0  0
  147.1967  136.8777  161.3304 O   0  0  0  0  0  0  0  0  0  0  0  0
  149.3976  139.6651  157.4707 C   0  0  0  0  0  0  0  0  0  0  0  0
  148.3373  140.6538  157.8719 C   0  0  0  0  0  0  0  0  0  0  0  0
  150.4406  139.9783  156.5865 N   0  0  0  0  0  0  0  0  0  0  0  0
  150.6769  141.2608  155.9039 C   0  0  1  0  0  0  0  0  0  0  0  0
  149.4850  141.6454  155.0035 C   0  0  0  0  0  0  0  0  0  0  0  0
  151.1806  142.3446  156.8627 C   0  0  0  0  0  0  0  0  0  0  0  0
  151.2798  143.6771  156.4020 C   0  0  0  0  0  0  0  0  0  0  0  0
  151.7277  144.7019  157.2575 C   0  0  0  0  0  0  0  0  0  0  0  0
  152.0768  144.4058  158.5878 C   0  0  0  0  0  0  0  0  0  0  0  0
  151.9745  143.0845  159.0609 C   0  0  0  0  0  0  0  0  0  0  0  0
  151.5259  142.0595  158.2055 C   0  0  0  0  0  0  0  0  0  0  0  0
  152.9318  137.8253  155.6068 H   0  0  0  0  0  0  0  0  0  0  0  0
  153.2043  139.5380  155.9047 H   0  0  0  0  0  0  0  0  0  0  0  0
  152.2109  139.0200  154.5342 H   0  0  0  0  0  0  0  0  0  0  0  0
  151.1268  136.8598  157.2885 H   0  0  0  0  0  0  0  0  0  0  0  0
  149.9978  135.9363  158.9156 H   0  0  0  0  0  0  0  0  0  0  0  0
  149.7189  136.7441  160.4257 H   0  0  0  0  0  0  0  0  0  0  0  0
  145.5810  132.7973  160.7519 H   0  0  0  0  0  0  0  0  0  0  0  0
  145.7200  135.3219  163.0882 H   0  0  0  0  0  0  0  0  0  0  0  0
  143.9925  136.8327  162.4875 H   0  0  0  0  0  0  0  0  0  0  0  0
  144.8508  136.8880  160.9347 H   0  0  0  0  0  0  0  0  0  0  0  0
  142.2453  136.0765  160.9838 H   0  0  0  0  0  0  0  0  0  0  0  0
  143.4070  135.1606  160.0162 H   0  0  0  0  0  0  0  0  0  0  0  0
  142.4958  134.5531  162.8593 H   0  0  0  0  0  0  0  0  0  0  0  0
  142.5542  133.4345  161.4934 H   0  0  0  0  0  0  0  0  0  0  0  0
  148.2416  140.6939  158.9569 H   0  0  0  0  0  0  0  0  0  0  0  0
  147.3703  140.3641  157.4610 H   0  0  0  0  0  0  0  0  0  0  0  0
  148.5380  141.6688  157.5455 H   0  0  0  0  0  0  0  0  0  0  0  0
  151.5106  141.1317  155.2170 H   0  0  0  0  0  0  0  0  0  0  0  0
  149.7259  142.5055  154.3785 H   0  0  0  0  0  0  0  0  0  0  0  0
  148.5871  141.8880  155.5698 H   0  0  0  0  0  0  0  0  0  0  0  0
  149.2320  140.8242  154.3321 H   0  0  0  0  0  0  0  0  0  0  0  0
  151.0122  143.9194  155.3838 H   0  0  0  0  0  0  0  0  0  0  0  0
  151.8025  145.7156  156.8924 H   0  0  0  0  0  0  0  0  0  0  0  0
  152.4204  145.1911  159.2448 H   0  0  0  0  0  0  0  0  0  0  0  0
  152.2400  142.8560  160.0826 H   0  0  0  0  0  0  0  0  0  0  0  0
  151.4583  141.0570  158.5991 H   0  0  0  0  0  0  0  0  0  0  0  0
  1  2  1  0  0  0  0
  1 33  1  0  0  0  0
  1 34  1  0  0  0  0
  1 35  1  0  0  0  0
  2 24  1  0  0  0  0
  2  3  2  0  0  0  0
  3  4  1  0  0  0  0
  3 36  1  0  0  0  0
  4  5  1  0  0  0  0
  4 22  2  0  0  0  0
  5  6  2  0  0  0  0
  5  7  1  0  0  0  0
  7  8  1  0  0  0  0
  7 37  1  0  0  0  0
  7 38  1  0  0  0  0
  8 20  1  0  0  0  0
  8  9  1  0  0  0  0
  9 10  2  0  0  0  0
  9 11  1  0  0  0  0
 11 12  1  0  0  0  0
 11 13  2  0  0  0  0
 13 14  1  0  0  0  0
 13 39  1  0  0  0  0
 14 15  1  0  0  0  0
 14 20  1  0  0  0  0
 15 19  1  0  0  0  0
 15 16  1  0  0  0  0
 15 40  1  0  0  0  0
 16 17  1  0  0  0  0
 16 41  1  0  0  0  0
 16 42  1  0  0  0  0
 17 18  1  0  0  0  0
 17 43  1  0  0  0  0
 17 44  1  0  0  0  0
 18 19  1  0  0  0  0
 18 45  1  0  0  0  0
 18 46  1  0  0  0  0
 20 21  2  0  0  0  0
 22 23  1  0  0  0  0
 22 24  1  0  0  0  0
 23 47  1  0  0  0  0
 23 48  1  0  0  0  0
 23 49  1  0  0  0  0
 24 25  1  0  0  0  0
 25 26  1  0  0  0  0
 25 27  1  0  0  0  0
 25 50  1  0  0  0  0
 26 51  1  0  0  0  0
 26 52  1  0  0  0  0
 26 53  1  0  0  0  0
 27 32  1  0  0  0  0
 27 28  2  0  0  0  0
 28 29  1  0  0  0  0
 28 54  1  0  0  0  0
 29 30  2  0  0  0  0
 29 55  1  0  0  0  0
 30 31  1  0  0  0  0
 30 56  1  0  0  0  0
 31 32  2  0  0  0  0
 31 57  1  0  0  0  0
 32 58  1  0  0  0  0
M  END
> <s_m_source_file>
AV-unprocessed.smi

> <i_m_source_file_index>
26

> <i_lp_mmshare_version>
43012

> <i_f3d_flags>
0

> <s_epik_input>
W2NIXTFbY0hdW2NIXVtjSF1bY0hdYzFbQ0BASF0oW0NIM10pbjJjKFtDSDNdKWMoW2NIXWMyW0NIM10pQyg9TylbQ0gyXW4zYyg9TyljKEYpW2NIXW4oYzM9TylbQ0BASF00W0NIMl1bQ0gyXVtDSDJdTzQ=

> <s_epik_cmdline>
J2VwaWtfcHl0aG9uJywgJy1waCcsICc3LjAnLCAnLXRuJywgJzgnLCAnLW1hJywgJzIwMCcsICctbWV0YWxfYmluZGluZycsICctaW1hZScsICc8aW5maWxlLm1hZT4nLCAnLW9tYWUnLCAnPG91dGZpbGUubWFlPic=

> <r_lp_tautomer_probability>
1

> <r_epik_Ionization_Penalty>
5.02402e-09

> <r_epik_Ionization_Penalty_Charging>
5.01743e-09

> <r_epik_Ionization_Penalty_Neutral>
6.58831e-12

> <r_epik_State_Penalty>
-0

> <r_epik_Charging_Adjusted_Penalty>
5.01743e-09

> <i_epik_Tot_Q>
0

> <i_epik_Tot_abs_Q>
0

> <r_epik_Metal_State_Penalty>
-0

> <b_epik_Metal_Only>
0

> <s_epik_Chemistry_Notes>
This compound contains an acetal/aminal-like group ( X-CH(R)-Y where X, Y are N, S, or O) that may be acid/base labile, releasing an aldehyde.

> <s_lp_Force_Field>
OPLS_2005

> <r_lp_Energy>
50.594

> <b_lp_Chiralities_Consistent>
1

> <s_lp_Variant>
AV-unprocessed.smi:26-4

> <Gold.Version>
5.8.1

> <Gold.Id.Protein>
6NUR|6NUR_protein|mol2

> <Gold.PLP.Fitness>
52.9909

> <Gold.PLP.PLP>
-46.4076

> <Gold.PLP.part.hbond>
-4.0000

> <Gold.PLP.part.metal>
0.0000

> <Gold.PLP.part.buried>
-2.2242

> <Gold.PLP.part.nonpolar>
-40.1786

> <Gold.PLP.part.repulsive>
0.0647

> <Gold.PLP.ligand.clash>
0.0000

> <Gold.PLP.ligand.torsion>
1.1405

> <Gold.PLP.Chemscore.Hbond>
2.8400

> <Gold.PLP.Chemscore.CHOScore>
0.0000

> <Gold.PLP.Chemscore.Metal>
0.0000

> <Gold.Chemscore.Hbonds>
donor molecule, donor type, donor heavy atom, donor atom, acceptor molecule, acceptor atom, score
      P1  H  6896  6908       L1    10  0.80
      P1  H  6931  6943       L1    21  0.17
      P1  H  6934  6947       L1    21  0.63

> <Gold.PLP.Chemscore.Internal.Correction>
0.3444

> <Gold.Rescore>
     Score         DG    S(hbond)    S(metal)    S(lipo)     H(rot)  DE(clash)    DE(int)     intcor
     14.37     -21.72       1.97        0.00     122.82       1.84       0.56       6.79       ----

> <Gold.Chemscore.Fitness>
14.3708

> <Gold.Chemscore.DG>
-21.7170

> <Gold.Chemscore.ZeroCoef>
-5.4800

> <Gold.Chemscore.Hbond>
1.9662

> <Gold.Chemscore.Metal>
0.0000

> <Gold.Chemscore.Lipo>
122.8193

> <Gold.Chemscore.Internal_Hbond>
0.0000

> <Gold.Chemscore.DEClash>
0.5598

> <Gold.Chemscore.DEInternal>
6.7864

> <Gold.Chemscore.Rot>
1.8359

> <Gold.Chemscore.Internal.Correction>
   9.000000E+99

> <Gold.Chemscore.Hbonds>
donor molecule, donor type, donor heavy atom, donor atom, acceptor molecule, acceptor atom, score
      P1  H  6896  6908       L1    10  0.11
      P1  H  6931  6943       L1    21  0.18
      P1  H  6934  6947       L1    21  0.61

> <Gold.Chemscore.Hbond.Weighted>
-6.5671

> <Gold.Chemscore.Metal.Weighted>
-0.0000

> <Gold.Chemscore.Lipo.Weighted>
-14.3699

> <Gold.Chemscore.Internal_Hbond.Weighted>
0.0000

> <Gold.Chemscore.DEClash.Weighted>
0.5598

> <Gold.Chemscore.DEInternal.Weighted>
6.7864

> <Gold.Chemscore.Rot.Weighted>
4.7000

> <Gold.Chemscore.Internal.Correction.Weighted>
   9.000000E+99

> <Gold.Protein.RotatedTorsions>
[ 6907 6896 6895 6894 ] final  156.91 input  -60.11 | X-H torsion
[ 7974 7965 7964 7962 ] final   27.53 input  175.53 | X-H torsion
[ 8008 7997 7996 7995 ] final    0.56 input   59.86 | X-H torsion
[ 10167 10162 10161 10158 ] final  -32.08 input  -65.29 | X-H torsion
[ 10718 10713 10712 10709 ] final  113.35 input   66.30 | X-H torsion
[ 10763 10752 10751 10750 ] final   -4.74 input  -60.55 | X-H torsion
[ 11005 11000 10999 10996 ] final -134.22 input  -57.11 | X-H torsion

> <Gold.Protein.ActiveResidues>
 VAL166  LYS551  ARG553  GLY616  TRP617  ASP618  TYR619  PRO620  LYS621  CYS622 
 ASP623  PHE694  ASN695  SER759  ASP760  ASP761  ALA762  ILE779  LEU786  VAL792 
 PHE793  MET794  SER795  GLU796  ALA797  LYS798  CYS799  TRP800  GLU811  SER814 

> <Gold.Protein.RotatedAtoms>
  152.0228  133.3905  159.4264 H   0  0  0  0  0  0  0  0  0  0  0  0  # atno 6907 bound_to 6896
  150.6889  134.3607  159.4958 H   0  0  0  0  0  0  0  0  0  0  0  0  # atno 6908 bound_to 6896
  152.1383  134.9082  160.0606 H   0  0  0  0  0  0  0  0  0  0  0  0  # atno 6909 bound_to 6896
  146.1779  139.7178  142.8921 H   0  0  0  0  0  0  0  0  0  0  0  0  # atno 7974 bound_to 7965
  154.6695  140.2608  155.7022 H   0  0  0  0  0  0  0  0  0  0  0  0  # atno 8008 bound_to 7997
  156.2653  140.2832  156.1120 H   0  0  0  0  0  0  0  0  0  0  0  0  # atno 8009 bound_to 7997
  155.1190  140.0377  157.2735 H   0  0  0  0  0  0  0  0  0  0  0  0  # atno 8010 bound_to 7997
  140.7227  143.3721  151.1758 H   0  0  0  0  0  0  0  0  0  0  0  0  # atno 10167 bound_to 10162
  157.6343  131.0982  150.7028 H   0  0  0  0  0  0  0  0  0  0  0  0  # atno 10718 bound_to 10713
  153.3890  135.7001  153.6508 H   0  0  0  0  0  0  0  0  0  0  0  0  # atno 10763 bound_to 10752
  153.5088  135.3636  155.2577 H   0  0  0  0  0  0  0  0  0  0  0  0  # atno 10764 bound_to 10752
  154.8700  135.4130  154.3204 H   0  0  0  0  0  0  0  0  0  0  0  0  # atno 10765 bound_to 10752
  140.9010  134.1690  157.4460 H   0  0  0  0  0  0  0  0  0  0  0  0  # atno 11005 bound_to 11000
  145.4160  141.0401  143.2990 LP  0  0  0  0  0  0  0  0  0  0  0  0  # atno 17320 bound_to 7965
  144.8266  139.5700  143.6963 LP  0  0  0  0  0  0  0  0  0  0  0  0  # atno 17321 bound_to 7965
  139.7295  143.9096  152.3014 LP  0  0  0  0  0  0  0  0  0  0  0  0  # atno 17342 bound_to 10162
  139.8880  144.6981  150.8803 LP  0  0  0  0  0  0  0  0  0  0  0  0  # atno 17343 bound_to 10162
  156.7362  130.4725  149.5488 LP  0  0  0  0  0  0  0  0  0  0  0  0  # atno 17370 bound_to 10713
  156.1570  130.6348  151.0670 LP  0  0  0  0  0  0  0  0  0  0  0  0  # atno 17371 bound_to 10713
  139.8742  134.9898  156.5473 LP  0  0  0  0  0  0  0  0  0  0  0  0  # atno 17394 bound_to 11000
  140.8230  133.8339  155.8913 LP  0  0  0  0  0  0  0  0  0  0  0  0  # atno 17395 bound_to 11000

$$$$
