AV-unprocessed.smi:2035|AV-procd|sdf|8272|dock1
  -GOLD-   2272010543D 1   1.00000     0.00000
 Structure written by MMmdl.
 35 36  0  0  0  0  0  0  0  0  2 V2000
  145.1047  137.9621  153.1501 O   0  0  0  0  0  0  0  0  0  0  0  0
  146.2073  137.5213  152.8291 C   0  0  0  0  0  0  0  0  0  0  0  0
  147.3830  138.1539  152.9908 N   0  0  0  0  0  0  0  0  0  0  0  0
  147.6591  139.4370  153.5423 C   0  0  0  0  0  0  0  0  0  0  0  0
  148.9180  139.6098  154.1604 C   0  0  0  0  0  0  0  0  0  0  0  0
  149.2561  140.8576  154.7223 C   0  0  0  0  0  0  0  0  0  0  0  0
  148.3772  141.8803  154.6652 N   0  3  0  0  0  0  0  0  0  0  0  0
  147.1642  141.7671  154.0837 C   0  0  0  0  0  0  0  0  0  0  0  0
  146.7704  140.5433  153.5045 C   0  0  0  0  0  0  0  0  0  0  0  0
  146.3834  136.3184  152.2628 N   0  0  0  0  0  0  0  0  0  0  0  0
  145.3269  135.3509  151.9598 C   0  0  1  0  0  0  0  0  0  0  0  0
  145.8318  134.3210  150.9243 C   0  0  0  0  0  0  0  0  0  0  0  0
  144.7103  133.6202  150.1408 C   0  0  0  0  0  0  0  0  0  0  0  0
  143.7611  132.7668  150.9952 C   0  0  0  0  0  0  0  0  0  0  0  0
  142.9266  133.5839  151.9965 C   0  0  0  0  0  0  0  0  0  0  0  0
  143.6810  133.9484  153.1894 N   0  0  0  0  0  0  0  0  0  0  0  0
  144.7721  134.7267  153.2543 C   0  0  0  0  0  0  0  0  0  0  0  0
  145.3273  134.9348  154.3330 O   0  0  0  0  0  0  0  0  0  0  0  0
  148.1959  137.6384  152.6863 H   0  0  0  0  0  0  0  0  0  0  0  0
  149.6235  138.7926  154.2064 H   0  0  0  0  0  0  0  0  0  0  0  0
  150.1964  141.0663  155.2113 H   0  0  0  0  0  0  0  0  0  0  0  0
  146.5480  142.6545  154.0969 H   0  0  0  0  0  0  0  0  0  0  0  0
  145.7970  140.4908  153.0441 H   0  0  0  0  0  0  0  0  0  0  0  0
  147.3251  136.0309  152.0380 H   0  0  0  0  0  0  0  0  0  0  0  0
  144.5016  135.9106  151.5157 H   0  0  0  0  0  0  0  0  0  0  0  0
  146.4702  134.8206  150.1944 H   0  0  0  0  0  0  0  0  0  0  0  0
  146.4676  133.5803  151.4115 H   0  0  0  0  0  0  0  0  0  0  0  0
  144.1343  134.3631  149.5878 H   0  0  0  0  0  0  0  0  0  0  0  0
  145.1668  132.9786  149.3864 H   0  0  0  0  0  0  0  0  0  0  0  0
  143.0765  132.2509  150.3210 H   0  0  0  0  0  0  0  0  0  0  0  0
  144.3158  131.9830  151.5130 H   0  0  0  0  0  0  0  0  0  0  0  0
  142.5032  134.4726  151.5263 H   0  0  0  0  0  0  0  0  0  0  0  0
  142.0803  132.9820  152.3284 H   0  0  0  0  0  0  0  0  0  0  0  0
  143.3458  133.5608  154.0596 H   0  0  0  0  0  0  0  0  0  0  0  0
  148.6406  142.7761  155.0770 H   0  0  0  0  0  0  0  0  0  0  0  0
  1  2  2  0  0  0  0
  2  3  1  0  0  0  0
  2 10  1  0  0  0  0
  3  4  1  0  0  0  0
  3 19  1  0  0  0  0
  4  9  1  0  0  0  0
  4  5  2  0  0  0  0
  5  6  1  0  0  0  0
  5 20  1  0  0  0  0
  6  7  2  0  0  0  0
  6 21  1  0  0  0  0
  7  8  1  0  0  0  0
  7 35  1  0  0  0  0
  8  9  2  0  0  0  0
  8 22  1  0  0  0  0
  9 23  1  0  0  0  0
 10 11  1  0  0  0  0
 10 24  1  0  0  0  0
 11 17  1  0  0  0  0
 11 12  1  0  0  0  0
 11 25  1  0  0  0  0
 12 13  1  0  0  0  0
 12 26  1  0  0  0  0
 12 27  1  0  0  0  0
 13 14  1  0  0  0  0
 13 28  1  0  0  0  0
 13 29  1  0  0  0  0
 14 15  1  0  0  0  0
 14 30  1  0  0  0  0
 14 31  1  0  0  0  0
 15 16  1  0  0  0  0
 15 32  1  0  0  0  0
 15 33  1  0  0  0  0
 16 17  1  0  0  0  0
 16 34  1  0  0  0  0
 17 18  2  0  0  0  0
M  CHG  1   7   1
M  END
> <s_m_source_file>
AV-unprocessed.smi

> <i_m_source_file_index>
2035

> <i_lp_mmshare_version>
43012

> <i_f3d_flags>
0

> <s_epik_input>
W2NIXTFbY0hdbltjSF1bY0hdYzFbTkhdQyg9TylbTkhdW0NAQEhdMltDSDJdW0NIMl1bQ0gyXVtDSDJdW05IXUMyPU8=

> <s_epik_cmdline>
J2VwaWtfcHl0aG9uJywgJy1waCcsICc3LjAnLCAnLXRuJywgJzgnLCAnLW1hJywgJzIwMCcsICctbWV0YWxfYmluZGluZycsICctaW1hZScsICc8aW5maWxlLm1hZT4nLCAnLW9tYWUnLCAnPG91dGZpbGUubWFlPic=

> <r_epik_Ionization_Penalty>
1.10339

> <r_epik_Ionization_Penalty_Charging>
1.10337

> <r_epik_Ionization_Penalty_Neutral>
1.85869e-05

> <r_epik_State_Penalty>
1.16071

> <r_epik_Charging_Adjusted_Penalty>
2.26408

> <i_epik_Tot_Q>
1

> <i_epik_Tot_abs_Q>
1

> <r_epik_Metal_State_Penalty>
1.24751

> <b_epik_Metal_Only>
0

> <s_lp_Force_Field>
OPLS_2005

> <r_lp_Energy>
20.9624

> <b_lp_Chiralities_Consistent>
1

> <s_lp_Variant>
AV-unprocessed.smi:2035-4

> <Gold.Version>
5.8.1

> <Gold.Id.Protein>
6NUR|6NUR_protein|mol2

> <Gold.PLP.Fitness>
41.1249

> <Gold.PLP.PLP>
-27.6858

> <Gold.PLP.part.hbond>
-3.9911

> <Gold.PLP.part.metal>
0.0000

> <Gold.PLP.part.buried>
-0.9862

> <Gold.PLP.part.nonpolar>
-24.6088

> <Gold.PLP.part.repulsive>
1.6404

> <Gold.PLP.ligand.clash>
0.0000

> <Gold.PLP.ligand.torsion>
0.3610

> <Gold.PLP.Chemscore.Hbond>
4.7114

> <Gold.PLP.Chemscore.CHOScore>
0.0000

> <Gold.PLP.Chemscore.Metal>
0.0000

> <Gold.Chemscore.Hbonds>
donor molecule, donor type, donor heavy atom, donor atom, acceptor molecule, acceptor atom, score
      L1  H     3    19       P1  7948  1.00
      L1  H     7    35       P1  8028  2.00
      L1  H    10    24       P1  7948  1.00
      L1  H    16    34       P1 10957  0.72

> <Gold.PLP.Chemscore.Internal.Correction>
0.0270

> <Gold.Rescore>
     Score         DG    S(hbond)    S(metal)    S(lipo)     H(rot)  DE(clash)    DE(int)     intcor
     22.07     -22.62       3.60        0.00      65.50       1.00       0.16       0.39       ----

> <Gold.Chemscore.Fitness>
22.0656

> <Gold.Chemscore.DG>
-22.6151

> <Gold.Chemscore.ZeroCoef>
-5.4800

> <Gold.Chemscore.Hbond>
3.6024

> <Gold.Chemscore.Metal>
0.0000

> <Gold.Chemscore.Lipo>
65.4967

> <Gold.Chemscore.Internal_Hbond>
0.0000

> <Gold.Chemscore.DEClash>
0.1578

> <Gold.Chemscore.DEInternal>
0.3917

> <Gold.Chemscore.Rot>
1.0000

> <Gold.Chemscore.Internal.Correction>
   9.000000E+99

> <Gold.Chemscore.Hbonds>
donor molecule, donor type, donor heavy atom, donor atom, acceptor molecule, acceptor atom, score
      L1  H     3    19       P1  7948  0.96
      L1  H     7    35       P1  8028  0.93
      L1  H    10    24       P1  7948  0.98
      L1  H    16    34       P1 10957  0.68

> <Gold.Chemscore.Hbond.Weighted>
-12.0320

> <Gold.Chemscore.Metal.Weighted>
-0.0000

> <Gold.Chemscore.Lipo.Weighted>
-7.6631

> <Gold.Chemscore.Internal_Hbond.Weighted>
0.0000

> <Gold.Chemscore.DEClash.Weighted>
0.1578

> <Gold.Chemscore.DEInternal.Weighted>
0.3917

> <Gold.Chemscore.Rot.Weighted>
2.5600

> <Gold.Chemscore.Internal.Correction.Weighted>
   9.000000E+99

> <Gold.Protein.RotatedTorsions>
[ 6907 6896 6895 6894 ] final   77.94 input  -60.11 | X-H torsion
[ 7974 7965 7964 7962 ] final  151.38 input  175.53 | X-H torsion
[ 8008 7997 7996 7995 ] final  -57.99 input   59.86 | X-H torsion
[ 10167 10162 10161 10158 ] final  172.57 input  -65.29 | X-H torsion
[ 10718 10713 10712 10709 ] final  -29.92 input   66.30 | X-H torsion
[ 10763 10752 10751 10750 ] final   31.61 input  -60.55 | X-H torsion
[ 11005 11000 10999 10996 ] final  -45.66 input  -57.11 | X-H torsion

> <Gold.Protein.ActiveResidues>
 VAL166  LYS551  ARG553  GLY616  TRP617  ASP618  TYR619  PRO620  LYS621  CYS622 
 ASP623  PHE694  ASN695  SER759  ASP760  ASP761  ALA762  ILE779  LEU786  VAL792 
 PHE793  MET794  SER795  GLU796  ALA797  LYS798  CYS799  TRP800  GLU811  SER814 

> <Gold.Protein.RotatedAtoms>
  152.5139  134.3740  159.9327 H   0  0  0  0  0  0  0  0  0  0  0  0  # atno 6907 bound_to 6896
  151.3695  133.3853  159.2706 H   0  0  0  0  0  0  0  0  0  0  0  0  # atno 6908 bound_to 6896
  150.9588  134.8999  159.7776 H   0  0  0  0  0  0  0  0  0  0  0  0  # atno 6909 bound_to 6896
  144.8296  139.6530  143.6064 H   0  0  0  0  0  0  0  0  0  0  0  0  # atno 7974 bound_to 7965
  154.4290  140.1094  156.5886 H   0  0  0  0  0  0  0  0  0  0  0  0  # atno 8008 bound_to 7997
  155.6036  140.3493  155.4582 H   0  0  0  0  0  0  0  0  0  0  0  0  # atno 8009 bound_to 7997
  156.0154  140.1228  157.0401 H   0  0  0  0  0  0  0  0  0  0  0  0  # atno 8010 bound_to 7997
  139.5081  144.3358  152.0066 H   0  0  0  0  0  0  0  0  0  0  0  0  # atno 10167 bound_to 10162
  156.4063  130.4400  149.7285 H   0  0  0  0  0  0  0  0  0  0  0  0  # atno 10718 bound_to 10713
  153.0306  135.6434  154.1226 H   0  0  0  0  0  0  0  0  0  0  0  0  # atno 10763 bound_to 10752
  154.0949  135.2863  155.3265 H   0  0  0  0  0  0  0  0  0  0  0  0  # atno 10764 bound_to 10752
  154.6439  135.5450  153.7885 H   0  0  0  0  0  0  0  0  0  0  0  0  # atno 10765 bound_to 10752
  141.0530  133.6736  156.3045 H   0  0  0  0  0  0  0  0  0  0  0  0  # atno 11005 bound_to 11000
  146.2600  139.6389  142.9368 LP  0  0  0  0  0  0  0  0  0  0  0  0  # atno 17320 bound_to 7965
  145.4924  141.0438  143.2586 LP  0  0  0  0  0  0  0  0  0  0  0  0  # atno 17321 bound_to 7965
  140.2797  144.3873  150.6123 LP  0  0  0  0  0  0  0  0  0  0  0  0  # atno 17342 bound_to 10162
  140.6027  143.2167  151.7041 LP  0  0  0  0  0  0  0  0  0  0  0  0  # atno 17343 bound_to 10162
  156.4281  130.7801  151.2821 LP  0  0  0  0  0  0  0  0  0  0  0  0  # atno 17370 bound_to 10713
  157.7505  131.0162  150.3536 LP  0  0  0  0  0  0  0  0  0  0  0  0  # atno 17371 bound_to 10713
  140.6019  134.5546  157.5519 LP  0  0  0  0  0  0  0  0  0  0  0  0  # atno 17394 bound_to 11000
  139.9366  134.7864  156.0787 LP  0  0  0  0  0  0  0  0  0  0  0  0  # atno 17395 bound_to 11000

$$$$
