AV-unprocessed.smi:2669|AV-procd|sdf|10344|dock8
  -GOLD-   2272014363D 1   1.00000     0.00000
 Structure written by MMmdl.
 39 41  0  0  0  0  0  0  0  0  1 V2000
  146.8154  134.7403  154.2151 C   0  0  0  0  0  0  0  0  0  0  0  0
  148.2006  135.1777  154.1470 N   0  0  0  0  0  0  0  0  0  0  0  0
  149.1575  134.6566  155.0294 C   0  0  0  0  0  0  0  0  0  0  0  0
  149.0901  133.3599  155.4110 N   0  0  0  0  0  0  0  0  0  0  0  0
  150.0263  132.9055  156.2545 C   0  0  0  0  0  0  0  0  0  0  0  0
  151.0624  133.5608  156.8008 N   0  0  0  0  0  0  0  0  0  0  0  0
  151.1379  134.8460  156.4290 C   0  0  0  0  0  0  0  0  0  0  0  0
  152.1003  135.7542  156.8355 N   0  0  0  0  0  0  0  0  0  0  0  0
  151.7221  136.8553  156.1911 C   0  0  0  0  0  0  0  0  0  0  0  0
  150.6261  136.7744  155.4107 N   0  0  0  0  0  0  0  0  0  0  0  0
  150.0402  137.8464  154.6239 C   0  0  0  0  0  0  0  0  0  0  0  0
  150.7911  139.1826  154.7911 C   0  0  1  0  0  0  0  0  0  0  0  0
  150.2110  140.1475  153.9340 O   0  0  0  0  0  0  0  0  0  0  0  0
  150.7211  139.7030  156.2356 C   0  0  0  0  0  0  0  0  0  0  0  0
  151.0447  141.0870  156.2412 O   0  0  0  0  0  0  0  0  0  0  0  0
  151.4005  141.6710  157.4379 C   0  0  0  0  0  0  0  0  0  0  0  0
  151.3703  143.0798  157.4951 C   0  0  0  0  0  0  0  0  0  0  0  0
  151.7203  143.7616  158.6764 C   0  0  0  0  0  0  0  0  0  0  0  0
  152.1053  143.0362  159.8191 C   0  0  0  0  0  0  0  0  0  0  0  0
  152.5348  143.8690  161.2680 Cl  0  0  0  0  0  0  0  0  0  0  0  0
  152.1390  141.6299  159.7768 C   0  0  0  0  0  0  0  0  0  0  0  0
  151.7892  140.9484  158.5946 C   0  0  0  0  0  0  0  0  0  0  0  0
  150.2035  135.4529  155.5366 C   0  0  0  0  0  0  0  0  0  0  0  0
  146.2204  135.2716  153.4722 H   0  0  0  0  0  0  0  0  0  0  0  0
  146.3930  134.9441  155.1995 H   0  0  0  0  0  0  0  0  0  0  0  0
  146.7374  133.6714  154.0140 H   0  0  0  0  0  0  0  0  0  0  0  0
  148.4592  135.8940  153.4840 H   0  0  0  0  0  0  0  0  0  0  0  0
  149.9347  131.8664  156.5337 H   0  0  0  0  0  0  0  0  0  0  0  0
  152.2737  137.7783  156.2949 H   0  0  0  0  0  0  0  0  0  0  0  0
  150.0309  137.5452  153.5753 H   0  0  0  0  0  0  0  0  0  0  0  0
  148.9965  137.9549  154.9198 H   0  0  0  0  0  0  0  0  0  0  0  0
  151.8341  139.0428  154.5046 H   0  0  0  0  0  0  0  0  0  0  0  0
  149.9855  139.7289  153.1175 H   0  0  0  0  0  0  0  0  0  0  0  0
  149.7368  139.5151  156.6682 H   0  0  0  0  0  0  0  0  0  0  0  0
  151.4587  139.1772  156.8440 H   0  0  0  0  0  0  0  0  0  0  0  0
  151.0764  143.6451  156.6228 H   0  0  0  0  0  0  0  0  0  0  0  0
  151.6932  144.8410  158.7032 H   0  0  0  0  0  0  0  0  0  0  0  0
  152.4344  141.0698  160.6518 H   0  0  0  0  0  0  0  0  0  0  0  0
  151.8283  139.8698  158.6017 H   0  0  0  0  0  0  0  0  0  0  0  0
  1  2  1  0  0  0  0
  1 24  1  0  0  0  0
  1 25  1  0  0  0  0
  1 26  1  0  0  0  0
  2  3  1  0  0  0  0
  2 27  1  0  0  0  0
  3 23  1  0  0  0  0
  3  4  2  0  0  0  0
  4  5  1  0  0  0  0
  5  6  2  0  0  0  0
  5 28  1  0  0  0  0
  6  7  1  0  0  0  0
  7 23  2  0  0  0  0
  7  8  1  0  0  0  0
  8  9  2  0  0  0  0
  9 10  1  0  0  0  0
  9 29  1  0  0  0  0
 10 11  1  0  0  0  0
 10 23  1  0  0  0  0
 11 12  1  0  0  0  0
 11 30  1  0  0  0  0
 11 31  1  0  0  0  0
 12 13  1  0  0  0  0
 12 14  1  0  0  0  0
 12 32  1  0  0  0  0
 13 33  1  0  0  0  0
 14 15  1  0  0  0  0
 14 34  1  0  0  0  0
 14 35  1  0  0  0  0
 15 16  1  0  0  0  0
 16 22  1  0  0  0  0
 16 17  2  0  0  0  0
 17 18  1  0  0  0  0
 17 36  1  0  0  0  0
 18 19  2  0  0  0  0
 18 37  1  0  0  0  0
 19 20  1  0  0  0  0
 19 21  1  0  0  0  0
 21 22  2  0  0  0  0
 21 38  1  0  0  0  0
 22 39  1  0  0  0  0
M  END
> <s_m_source_file>
AV-unprocessed.smi

> <i_m_source_file_index>
2669

> <i_lp_mmshare_version>
43012

> <i_f3d_flags>
0

> <s_epik_input>
bjFbY0hdbmMoW05IXVtDSDNdKWMoYzEyKW4oW2NIXW4yKVtDSDJdW0NASF0oW09IXSlbQ0gyXU9jM1tjSF1bY0hdYyhDbClbY0hdW2NIXTM=

> <s_epik_cmdline>
J2VwaWtfcHl0aG9uJywgJy1waCcsICc3LjAnLCAnLXRuJywgJzgnLCAnLW1hJywgJzIwMCcsICctbWV0YWxfYmluZGluZycsICctaW1hZScsICc8aW5maWxlLm1hZT4nLCAnLW9tYWUnLCAnPG91dGZpbGUubWFlPic=

> <r_lp_tautomer_probability>
1

> <r_epik_Ionization_Penalty>
0.00733592

> <r_epik_Ionization_Penalty_Charging>
0

> <r_epik_Ionization_Penalty_Neutral>
0.00733592

> <r_epik_State_Penalty>
-0

> <r_epik_Charging_Adjusted_Penalty>
0

> <i_epik_Tot_Q>
0

> <i_epik_Tot_abs_Q>
0

> <r_epik_Metal_State_Penalty>
-0

> <b_epik_Metal_Only>
0

> <s_lp_Force_Field>
OPLS_2005

> <r_lp_Energy>
13.4458

> <b_lp_Chiralities_Consistent>
1

> <s_lp_Variant>
AV-unprocessed.smi:2669-2

> <Gold.Version>
5.8.1

> <Gold.Id.Protein>
6NUR|6NUR_protein|mol2

> <Gold.PLP.Fitness>
48.1330

> <Gold.PLP.PLP>
-40.3329

> <Gold.PLP.part.hbond>
-4.3681

> <Gold.PLP.part.metal>
0.0000

> <Gold.PLP.part.buried>
-6.0250

> <Gold.PLP.part.nonpolar>
-30.6656

> <Gold.PLP.part.repulsive>
0.0606

> <Gold.PLP.ligand.clash>
0.0000

> <Gold.PLP.ligand.torsion>
0.7129

> <Gold.PLP.Chemscore.Hbond>
3.0300

> <Gold.PLP.Chemscore.CHOScore>
0.0000

> <Gold.PLP.Chemscore.Metal>
0.0000

> <Gold.Chemscore.Hbonds>
donor molecule, donor type, donor heavy atom, donor atom, acceptor molecule, acceptor atom, score
      L1  H     2    27       P1  7948  0.90
      L1  H    13    33       P1  7957  0.90
      P1  H  7989  7998       L1    13  0.72
      P1  H 10752 10764       L1     8  0.38

> <Gold.PLP.Chemscore.Internal.Correction>
0.1358

> <Gold.Rescore>
     Score         DG    S(hbond)    S(metal)    S(lipo)     H(rot)  DE(clash)    DE(int)     intcor
     14.10     -15.70       2.02        0.00      94.75       2.97       0.11       1.48       ----

> <Gold.Chemscore.Fitness>
14.0971

> <Gold.Chemscore.DG>
-15.6952

> <Gold.Chemscore.ZeroCoef>
-5.4800

> <Gold.Chemscore.Hbond>
2.0193

> <Gold.Chemscore.Metal>
0.0000

> <Gold.Chemscore.Lipo>
94.7497

> <Gold.Chemscore.Internal_Hbond>
0.0000

> <Gold.Chemscore.DEClash>
0.1137

> <Gold.Chemscore.DEInternal>
1.4844

> <Gold.Chemscore.Rot>
2.9746

> <Gold.Chemscore.Internal.Correction>
   9.000000E+99

> <Gold.Chemscore.Hbonds>
donor molecule, donor type, donor heavy atom, donor atom, acceptor molecule, acceptor atom, score
      L1  H     2    27       P1  7948  0.88
      L1  H    13    33       P1  7957  0.84
      P1  H  7989  7998       L1    13  0.03

> <Gold.Chemscore.Hbond.Weighted>
-6.7445

> <Gold.Chemscore.Metal.Weighted>
-0.0000

> <Gold.Chemscore.Lipo.Weighted>
-11.0857

> <Gold.Chemscore.Internal_Hbond.Weighted>
0.0000

> <Gold.Chemscore.DEClash.Weighted>
0.1137

> <Gold.Chemscore.DEInternal.Weighted>
1.4844

> <Gold.Chemscore.Rot.Weighted>
7.6150

> <Gold.Chemscore.Internal.Correction.Weighted>
   9.000000E+99

> <Gold.Protein.RotatedTorsions>
[ 6907 6896 6895 6894 ] final   45.25 input  -60.11 | X-H torsion
[ 7974 7965 7964 7962 ] final   -8.13 input  175.53 | X-H torsion
[ 8008 7997 7996 7995 ] final  133.18 input   59.86 | X-H torsion
[ 10167 10162 10161 10158 ] final  127.52 input  -65.29 | X-H torsion
[ 10718 10713 10712 10709 ] final   66.52 input   66.30 | X-H torsion
[ 10763 10752 10751 10750 ] final    3.95 input  -60.55 | X-H torsion
[ 11005 11000 10999 10996 ] final    2.07 input  -57.11 | X-H torsion

> <Gold.Protein.ActiveResidues>
 VAL166  LYS551  ARG553  GLY616  TRP617  ASP618  TYR619  PRO620  LYS621  CYS622 
 ASP623  PHE694  ASN695  SER759  ASP760  ASP761  ALA762  ILE779  LEU786  VAL792 
 PHE793  MET794  SER795  GLU796  ALA797  LYS798  CYS799  TRP800  GLU811  SER814 

> <Gold.Protein.RotatedAtoms>
  152.2423  134.8216  160.0458 H   0  0  0  0  0  0  0  0  0  0  0  0  # atno 6907 bound_to 6896
  151.8926  133.3514  159.3811 H   0  0  0  0  0  0  0  0  0  0  0  0  # atno 6908 bound_to 6896
  150.7057  134.4835  159.5526 H   0  0  0  0  0  0  0  0  0  0  0  0  # atno 6909 bound_to 6896
  146.2288  140.2423  142.8344 H   0  0  0  0  0  0  0  0  0  0  0  0  # atno 7974 bound_to 7965
  156.2990  140.2528  156.3211 H   0  0  0  0  0  0  0  0  0  0  0  0  # atno 8008 bound_to 7997
  154.9235  140.0400  157.2029 H   0  0  0  0  0  0  0  0  0  0  0  0  # atno 8009 bound_to 7997
  154.8288  140.2872  155.5740 H   0  0  0  0  0  0  0  0  0  0  0  0  # atno 8010 bound_to 7997
  139.5574  144.6858  151.4143 H   0  0  0  0  0  0  0  0  0  0  0  0  # atno 10167 bound_to 10162
  157.6174  130.9272  150.0120 H   0  0  0  0  0  0  0  0  0  0  0  0  # atno 10718 bound_to 10713
  153.2772  135.6937  153.7422 H   0  0  0  0  0  0  0  0  0  0  0  0  # atno 10763 bound_to 10752
  153.6423  135.3391  155.3076 H   0  0  0  0  0  0  0  0  0  0  0  0  # atno 10764 bound_to 10752
  154.8483  135.4434  154.1813 H   0  0  0  0  0  0  0  0  0  0  0  0  # atno 10765 bound_to 10752
  140.6084  133.9771  155.8165 H   0  0  0  0  0  0  0  0  0  0  0  0  # atno 11005 bound_to 11000
  144.9475  140.8144  143.5592 LP  0  0  0  0  0  0  0  0  0  0  0  0  # atno 17320 bound_to 7965
  145.2380  139.2085  143.5007 LP  0  0  0  0  0  0  0  0  0  0  0  0  # atno 17321 bound_to 7965
  140.6849  143.7997  150.7172 LP  0  0  0  0  0  0  0  0  0  0  0  0  # atno 17342 bound_to 10162
  140.1462  143.4398  152.2161 LP  0  0  0  0  0  0  0  0  0  0  0  0  # atno 17343 bound_to 10162
  156.1303  130.3643  149.9743 LP  0  0  0  0  0  0  0  0  0  0  0  0  # atno 17370 bound_to 10713
  156.7805  130.9219  151.3646 LP  0  0  0  0  0  0  0  0  0  0  0  0  # atno 17371 bound_to 10713
  141.0825  134.0041  157.3365 LP  0  0  0  0  0  0  0  0  0  0  0  0  # atno 17394 bound_to 11000
  139.9202  135.0200  156.8036 LP  0  0  0  0  0  0  0  0  0  0  0  0  # atno 17395 bound_to 11000

$$$$
