AV-unprocessed.smi:3056|AV-procd|sdf|11655|dock9
  -GOLD-   2272017 53D 1   1.00000     0.00000
 Structure written by MMmdl.
 47 48  0  0  0  0  0  0  0  0  1 V2000
  152.0525  145.5553  159.6729 C   0  0  0  0  0  0  0  0  0  0  0  0
  151.7230  144.2426  159.0233 C   0  0  0  0  0  0  0  0  0  0  0  0
  151.2013  144.0196  157.7184 C   0  0  0  0  0  0  0  0  0  0  0  0
  151.0284  142.7370  157.4471 N   0  0  0  0  0  0  0  0  0  0  0  0
  151.4164  142.0914  158.5688 N   0  0  0  0  0  0  0  0  0  0  0  0
  151.3808  140.6322  158.5974 C   0  0  2  0  0  0  0  0  0  0  0  0
  152.7686  140.0452  158.9319 C   0  0  0  0  0  0  0  0  0  0  0  0
  150.7447  140.0552  157.3038 C   0  0  1  0  0  0  0  0  0  0  0  0
  151.5349  140.3835  156.0191 C   0  0  0  0  0  0  0  0  0  0  0  0
  150.5432  138.6172  157.4932 N   0  0  0  0  0  0  0  0  0  0  0  0
  149.2682  138.2231  158.1174 C   0  0  0  0  0  0  0  0  0  0  0  0
  149.4099  137.2180  159.2764 C   0  0  0  0  0  0  0  0  0  0  0  0
  150.5070  137.0913  159.8237 O   0  0  0  0  0  0  0  0  0  0  0  0
  148.3265  136.5047  159.6658 N   0  0  0  0  0  0  0  0  0  0  0  0
  146.9837  136.7247  159.1240 C   0  0  0  0  0  0  0  0  0  0  0  0
  146.0944  137.2576  160.2617 C   0  0  0  0  0  0  0  0  0  0  0  0
  146.0942  136.3335  161.3487 O   0  0  0  0  0  0  0  0  0  0  0  0
  147.3953  136.0666  161.8724 C   0  0  1  0  0  0  0  0  0  0  0  0
  147.2509  135.0796  163.0356 C   0  0  0  0  0  0  0  0  0  0  0  0
  148.2832  135.5106  160.7415 C   0  0  0  0  0  0  0  0  0  0  0  0
  151.8532  142.9815  159.5318 C   0  0  0  0  0  0  0  0  0  0  0  0
  152.2530  146.3326  158.9352 H   0  0  0  0  0  0  0  0  0  0  0  0
  152.9353  145.4811  160.3082 H   0  0  0  0  0  0  0  0  0  0  0  0
  151.2337  145.9093  160.2991 H   0  0  0  0  0  0  0  0  0  0  0  0
  150.9491  144.7482  156.9619 H   0  0  0  0  0  0  0  0  0  0  0  0
  150.7272  140.3619  159.4297 H   0  0  0  0  0  0  0  0  0  0  0  0
  152.7211  138.9652  159.0707 H   0  0  0  0  0  0  0  0  0  0  0  0
  153.1568  140.4704  159.8579 H   0  0  0  0  0  0  0  0  0  0  0  0
  153.4990  140.2423  158.1475 H   0  0  0  0  0  0  0  0  0  0  0  0
  149.7561  140.5073  157.2088 H   0  0  0  0  0  0  0  0  0  0  0  0
  151.7172  141.4532  155.9243 H   0  0  0  0  0  0  0  0  0  0  0  0
  150.9860  140.0887  155.1252 H   0  0  0  0  0  0  0  0  0  0  0  0
  152.5010  139.8794  155.9973 H   0  0  0  0  0  0  0  0  0  0  0  0
  150.7295  138.1006  156.6452 H   0  0  0  0  0  0  0  0  0  0  0  0
  148.8040  139.1211  158.5259 H   0  0  0  0  0  0  0  0  0  0  0  0
  148.5936  137.8399  157.3511 H   0  0  0  0  0  0  0  0  0  0  0  0
  146.9694  137.4240  158.2870 H   0  0  0  0  0  0  0  0  0  0  0  0
  146.5855  135.7845  158.7403 H   0  0  0  0  0  0  0  0  0  0  0  0
  146.4446  138.2328  160.6037 H   0  0  0  0  0  0  0  0  0  0  0  0
  145.0710  137.3906  159.9109 H   0  0  0  0  0  0  0  0  0  0  0  0
  147.8231  136.9959  162.2534 H   0  0  0  0  0  0  0  0  0  0  0  0
  148.2201  134.8532  163.4804 H   0  0  0  0  0  0  0  0  0  0  0  0
  146.8065  134.1409  162.7041 H   0  0  0  0  0  0  0  0  0  0  0  0
  146.6144  135.4916  163.8189 H   0  0  0  0  0  0  0  0  0  0  0  0
  147.8576  134.5842  160.3532 H   0  0  0  0  0  0  0  0  0  0  0  0
  149.2639  135.2370  161.1268 H   0  0  0  0  0  0  0  0  0  0  0  0
  152.2208  142.6523  160.4925 H   0  0  0  0  0  0  0  0  0  0  0  0
  1  2  1  0  0  0  0
  1 22  1  0  0  0  0
  1 23  1  0  0  0  0
  1 24  1  0  0  0  0
  2 21  2  0  0  0  0
  2  3  1  0  0  0  0
  3  4  2  0  0  0  0
  3 25  1  0  0  0  0
  4  5  1  0  0  0  0
  5  6  1  0  0  0  0
  5 21  1  0  0  0  0
  6  7  1  0  0  0  0
  6  8  1  0  0  0  0
  6 26  1  0  0  0  0
  7 27  1  0  0  0  0
  7 28  1  0  0  0  0
  7 29  1  0  0  0  0
  8  9  1  0  0  0  0
  8 10  1  0  0  0  0
  8 30  1  0  0  0  0
  9 31  1  0  0  0  0
  9 32  1  0  0  0  0
  9 33  1  0  0  0  0
 10 11  1  0  0  0  0
 10 34  1  0  0  0  0
 11 12  1  0  0  0  0
 11 35  1  0  0  0  0
 11 36  1  0  0  0  0
 12 13  2  0  0  0  0
 12 14  1  0  0  0  0
 14 20  1  0  0  0  0
 14 15  1  0  0  0  0
 15 16  1  0  0  0  0
 15 37  1  0  0  0  0
 15 38  1  0  0  0  0
 16 17  1  0  0  0  0
 16 39  1  0  0  0  0
 16 40  1  0  0  0  0
 17 18  1  0  0  0  0
 18 19  1  0  0  0  0
 18 20  1  0  0  0  0
 18 41  1  0  0  0  0
 19 42  1  0  0  0  0
 19 43  1  0  0  0  0
 19 44  1  0  0  0  0
 20 45  1  0  0  0  0
 20 46  1  0  0  0  0
 21 47  1  0  0  0  0
M  END
> <s_m_source_file>
AV-unprocessed.smi

> <i_m_source_file_index>
3056

> <i_lp_mmshare_version>
43012

> <i_f3d_flags>
0

> <s_epik_input>
W0NIM11jMVtjSF1ubihbY0hdMSlbQ0BIXShbQ0gzXSlbQ0BIXShbQ0gzXSlbTkhdW0NIMl1DKD1PKU4yW0NIMl1bQ0gyXU9bQ0BASF0oW0NIM10pW0NIMl0y

> <s_epik_cmdline>
J2VwaWtfcHl0aG9uJywgJy1waCcsICc3LjAnLCAnLXRuJywgJzgnLCAnLW1hJywgJzIwMCcsICctbWV0YWxfYmluZGluZycsICctaW1hZScsICc8aW5maWxlLm1hZT4nLCAnLW9tYWUnLCAnPG91dGZpbGUubWFlPic=

> <r_lp_tautomer_probability>
1

> <r_epik_Ionization_Penalty>
0.667689

> <r_epik_Ionization_Penalty_Charging>
0

> <r_epik_Ionization_Penalty_Neutral>
0.667689

> <r_epik_State_Penalty>
0.684601

> <r_epik_Charging_Adjusted_Penalty>
0.684601

> <i_epik_Tot_Q>
0

> <i_epik_Tot_abs_Q>
0

> <r_epik_Metal_State_Penalty>
0.681448

> <b_epik_Metal_Only>
0

> <s_lp_Force_Field>
OPLS_2005

> <r_lp_Energy>
33.6961

> <b_lp_Chiralities_Consistent>
1

> <s_lp_Variant>
AV-unprocessed.smi:3056-11

> <Gold.Version>
5.8.1

> <Gold.Id.Protein>
6NUR|6NUR_protein|mol2

> <Gold.PLP.Fitness>
43.6282

> <Gold.PLP.PLP>
-39.8970

> <Gold.PLP.part.hbond>
-1.0000

> <Gold.PLP.part.metal>
0.0000

> <Gold.PLP.part.buried>
-5.2865

> <Gold.PLP.part.nonpolar>
-33.8760

> <Gold.PLP.part.repulsive>
0.0984

> <Gold.PLP.ligand.clash>
0.0000

> <Gold.PLP.ligand.torsion>
1.0709

> <Gold.PLP.Chemscore.Hbond>
1.0000

> <Gold.PLP.Chemscore.CHOScore>
0.8849

> <Gold.PLP.Chemscore.Metal>
0.0000

> <Gold.Chemscore.Hbonds>
donor molecule, donor type, donor heavy atom, donor atom, acceptor molecule, acceptor atom, score
      P1  H  6896  6909       L1    13  0.78
      L1  C     3    25       P1  8028  0.91

> <Gold.PLP.Chemscore.Internal.Correction>
0.2183

> <Gold.Rescore>
     Score         DG    S(hbond)    S(metal)    S(lipo)     H(rot)  DE(clash)    DE(int)     intcor
     13.88     -16.22       0.98        0.00     100.40       1.68       0.04       2.30       ----

> <Gold.Chemscore.Fitness>
13.8772

> <Gold.Chemscore.DG>
-16.2151

> <Gold.Chemscore.ZeroCoef>
-5.4800

> <Gold.Chemscore.Hbond>
0.9841

> <Gold.Chemscore.Metal>
0.0000

> <Gold.Chemscore.Lipo>
100.4044

> <Gold.Chemscore.Internal_Hbond>
0.0000

> <Gold.Chemscore.DEClash>
0.0407

> <Gold.Chemscore.DEInternal>
2.2972

> <Gold.Chemscore.Rot>
1.6793

> <Gold.Chemscore.Internal.Correction>
   9.000000E+99

> <Gold.Chemscore.Hbonds>
donor molecule, donor type, donor heavy atom, donor atom, acceptor molecule, acceptor atom, score
      P1  H  6896  6909       L1    13  0.54

> <Gold.Chemscore.Hbond.Weighted>
-3.2868

> <Gold.Chemscore.Metal.Weighted>
-0.0000

> <Gold.Chemscore.Lipo.Weighted>
-11.7473

> <Gold.Chemscore.Internal_Hbond.Weighted>
0.0000

> <Gold.Chemscore.DEClash.Weighted>
0.0407

> <Gold.Chemscore.DEInternal.Weighted>
2.2972

> <Gold.Chemscore.Rot.Weighted>
4.2990

> <Gold.Chemscore.Internal.Correction.Weighted>
   9.000000E+99

> <Gold.Protein.RotatedTorsions>
[ 6907 6896 6895 6894 ] final   86.48 input  -60.11 | X-H torsion
[ 7974 7965 7964 7962 ] final  -85.50 input  175.53 | X-H torsion
[ 8008 7997 7996 7995 ] final   68.36 input   59.86 | X-H torsion
[ 10167 10162 10161 10158 ] final  151.77 input  -65.29 | X-H torsion
[ 10718 10713 10712 10709 ] final   43.80 input   66.30 | X-H torsion
[ 10763 10752 10751 10750 ] final  -25.35 input  -60.55 | X-H torsion
[ 11005 11000 10999 10996 ] final  155.80 input  -57.11 | X-H torsion

> <Gold.Protein.ActiveResidues>
 VAL166  LYS551  ARG553  GLY616  TRP617  ASP618  TYR619  PRO620  LYS621  CYS622 
 ASP623  PHE694  ASN695  SER759  ASP760  ASP761  ALA762  ILE779  LEU786  VAL792 
 PHE793  MET794  SER795  GLU796  ALA797  LYS798  CYS799  TRP800  GLU811  SER814 

> <Gold.Protein.RotatedAtoms>
  152.5395  134.2424  159.8866 H   0  0  0  0  0  0  0  0  0  0  0  0  # atno 6907 bound_to 6896
  151.2391  133.4402  159.2614 H   0  0  0  0  0  0  0  0  0  0  0  0  # atno 6908 bound_to 6896
  151.0643  134.9771  159.8332 H   0  0  0  0  0  0  0  0  0  0  0  0  # atno 6909 bound_to 6896
  145.4924  140.9552  143.1805 H   0  0  0  0  0  0  0  0  0  0  0  0  # atno 7974 bound_to 7965
  155.7071  140.3495  155.4957 H   0  0  0  0  0  0  0  0  0  0  0  0  # atno 8008 bound_to 7997
  155.9389  140.1098  157.1094 H   0  0  0  0  0  0  0  0  0  0  0  0  # atno 8009 bound_to 7997
  154.4099  140.1216  156.4887 H   0  0  0  0  0  0  0  0  0  0  0  0  # atno 8010 bound_to 7997
  139.4838  144.5414  151.7559 H   0  0  0  0  0  0  0  0  0  0  0  0  # atno 10167 bound_to 10162
  157.4198  130.7963  149.7505 H   0  0  0  0  0  0  0  0  0  0  0  0  # atno 10718 bound_to 10713
  153.6984  135.6957  153.5070 H   0  0  0  0  0  0  0  0  0  0  0  0  # atno 10763 bound_to 10752
  153.2360  135.4321  155.0646 H   0  0  0  0  0  0  0  0  0  0  0  0  # atno 10764 bound_to 10752
  154.8351  135.3496  154.6524 H   0  0  0  0  0  0  0  0  0  0  0  0  # atno 10765 bound_to 10752
  140.1615  134.8606  157.2580 H   0  0  0  0  0  0  0  0  0  0  0  0  # atno 11005 bound_to 11000
  144.7826  139.6493  143.7147 LP  0  0  0  0  0  0  0  0  0  0  0  0  # atno 17320 bound_to 7965
  146.2276  139.5752  142.9577 LP  0  0  0  0  0  0  0  0  0  0  0  0  # atno 17321 bound_to 7965
  140.4953  144.1249  150.5959 LP  0  0  0  0  0  0  0  0  0  0  0  0  # atno 17342 bound_to 10162
  140.4124  143.2650  151.9817 LP  0  0  0  0  0  0  0  0  0  0  0  0  # atno 17343 bound_to 10162
  155.9877  130.3965  150.3153 LP  0  0  0  0  0  0  0  0  0  0  0  0  # atno 17370 bound_to 10713
  157.1299  131.0269  151.2973 LP  0  0  0  0  0  0  0  0  0  0  0  0  # atno 17371 bound_to 10713
  140.2484  134.3712  155.7452 LP  0  0  0  0  0  0  0  0  0  0  0  0  # atno 17394 bound_to 11000
  141.2210  133.7303  156.8898 LP  0  0  0  0  0  0  0  0  0  0  0  0  # atno 17395 bound_to 11000

$$$$
