AV-unprocessed.smi:1254|AV-procd|sdf|5273|dock2
  -GOLD-   22720 4393D 1   1.00000     0.00000
 Structure written by MMmdl.
 45 46  0  0  0  0  0  0  0  0  1 V2000
  150.8752  141.7515  157.7365 C   0  0  0  0  0  0  0  0  0  0  0  0
  150.6072  140.9070  156.5383 C   0  0  0  0  0  0  0  0  0  0  0  0
  149.4557  140.4551  155.9583 C   0  0  0  0  0  0  0  0  0  0  0  0
  149.9325  139.7020  154.8458 C   0  0  0  0  0  0  0  0  0  0  0  0
  149.1377  139.0148  153.8922 N   0  0  0  0  0  0  0  0  0  0  0  0
  147.8215  139.1423  153.6551 C   0  0  0  0  0  0  0  0  0  0  0  0
  147.0558  139.8859  154.2684 O   0  0  0  0  0  0  0  0  0  0  0  0
  147.4313  138.3435  152.6513 N   0  0  0  0  0  0  0  0  0  0  0  0
  146.0648  138.2259  152.1528 C   0  0  0  0  0  0  0  0  0  0  0  0
  145.3964  136.9288  152.6379 C   0  0  2  0  0  0  0  0  0  0  0  0
  145.3133  135.8750  151.5161 C   0  0  0  0  0  0  0  0  0  0  0  0
  144.6308  134.6595  151.9480 N   0  0  0  0  0  0  0  0  0  0  0  0
  144.5819  133.6767  150.8642 C   0  0  0  0  0  0  0  0  0  0  0  0
  145.7069  132.6152  150.8726 C   0  0  0  0  0  0  0  0  0  0  0  0
  147.0705  133.2592  151.1688 C   0  0  0  0  0  0  0  0  0  0  0  0
  145.7721  131.8418  149.5443 C   0  0  0  0  0  0  0  0  0  0  0  0
  143.3071  135.0131  152.4539 C   0  0  0  0  0  0  0  0  0  0  0  0
  143.3806  136.0773  153.5615 C   0  0  0  0  0  0  0  0  0  0  0  0
  144.0723  137.2227  153.0770 O   0  0  0  0  0  0  0  0  0  0  0  0
  151.2502  139.6998  154.7608 N   0  0  0  0  0  0  0  0  0  0  0  0
  151.6915  140.4694  155.8434 O   0  0  0  0  0  0  0  0  0  0  0  0
  149.9516  142.1824  158.1232 H   0  0  0  0  0  0  0  0  0  0  0  0
  151.5519  142.5699  157.4903 H   0  0  0  0  0  0  0  0  0  0  0  0
  151.3320  141.1606  158.5305 H   0  0  0  0  0  0  0  0  0  0  0  0
  148.4457  140.6441  156.2889 H   0  0  0  0  0  0  0  0  0  0  0  0
  149.6341  138.3506  153.3169 H   0  0  0  0  0  0  0  0  0  0  0  0
  148.1276  137.7640  152.2060 H   0  0  0  0  0  0  0  0  0  0  0  0
  145.4665  139.0950  152.4318 H   0  0  0  0  0  0  0  0  0  0  0  0
  146.1139  138.2258  151.0637 H   0  0  0  0  0  0  0  0  0  0  0  0
  145.9697  136.5227  153.4735 H   0  0  0  0  0  0  0  0  0  0  0  0
  144.7941  136.3026  150.6567 H   0  0  0  0  0  0  0  0  0  0  0  0
  146.3211  135.6296  151.1795 H   0  0  0  0  0  0  0  0  0  0  0  0
  143.6057  133.1894  150.8446 H   0  0  0  0  0  0  0  0  0  0  0  0
  144.6433  134.2221  149.9215 H   0  0  0  0  0  0  0  0  0  0  0  0
  145.5150  131.9026  151.6762 H   0  0  0  0  0  0  0  0  0  0  0  0
  147.3361  133.9938  150.4078 H   0  0  0  0  0  0  0  0  0  0  0  0
  147.8622  132.5101  151.1988 H   0  0  0  0  0  0  0  0  0  0  0  0
  147.0643  133.7657  152.1345 H   0  0  0  0  0  0  0  0  0  0  0  0
  146.0005  132.5068  148.7108 H   0  0  0  0  0  0  0  0  0  0  0  0
  144.8300  131.3444  149.3174 H   0  0  0  0  0  0  0  0  0  0  0  0
  146.5455  131.0739  149.5757 H   0  0  0  0  0  0  0  0  0  0  0  0
  142.6850  135.3834  151.6377 H   0  0  0  0  0  0  0  0  0  0  0  0
  142.8097  134.1310  152.8555 H   0  0  0  0  0  0  0  0  0  0  0  0
  142.3781  136.3711  153.8724 H   0  0  0  0  0  0  0  0  0  0  0  0
  143.8877  135.6832  154.4436 H   0  0  0  0  0  0  0  0  0  0  0  0
  1  2  1  0  0  0  0
  1 22  1  0  0  0  0
  1 23  1  0  0  0  0
  1 24  1  0  0  0  0
  2 21  1  0  0  0  0
  2  3  2  0  0  0  0
  3  4  1  0  0  0  0
  3 25  1  0  0  0  0
  4  5  1  0  0  0  0
  4 20  2  0  0  0  0
  5  6  1  0  0  0  0
  5 26  1  0  0  0  0
  6  7  2  0  0  0  0
  6  8  1  0  0  0  0
  8  9  1  0  0  0  0
  8 27  1  0  0  0  0
  9 10  1  0  0  0  0
  9 28  1  0  0  0  0
  9 29  1  0  0  0  0
 10 19  1  0  0  0  0
 10 11  1  0  0  0  0
 10 30  1  0  0  0  0
 11 12  1  0  0  0  0
 11 31  1  0  0  0  0
 11 32  1  0  0  0  0
 12 13  1  0  0  0  0
 12 17  1  0  0  0  0
 13 14  1  0  0  0  0
 13 33  1  0  0  0  0
 13 34  1  0  0  0  0
 14 15  1  0  0  0  0
 14 16  1  0  0  0  0
 14 35  1  0  0  0  0
 15 36  1  0  0  0  0
 15 37  1  0  0  0  0
 15 38  1  0  0  0  0
 16 39  1  0  0  0  0
 16 40  1  0  0  0  0
 16 41  1  0  0  0  0
 17 18  1  0  0  0  0
 17 42  1  0  0  0  0
 17 43  1  0  0  0  0
 18 19  1  0  0  0  0
 18 44  1  0  0  0  0
 18 45  1  0  0  0  0
 20 21  1  0  0  0  0
M  END
> <s_m_source_file>
AV-unprocessed.smi

> <i_m_source_file_index>
1254

> <i_lp_mmshare_version>
43012

> <i_f3d_flags>
0

> <s_epik_input>
W0NIM11jMVtjSF1jKG5vMSlbTkhdQyg9TylbTkhdW0NIMl1bQ0BASF0yW0NIMl1OKFtDSDJdW0NIMl1PMilbQ0gyXVtDSF0oW0NIM10pW0NIM10=

> <s_epik_cmdline>
J2VwaWtfcHl0aG9uJywgJy1waCcsICc3LjAnLCAnLXRuJywgJzgnLCAnLW1hJywgJzIwMCcsICctbWV0YWxfYmluZGluZycsICctaW1hZScsICc8aW5maWxlLm1hZT4nLCAnLW9tYWUnLCAnPG91dGZpbGUubWFlPic=

> <r_epik_Ionization_Penalty>
1.11086

> <r_epik_Ionization_Penalty_Charging>
0

> <r_epik_Ionization_Penalty_Neutral>
1.11086

> <r_epik_State_Penalty>
1.16881

> <r_epik_Charging_Adjusted_Penalty>
1.16881

> <i_epik_Tot_Q>
0

> <i_epik_Tot_abs_Q>
0

> <r_epik_Metal_State_Penalty>
1.1835

> <b_epik_Metal_Only>
0

> <s_lp_Force_Field>
OPLS_2005

> <r_lp_Energy>
24.7903

> <b_lp_Chiralities_Consistent>
1

> <s_lp_Variant>
AV-unprocessed.smi:1254-5

> <Gold.Version>
5.8.1

> <Gold.Id.Protein>
6NUR|6NUR_protein|mol2

> <Gold.PLP.Fitness>
40.5904

> <Gold.PLP.PLP>
-37.7420

> <Gold.PLP.part.hbond>
-5.0000

> <Gold.PLP.part.metal>
0.0000

> <Gold.PLP.part.buried>
-3.1168

> <Gold.PLP.part.nonpolar>
-31.3658

> <Gold.PLP.part.repulsive>
2.2620

> <Gold.PLP.ligand.clash>
0.0000

> <Gold.PLP.ligand.torsion>
1.4016

> <Gold.PLP.Chemscore.Hbond>
1.8500

> <Gold.PLP.Chemscore.CHOScore>
0.0000

> <Gold.PLP.Chemscore.Metal>
0.0000

> <Gold.Chemscore.Hbonds>
donor molecule, donor type, donor heavy atom, donor atom, acceptor molecule, acceptor atom, score
      L1  H     8    27       P1  7948  1.00
      P1  H  7989  7998       L1    20  0.85

> <Gold.PLP.Chemscore.Internal.Correction>
0.1017

> <Gold.Rescore>
     Score         DG    S(hbond)    S(metal)    S(lipo)     H(rot)  DE(clash)    DE(int)     intcor
     12.90     -15.87       1.72        0.00      76.53       1.69       0.37       2.59       ----

> <Gold.Chemscore.Fitness>
12.9026

> <Gold.Chemscore.DG>
-15.8658

> <Gold.Chemscore.ZeroCoef>
-5.4800

> <Gold.Chemscore.Hbond>
1.7242

> <Gold.Chemscore.Metal>
0.0000

> <Gold.Chemscore.Lipo>
76.5267

> <Gold.Chemscore.Internal_Hbond>
0.0000

> <Gold.Chemscore.DEClash>
0.3686

> <Gold.Chemscore.DEInternal>
2.5946

> <Gold.Chemscore.Rot>
1.6900

> <Gold.Chemscore.Internal.Correction>
   9.000000E+99

> <Gold.Chemscore.Hbonds>
donor molecule, donor type, donor heavy atom, donor atom, acceptor molecule, acceptor atom, score
      L1  H     8    27       P1  7948  0.99
      P1  H  7989  7998       L1    20  0.08

> <Gold.Chemscore.Hbond.Weighted>
-5.7587

> <Gold.Chemscore.Metal.Weighted>
-0.0000

> <Gold.Chemscore.Lipo.Weighted>
-8.9536

> <Gold.Chemscore.Internal_Hbond.Weighted>
0.0000

> <Gold.Chemscore.DEClash.Weighted>
0.3686

> <Gold.Chemscore.DEInternal.Weighted>
2.5946

> <Gold.Chemscore.Rot.Weighted>
4.3265

> <Gold.Chemscore.Internal.Correction.Weighted>
   9.000000E+99

> <Gold.Protein.RotatedTorsions>
[ 6907 6896 6895 6894 ] final   31.36 input  -60.11 | X-H torsion
[ 7974 7965 7964 7962 ] final  104.38 input  175.53 | X-H torsion
[ 8008 7997 7996 7995 ] final  164.69 input   59.86 | X-H torsion
[ 10167 10162 10161 10158 ] final   63.50 input  -65.29 | X-H torsion
[ 10718 10713 10712 10709 ] final  129.86 input   66.30 | X-H torsion
[ 10763 10752 10751 10750 ] final  -47.61 input  -60.55 | X-H torsion
[ 11005 11000 10999 10996 ] final -117.66 input  -57.11 | X-H torsion

> <Gold.Protein.ActiveResidues>
 VAL166  LYS551  ARG553  GLY616  TRP617  ASP618  TYR619  PRO620  LYS621  CYS622 
 ASP623  PHE694  ASN695  SER759  ASP760  ASP761  ALA762  ILE779  LEU786  VAL792 
 PHE793  MET794  SER795  GLU796  ALA797  LYS798  CYS799  TRP800  GLU811  SER814 

> <Gold.Protein.RotatedAtoms>
  152.0592  134.9605  160.0574 H   0  0  0  0  0  0  0  0  0  0  0  0  # atno 6907 bound_to 6896
  152.0975  133.4228  159.4580 H   0  0  0  0  0  0  0  0  0  0  0  0  # atno 6908 bound_to 6896
  150.6838  134.2718  159.4634 H   0  0  0  0  0  0  0  0  0  0  0  0  # atno 6909 bound_to 6896
  145.3335  139.2480  143.3648 H   0  0  0  0  0  0  0  0  0  0  0  0  # atno 7974 bound_to 7965
  156.1860  140.1690  156.8183 H   0  0  0  0  0  0  0  0  0  0  0  0  # atno 8008 bound_to 7997
  154.5415  140.0736  156.8550 H   0  0  0  0  0  0  0  0  0  0  0  0  # atno 8009 bound_to 7997
  155.3205  140.3373  155.4243 H   0  0  0  0  0  0  0  0  0  0  0  0  # atno 8010 bound_to 7997
  140.1324  144.4631  150.6857 H   0  0  0  0  0  0  0  0  0  0  0  0  # atno 10167 bound_to 10162
  157.5116  131.1097  150.9285 H   0  0  0  0  0  0  0  0  0  0  0  0  # atno 10718 bound_to 10713
  154.0641  135.6614  153.4815 H   0  0  0  0  0  0  0  0  0  0  0  0  # atno 10763 bound_to 10752
  153.0415  135.5142  154.7630 H   0  0  0  0  0  0  0  0  0  0  0  0  # atno 10764 bound_to 10752
  154.6676  135.3024  154.9752 H   0  0  0  0  0  0  0  0  0  0  0  0  # atno 10765 bound_to 10752
  141.0340  133.9938  157.3100 H   0  0  0  0  0  0  0  0  0  0  0  0  # atno 11005 bound_to 11000
  146.3036  140.3918  142.8695 LP  0  0  0  0  0  0  0  0  0  0  0  0  # atno 17320 bound_to 7965
  144.8845  140.7444  143.5965 LP  0  0  0  0  0  0  0  0  0  0  0  0  # atno 17321 bound_to 7965
  140.6809  143.2326  151.5386 LP  0  0  0  0  0  0  0  0  0  0  0  0  # atno 17342 bound_to 10162
  139.5513  144.2388  152.1535 LP  0  0  0  0  0  0  0  0  0  0  0  0  # atno 17343 bound_to 10162
  156.9924  130.5568  149.5304 LP  0  0  0  0  0  0  0  0  0  0  0  0  # atno 17370 bound_to 10713
  156.0292  130.5385  150.8490 LP  0  0  0  0  0  0  0  0  0  0  0  0  # atno 17371 bound_to 10713
  139.9227  135.0201  156.8124 LP  0  0  0  0  0  0  0  0  0  0  0  0  # atno 17394 bound_to 11000
  140.6356  133.9865  155.7683 LP  0  0  0  0  0  0  0  0  0  0  0  0  # atno 17395 bound_to 11000

$$$$
