AV-unprocessed.smi:3353|AV-procd|sdf|12953|dock9
  -GOLD-   2272019393D 1   1.00000     0.00000
 Structure written by MMmdl.
 43 44  0  0  0  0  0  0  0  0  2 V2000
  151.1078  140.6697  158.4383 C   0  0  0  0  0  0  0  0  0  0  0  0
  152.3091  140.1476  157.6417 C   0  0  0  0  0  0  0  0  0  0  0  0
  151.8940  139.4919  156.4172 N   0  0  0  0  0  0  0  0  0  0  0  0
  150.6462  139.5006  155.8260 C   0  0  0  0  0  0  0  0  0  0  0  0
  150.7643  138.7310  154.7032 C   0  0  0  0  0  0  0  0  0  0  0  0
  149.7863  138.4018  153.7310 N   0  0  0  0  0  0  0  0  0  0  0  0
  148.5249  138.8572  153.6581 C   0  0  0  0  0  0  0  0  0  0  0  0
  148.0141  139.6612  154.4384 O   0  0  0  0  0  0  0  0  0  0  0  0
  147.8704  138.3219  152.6178 N   0  0  0  0  0  0  0  0  0  0  0  0
  146.4840  138.6156  152.2672 C   0  0  0  0  0  0  0  0  0  0  0  0
  145.5043  137.4816  152.6679 C   0  0  2  0  0  0  0  0  0  0  0  0
  145.3732  137.3882  154.2048 C   0  0  0  0  0  0  0  0  0  0  0  0
  145.9368  136.1819  152.0777 N   0  3  0  0  0  0  0  0  0  0  0  0
  145.5708  134.9716  152.8456 C   0  0  0  0  0  0  0  0  0  0  0  0
  145.6578  133.8265  151.8437 C   0  0  0  0  0  0  0  0  0  0  0  0
  145.1386  134.4573  150.5572 C   0  0  0  0  0  0  0  0  0  0  0  0
  145.4922  135.9460  150.6798 C   0  0  0  0  0  0  0  0  0  0  0  0
  152.1128  138.2890  154.6771 C   0  0  0  0  0  0  0  0  0  0  0  0
  152.7892  138.7522  155.7172 N   0  0  0  0  0  0  0  0  0  0  0  0
  151.4348  141.1680  159.3509 H   0  0  0  0  0  0  0  0  0  0  0  0
  150.4398  139.8565  158.7242 H   0  0  0  0  0  0  0  0  0  0  0  0
  150.5313  141.3879  157.8545 H   0  0  0  0  0  0  0  0  0  0  0  0
  152.9785  140.9699  157.3864 H   0  0  0  0  0  0  0  0  0  0  0  0
  152.8866  139.4431  158.2420 H   0  0  0  0  0  0  0  0  0  0  0  0
  149.8136  140.0391  156.2534 H   0  0  0  0  0  0  0  0  0  0  0  0
  150.0776  137.7466  153.0203 H   0  0  0  0  0  0  0  0  0  0  0  0
  148.3654  137.6711  152.0251 H   0  0  0  0  0  0  0  0  0  0  0  0
  146.2098  139.5643  152.7300 H   0  0  0  0  0  0  0  0  0  0  0  0
  146.4386  138.7806  151.1902 H   0  0  0  0  0  0  0  0  0  0  0  0
  144.5165  137.7091  152.2639 H   0  0  0  0  0  0  0  0  0  0  0  0
  145.0649  138.3384  154.6408 H   0  0  0  0  0  0  0  0  0  0  0  0
  146.3198  137.1056  154.6662 H   0  0  0  0  0  0  0  0  0  0  0  0
  144.6217  136.6595  154.5082 H   0  0  0  0  0  0  0  0  0  0  0  0
  146.2289  134.8149  153.7010 H   0  0  0  0  0  0  0  0  0  0  0  0
  144.5466  135.0617  153.2123 H   0  0  0  0  0  0  0  0  0  0  0  0
  146.6980  133.5233  151.7156 H   0  0  0  0  0  0  0  0  0  0  0  0
  145.0851  132.9499  152.1489 H   0  0  0  0  0  0  0  0  0  0  0  0
  145.5655  133.9959  149.6658 H   0  0  0  0  0  0  0  0  0  0  0  0
  144.0552  134.3413  150.5027 H   0  0  0  0  0  0  0  0  0  0  0  0
  144.6203  136.5511  150.4255 H   0  0  0  0  0  0  0  0  0  0  0  0
  146.2970  136.2199  149.9967 H   0  0  0  0  0  0  0  0  0  0  0  0
  152.6131  137.6600  153.9555 H   0  0  0  0  0  0  0  0  0  0  0  0
  146.9465  136.1906  152.0501 H   0  0  0  0  0  0  0  0  0  0  0  0
  1  2  1  0  0  0  0
  1 20  1  0  0  0  0
  1 21  1  0  0  0  0
  1 22  1  0  0  0  0
  2  3  1  0  0  0  0
  2 23  1  0  0  0  0
  2 24  1  0  0  0  0
  3 19  1  0  0  0  0
  3  4  1  0  0  0  0
  4  5  2  0  0  0  0
  4 25  1  0  0  0  0
  5  6  1  0  0  0  0
  5 18  1  0  0  0  0
  6  7  1  0  0  0  0
  6 26  1  0  0  0  0
  7  8  2  0  0  0  0
  7  9  1  0  0  0  0
  9 10  1  0  0  0  0
  9 27  1  0  0  0  0
 10 11  1  0  0  0  0
 10 28  1  0  0  0  0
 10 29  1  0  0  0  0
 11 12  1  0  0  0  0
 11 13  1  0  0  0  0
 11 30  1  0  0  0  0
 12 31  1  0  0  0  0
 12 32  1  0  0  0  0
 12 33  1  0  0  0  0
 13 17  1  0  0  0  0
 13 14  1  0  0  0  0
 13 43  1  0  0  0  0
 14 15  1  0  0  0  0
 14 34  1  0  0  0  0
 14 35  1  0  0  0  0
 15 16  1  0  0  0  0
 15 36  1  0  0  0  0
 15 37  1  0  0  0  0
 16 17  1  0  0  0  0
 16 38  1  0  0  0  0
 16 39  1  0  0  0  0
 17 40  1  0  0  0  0
 17 41  1  0  0  0  0
 18 19  2  0  0  0  0
 18 42  1  0  0  0  0
M  CHG  1  13   1
M  END
> <s_m_source_file>
AV-unprocessed.smi

> <i_m_source_file_index>
3353

> <i_lp_mmshare_version>
43012

> <i_f3d_flags>
0

> <s_epik_input>
W0NIM11bQ0gyXW4xW2NIXWMoW2NIXW4xKVtOSF1DKD1PKVtOSF1bQ0gyXVtDQEhdKFtDSDNdKU4yW0NIMl1bQ0gyXVtDSDJdW0NIMl0y

> <s_epik_cmdline>
J2VwaWtfcHl0aG9uJywgJy1waCcsICc3LjAnLCAnLXRuJywgJzgnLCAnLW1hJywgJzIwMCcsICctbWV0YWxfYmluZGluZycsICctaW1hZScsICc8aW5maWxlLm1hZT4nLCAnLW9tYWUnLCAnPG91dGZpbGUubWFlPic=

> <r_lp_tautomer_probability>
1

> <r_epik_Ionization_Penalty>
0.000914091

> <r_epik_Ionization_Penalty_Charging>
0.000761583

> <r_epik_Ionization_Penalty_Neutral>
0.000152508

> <r_epik_State_Penalty>
0.000487427

> <r_epik_Charging_Adjusted_Penalty>
0.00124901

> <i_epik_Tot_Q>
1

> <i_epik_Tot_abs_Q>
1

> <r_epik_Metal_State_Penalty>
-0

> <b_epik_Metal_Only>
0

> <s_lp_Force_Field>
OPLS_2005

> <r_lp_Energy>
33.6396

> <b_lp_Chiralities_Consistent>
1

> <s_lp_Variant>
AV-unprocessed.smi:3353-1

> <Gold.Version>
5.8.1

> <Gold.Id.Protein>
6NUR|6NUR_protein|mol2

> <Gold.PLP.Fitness>
45.4131

> <Gold.PLP.PLP>
-34.7278

> <Gold.PLP.part.hbond>
-5.6814

> <Gold.PLP.part.metal>
0.0000

> <Gold.PLP.part.buried>
-3.6844

> <Gold.PLP.part.nonpolar>
-26.5565

> <Gold.PLP.part.repulsive>
0.2940

> <Gold.PLP.ligand.clash>
0.0000

> <Gold.PLP.ligand.torsion>
0.9683

> <Gold.PLP.Chemscore.Hbond>
4.1966

> <Gold.PLP.Chemscore.CHOScore>
0.0000

> <Gold.PLP.Chemscore.Metal>
0.0000

> <Gold.Chemscore.Hbonds>
donor molecule, donor type, donor heavy atom, donor atom, acceptor molecule, acceptor atom, score
      L1  H     6    26       P1  7948  0.43
      L1  H     9    27       P1  7948  0.98
      L1  H    13    43       P1  7948  2.00
      P1  H  7997  8008       L1    19  0.40

> <Gold.PLP.Chemscore.Internal.Correction>
0.0322

> <Gold.Rescore>
     Score         DG    S(hbond)    S(metal)    S(lipo)     H(rot)  DE(clash)    DE(int)     intcor
     16.50     -18.68       2.94        0.00      63.99       1.61       0.11       2.07       ----

> <Gold.Chemscore.Fitness>
16.4976

> <Gold.Chemscore.DG>
-18.6755

> <Gold.Chemscore.ZeroCoef>
-5.4800

> <Gold.Chemscore.Hbond>
2.9444

> <Gold.Chemscore.Metal>
0.0000

> <Gold.Chemscore.Lipo>
63.9923

> <Gold.Chemscore.Internal_Hbond>
0.0000

> <Gold.Chemscore.DEClash>
0.1120

> <Gold.Chemscore.DEInternal>
2.0658

> <Gold.Chemscore.Rot>
1.6117

> <Gold.Chemscore.Internal.Correction>
   9.000000E+99

> <Gold.Chemscore.Hbonds>
donor molecule, donor type, donor heavy atom, donor atom, acceptor molecule, acceptor atom, score
      L1  H     6    26       P1  7948  0.09
      L1  H     9    27       P1  7948  0.87
      L1  H    13    43       P1  7948  0.97
      P1  H  7997  8008       L1    19  0.02

> <Gold.Chemscore.Hbond.Weighted>
-9.8344

> <Gold.Chemscore.Metal.Weighted>
-0.0000

> <Gold.Chemscore.Lipo.Weighted>
-7.4871

> <Gold.Chemscore.Internal_Hbond.Weighted>
0.0000

> <Gold.Chemscore.DEClash.Weighted>
0.1120

> <Gold.Chemscore.DEInternal.Weighted>
2.0658

> <Gold.Chemscore.Rot.Weighted>
4.1260

> <Gold.Chemscore.Internal.Correction.Weighted>
   9.000000E+99

> <Gold.Protein.RotatedTorsions>
[ 6907 6896 6895 6894 ] final   59.50 input  -60.11 | X-H torsion
[ 7974 7965 7964 7962 ] final  -80.98 input  175.53 | X-H torsion
[ 8008 7997 7996 7995 ] final  -34.89 input   59.86 | X-H torsion
[ 10167 10162 10161 10158 ] final   58.60 input  -65.29 | X-H torsion
[ 10718 10713 10712 10709 ] final  -20.57 input   66.30 | X-H torsion
[ 10763 10752 10751 10750 ] final  -72.73 input  -60.55 | X-H torsion
[ 11005 11000 10999 10996 ] final  153.89 input  -57.11 | X-H torsion

> <Gold.Protein.ActiveResidues>
 VAL166  LYS551  ARG553  GLY616  TRP617  ASP618  TYR619  PRO620  LYS621  CYS622 
 ASP623  PHE694  ASN695  SER759  ASP760  ASP761  ALA762  ILE779  LEU786  VAL792 
 PHE793  MET794  SER795  GLU796  ALA797  LYS798  CYS799  TRP800  GLU811  SER814 

> <Gold.Protein.RotatedAtoms>
  152.3920  134.6426  160.0103 H   0  0  0  0  0  0  0  0  0  0  0  0  # atno 6907 bound_to 6896
  151.6657  133.3310  159.3192 H   0  0  0  0  0  0  0  0  0  0  0  0  # atno 6908 bound_to 6896
  150.7834  134.6843  159.6506 H   0  0  0  0  0  0  0  0  0  0  0  0  # atno 6909 bound_to 6896
  145.5527  140.9494  143.1490 H   0  0  0  0  0  0  0  0  0  0  0  0  # atno 7974 bound_to 7965
  154.4109  140.1672  156.2123 H   0  0  0  0  0  0  0  0  0  0  0  0  # atno 8008 bound_to 7997
  155.9434  140.3406  155.6323 H   0  0  0  0  0  0  0  0  0  0  0  0  # atno 8009 bound_to 7997
  155.6961  140.0739  157.2420 H   0  0  0  0  0  0  0  0  0  0  0  0  # atno 8010 bound_to 7997
  140.1854  144.4139  150.6595 H   0  0  0  0  0  0  0  0  0  0  0  0  # atno 10167 bound_to 10162
  156.5300  130.4653  149.6552 H   0  0  0  0  0  0  0  0  0  0  0  0  # atno 10718 bound_to 10713
  154.4497  135.5920  153.6183 H   0  0  0  0  0  0  0  0  0  0  0  0  # atno 10763 bound_to 10752
  152.9812  135.6018  154.3620 H   0  0  0  0  0  0  0  0  0  0  0  0  # atno 10764 bound_to 10752
  154.3480  135.2841  155.2366 H   0  0  0  0  0  0  0  0  0  0  0  0  # atno 10765 bound_to 10752
  140.1439  134.8720  157.2367 H   0  0  0  0  0  0  0  0  0  0  0  0  # atno 11005 bound_to 11000
  144.7521  139.7167  143.7269 LP  0  0  0  0  0  0  0  0  0  0  0  0  # atno 17320 bound_to 7965
  146.1905  139.5143  142.9808 LP  0  0  0  0  0  0  0  0  0  0  0  0  # atno 17321 bound_to 7965
  140.6491  143.2220  151.6117 LP  0  0  0  0  0  0  0  0  0  0  0  0  # atno 17342 bound_to 10162
  139.5278  144.3006  152.1076 LP  0  0  0  0  0  0  0  0  0  0  0  0  # atno 17343 bound_to 10162
  156.3069  130.7207  151.2092 LP  0  0  0  0  0  0  0  0  0  0  0  0  # atno 17370 bound_to 10713
  157.7423  131.0491  150.5032 LP  0  0  0  0  0  0  0  0  0  0  0  0  # atno 17371 bound_to 10713
  140.2688  134.3484  155.7380 LP  0  0  0  0  0  0  0  0  0  0  0  0  # atno 17394 bound_to 11000
  141.2190  133.7411  156.9192 LP  0  0  0  0  0  0  0  0  0  0  0  0  # atno 17395 bound_to 11000

$$$$
