AV-unprocessed.smi:1570|AV-procd|sdf|6313|dock2
  -GOLD-   22720 6513D 1   1.00000     0.00000
 Structure written by MMmdl.
 51 53  0  0  0  0  0  0  0  0  1 V2000
  151.1035  144.9558  159.4542 C   0  0  0  0  0  0  0  0  0  0  0  0
  151.8549  144.3251  158.2752 C   0  0  0  0  0  0  0  0  0  0  0  0
  151.8620  142.8674  158.3710 N   0  0  0  0  0  0  0  0  0  0  0  0
  151.2143  142.0031  157.5552 C   0  0  0  0  0  0  0  0  0  0  0  0
  150.5082  142.3085  156.5942 O   0  0  0  0  0  0  0  0  0  0  0  0
  151.4830  140.7438  157.9750 N   0  0  0  0  0  0  0  0  0  0  0  0
  150.9677  139.5053  157.3865 C   0  0  0  0  0  0  0  0  0  0  0  0
  149.4256  139.4110  157.4491 C   0  0  1  0  0  0  0  0  0  0  0  0
  148.9046  139.1337  156.1657 O   0  0  0  0  0  0  0  0  0  0  0  0
  148.8586  138.4178  158.4916 C   0  0  0  0  0  0  0  0  0  0  0  0
  148.7218  137.0243  158.0628 N   0  0  0  0  0  0  0  0  0  0  0  0
  148.2982  136.1337  159.1391 C   0  0  0  0  0  0  0  0  0  0  0  0
  148.1680  134.6743  158.6614 C   0  0  2  0  0  0  0  0  0  0  0  0
  147.8154  133.7199  159.8070 C   0  0  0  0  0  0  0  0  0  0  0  0
  149.4047  134.2536  158.0918 O   0  0  0  0  0  0  0  0  0  0  0  0
  149.8299  135.0700  157.0044 C   0  0  2  0  0  0  0  0  0  0  0  0
  151.1521  134.5117  156.4682 C   0  0  0  0  0  0  0  0  0  0  0  0
  149.9669  136.5233  157.4947 C   0  0  0  0  0  0  0  0  0  0  0  0
  152.3577  140.8049  159.0728 C   0  0  0  0  0  0  0  0  0  0  0  0
  152.9486  139.7920  159.8500 C   0  0  0  0  0  0  0  0  0  0  0  0
  153.7902  140.1955  160.9124 C   0  0  0  0  0  0  0  0  0  0  0  0
  154.0261  141.5702  161.1700 C   0  0  0  0  0  0  0  0  0  0  0  0
  153.4251  142.5701  160.3705 C   0  0  0  0  0  0  0  0  0  0  0  0
  152.5895  142.1414  159.3242 C   0  0  0  0  0  0  0  0  0  0  0  0
  151.0929  146.0426  159.3701 H   0  0  0  0  0  0  0  0  0  0  0  0
  151.5746  144.7011  160.4042 H   0  0  0  0  0  0  0  0  0  0  0  0
  150.0683  144.6151  159.4908 H   0  0  0  0  0  0  0  0  0  0  0  0
  151.3965  144.6290  157.3337 H   0  0  0  0  0  0  0  0  0  0  0  0
  152.8791  144.6998  158.2458 H   0  0  0  0  0  0  0  0  0  0  0  0
  151.2967  139.4543  156.3474 H   0  0  0  0  0  0  0  0  0  0  0  0
  151.4147  138.6414  157.8776 H   0  0  0  0  0  0  0  0  0  0  0  0
  149.0323  140.3959  157.7020 H   0  0  0  0  0  0  0  0  0  0  0  0
  148.0106  139.4387  156.1337 H   0  0  0  0  0  0  0  0  0  0  0  0
  149.5473  138.4385  159.3375 H   0  0  0  0  0  0  0  0  0  0  0  0
  147.9106  138.7871  158.8859 H   0  0  0  0  0  0  0  0  0  0  0  0
  149.0112  136.1872  159.9634 H   0  0  0  0  0  0  0  0  0  0  0  0
  147.3358  136.4542  159.5354 H   0  0  0  0  0  0  0  0  0  0  0  0
  147.3896  134.6082  157.8996 H   0  0  0  0  0  0  0  0  0  0  0  0
  146.8672  133.9954  160.2692 H   0  0  0  0  0  0  0  0  0  0  0  0
  148.5825  133.7334  160.5819 H   0  0  0  0  0  0  0  0  0  0  0  0
  147.7240  132.6954  159.4461 H   0  0  0  0  0  0  0  0  0  0  0  0
  149.0822  135.0205  156.2109 H   0  0  0  0  0  0  0  0  0  0  0  0
  151.5117  135.0993  155.6232 H   0  0  0  0  0  0  0  0  0  0  0  0
  151.0311  133.4824  156.1298 H   0  0  0  0  0  0  0  0  0  0  0  0
  151.9253  134.5214  157.2370 H   0  0  0  0  0  0  0  0  0  0  0  0
  150.2703  137.1553  156.6591 H   0  0  0  0  0  0  0  0  0  0  0  0
  150.7627  136.5850  158.2387 H   0  0  0  0  0  0  0  0  0  0  0  0
  152.7671  138.7458  159.6567 H   0  0  0  0  0  0  0  0  0  0  0  0
  154.2578  139.4471  161.5352 H   0  0  0  0  0  0  0  0  0  0  0  0
  154.6732  141.8570  161.9858 H   0  0  0  0  0  0  0  0  0  0  0  0
  153.6040  143.6180  160.5602 H   0  0  0  0  0  0  0  0  0  0  0  0
  1  2  1  0  0  0  0
  1 25  1  0  0  0  0
  1 26  1  0  0  0  0
  1 27  1  0  0  0  0
  2  3  1  0  0  0  0
  2 28  1  0  0  0  0
  2 29  1  0  0  0  0
  3 24  1  0  0  0  0
  3  4  1  0  0  0  0
  4  5  2  0  0  0  0
  4  6  1  0  0  0  0
  6  7  1  0  0  0  0
  6 19  1  0  0  0  0
  7  8  1  0  0  0  0
  7 30  1  0  0  0  0
  7 31  1  0  0  0  0
  8  9  1  0  0  0  0
  8 10  1  0  0  0  0
  8 32  1  0  0  0  0
  9 33  1  0  0  0  0
 10 11  1  0  0  0  0
 10 34  1  0  0  0  0
 10 35  1  0  0  0  0
 11 18  1  0  0  0  0
 11 12  1  0  0  0  0
 12 13  1  0  0  0  0
 12 36  1  0  0  0  0
 12 37  1  0  0  0  0
 13 14  1  0  0  0  0
 13 15  1  0  0  0  0
 13 38  1  0  0  0  0
 14 39  1  0  0  0  0
 14 40  1  0  0  0  0
 14 41  1  0  0  0  0
 15 16  1  0  0  0  0
 16 17  1  0  0  0  0
 16 18  1  0  0  0  0
 16 42  1  0  0  0  0
 17 43  1  0  0  0  0
 17 44  1  0  0  0  0
 17 45  1  0  0  0  0
 18 46  1  0  0  0  0
 18 47  1  0  0  0  0
 19 24  2  0  0  0  0
 19 20  1  0  0  0  0
 20 21  2  0  0  0  0
 20 48  1  0  0  0  0
 21 22  1  0  0  0  0
 21 49  1  0  0  0  0
 22 23  2  0  0  0  0
 22 50  1  0  0  0  0
 23 24  1  0  0  0  0
 23 51  1  0  0  0  0
M  END
> <s_m_source_file>
AV-unprocessed.smi

> <i_m_source_file_index>
1570

> <i_lp_mmshare_version>
43012

> <i_f3d_flags>
0

> <s_epik_input>
W2NIXTFbY0hdW2NIXVtjSF1jKGMxMiluKFtDSDJdW0NIM10pYyg9TyluMltDSDJdW0NASF0oW09IXSlbQ0gyXU4zW0NIMl1bQ0BASF0oW0NIM10pT1tDQEBIXShbQ0gzXSlbQ0gyXTM=

> <s_epik_cmdline>
J2VwaWtfcHl0aG9uJywgJy1waCcsICc3LjAnLCAnLXRuJywgJzgnLCAnLW1hJywgJzIwMCcsICctbWV0YWxfYmluZGluZycsICctaW1hZScsICc8aW5maWxlLm1hZT4nLCAnLW9tYWUnLCAnPG91dGZpbGUubWFlPic=

> <r_epik_Ionization_Penalty>
0.214359

> <r_epik_Ionization_Penalty_Charging>
2.30976e-09

> <r_epik_Ionization_Penalty_Neutral>
0.214359

> <r_epik_State_Penalty>
0.204533

> <r_epik_Charging_Adjusted_Penalty>
0.204533

> <i_epik_Tot_Q>
0

> <i_epik_Tot_abs_Q>
0

> <r_epik_Metal_State_Penalty>
0.204533

> <b_epik_Metal_Only>
0

> <s_lp_Force_Field>
OPLS_2005

> <r_lp_Energy>
59.6928

> <b_lp_Chiralities_Consistent>
1

> <s_lp_Variant>
AV-unprocessed.smi:1570-2

> <Gold.Version>
5.8.1

> <Gold.Id.Protein>
6NUR|6NUR_protein|mol2

> <Gold.PLP.Fitness>
41.9634

> <Gold.PLP.PLP>
-40.9433

> <Gold.PLP.part.hbond>
-1.0000

> <Gold.PLP.part.metal>
0.0000

> <Gold.PLP.part.buried>
-5.9400

> <Gold.PLP.part.nonpolar>
-35.0285

> <Gold.PLP.part.repulsive>
0.6118

> <Gold.PLP.ligand.clash>
0.0000

> <Gold.PLP.ligand.torsion>
1.0444

> <Gold.PLP.Chemscore.Hbond>
1.0000

> <Gold.PLP.Chemscore.CHOScore>
0.0000

> <Gold.PLP.Chemscore.Metal>
0.0000

> <Gold.Chemscore.Hbonds>
donor molecule, donor type, donor heavy atom, donor atom, acceptor molecule, acceptor atom, score
      P1  H  6896  6907       L1    15  1.00

> <Gold.PLP.Chemscore.Internal.Correction>
0.1088

> <Gold.Rescore>
     Score         DG    S(hbond)    S(metal)    S(lipo)     H(rot)  DE(clash)    DE(int)     intcor
     14.67     -15.68       0.84        0.00     108.28       2.06       0.00       1.01       ----

> <Gold.Chemscore.Fitness>
14.6708

> <Gold.Chemscore.DG>
-15.6816

> <Gold.Chemscore.ZeroCoef>
-5.4800

> <Gold.Chemscore.Hbond>
0.8383

> <Gold.Chemscore.Metal>
0.0000

> <Gold.Chemscore.Lipo>
108.2796

> <Gold.Chemscore.Internal_Hbond>
0.0000

> <Gold.Chemscore.DEClash>
0.0009

> <Gold.Chemscore.DEInternal>
1.0100

> <Gold.Chemscore.Rot>
2.0574

> <Gold.Chemscore.Internal.Correction>
   9.000000E+99

> <Gold.Chemscore.Hbonds>
donor molecule, donor type, donor heavy atom, donor atom, acceptor molecule, acceptor atom, score
      P1  H  6896  6907       L1    15  0.78

> <Gold.Chemscore.Hbond.Weighted>
-2.7998

> <Gold.Chemscore.Metal.Weighted>
-0.0000

> <Gold.Chemscore.Lipo.Weighted>
-12.6687

> <Gold.Chemscore.Internal_Hbond.Weighted>
0.0000

> <Gold.Chemscore.DEClash.Weighted>
0.0009

> <Gold.Chemscore.DEInternal.Weighted>
1.0100

> <Gold.Chemscore.Rot.Weighted>
5.2669

> <Gold.Chemscore.Internal.Correction.Weighted>
   9.000000E+99

> <Gold.Protein.RotatedTorsions>
[ 6907 6896 6895 6894 ] final -115.00 input  -60.11 | X-H torsion
[ 7974 7965 7964 7962 ] final  121.69 input  175.53 | X-H torsion
[ 8008 7997 7996 7995 ] final   46.45 input   59.86 | X-H torsion
[ 10167 10162 10161 10158 ] final    2.26 input  -65.29 | X-H torsion
[ 10718 10713 10712 10709 ] final  -36.80 input   66.30 | X-H torsion
[ 10763 10752 10751 10750 ] final  164.96 input  -60.55 | X-H torsion
[ 11005 11000 10999 10996 ] final   61.12 input  -57.11 | X-H torsion

> <Gold.Protein.ActiveResidues>
 VAL166  LYS551  ARG553  GLY616  TRP617  ASP618  TYR619  PRO620  LYS621  CYS622 
 ASP623  PHE694  ASN695  SER759  ASP760  ASP761  ALA762  ILE779  LEU786  VAL792 
 PHE793  MET794  SER795  GLU796  ALA797  LYS798  CYS799  TRP800  GLU811  SER814 

> <Gold.Protein.RotatedAtoms>
  150.7945  133.8720  159.3261 H   0  0  0  0  0  0  0  0  0  0  0  0  # atno 6907 bound_to 6896
  151.6549  135.0995  160.0177 H   0  0  0  0  0  0  0  0  0  0  0  0  # atno 6908 bound_to 6896
  152.4024  133.6799  159.6363 H   0  0  0  0  0  0  0  0  0  0  0  0  # atno 6909 bound_to 6896
  145.1163  139.3419  143.4737 H   0  0  0  0  0  0  0  0  0  0  0  0  # atno 7974 bound_to 7965
  155.3527  140.3414  155.4239 H   0  0  0  0  0  0  0  0  0  0  0  0  # atno 8008 bound_to 7997
  156.1755  140.1646  156.8405 H   0  0  0  0  0  0  0  0  0  0  0  0  # atno 8009 bound_to 7997
  154.5278  140.0752  156.8272 H   0  0  0  0  0  0  0  0  0  0  0  0  # atno 8010 bound_to 7997
  140.6643  143.7220  150.7798 H   0  0  0  0  0  0  0  0  0  0  0  0  # atno 10167 bound_to 10162
  156.3227  130.4268  149.7945 H   0  0  0  0  0  0  0  0  0  0  0  0  # atno 10718 bound_to 10713
  154.3168  135.2756  155.2539 H   0  0  0  0  0  0  0  0  0  0  0  0  # atno 10763 bound_to 10752
  154.4910  135.5833  153.6463 H   0  0  0  0  0  0  0  0  0  0  0  0  # atno 10764 bound_to 10752
  152.9881  135.6134  154.3349 H   0  0  0  0  0  0  0  0  0  0  0  0  # atno 10765 bound_to 10752
  140.0183  134.6191  155.9677 H   0  0  0  0  0  0  0  0  0  0  0  0  # atno 11005 bound_to 11000
  146.3523  140.1104  142.8604 LP  0  0  0  0  0  0  0  0  0  0  0  0  # atno 17320 bound_to 7965
  145.0790  140.9208  143.4837 LP  0  0  0  0  0  0  0  0  0  0  0  0  # atno 17321 bound_to 7965
  140.0894  143.4892  152.2487 LP  0  0  0  0  0  0  0  0  0  0  0  0  # atno 17342 bound_to 10162
  139.5887  144.7541  151.3455 LP  0  0  0  0  0  0  0  0  0  0  0  0  # atno 17343 bound_to 10162
  156.5247  130.8231  151.3216 LP  0  0  0  0  0  0  0  0  0  0  0  0  # atno 17370 bound_to 10713
  157.7415  130.9871  150.2449 LP  0  0  0  0  0  0  0  0  0  0  0  0  # atno 17371 bound_to 10713
  141.1757  133.6540  156.4821 LP  0  0  0  0  0  0  0  0  0  0  0  0  # atno 17394 bound_to 11000
  140.4431  134.6997  157.5002 LP  0  0  0  0  0  0  0  0  0  0  0  0  # atno 17395 bound_to 11000

$$$$
