AV-unprocessed.smi:1464|AV-procd|sdf|5946|dock10
  -GOLD-   22720 6 33D 1   1.00000     0.00000
 Structure written by MMmdl.
 41 42  0  0  0  0  0  0  0  0  1 V2000
  153.7221  141.7697  159.5640 C   0  0  0  0  0  0  0  0  0  0  0  0
  152.2914  142.2523  159.8798 C   0  0  1  0  0  0  0  0  0  0  0  0
  152.2655  143.7495  160.2492 C   0  0  0  0  0  0  0  0  0  0  0  0
  152.4883  144.6526  159.0261 C   0  0  0  0  0  0  0  0  0  0  0  0
  151.4628  144.3544  157.9241 C   0  0  0  0  0  0  0  0  0  0  0  0
  151.4629  142.8640  157.5238 C   0  0  2  0  0  0  0  0  0  0  0  0
  150.4138  142.6238  156.5348 N   0  0  0  0  0  0  0  0  0  0  0  0
  150.4006  141.6232  155.6411 C   0  0  0  0  0  0  0  0  0  0  0  0
  151.3045  140.7916  155.5450 O   0  0  0  0  0  0  0  0  0  0  0  0
  149.1849  141.5783  154.7039 C   0  0  0  0  0  0  0  0  0  0  0  0
  147.8993  141.6772  155.4097 N   0  0  0  0  0  0  0  0  0  0  0  0
  148.0129  141.7163  156.7912 N   0  0  0  0  0  0  0  0  0  0  0  0
  146.9552  141.8199  157.5226 C   0  0  0  0  0  0  0  0  0  0  0  0
  147.1132  141.8598  158.8863 O   0  0  0  0  0  0  0  0  0  0  0  0
  145.6382  141.8918  156.9283 C   0  0  0  0  0  0  0  0  0  0  0  0
  145.5373  141.8468  155.5817 C   0  0  0  0  0  0  0  0  0  0  0  0
  146.7170  141.7307  154.7223 C   0  0  0  0  0  0  0  0  0  0  0  0
  146.6542  141.6864  153.4937 O   0  0  0  0  0  0  0  0  0  0  0  0
  151.2573  141.9518  158.7612 C   0  0  1  0  0  0  0  0  0  0  0  0
  151.2016  140.4538  158.4004 C   0  0  0  0  0  0  0  0  0  0  0  0
  147.5537  142.6761  159.0652 H   0  0  0  0  0  0  0  0  0  0  0  0
  154.1147  142.2123  158.6491 H   0  0  0  0  0  0  0  0  0  0  0  0
  153.7638  140.6865  159.4512 H   0  0  0  0  0  0  0  0  0  0  0  0
  154.4060  142.0295  160.3725 H   0  0  0  0  0  0  0  0  0  0  0  0
  151.9760  141.7052  160.7695 H   0  0  0  0  0  0  0  0  0  0  0  0
  151.3009  143.9917  160.6974 H   0  0  0  0  0  0  0  0  0  0  0  0
  153.0136  143.9647  161.0130 H   0  0  0  0  0  0  0  0  0  0  0  0
  152.4163  145.6995  159.3221 H   0  0  0  0  0  0  0  0  0  0  0  0
  153.4975  144.5151  158.6372 H   0  0  0  0  0  0  0  0  0  0  0  0
  150.4695  144.6411  158.2730 H   0  0  0  0  0  0  0  0  0  0  0  0
  151.6742  144.9783  157.0547 H   0  0  0  0  0  0  0  0  0  0  0  0
  152.4275  142.6207  157.0753 H   0  0  0  0  0  0  0  0  0  0  0  0
  149.6327  143.2637  156.5385 H   0  0  0  0  0  0  0  0  0  0  0  0
  149.2645  142.3770  153.9637 H   0  0  0  0  0  0  0  0  0  0  0  0
  149.2327  140.6475  154.1359 H   0  0  0  0  0  0  0  0  0  0  0  0
  144.7617  141.9786  157.5533 H   0  0  0  0  0  0  0  0  0  0  0  0
  144.5602  141.8992  155.1243 H   0  0  0  0  0  0  0  0  0  0  0  0
  150.2789  142.1979  159.1775 H   0  0  0  0  0  0  0  0  0  0  0  0
  152.0950  140.1369  157.8622 H   0  0  0  0  0  0  0  0  0  0  0  0
  150.3431  140.2258  157.7683 H   0  0  0  0  0  0  0  0  0  0  0  0
  151.1131  139.8376  159.2954 H   0  0  0  0  0  0  0  0  0  0  0  0
  1  2  1  0  0  0  0
  1 22  1  0  0  0  0
  1 23  1  0  0  0  0
  1 24  1  0  0  0  0
  2 19  1  0  0  0  0
  2  3  1  0  0  0  0
  2 25  1  0  0  0  0
  3  4  1  0  0  0  0
  3 26  1  0  0  0  0
  3 27  1  0  0  0  0
  4  5  1  0  0  0  0
  4 28  1  0  0  0  0
  4 29  1  0  0  0  0
  5  6  1  0  0  0  0
  5 30  1  0  0  0  0
  5 31  1  0  0  0  0
  6  7  1  0  0  0  0
  6 19  1  0  0  0  0
  6 32  1  0  0  0  0
  7  8  1  0  0  0  0
  7 33  1  0  0  0  0
  8  9  2  0  0  0  0
  8 10  1  0  0  0  0
 10 34  1  0  0  0  0
 10 35  1  0  0  0  0
 10 11  1  0  0  0  0
 11 12  1  0  0  0  0
 11 17  1  0  0  0  0
 12 13  2  0  0  0  0
 13 14  1  0  0  0  0
 13 15  1  0  0  0  0
 14 21  1  0  0  0  0
 15 36  1  0  0  0  0
 15 16  2  0  0  0  0
 16 37  1  0  0  0  0
 16 17  1  0  0  0  0
 17 18  2  0  0  0  0
 19 20  1  0  0  0  0
 19 38  1  0  0  0  0
 20 39  1  0  0  0  0
 20 40  1  0  0  0  0
 20 41  1  0  0  0  0
M  END
> <s_m_source_file>
AV-unprocessed.smi

> <i_m_source_file_index>
1464

> <i_lp_mmshare_version>
43012

> <i_f3d_flags>
0

> <s_epik_input>
W0NIM11bQ0BASF0xW0NIMl1bQ0gyXVtDSDJdW0NASF0oW0NASF0xW0NIM10pW05IXUMoPU8pW0NIMl1uMltuSF1jKD1PKVtjSF1bY0hdYzI9Tw==

> <s_epik_cmdline>
J2VwaWtfcHl0aG9uJywgJy1waCcsICc3LjAnLCAnLXRuJywgJzgnLCAnLW1hJywgJzIwMCcsICctbWV0YWxfYmluZGluZycsICctaW1hZScsICc8aW5maWxlLm1hZT4nLCAnLW9tYWUnLCAnPG91dGZpbGUubWFlPic=

> <r_lp_tautomer_probability>
0.9996

> <r_epik_Ionization_Penalty>
2.10335

> <r_epik_Ionization_Penalty_Charging>
3.98079e-08

> <r_epik_Ionization_Penalty_Neutral>
2.10335

> <r_epik_State_Penalty>
1.67957

> <r_epik_Charging_Adjusted_Penalty>
1.67957

> <i_epik_Tot_Q>
0

> <i_epik_Tot_abs_Q>
0

> <r_epik_Metal_State_Penalty>
1.67957

> <b_epik_Metal_Only>
0

> <s_lp_Force_Field>
OPLS_2005

> <r_lp_Energy>
23.4663

> <b_lp_Chiralities_Consistent>
1

> <s_lp_Variant>
AV-unprocessed.smi:1464-12

> <Gold.Version>
5.8.1

> <Gold.Id.Protein>
6NUR|6NUR_protein|mol2

> <Gold.PLP.Fitness>
46.7589

> <Gold.PLP.PLP>
-41.7175

> <Gold.PLP.part.hbond>
-3.0000

> <Gold.PLP.part.metal>
0.0000

> <Gold.PLP.part.buried>
-4.0971

> <Gold.PLP.part.nonpolar>
-33.4011

> <Gold.PLP.part.repulsive>
0.4349

> <Gold.PLP.ligand.clash>
0.0000

> <Gold.PLP.ligand.torsion>
0.4468

> <Gold.PLP.Chemscore.Hbond>
1.9754

> <Gold.PLP.Chemscore.CHOScore>
0.0000

> <Gold.PLP.Chemscore.Metal>
0.0000

> <Gold.Chemscore.Hbonds>
donor molecule, donor type, donor heavy atom, donor atom, acceptor molecule, acceptor atom, score
      L1  H     7    33       P1  8028  0.88
      P1  H  6934  6946       L1    14  0.49
      P1  H  7989  7998       L1     9  0.65

> <Gold.PLP.Chemscore.Internal.Correction>
0.0087

> <Gold.Rescore>
     Score         DG    S(hbond)    S(metal)    S(lipo)     H(rot)  DE(clash)    DE(int)     intcor
     13.55     -15.78       1.37        0.00      97.65       2.22       0.13       2.09       ----

> <Gold.Chemscore.Fitness>
13.5527

> <Gold.Chemscore.DG>
-15.7753

> <Gold.Chemscore.ZeroCoef>
-5.4800

> <Gold.Chemscore.Hbond>
1.3651

> <Gold.Chemscore.Metal>
0.0000

> <Gold.Chemscore.Lipo>
97.6513

> <Gold.Chemscore.Internal_Hbond>
0.0000

> <Gold.Chemscore.DEClash>
0.1349

> <Gold.Chemscore.DEInternal>
2.0876

> <Gold.Chemscore.Rot>
2.2224

> <Gold.Chemscore.Internal.Correction>
   9.000000E+99

> <Gold.Chemscore.Hbonds>
donor molecule, donor type, donor heavy atom, donor atom, acceptor molecule, acceptor atom, score
      L1  H     7    33       P1  8028  0.86
      P1  H  6934  6946       L1    14  0.28
      P1  H  7989  7998       L1     9  0.14

> <Gold.Chemscore.Hbond.Weighted>
-4.5594

> <Gold.Chemscore.Metal.Weighted>
-0.0000

> <Gold.Chemscore.Lipo.Weighted>
-11.4252

> <Gold.Chemscore.Internal_Hbond.Weighted>
0.0000

> <Gold.Chemscore.DEClash.Weighted>
0.1349

> <Gold.Chemscore.DEInternal.Weighted>
2.0876

> <Gold.Chemscore.Rot.Weighted>
5.6893

> <Gold.Chemscore.Internal.Correction.Weighted>
   9.000000E+99

> <Gold.Protein.RotatedTorsions>
[ 6907 6896 6895 6894 ] final -171.46 input  -60.11 | X-H torsion
[ 7974 7965 7964 7962 ] final  148.49 input  175.53 | X-H torsion
[ 8008 7997 7996 7995 ] final  107.77 input   59.86 | X-H torsion
[ 10167 10162 10161 10158 ] final  100.19 input  -65.29 | X-H torsion
[ 10718 10713 10712 10709 ] final -132.77 input   66.30 | X-H torsion
[ 10763 10752 10751 10750 ] final    6.36 input  -60.55 | X-H torsion
[ 11005 11000 10999 10996 ] final   95.75 input  -57.11 | X-H torsion

> <Gold.Protein.ActiveResidues>
 VAL166  LYS551  ARG553  GLY616  TRP617  ASP618  TYR619  PRO620  LYS621  CYS622 
 ASP623  PHE694  ASN695  SER759  ASP760  ASP761  ALA762  ILE779  LEU786  VAL792 
 PHE793  MET794  SER795  GLU796  ALA797  LYS798  CYS799  TRP800  GLU811  SER814 

> <Gold.Protein.RotatedAtoms>
  151.5242  133.3461  159.2906 H   0  0  0  0  0  0  0  0  0  0  0  0  # atno 6907 bound_to 6896
  150.8633  134.7993  159.7111 H   0  0  0  0  0  0  0  0  0  0  0  0  # atno 6908 bound_to 6896
  152.4646  134.5115  159.9807 H   0  0  0  0  0  0  0  0  0  0  0  0  # atno 6909 bound_to 6896
  144.8510  139.6160  143.5974 H   0  0  0  0  0  0  0  0  0  0  0  0  # atno 7974 bound_to 7965
  156.1850  140.3089  155.9221 H   0  0  0  0  0  0  0  0  0  0  0  0  # atno 8008 bound_to 7997
  155.3300  140.0460  157.3059 H   0  0  0  0  0  0  0  0  0  0  0  0  # atno 8009 bound_to 7997
  154.5386  140.2254  155.8690 H   0  0  0  0  0  0  0  0  0  0  0  0  # atno 8010 bound_to 7997
  139.7549  144.6972  151.0377 H   0  0  0  0  0  0  0  0  0  0  0  0  # atno 10167 bound_to 10162
  156.2380  130.7078  151.0927 H   0  0  0  0  0  0  0  0  0  0  0  0  # atno 10718 bound_to 10713
  153.2487  135.6911  153.7703 H   0  0  0  0  0  0  0  0  0  0  0  0  # atno 10763 bound_to 10752
  153.6806  135.3329  155.3178 H   0  0  0  0  0  0  0  0  0  0  0  0  # atno 10764 bound_to 10752
  154.8385  135.4521  154.1435 H   0  0  0  0  0  0  0  0  0  0  0  0  # atno 10765 bound_to 10752
  139.8786  134.8915  156.4057 H   0  0  0  0  0  0  0  0  0  0  0  0  # atno 11005 bound_to 11000
  146.2785  139.6814  142.9246 LP  0  0  0  0  0  0  0  0  0  0  0  0  # atno 17320 bound_to 7965
  145.4500  141.0428  143.2810 LP  0  0  0  0  0  0  0  0  0  0  0  0  # atno 17321 bound_to 7965
  140.7802  143.4765  151.0076 LP  0  0  0  0  0  0  0  0  0  0  0  0  # atno 17342 bound_to 10162
  139.8452  143.7511  152.3179 LP  0  0  0  0  0  0  0  0  0  0  0  0  # atno 17343 bound_to 10162
  157.7163  131.0708  150.6315 LP  0  0  0  0  0  0  0  0  0  0  0  0  # atno 17370 bound_to 10713
  156.6386  130.4452  149.5760 LP  0  0  0  0  0  0  0  0  0  0  0  0  # atno 17371 bound_to 10713
  140.9235  133.7628  155.9936 LP  0  0  0  0  0  0  0  0  0  0  0  0  # atno 17394 bound_to 11000
  140.8412  134.3064  157.5312 LP  0  0  0  0  0  0  0  0  0  0  0  0  # atno 17395 bound_to 11000

$$$$
