AV-unprocessed.smi:2358|AV-procd|sdf|9403|dock1
  -GOLD-   2272013 33D 1   1.00000     0.00000
 Structure written by MMmdl.
 45 47  0  0  0  0  0  0  0  0  1 V2000
  151.8657  144.9562  159.1455 C   0  0  0  0  0  0  0  0  0  0  0  0
  152.2769  143.5038  159.2750 C   0  0  0  0  0  0  0  0  0  0  0  0
  152.8520  143.0306  160.4713 C   0  0  0  0  0  0  0  0  0  0  0  0
  153.2298  141.6787  160.5864 C   0  0  0  0  0  0  0  0  0  0  0  0
  153.8479  141.1769  161.8750 C   0  0  0  0  0  0  0  0  0  0  0  0
  153.0311  140.8020  159.5001 C   0  0  0  0  0  0  0  0  0  0  0  0
  152.4585  141.2595  158.2957 C   0  0  0  0  0  0  0  0  0  0  0  0
  152.3034  140.3331  157.2864 O   0  0  0  0  0  0  0  0  0  0  0  0
  151.5665  140.7118  156.1311 C   0  0  0  0  0  0  0  0  0  0  0  0
  151.0318  139.4455  155.4416 C   0  0  2  0  0  0  0  0  0  0  0  0
  150.4180  139.8513  154.2333 O   0  0  0  0  0  0  0  0  0  0  0  0
  149.9623  138.7344  156.3006 C   0  0  0  0  0  0  0  0  0  0  0  0
  149.6819  137.3757  155.8214 N   0  0  0  0  0  0  0  0  0  0  0  0
  148.3369  137.1131  155.6349 N   0  0  0  0  0  0  0  0  0  0  0  0
  147.9357  135.9624  155.2032 C   0  0  0  0  0  0  0  0  0  0  0  0
  146.5206  135.7070  155.0031 N   0  0  0  0  0  0  0  0  0  0  0  0
  146.0433  134.5392  154.4064 C   0  0  0  0  0  0  0  0  0  0  0  0
  144.6712  134.6605  154.3856 C   0  0  0  0  0  0  0  0  0  0  0  0
  144.2892  135.8753  154.9520 N   0  0  0  0  0  0  0  0  0  0  0  0
  145.4384  136.4429  155.2931 C   0  0  0  0  0  0  0  0  0  0  0  0
  148.9128  134.9164  154.9207 C   0  0  0  0  0  0  0  0  0  0  0  0
  150.2235  135.1835  155.1076 C   0  0  0  0  0  0  0  0  0  0  0  0
  150.6888  136.4850  155.5828 C   0  0  0  0  0  0  0  0  0  0  0  0
  151.8774  136.7560  155.7511 O   0  0  0  0  0  0  0  0  0  0  0  0
  152.0801  142.6220  158.1927 C   0  0  0  0  0  0  0  0  0  0  0  0
  152.2182  145.5467  159.9918 H   0  0  0  0  0  0  0  0  0  0  0  0
  150.7794  145.0373  159.1008 H   0  0  0  0  0  0  0  0  0  0  0  0
  152.2806  145.3883  158.2343 H   0  0  0  0  0  0  0  0  0  0  0  0
  153.0037  143.7030  161.3034 H   0  0  0  0  0  0  0  0  0  0  0  0
  154.0268  140.1017  161.8402 H   0  0  0  0  0  0  0  0  0  0  0  0
  153.1868  141.3840  162.7170 H   0  0  0  0  0  0  0  0  0  0  0  0
  154.8006  141.6752  162.0555 H   0  0  0  0  0  0  0  0  0  0  0  0
  153.3209  139.7649  159.5862 H   0  0  0  0  0  0  0  0  0  0  0  0
  150.7266  141.3293  156.4532 H   0  0  0  0  0  0  0  0  0  0  0  0
  152.1719  141.3045  155.4425 H   0  0  0  0  0  0  0  0  0  0  0  0
  151.8617  138.7703  155.2291 H   0  0  0  0  0  0  0  0  0  0  0  0
  150.0710  139.0865  153.8001 H   0  0  0  0  0  0  0  0  0  0  0  0
  150.2991  138.6709  157.3368 H   0  0  0  0  0  0  0  0  0  0  0  0
  149.0479  139.3298  156.3426 H   0  0  0  0  0  0  0  0  0  0  0  0
  146.6555  133.7299  154.0429 H   0  0  0  0  0  0  0  0  0  0  0  0
  143.9328  133.9703  154.0049 H   0  0  0  0  0  0  0  0  0  0  0  0
  145.4916  137.4138  155.7639 H   0  0  0  0  0  0  0  0  0  0  0  0
  148.6302  133.9365  154.5746 H   0  0  0  0  0  0  0  0  0  0  0  0
  150.9517  134.4125  154.9024 H   0  0  0  0  0  0  0  0  0  0  0  0
  151.6345  143.0146  157.2912 H   0  0  0  0  0  0  0  0  0  0  0  0
  1  2  1  0  0  0  0
  1 26  1  0  0  0  0
  1 27  1  0  0  0  0
  1 28  1  0  0  0  0
  2 25  1  0  0  0  0
  2  3  2  0  0  0  0
  3  4  1  0  0  0  0
  3 29  1  0  0  0  0
  4  5  1  0  0  0  0
  4  6  2  0  0  0  0
  5 30  1  0  0  0  0
  5 31  1  0  0  0  0
  5 32  1  0  0  0  0
  6  7  1  0  0  0  0
  6 33  1  0  0  0  0
  7  8  1  0  0  0  0
  7 25  2  0  0  0  0
  8  9  1  0  0  0  0
  9 10  1  0  0  0  0
  9 34  1  0  0  0  0
  9 35  1  0  0  0  0
 10 11  1  0  0  0  0
 10 12  1  0  0  0  0
 10 36  1  0  0  0  0
 11 37  1  0  0  0  0
 12 13  1  0  0  0  0
 12 38  1  0  0  0  0
 12 39  1  0  0  0  0
 13 23  1  0  0  0  0
 13 14  1  0  0  0  0
 14 15  2  0  0  0  0
 15 16  1  0  0  0  0
 15 21  1  0  0  0  0
 16 20  1  0  0  0  0
 16 17  1  0  0  0  0
 17 18  2  0  0  0  0
 17 40  1  0  0  0  0
 18 19  1  0  0  0  0
 18 41  1  0  0  0  0
 19 20  2  0  0  0  0
 20 42  1  0  0  0  0
 21 22  2  0  0  0  0
 21 43  1  0  0  0  0
 22 23  1  0  0  0  0
 22 44  1  0  0  0  0
 23 24  2  0  0  0  0
 25 45  1  0  0  0  0
M  END
> <s_m_source_file>
AV-unprocessed.smi

> <i_m_source_file_index>
2358

> <i_lp_mmshare_version>
43012

> <i_f3d_flags>
0

> <s_epik_input>
W0NIM11jMVtjSF1jKFtDSDNdKVtjSF1jKFtjSF0xKU9bQ0gyXVtDQEhdKFtPSF0pW0NIMl1uMm5jKFtjSF1bY0hdYzI9TyktbjNbY0hdW2NIXW5bY0hdMw==

> <s_epik_cmdline>
J2VwaWtfcHl0aG9uJywgJy1waCcsICc3LjAnLCAnLXRuJywgJzgnLCAnLW1hJywgJzIwMCcsICctbWV0YWxfYmluZGluZycsICctaW1hZScsICc8aW5maWxlLm1hZT4nLCAnLW9tYWUnLCAnPG91dGZpbGUubWFlPic=

> <r_lp_tautomer_probability>
1

> <r_epik_Ionization_Penalty>
0.03707

> <r_epik_Ionization_Penalty_Charging>
0.0370699

> <r_epik_Ionization_Penalty_Neutral>
1.17174e-07

> <r_epik_State_Penalty>
0.0310055

> <r_epik_Charging_Adjusted_Penalty>
0.0680754

> <i_epik_Tot_Q>
0

> <i_epik_Tot_abs_Q>
0

> <r_epik_Metal_State_Penalty>
0.0291724

> <b_epik_Metal_Only>
0

> <s_lp_Force_Field>
OPLS_2005

> <r_lp_Energy>
37.1438

> <b_lp_Chiralities_Consistent>
1

> <s_lp_Variant>
AV-unprocessed.smi:2358-1

> <Gold.Version>
5.8.1

> <Gold.Id.Protein>
6NUR|6NUR_protein|mol2

> <Gold.PLP.Fitness>
51.0282

> <Gold.PLP.PLP>
-40.3253

> <Gold.PLP.part.hbond>
-3.4620

> <Gold.PLP.part.metal>
0.0000

> <Gold.PLP.part.buried>
-5.0716

> <Gold.PLP.part.nonpolar>
-31.2165

> <Gold.PLP.part.repulsive>
0.1322

> <Gold.PLP.ligand.clash>
0.0000

> <Gold.PLP.ligand.torsion>
0.4242

> <Gold.PLP.Chemscore.Hbond>
2.7644

> <Gold.PLP.Chemscore.CHOScore>
0.9999

> <Gold.PLP.Chemscore.Metal>
0.0000

> <Gold.Chemscore.Hbonds>
donor molecule, donor type, donor heavy atom, donor atom, acceptor molecule, acceptor atom, score
      P1  H  7989  7998       L1    11  1.00
      P1  H  7997  8009       L1     8  0.62
      P1  H 10752 10763       L1    24  1.00
      L1  C    18    41       P1 10957  0.67

> <Gold.PLP.Chemscore.Internal.Correction>
0.2583

> <Gold.Rescore>
     Score         DG    S(hbond)    S(metal)    S(lipo)     H(rot)  DE(clash)    DE(int)     intcor
     16.65     -18.31       1.95        0.00     110.86       2.60       0.06       1.60       ----

> <Gold.Chemscore.Fitness>
16.6476

> <Gold.Chemscore.DG>
-18.3125

> <Gold.Chemscore.ZeroCoef>
-5.4800

> <Gold.Chemscore.Hbond>
1.9505

> <Gold.Chemscore.Metal>
0.0000

> <Gold.Chemscore.Lipo>
110.8577

> <Gold.Chemscore.Internal_Hbond>
0.0000

> <Gold.Chemscore.DEClash>
0.0604

> <Gold.Chemscore.DEInternal>
1.6045

> <Gold.Chemscore.Rot>
2.5986

> <Gold.Chemscore.Internal.Correction>
   9.000000E+99

> <Gold.Chemscore.Hbonds>
donor molecule, donor type, donor heavy atom, donor atom, acceptor molecule, acceptor atom, score
      P1  H  7989  7998       L1    11  0.44
      P1  H  7997  8009       L1     8  0.10
      P1  H 10752 10763       L1    24  0.89

> <Gold.Chemscore.Hbond.Weighted>
-6.5145

> <Gold.Chemscore.Metal.Weighted>
-0.0000

> <Gold.Chemscore.Lipo.Weighted>
-12.9703

> <Gold.Chemscore.Internal_Hbond.Weighted>
0.0000

> <Gold.Chemscore.DEClash.Weighted>
0.0604

> <Gold.Chemscore.DEInternal.Weighted>
1.6045

> <Gold.Chemscore.Rot.Weighted>
6.6524

> <Gold.Chemscore.Internal.Correction.Weighted>
   9.000000E+99

> <Gold.Protein.RotatedTorsions>
[ 6907 6896 6895 6894 ] final  -17.88 input  -60.11 | X-H torsion
[ 7974 7965 7964 7962 ] final  -85.63 input  175.53 | X-H torsion
[ 8008 7997 7996 7995 ] final -178.23 input   59.86 | X-H torsion
[ 10167 10162 10161 10158 ] final  -59.10 input  -65.29 | X-H torsion
[ 10718 10713 10712 10709 ] final   35.80 input   66.30 | X-H torsion
[ 10763 10752 10751 10750 ] final   84.61 input  -60.55 | X-H torsion
[ 11005 11000 10999 10996 ] final   21.91 input  -57.11 | X-H torsion

> <Gold.Protein.ActiveResidues>
 VAL166  LYS551  ARG553  GLY616  TRP617  ASP618  TYR619  PRO620  LYS621  CYS622 
 ASP623  PHE694  ASN695  SER759  ASP760  ASP761  ALA762  ILE779  LEU786  VAL792 
 PHE793  MET794  SER795  GLU796  ALA797  LYS798  CYS799  TRP800  GLU811  SER814 

> <Gold.Protein.RotatedAtoms>
  151.2866  135.0730  159.9188 H   0  0  0  0  0  0  0  0  0  0  0  0  # atno 6907 bound_to 6896
  152.5324  133.9975  159.7889 H   0  0  0  0  0  0  0  0  0  0  0  0  # atno 6908 bound_to 6896
  151.0238  133.5802  159.2699 H   0  0  0  0  0  0  0  0  0  0  0  0  # atno 6909 bound_to 6896
  145.4907  140.9553  143.1814 H   0  0  0  0  0  0  0  0  0  0  0  0  # atno 7974 bound_to 7965
  156.0163  140.1251  157.0403 H   0  0  0  0  0  0  0  0  0  0  0  0  # atno 8008 bound_to 7997
  154.4294  140.1077  156.5970 H   0  0  0  0  0  0  0  0  0  0  0  0  # atno 8009 bound_to 7997
  155.6008  140.3470  155.4595 H   0  0  0  0  0  0  0  0  0  0  0  0  # atno 8010 bound_to 7997
  140.6156  143.2401  151.5605 H   0  0  0  0  0  0  0  0  0  0  0  0  # atno 10167 bound_to 10162
  157.3271  130.7478  149.6823 H   0  0  0  0  0  0  0  0  0  0  0  0  # atno 10718 bound_to 10713
  153.1398  135.4647  154.9478 H   0  0  0  0  0  0  0  0  0  0  0  0  # atno 10763 bound_to 10752
  154.7737  135.3166  154.8139 H   0  0  0  0  0  0  0  0  0  0  0  0  # atno 10764 bound_to 10752
  153.8664  135.6908  153.4832 H   0  0  0  0  0  0  0  0  0  0  0  0  # atno 10765 bound_to 10752
  140.3863  134.1866  155.7663 H   0  0  0  0  0  0  0  0  0  0  0  0  # atno 11005 bound_to 11000
  144.7836  139.6474  143.7144 LP  0  0  0  0  0  0  0  0  0  0  0  0  # atno 17320 bound_to 7965
  146.2286  139.5770  142.9570 LP  0  0  0  0  0  0  0  0  0  0  0  0  # atno 17321 bound_to 7965
  139.5396  144.2684  152.1323 LP  0  0  0  0  0  0  0  0  0  0  0  0  # atno 17342 bound_to 10162
  140.1893  144.4767  150.6487 LP  0  0  0  0  0  0  0  0  0  0  0  0  # atno 17343 bound_to 10162
  155.9691  130.4206  150.4430 LP  0  0  0  0  0  0  0  0  0  0  0  0  # atno 17370 bound_to 10713
  157.2456  131.0535  151.2410 LP  0  0  0  0  0  0  0  0  0  0  0  0  # atno 17371 bound_to 10713
  141.1906  133.8213  157.0911 LP  0  0  0  0  0  0  0  0  0  0  0  0  # atno 17394 bound_to 11000
  140.0440  134.9840  157.1014 LP  0  0  0  0  0  0  0  0  0  0  0  0  # atno 17395 bound_to 11000

$$$$
