AV-unprocessed.smi:2790|AV-procd|sdf|10768|dock9
  -GOLD-   2272015203D 1   1.00000     0.00000
 Structure written by MMmdl.
 45 46  0  0  0  0  0  0  0  0  1 V2000
  146.3165  137.5270  162.4693 C   0  0  0  0  0  0  0  0  0  0  0  0
  147.6114  137.1501  161.9036 N   0  0  0  0  0  0  0  0  0  0  0  0
  148.0599  135.8974  162.5013 C   0  0  0  0  0  0  0  0  0  0  0  0
  147.5758  137.0134  160.4290 C   0  0  0  0  0  0  0  0  0  0  0  0
  148.9227  136.6652  159.7844 C   0  0  0  0  0  0  0  0  0  0  0  0
  149.2761  135.4906  159.6842 O   0  0  0  0  0  0  0  0  0  0  0  0
  149.6636  137.6978  159.3596 N   0  0  0  0  0  0  0  0  0  0  0  0
  150.9572  137.5834  158.6949 C   0  0  0  0  0  0  0  0  0  0  0  0
  151.0378  138.4573  157.4172 C   0  0  0  0  0  0  0  0  0  0  0  0
  151.2051  139.9375  157.8373 C   0  0  0  0  0  0  0  0  0  0  0  0
  152.2600  140.3798  158.6746 C   0  0  0  0  0  0  0  0  0  0  0  0
  152.3629  141.7489  158.9901 C   0  0  0  0  0  0  0  0  0  0  0  0
  151.5113  142.6849  158.5253 N   0  0  0  0  0  0  0  0  0  0  0  0
  150.5186  142.2747  157.7108 C   0  0  0  0  0  0  0  0  0  0  0  0
  150.3284  140.9302  157.3361 C   0  0  0  0  0  0  0  0  0  0  0  0
  152.2437  137.9638  156.5660 C   0  0  0  0  0  0  0  0  0  0  0  0
  152.3416  138.6647  155.1993 C   0  0  0  0  0  0  0  0  0  0  0  0
  151.0656  138.4360  154.3777 C   0  0  0  0  0  0  0  0  0  0  0  0
  149.8197  138.8712  155.1607 C   0  0  0  0  0  0  0  0  0  0  0  0
  149.7661  138.2012  156.5496 C   0  0  0  0  0  0  0  0  0  0  0  0
  145.9934  138.5084  162.1215 H   0  0  0  0  0  0  0  0  0  0  0  0
  146.3741  137.5843  163.5568 H   0  0  0  0  0  0  0  0  0  0  0  0
  145.5433  136.8023  162.2097 H   0  0  0  0  0  0  0  0  0  0  0  0
  149.0464  135.6220  162.1265 H   0  0  0  0  0  0  0  0  0  0  0  0
  147.3720  135.0788  162.2828 H   0  0  0  0  0  0  0  0  0  0  0  0
  148.1412  135.9929  163.5847 H   0  0  0  0  0  0  0  0  0  0  0  0
  146.8708  136.2269  160.1554 H   0  0  0  0  0  0  0  0  0  0  0  0
  147.1996  137.9364  159.9834 H   0  0  0  0  0  0  0  0  0  0  0  0
  149.2950  138.6294  159.4881 H   0  0  0  0  0  0  0  0  0  0  0  0
  151.7309  137.8811  159.4044 H   0  0  0  0  0  0  0  0  0  0  0  0
  151.1497  136.5374  158.4492 H   0  0  0  0  0  0  0  0  0  0  0  0
  152.9957  139.7041  159.0806 H   0  0  0  0  0  0  0  0  0  0  0  0
  153.1575  142.1019  159.6304 H   0  0  0  0  0  0  0  0  0  0  0  0
  149.8579  143.0434  157.3381 H   0  0  0  0  0  0  0  0  0  0  0  0
  149.5224  140.6859  156.6621 H   0  0  0  0  0  0  0  0  0  0  0  0
  153.1863  138.0654  157.1017 H   0  0  0  0  0  0  0  0  0  0  0  0
  152.1412  136.8921  156.3877 H   0  0  0  0  0  0  0  0  0  0  0  0
  152.5109  139.7335  155.3348 H   0  0  0  0  0  0  0  0  0  0  0  0
  153.2037  138.2846  154.6504 H   0  0  0  0  0  0  0  0  0  0  0  0
  151.1236  138.9795  153.4342 H   0  0  0  0  0  0  0  0  0  0  0  0
  150.9825  137.3790  154.1211 H   0  0  0  0  0  0  0  0  0  0  0  0
  149.8149  139.9565  155.2563 H   0  0  0  0  0  0  0  0  0  0  0  0
  148.9238  138.6150  154.5947 H   0  0  0  0  0  0  0  0  0  0  0  0
  149.6576  137.1269  156.3924 H   0  0  0  0  0  0  0  0  0  0  0  0
  148.8562  138.4944  157.0727 H   0  0  0  0  0  0  0  0  0  0  0  0
  1  2  1  0  0  0  0
  1 21  1  0  0  0  0
  1 22  1  0  0  0  0
  1 23  1  0  0  0  0
  2  3  1  0  0  0  0
  2  4  1  0  0  0  0
  3 24  1  0  0  0  0
  3 25  1  0  0  0  0
  3 26  1  0  0  0  0
  4  5  1  0  0  0  0
  4 27  1  0  0  0  0
  4 28  1  0  0  0  0
  5  6  2  0  0  0  0
  5  7  1  0  0  0  0
  7  8  1  0  0  0  0
  7 29  1  0  0  0  0
  8  9  1  0  0  0  0
  8 30  1  0  0  0  0
  8 31  1  0  0  0  0
  9 20  1  0  0  0  0
  9 10  1  0  0  0  0
  9 16  1  0  0  0  0
 10 15  1  0  0  0  0
 10 11  2  0  0  0  0
 11 12  1  0  0  0  0
 11 32  1  0  0  0  0
 12 13  2  0  0  0  0
 12 33  1  0  0  0  0
 13 14  1  0  0  0  0
 14 15  2  0  0  0  0
 14 34  1  0  0  0  0
 15 35  1  0  0  0  0
 16 17  1  0  0  0  0
 16 36  1  0  0  0  0
 16 37  1  0  0  0  0
 17 18  1  0  0  0  0
 17 38  1  0  0  0  0
 17 39  1  0  0  0  0
 18 19  1  0  0  0  0
 18 40  1  0  0  0  0
 18 41  1  0  0  0  0
 19 20  1  0  0  0  0
 19 42  1  0  0  0  0
 19 43  1  0  0  0  0
 20 44  1  0  0  0  0
 20 45  1  0  0  0  0
M  END
> <s_m_source_file>
AV-unprocessed.smi

> <i_m_source_file_index>
2790

> <i_lp_mmshare_version>
43012

> <i_f3d_flags>
0

> <s_epik_input>
W0NIM11OKFtDSDNdKVtDSDJdQyg9TylbTkhdW0NIMl1DMShbQ0gyXVtDSDJdW0NIMl1bQ0gyXVtDSDJdMSljMltjSF1bY0hdbltjSF1bY0hdMg==

> <s_epik_cmdline>
J2VwaWtfcHl0aG9uJywgJy1waCcsICc3LjAnLCAnLXRuJywgJzgnLCAnLW1hJywgJzIwMCcsICctbWV0YWxfYmluZGluZycsICctaW1hZScsICc8aW5maWxlLm1hZT4nLCAnLW9tYWUnLCAnPG91dGZpbGUubWFlPic=

> <r_epik_Ionization_Penalty>
1.73486

> <r_epik_Ionization_Penalty_Charging>
0

> <r_epik_Ionization_Penalty_Neutral>
1.73486

> <r_epik_State_Penalty>
1.84779

> <r_epik_Charging_Adjusted_Penalty>
1.84779

> <i_epik_Tot_Q>
0

> <i_epik_Tot_abs_Q>
0

> <r_epik_Metal_State_Penalty>
1.83713

> <b_epik_Metal_Only>
0

> <s_lp_Force_Field>
OPLS_2005

> <r_lp_Energy>
21.958

> <b_lp_Chiralities_Consistent>
1

> <s_lp_Variant>
AV-unprocessed.smi:2790-3

> <Gold.Version>
5.8.1

> <Gold.Id.Protein>
6NUR|6NUR_protein|mol2

> <Gold.PLP.Fitness>
38.4199

> <Gold.PLP.PLP>
-30.7898

> <Gold.PLP.part.hbond>
-3.0000

> <Gold.PLP.part.metal>
0.0000

> <Gold.PLP.part.buried>
-4.0061

> <Gold.PLP.part.nonpolar>
-24.3203

> <Gold.PLP.part.repulsive>
0.2643

> <Gold.PLP.ligand.clash>
0.0000

> <Gold.PLP.ligand.torsion>
0.6659

> <Gold.PLP.Chemscore.Hbond>
1.9760

> <Gold.PLP.Chemscore.CHOScore>
1.0000

> <Gold.PLP.Chemscore.Metal>
0.0000

> <Gold.Chemscore.Hbonds>
donor molecule, donor type, donor heavy atom, donor atom, acceptor molecule, acceptor atom, score
      P1  H  6896  6908       L1     6  1.00
      P1  H  6931  6943       L1     2  0.75
      L1  C    14    34       P1  8028  0.94

> <Gold.PLP.Chemscore.Internal.Correction>
0.0341

> <Gold.Rescore>
     Score         DG    S(hbond)    S(metal)    S(lipo)     H(rot)  DE(clash)    DE(int)     intcor
     13.55     -15.17       1.00        0.00      88.27       1.55       0.07       1.55       ----

> <Gold.Chemscore.Fitness>
13.5490

> <Gold.Chemscore.DG>
-15.1697

> <Gold.Chemscore.ZeroCoef>
-5.4800

> <Gold.Chemscore.Hbond>
0.9973

> <Gold.Chemscore.Metal>
0.0000

> <Gold.Chemscore.Lipo>
88.2744

> <Gold.Chemscore.Internal_Hbond>
0.0000

> <Gold.Chemscore.DEClash>
0.0746

> <Gold.Chemscore.DEInternal>
1.5461

> <Gold.Chemscore.Rot>
1.5505

> <Gold.Chemscore.Internal.Correction>
   9.000000E+99

> <Gold.Chemscore.Hbonds>
donor molecule, donor type, donor heavy atom, donor atom, acceptor molecule, acceptor atom, score
      P1  H  6896  6908       L1     6  0.98
      P1  H  6931  6943       L1     2  0.05

> <Gold.Chemscore.Hbond.Weighted>
-3.3309

> <Gold.Chemscore.Metal.Weighted>
-0.0000

> <Gold.Chemscore.Lipo.Weighted>
-10.3281

> <Gold.Chemscore.Internal_Hbond.Weighted>
0.0000

> <Gold.Chemscore.DEClash.Weighted>
0.0746

> <Gold.Chemscore.DEInternal.Weighted>
1.5461

> <Gold.Chemscore.Rot.Weighted>
3.9693

> <Gold.Chemscore.Internal.Correction.Weighted>
   9.000000E+99

> <Gold.Protein.RotatedTorsions>
[ 6907 6896 6895 6894 ] final  171.81 input  -60.11 | X-H torsion
[ 7974 7965 7964 7962 ] final  116.59 input  175.53 | X-H torsion
[ 8008 7997 7996 7995 ] final  -78.69 input   59.86 | X-H torsion
[ 10167 10162 10161 10158 ] final  111.25 input  -65.29 | X-H torsion
[ 10718 10713 10712 10709 ] final  136.98 input   66.30 | X-H torsion
[ 10763 10752 10751 10750 ] final  -36.18 input  -60.55 | X-H torsion
[ 11005 11000 10999 10996 ] final  -86.46 input  -57.11 | X-H torsion

> <Gold.Protein.ActiveResidues>
 VAL166  LYS551  ARG553  GLY616  TRP617  ASP618  TYR619  PRO620  LYS621  CYS622 
 ASP623  PHE694  ASN695  SER759  ASP760  ASP761  ALA762  ILE779  LEU786  VAL792 
 PHE793  MET794  SER795  GLU796  ALA797  LYS798  CYS799  TRP800  GLU811  SER814 

> <Gold.Protein.RotatedAtoms>
  151.7943  133.3362  159.3507 H   0  0  0  0  0  0  0  0  0  0  0  0  # atno 6907 bound_to 6896
  150.7381  134.5813  159.5950 H   0  0  0  0  0  0  0  0  0  0  0  0  # atno 6908 bound_to 6896
  152.3188  134.7407  160.0370 H   0  0  0  0  0  0  0  0  0  0  0  0  # atno 6909 bound_to 6896
  145.1777  139.3067  143.4434 H   0  0  0  0  0  0  0  0  0  0  0  0  # atno 7974 bound_to 7965
  154.5713  140.0690  156.8969 H   0  0  0  0  0  0  0  0  0  0  0  0  # atno 8008 bound_to 7997
  155.2629  140.3360  155.4253 H   0  0  0  0  0  0  0  0  0  0  0  0  # atno 8009 bound_to 7997
  156.2120  140.1763  156.7658 H   0  0  0  0  0  0  0  0  0  0  0  0  # atno 8010 bound_to 7997
  139.6626  144.7128  151.1837 H   0  0  0  0  0  0  0  0  0  0  0  0  # atno 10167 bound_to 10162
  157.4410  131.1057  151.0143 H   0  0  0  0  0  0  0  0  0  0  0  0  # atno 10718 bound_to 10713
  153.8756  135.6826  153.4771 H   0  0  0  0  0  0  0  0  0  0  0  0  # atno 10763 bound_to 10752
  153.1263  135.4717  154.9275 H   0  0  0  0  0  0  0  0  0  0  0  0  # atno 10764 bound_to 10752
  154.7693  135.3234  154.8172 H   0  0  0  0  0  0  0  0  0  0  0  0  # atno 10765 bound_to 10752
  141.1629  133.7456  156.9165 H   0  0  0  0  0  0  0  0  0  0  0  0  # atno 11005 bound_to 11000
  146.3458  140.1946  142.8589 LP  0  0  0  0  0  0  0  0  0  0  0  0  # atno 17320 bound_to 7965
  145.0168  140.8760  143.5191 LP  0  0  0  0  0  0  0  0  0  0  0  0  # atno 17321 bound_to 7965
  140.7586  143.5971  150.8737 LP  0  0  0  0  0  0  0  0  0  0  0  0  # atno 17342 bound_to 10162
  139.9629  143.6143  152.2997 LP  0  0  0  0  0  0  0  0  0  0  0  0  # atno 17343 bound_to 10162
  157.1007  130.5980  149.5459 LP  0  0  0  0  0  0  0  0  0  0  0  0  # atno 17370 bound_to 10713
  155.9948  130.5014  150.7436 LP  0  0  0  0  0  0  0  0  0  0  0  0  # atno 17371 bound_to 10713
  140.1481  134.9249  157.2556 LP  0  0  0  0  0  0  0  0  0  0  0  0  # atno 17394 bound_to 11000
  140.2756  134.3410  155.7359 LP  0  0  0  0  0  0  0  0  0  0  0  0  # atno 17395 bound_to 11000

$$$$
