AV-unprocessed.smi:148|AV-procd|sdf|1233|dock3
  -GOLD-   2262018443D 1   1.00000     0.00000
 Structure written by MMmdl.
 63 67  0  0  0  0  0  0  0  0  1 V2000
  151.1005  133.0935  157.2196 O   0  0  0  0  0  0  0  0  0  0  0  0
  150.3472  132.6748  156.1006 C   0  0  0  0  0  0  0  0  0  0  0  0
  149.5587  133.8539  155.4800 C   0  0  1  0  0  0  0  0  0  0  0  0
  150.5010  134.9381  154.8944 C   0  0  0  0  0  0  0  0  0  0  0  0
  150.5323  136.1571  155.6841 N   0  0  0  0  0  0  0  0  0  0  0  0
  149.7933  136.4228  156.8153 C   0  0  0  0  0  0  0  0  0  0  0  0
  149.9904  137.5996  157.3456 N   0  0  0  0  0  0  0  0  0  0  0  0
  150.9337  138.1885  156.5133 C   0  0  0  0  0  0  0  0  0  0  0  0
  151.5810  139.4514  156.4944 C   0  0  0  0  0  0  0  0  0  0  0  0
  151.3303  140.3981  157.4285 N   0  0  0  0  0  0  0  0  0  0  0  0
  152.5562  140.6919  158.1711 C   0  0  0  0  0  0  0  0  0  0  0  0
  152.2779  141.5917  159.3809 C   0  0  0  0  0  0  0  0  0  0  0  0
  151.5708  142.8733  158.9326 C   0  0  0  0  0  0  0  0  0  0  0  0
  150.2820  142.5220  158.1782 C   0  0  0  0  0  0  0  0  0  0  0  0
  150.5463  141.5668  156.9837 C   0  0  2  0  0  0  0  0  0  0  0  0
  149.2428  141.1599  156.2250 C   0  0  1  0  0  0  0  0  0  0  0  0
  147.9389  141.8228  156.7119 C   0  0  0  0  0  0  0  0  0  0  0  0
  147.0054  141.8908  155.4919 C   0  0  0  0  0  0  0  0  0  0  0  0
  147.7626  141.2328  154.3341 C   0  0  0  0  0  0  0  0  0  0  0  0
  149.2363  141.3902  154.7066 C   0  0  2  0  0  0  0  0  0  0  0  0
  150.0446  140.4579  154.0193 O   0  0  0  0  0  0  0  0  0  0  0  0
  152.4833  139.6908  155.5059 N   0  0  0  0  0  0  0  0  0  0  0  0
  152.7233  138.7549  154.5824 C   0  0  0  0  0  0  0  0  0  0  0  0
  152.1861  137.5380  154.4667 N   0  0  0  0  0  0  0  0  0  0  0  0
  151.2873  137.2958  155.4641 C   0  0  0  0  0  0  0  0  0  0  0  0
  148.4835  133.3523  154.4738 C   0  0  1  0  0  0  0  0  0  0  0  0
  147.3939  134.3370  154.0894 C   0  0  0  0  0  0  0  0  0  0  0  0
  146.7713  133.6417  152.8827 C   0  0  0  0  0  0  0  0  0  0  0  0
  147.8425  132.9576  152.2381 O   0  0  0  0  0  0  0  0  0  0  0  0
  148.9792  132.8997  153.0966 C   0  0  0  0  0  0  0  0  0  0  0  0
  151.9992  132.8295  157.0930 H   0  0  0  0  0  0  0  0  0  0  0  0
  151.0538  132.2500  155.3883 H   0  0  0  0  0  0  0  0  0  0  0  0
  149.6747  131.8695  156.3969 H   0  0  0  0  0  0  0  0  0  0  0  0
  149.0161  134.3306  156.2981 H   0  0  0  0  0  0  0  0  0  0  0  0
  151.5204  134.5633  154.8119 H   0  0  0  0  0  0  0  0  0  0  0  0
  150.1931  135.2210  153.8891 H   0  0  0  0  0  0  0  0  0  0  0  0
  149.0988  135.7108  157.2370 H   0  0  0  0  0  0  0  0  0  0  0  0
  153.0176  139.7631  158.5107 H   0  0  0  0  0  0  0  0  0  0  0  0
  153.2732  141.1790  157.5080 H   0  0  0  0  0  0  0  0  0  0  0  0
  151.6574  141.0586  160.1025 H   0  0  0  0  0  0  0  0  0  0  0  0
  153.2111  141.8349  159.8893 H   0  0  0  0  0  0  0  0  0  0  0  0
  151.3425  143.4997  159.7955 H   0  0  0  0  0  0  0  0  0  0  0  0
  152.2309  143.4549  158.2878 H   0  0  0  0  0  0  0  0  0  0  0  0
  149.5799  142.0740  158.8804 H   0  0  0  0  0  0  0  0  0  0  0  0
  149.8276  143.4505  157.8361 H   0  0  0  0  0  0  0  0  0  0  0  0
  151.1731  142.1145  156.2783 H   0  0  0  0  0  0  0  0  0  0  0  0
  149.0969  140.0857  156.3492 H   0  0  0  0  0  0  0  0  0  0  0  0
  147.4898  141.2483  157.5223 H   0  0  0  0  0  0  0  0  0  0  0  0
  148.1086  142.8279  157.0953 H   0  0  0  0  0  0  0  0  0  0  0  0
  146.0510  141.3972  155.6776 H   0  0  0  0  0  0  0  0  0  0  0  0
  146.7925  142.9331  155.2518 H   0  0  0  0  0  0  0  0  0  0  0  0
  147.4992  140.1748  154.2877 H   0  0  0  0  0  0  0  0  0  0  0  0
  147.5220  141.6767  153.3675 H   0  0  0  0  0  0  0  0  0  0  0  0
  149.5509  142.4012  154.4522 H   0  0  0  0  0  0  0  0  0  0  0  0
  149.5177  139.7024  153.8077 H   0  0  0  0  0  0  0  0  0  0  0  0
  153.4491  139.0191  153.8275 H   0  0  0  0  0  0  0  0  0  0  0  0
  147.9722  132.5008  154.9258 H   0  0  0  0  0  0  0  0  0  0  0  0
  146.6768  134.5185  154.8904 H   0  0  0  0  0  0  0  0  0  0  0  0
  147.8049  135.2947  153.7735 H   0  0  0  0  0  0  0  0  0  0  0  0
  146.0336  132.9061  153.2059 H   0  0  0  0  0  0  0  0  0  0  0  0
  146.2792  134.3400  152.2055 H   0  0  0  0  0  0  0  0  0  0  0  0
  149.7342  133.5734  152.6937 H   0  0  0  0  0  0  0  0  0  0  0  0
  149.4028  131.8953  153.1182 H   0  0  0  0  0  0  0  0  0  0  0  0
  1  2  1  0  0  0  0
  1 31  1  0  0  0  0
  2  3  1  0  0  0  0
  2 32  1  0  0  0  0
  2 33  1  0  0  0  0
  3  4  1  0  0  0  0
  3 26  1  0  0  0  0
  3 34  1  0  0  0  0
  4  5  1  0  0  0  0
  4 35  1  0  0  0  0
  4 36  1  0  0  0  0
  5 25  1  0  0  0  0
  5  6  1  0  0  0  0
  6  7  2  0  0  0  0
  6 37  1  0  0  0  0
  7  8  1  0  0  0  0
  8 25  2  0  0  0  0
  8  9  1  0  0  0  0
  9 10  1  0  0  0  0
  9 22  2  0  0  0  0
 10 15  1  0  0  0  0
 10 11  1  0  0  0  0
 11 12  1  0  0  0  0
 11 38  1  0  0  0  0
 11 39  1  0  0  0  0
 12 13  1  0  0  0  0
 12 40  1  0  0  0  0
 12 41  1  0  0  0  0
 13 14  1  0  0  0  0
 13 42  1  0  0  0  0
 13 43  1  0  0  0  0
 14 15  1  0  0  0  0
 14 44  1  0  0  0  0
 14 45  1  0  0  0  0
 15 16  1  0  0  0  0
 15 46  1  0  0  0  0
 16 20  1  0  0  0  0
 16 17  1  0  0  0  0
 16 47  1  0  0  0  0
 17 18  1  0  0  0  0
 17 48  1  0  0  0  0
 17 49  1  0  0  0  0
 18 19  1  0  0  0  0
 18 50  1  0  0  0  0
 18 51  1  0  0  0  0
 19 20  1  0  0  0  0
 19 52  1  0  0  0  0
 19 53  1  0  0  0  0
 20 21  1  0  0  0  0
 20 54  1  0  0  0  0
 21 55  1  0  0  0  0
 22 23  1  0  0  0  0
 23 24  2  0  0  0  0
 23 56  1  0  0  0  0
 24 25  1  0  0  0  0
 26 30  1  0  0  0  0
 26 27  1  0  0  0  0
 26 57  1  0  0  0  0
 27 28  1  0  0  0  0
 27 58  1  0  0  0  0
 27 59  1  0  0  0  0
 28 29  1  0  0  0  0
 28 60  1  0  0  0  0
 28 61  1  0  0  0  0
 29 30  1  0  0  0  0
 30 62  1  0  0  0  0
 30 63  1  0  0  0  0
M  END
> <s_m_source_file>
AV-unprocessed.smi

> <i_m_source_file_index>
148

> <i_lp_mmshare_version>
43012

> <i_f3d_flags>
0

> <s_epik_input>
W0NIMl0xT1tDSDJdW0NIMl1bQ0BIXTFbQ0BIXShbQ0gyXVtPSF0pW0NIMl1uKFtjSF1uMiljKGMyMyluW2NIXW5jM040W0NIMl1bQ0gyXVtDSDJdW0NIMl1bQ0BIXTRbQ0BASF01W0NIMl1bQ0gyXVtDSDJdW0NASF01W09IXQ==

> <s_epik_cmdline>
J2VwaWtfcHl0aG9uJywgJy1waCcsICc3LjAnLCAnLXRuJywgJzgnLCAnLW1hJywgJzIwMCcsICctbWV0YWxfYmluZGluZycsICctaW1hZScsICc8aW5maWxlLm1hZT4nLCAnLW9tYWUnLCAnPG91dGZpbGUubWFlPic=

> <r_lp_tautomer_probability>
1

> <r_epik_Ionization_Penalty>
0.00556303

> <r_epik_Ionization_Penalty_Charging>
0

> <r_epik_Ionization_Penalty_Neutral>
0.00556303

> <r_epik_State_Penalty>
0.00401767

> <r_epik_Charging_Adjusted_Penalty>
0.00401767

> <i_epik_Tot_Q>
0

> <i_epik_Tot_abs_Q>
0

> <r_epik_Metal_State_Penalty>
-0

> <b_epik_Metal_Only>
0

> <s_lp_Force_Field>
OPLS_2005

> <r_lp_Energy>
68.5512

> <b_lp_Chiralities_Consistent>
1

> <s_lp_Variant>
AV-unprocessed.smi:148-32

> <Gold.Version>
5.8.1

> <Gold.Id.Protein>
6NUR|6NUR_protein|mol2

> <Gold.PLP.Fitness>
52.6013

> <Gold.PLP.PLP>
-47.0735

> <Gold.PLP.part.hbond>
-4.9170

> <Gold.PLP.part.metal>
0.0000

> <Gold.PLP.part.buried>
-7.5562

> <Gold.PLP.part.nonpolar>
-35.5995

> <Gold.PLP.part.repulsive>
0.3120

> <Gold.PLP.ligand.clash>
0.0000

> <Gold.PLP.ligand.torsion>
2.5030

> <Gold.PLP.Chemscore.Hbond>
3.3520

> <Gold.PLP.Chemscore.CHOScore>
0.0000

> <Gold.PLP.Chemscore.Metal>
0.0000

> <Gold.Chemscore.Hbonds>
donor molecule, donor type, donor heavy atom, donor atom, acceptor molecule, acceptor atom, score
      P1  H  6896  6908       L1     1  0.50
      P1  H  7989  7998       L1    21  0.75
      P1  H  7997  8009       L1    22  1.00
      P1  H 10752 10765       L1    24  0.71

> <Gold.PLP.Chemscore.Internal.Correction>
0.4776

> <Gold.Rescore>
     Score         DG    S(hbond)    S(metal)    S(lipo)     H(rot)  DE(clash)    DE(int)     intcor
     16.45     -18.99       3.19        0.00      96.99       3.32       0.04       2.50       ----

> <Gold.Chemscore.Fitness>
16.4532

> <Gold.Chemscore.DG>
-18.9930

> <Gold.Chemscore.ZeroCoef>
-5.4800

> <Gold.Chemscore.Hbond>
3.1932

> <Gold.Chemscore.Metal>
0.0000

> <Gold.Chemscore.Lipo>
96.9896

> <Gold.Chemscore.Internal_Hbond>
0.0000

> <Gold.Chemscore.DEClash>
0.0411

> <Gold.Chemscore.DEInternal>
2.4987

> <Gold.Chemscore.Rot>
3.3203

> <Gold.Chemscore.Internal.Correction>
   9.000000E+99

> <Gold.Chemscore.Hbonds>
donor molecule, donor type, donor heavy atom, donor atom, acceptor molecule, acceptor atom, score
      P1  H  6896  6908       L1     1  0.32
      P1  H  7989  7998       L1    21  0.75
      P1  H  7997  8009       L1    22  0.30
      P1  H 10752 10765       L1    24  0.13

> <Gold.Chemscore.Hbond.Weighted>
-10.6653

> <Gold.Chemscore.Metal.Weighted>
-0.0000

> <Gold.Chemscore.Lipo.Weighted>
-11.3478

> <Gold.Chemscore.Internal_Hbond.Weighted>
0.0000

> <Gold.Chemscore.DEClash.Weighted>
0.0411

> <Gold.Chemscore.DEInternal.Weighted>
2.4987

> <Gold.Chemscore.Rot.Weighted>
8.5000

> <Gold.Chemscore.Internal.Correction.Weighted>
   9.000000E+99

> <Gold.Protein.RotatedTorsions>
[ 6907 6896 6895 6894 ] final  115.30 input  -60.11 | X-H torsion
[ 7974 7965 7964 7962 ] final  -35.23 input  175.53 | X-H torsion
[ 8008 7997 7996 7995 ] final -150.68 input   59.86 | X-H torsion
[ 10167 10162 10161 10158 ] final  142.54 input  -65.29 | X-H torsion
[ 10718 10713 10712 10709 ] final   73.89 input   66.30 | X-H torsion
[ 10763 10752 10751 10750 ] final  163.41 input  -60.55 | X-H torsion
[ 11005 11000 10999 10996 ] final   86.06 input  -57.11 | X-H torsion

> <Gold.Protein.ActiveResidues>
 VAL166  LYS551  ARG553  GLY616  TRP617  ASP618  TYR619  PRO620  LYS621  CYS622 
 ASP623  PHE694  ASN695  SER759  ASP760  ASP761  ALA762  ILE779  LEU786  VAL792 
 PHE793  MET794  SER795  GLU796  ALA797  LYS798  CYS799  TRP800  GLU811  SER814 

> <Gold.Protein.RotatedAtoms>
  152.4750  133.8117  159.7006 H   0  0  0  0  0  0  0  0  0  0  0  0  # atno 6907 bound_to 6896
  150.8761  133.7427  159.2952 H   0  0  0  0  0  0  0  0  0  0  0  0  # atno 6908 bound_to 6896
  151.4946  135.1062  159.9865 H   0  0  0  0  0  0  0  0  0  0  0  0  # atno 6909 bound_to 6896
  146.0764  140.6134  142.8929 H   0  0  0  0  0  0  0  0  0  0  0  0  # atno 7974 bound_to 7965
  155.6275  140.0688  157.2659 H   0  0  0  0  0  0  0  0  0  0  0  0  # atno 8008 bound_to 7997
  154.4214  140.1773  156.1485 H   0  0  0  0  0  0  0  0  0  0  0  0  # atno 8009 bound_to 7997
  155.9960  140.3340  155.6802 H   0  0  0  0  0  0  0  0  0  0  0  0  # atno 8010 bound_to 7997
  139.4992  144.6100  151.6292 H   0  0  0  0  0  0  0  0  0  0  0  0  # atno 10167 bound_to 10162
  157.6568  130.9651  150.1133 H   0  0  0  0  0  0  0  0  0  0  0  0  # atno 10718 bound_to 10713
  154.2933  135.2760  155.2644 H   0  0  0  0  0  0  0  0  0  0  0  0  # atno 10763 bound_to 10752
  154.5114  135.5781  153.6611 H   0  0  0  0  0  0  0  0  0  0  0  0  # atno 10764 bound_to 10752
  152.9911  135.6182  154.3099 H   0  0  0  0  0  0  0  0  0  0  0  0  # atno 10765 bound_to 10752
  139.8954  134.8329  156.2668 H   0  0  0  0  0  0  0  0  0  0  0  0  # atno 11005 bound_to 11000
  144.7264  140.4538  143.6970 LP  0  0  0  0  0  0  0  0  0  0  0  0  # atno 17320 bound_to 7965
  145.6299  139.1535  143.2975 LP  0  0  0  0  0  0  0  0  0  0  0  0  # atno 17321 bound_to 7965
  140.5772  144.0008  150.6248 LP  0  0  0  0  0  0  0  0  0  0  0  0  # atno 17342 bound_to 10162
  140.3145  143.3177  152.0846 LP  0  0  0  0  0  0  0  0  0  0  0  0  # atno 17343 bound_to 10162
  156.2024  130.3661  149.8771 LP  0  0  0  0  0  0  0  0  0  0  0  0  # atno 17370 bound_to 10713
  156.6672  130.8805  151.3556 LP  0  0  0  0  0  0  0  0  0  0  0  0  # atno 17371 bound_to 10713
  141.0127  133.7086  156.1137 LP  0  0  0  0  0  0  0  0  0  0  0  0  # atno 17394 bound_to 11000
  140.7345  134.4218  157.5562 LP  0  0  0  0  0  0  0  0  0  0  0  0  # atno 17395 bound_to 11000

$$$$
