AV-unprocessed.smi:2279|AV-procd|sdf|9183|dock5
  -GOLD-   2272012403D 1   1.00000     0.00000
 Structure written by MMmdl.
 58 60  0  0  0  0  0  0  0  0  3 V2000
  152.9352  140.3260  159.6939 C   0  0  0  0  0  0  0  0  0  0  0  0
  152.2480  141.4770  158.9898 C   0  0  0  0  0  0  0  0  0  0  0  0
  152.5519  142.8120  159.3184 C   0  0  0  0  0  0  0  0  0  0  0  0
  151.8774  143.8370  158.6264 C   0  0  0  0  0  0  0  0  0  0  0  0
  152.1547  145.2944  158.9284 C   0  0  0  0  0  0  0  0  0  0  0  0
  150.9577  143.5968  157.6675 N   0  0  0  0  0  0  0  0  0  0  0  0
  150.6570  142.3149  157.3427 C   0  0  0  0  0  0  0  0  0  0  0  0
  149.7064  141.9562  156.3505 N   0  0  0  0  0  0  0  0  0  0  0  0
  149.3855  140.7253  155.9143 C   0  0  0  0  0  0  0  0  0  0  0  0
  149.8825  139.6744  156.3200 O   0  0  0  0  0  0  0  0  0  0  0  0
  148.4396  140.7803  154.9646 N   0  0  0  0  0  0  0  0  0  0  0  0
  147.8586  139.6321  154.2735 C   0  0  2  0  0  0  0  0  0  0  0  0
  147.3431  140.0506  152.8934 C   0  0  0  0  0  0  0  0  0  0  0  0
  146.6521  138.8784  152.1773 C   0  0  0  0  0  0  0  0  0  0  0  0
  145.5300  138.3004  152.9776 N   0  3  1  0  0  0  0  0  0  0  0  0
  144.7870  137.2055  152.2622 C   0  0  2  0  0  0  0  0  0  0  0  0
  143.8048  136.4454  153.1930 C   0  0  0  0  0  0  0  0  0  0  0  0
  143.0989  135.2748  152.4872 C   0  0  0  0  0  0  0  0  0  0  0  0
  144.0787  134.3219  151.9191 N   0  3  1  0  0  0  0  0  0  0  0  0
  143.4317  133.1236  151.3414 C   0  0  0  0  0  0  0  0  0  0  0  0
  144.9840  134.9935  150.9599 C   0  0  0  0  0  0  0  0  0  0  0  0
  145.7383  136.1569  151.6264 C   0  0  0  0  0  0  0  0  0  0  0  0
  146.0070  137.9043  154.3376 C   0  0  0  0  0  0  0  0  0  0  0  0
  146.6894  139.0634  155.0827 C   0  0  0  0  0  0  0  0  0  0  0  0
  151.2878  141.2280  157.9887 C   0  0  0  0  0  0  0  0  0  0  0  0
  153.6476  140.6831  160.4381 H   0  0  0  0  0  0  0  0  0  0  0  0
  153.4746  139.7108  158.9732 H   0  0  0  0  0  0  0  0  0  0  0  0
  152.1997  139.6994  160.1988 H   0  0  0  0  0  0  0  0  0  0  0  0
  153.2820  143.0447  160.0800 H   0  0  0  0  0  0  0  0  0  0  0  0
  152.9063  145.4003  159.7112 H   0  0  0  0  0  0  0  0  0  0  0  0
  151.2438  145.7926  159.2617 H   0  0  0  0  0  0  0  0  0  0  0  0
  152.5188  145.8041  158.0360 H   0  0  0  0  0  0  0  0  0  0  0  0
  149.2144  142.7273  155.9244 H   0  0  0  0  0  0  0  0  0  0  0  0
  148.0941  141.6910  154.6991 H   0  0  0  0  0  0  0  0  0  0  0  0
  148.6033  138.8449  154.1408 H   0  0  0  0  0  0  0  0  0  0  0  0
  146.6415  140.8806  152.9917 H   0  0  0  0  0  0  0  0  0  0  0  0
  148.1700  140.4163  152.2830 H   0  0  0  0  0  0  0  0  0  0  0  0
  146.2966  139.2709  151.2275 H   0  0  0  0  0  0  0  0  0  0  0  0
  147.3784  138.0963  151.9503 H   0  0  0  0  0  0  0  0  0  0  0  0
  144.2076  137.6688  151.4617 H   0  0  0  0  0  0  0  0  0  0  0  0
  144.3380  136.0738  154.0694 H   0  0  0  0  0  0  0  0  0  0  0  0
  143.0174  137.1024  153.5586 H   0  0  0  0  0  0  0  0  0  0  0  0
  142.4576  134.7552  153.2003 H   0  0  0  0  0  0  0  0  0  0  0  0
  142.4502  135.6502  151.6937 H   0  0  0  0  0  0  0  0  0  0  0  0
  142.7901  133.3904  150.5003 H   0  0  0  0  0  0  0  0  0  0  0  0
  142.8216  132.6165  152.0896 H   0  0  0  0  0  0  0  0  0  0  0  0
  144.1805  132.4137  150.9885 H   0  0  0  0  0  0  0  0  0  0  0  0
  145.7027  134.2709  150.5710 H   0  0  0  0  0  0  0  0  0  0  0  0
  144.4088  135.3579  150.1068 H   0  0  0  0  0  0  0  0  0  0  0  0
  146.3587  136.6037  150.8513 H   0  0  0  0  0  0  0  0  0  0  0  0
  146.4162  135.7636  152.3856 H   0  0  0  0  0  0  0  0  0  0  0  0
  145.1801  137.5846  154.9672 H   0  0  0  0  0  0  0  0  0  0  0  0
  146.6913  137.0585  154.2517 H   0  0  0  0  0  0  0  0  0  0  0  0
  147.0441  138.7159  156.0540 H   0  0  0  0  0  0  0  0  0  0  0  0
  145.9571  139.8470  155.2839 H   0  0  0  0  0  0  0  0  0  0  0  0
  151.0402  140.2106  157.7216 H   0  0  0  0  0  0  0  0  0  0  0  0
  144.8690  139.0510  153.1188 H   0  0  0  0  0  0  0  0  0  0  0  0
  144.6507  133.9954  152.6852 H   0  0  0  0  0  0  0  0  0  0  0  0
  1  2  1  0  0  0  0
  1 26  1  0  0  0  0
  1 27  1  0  0  0  0
  1 28  1  0  0  0  0
  2 25  1  0  0  0  0
  2  3  2  0  0  0  0
  3  4  1  0  0  0  0
  3 29  1  0  0  0  0
  4  5  1  0  0  0  0
  4  6  2  0  0  0  0
  5 30  1  0  0  0  0
  5 31  1  0  0  0  0
  5 32  1  0  0  0  0
  6  7  1  0  0  0  0
  7  8  1  0  0  0  0
  7 25  2  0  0  0  0
  8  9  1  0  0  0  0
  8 33  1  0  0  0  0
  9 10  2  0  0  0  0
  9 11  1  0  0  0  0
 11 12  1  0  0  0  0
 11 34  1  0  0  0  0
 12 24  1  0  0  0  0
 12 13  1  0  0  0  0
 12 35  1  0  0  0  0
 13 14  1  0  0  0  0
 13 36  1  0  0  0  0
 13 37  1  0  0  0  0
 14 15  1  0  0  0  0
 14 38  1  0  0  0  0
 14 39  1  0  0  0  0
 15 16  1  0  0  0  0
 15 23  1  0  0  0  0
 15 57  1  0  0  0  0
 16 22  1  0  0  0  0
 16 17  1  0  0  0  0
 16 40  1  0  0  0  0
 17 18  1  0  0  0  0
 17 41  1  0  0  0  0
 17 42  1  0  0  0  0
 18 19  1  0  0  0  0
 18 43  1  0  0  0  0
 18 44  1  0  0  0  0
 19 20  1  0  0  0  0
 19 21  1  0  0  0  0
 19 58  1  0  0  0  0
 20 45  1  0  0  0  0
 20 46  1  0  0  0  0
 20 47  1  0  0  0  0
 21 22  1  0  0  0  0
 21 48  1  0  0  0  0
 21 49  1  0  0  0  0
 22 50  1  0  0  0  0
 22 51  1  0  0  0  0
 23 24  1  0  0  0  0
 23 52  1  0  0  0  0
 23 53  1  0  0  0  0
 24 54  1  0  0  0  0
 24 55  1  0  0  0  0
 25 56  1  0  0  0  0
M  CHG  1  15   1
M  CHG  1  19   1
M  END
> <s_m_source_file>
AV-unprocessed.smi

> <i_m_source_file_index>
2279

> <i_lp_mmshare_version>
43012

> <i_f3d_flags>
0

> <s_epik_input>
W0NIM11jMVtjSF1jKFtDSDNdKW5jKFtjSF0xKVtOSF1DKD1PKVtOSF1bQ0hdMltDSDJdW0NIMl1OKFtDSDJdW0NIMl0yKVtDSF0zW0NIMl1bQ0gyXU4oW0NIM10pW0NIMl1bQ0gyXTM=

> <s_epik_cmdline>
J2VwaWtfcHl0aG9uJywgJy1waCcsICc3LjAnLCAnLXRuJywgJzgnLCAnLW1hJywgJzIwMCcsICctbWV0YWxfYmluZGluZycsICctaW1hZScsICc8aW5maWxlLm1hZT4nLCAnLW9tYWUnLCAnPG91dGZpbGUubWFlPic=

> <r_epik_Ionization_Penalty>
0.180973

> <r_epik_Ionization_Penalty_Charging>
0.180787

> <r_epik_Ionization_Penalty_Neutral>
0.000186186

> <r_epik_State_Penalty>
0.153592

> <r_epik_Charging_Adjusted_Penalty>
0.334379

> <i_epik_Tot_Q>
2

> <i_epik_Tot_abs_Q>
2

> <r_epik_Metal_State_Penalty>
0.153604

> <b_epik_Metal_Only>
0

> <s_lp_Force_Field>
OPLS_2005

> <r_lp_Energy>
41.0771

> <b_lp_Chiralities_Consistent>
1

> <s_lp_Variant>
AV-unprocessed.smi:2279-1

> <Gold.Version>
5.8.1

> <Gold.Id.Protein>
6NUR|6NUR_protein|mol2

> <Gold.PLP.Fitness>
48.6666

> <Gold.PLP.PLP>
-43.4207

> <Gold.PLP.part.hbond>
-2.0000

> <Gold.PLP.part.metal>
0.0000

> <Gold.PLP.part.buried>
-3.0138

> <Gold.PLP.part.nonpolar>
-40.1727

> <Gold.PLP.part.repulsive>
0.6363

> <Gold.PLP.ligand.clash>
2.5762

> <Gold.PLP.ligand.torsion>
0.5918

> <Gold.PLP.Chemscore.Hbond>
2.9913

> <Gold.PLP.Chemscore.CHOScore>
0.0000

> <Gold.PLP.Chemscore.Metal>
0.0000

> <Gold.Chemscore.Hbonds>
donor molecule, donor type, donor heavy atom, donor atom, acceptor molecule, acceptor atom, score
      L1  H     8    33       P1  8028  0.99
      L1  H    15    57       P1 10175  2.00

> <Gold.PLP.Chemscore.Internal.Correction>
0.0319

> <Gold.Rescore>
     Score         DG    S(hbond)    S(metal)    S(lipo)     H(rot)  DE(clash)    DE(int)     intcor
     19.48     -22.38       1.89        0.00     116.96       1.21       0.82       2.08       ----

> <Gold.Chemscore.Fitness>
19.4793

> <Gold.Chemscore.DG>
-22.3820

> <Gold.Chemscore.ZeroCoef>
-5.4800

> <Gold.Chemscore.Hbond>
1.8903

> <Gold.Chemscore.Metal>
0.0000

> <Gold.Chemscore.Lipo>
116.9613

> <Gold.Chemscore.Internal_Hbond>
0.0000

> <Gold.Chemscore.DEClash>
0.8192

> <Gold.Chemscore.DEInternal>
2.0834

> <Gold.Chemscore.Rot>
1.2095

> <Gold.Chemscore.Internal.Correction>
   9.000000E+99

> <Gold.Chemscore.Hbonds>
donor molecule, donor type, donor heavy atom, donor atom, acceptor molecule, acceptor atom, score
      L1  H     8    33       P1  8028  0.89
      L1  H    15    57       P1 10175  0.95

> <Gold.Chemscore.Hbond.Weighted>
-6.3138

> <Gold.Chemscore.Metal.Weighted>
-0.0000

> <Gold.Chemscore.Lipo.Weighted>
-13.6845

> <Gold.Chemscore.Internal_Hbond.Weighted>
0.0000

> <Gold.Chemscore.DEClash.Weighted>
0.8192

> <Gold.Chemscore.DEInternal.Weighted>
2.0834

> <Gold.Chemscore.Rot.Weighted>
3.0963

> <Gold.Chemscore.Internal.Correction.Weighted>
   9.000000E+99

> <Gold.Protein.RotatedTorsions>
[ 6907 6896 6895 6894 ] final  -10.94 input  -60.11 | X-H torsion
[ 7974 7965 7964 7962 ] final  149.21 input  175.53 | X-H torsion
[ 8008 7997 7996 7995 ] final   71.26 input   59.86 | X-H torsion
[ 10167 10162 10161 10158 ] final  -85.77 input  -65.29 | X-H torsion
[ 10718 10713 10712 10709 ] final  -29.51 input   66.30 | X-H torsion
[ 10763 10752 10751 10750 ] final  153.89 input  -60.55 | X-H torsion
[ 11005 11000 10999 10996 ] final  -78.58 input  -57.11 | X-H torsion

> <Gold.Protein.ActiveResidues>
 VAL166  LYS551  ARG553  GLY616  TRP617  ASP618  TYR619  PRO620  LYS621  CYS622 
 ASP623  PHE694  ASN695  SER759  ASP760  ASP761  ALA762  ILE779  LEU786  VAL792 
 PHE793  MET794  SER795  GLU796  ALA797  LYS798  CYS799  TRP800  GLU811  SER814 

> <Gold.Protein.RotatedAtoms>
  151.3940  135.0960  159.9534 H   0  0  0  0  0  0  0  0  0  0  0  0  # atno 6907 bound_to 6896
  152.5071  133.8952  159.7424 H   0  0  0  0  0  0  0  0  0  0  0  0  # atno 6908 bound_to 6896
  150.9412  133.6598  159.2819 H   0  0  0  0  0  0  0  0  0  0  0  0  # atno 6909 bound_to 6896
  144.8455  139.6251  143.5997 H   0  0  0  0  0  0  0  0  0  0  0  0  # atno 7974 bound_to 7965
  155.7513  140.3488  155.5151 H   0  0  0  0  0  0  0  0  0  0  0  0  # atno 8008 bound_to 7997
  155.9002  140.1033  157.1376 H   0  0  0  0  0  0  0  0  0  0  0  0  # atno 8009 bound_to 7997
  154.4043  140.1287  156.4413 H   0  0  0  0  0  0  0  0  0  0  0  0  # atno 8010 bound_to 7997
  140.4006  143.2664  151.9148 H   0  0  0  0  0  0  0  0  0  0  0  0  # atno 10167 bound_to 10162
  156.4115  130.4409  149.7248 H   0  0  0  0  0  0  0  0  0  0  0  0  # atno 10718 bound_to 10713
  154.1434  135.2819  155.3155 H   0  0  0  0  0  0  0  0  0  0  0  0  # atno 10763 bound_to 10752
  154.6270  135.5448  153.7641 H   0  0  0  0  0  0  0  0  0  0  0  0  # atno 10764 bound_to 10752
  153.0243  135.6453  154.1580 H   0  0  0  0  0  0  0  0  0  0  0  0  # atno 10765 bound_to 10752
  141.1665  133.7069  156.7993 H   0  0  0  0  0  0  0  0  0  0  0  0  # atno 11005 bound_to 11000
  146.2740  139.6707  142.9276 LP  0  0  0  0  0  0  0  0  0  0  0  0  # atno 17320 bound_to 7965
  145.4605  141.0432  143.2754 LP  0  0  0  0  0  0  0  0  0  0  0  0  # atno 17321 bound_to 7965
  139.4785  144.5638  151.8198 LP  0  0  0  0  0  0  0  0  0  0  0  0  # atno 17342 bound_to 10162
  140.4744  144.1540  150.5922 LP  0  0  0  0  0  0  0  0  0  0  0  0  # atno 17343 bound_to 10162
  156.4225  130.7776  151.2793 LP  0  0  0  0  0  0  0  0  0  0  0  0  # atno 17370 bound_to 10713
  157.7507  131.0178  150.3602 LP  0  0  0  0  0  0  0  0  0  0  0  0  # atno 17371 bound_to 10713
  140.2268  134.8716  157.3435 LP  0  0  0  0  0  0  0  0  0  0  0  0  # atno 17394 bound_to 11000
  140.1932  134.4346  155.7704 LP  0  0  0  0  0  0  0  0  0  0  0  0  # atno 17395 bound_to 11000

$$$$
