AV-unprocessed.smi:2261|AV-procd|sdf|9136|dock7
  -GOLD-   2272012343D 1   1.00000     0.00000
 Structure written by MMmdl.
 41 42  0  0  0  0  0  0  0  0  1 V2000
  147.0978  141.0026  153.1332 C   0  0  0  0  0  0  0  0  0  0  0  0
  147.9832  140.4025  154.2361 C   0  0  0  0  0  0  0  0  0  0  0  0
  148.4149  138.9698  153.8794 C   0  0  0  0  0  0  0  0  0  0  0  0
  149.1840  141.2969  154.5685 C   0  0  0  0  0  0  0  0  0  0  0  0
  149.3404  141.1258  156.0666 C   0  0  1  0  0  0  0  0  0  0  0  0
  150.0296  142.2670  156.6649 N   0  0  0  0  0  0  0  0  0  0  0  0
  151.2422  142.2296  157.2370 C   0  0  0  0  0  0  0  0  0  0  0  0
  151.9266  141.2101  157.3174 O   0  0  0  0  0  0  0  0  0  0  0  0
  151.7659  143.5483  157.8052 C   0  0  0  0  0  0  0  0  0  0  0  0
  152.2193  143.3580  159.2409 C   0  0  0  0  0  0  0  0  0  0  0  0
  153.0894  142.3057  159.5944 C   0  0  0  0  0  0  0  0  0  0  0  0
  153.4786  142.1707  160.9407 C   0  0  0  0  0  0  0  0  0  0  0  0
  152.9803  143.0966  161.8791 C   0  0  0  0  0  0  0  0  0  0  0  0
  152.1476  144.1083  161.5526 N   0  0  0  0  0  0  0  0  0  0  0  0
  151.7785  144.2304  160.2593 C   0  0  0  0  0  0  0  0  0  0  0  0
  147.8783  140.9576  156.5358 C   0  0  0  0  0  0  0  0  0  0  0  0
  147.7566  140.0250  157.7514 C   0  0  0  0  0  0  0  0  0  0  0  0
  147.1352  142.2858  156.7905 C   0  0  0  0  0  0  0  0  0  0  0  0
  147.2187  140.3279  155.4385 O   0  0  0  0  0  0  0  0  0  0  0  0
  147.6465  141.0992  152.1960 H   0  0  0  0  0  0  0  0  0  0  0  0
  146.7363  141.9931  153.4114 H   0  0  0  0  0  0  0  0  0  0  0  0
  146.2245  140.3775  152.9452 H   0  0  0  0  0  0  0  0  0  0  0  0
  149.0160  138.9535  152.9698 H   0  0  0  0  0  0  0  0  0  0  0  0
  147.5488  138.3278  153.7152 H   0  0  0  0  0  0  0  0  0  0  0  0
  149.0079  138.5207  154.6764 H   0  0  0  0  0  0  0  0  0  0  0  0
  150.0853  141.0293  154.0157 H   0  0  0  0  0  0  0  0  0  0  0  0
  148.9559  142.3381  154.3345 H   0  0  0  0  0  0  0  0  0  0  0  0
  149.9022  140.2069  156.2457 H   0  0  0  0  0  0  0  0  0  0  0  0
  149.5436  143.1516  156.6450 H   0  0  0  0  0  0  0  0  0  0  0  0
  152.5922  143.9206  157.1976 H   0  0  0  0  0  0  0  0  0  0  0  0
  150.9794  144.3029  157.7625 H   0  0  0  0  0  0  0  0  0  0  0  0
  153.4508  141.6123  158.8492 H   0  0  0  0  0  0  0  0  0  0  0  0
  154.1426  141.3764  161.2478 H   0  0  0  0  0  0  0  0  0  0  0  0
  153.2585  143.0224  162.9200 H   0  0  0  0  0  0  0  0  0  0  0  0
  151.1102  145.0478  160.0308 H   0  0  0  0  0  0  0  0  0  0  0  0
  148.2340  140.4558  158.6315 H   0  0  0  0  0  0  0  0  0  0  0  0
  148.2245  139.0593  157.5574 H   0  0  0  0  0  0  0  0  0  0  0  0
  146.7117  139.8387  158.0006 H   0  0  0  0  0  0  0  0  0  0  0  0
  147.5462  142.8180  157.6490 H   0  0  0  0  0  0  0  0  0  0  0  0
  146.0792  142.1077  156.9953 H   0  0  0  0  0  0  0  0  0  0  0  0
  147.1907  142.9503  155.9281 H   0  0  0  0  0  0  0  0  0  0  0  0
  1  2  1  0  0  0  0
  1 20  1  0  0  0  0
  1 21  1  0  0  0  0
  1 22  1  0  0  0  0
  2 19  1  0  0  0  0
  2  3  1  0  0  0  0
  2  4  1  0  0  0  0
  3 23  1  0  0  0  0
  3 24  1  0  0  0  0
  3 25  1  0  0  0  0
  4  5  1  0  0  0  0
  4 26  1  0  0  0  0
  4 27  1  0  0  0  0
  5  6  1  0  0  0  0
  5 16  1  0  0  0  0
  5 28  1  0  0  0  0
  6  7  1  0  0  0  0
  6 29  1  0  0  0  0
  7  8  2  0  0  0  0
  7  9  1  0  0  0  0
  9 10  1  0  0  0  0
  9 30  1  0  0  0  0
  9 31  1  0  0  0  0
 10 15  1  0  0  0  0
 10 11  2  0  0  0  0
 11 12  1  0  0  0  0
 11 32  1  0  0  0  0
 12 13  2  0  0  0  0
 12 33  1  0  0  0  0
 13 14  1  0  0  0  0
 13 34  1  0  0  0  0
 14 15  2  0  0  0  0
 15 35  1  0  0  0  0
 16 17  1  0  0  0  0
 16 18  1  0  0  0  0
 16 19  1  0  0  0  0
 17 36  1  0  0  0  0
 17 37  1  0  0  0  0
 17 38  1  0  0  0  0
 18 39  1  0  0  0  0
 18 40  1  0  0  0  0
 18 41  1  0  0  0  0
M  END
> <s_m_source_file>
AV-unprocessed.smi

> <i_m_source_file_index>
2261

> <i_lp_mmshare_version>
43012

> <i_f3d_flags>
0

> <s_epik_input>
W0NIM11DMShbQ0gzXSlbQ0gyXVtDQEhdKEMoTzEpKFtDSDNdKVtDSDNdKVtOSF1DKD1PKVtDSDJdYzJbY0hdW2NIXVtjSF1uW2NIXTI=

> <s_epik_cmdline>
J2VwaWtfcHl0aG9uJywgJy1waCcsICc3LjAnLCAnLXRuJywgJzgnLCAnLW1hJywgJzIwMCcsICctbWV0YWxfYmluZGluZycsICctaW1hZScsICc8aW5maWxlLm1hZT4nLCAnLW9tYWUnLCAnPG91dGZpbGUubWFlPic=

> <r_epik_Ionization_Penalty>
0.00420617

> <r_epik_Ionization_Penalty_Charging>
0

> <r_epik_Ionization_Penalty_Neutral>
0.00420617

> <r_epik_State_Penalty>
0.0030219

> <r_epik_Charging_Adjusted_Penalty>
0.0030219

> <i_epik_Tot_Q>
0

> <i_epik_Tot_abs_Q>
0

> <r_epik_Metal_State_Penalty>
-0

> <b_epik_Metal_Only>
0

> <s_lp_Force_Field>
OPLS_2005

> <r_lp_Energy>
17.0757

> <b_lp_Chiralities_Consistent>
1

> <s_lp_Variant>
AV-unprocessed.smi:2261-1

> <Gold.Version>
5.8.1

> <Gold.Id.Protein>
6NUR|6NUR_protein|mol2

> <Gold.PLP.Fitness>
40.9949

> <Gold.PLP.PLP>
-38.4485

> <Gold.PLP.part.hbond>
-1.0000

> <Gold.PLP.part.metal>
0.0000

> <Gold.PLP.part.buried>
-3.2793

> <Gold.PLP.part.nonpolar>
-33.3574

> <Gold.PLP.part.repulsive>
0.2647

> <Gold.PLP.ligand.clash>
0.0000

> <Gold.PLP.ligand.torsion>
0.2332

> <Gold.PLP.Chemscore.Hbond>
1.0000

> <Gold.PLP.Chemscore.CHOScore>
0.0000

> <Gold.PLP.Chemscore.Metal>
0.0000

> <Gold.Chemscore.Hbonds>
donor molecule, donor type, donor heavy atom, donor atom, acceptor molecule, acceptor atom, score
      L1  H     6    29       P1  8028  1.00

> <Gold.PLP.Chemscore.Internal.Correction>
0.0129

> <Gold.Rescore>
     Score         DG    S(hbond)    S(metal)    S(lipo)     H(rot)  DE(clash)    DE(int)     intcor
     17.77     -18.45       1.00        0.00     110.41       1.28       0.31       0.36       ----

> <Gold.Chemscore.Fitness>
17.7735

> <Gold.Chemscore.DG>
-18.4465

> <Gold.Chemscore.ZeroCoef>
-5.4800

> <Gold.Chemscore.Hbond>
0.9988

> <Gold.Chemscore.Metal>
0.0000

> <Gold.Chemscore.Lipo>
110.4101

> <Gold.Chemscore.Internal_Hbond>
0.0000

> <Gold.Chemscore.DEClash>
0.3083

> <Gold.Chemscore.DEInternal>
0.3648

> <Gold.Chemscore.Rot>
1.2842

> <Gold.Chemscore.Internal.Correction>
   9.000000E+99

> <Gold.Chemscore.Hbonds>
donor molecule, donor type, donor heavy atom, donor atom, acceptor molecule, acceptor atom, score
      L1  H     6    29       P1  8028  0.94

> <Gold.Chemscore.Hbond.Weighted>
-3.3361

> <Gold.Chemscore.Metal.Weighted>
-0.0000

> <Gold.Chemscore.Lipo.Weighted>
-12.9180

> <Gold.Chemscore.Internal_Hbond.Weighted>
0.0000

> <Gold.Chemscore.DEClash.Weighted>
0.3083

> <Gold.Chemscore.DEInternal.Weighted>
0.3648

> <Gold.Chemscore.Rot.Weighted>
3.2875

> <Gold.Chemscore.Internal.Correction.Weighted>
   9.000000E+99

> <Gold.Protein.RotatedTorsions>
[ 6907 6896 6895 6894 ] final -118.50 input  -60.11 | X-H torsion
[ 7974 7965 7964 7962 ] final   26.54 input  175.53 | X-H torsion
[ 8008 7997 7996 7995 ] final  104.70 input   59.86 | X-H torsion
[ 10167 10162 10161 10158 ] final -123.58 input  -65.29 | X-H torsion
[ 10718 10713 10712 10709 ] final   12.78 input   66.30 | X-H torsion
[ 10763 10752 10751 10750 ] final   45.68 input  -60.55 | X-H torsion
[ 11005 11000 10999 10996 ] final -154.58 input  -57.11 | X-H torsion

> <Gold.Protein.ActiveResidues>
 VAL166  LYS551  ARG553  GLY616  TRP617  ASP618  TYR619  PRO620  LYS621  CYS622 
 ASP623  PHE694  ASN695  SER759  ASP760  ASP761  ALA762  ILE779  LEU786  VAL792 
 PHE793  MET794  SER795  GLU796  ALA797  LYS798  CYS799  TRP800  GLU811  SER814 

> <Gold.Protein.RotatedAtoms>
  150.8225  133.8229  159.3132 H   0  0  0  0  0  0  0  0  0  0  0  0  # atno 6907 bound_to 6896
  151.5983  135.1047  160.0064 H   0  0  0  0  0  0  0  0  0  0  0  0  # atno 6908 bound_to 6896
  152.4313  133.7241  159.6606 H   0  0  0  0  0  0  0  0  0  0  0  0  # atno 6909 bound_to 6896
  146.1832  139.7313  142.8885 H   0  0  0  0  0  0  0  0  0  0  0  0  # atno 7974 bound_to 7965
  156.1596  140.3143  155.8784 H   0  0  0  0  0  0  0  0  0  0  0  0  # atno 8008 bound_to 7997
  155.3810  140.0487  157.3060 H   0  0  0  0  0  0  0  0  0  0  0  0  # atno 8009 bound_to 7997
  154.5133  140.2172  155.9124 H   0  0  0  0  0  0  0  0  0  0  0  0  # atno 8010 bound_to 7997
  140.0019  143.5531  152.2300 H   0  0  0  0  0  0  0  0  0  0  0  0  # atno 10167 bound_to 10162
  157.0152  130.6132  149.5713 H   0  0  0  0  0  0  0  0  0  0  0  0  # atno 10718 bound_to 10713
  152.9821  135.6032  154.3476 H   0  0  0  0  0  0  0  0  0  0  0  0  # atno 10763 bound_to 10752
  154.3168  135.2770  155.2541 H   0  0  0  0  0  0  0  0  0  0  0  0  # atno 10764 bound_to 10752
  154.4726  135.5938  153.6388 H   0  0  0  0  0  0  0  0  0  0  0  0  # atno 10765 bound_to 10752
  140.6958  134.3991  157.5215 H   0  0  0  0  0  0  0  0  0  0  0  0  # atno 11005 bound_to 11000
  145.4016  141.0386  143.3067 LP  0  0  0  0  0  0  0  0  0  0  0  0  # atno 17320 bound_to 7965
  144.8351  139.5564  143.6926 LP  0  0  0  0  0  0  0  0  0  0  0  0  # atno 17321 bound_to 7965
  139.6265  144.7638  151.2627 LP  0  0  0  0  0  0  0  0  0  0  0  0  # atno 17342 bound_to 10162
  140.7415  143.6554  150.8211 LP  0  0  0  0  0  0  0  0  0  0  0  0  # atno 17343 bound_to 10162
  156.0122  130.5214  150.8023 LP  0  0  0  0  0  0  0  0  0  0  0  0  # atno 17370 bound_to 10713
  157.5291  131.0935  150.9979 LP  0  0  0  0  0  0  0  0  0  0  0  0  # atno 17371 bound_to 10713
  139.8910  134.8789  156.2339 LP  0  0  0  0  0  0  0  0  0  0  0  0  # atno 17394 bound_to 11000
  141.0204  133.7044  156.1259 LP  0  0  0  0  0  0  0  0  0  0  0  0  # atno 17395 bound_to 11000

$$$$
