AV-unprocessed.smi:3201|AV-procd|sdf|12238|dock5
  -GOLD-   2272018 73D 1   1.00000     0.00000
 Structure written by MMmdl.
 41 43  0  0  0  0  0  0  0  0  2 V2000
  150.0939  138.1775  157.5478 C   0  0  0  0  0  0  0  0  0  0  0  0
  150.9705  138.1870  156.3370 C   0  0  0  0  0  0  0  0  0  0  0  0
  151.7368  139.1841  155.7949 C   0  0  0  0  0  0  0  0  0  0  0  0
  151.9254  140.5993  156.2681 C   0  0  0  0  0  0  0  0  0  0  0  0
  150.5806  141.2767  156.5623 C   0  0  0  0  0  0  0  0  0  0  0  0
  150.7406  142.7384  156.6996 N   0  3  0  0  0  0  0  0  0  0  0  0
  150.8160  143.2192  158.0966 C   0  0  1  0  0  0  0  0  0  0  0  0
  151.9744  142.5668  158.8876 C   0  0  0  0  0  0  0  0  0  0  0  0
  152.7941  143.7805  159.3617 C   0  0  2  0  0  0  0  0  0  0  0  0
  151.9968  144.5616  160.4227 C   0  0  0  0  0  0  0  0  0  0  0  0
  150.8911  145.2354  159.5878 C   0  0  0  0  0  0  0  0  0  0  0  0
  151.1768  144.7193  158.1644 C   0  0  1  0  0  0  0  0  0  0  0  0
  152.7028  144.7023  158.1522 C   0  0  0  0  0  0  0  0  0  0  0  0
  152.3282  138.5717  154.6540 C   0  0  0  0  0  0  0  0  0  0  0  0
  151.9606  137.3126  154.4988 N   0  0  0  0  0  0  0  0  0  0  0  0
  151.1281  137.0737  155.5327 N   0  0  0  0  0  0  0  0  0  0  0  0
  150.5269  135.7615  155.6721 C   0  0  0  0  0  0  0  0  0  0  0  0
  150.0699  139.1558  158.0275 H   0  0  0  0  0  0  0  0  0  0  0  0
  150.4544  137.4553  158.2805 H   0  0  0  0  0  0  0  0  0  0  0  0
  149.0706  137.9097  157.2835 H   0  0  0  0  0  0  0  0  0  0  0  0
  152.5470  140.6223  157.1639 H   0  0  0  0  0  0  0  0  0  0  0  0
  152.4651  141.1810  155.5197 H   0  0  0  0  0  0  0  0  0  0  0  0
  149.8743  141.0682  155.7576 H   0  0  0  0  0  0  0  0  0  0  0  0
  150.1526  140.8688  157.4788 H   0  0  0  0  0  0  0  0  0  0  0  0
  151.5764  143.0280  156.2122 H   0  0  0  0  0  0  0  0  0  0  0  0
  149.8538  143.0408  158.5797 H   0  0  0  0  0  0  0  0  0  0  0  0
  151.6168  141.9593  159.7198 H   0  0  0  0  0  0  0  0  0  0  0  0
  152.5894  141.9274  158.2523 H   0  0  0  0  0  0  0  0  0  0  0  0
  153.8080  143.5282  159.6736 H   0  0  0  0  0  0  0  0  0  0  0  0
  151.5946  143.9098  161.1991 H   0  0  0  0  0  0  0  0  0  0  0  0
  152.6225  145.3128  160.9068 H   0  0  0  0  0  0  0  0  0  0  0  0
  149.8900  144.9766  159.9346 H   0  0  0  0  0  0  0  0  0  0  0  0
  150.9878  146.3211  159.6322 H   0  0  0  0  0  0  0  0  0  0  0  0
  150.7131  145.3262  157.3858 H   0  0  0  0  0  0  0  0  0  0  0  0
  153.1490  145.6838  158.3221 H   0  0  0  0  0  0  0  0  0  0  0  0
  153.1275  144.2698  157.2445 H   0  0  0  0  0  0  0  0  0  0  0  0
  153.0088  139.0048  153.9359 H   0  0  0  0  0  0  0  0  0  0  0  0
  150.6936  135.3849  156.6817 H   0  0  0  0  0  0  0  0  0  0  0  0
  150.9634  135.0599  154.9596 H   0  0  0  0  0  0  0  0  0  0  0  0
  149.4539  135.8294  155.4894 H   0  0  0  0  0  0  0  0  0  0  0  0
  149.9437  143.1772  156.2606 H   0  0  0  0  0  0  0  0  0  0  0  0
  1  2  1  0  0  0  0
  1 18  1  0  0  0  0
  1 19  1  0  0  0  0
  1 20  1  0  0  0  0
  2 16  1  0  0  0  0
  2  3  2  0  0  0  0
  3  4  1  0  0  0  0
  3 14  1  0  0  0  0
  4  5  1  0  0  0  0
  4 21  1  0  0  0  0
  4 22  1  0  0  0  0
  5  6  1  0  0  0  0
  5 23  1  0  0  0  0
  5 24  1  0  0  0  0
  6  7  1  0  0  0  0
  6 25  1  0  0  0  0
  6 41  1  0  0  0  0
  7 12  1  0  0  0  0
  7  8  1  0  0  0  0
  7 26  1  0  0  0  0
  8  9  1  0  0  0  0
  8 27  1  0  0  0  0
  8 28  1  0  0  0  0
  9 13  1  0  0  0  0
  9 10  1  0  0  0  0
  9 29  1  0  0  0  0
 10 11  1  0  0  0  0
 10 30  1  0  0  0  0
 10 31  1  0  0  0  0
 11 12  1  0  0  0  0
 11 32  1  0  0  0  0
 11 33  1  0  0  0  0
 12 13  1  0  0  0  0
 12 34  1  0  0  0  0
 13 35  1  0  0  0  0
 13 36  1  0  0  0  0
 14 15  2  0  0  0  0
 14 37  1  0  0  0  0
 15 16  1  0  0  0  0
 16 17  1  0  0  0  0
 17 38  1  0  0  0  0
 17 39  1  0  0  0  0
 17 40  1  0  0  0  0
M  CHG  1   6   1
M  END
> <s_m_source_file>
AV-unprocessed.smi

> <i_m_source_file_index>
3201

> <i_lp_mmshare_version>
43012

> <i_f3d_flags>
0

> <s_epik_input>
W0NIM11uMW5bY0hdYyhjMVtDSDNdKVtDSDJdW0NIMl1bTkhdW0NASF0oW0NIMl1bQ0BIXTIzKVtDQEhdKFtDSDJdMylbQ0gyXVtDSDJdMg==

> <s_epik_cmdline>
J2VwaWtfcHl0aG9uJywgJy1waCcsICc3LjAnLCAnLXRuJywgJzgnLCAnLW1hJywgJzIwMCcsICctbWV0YWxfYmluZGluZycsICctaW1hZScsICc8aW5maWxlLm1hZT4nLCAnLW9tYWUnLCAnPG91dGZpbGUubWFlPic=

> <r_lp_tautomer_probability>
1

> <r_epik_Ionization_Penalty>
0.000331174

> <r_epik_Ionization_Penalty_Charging>
0.000242709

> <r_epik_Ionization_Penalty_Neutral>
8.84659e-05

> <r_epik_State_Penalty>
-0

> <r_epik_Charging_Adjusted_Penalty>
0.000242709

> <i_epik_Tot_Q>
1

> <i_epik_Tot_abs_Q>
1

> <r_epik_Metal_State_Penalty>
-0

> <b_epik_Metal_Only>
0

> <s_lp_Force_Field>
OPLS_2005

> <r_lp_Energy>
49.6372

> <b_lp_Chiralities_Consistent>
1

> <s_lp_Variant>
AV-unprocessed.smi:3201-2

> <Gold.Version>
5.8.1

> <Gold.Id.Protein>
6NUR|6NUR_protein|mol2

> <Gold.PLP.Fitness>
49.6864

> <Gold.PLP.PLP>
-41.5768

> <Gold.PLP.part.hbond>
-2.0000

> <Gold.PLP.part.metal>
0.0000

> <Gold.PLP.part.buried>
-6.8239

> <Gold.PLP.part.nonpolar>
-32.7691

> <Gold.PLP.part.repulsive>
0.2114

> <Gold.PLP.ligand.clash>
0.0000

> <Gold.PLP.ligand.torsion>
0.4528

> <Gold.PLP.Chemscore.Hbond>
3.0000

> <Gold.PLP.Chemscore.CHOScore>
0.0000

> <Gold.PLP.Chemscore.Metal>
0.0000

> <Gold.Chemscore.Hbonds>
donor molecule, donor type, donor heavy atom, donor atom, acceptor molecule, acceptor atom, score
      L1  H     6    41       P1  8028  2.00
      P1  H 10752 10765       L1    15  0.94

> <Gold.PLP.Chemscore.Internal.Correction>
0.0151

> <Gold.Rescore>
     Score         DG    S(hbond)    S(metal)    S(lipo)     H(rot)  DE(clash)    DE(int)     intcor
     22.23     -22.66       1.87        0.00     123.14       1.36       0.00       0.43       ----

> <Gold.Chemscore.Fitness>
22.2320

> <Gold.Chemscore.DG>
-22.6645

> <Gold.Chemscore.ZeroCoef>
-5.4800

> <Gold.Chemscore.Hbond>
1.8730

> <Gold.Chemscore.Metal>
0.0000

> <Gold.Chemscore.Lipo>
123.1387

> <Gold.Chemscore.Internal_Hbond>
0.0000

> <Gold.Chemscore.DEClash>
0.0009

> <Gold.Chemscore.DEInternal>
0.4316

> <Gold.Chemscore.Rot>
1.3588

> <Gold.Chemscore.Internal.Correction>
   9.000000E+99

> <Gold.Chemscore.Hbonds>
donor molecule, donor type, donor heavy atom, donor atom, acceptor molecule, acceptor atom, score
      L1  H     6    41       P1  8028  0.96
      P1  H 10752 10765       L1    15  0.45

> <Gold.Chemscore.Hbond.Weighted>
-6.2558

> <Gold.Chemscore.Metal.Weighted>
-0.0000

> <Gold.Chemscore.Lipo.Weighted>
-14.4072

> <Gold.Chemscore.Internal_Hbond.Weighted>
0.0000

> <Gold.Chemscore.DEClash.Weighted>
0.0009

> <Gold.Chemscore.DEInternal.Weighted>
0.4316

> <Gold.Chemscore.Rot.Weighted>
3.4786

> <Gold.Chemscore.Internal.Correction.Weighted>
   9.000000E+99

> <Gold.Protein.RotatedTorsions>
[ 6907 6896 6895 6894 ] final  -73.15 input  -60.11 | X-H torsion
[ 7974 7965 7964 7962 ] final  176.56 input  175.53 | X-H torsion
[ 8008 7997 7996 7995 ] final   27.85 input   59.86 | X-H torsion
[ 10167 10162 10161 10158 ] final -149.34 input  -65.29 | X-H torsion
[ 10718 10713 10712 10709 ] final  177.75 input   66.30 | X-H torsion
[ 10763 10752 10751 10750 ] final  160.95 input  -60.55 | X-H torsion
[ 11005 11000 10999 10996 ] final -178.16 input  -57.11 | X-H torsion

> <Gold.Protein.ActiveResidues>
 VAL166  LYS551  ARG553  GLY616  TRP617  ASP618  TYR619  PRO620  LYS621  CYS622 
 ASP623  PHE694  ASN695  SER759  ASP760  ASP761  ALA762  ILE779  LEU786  VAL792 
 PHE793  MET794  SER795  GLU796  ALA797  LYS798  CYS799  TRP800  GLU811  SER814 

> <Gold.Protein.RotatedAtoms>
  150.7141  134.5058  159.5582 H   0  0  0  0  0  0  0  0  0  0  0  0  # atno 6907 bound_to 6896
  152.2645  134.7996  160.0434 H   0  0  0  0  0  0  0  0  0  0  0  0  # atno 6908 bound_to 6896
  151.8697  133.3438  159.3767 H   0  0  0  0  0  0  0  0  0  0  0  0  # atno 6909 bound_to 6896
  144.7182  140.0116  143.6440 H   0  0  0  0  0  0  0  0  0  0  0  0  # atno 7974 bound_to 7965
  155.0494  140.3178  155.4697 H   0  0  0  0  0  0  0  0  0  0  0  0  # atno 8008 bound_to 7997
  156.2837  140.2148  156.5564 H   0  0  0  0  0  0  0  0  0  0  0  0  # atno 8009 bound_to 7997
  154.7223  140.0488  157.0638 H   0  0  0  0  0  0  0  0  0  0  0  0  # atno 8010 bound_to 7997
  139.7451  143.8603  152.2572 H   0  0  0  0  0  0  0  0  0  0  0  0  # atno 10167 bound_to 10162
  156.9007  130.9878  151.3036 H   0  0  0  0  0  0  0  0  0  0  0  0  # atno 10718 bound_to 10713
  154.2553  135.2770  155.2800 H   0  0  0  0  0  0  0  0  0  0  0  0  # atno 10763 bound_to 10752
  154.5430  135.5697  153.6859 H   0  0  0  0  0  0  0  0  0  0  0  0  # atno 10764 bound_to 10752
  152.9972  135.6255  154.2702 H   0  0  0  0  0  0  0  0  0  0  0  0  # atno 10765 bound_to 10752
  140.4328  134.6503  157.4720 H   0  0  0  0  0  0  0  0  0  0  0  0  # atno 11005 bound_to 11000
  146.0254  139.3287  143.0787 LP  0  0  0  0  0  0  0  0  0  0  0  0  # atno 17320 bound_to 7965
  145.8518  140.9525  143.0746 LP  0  0  0  0  0  0  0  0  0  0  0  0  # atno 17321 bound_to 7965
  139.8565  144.7138  150.9151 LP  0  0  0  0  0  0  0  0  0  0  0  0  # atno 17342 bound_to 10162
  140.7791  143.3854  151.1403 LP  0  0  0  0  0  0  0  0  0  0  0  0  # atno 17343 bound_to 10162
  157.6028  130.8525  149.8828 LP  0  0  0  0  0  0  0  0  0  0  0  0  # atno 17370 bound_to 10713
  156.0583  130.3704  150.1040 LP  0  0  0  0  0  0  0  0  0  0  0  0  # atno 17371 bound_to 10713
  140.0122  134.6673  155.9363 LP  0  0  0  0  0  0  0  0  0  0  0  0  # atno 17394 bound_to 11000
  141.1738  133.6539  156.4751 LP  0  0  0  0  0  0  0  0  0  0  0  0  # atno 17395 bound_to 11000

$$$$
