AV-unprocessed.smi:2496|AV-procd|sdf|9825|dock4
  -GOLD-   2272013453D 1   1.00000     0.00000
 Structure written by MMmdl.
 40 40  0  0  0  0  0  0  0  0  1 V2000
  152.1774  139.5802  156.1560 C   0  0  0  0  0  0  0  0  0  0  0  0
  150.9330  140.0529  155.4599 C   0  0  0  0  0  0  0  0  0  0  0  0
  150.7541  139.7520  154.1834 N   0  0  0  0  0  0  0  0  0  0  0  0
  149.5774  140.3239  153.8798 N   0  0  0  0  0  0  0  0  0  0  0  0
  149.0062  140.9858  154.9409 C   0  0  0  0  0  0  0  0  0  0  0  0
  147.7011  141.6979  154.8031 C   0  0  0  0  0  0  0  0  0  0  0  0
  149.8622  140.8297  156.0019 C   0  0  0  0  0  0  0  0  0  0  0  0
  149.7523  141.3520  157.4200 C   0  0  2  0  0  0  0  0  0  0  0  0
  148.4119  142.0671  157.6746 C   0  0  0  0  0  0  0  0  0  0  0  0
  150.9730  142.2312  157.7313 C   0  0  0  0  0  0  0  0  0  0  0  0
  151.2144  143.2347  157.0594 O   0  0  0  0  0  0  0  0  0  0  0  0
  151.7420  141.8222  158.7564 N   0  0  0  0  0  0  0  0  0  0  0  0
  152.9955  142.4190  159.2261 C   0  0  2  0  0  0  0  0  0  0  0  0
  153.8799  141.3586  159.9137 C   0  0  0  0  0  0  0  0  0  0  0  0
  152.7603  143.6990  160.0783 C   0  0  0  0  0  0  0  0  0  0  0  0
  152.2647  143.3743  161.5015 C   0  0  0  0  0  0  0  0  0  0  0  0
  151.7790  144.6738  159.4034 C   0  0  0  0  0  0  0  0  0  0  0  0
  149.1807  140.2592  152.9532 H   0  0  0  0  0  0  0  0  0  0  0  0
  152.7934  140.4250  156.4643 H   0  0  0  0  0  0  0  0  0  0  0  0
  152.7863  138.9439  155.5126 H   0  0  0  0  0  0  0  0  0  0  0  0
  151.9300  139.0054  157.0485 H   0  0  0  0  0  0  0  0  0  0  0  0
  147.7243  142.6593  155.3157 H   0  0  0  0  0  0  0  0  0  0  0  0
  146.8915  141.1055  155.2291 H   0  0  0  0  0  0  0  0  0  0  0  0
  147.4636  141.8863  153.7559 H   0  0  0  0  0  0  0  0  0  0  0  0
  149.7932  140.5196  158.1236 H   0  0  0  0  0  0  0  0  0  0  0  0
  148.2849  142.9433  157.0390 H   0  0  0  0  0  0  0  0  0  0  0  0
  148.3338  142.3988  158.7107 H   0  0  0  0  0  0  0  0  0  0  0  0
  147.5733  141.3972  157.4834 H   0  0  0  0  0  0  0  0  0  0  0  0
  151.4483  140.9845  159.2373 H   0  0  0  0  0  0  0  0  0  0  0  0
  153.5163  142.7226  158.3172 H   0  0  0  0  0  0  0  0  0  0  0  0
  154.9008  141.7151  160.0471 H   0  0  0  0  0  0  0  0  0  0  0  0
  153.9389  140.4491  159.3149 H   0  0  0  0  0  0  0  0  0  0  0  0
  153.4955  141.0854  160.8967 H   0  0  0  0  0  0  0  0  0  0  0  0
  153.7100  144.2250  160.1803 H   0  0  0  0  0  0  0  0  0  0  0  0
  151.3333  142.8080  161.4755 H   0  0  0  0  0  0  0  0  0  0  0  0
  152.0823  144.2857  162.0713 H   0  0  0  0  0  0  0  0  0  0  0  0
  152.9930  142.7911  162.0647 H   0  0  0  0  0  0  0  0  0  0  0  0
  150.8174  144.1978  159.2097 H   0  0  0  0  0  0  0  0  0  0  0  0
  152.1667  145.0462  158.4555 H   0  0  0  0  0  0  0  0  0  0  0  0
  151.5958  145.5452  160.0328 H   0  0  0  0  0  0  0  0  0  0  0  0
  1  2  1  0  0  0  0
  1 19  1  0  0  0  0
  1 20  1  0  0  0  0
  1 21  1  0  0  0  0
  2  7  1  0  0  0  0
  2  3  2  0  0  0  0
  3  4  1  0  0  0  0
  4 18  1  0  0  0  0
  4  5  1  0  0  0  0
  5  6  1  0  0  0  0
  5  7  2  0  0  0  0
  6 22  1  0  0  0  0
  6 23  1  0  0  0  0
  6 24  1  0  0  0  0
  7  8  1  0  0  0  0
  8  9  1  0  0  0  0
  8 10  1  0  0  0  0
  8 25  1  0  0  0  0
  9 26  1  0  0  0  0
  9 27  1  0  0  0  0
  9 28  1  0  0  0  0
 10 11  2  0  0  0  0
 10 12  1  0  0  0  0
 12 13  1  0  0  0  0
 12 29  1  0  0  0  0
 13 14  1  0  0  0  0
 13 15  1  0  0  0  0
 13 30  1  0  0  0  0
 14 31  1  0  0  0  0
 14 32  1  0  0  0  0
 14 33  1  0  0  0  0
 15 16  1  0  0  0  0
 15 17  1  0  0  0  0
 15 34  1  0  0  0  0
 16 35  1  0  0  0  0
 16 36  1  0  0  0  0
 16 37  1  0  0  0  0
 17 38  1  0  0  0  0
 17 39  1  0  0  0  0
 17 40  1  0  0  0  0
M  END
> <s_m_source_file>
AV-unprocessed.smi

> <i_m_source_file_index>
2496

> <i_lp_mmshare_version>
43012

> <i_f3d_flags>
0

> <s_epik_input>
W0NIM11jMW5bbkhdYyhbQ0gzXSljMVtDQEhdKFtDSDNdKUMoPU8pW05IXVtDQEhdKFtDSDNdKVtDSF0oW0NIM10pW0NIM10=

> <s_epik_cmdline>
J2VwaWtfcHl0aG9uJywgJy1waCcsICc3LjAnLCAnLXRuJywgJzgnLCAnLW1hJywgJzIwMCcsICctbWV0YWxfYmluZGluZycsICctaW1hZScsICc8aW5maWxlLm1hZT4nLCAnLW9tYWUnLCAnPG91dGZpbGUubWFlPic=

> <r_lp_tautomer_probability>
1

> <r_epik_Ionization_Penalty>
0.000456212

> <r_epik_Ionization_Penalty_Charging>
0

> <r_epik_Ionization_Penalty_Neutral>
0.000456212

> <r_epik_State_Penalty>
-0

> <r_epik_Charging_Adjusted_Penalty>
0

> <i_epik_Tot_Q>
0

> <i_epik_Tot_abs_Q>
0

> <r_epik_Metal_State_Penalty>
-0

> <b_epik_Metal_Only>
0

> <s_lp_Force_Field>
OPLS_2005

> <r_lp_Energy>
1.67244

> <b_lp_Chiralities_Consistent>
1

> <s_lp_Variant>
AV-unprocessed.smi:2496-1

> <Gold.Version>
5.8.1

> <Gold.Id.Protein>
6NUR|6NUR_protein|mol2

> <Gold.PLP.Fitness>
41.8129

> <Gold.PLP.PLP>
-37.8218

> <Gold.PLP.part.hbond>
-2.0000

> <Gold.PLP.part.metal>
0.0000

> <Gold.PLP.part.buried>
-4.6865

> <Gold.PLP.part.nonpolar>
-32.6841

> <Gold.PLP.part.repulsive>
2.1086

> <Gold.PLP.ligand.clash>
0.6271

> <Gold.PLP.ligand.torsion>
0.4825

> <Gold.PLP.Chemscore.Hbond>
1.8000

> <Gold.PLP.Chemscore.CHOScore>
0.0000

> <Gold.PLP.Chemscore.Metal>
0.0000

> <Gold.Chemscore.Hbonds>
donor molecule, donor type, donor heavy atom, donor atom, acceptor molecule, acceptor atom, score
      L1  H     4    18       P1  7957  0.86
      P1  H  7989  7998       L1     3  0.75

> <Gold.PLP.Chemscore.Internal.Correction>
0.1833

> <Gold.Rescore>
     Score         DG    S(hbond)    S(metal)    S(lipo)     H(rot)  DE(clash)    DE(int)     intcor
     14.04     -15.85       0.97        0.00      93.10       1.47       0.21       1.60       ----

> <Gold.Chemscore.Fitness>
14.0418

> <Gold.Chemscore.DG>
-15.8527

> <Gold.Chemscore.ZeroCoef>
-5.4800

> <Gold.Chemscore.Hbond>
0.9679

> <Gold.Chemscore.Metal>
0.0000

> <Gold.Chemscore.Lipo>
93.1040

> <Gold.Chemscore.Internal_Hbond>
0.0000

> <Gold.Chemscore.DEClash>
0.2130

> <Gold.Chemscore.DEInternal>
1.5978

> <Gold.Chemscore.Rot>
1.4662

> <Gold.Chemscore.Internal.Correction>
   9.000000E+99

> <Gold.Chemscore.Hbonds>
donor molecule, donor type, donor heavy atom, donor atom, acceptor molecule, acceptor atom, score
      L1  H     4    18       P1  7957  0.85
      P1  H  7989  7998       L1     3  0.03

> <Gold.Chemscore.Hbond.Weighted>
-3.2329

> <Gold.Chemscore.Metal.Weighted>
-0.0000

> <Gold.Chemscore.Lipo.Weighted>
-10.8932

> <Gold.Chemscore.Internal_Hbond.Weighted>
0.0000

> <Gold.Chemscore.DEClash.Weighted>
0.2130

> <Gold.Chemscore.DEInternal.Weighted>
1.5978

> <Gold.Chemscore.Rot.Weighted>
3.7534

> <Gold.Chemscore.Internal.Correction.Weighted>
   9.000000E+99

> <Gold.Protein.RotatedTorsions>
[ 6907 6896 6895 6894 ] final -164.09 input  -60.11 | X-H torsion
[ 7974 7965 7964 7962 ] final    8.83 input  175.53 | X-H torsion
[ 8008 7997 7996 7995 ] final  160.64 input   59.86 | X-H torsion
[ 10167 10162 10161 10158 ] final  -59.47 input  -65.29 | X-H torsion
[ 10718 10713 10712 10709 ] final   21.38 input   66.30 | X-H torsion
[ 10763 10752 10751 10750 ] final  -70.41 input  -60.55 | X-H torsion
[ 11005 11000 10999 10996 ] final  -90.66 input  -57.11 | X-H torsion

> <Gold.Protein.ActiveResidues>
 VAL166  LYS551  ARG553  GLY616  TRP617  ASP618  TYR619  PRO620  LYS621  CYS622 
 ASP623  PHE694  ASN695  SER759  ASP760  ASP761  ALA762  ILE779  LEU786  VAL792 
 PHE793  MET794  SER795  GLU796  ALA797  LYS798  CYS799  TRP800  GLU811  SER814 

> <Gold.Protein.RotatedAtoms>
  151.4064  133.3741  159.2738 H   0  0  0  0  0  0  0  0  0  0  0  0  # atno 6907 bound_to 6896
  150.9395  134.8807  159.7614 H   0  0  0  0  0  0  0  0  0  0  0  0  # atno 6908 bound_to 6896
  152.5065  134.4013  159.9470 H   0  0  0  0  0  0  0  0  0  0  0  0  # atno 6909 bound_to 6896
  146.2411  139.9874  142.8429 H   0  0  0  0  0  0  0  0  0  0  0  0  # atno 7974 bound_to 7965
  156.2159  140.1799  156.7591 H   0  0  0  0  0  0  0  0  0  0  0  0  # atno 8008 bound_to 7997
  154.5790  140.0669  156.9106 H   0  0  0  0  0  0  0  0  0  0  0  0  # atno 8009 bound_to 7997
  155.2536  140.3330  155.4282 H   0  0  0  0  0  0  0  0  0  0  0  0  # atno 8010 bound_to 7997
  140.6133  143.2394  151.5658 H   0  0  0  0  0  0  0  0  0  0  0  0  # atno 10167 bound_to 10162
  157.1377  130.6619  149.5971 H   0  0  0  0  0  0  0  0  0  0  0  0  # atno 10718 bound_to 10713
  154.4172  135.5995  153.5988 H   0  0  0  0  0  0  0  0  0  0  0  0  # atno 10763 bound_to 10752
  152.9792  135.5943  154.3999 H   0  0  0  0  0  0  0  0  0  0  0  0  # atno 10764 bound_to 10752
  154.3819  135.2841  155.2184 H   0  0  0  0  0  0  0  0  0  0  0  0  # atno 10765 bound_to 10752
  141.1561  133.7706  156.9769 H   0  0  0  0  0  0  0  0  0  0  0  0  # atno 11005 bound_to 11000
  145.1535  140.9635  143.4419 LP  0  0  0  0  0  0  0  0  0  0  0  0  # atno 17320 bound_to 7965
  145.0183  139.3447  143.6085 LP  0  0  0  0  0  0  0  0  0  0  0  0  # atno 17321 bound_to 7965
  139.5378  144.2732  152.1288 LP  0  0  0  0  0  0  0  0  0  0  0  0  # atno 17342 bound_to 10162
  140.1936  144.4728  150.6466 LP  0  0  0  0  0  0  0  0  0  0  0  0  # atno 17343 bound_to 10162
  155.9795  130.4788  150.6717 LP  0  0  0  0  0  0  0  0  0  0  0  0  # atno 17370 bound_to 10713
  157.4335  131.0852  151.1015 LP  0  0  0  0  0  0  0  0  0  0  0  0  # atno 17371 bound_to 10713
  140.1092  134.9487  157.2039 LP  0  0  0  0  0  0  0  0  0  0  0  0  # atno 17394 bound_to 11000
  140.3216  134.2909  155.7245 LP  0  0  0  0  0  0  0  0  0  0  0  0  # atno 17395 bound_to 11000

$$$$
