AV-unprocessed.smi:2547|AV-procd|sdf|10002|dock5
  -GOLD-   2272014 53D 1   1.00000     0.00000
 Structure written by MMmdl.
 44 45  0  0  0  0  0  0  0  0  2 V2000
  147.9307  135.9120  155.2251 C   0  0  0  0  0  0  0  0  0  0  0  0
  148.9396  136.8419  154.6743 N   0  3  2  0  0  0  0  0  0  0  0  0
  150.2474  136.7317  155.3672 C   0  0  0  0  0  0  0  0  0  0  0  0
  151.3113  137.6157  154.6906 C   0  0  0  0  0  0  0  0  0  0  0  0
  150.8625  139.0845  154.5874 C   0  0  2  0  0  0  0  0  0  0  0  0
  150.8754  139.7179  155.9059 N   0  0  0  0  0  0  0  0  0  0  0  0
  151.9324  139.7676  156.7302 C   0  0  0  0  0  0  0  0  0  0  0  0
  153.0305  139.2846  156.4523 O   0  0  0  0  0  0  0  0  0  0  0  0
  151.6286  140.4074  157.8735 N   0  0  0  0  0  0  0  0  0  0  0  0
  152.4758  140.6659  158.9839 C   0  0  0  0  0  0  0  0  0  0  0  0
  153.5589  139.7752  159.1344 C   0  0  0  0  0  0  0  0  0  0  0  0
  154.4502  139.9546  160.2072 C   0  0  0  0  0  0  0  0  0  0  0  0
  154.2368  141.0188  161.1012 C   0  0  0  0  0  0  0  0  0  0  0  0
  153.1306  141.8771  160.8929 C   0  0  0  0  0  0  0  0  0  0  0  0
  152.8629  142.9634  161.7568 N   0  0  0  0  0  0  0  0  0  0  0  0
  152.0799  144.0967  161.2736 C   0  0  0  0  0  0  0  0  0  0  0  0
  153.4644  143.0091  163.0836 C   0  0  0  0  0  0  0  0  0  0  0  0
  152.2821  141.6867  159.8533 N   0  0  0  0  0  0  0  0  0  0  0  0
  149.4704  139.1594  153.9274 C   0  0  0  0  0  0  0  0  0  0  0  0
  148.4509  138.2422  154.6261 C   0  0  0  0  0  0  0  0  0  0  0  0
  147.7024  136.1526  156.2644 H   0  0  0  0  0  0  0  0  0  0  0  0
  148.2908  134.8837  155.1827 H   0  0  0  0  0  0  0  0  0  0  0  0
  147.0053  135.9631  154.6503 H   0  0  0  0  0  0  0  0  0  0  0  0
  150.1306  137.0128  156.4149 H   0  0  0  0  0  0  0  0  0  0  0  0
  150.5799  135.6929  155.3549 H   0  0  0  0  0  0  0  0  0  0  0  0
  152.2569  137.5453  155.2297 H   0  0  0  0  0  0  0  0  0  0  0  0
  151.5062  137.2315  153.6883 H   0  0  0  0  0  0  0  0  0  0  0  0
  151.5799  139.6119  153.9557 H   0  0  0  0  0  0  0  0  0  0  0  0
  150.0121  140.1365  156.2197 H   0  0  0  0  0  0  0  0  0  0  0  0
  150.6835  140.7494  157.9618 H   0  0  0  0  0  0  0  0  0  0  0  0
  153.7098  138.9622  158.4392 H   0  0  0  0  0  0  0  0  0  0  0  0
  155.2865  139.2847  160.3429 H   0  0  0  0  0  0  0  0  0  0  0  0
  154.9214  141.1537  161.9248 H   0  0  0  0  0  0  0  0  0  0  0  0
  152.5920  144.5910  160.4476 H   0  0  0  0  0  0  0  0  0  0  0  0
  151.9211  144.8352  162.0594 H   0  0  0  0  0  0  0  0  0  0  0  0
  151.1002  143.7672  160.9259 H   0  0  0  0  0  0  0  0  0  0  0  0
  154.5518  142.9697  163.0138 H   0  0  0  0  0  0  0  0  0  0  0  0
  153.1216  142.1696  163.6891 H   0  0  0  0  0  0  0  0  0  0  0  0
  153.1983  143.9268  163.6084 H   0  0  0  0  0  0  0  0  0  0  0  0
  149.1031  140.1863  153.9151 H   0  0  0  0  0  0  0  0  0  0  0  0
  149.5564  138.8613  152.8816 H   0  0  0  0  0  0  0  0  0  0  0  0
  147.5032  138.2792  154.0876 H   0  0  0  0  0  0  0  0  0  0  0  0
  148.2525  138.5974  155.6386 H   0  0  0  0  0  0  0  0  0  0  0  0
  149.0961  136.5593  153.7172 H   0  0  0  0  0  0  0  0  0  0  0  0
  1  2  1  0  0  0  0
  1 21  1  0  0  0  0
  1 22  1  0  0  0  0
  1 23  1  0  0  0  0
  2 20  1  0  0  0  0
  2  3  1  0  0  0  0
  2 44  1  0  0  0  0
  3  4  1  0  0  0  0
  3 24  1  0  0  0  0
  3 25  1  0  0  0  0
  4  5  1  0  0  0  0
  4 26  1  0  0  0  0
  4 27  1  0  0  0  0
  5  6  1  0  0  0  0
  5 19  1  0  0  0  0
  5 28  1  0  0  0  0
  6  7  1  0  0  0  0
  6 29  1  0  0  0  0
  7  8  2  0  0  0  0
  7  9  1  0  0  0  0
  9 10  1  0  0  0  0
  9 30  1  0  0  0  0
 10 18  1  0  0  0  0
 10 11  2  0  0  0  0
 11 12  1  0  0  0  0
 11 31  1  0  0  0  0
 12 13  2  0  0  0  0
 12 32  1  0  0  0  0
 13 14  1  0  0  0  0
 13 33  1  0  0  0  0
 14 15  1  0  0  0  0
 14 18  2  0  0  0  0
 15 16  1  0  0  0  0
 15 17  1  0  0  0  0
 16 34  1  0  0  0  0
 16 35  1  0  0  0  0
 16 36  1  0  0  0  0
 17 37  1  0  0  0  0
 17 38  1  0  0  0  0
 17 39  1  0  0  0  0
 19 20  1  0  0  0  0
 19 40  1  0  0  0  0
 19 41  1  0  0  0  0
 20 42  1  0  0  0  0
 20 43  1  0  0  0  0
M  CHG  1   2   1
M  END
> <s_m_source_file>
AV-unprocessed.smi

> <i_m_source_file_index>
2547

> <i_lp_mmshare_version>
43012

> <i_f3d_flags>
0

> <s_epik_input>
W0NIM11OMVtDSDJdW0NIMl1bQ0hdKFtDSDJdW0NIMl0xKVtOSF1DKD1PKVtOSF1jMltjSF1bY0hdW2NIXWMobjIpTihbQ0gzXSlbQ0gzXQ==

> <s_epik_cmdline>
J2VwaWtfcHl0aG9uJywgJy1waCcsICc3LjAnLCAnLXRuJywgJzgnLCAnLW1hJywgJzIwMCcsICctbWV0YWxfYmluZGluZycsICctaW1hZScsICc8aW5maWxlLm1hZT4nLCAnLW9tYWUnLCAnPG91dGZpbGUubWFlPic=

> <r_lp_tautomer_probability>
1

> <r_epik_Ionization_Penalty>
0.0212039

> <r_epik_Ionization_Penalty_Charging>
0.00366825

> <r_epik_Ionization_Penalty_Neutral>
0.0175357

> <r_epik_State_Penalty>
0.0137702

> <r_epik_Charging_Adjusted_Penalty>
0.0174385

> <i_epik_Tot_Q>
1

> <i_epik_Tot_abs_Q>
1

> <r_epik_Metal_State_Penalty>
0.0148742

> <b_epik_Metal_Only>
0

> <s_lp_Force_Field>
OPLS_2005

> <r_lp_Energy>
18.1173

> <b_lp_Chiralities_Consistent>
1

> <s_lp_Variant>
AV-unprocessed.smi:2547-2

> <Gold.Version>
5.8.1

> <Gold.Id.Protein>
6NUR|6NUR_protein|mol2

> <Gold.PLP.Fitness>
48.3965

> <Gold.PLP.PLP>
-40.0572

> <Gold.PLP.part.hbond>
-2.0000

> <Gold.PLP.part.metal>
0.0000

> <Gold.PLP.part.buried>
-4.2005

> <Gold.PLP.part.nonpolar>
-34.2709

> <Gold.PLP.part.repulsive>
0.1649

> <Gold.PLP.ligand.clash>
0.0000

> <Gold.PLP.ligand.torsion>
0.3380

> <Gold.PLP.Chemscore.Hbond>
3.0000

> <Gold.PLP.Chemscore.CHOScore>
0.0000

> <Gold.PLP.Chemscore.Metal>
0.0000

> <Gold.Chemscore.Hbonds>
donor molecule, donor type, donor heavy atom, donor atom, acceptor molecule, acceptor atom, score
      L1  H     2    44       P1  7948  2.00
      P1  H  7997  8009       L1     8  1.00

> <Gold.PLP.Chemscore.Internal.Correction>
0.0153

> <Gold.Rescore>
     Score         DG    S(hbond)    S(metal)    S(lipo)     H(rot)  DE(clash)    DE(int)     intcor
     15.08     -19.47       2.00        0.00      84.51       1.00       1.81       2.58       ----

> <Gold.Chemscore.Fitness>
15.0780

> <Gold.Chemscore.DG>
-19.4743

> <Gold.Chemscore.ZeroCoef>
-5.4800

> <Gold.Chemscore.Hbond>
1.9960

> <Gold.Chemscore.Metal>
0.0000

> <Gold.Chemscore.Lipo>
84.5098

> <Gold.Chemscore.Internal_Hbond>
0.0000

> <Gold.Chemscore.DEClash>
1.8130

> <Gold.Chemscore.DEInternal>
2.5832

> <Gold.Chemscore.Rot>
1.0000

> <Gold.Chemscore.Internal.Correction>
   9.000000E+99

> <Gold.Chemscore.Hbonds>
donor molecule, donor type, donor heavy atom, donor atom, acceptor molecule, acceptor atom, score
      L1  H     2    44       P1  7948  0.99
      P1  H  7997  8009       L1     8  0.95

> <Gold.Chemscore.Hbond.Weighted>
-6.6666

> <Gold.Chemscore.Metal.Weighted>
-0.0000

> <Gold.Chemscore.Lipo.Weighted>
-9.8876

> <Gold.Chemscore.Internal_Hbond.Weighted>
0.0000

> <Gold.Chemscore.DEClash.Weighted>
1.8130

> <Gold.Chemscore.DEInternal.Weighted>
2.5832

> <Gold.Chemscore.Rot.Weighted>
2.5600

> <Gold.Chemscore.Internal.Correction.Weighted>
   9.000000E+99

> <Gold.Protein.RotatedTorsions>
[ 6907 6896 6895 6894 ] final -179.55 input  -60.11 | X-H torsion
[ 7974 7965 7964 7962 ] final -102.98 input  175.53 | X-H torsion
[ 8008 7997 7996 7995 ] final -178.67 input   59.86 | X-H torsion
[ 10167 10162 10161 10158 ] final   59.09 input  -65.29 | X-H torsion
[ 10718 10713 10712 10709 ] final  -69.10 input   66.30 | X-H torsion
[ 10763 10752 10751 10750 ] final  136.81 input  -60.55 | X-H torsion
[ 11005 11000 10999 10996 ] final  -17.81 input  -57.11 | X-H torsion

> <Gold.Protein.ActiveResidues>
 VAL166  LYS551  ARG553  GLY616  TRP617  ASP618  TYR619  PRO620  LYS621  CYS622 
 ASP623  PHE694  ASN695  SER759  ASP760  ASP761  ALA762  ILE779  LEU786  VAL792 
 PHE793  MET794  SER795  GLU796  ALA797  LYS798  CYS799  TRP800  GLU811  SER814 

> <Gold.Protein.RotatedAtoms>
  151.6553  133.3319  159.3161 H   0  0  0  0  0  0  0  0  0  0  0  0  # atno 6907 bound_to 6896
  150.7940  134.6990  159.6548 H   0  0  0  0  0  0  0  0  0  0  0  0  # atno 6908 bound_to 6896
  152.4024  134.6267  160.0116 H   0  0  0  0  0  0  0  0  0  0  0  0  # atno 6909 bound_to 6896
  145.2618  140.9271  143.3036 H   0  0  0  0  0  0  0  0  0  0  0  0  # atno 7974 bound_to 7965
  156.0215  140.1262  157.0352 H   0  0  0  0  0  0  0  0  0  0  0  0  # atno 8008 bound_to 7997
  154.4313  140.1067  156.6040 H   0  0  0  0  0  0  0  0  0  0  0  0  # atno 8009 bound_to 7997
  155.5938  140.3469  155.4576 H   0  0  0  0  0  0  0  0  0  0  0  0  # atno 8010 bound_to 7997
  140.1802  144.4190  150.6619 H   0  0  0  0  0  0  0  0  0  0  0  0  # atno 10167 bound_to 10162
  156.0472  130.4306  150.2098 H   0  0  0  0  0  0  0  0  0  0  0  0  # atno 10718 bound_to 10713
  153.8627  135.3065  155.3438 H   0  0  0  0  0  0  0  0  0  0  0  0  # atno 10763 bound_to 10752
  154.7841  135.4819  153.9912 H   0  0  0  0  0  0  0  0  0  0  0  0  # atno 10764 bound_to 10752
  153.1452  135.6832  153.9060 H   0  0  0  0  0  0  0  0  0  0  0  0  # atno 10765 bound_to 10752
  140.8206  133.8071  155.9655 H   0  0  0  0  0  0  0  0  0  0  0  0  # atno 11005 bound_to 11000
  144.9412  139.4187  143.6448 LP  0  0  0  0  0  0  0  0  0  0  0  0  # atno 17320 bound_to 7965
  146.3273  139.8372  142.8897 LP  0  0  0  0  0  0  0  0  0  0  0  0  # atno 17321 bound_to 7965
  140.6525  143.2228  151.6045 LP  0  0  0  0  0  0  0  0  0  0  0  0  # atno 17342 bound_to 10162
  139.5299  144.2946  152.1124 LP  0  0  0  0  0  0  0  0  0  0  0  0  # atno 17343 bound_to 10162
  157.0186  130.9972  151.3346 LP  0  0  0  0  0  0  0  0  0  0  0  0  # atno 17370 bound_to 10713
  157.5360  130.8089  149.7972 LP  0  0  0  0  0  0  0  0  0  0  0  0  # atno 17371 bound_to 10713
  140.9103  134.2269  157.4990 LP  0  0  0  0  0  0  0  0  0  0  0  0  # atno 17394 bound_to 11000
  139.8709  134.9747  156.4856 LP  0  0  0  0  0  0  0  0  0  0  0  0  # atno 17395 bound_to 11000

$$$$
