AV-unprocessed.smi:1426|AV-procd|sdf|5806|dock2
  -GOLD-   22720 5463D 1   1.00000     0.00000
 Structure written by MMmdl.
 43 45  0  0  0  0  0  0  0  0  1 V2000
  149.0187  144.2398  161.2494 O   0  0  0  0  0  0  0  0  0  0  0  0
  148.7234  144.8029  160.1953 C   0  0  0  0  0  0  0  0  0  0  0  0
  149.6266  145.3286  159.3559 N   0  0  0  0  0  0  0  0  0  0  0  0
  151.0706  145.3460  159.5681 C   0  0  0  0  0  0  0  0  0  0  0  0
  151.6500  143.9214  159.6531 C   0  0  1  0  0  0  0  0  0  0  0  0
  152.9475  143.7038  158.8981 C   0  0  0  0  0  0  0  0  0  0  0  0
  153.4843  142.4333  159.5500 C   0  0  0  0  0  0  0  0  0  0  0  0
  153.0091  142.4522  160.8932 O   0  0  0  0  0  0  0  0  0  0  0  0
  152.0658  143.5058  161.0635 C   0  0  0  0  0  0  0  0  0  0  0  0
  147.4733  144.9992  159.7448 N   0  0  0  0  0  0  0  0  0  0  0  0
  146.2457  144.6571  160.3799 C   0  0  0  0  0  0  0  0  0  0  0  0
  146.1959  144.0279  161.6476 C   0  0  0  0  0  0  0  0  0  0  0  0
  144.9458  143.7097  162.2073 C   0  0  0  0  0  0  0  0  0  0  0  0
  143.7875  144.0234  161.4751 C   0  0  0  0  0  0  0  0  0  0  0  0
  143.8185  144.6053  160.2592 N   0  0  0  0  0  0  0  0  0  0  0  0
  145.0189  144.9199  159.7134 C   0  0  0  0  0  0  0  0  0  0  0  0
  145.0223  145.4941  158.4256 N   0  0  0  0  0  0  0  0  0  0  0  0
  144.5118  144.5966  157.3927 C   0  0  0  0  0  0  0  0  0  0  0  0
  143.7163  145.4659  156.4167 C   0  0  0  0  0  0  0  0  0  0  0  0
  143.2472  146.6221  157.2911 C   0  0  0  0  0  0  0  0  0  0  0  0
  144.4290  146.8173  158.2394 C   0  0  0  0  0  0  0  0  0  0  0  0
  149.2879  145.7729  158.5150 H   0  0  0  0  0  0  0  0  0  0  0  0
  151.5732  145.9214  158.7885 H   0  0  0  0  0  0  0  0  0  0  0  0
  151.2616  145.8719  160.5038 H   0  0  0  0  0  0  0  0  0  0  0  0
  150.9101  143.2074  159.2869 H   0  0  0  0  0  0  0  0  0  0  0  0
  152.8086  143.5991  157.8217 H   0  0  0  0  0  0  0  0  0  0  0  0
  153.6339  144.5333  159.0747 H   0  0  0  0  0  0  0  0  0  0  0  0
  153.0797  141.5512  159.0523 H   0  0  0  0  0  0  0  0  0  0  0  0
  154.5722  142.3742  159.5120 H   0  0  0  0  0  0  0  0  0  0  0  0
  152.5611  144.3296  161.5793 H   0  0  0  0  0  0  0  0  0  0  0  0
  151.2192  143.1869  161.6718 H   0  0  0  0  0  0  0  0  0  0  0  0
  147.3846  145.5596  158.9099 H   0  0  0  0  0  0  0  0  0  0  0  0
  147.0921  143.7720  162.1917 H   0  0  0  0  0  0  0  0  0  0  0  0
  144.8776  143.2318  163.1733 H   0  0  0  0  0  0  0  0  0  0  0  0
  142.8099  143.7921  161.8714 H   0  0  0  0  0  0  0  0  0  0  0  0
  145.3263  144.0760  156.8882 H   0  0  0  0  0  0  0  0  0  0  0  0
  143.8586  143.8427  157.8362 H   0  0  0  0  0  0  0  0  0  0  0  0
  144.3746  145.8413  155.6319 H   0  0  0  0  0  0  0  0  0  0  0  0
  142.8952  144.9280  155.9417 H   0  0  0  0  0  0  0  0  0  0  0  0
  143.0058  147.5203  156.7222 H   0  0  0  0  0  0  0  0  0  0  0  0
  142.3614  146.3267  157.8555 H   0  0  0  0  0  0  0  0  0  0  0  0
  144.1311  147.3111  159.1647 H   0  0  0  0  0  0  0  0  0  0  0  0
  145.1802  147.4531  157.7698 H   0  0  0  0  0  0  0  0  0  0  0  0
  1  2  2  0  0  0  0
  2  3  1  0  0  0  0
  2 10  1  0  0  0  0
  3  4  1  0  0  0  0
  3 22  1  0  0  0  0
  4  5  1  0  0  0  0
  4 23  1  0  0  0  0
  4 24  1  0  0  0  0
  5  9  1  0  0  0  0
  5  6  1  0  0  0  0
  5 25  1  0  0  0  0
  6  7  1  0  0  0  0
  6 26  1  0  0  0  0
  6 27  1  0  0  0  0
  7  8  1  0  0  0  0
  7 28  1  0  0  0  0
  7 29  1  0  0  0  0
  8  9  1  0  0  0  0
  9 30  1  0  0  0  0
  9 31  1  0  0  0  0
 10 11  1  0  0  0  0
 10 32  1  0  0  0  0
 11 16  1  0  0  0  0
 11 12  2  0  0  0  0
 12 13  1  0  0  0  0
 12 33  1  0  0  0  0
 13 14  2  0  0  0  0
 13 34  1  0  0  0  0
 14 15  1  0  0  0  0
 14 35  1  0  0  0  0
 15 16  2  0  0  0  0
 16 17  1  0  0  0  0
 17 21  1  0  0  0  0
 17 18  1  0  0  0  0
 18 19  1  0  0  0  0
 18 36  1  0  0  0  0
 18 37  1  0  0  0  0
 19 20  1  0  0  0  0
 19 38  1  0  0  0  0
 19 39  1  0  0  0  0
 20 21  1  0  0  0  0
 20 40  1  0  0  0  0
 20 41  1  0  0  0  0
 21 42  1  0  0  0  0
 21 43  1  0  0  0  0
M  END
> <s_m_source_file>
AV-unprocessed.smi

> <i_m_source_file_index>
1426

> <i_lp_mmshare_version>
43012

> <i_f3d_flags>
0

> <s_epik_input>
W0NIMl0xT1tDSDJdW0NIMl1bQ0BIXTFbQ0gyXVtOSF1DKD1PKVtOSF1jMltjSF1bY0hdW2NIXW5jMk4zW0NIMl1bQ0gyXVtDSDJdW0NIMl0z

> <s_epik_cmdline>
J2VwaWtfcHl0aG9uJywgJy1waCcsICc3LjAnLCAnLXRuJywgJzgnLCAnLW1hJywgJzIwMCcsICctbWV0YWxfYmluZGluZycsICctaW1hZScsICc8aW5maWxlLm1hZT4nLCAnLW9tYWUnLCAnPG91dGZpbGUubWFlPic=

> <r_lp_tautomer_probability>
1

> <r_epik_Ionization_Penalty>
0.0999657

> <r_epik_Ionization_Penalty_Charging>
0

> <r_epik_Ionization_Penalty_Neutral>
0.0999657

> <r_epik_State_Penalty>
0.0894442

> <r_epik_Charging_Adjusted_Penalty>
0.0894442

> <i_epik_Tot_Q>
0

> <i_epik_Tot_abs_Q>
0

> <r_epik_Metal_State_Penalty>
0.076486

> <b_epik_Metal_Only>
0

> <s_lp_Force_Field>
OPLS_2005

> <r_lp_Energy>
46.9111

> <b_lp_Chiralities_Consistent>
1

> <s_lp_Variant>
AV-unprocessed.smi:1426-2

> <Gold.Version>
5.8.1

> <Gold.Id.Protein>
6NUR|6NUR_protein|mol2

> <Gold.PLP.Fitness>
49.5275

> <Gold.PLP.PLP>
-43.0098

> <Gold.PLP.part.hbond>
-3.0000

> <Gold.PLP.part.metal>
0.0000

> <Gold.PLP.part.buried>
-8.0149

> <Gold.PLP.part.nonpolar>
-33.0717

> <Gold.PLP.part.repulsive>
1.0081

> <Gold.PLP.ligand.clash>
0.0000

> <Gold.PLP.ligand.torsion>
0.6924

> <Gold.PLP.Chemscore.Hbond>
2.5868

> <Gold.PLP.Chemscore.CHOScore>
0.0000

> <Gold.PLP.Chemscore.Metal>
0.0000

> <Gold.Chemscore.Hbonds>
donor molecule, donor type, donor heavy atom, donor atom, acceptor molecule, acceptor atom, score
      L1  H     3    22       P1  8029  0.98
      L1  H    10    32       P1  8029  1.00
      P1  H  6933  6944       L1     1  0.59

> <Gold.PLP.Chemscore.Internal.Correction>
0.1421

> <Gold.Rescore>
     Score         DG    S(hbond)    S(metal)    S(lipo)     H(rot)  DE(clash)    DE(int)     intcor
     19.74     -21.73       2.49        0.00      97.98       1.38       0.01       1.97       ----

> <Gold.Chemscore.Fitness>
19.7430

> <Gold.Chemscore.DG>
-21.7313

> <Gold.Chemscore.ZeroCoef>
-5.4800

> <Gold.Chemscore.Hbond>
2.4909

> <Gold.Chemscore.Metal>
0.0000

> <Gold.Chemscore.Lipo>
97.9787

> <Gold.Chemscore.Internal_Hbond>
0.0000

> <Gold.Chemscore.DEClash>
0.0137

> <Gold.Chemscore.DEInternal>
1.9747

> <Gold.Chemscore.Rot>
1.3796

> <Gold.Chemscore.Internal.Correction>
   9.000000E+99

> <Gold.Chemscore.Hbonds>
donor molecule, donor type, donor heavy atom, donor atom, acceptor molecule, acceptor atom, score
      L1  H     3    22       P1  8029  0.91
      L1  H    10    32       P1  8029  0.96
      P1  H  6933  6944       L1     1  0.58

> <Gold.Chemscore.Hbond.Weighted>
-8.3195

> <Gold.Chemscore.Metal.Weighted>
-0.0000

> <Gold.Chemscore.Lipo.Weighted>
-11.4635

> <Gold.Chemscore.Internal_Hbond.Weighted>
0.0000

> <Gold.Chemscore.DEClash.Weighted>
0.0137

> <Gold.Chemscore.DEInternal.Weighted>
1.9747

> <Gold.Chemscore.Rot.Weighted>
3.5317

> <Gold.Chemscore.Internal.Correction.Weighted>
   9.000000E+99

> <Gold.Protein.RotatedTorsions>
[ 6907 6896 6895 6894 ] final   18.98 input  -60.11 | X-H torsion
[ 7974 7965 7964 7962 ] final  149.27 input  175.53 | X-H torsion
[ 8008 7997 7996 7995 ] final  -67.67 input   59.86 | X-H torsion
[ 10167 10162 10161 10158 ] final   33.61 input  -65.29 | X-H torsion
[ 10718 10713 10712 10709 ] final   83.38 input   66.30 | X-H torsion
[ 10763 10752 10751 10750 ] final   53.10 input  -60.55 | X-H torsion
[ 11005 11000 10999 10996 ] final   34.19 input  -57.11 | X-H torsion

> <Gold.Protein.ActiveResidues>
 VAL166  LYS551  ARG553  GLY616  TRP617  ASP618  TYR619  PRO620  LYS621  CYS622 
 ASP623  PHE694  ASN695  SER759  ASP760  ASP761  ALA762  ILE779  LEU786  VAL792 
 PHE793  MET794  SER795  GLU796  ALA797  LYS798  CYS799  TRP800  GLU811  SER814 

> <Gold.Protein.RotatedAtoms>
  151.8738  135.0479  160.0481 H   0  0  0  0  0  0  0  0  0  0  0  0  # atno 6907 bound_to 6896
  152.2567  133.5257  159.5366 H   0  0  0  0  0  0  0  0  0  0  0  0  # atno 6908 bound_to 6896
  150.7102  134.0802  159.3937 H   0  0  0  0  0  0  0  0  0  0  0  0  # atno 6909 bound_to 6896
  144.8450  139.6259  143.5999 H   0  0  0  0  0  0  0  0  0  0  0  0  # atno 7974 bound_to 7965
  154.4815  140.0888  156.7389 H   0  0  0  0  0  0  0  0  0  0  0  0  # atno 8008 bound_to 7997
  155.4457  140.3455  155.4277 H   0  0  0  0  0  0  0  0  0  0  0  0  # atno 8009 bound_to 7997
  156.1199  140.1471  156.9208 H   0  0  0  0  0  0  0  0  0  0  0  0  # atno 8010 bound_to 7997
  140.4391  144.1213  150.6171 H   0  0  0  0  0  0  0  0  0  0  0  0  # atno 10167 bound_to 10162
  157.6877  131.0088  150.2515 H   0  0  0  0  0  0  0  0  0  0  0  0  # atno 10718 bound_to 10713
  152.9793  135.5790  154.4687 H   0  0  0  0  0  0  0  0  0  0  0  0  # atno 10763 bound_to 10752
  154.4253  135.2772  155.1950 H   0  0  0  0  0  0  0  0  0  0  0  0  # atno 10764 bound_to 10752
  154.3682  135.6173  153.5780 H   0  0  0  0  0  0  0  0  0  0  0  0  # atno 10765 bound_to 10752
  140.2554  134.3254  155.7876 H   0  0  0  0  0  0  0  0  0  0  0  0  # atno 11005 bound_to 11000
  146.2736  139.6697  142.9278 LP  0  0  0  0  0  0  0  0  0  0  0  0  # atno 17320 bound_to 7965
  145.4615  141.0433  143.2749 LP  0  0  0  0  0  0  0  0  0  0  0  0  # atno 17321 bound_to 7965
  140.4339  143.2556  151.9560 LP  0  0  0  0  0  0  0  0  0  0  0  0  # atno 17342 bound_to 10162
  139.4788  144.5718  151.8075 LP  0  0  0  0  0  0  0  0  0  0  0  0  # atno 17343 bound_to 10162
  156.3111  130.3772  149.7661 LP  0  0  0  0  0  0  0  0  0  0  0  0  # atno 17370 bound_to 10713
  156.5261  130.8237  151.3221 LP  0  0  0  0  0  0  0  0  0  0  0  0  # atno 17371 bound_to 10713
  141.2196  133.7378  156.9103 LP  0  0  0  0  0  0  0  0  0  0  0  0  # atno 17394 bound_to 11000
  140.1517  134.9226  157.2601 LP  0  0  0  0  0  0  0  0  0  0  0  0  # atno 17395 bound_to 11000

$$$$
