AV-unprocessed.smi:794|AV-procd|sdf|3759|dock4
  -GOLD-   22720 1193D 1   1.00000     0.00000
 Structure written by MMmdl.
 41 43  0  0  0  0  0  0  0  0  1 V2000
  146.4636  130.1832  152.5745 C   0  0  0  0  0  0  0  0  0  0  0  0
  147.5894  130.9272  153.2250 C   0  0  0  0  0  0  0  0  0  0  0  0
  147.6220  132.3235  153.1630 N   0  0  0  0  0  0  0  0  0  0  0  0
  148.6866  132.8334  153.7904 C   0  0  0  0  0  0  0  0  0  0  0  0
  148.9746  134.2201  153.8834 N   0  0  0  0  0  0  0  0  0  0  0  0
  149.5196  134.8888  154.9145 C   0  0  0  0  0  0  0  0  0  0  0  0
  149.8824  134.3856  155.9781 O   0  0  0  0  0  0  0  0  0  0  0  0
  149.6134  136.1990  154.6451 N   0  0  0  0  0  0  0  0  0  0  0  0
  150.1577  137.2137  155.5485 C   0  0  1  0  0  0  0  0  0  0  0  0
  151.6984  137.2442  155.4497 C   0  0  2  0  0  0  0  0  0  0  0  0
  152.2648  138.0133  156.6570 C   0  0  0  0  0  0  0  0  0  0  0  0
  151.8782  139.4698  156.3363 C   0  0  0  0  0  0  0  0  0  0  0  0
  151.1453  139.3414  154.9859 C   0  0  1  0  0  0  0  0  0  0  0  0
  151.9420  138.2304  154.3137 C   0  0  0  0  0  0  0  0  0  0  0  0
  149.7611  138.6840  155.2118 C   0  0  1  0  0  0  0  0  0  0  0  0
  148.7916  138.8745  154.0227 C   0  0  0  0  0  0  0  0  0  0  0  0
  148.7823  140.2228  153.6032 O   0  0  0  0  0  0  0  0  0  0  0  0
  149.7301  131.6183  154.5078 S   0  0  0  0  0  0  0  0  0  0  0  0
  148.6509  130.3825  153.9102 C   0  0  0  0  0  0  0  0  0  0  0  0
  148.9270  128.9376  154.1626 C   0  0  0  0  0  0  0  0  0  0  0  0
  145.9207  129.5792  153.3017 H   0  0  0  0  0  0  0  0  0  0  0  0
  146.8335  129.5130  151.7983 H   0  0  0  0  0  0  0  0  0  0  0  0
  145.7466  130.8605  152.1094 H   0  0  0  0  0  0  0  0  0  0  0  0
  148.7259  134.7689  153.0739 H   0  0  0  0  0  0  0  0  0  0  0  0
  149.2882  136.5231  153.7461 H   0  0  0  0  0  0  0  0  0  0  0  0
  149.8644  136.9675  156.5711 H   0  0  0  0  0  0  0  0  0  0  0  0
  152.1550  136.2628  155.3147 H   0  0  0  0  0  0  0  0  0  0  0  0
  151.8497  137.6690  157.6049 H   0  0  0  0  0  0  0  0  0  0  0  0
  153.3491  137.9084  156.7102 H   0  0  0  0  0  0  0  0  0  0  0  0
  151.2516  139.9158  157.1095 H   0  0  0  0  0  0  0  0  0  0  0  0
  152.7710  140.0880  156.2347 H   0  0  0  0  0  0  0  0  0  0  0  0
  151.1101  140.2791  154.4308 H   0  0  0  0  0  0  0  0  0  0  0  0
  152.9959  138.4771  154.1743 H   0  0  0  0  0  0  0  0  0  0  0  0
  151.5241  137.9079  153.3591 H   0  0  0  0  0  0  0  0  0  0  0  0
  149.2864  139.1283  156.0883 H   0  0  0  0  0  0  0  0  0  0  0  0
  149.0609  138.2396  153.1784 H   0  0  0  0  0  0  0  0  0  0  0  0
  147.7740  138.6146  154.3146 H   0  0  0  0  0  0  0  0  0  0  0  0
  149.2350  140.2831  152.7757 H   0  0  0  0  0  0  0  0  0  0  0  0
  148.8878  128.3679  153.2339 H   0  0  0  0  0  0  0  0  0  0  0  0
  148.1898  128.5182  154.8475 H   0  0  0  0  0  0  0  0  0  0  0  0
  149.9146  128.7941  154.6016 H   0  0  0  0  0  0  0  0  0  0  0  0
  1  2  1  0  0  0  0
  1 21  1  0  0  0  0
  1 22  1  0  0  0  0
  1 23  1  0  0  0  0
  2 19  2  0  0  0  0
  2  3  1  0  0  0  0
  3  4  2  0  0  0  0
  4  5  1  0  0  0  0
  4 18  1  0  0  0  0
  5  6  1  0  0  0  0
  5 24  1  0  0  0  0
  6  7  2  0  0  0  0
  6  8  1  0  0  0  0
  8  9  1  0  0  0  0
  8 25  1  0  0  0  0
  9 15  1  0  0  0  0
  9 10  1  0  0  0  0
  9 26  1  0  0  0  0
 10 14  1  0  0  0  0
 10 11  1  0  0  0  0
 10 27  1  0  0  0  0
 11 12  1  0  0  0  0
 11 28  1  0  0  0  0
 11 29  1  0  0  0  0
 12 13  1  0  0  0  0
 12 30  1  0  0  0  0
 12 31  1  0  0  0  0
 13 14  1  0  0  0  0
 13 15  1  0  0  0  0
 13 32  1  0  0  0  0
 14 33  1  0  0  0  0
 14 34  1  0  0  0  0
 15 16  1  0  0  0  0
 15 35  1  0  0  0  0
 16 17  1  0  0  0  0
 16 36  1  0  0  0  0
 16 37  1  0  0  0  0
 17 38  1  0  0  0  0
 18 19  1  0  0  0  0
 19 20  1  0  0  0  0
 20 39  1  0  0  0  0
 20 40  1  0  0  0  0
 20 41  1  0  0  0  0
M  END
> <s_m_source_file>
AV-unprocessed.smi

> <i_m_source_file_index>
794

> <i_lp_mmshare_version>
43012

> <i_f3d_flags>
0

> <s_epik_input>
W0NIM11jMW5jKHNjMVtDSDNdKVtOSF1DKD1PKVtOSF1bQ0BIXShbQ0BASF0yMylbQ0BIXShbQ0gyXVtPSF0pW0NAQEhdKFtDSDJdMylbQ0gyXVtDSDJdMg==

> <s_epik_cmdline>
J2VwaWtfcHl0aG9uJywgJy1waCcsICc3LjAnLCAnLXRuJywgJzgnLCAnLW1hJywgJzIwMCcsICctbWV0YWxfYmluZGluZycsICctaW1hZScsICc8aW5maWxlLm1hZT4nLCAnLW9tYWUnLCAnPG91dGZpbGUubWFlPic=

> <r_lp_tautomer_probability>
0.999

> <r_epik_Ionization_Penalty>
0.000713029

> <r_epik_Ionization_Penalty_Charging>
0

> <r_epik_Ionization_Penalty_Neutral>
0.000713029

> <r_epik_State_Penalty>
0.000177984

> <r_epik_Charging_Adjusted_Penalty>
0.000177984

> <i_epik_Tot_Q>
0

> <i_epik_Tot_abs_Q>
0

> <r_epik_Metal_State_Penalty>
-0

> <b_epik_Metal_Only>
0

> <s_lp_Force_Field>
OPLS_2005

> <r_lp_Energy>
48.0104

> <b_lp_Chiralities_Consistent>
1

> <s_lp_Variant>
AV-unprocessed.smi:794-4

> <Gold.Version>
5.8.1

> <Gold.Id.Protein>
6NUR|6NUR_protein|mol2

> <Gold.PLP.Fitness>
40.0369

> <Gold.PLP.PLP>
-32.3814

> <Gold.PLP.part.hbond>
-3.0000

> <Gold.PLP.part.metal>
0.0000

> <Gold.PLP.part.buried>
-3.0936

> <Gold.PLP.part.nonpolar>
-26.0965

> <Gold.PLP.part.repulsive>
0.1742

> <Gold.PLP.ligand.clash>
0.0000

> <Gold.PLP.ligand.torsion>
0.6428

> <Gold.PLP.Chemscore.Hbond>
2.9760

> <Gold.PLP.Chemscore.CHOScore>
0.0000

> <Gold.PLP.Chemscore.Metal>
0.0000

> <Gold.Chemscore.Hbonds>
donor molecule, donor type, donor heavy atom, donor atom, acceptor molecule, acceptor atom, score
      L1  H     5    24       P1  7948  1.00
      L1  H     8    25       P1  7948  1.00
      L1  H    17    38       P1  7957  1.00

> <Gold.PLP.Chemscore.Internal.Correction>
0.0131

> <Gold.Rescore>
     Score         DG    S(hbond)    S(metal)    S(lipo)     H(rot)  DE(clash)    DE(int)     intcor
     16.85     -17.58       2.45        0.00      72.49       1.78       0.02       0.71       ----

> <Gold.Chemscore.Fitness>
16.8519

> <Gold.Chemscore.DG>
-17.5761

> <Gold.Chemscore.ZeroCoef>
-5.4800

> <Gold.Chemscore.Hbond>
2.4463

> <Gold.Chemscore.Metal>
0.0000

> <Gold.Chemscore.Lipo>
72.4922

> <Gold.Chemscore.Internal_Hbond>
0.0000

> <Gold.Chemscore.DEClash>
0.0166

> <Gold.Chemscore.DEInternal>
0.7075

> <Gold.Chemscore.Rot>
1.7798

> <Gold.Chemscore.Internal.Correction>
   9.000000E+99

> <Gold.Chemscore.Hbonds>
donor molecule, donor type, donor heavy atom, donor atom, acceptor molecule, acceptor atom, score
      L1  H     5    24       P1  7948  0.25
      L1  H     8    25       P1  7948  0.89
      L1  H    17    38       P1  7957  0.99

> <Gold.Chemscore.Hbond.Weighted>
-8.1707

> <Gold.Chemscore.Metal.Weighted>
-0.0000

> <Gold.Chemscore.Lipo.Weighted>
-8.4816

> <Gold.Chemscore.Internal_Hbond.Weighted>
0.0000

> <Gold.Chemscore.DEClash.Weighted>
0.0166

> <Gold.Chemscore.DEInternal.Weighted>
0.7075

> <Gold.Chemscore.Rot.Weighted>
4.5562

> <Gold.Chemscore.Internal.Correction.Weighted>
   9.000000E+99

> <Gold.Protein.RotatedTorsions>
[ 6907 6896 6895 6894 ] final -126.79 input  -60.11 | X-H torsion
[ 7974 7965 7964 7962 ] final -178.16 input  175.53 | X-H torsion
[ 8008 7997 7996 7995 ] final -139.43 input   59.86 | X-H torsion
[ 10167 10162 10161 10158 ] final  -53.72 input  -65.29 | X-H torsion
[ 10718 10713 10712 10709 ] final  131.14 input   66.30 | X-H torsion
[ 10763 10752 10751 10750 ] final  112.59 input  -60.55 | X-H torsion
[ 11005 11000 10999 10996 ] final  135.61 input  -57.11 | X-H torsion

> <Gold.Protein.ActiveResidues>
 VAL166  LYS551  ARG553  GLY616  TRP617  ASP618  TYR619  PRO620  LYS621  CYS622 
 ASP623  PHE694  ASN695  SER759  ASP760  ASP761  ALA762  ILE779  LEU786  VAL792 
 PHE793  MET794  SER795  GLU796  ALA797  LYS798  CYS799  TRP800  GLU811  SER814 

> <Gold.Protein.RotatedAtoms>
  150.9005  133.7124  159.2880 H   0  0  0  0  0  0  0  0  0  0  0  0  # atno 6907 bound_to 6896
  151.4645  135.1039  159.9743 H   0  0  0  0  0  0  0  0  0  0  0  0  # atno 6908 bound_to 6896
  152.4874  133.8360  159.7183 H   0  0  0  0  0  0  0  0  0  0  0  0  # atno 6909 bound_to 6896
  144.7130  140.0911  143.6421 H   0  0  0  0  0  0  0  0  0  0  0  0  # atno 7974 bound_to 7965
  155.4447  140.0534  157.3007 H   0  0  0  0  0  0  0  0  0  0  0  0  # atno 8008 bound_to 7997
  154.4803  140.2078  155.9736 H   0  0  0  0  0  0  0  0  0  0  0  0  # atno 8009 bound_to 7997
  156.1195  140.3190  155.8193 H   0  0  0  0  0  0  0  0  0  0  0  0  # atno 8010 bound_to 7997
  140.6470  143.2541  151.4832 H   0  0  0  0  0  0  0  0  0  0  0  0  # atno 10167 bound_to 10162
  157.4995  131.1093  150.9446 H   0  0  0  0  0  0  0  0  0  0  0  0  # atno 10718 bound_to 10713
  153.4801  135.3681  155.2437 H   0  0  0  0  0  0  0  0  0  0  0  0  # atno 10763 bound_to 10752
  154.8755  135.3952  154.3710 H   0  0  0  0  0  0  0  0  0  0  0  0  # atno 10764 bound_to 10752
  153.4312  135.7082  153.6294 H   0  0  0  0  0  0  0  0  0  0  0  0  # atno 10765 bound_to 10752
  139.9991  134.9486  157.0031 H   0  0  0  0  0  0  0  0  0  0  0  0  # atno 11005 bound_to 11000
  145.9619  139.2807  143.1150 LP  0  0  0  0  0  0  0  0  0  0  0  0  # atno 17320 bound_to 7965
  145.9211  140.9115  143.0405 LP  0  0  0  0  0  0  0  0  0  0  0  0  # atno 17321 bound_to 7965
  139.5681  144.1993  152.1796 LP  0  0  0  0  0  0  0  0  0  0  0  0  # atno 17342 bound_to 10162
  140.1281  144.5313  150.6819 LP  0  0  0  0  0  0  0  0  0  0  0  0  # atno 17343 bound_to 10162
  157.0121  130.5641  149.5322 LP  0  0  0  0  0  0  0  0  0  0  0  0  # atno 17370 bound_to 10713
  156.0221  130.5315  150.8304 LP  0  0  0  0  0  0  0  0  0  0  0  0  # atno 17371 bound_to 10713
  140.4762  134.1336  155.7210 LP  0  0  0  0  0  0  0  0  0  0  0  0  # atno 17394 bound_to 11000
  141.1627  133.8761  157.1801 LP  0  0  0  0  0  0  0  0  0  0  0  0  # atno 17395 bound_to 11000

$$$$
