AV-unprocessed.smi:1349|AV-procd|sdf|5519|dock4
  -GOLD-   22720 5103D 1   1.00000     0.00000
 Structure written by MMmdl.
 43 45  0  0  0  0  0  0  0  0  2 V2000
  144.9759  138.0122  153.9176 O   0  0  0  0  0  0  0  0  0  0  0  0
  146.1035  137.5902  153.1800 C   0  0  0  0  0  0  0  0  0  0  0  0
  146.5071  138.6613  152.1566 C   0  0  0  0  0  0  0  0  0  0  0  0
  147.0121  139.9596  152.8063 C   0  0  0  0  0  0  0  0  0  0  0  0
  148.2787  139.7346  153.5661 C   0  0  0  0  0  0  0  0  0  0  0  0
  149.1615  138.7167  153.3612 N   0  3  0  0  0  0  0  0  0  0  0  0
  150.2304  138.8316  154.2509 C   0  0  0  0  0  0  0  0  0  0  0  0
  151.3603  138.0386  154.4261 C   0  0  0  0  0  0  0  0  0  0  0  0
  152.2630  138.4370  155.4341 C   0  0  0  0  0  0  0  0  0  0  0  0
  152.0254  139.5825  156.2217 C   0  0  0  0  0  0  0  0  0  0  0  0
  150.8763  140.3790  156.0344 C   0  0  0  0  0  0  0  0  0  0  0  0
  149.9904  139.9787  155.0345 C   0  0  0  0  0  0  0  0  0  0  0  0
  148.7799  140.5067  154.5734 N   0  0  0  0  0  0  0  0  0  0  0  0
  148.2432  141.7233  155.2009 C   0  0  0  0  0  0  0  0  0  0  0  0
  146.7410  141.6084  155.4962 C   0  0  0  0  0  0  0  0  0  0  0  0
  146.0139  142.2204  154.4390 O   0  0  0  0  0  0  0  0  0  0  0  0
  145.1455  143.2445  154.7467 C   0  0  0  0  0  0  0  0  0  0  0  0
  144.9057  144.2019  153.7395 C   0  0  0  0  0  0  0  0  0  0  0  0
  144.0295  145.2810  153.9646 C   0  0  0  0  0  0  0  0  0  0  0  0
  143.3825  145.4139  155.2071 C   0  0  0  0  0  0  0  0  0  0  0  0
  143.6146  144.4672  156.2221 C   0  0  0  0  0  0  0  0  0  0  0  0
  144.4911  143.3875  155.9965 C   0  0  0  0  0  0  0  0  0  0  0  0
  144.4834  138.6242  153.3920 H   0  0  0  0  0  0  0  0  0  0  0  0
  146.9264  137.3725  153.8618 H   0  0  0  0  0  0  0  0  0  0  0  0
  145.8526  136.6602  152.6690 H   0  0  0  0  0  0  0  0  0  0  0  0
  147.2931  138.2566  151.5180 H   0  0  0  0  0  0  0  0  0  0  0  0
  145.6622  138.8742  151.5001 H   0  0  0  0  0  0  0  0  0  0  0  0
  147.1831  140.7254  152.0494 H   0  0  0  0  0  0  0  0  0  0  0  0
  146.2577  140.3586  153.4852 H   0  0  0  0  0  0  0  0  0  0  0  0
  151.5431  137.1600  153.8250 H   0  0  0  0  0  0  0  0  0  0  0  0
  153.1545  137.8520  155.6070 H   0  0  0  0  0  0  0  0  0  0  0  0
  152.7386  139.8562  156.9858 H   0  0  0  0  0  0  0  0  0  0  0  0
  150.7021  141.2533  156.6439 H   0  0  0  0  0  0  0  0  0  0  0  0
  148.8083  141.9335  156.1094 H   0  0  0  0  0  0  0  0  0  0  0  0
  148.4268  142.5576  154.5236 H   0  0  0  0  0  0  0  0  0  0  0  0
  146.4639  140.5568  155.5854 H   0  0  0  0  0  0  0  0  0  0  0  0
  146.5162  142.0984  156.4446 H   0  0  0  0  0  0  0  0  0  0  0  0
  145.3990  144.1075  152.7830 H   0  0  0  0  0  0  0  0  0  0  0  0
  143.8547  146.0067  153.1839 H   0  0  0  0  0  0  0  0  0  0  0  0
  142.7097  146.2407  155.3814 H   0  0  0  0  0  0  0  0  0  0  0  0
  143.1194  144.5687  157.1766 H   0  0  0  0  0  0  0  0  0  0  0  0
  144.6452  142.6828  156.7994 H   0  0  0  0  0  0  0  0  0  0  0  0
  149.0365  137.9938  152.6644 H   0  0  0  0  0  0  0  0  0  0  0  0
  1  2  1  0  0  0  0
  1 23  1  0  0  0  0
  2  3  1  0  0  0  0
  2 24  1  0  0  0  0
  2 25  1  0  0  0  0
  3  4  1  0  0  0  0
  3 26  1  0  0  0  0
  3 27  1  0  0  0  0
  4  5  1  0  0  0  0
  4 28  1  0  0  0  0
  4 29  1  0  0  0  0
  5 13  1  0  0  0  0
  5  6  2  0  0  0  0
  6  7  1  0  0  0  0
  6 43  1  0  0  0  0
  7 12  2  0  0  0  0
  7  8  1  0  0  0  0
  8  9  2  0  0  0  0
  8 30  1  0  0  0  0
  9 10  1  0  0  0  0
  9 31  1  0  0  0  0
 10 11  2  0  0  0  0
 10 32  1  0  0  0  0
 11 12  1  0  0  0  0
 11 33  1  0  0  0  0
 12 13  1  0  0  0  0
 13 14  1  0  0  0  0
 14 15  1  0  0  0  0
 14 34  1  0  0  0  0
 14 35  1  0  0  0  0
 15 16  1  0  0  0  0
 15 36  1  0  0  0  0
 15 37  1  0  0  0  0
 16 17  1  0  0  0  0
 17 22  1  0  0  0  0
 17 18  2  0  0  0  0
 18 19  1  0  0  0  0
 18 38  1  0  0  0  0
 19 20  2  0  0  0  0
 19 39  1  0  0  0  0
 20 21  1  0  0  0  0
 20 40  1  0  0  0  0
 21 22  2  0  0  0  0
 21 41  1  0  0  0  0
 22 42  1  0  0  0  0
M  CHG  1   6   1
M  END
> <s_m_source_file>
AV-unprocessed.smi

> <i_m_source_file_index>
1349

> <i_lp_mmshare_version>
43012

> <i_f3d_flags>
0

> <s_epik_input>
W09IXVtDSDJdW0NIMl1bQ0gyXWMobjEpbihjKGMxMilbY0hdW2NIXVtjSF1bY0hdMilbQ0gyXVtDSDJdT2MzW2NIXVtjSF1bY0hdW2NIXVtjSF0z

> <s_epik_cmdline>
J2VwaWtfcHl0aG9uJywgJy1waCcsICc3LjAnLCAnLXRuJywgJzgnLCAnLW1hJywgJzIwMCcsICctbWV0YWxfYmluZGluZycsICctaW1hZScsICc8aW5maWxlLm1hZT4nLCAnLW9tYWUnLCAnPG91dGZpbGUubWFlPic=

> <r_lp_tautomer_probability>
1

> <r_epik_Ionization_Penalty>
0.856072

> <r_epik_Ionization_Penalty_Charging>
0.856072

> <r_epik_Ionization_Penalty_Neutral>
1.64909e-07

> <r_epik_State_Penalty>
0.892118

> <r_epik_Charging_Adjusted_Penalty>
1.74819

> <i_epik_Tot_Q>
1

> <i_epik_Tot_abs_Q>
1

> <r_epik_Metal_State_Penalty>
4.83641

> <b_epik_Metal_Only>
0

> <s_lp_Force_Field>
OPLS_2005

> <r_lp_Energy>
19.1857

> <b_lp_Chiralities_Consistent>
1

> <s_lp_Variant>
AV-unprocessed.smi:1349-2

> <Gold.Version>
5.8.1

> <Gold.Id.Protein>
6NUR|6NUR_protein|mol2

> <Gold.PLP.Fitness>
55.3931

> <Gold.PLP.PLP>
-49.3686

> <Gold.PLP.part.hbond>
-2.7151

> <Gold.PLP.part.metal>
0.0000

> <Gold.PLP.part.buried>
5.7820

> <Gold.PLP.part.nonpolar>
-52.5804

> <Gold.PLP.part.repulsive>
0.2931

> <Gold.PLP.ligand.clash>
0.0000

> <Gold.PLP.ligand.torsion>
1.5235

> <Gold.PLP.Chemscore.Hbond>
3.0000

> <Gold.PLP.Chemscore.CHOScore>
0.0000

> <Gold.PLP.Chemscore.Metal>
0.0000

> <Gold.Chemscore.Hbonds>
donor molecule, donor type, donor heavy atom, donor atom, acceptor molecule, acceptor atom, score
      L1  H     1    23       P1 10175  0.57
      L1  H     6    43       P1  7948  2.00

> <Gold.PLP.Chemscore.Internal.Correction>
0.0716

> <Gold.Rescore>
     Score         DG    S(hbond)    S(metal)    S(lipo)     H(rot)  DE(clash)    DE(int)     intcor
     13.84     -19.21       1.99        0.00     115.46       2.51       3.10       2.26       ----

> <Gold.Chemscore.Fitness>
13.8425

> <Gold.Chemscore.DG>
-19.2093

> <Gold.Chemscore.ZeroCoef>
-5.4800

> <Gold.Chemscore.Hbond>
1.9915

> <Gold.Chemscore.Metal>
0.0000

> <Gold.Chemscore.Lipo>
115.4633

> <Gold.Chemscore.Internal_Hbond>
0.0000

> <Gold.Chemscore.DEClash>
3.1044

> <Gold.Chemscore.DEInternal>
2.2624

> <Gold.Chemscore.Rot>
2.5123

> <Gold.Chemscore.Internal.Correction>
   9.000000E+99

> <Gold.Chemscore.Hbonds>
donor molecule, donor type, donor heavy atom, donor atom, acceptor molecule, acceptor atom, score
      L1  H     1    23       P1 10175  0.56
      L1  H     6    43       P1  7948  0.98

> <Gold.Chemscore.Hbond.Weighted>
-6.6515

> <Gold.Chemscore.Metal.Weighted>
-0.0000

> <Gold.Chemscore.Lipo.Weighted>
-13.5092

> <Gold.Chemscore.Internal_Hbond.Weighted>
0.0000

> <Gold.Chemscore.DEClash.Weighted>
3.1044

> <Gold.Chemscore.DEInternal.Weighted>
2.2624

> <Gold.Chemscore.Rot.Weighted>
6.4314

> <Gold.Chemscore.Internal.Correction.Weighted>
   9.000000E+99

> <Gold.Protein.RotatedTorsions>
[ 6907 6896 6895 6894 ] final  153.24 input  -60.11 | X-H torsion
[ 7974 7965 7964 7962 ] final   25.10 input  175.53 | X-H torsion
[ 8008 7997 7996 7995 ] final  -30.34 input   59.86 | X-H torsion
[ 10167 10162 10161 10158 ] final  -46.78 input  -65.29 | X-H torsion
[ 10718 10713 10712 10709 ] final   46.47 input   66.30 | X-H torsion
[ 10763 10752 10751 10750 ] final   54.45 input  -60.55 | X-H torsion
[ 11005 11000 10999 10996 ] final -158.26 input  -57.11 | X-H torsion

> <Gold.Protein.ActiveResidues>
 VAL166  LYS551  ARG553  GLY616  TRP617  ASP618  TYR619  PRO620  LYS621  CYS622 
 ASP623  PHE694  ASN695  SER759  ASP760  ASP761  ALA762  ILE779  LEU786  VAL792 
 PHE793  MET794  SER795  GLU796  ALA797  LYS798  CYS799  TRP800  GLU811  SER814 

> <Gold.Protein.RotatedAtoms>
  152.0755  133.4127  159.4477 H   0  0  0  0  0  0  0  0  0  0  0  0  # atno 6907 bound_to 6896
  150.6863  134.3042  159.4728 H   0  0  0  0  0  0  0  0  0  0  0  0  # atno 6908 bound_to 6896
  152.0879  134.9427  160.0623 H   0  0  0  0  0  0  0  0  0  0  0  0  # atno 6909 bound_to 6896
  146.1905  139.7512  142.8835 H   0  0  0  0  0  0  0  0  0  0  0  0  # atno 7974 bound_to 7965
  154.4254  140.1794  156.1391 H   0  0  0  0  0  0  0  0  0  0  0  0  # atno 8008 bound_to 7997
  156.0006  140.3360  155.6817 H   0  0  0  0  0  0  0  0  0  0  0  0  # atno 8009 bound_to 7997
  155.6247  140.0663  157.2658 H   0  0  0  0  0  0  0  0  0  0  0  0  # atno 8010 bound_to 7997
  140.6803  143.2815  151.3832 H   0  0  0  0  0  0  0  0  0  0  0  0  # atno 10167 bound_to 10162
  157.4484  130.8123  149.7764 H   0  0  0  0  0  0  0  0  0  0  0  0  # atno 10718 bound_to 10713
  152.9805  135.5744  154.4905 H   0  0  0  0  0  0  0  0  0  0  0  0  # atno 10763 bound_to 10752
  154.4440  135.2776  155.1829 H   0  0  0  0  0  0  0  0  0  0  0  0  # atno 10764 bound_to 10752
  154.3485  135.6214  153.5685 H   0  0  0  0  0  0  0  0  0  0  0  0  # atno 10765 bound_to 10752
  140.6556  134.4404  157.5235 H   0  0  0  0  0  0  0  0  0  0  0  0  # atno 11005 bound_to 11000
  145.3807  141.0358  143.3179 LP  0  0  0  0  0  0  0  0  0  0  0  0  # atno 17320 bound_to 7965
  144.8478  139.5370  143.6870 LP  0  0  0  0  0  0  0  0  0  0  0  0  # atno 17321 bound_to 7965
  139.6121  144.1077  152.2309 LP  0  0  0  0  0  0  0  0  0  0  0  0  # atno 17342 bound_to 10162
  140.0495  144.5944  150.7347 LP  0  0  0  0  0  0  0  0  0  0  0  0  # atno 17343 bound_to 10162
  155.9977  130.3898  150.2731 LP  0  0  0  0  0  0  0  0  0  0  0  0  # atno 17370 bound_to 10713
  157.0901  131.0167  151.3125 LP  0  0  0  0  0  0  0  0  0  0  0  0  # atno 17371 bound_to 10713
  139.9030  134.8511  156.1816 LP  0  0  0  0  0  0  0  0  0  0  0  0  # atno 17394 bound_to 11000
  141.0504  133.6892  156.1761 LP  0  0  0  0  0  0  0  0  0  0  0  0  # atno 17395 bound_to 11000

$$$$
