AV-unprocessed.smi:3193|AV-procd|sdf|12207|dock6
  -GOLD-   2272018 43D 1   1.00000     0.00000
 Structure written by MMmdl.
 41 42  0  0  0  0  0  0  0  0  3 V2000
  152.7371  141.5478  159.8464 C   0  0  0  0  0  0  0  0  0  0  0  0
  152.5757  142.9198  159.1605 C   0  0  2  0  0  0  0  0  0  0  0  0
  152.8022  144.0800  160.1530 C   0  0  0  0  0  0  0  0  0  0  0  0
  151.6318  144.2456  161.1369 C   0  0  0  0  0  0  0  0  0  0  0  0
  150.3000  144.4156  160.3919 C   0  0  0  0  0  0  0  0  0  0  0  0
  150.0547  143.2617  159.4066 C   0  0  0  0  0  0  0  0  0  0  0  0
  151.2277  143.1044  158.4124 C   0  0  2  0  0  0  0  0  0  0  0  0
  150.9707  141.9954  157.3723 C   0  0  0  0  0  0  0  0  0  0  0  0
  150.0160  142.4321  156.3337 N   0  3  0  0  0  0  0  0  0  0  0  0
  149.6656  141.3770  155.3608 C   0  0  0  0  0  0  0  0  0  0  0  0
  148.1879  140.9643  155.4690 C   0  0  0  0  0  0  0  0  0  0  0  0
  147.7875  139.9978  154.4397 N   0  0  0  0  0  0  0  0  0  0  0  0
  146.6422  140.0141  153.6846 C   0  0  0  0  0  0  0  0  0  0  0  0
  146.7099  138.9310  152.8465 C   0  0  0  0  0  0  0  0  0  0  0  0
  147.8961  138.3042  153.1186 N   0  3  0  0  0  0  0  0  0  0  0  0
  148.5524  138.9565  154.0838 C   0  0  0  0  0  0  0  0  0  0  0  0
  151.9533  141.3579  160.5790 H   0  0  0  0  0  0  0  0  0  0  0  0
  153.6924  141.4858  160.3680 H   0  0  0  0  0  0  0  0  0  0  0  0
  152.7194  140.7325  159.1234 H   0  0  0  0  0  0  0  0  0  0  0  0
  153.3722  142.9832  158.4177 H   0  0  0  0  0  0  0  0  0  0  0  0
  153.7323  143.9314  160.7026 H   0  0  0  0  0  0  0  0  0  0  0  0
  152.9298  145.0088  159.5952 H   0  0  0  0  0  0  0  0  0  0  0  0
  151.5754  143.3812  161.7990 H   0  0  0  0  0  0  0  0  0  0  0  0
  151.8088  145.1087  161.7792 H   0  0  0  0  0  0  0  0  0  0  0  0
  149.4795  144.4748  161.1077 H   0  0  0  0  0  0  0  0  0  0  0  0
  150.3052  145.3624  159.8506 H   0  0  0  0  0  0  0  0  0  0  0  0
  149.9011  142.3343  159.9590 H   0  0  0  0  0  0  0  0  0  0  0  0
  149.1251  143.4494  158.8688 H   0  0  0  0  0  0  0  0  0  0  0  0
  151.3100  144.0428  157.8607 H   0  0  0  0  0  0  0  0  0  0  0  0
  151.9073  141.7229  156.8837 H   0  0  0  0  0  0  0  0  0  0  0  0
  150.5876  141.0966  157.8575 H   0  0  0  0  0  0  0  0  0  0  0  0
  149.1711  142.7429  156.7919 H   0  0  0  0  0  0  0  0  0  0  0  0
  149.8929  141.7192  154.3502 H   0  0  0  0  0  0  0  0  0  0  0  0
  150.2955  140.5065  155.5486 H   0  0  0  0  0  0  0  0  0  0  0  0
  148.0019  140.4979  156.4373 H   0  0  0  0  0  0  0  0  0  0  0  0
  147.5366  141.8378  155.4086 H   0  0  0  0  0  0  0  0  0  0  0  0
  145.8830  140.7756  153.7936 H   0  0  0  0  0  0  0  0  0  0  0  0
  146.0240  138.5714  152.0929 H   0  0  0  0  0  0  0  0  0  0  0  0
  149.5127  138.6930  154.4907 H   0  0  0  0  0  0  0  0  0  0  0  0
  150.4218  143.2117  155.8363 H   0  0  0  0  0  0  0  0  0  0  0  0
  148.2346  137.4720  152.6507 H   0  0  0  0  0  0  0  0  0  0  0  0
  1  2  1  0  0  0  0
  1 17  1  0  0  0  0
  1 18  1  0  0  0  0
  1 19  1  0  0  0  0
  2  7  1  0  0  0  0
  2  3  1  0  0  0  0
  2 20  1  0  0  0  0
  3  4  1  0  0  0  0
  3 21  1  0  0  0  0
  3 22  1  0  0  0  0
  4  5  1  0  0  0  0
  4 23  1  0  0  0  0
  4 24  1  0  0  0  0
  5  6  1  0  0  0  0
  5 25  1  0  0  0  0
  5 26  1  0  0  0  0
  6  7  1  0  0  0  0
  6 27  1  0  0  0  0
  6 28  1  0  0  0  0
  7  8  1  0  0  0  0
  7 29  1  0  0  0  0
  8  9  1  0  0  0  0
  8 30  1  0  0  0  0
  8 31  1  0  0  0  0
  9 10  1  0  0  0  0
  9 32  1  0  0  0  0
  9 40  1  0  0  0  0
 10 11  1  0  0  0  0
 10 33  1  0  0  0  0
 10 34  1  0  0  0  0
 11 12  1  0  0  0  0
 11 35  1  0  0  0  0
 11 36  1  0  0  0  0
 12 16  1  0  0  0  0
 12 13  1  0  0  0  0
 13 14  2  0  0  0  0
 13 37  1  0  0  0  0
 14 15  1  0  0  0  0
 14 38  1  0  0  0  0
 15 16  2  0  0  0  0
 15 41  1  0  0  0  0
 16 39  1  0  0  0  0
M  CHG  1   9   1
M  CHG  1  15   1
M  END
> <s_m_source_file>
AV-unprocessed.smi

> <i_m_source_file_index>
3193

> <i_lp_mmshare_version>
43012

> <i_f3d_flags>
0

> <s_epik_input>
W0NIM11bQ0BASF0xW0NIMl1bQ0gyXVtDSDJdW0NIMl1bQ0BIXTFbQ0gyXVtOSF1bQ0gyXVtDSDJdbjJbY0hdW2NIXW5bY0hdMg==

> <s_epik_cmdline>
J2VwaWtfcHl0aG9uJywgJy1waCcsICc3LjAnLCAnLXRuJywgJzgnLCAnLW1hJywgJzIwMCcsICctbWV0YWxfYmluZGluZycsICctaW1hZScsICc8aW5maWxlLm1hZT4nLCAnLW9tYWUnLCAnPG91dGZpbGUubWFlPic=

> <r_lp_tautomer_probability>
1

> <r_epik_Ionization_Penalty>
1.50262

> <r_epik_Ionization_Penalty_Charging>
0.00193432

> <r_epik_Ionization_Penalty_Neutral>
1.50068

> <r_epik_State_Penalty>
1.11854

> <r_epik_Charging_Adjusted_Penalty>
1.12048

> <i_epik_Tot_Q>
2

> <i_epik_Tot_abs_Q>
2

> <r_epik_Metal_State_Penalty>
5.11322

> <b_epik_Metal_Only>
0

> <s_lp_Force_Field>
OPLS_2005

> <r_lp_Energy>
29.0126

> <b_lp_Chiralities_Consistent>
1

> <s_lp_Variant>
AV-unprocessed.smi:3193-7

> <Gold.Version>
5.8.1

> <Gold.Id.Protein>
6NUR|6NUR_protein|mol2

> <Gold.PLP.Fitness>
46.5770

> <Gold.PLP.PLP>
-36.7711

> <Gold.PLP.part.hbond>
-2.9331

> <Gold.PLP.part.metal>
0.0000

> <Gold.PLP.part.buried>
-0.0681

> <Gold.PLP.part.nonpolar>
-33.4080

> <Gold.PLP.part.repulsive>
0.2282

> <Gold.PLP.ligand.clash>
0.0000

> <Gold.PLP.ligand.torsion>
0.7691

> <Gold.PLP.Chemscore.Hbond>
3.2160

> <Gold.PLP.Chemscore.CHOScore>
0.5421

> <Gold.PLP.Chemscore.Metal>
0.0000

> <Gold.Chemscore.Hbonds>
donor molecule, donor type, donor heavy atom, donor atom, acceptor molecule, acceptor atom, score
      L1  H     9    40       P1  8028  0.22
      L1  H    15    41       P1  7948  2.00
      L1  C    13    37       P1 10175  0.68

> <Gold.PLP.Chemscore.Internal.Correction>
0.0698

> <Gold.Rescore>
     Score         DG    S(hbond)    S(metal)    S(lipo)     H(rot)  DE(clash)    DE(int)     intcor
     17.79     -18.73       1.58        0.00     111.52       1.98       0.27       0.67       ----

> <Gold.Chemscore.Fitness>
17.7875

> <Gold.Chemscore.DG>
-18.7261

> <Gold.Chemscore.ZeroCoef>
-5.4800

> <Gold.Chemscore.Hbond>
1.5752

> <Gold.Chemscore.Metal>
0.0000

> <Gold.Chemscore.Lipo>
111.5150

> <Gold.Chemscore.Internal_Hbond>
0.0000

> <Gold.Chemscore.DEClash>
0.2684

> <Gold.Chemscore.DEInternal>
0.6702

> <Gold.Chemscore.Rot>
1.9774

> <Gold.Chemscore.Internal.Correction>
   9.000000E+99

> <Gold.Chemscore.Hbonds>
donor molecule, donor type, donor heavy atom, donor atom, acceptor molecule, acceptor atom, score
      L1  H     9    32       P1  8028  0.02
      L1  H     9    40       P1  8028  0.12
      L1  H    15    41       P1  7948  0.99

> <Gold.Chemscore.Hbond.Weighted>
-5.2610

> <Gold.Chemscore.Metal.Weighted>
-0.0000

> <Gold.Chemscore.Lipo.Weighted>
-13.0473

> <Gold.Chemscore.Internal_Hbond.Weighted>
0.0000

> <Gold.Chemscore.DEClash.Weighted>
0.2684

> <Gold.Chemscore.DEInternal.Weighted>
0.6702

> <Gold.Chemscore.Rot.Weighted>
5.0622

> <Gold.Chemscore.Internal.Correction.Weighted>
   9.000000E+99

> <Gold.Protein.RotatedTorsions>
[ 6907 6896 6895 6894 ] final  113.39 input  -60.11 | X-H torsion
[ 7974 7965 7964 7962 ] final  147.19 input  175.53 | X-H torsion
[ 8008 7997 7996 7995 ] final   21.48 input   59.86 | X-H torsion
[ 10167 10162 10161 10158 ] final   42.63 input  -65.29 | X-H torsion
[ 10718 10713 10712 10709 ] final -120.00 input   66.30 | X-H torsion
[ 10763 10752 10751 10750 ] final   88.87 input  -60.55 | X-H torsion
[ 11005 11000 10999 10996 ] final   32.50 input  -57.11 | X-H torsion

> <Gold.Protein.ActiveResidues>
 VAL166  LYS551  ARG553  GLY616  TRP617  ASP618  TYR619  PRO620  LYS621  CYS622 
 ASP623  PHE694  ASN695  SER759  ASP760  ASP761  ALA762  ILE779  LEU786  VAL792 
 PHE793  MET794  SER795  GLU796  ALA797  LYS798  CYS799  TRP800  GLU811  SER814 

> <Gold.Protein.RotatedAtoms>
  152.4863  133.8382  159.7138 H   0  0  0  0  0  0  0  0  0  0  0  0  # atno 6907 bound_to 6896
  150.8953  133.7180  159.2900 H   0  0  0  0  0  0  0  0  0  0  0  0  # atno 6908 bound_to 6896
  151.4640  135.1044  159.9785 H   0  0  0  0  0  0  0  0  0  0  0  0  # atno 6909 bound_to 6896
  144.8611  139.5997  143.5930 H   0  0  0  0  0  0  0  0  0  0  0  0  # atno 7974 bound_to 7965
  154.9513  140.3066  155.5074 H   0  0  0  0  0  0  0  0  0  0  0  0  # atno 8008 bound_to 7997
  156.2987  140.2318  156.4529 H   0  0  0  0  0  0  0  0  0  0  0  0  # atno 8009 bound_to 7997
  154.8052  140.0431  157.1291 H   0  0  0  0  0  0  0  0  0  0  0  0  # atno 8010 bound_to 7997
  140.3524  144.2333  150.6144 H   0  0  0  0  0  0  0  0  0  0  0  0  # atno 10167 bound_to 10162
  156.1224  130.6333  150.9485 H   0  0  0  0  0  0  0  0  0  0  0  0  # atno 10718 bound_to 10713
  153.1813  135.4491  155.0031 H   0  0  0  0  0  0  0  0  0  0  0  0  # atno 10763 bound_to 10752
  154.8032  135.3264  154.7501 H   0  0  0  0  0  0  0  0  0  0  0  0  # atno 10764 bound_to 10752
  153.7965  135.6966  153.4918 H   0  0  0  0  0  0  0  0  0  0  0  0  # atno 10765 bound_to 10752
  140.2729  134.3062  155.7822 H   0  0  0  0  0  0  0  0  0  0  0  0  # atno 11005 bound_to 11000
  146.2861  139.7009  142.9194 LP  0  0  0  0  0  0  0  0  0  0  0  0  # atno 17320 bound_to 7965
  145.4310  141.0415  143.2911 LP  0  0  0  0  0  0  0  0  0  0  0  0  # atno 17321 bound_to 7965
  140.5206  143.2267  151.8395 LP  0  0  0  0  0  0  0  0  0  0  0  0  # atno 17342 bound_to 10162
  139.4824  144.4841  151.9269 LP  0  0  0  0  0  0  0  0  0  0  0  0  # atno 17343 bound_to 10162
  157.6407  131.0910  150.8257 LP  0  0  0  0  0  0  0  0  0  0  0  0  # atno 17370 bound_to 10713
  156.8352  130.5029  149.5327 LP  0  0  0  0  0  0  0  0  0  0  0  0  # atno 17371 bound_to 10713
  141.2175  133.7477  156.9362 LP  0  0  0  0  0  0  0  0  0  0  0  0  # atno 17394 bound_to 11000
  140.1356  134.9327  157.2397 LP  0  0  0  0  0  0  0  0  0  0  0  0  # atno 17395 bound_to 11000

$$$$
