AV-unprocessed.smi:2178|AV-procd|sdf|8855|dock1
  -GOLD-   2272012 53D 1   1.00000     0.00000
 Structure written by MMmdl.
 47 49  0  0  0  0  0  0  0  0  2 V2000
  151.8533  143.8788  161.2591 C   0  0  0  0  0  0  0  0  0  0  0  0
  152.5694  142.5543  161.0714 C   0  0  0  0  0  0  0  0  0  0  0  0
  153.6946  142.2554  161.8669 C   0  0  0  0  0  0  0  0  0  0  0  0
  154.3791  141.0377  161.6982 C   0  0  0  0  0  0  0  0  0  0  0  0
  153.9452  140.1148  160.7287 C   0  0  0  0  0  0  0  0  0  0  0  0
  152.8212  140.4029  159.9272 C   0  0  0  0  0  0  0  0  0  0  0  0
  152.3724  139.4027  158.8778 C   0  0  0  0  0  0  0  0  0  0  0  0
  152.1217  141.6194  160.1081 C   0  0  0  0  0  0  0  0  0  0  0  0
  151.0295  141.9005  159.3292 O   0  0  0  0  0  0  0  0  0  0  0  0
  151.3371  142.0656  157.9517 C   0  0  0  0  0  0  0  0  0  0  0  0
  150.5693  141.0303  157.1158 C   0  0  1  0  0  0  0  0  0  0  0  0
  149.1822  141.1886  157.3374 O   0  0  0  0  0  0  0  0  0  0  0  0
  150.9206  141.0708  155.6144 C   0  0  0  0  0  0  0  0  0  0  0  0
  150.0837  140.1676  154.8078 N   0  0  0  0  0  0  0  0  0  0  0  0
  150.3214  138.8933  154.3814 C   0  0  0  0  0  0  0  0  0  0  0  0
  151.5369  138.0676  154.6471 C   0  0  0  0  0  0  0  0  0  0  0  0
  151.4554  136.7894  154.0567 O   0  0  0  0  0  0  0  0  0  0  0  0
  149.2299  138.4958  153.6689 N   0  3  0  0  0  0  0  0  0  0  0  0
  148.2860  139.5227  153.6363 C   0  0  0  0  0  0  0  0  0  0  0  0
  147.0306  139.5872  153.0397 C   0  0  0  0  0  0  0  0  0  0  0  0
  146.3143  140.7913  153.2009 C   0  0  0  0  0  0  0  0  0  0  0  0
  146.8489  141.8707  153.9335 C   0  0  0  0  0  0  0  0  0  0  0  0
  148.1225  141.7934  154.5345 C   0  0  0  0  0  0  0  0  0  0  0  0
  148.8265  140.6006  154.3674 C   0  0  0  0  0  0  0  0  0  0  0  0
  152.5076  144.6146  161.7278 H   0  0  0  0  0  0  0  0  0  0  0  0
  150.9778  143.7481  161.8949 H   0  0  0  0  0  0  0  0  0  0  0  0
  151.5272  144.2857  160.3015 H   0  0  0  0  0  0  0  0  0  0  0  0
  154.0383  142.9615  162.6087 H   0  0  0  0  0  0  0  0  0  0  0  0
  155.2411  140.8140  162.3094 H   0  0  0  0  0  0  0  0  0  0  0  0
  154.4803  139.1852  160.6016 H   0  0  0  0  0  0  0  0  0  0  0  0
  152.0850  139.9105  157.9566 H   0  0  0  0  0  0  0  0  0  0  0  0
  151.5158  138.8336  159.2390 H   0  0  0  0  0  0  0  0  0  0  0  0
  153.1708  138.7004  158.6363 H   0  0  0  0  0  0  0  0  0  0  0  0
  151.0400  143.0666  157.6355 H   0  0  0  0  0  0  0  0  0  0  0  0
  152.4107  141.9861  157.7751 H   0  0  0  0  0  0  0  0  0  0  0  0
  150.8217  140.0431  157.5036 H   0  0  0  0  0  0  0  0  0  0  0  0
  148.8869  140.4843  157.8938 H   0  0  0  0  0  0  0  0  0  0  0  0
  150.8430  142.0807  155.2120 H   0  0  0  0  0  0  0  0  0  0  0  0
  151.9596  140.7740  155.4702 H   0  0  0  0  0  0  0  0  0  0  0  0
  152.4163  138.5822  154.2587 H   0  0  0  0  0  0  0  0  0  0  0  0
  151.6807  137.9584  155.7218 H   0  0  0  0  0  0  0  0  0  0  0  0
  150.6004  136.4283  154.2362 H   0  0  0  0  0  0  0  0  0  0  0  0
  146.6177  138.7607  152.4801 H   0  0  0  0  0  0  0  0  0  0  0  0
  145.3349  140.8882  152.7552 H   0  0  0  0  0  0  0  0  0  0  0  0
  146.2703  142.7771  154.0385 H   0  0  0  0  0  0  0  0  0  0  0  0
  148.5175  142.6255  155.0987 H   0  0  0  0  0  0  0  0  0  0  0  0
  149.1389  137.5836  153.2402 H   0  0  0  0  0  0  0  0  0  0  0  0
  1  2  1  0  0  0  0
  1 25  1  0  0  0  0
  1 26  1  0  0  0  0
  1 27  1  0  0  0  0
  2  8  1  0  0  0  0
  2  3  2  0  0  0  0
  3  4  1  0  0  0  0
  3 28  1  0  0  0  0
  4  5  2  0  0  0  0
  4 29  1  0  0  0  0
  5  6  1  0  0  0  0
  5 30  1  0  0  0  0
  6  7  1  0  0  0  0
  6  8  2  0  0  0  0
  7 31  1  0  0  0  0
  7 32  1  0  0  0  0
  7 33  1  0  0  0  0
  8  9  1  0  0  0  0
  9 10  1  0  0  0  0
 10 11  1  0  0  0  0
 10 34  1  0  0  0  0
 10 35  1  0  0  0  0
 11 12  1  0  0  0  0
 11 13  1  0  0  0  0
 11 36  1  0  0  0  0
 12 37  1  0  0  0  0
 13 14  1  0  0  0  0
 13 38  1  0  0  0  0
 13 39  1  0  0  0  0
 14 24  1  0  0  0  0
 14 15  1  0  0  0  0
 15 16  1  0  0  0  0
 15 18  2  0  0  0  0
 16 17  1  0  0  0  0
 16 40  1  0  0  0  0
 16 41  1  0  0  0  0
 17 42  1  0  0  0  0
 18 19  1  0  0  0  0
 18 47  1  0  0  0  0
 19 24  2  0  0  0  0
 19 20  1  0  0  0  0
 20 21  2  0  0  0  0
 20 43  1  0  0  0  0
 21 22  1  0  0  0  0
 21 44  1  0  0  0  0
 22 23  2  0  0  0  0
 22 45  1  0  0  0  0
 23 24  1  0  0  0  0
 23 46  1  0  0  0  0
M  CHG  1  18   1
M  END
> <s_m_source_file>
AV-unprocessed.smi

> <i_m_source_file_index>
2178

> <i_lp_mmshare_version>
43012

> <i_f3d_flags>
0

> <s_epik_input>
W0NIM11jMVtjSF1bY0hdW2NIXWMoW0NIM10pYzFPW0NIMl1bQ0BIXShbT0hdKVtDSDJdbihjKG4yKVtDSDJdW09IXSljKGMyMylbY0hdW2NIXVtjSF1bY0hdMw==

> <s_epik_cmdline>
J2VwaWtfcHl0aG9uJywgJy1waCcsICc3LjAnLCAnLXRuJywgJzgnLCAnLW1hJywgJzIwMCcsICctbWV0YWxfYmluZGluZycsICctaW1hZScsICc8aW5maWxlLm1hZT4nLCAnLW9tYWUnLCAnPG91dGZpbGUubWFlPic=

> <r_lp_tautomer_probability>
1

> <r_epik_Ionization_Penalty>
1.43125

> <r_epik_Ionization_Penalty_Charging>
1.43039

> <r_epik_Ionization_Penalty_Neutral>
0.000858184

> <r_epik_State_Penalty>
1.51493

> <r_epik_Charging_Adjusted_Penalty>
2.94531

> <i_epik_Tot_Q>
1

> <i_epik_Tot_abs_Q>
1

> <r_epik_Metal_State_Penalty>
5.5599

> <b_epik_Metal_Only>
0

> <s_lp_Force_Field>
OPLS_2005

> <r_lp_Energy>
23.7174

> <b_lp_Chiralities_Consistent>
1

> <s_lp_Variant>
AV-unprocessed.smi:2178-4

> <Gold.Version>
5.8.1

> <Gold.Id.Protein>
6NUR|6NUR_protein|mol2

> <Gold.PLP.Fitness>
58.2553

> <Gold.PLP.PLP>
-50.6019

> <Gold.PLP.part.hbond>
-4.7183

> <Gold.PLP.part.metal>
0.0000

> <Gold.PLP.part.buried>
3.6070

> <Gold.PLP.part.nonpolar>
-48.0802

> <Gold.PLP.part.repulsive>
0.0553

> <Gold.PLP.ligand.clash>
0.0000

> <Gold.PLP.ligand.torsion>
0.7905

> <Gold.PLP.Chemscore.Hbond>
3.0000

> <Gold.PLP.Chemscore.CHOScore>
0.0000

> <Gold.PLP.Chemscore.Metal>
0.0000

> <Gold.Chemscore.Hbonds>
donor molecule, donor type, donor heavy atom, donor atom, acceptor molecule, acceptor atom, score
      L1  H    18    47       P1  7948  2.00
      P1  H 10752 10764       L1    17  1.00

> <Gold.PLP.Chemscore.Internal.Correction>
0.2343

> <Gold.Rescore>
     Score         DG    S(hbond)    S(metal)    S(lipo)     H(rot)  DE(clash)    DE(int)     intcor
     17.99     -20.78       1.87        0.00     144.09       3.05       1.88       0.92       ----

> <Gold.Chemscore.Fitness>
17.9900

> <Gold.Chemscore.DG>
-20.7827

> <Gold.Chemscore.ZeroCoef>
-5.4800

> <Gold.Chemscore.Hbond>
1.8701

> <Gold.Chemscore.Metal>
0.0000

> <Gold.Chemscore.Lipo>
144.0895

> <Gold.Chemscore.Internal_Hbond>
0.0000

> <Gold.Chemscore.DEClash>
1.8772

> <Gold.Chemscore.DEInternal>
0.9156

> <Gold.Chemscore.Rot>
3.0476

> <Gold.Chemscore.Internal.Correction>
   9.000000E+99

> <Gold.Chemscore.Hbonds>
donor molecule, donor type, donor heavy atom, donor atom, acceptor molecule, acceptor atom, score
      L1  H    18    47       P1  7948  0.99
      P1  H 10752 10764       L1    17  0.75

> <Gold.Chemscore.Hbond.Weighted>
-6.2460

> <Gold.Chemscore.Metal.Weighted>
-0.0000

> <Gold.Chemscore.Lipo.Weighted>
-16.8585

> <Gold.Chemscore.Internal_Hbond.Weighted>
0.0000

> <Gold.Chemscore.DEClash.Weighted>
1.8772

> <Gold.Chemscore.DEInternal.Weighted>
0.9156

> <Gold.Chemscore.Rot.Weighted>
7.8018

> <Gold.Chemscore.Internal.Correction.Weighted>
   9.000000E+99

> <Gold.Protein.RotatedTorsions>
[ 6907 6896 6895 6894 ] final  -32.17 input  -60.11 | X-H torsion
[ 7974 7965 7964 7962 ] final  118.90 input  175.53 | X-H torsion
[ 8008 7997 7996 7995 ] final  143.32 input   59.86 | X-H torsion
[ 10167 10162 10161 10158 ] final  163.84 input  -65.29 | X-H torsion
[ 10718 10713 10712 10709 ] final -175.07 input   66.30 | X-H torsion
[ 10763 10752 10751 10750 ] final  -63.74 input  -60.55 | X-H torsion
[ 11005 11000 10999 10996 ] final -136.68 input  -57.11 | X-H torsion

> <Gold.Protein.ActiveResidues>
 VAL166  LYS551  ARG553  GLY616  TRP617  ASP618  TYR619  PRO620  LYS621  CYS622 
 ASP623  PHE694  ASN695  SER759  ASP760  ASP761  ALA762  ILE779  LEU786  VAL792 
 PHE793  MET794  SER795  GLU796  ALA797  LYS798  CYS799  TRP800  GLU811  SER814 

> <Gold.Protein.RotatedAtoms>
  151.0824  134.9866  159.8362 H   0  0  0  0  0  0  0  0  0  0  0  0  # atno 6907 bound_to 6896
  152.5421  134.2166  159.8781 H   0  0  0  0  0  0  0  0  0  0  0  0  # atno 6908 bound_to 6896
  151.2197  133.4466  159.2634 H   0  0  0  0  0  0  0  0  0  0  0  0  # atno 6909 bound_to 6896
  145.1496  139.3218  143.4573 H   0  0  0  0  0  0  0  0  0  0  0  0  # atno 7974 bound_to 7965
  156.2932  140.2265  156.4872 H   0  0  0  0  0  0  0  0  0  0  0  0  # atno 8008 bound_to 7997
  154.7802  140.0461  157.1142 H   0  0  0  0  0  0  0  0  0  0  0  0  # atno 8009 bound_to 7997
  154.9768  140.3073  155.4967 H   0  0  0  0  0  0  0  0  0  0  0  0  # atno 8010 bound_to 7997
  139.4880  144.4296  151.9087 H   0  0  0  0  0  0  0  0  0  0  0  0  # atno 10167 bound_to 10162
  156.7944  130.9529  151.3120 H   0  0  0  0  0  0  0  0  0  0  0  0  # atno 10718 bound_to 10713
  154.3196  135.6199  153.5502 H   0  0  0  0  0  0  0  0  0  0  0  0  # atno 10763 bound_to 10752
  152.9821  135.5721  154.5085 H   0  0  0  0  0  0  0  0  0  0  0  0  # atno 10764 bound_to 10752
  154.4751  135.2861  155.1590 H   0  0  0  0  0  0  0  0  0  0  0  0  # atno 10765 bound_to 10752
  140.8783  134.1964  157.4608 H   0  0  0  0  0  0  0  0  0  0  0  0  # atno 11005 bound_to 11000
  146.3496  140.1566  142.8591 LP  0  0  0  0  0  0  0  0  0  0  0  0  # atno 17320 bound_to 7965
  145.0444  140.8970  143.5033 LP  0  0  0  0  0  0  0  0  0  0  0  0  # atno 17321 bound_to 7965
  140.3743  144.2816  150.5916 LP  0  0  0  0  0  0  0  0  0  0  0  0  # atno 17342 bound_to 10162
  140.5290  143.2247  151.8268 LP  0  0  0  0  0  0  0  0  0  0  0  0  # atno 17343 bound_to 10162
  157.6585  130.8945  149.9778 LP  0  0  0  0  0  0  0  0  0  0  0  0  # atno 17370 bound_to 10713
  156.1139  130.3648  150.0001 LP  0  0  0  0  0  0  0  0  0  0  0  0  # atno 17371 bound_to 10713
  139.8717  134.9805  156.5081 LP  0  0  0  0  0  0  0  0  0  0  0  0  # atno 17394 bound_to 11000
  140.8492  133.8145  155.9151 LP  0  0  0  0  0  0  0  0  0  0  0  0  # atno 17395 bound_to 11000

$$$$
