AV-unprocessed.smi:2439|AV-procd|sdf|9612|dock4
  -GOLD-   2272013243D 1   1.00000     0.00000
 Structure written by MMmdl.
 40 42  0  0  0  0  0  0  0  0  1 V2000
  153.4363  140.0571  161.3781 N   0  0  0  0  0  0  0  0  0  0  0  0
  152.9356  140.9838  160.8995 C   0  0  0  0  0  0  0  0  0  0  0  0
  152.3049  142.1517  160.2961 C   0  0  0  0  0  0  0  0  0  0  0  0
  152.3355  143.3790  160.9908 C   0  0  0  0  0  0  0  0  0  0  0  0
  151.7275  144.5092  160.4144 C   0  0  0  0  0  0  0  0  0  0  0  0
  151.1098  144.3652  159.1588 C   0  0  0  0  0  0  0  0  0  0  0  0
  151.0731  143.1978  158.4833 N   0  0  0  0  0  0  0  0  0  0  0  0
  151.6587  142.1046  159.0314 C   0  0  0  0  0  0  0  0  0  0  0  0
  151.6047  140.9035  158.3024 N   0  0  0  0  0  0  0  0  0  0  0  0
  150.7586  140.7756  157.1241 C   0  0  0  0  0  0  0  0  0  0  0  0
  151.5073  140.0920  155.9643 C   0  0  1  0  0  0  0  0  0  0  0  0
  151.7372  138.5873  156.2027 C   0  0  0  0  0  0  0  0  0  0  0  0
  150.5113  137.8048  156.0952 N   0  0  0  0  0  0  0  0  0  0  0  0
  150.7759  136.3820  156.3046 C   0  0  0  0  0  0  0  0  0  0  0  0
  149.4988  135.5303  156.2356 C   0  0  0  0  0  0  0  0  0  0  0  0
  148.7886  135.7447  154.8917 C   0  0  0  0  0  0  0  0  0  0  0  0
  148.5614  137.2448  154.6493 C   0  0  0  0  0  0  0  0  0  0  0  0
  149.8781  138.0367  154.7940 C   0  0  1  0  0  0  0  0  0  0  0  0
  149.6290  139.5400  154.5603 C   0  0  0  0  0  0  0  0  0  0  0  0
  150.8406  140.2757  154.7137 O   0  0  0  0  0  0  0  0  0  0  0  0
  152.8176  143.4589  161.9547 H   0  0  0  0  0  0  0  0  0  0  0  0
  151.7343  145.4621  160.9224 H   0  0  0  0  0  0  0  0  0  0  0  0
  150.6316  145.2092  158.6840 H   0  0  0  0  0  0  0  0  0  0  0  0
  152.2724  140.1710  158.4969 H   0  0  0  0  0  0  0  0  0  0  0  0
  149.8867  140.1783  157.3929 H   0  0  0  0  0  0  0  0  0  0  0  0
  150.3859  141.7551  156.8247 H   0  0  0  0  0  0  0  0  0  0  0  0
  152.4855  140.5662  155.8757 H   0  0  0  0  0  0  0  0  0  0  0  0
  152.4625  138.2245  155.4728 H   0  0  0  0  0  0  0  0  0  0  0  0
  152.1894  138.4373  157.1840 H   0  0  0  0  0  0  0  0  0  0  0  0
  151.4888  136.0245  155.5599 H   0  0  0  0  0  0  0  0  0  0  0  0
  151.2475  136.2366  157.2771 H   0  0  0  0  0  0  0  0  0  0  0  0
  149.7420  134.4758  156.3685 H   0  0  0  0  0  0  0  0  0  0  0  0
  148.8316  135.8031  157.0542 H   0  0  0  0  0  0  0  0  0  0  0  0
  149.3970  135.3319  154.0862 H   0  0  0  0  0  0  0  0  0  0  0  0
  147.8392  135.2092  154.8745 H   0  0  0  0  0  0  0  0  0  0  0  0
  148.1367  137.3966  153.6564 H   0  0  0  0  0  0  0  0  0  0  0  0
  147.8254  137.6197  155.3621 H   0  0  0  0  0  0  0  0  0  0  0  0
  150.5595  137.6931  154.0136 H   0  0  0  0  0  0  0  0  0  0  0  0
  149.2519  139.7070  153.5512 H   0  0  0  0  0  0  0  0  0  0  0  0
  148.8682  139.9217  155.2417 H   0  0  0  0  0  0  0  0  0  0  0  0
  1  2  3  0  0  0  0
  2  3  1  0  0  0  0
  3  8  1  0  0  0  0
  3  4  2  0  0  0  0
  4  5  1  0  0  0  0
  4 21  1  0  0  0  0
  5  6  2  0  0  0  0
  5 22  1  0  0  0  0
  6  7  1  0  0  0  0
  6 23  1  0  0  0  0
  7  8  2  0  0  0  0
  8  9  1  0  0  0  0
  9 10  1  0  0  0  0
  9 24  1  0  0  0  0
 10 11  1  0  0  0  0
 10 25  1  0  0  0  0
 10 26  1  0  0  0  0
 11 20  1  0  0  0  0
 11 12  1  0  0  0  0
 11 27  1  0  0  0  0
 12 13  1  0  0  0  0
 12 28  1  0  0  0  0
 12 29  1  0  0  0  0
 13 18  1  0  0  0  0
 13 14  1  0  0  0  0
 14 15  1  0  0  0  0
 14 30  1  0  0  0  0
 14 31  1  0  0  0  0
 15 16  1  0  0  0  0
 15 32  1  0  0  0  0
 15 33  1  0  0  0  0
 16 17  1  0  0  0  0
 16 34  1  0  0  0  0
 16 35  1  0  0  0  0
 17 18  1  0  0  0  0
 17 36  1  0  0  0  0
 17 37  1  0  0  0  0
 18 19  1  0  0  0  0
 18 38  1  0  0  0  0
 19 20  1  0  0  0  0
 19 39  1  0  0  0  0
 19 40  1  0  0  0  0
M  END
> <s_m_source_file>
AV-unprocessed.smi

> <i_m_source_file_index>
2439

> <i_lp_mmshare_version>
43012

> <i_f3d_flags>
0

> <s_epik_input>
TiNDYzFbY0hdW2NIXVtjSF1uYzFbTkhdW0NIMl1bQ0BIXShbQ0gyXTIpT1tDSDJdW0NAQEhdKE4yMylbQ0gyXVtDSDJdW0NIMl1bQ0gyXTM=

> <s_epik_cmdline>
J2VwaWtfcHl0aG9uJywgJy1waCcsICc3LjAnLCAnLXRuJywgJzgnLCAnLW1hJywgJzIwMCcsICctbWV0YWxfYmluZGluZycsICctaW1hZScsICc8aW5maWxlLm1hZT4nLCAnLW9tYWUnLCAnPG91dGZpbGUubWFlPic=

> <r_epik_Ionization_Penalty>
1.22355

> <r_epik_Ionization_Penalty_Charging>
0

> <r_epik_Ionization_Penalty_Neutral>
1.22355

> <r_epik_State_Penalty>
1.29103

> <r_epik_Charging_Adjusted_Penalty>
1.29103

> <i_epik_Tot_Q>
0

> <i_epik_Tot_abs_Q>
0

> <r_epik_Metal_State_Penalty>
1.29103

> <b_epik_Metal_Only>
0

> <s_lp_Force_Field>
OPLS_2005

> <r_lp_Energy>
40.6054

> <b_lp_Chiralities_Consistent>
1

> <s_lp_Variant>
AV-unprocessed.smi:2439-10

> <Gold.Version>
5.8.1

> <Gold.Id.Protein>
6NUR|6NUR_protein|mol2

> <Gold.PLP.Fitness>
43.2679

> <Gold.PLP.PLP>
-37.6618

> <Gold.PLP.part.hbond>
-0.9779

> <Gold.PLP.part.metal>
0.0000

> <Gold.PLP.part.buried>
-5.8738

> <Gold.PLP.part.nonpolar>
-31.4506

> <Gold.PLP.part.repulsive>
0.3014

> <Gold.PLP.ligand.clash>
0.0000

> <Gold.PLP.ligand.torsion>
0.2134

> <Gold.PLP.Chemscore.Hbond>
1.0000

> <Gold.PLP.Chemscore.CHOScore>
1.0088

> <Gold.PLP.Chemscore.Metal>
0.0000

> <Gold.Chemscore.Hbonds>
donor molecule, donor type, donor heavy atom, donor atom, acceptor molecule, acceptor atom, score
      P1  H  7989  7998       L1    20  1.00

> <Gold.PLP.Chemscore.Internal.Correction>
0.0065

> <Gold.Rescore>
     Score         DG    S(hbond)    S(metal)    S(lipo)     H(rot)  DE(clash)    DE(int)     intcor
     16.58     -16.80       0.94        0.00      97.12       1.25       0.07       0.15       ----

> <Gold.Chemscore.Fitness>
16.5785

> <Gold.Chemscore.DG>
-16.7994

> <Gold.Chemscore.ZeroCoef>
-5.4800

> <Gold.Chemscore.Hbond>
0.9438

> <Gold.Chemscore.Metal>
0.0000

> <Gold.Chemscore.Lipo>
97.1221

> <Gold.Chemscore.Internal_Hbond>
0.0000

> <Gold.Chemscore.DEClash>
0.0750

> <Gold.Chemscore.DEInternal>
0.1459

> <Gold.Chemscore.Rot>
1.2485

> <Gold.Chemscore.Internal.Correction>
   9.000000E+99

> <Gold.Chemscore.Hbonds>
donor molecule, donor type, donor heavy atom, donor atom, acceptor molecule, acceptor atom, score
      P1  H  7989  7998       L1    20  0.93

> <Gold.Chemscore.Hbond.Weighted>
-3.1523

> <Gold.Chemscore.Metal.Weighted>
-0.0000

> <Gold.Chemscore.Lipo.Weighted>
-11.3633

> <Gold.Chemscore.Internal_Hbond.Weighted>
0.0000

> <Gold.Chemscore.DEClash.Weighted>
0.0750

> <Gold.Chemscore.DEInternal.Weighted>
0.1459

> <Gold.Chemscore.Rot.Weighted>
3.1961

> <Gold.Chemscore.Internal.Correction.Weighted>
   9.000000E+99

> <Gold.Protein.RotatedTorsions>
[ 6907 6896 6895 6894 ] final -120.75 input  -60.11 | X-H torsion
[ 7974 7965 7964 7962 ] final -134.68 input  175.53 | X-H torsion
[ 8008 7997 7996 7995 ] final -145.67 input   59.86 | X-H torsion
[ 10167 10162 10161 10158 ] final -128.08 input  -65.29 | X-H torsion
[ 10718 10713 10712 10709 ] final  -26.06 input   66.30 | X-H torsion
[ 10763 10752 10751 10750 ] final -150.80 input  -60.55 | X-H torsion
[ 11005 11000 10999 10996 ] final -107.95 input  -57.11 | X-H torsion

> <Gold.Protein.ActiveResidues>
 VAL166  LYS551  ARG553  GLY616  TRP617  ASP618  TYR619  PRO620  LYS621  CYS622 
 ASP623  PHE694  ASN695  SER759  ASP760  ASP761  ALA762  ILE779  LEU786  VAL792 
 PHE793  MET794  SER795  GLU796  ALA797  LYS798  CYS799  TRP800  GLU811  SER814 

> <Gold.Protein.RotatedAtoms>
  150.8421  133.7920  159.3056 H   0  0  0  0  0  0  0  0  0  0  0  0  # atno 6907 bound_to 6896
  151.5618  135.1063  159.9984 H   0  0  0  0  0  0  0  0  0  0  0  0  # atno 6908 bound_to 6896
  152.4482  133.7535  159.6763 H   0  0  0  0  0  0  0  0  0  0  0  0  # atno 6909 bound_to 6896
  144.9081  140.6860  143.5042 H   0  0  0  0  0  0  0  0  0  0  0  0  # atno 7974 bound_to 7965
  155.5470  140.0613  157.2858 H   0  0  0  0  0  0  0  0  0  0  0  0  # atno 8008 bound_to 7997
  154.4433  140.1909  156.0692 H   0  0  0  0  0  0  0  0  0  0  0  0  # atno 8009 bound_to 7997
  156.0544  140.3280  155.7392 H   0  0  0  0  0  0  0  0  0  0  0  0  # atno 8010 bound_to 7997
  139.9540  143.6024  152.2466 H   0  0  0  0  0  0  0  0  0  0  0  0  # atno 10167 bound_to 10162
  156.4562  130.4494  149.6958 H   0  0  0  0  0  0  0  0  0  0  0  0  # atno 10718 bound_to 10713
  154.8097  135.3275  154.7338 H   0  0  0  0  0  0  0  0  0  0  0  0  # atno 10763 bound_to 10752
  153.7989  135.6905  153.4863 H   0  0  0  0  0  0  0  0  0  0  0  0  # atno 10764 bound_to 10752
  153.1867  135.4566  155.0043 H   0  0  0  0  0  0  0  0  0  0  0  0  # atno 10765 bound_to 10752
  141.0927  133.9026  157.2036 H   0  0  0  0  0  0  0  0  0  0  0  0  # atno 11005 bound_to 11000
  145.3500  139.1709  143.4439 LP  0  0  0  0  0  0  0  0  0  0  0  0  # atno 17320 bound_to 7965
  146.3144  140.3551  142.8659 LP  0  0  0  0  0  0  0  0  0  0  0  0  # atno 17321 bound_to 7965
  139.6606  144.7662  151.1971 LP  0  0  0  0  0  0  0  0  0  0  0  0  # atno 17342 bound_to 10162
  140.7574  143.6017  150.8693 LP  0  0  0  0  0  0  0  0  0  0  0  0  # atno 17343 bound_to 10162
  156.3764  130.7557  151.2545 LP  0  0  0  0  0  0  0  0  0  0  0  0  # atno 17370 bound_to 10713
  157.7500  131.0308  150.4154 LP  0  0  0  0  0  0  0  0  0  0  0  0  # atno 17371 bound_to 10713
  139.9757  135.0114  156.9624 LP  0  0  0  0  0  0  0  0  0  0  0  0  # atno 17394 bound_to 11000
  140.5213  134.0905  155.7293 LP  0  0  0  0  0  0  0  0  0  0  0  0  # atno 17395 bound_to 11000

$$$$
