AV-unprocessed.smi:2838|AV-procd|sdf|10928|dock9
  -GOLD-   2272015373D 1   1.00000     0.00000
 Structure written by MMmdl.
 48 49  0  0  0  0  0  0  0  0  1 V2000
  146.5165  142.1602  153.5273 C   0  0  0  0  0  0  0  0  0  0  0  0
  147.2444  140.8418  153.2132 C   0  0  2  0  0  0  0  0  0  0  0  0
  146.2333  139.7878  153.1135 N   0  0  0  0  0  0  0  0  0  0  0  0
  146.3505  138.6476  152.4163 C   0  0  0  0  0  0  0  0  0  0  0  0
  147.3606  138.3316  151.7882 O   0  0  0  0  0  0  0  0  0  0  0  0
  145.2236  137.9193  152.4845 N   0  0  0  0  0  0  0  0  0  0  0  0
  144.9688  136.6498  151.9013 C   0  0  0  0  0  0  0  0  0  0  0  0
  145.8577  135.9601  151.0433 C   0  0  0  0  0  0  0  0  0  0  0  0
  145.5546  134.7451  150.5390 N   0  0  0  0  0  0  0  0  0  0  0  0
  144.3926  134.1880  150.9047 C   0  0  0  0  0  0  0  0  0  0  0  0
  143.9900  132.8814  150.1983 C   0  0  0  0  0  0  0  0  0  0  0  0
  145.0068  131.7519  150.4879 C   0  0  0  0  0  0  0  0  0  0  0  0
  143.9786  133.0626  148.6623 C   0  0  0  0  0  0  0  0  0  0  0  0
  142.5930  132.4487  150.6803 C   0  0  0  0  0  0  0  0  0  0  0  0
  143.4732  134.7694  151.6867 N   0  0  0  0  0  0  0  0  0  0  0  0
  143.7650  135.9822  152.2018 C   0  0  0  0  0  0  0  0  0  0  0  0
  148.3301  140.4773  154.2631 C   0  0  0  0  0  0  0  0  0  0  0  0
  149.1579  141.7022  154.7048 C   0  0  0  0  0  0  0  0  0  0  0  0
  150.2713  141.3029  155.6865 C   0  0  0  0  0  0  0  0  0  0  0  0
  151.1117  140.3193  155.0971 O   0  0  0  0  0  0  0  0  0  0  0  0
  150.4159  139.1171  154.7944 C   0  0  0  0  0  0  0  0  0  0  0  0
  149.3109  139.3947  153.7627 C   0  0  0  0  0  0  0  0  0  0  0  0
  147.1865  143.0173  153.4672 H   0  0  0  0  0  0  0  0  0  0  0  0
  146.0783  142.1449  154.5259 H   0  0  0  0  0  0  0  0  0  0  0  0
  145.7106  142.3409  152.8149 H   0  0  0  0  0  0  0  0  0  0  0  0
  147.7339  140.9681  152.2459 H   0  0  0  0  0  0  0  0  0  0  0  0
  145.3627  139.9552  153.5963 H   0  0  0  0  0  0  0  0  0  0  0  0
  144.4424  138.3453  152.9614 H   0  0  0  0  0  0  0  0  0  0  0  0
  146.8202  136.3571  150.7605 H   0  0  0  0  0  0  0  0  0  0  0  0
  144.7509  130.8390  149.9486 H   0  0  0  0  0  0  0  0  0  0  0  0
  145.0384  131.4923  151.5465 H   0  0  0  0  0  0  0  0  0  0  0  0
  146.0154  132.0380  150.1868 H   0  0  0  0  0  0  0  0  0  0  0  0
  144.9492  133.3985  148.2950 H   0  0  0  0  0  0  0  0  0  0  0  0
  143.2331  133.7909  148.3416 H   0  0  0  0  0  0  0  0  0  0  0  0
  143.7423  132.1275  148.1535 H   0  0  0  0  0  0  0  0  0  0  0  0
  142.2729  131.5246  150.1982 H   0  0  0  0  0  0  0  0  0  0  0  0
  141.8446  133.2109  150.4604 H   0  0  0  0  0  0  0  0  0  0  0  0
  142.5819  132.2793  151.7578 H   0  0  0  0  0  0  0  0  0  0  0  0
  143.0227  136.4273  152.8480 H   0  0  0  0  0  0  0  0  0  0  0  0
  147.8249  140.0809  155.1454 H   0  0  0  0  0  0  0  0  0  0  0  0
  149.6016  142.1831  153.8320 H   0  0  0  0  0  0  0  0  0  0  0  0
  148.5235  142.4476  155.1832 H   0  0  0  0  0  0  0  0  0  0  0  0
  150.8758  142.1738  155.9403 H   0  0  0  0  0  0  0  0  0  0  0  0
  149.8500  140.9259  156.6197 H   0  0  0  0  0  0  0  0  0  0  0  0
  151.1252  138.3911  154.3969 H   0  0  0  0  0  0  0  0  0  0  0  0
  149.9979  138.6863  155.7056 H   0  0  0  0  0  0  0  0  0  0  0  0
  148.7864  138.4626  153.5538 H   0  0  0  0  0  0  0  0  0  0  0  0
  149.7644  139.7134  152.8233 H   0  0  0  0  0  0  0  0  0  0  0  0
  1  2  1  0  0  0  0
  1 23  1  0  0  0  0
  1 24  1  0  0  0  0
  1 25  1  0  0  0  0
  2  3  1  0  0  0  0
  2 17  1  0  0  0  0
  2 26  1  0  0  0  0
  3  4  1  0  0  0  0
  3 27  1  0  0  0  0
  4  5  2  0  0  0  0
  4  6  1  0  0  0  0
  6  7  1  0  0  0  0
  6 28  1  0  0  0  0
  7 16  1  0  0  0  0
  7  8  2  0  0  0  0
  8  9  1  0  0  0  0
  8 29  1  0  0  0  0
  9 10  2  0  0  0  0
 10 11  1  0  0  0  0
 10 15  1  0  0  0  0
 11 12  1  0  0  0  0
 11 13  1  0  0  0  0
 11 14  1  0  0  0  0
 12 30  1  0  0  0  0
 12 31  1  0  0  0  0
 12 32  1  0  0  0  0
 13 33  1  0  0  0  0
 13 34  1  0  0  0  0
 13 35  1  0  0  0  0
 14 36  1  0  0  0  0
 14 37  1  0  0  0  0
 14 38  1  0  0  0  0
 15 16  2  0  0  0  0
 16 39  1  0  0  0  0
 17 22  1  0  0  0  0
 17 18  1  0  0  0  0
 17 40  1  0  0  0  0
 18 19  1  0  0  0  0
 18 41  1  0  0  0  0
 18 42  1  0  0  0  0
 19 20  1  0  0  0  0
 19 43  1  0  0  0  0
 19 44  1  0  0  0  0
 20 21  1  0  0  0  0
 21 22  1  0  0  0  0
 21 45  1  0  0  0  0
 21 46  1  0  0  0  0
 22 47  1  0  0  0  0
 22 48  1  0  0  0  0
M  END
> <s_m_source_file>
AV-unprocessed.smi

> <i_m_source_file_index>
2838

> <i_lp_mmshare_version>
43012

> <i_f3d_flags>
0

> <s_epik_input>
W0NIMl0xW0NIMl1PW0NIMl1bQ0gyXVtDSF0xW0NASF0oW0NIM10pW05IXUMoPU8pW05IXWMyW2NIXW5jKEMoW0NIM10pKFtDSDNdKVtDSDNdKW5bY0hdMg==

> <s_epik_cmdline>
J2VwaWtfcHl0aG9uJywgJy1waCcsICc3LjAnLCAnLXRuJywgJzgnLCAnLW1hJywgJzIwMCcsICctbWV0YWxfYmluZGluZycsICctaW1hZScsICc8aW5maWxlLm1hZT4nLCAnLW9tYWUnLCAnPG91dGZpbGUubWFlPic=

> <r_lp_tautomer_probability>
1

> <r_epik_Ionization_Penalty>
2.74753e-05

> <r_epik_Ionization_Penalty_Charging>
0

> <r_epik_Ionization_Penalty_Neutral>
2.74753e-05

> <r_epik_State_Penalty>
-0

> <r_epik_Charging_Adjusted_Penalty>
0

> <i_epik_Tot_Q>
0

> <i_epik_Tot_abs_Q>
0

> <r_epik_Metal_State_Penalty>
-0

> <b_epik_Metal_Only>
0

> <s_lp_Force_Field>
OPLS_2005

> <r_lp_Energy>
9.68517

> <b_lp_Chiralities_Consistent>
1

> <s_lp_Variant>
AV-unprocessed.smi:2838-1

> <Gold.Version>
5.8.1

> <Gold.Id.Protein>
6NUR|6NUR_protein|mol2

> <Gold.PLP.Fitness>
43.7821

> <Gold.PLP.PLP>
-35.3911

> <Gold.PLP.part.hbond>
-4.6742

> <Gold.PLP.part.metal>
0.0000

> <Gold.PLP.part.buried>
6.0466

> <Gold.PLP.part.nonpolar>
-41.5789

> <Gold.PLP.part.repulsive>
6.8864

> <Gold.PLP.ligand.clash>
0.0000

> <Gold.PLP.ligand.torsion>
0.6614

> <Gold.PLP.Chemscore.Hbond>
2.1879

> <Gold.PLP.Chemscore.CHOScore>
1.0000

> <Gold.PLP.Chemscore.Metal>
0.0000

> <Gold.Chemscore.Hbonds>
donor molecule, donor type, donor heavy atom, donor atom, acceptor molecule, acceptor atom, score
      L1  H     3    27       P1 10175  0.32
      L1  H     6    28       P1 10175  0.16
      P1  H  7954  7966       L1     5  0.81
      P1  H  7989  7998       L1    20  1.00
      L1  C     8    29       P1  7948  1.00

> <Gold.PLP.Chemscore.Internal.Correction>
0.1500

> <Gold.Rescore>
     Score         DG    S(hbond)    S(metal)    S(lipo)     H(rot)  DE(clash)    DE(int)     intcor
     10.55     -20.85       1.76        0.00     110.52       1.34       7.50       2.80       ----

> <Gold.Chemscore.Fitness>
10.5539

> <Gold.Chemscore.DG>
-20.8546

> <Gold.Chemscore.ZeroCoef>
-5.4800

> <Gold.Chemscore.Hbond>
1.7550

> <Gold.Chemscore.Metal>
0.0000

> <Gold.Chemscore.Lipo>
110.5232

> <Gold.Chemscore.Internal_Hbond>
0.0000

> <Gold.Chemscore.DEClash>
7.5015

> <Gold.Chemscore.DEInternal>
2.7992

> <Gold.Chemscore.Rot>
1.3354

> <Gold.Chemscore.Internal.Correction>
   9.000000E+99

> <Gold.Chemscore.Hbonds>
donor molecule, donor type, donor heavy atom, donor atom, acceptor molecule, acceptor atom, score
      L1  H     3    27       P1 10175  0.32
      L1  H     6    28       P1 10175  0.16
      P1  H  7954  7966       L1     5  0.80
      P1  H  7989  7998       L1    20  0.27

> <Gold.Chemscore.Hbond.Weighted>
-5.8619

> <Gold.Chemscore.Metal.Weighted>
-0.0000

> <Gold.Chemscore.Lipo.Weighted>
-12.9312

> <Gold.Chemscore.Internal_Hbond.Weighted>
0.0000

> <Gold.Chemscore.DEClash.Weighted>
7.5015

> <Gold.Chemscore.DEInternal.Weighted>
2.7992

> <Gold.Chemscore.Rot.Weighted>
3.4185

> <Gold.Chemscore.Internal.Correction.Weighted>
   9.000000E+99

> <Gold.Protein.RotatedTorsions>
[ 6907 6896 6895 6894 ] final  167.22 input  -60.11 | X-H torsion
[ 7974 7965 7964 7962 ] final  176.56 input  175.53 | X-H torsion
[ 8008 7997 7996 7995 ] final   98.35 input   59.86 | X-H torsion
[ 10167 10162 10161 10158 ] final   83.05 input  -65.29 | X-H torsion
[ 10718 10713 10712 10709 ] final   86.12 input   66.30 | X-H torsion
[ 10763 10752 10751 10750 ] final   54.47 input  -60.55 | X-H torsion
[ 11005 11000 10999 10996 ] final  115.93 input  -57.11 | X-H torsion

> <Gold.Protein.ActiveResidues>
 VAL166  LYS551  ARG553  GLY616  TRP617  ASP618  TYR619  PRO620  LYS621  CYS622 
 ASP623  PHE694  ASN695  SER759  ASP760  ASP761  ALA762  ILE779  LEU786  VAL792 
 PHE793  MET794  SER795  GLU796  ALA797  LYS798  CYS799  TRP800  GLU811  SER814 

> <Gold.Protein.RotatedAtoms>
  151.8667  133.3467  159.3721 H   0  0  0  0  0  0  0  0  0  0  0  0  # atno 6907 bound_to 6896
  150.7164  134.5153  159.5636 H   0  0  0  0  0  0  0  0  0  0  0  0  # atno 6908 bound_to 6896
  152.2677  134.7966  160.0470 H   0  0  0  0  0  0  0  0  0  0  0  0  # atno 6909 bound_to 6896
  144.7182  140.0114  143.6440 H   0  0  0  0  0  0  0  0  0  0  0  0  # atno 7974 bound_to 7965
  156.0995  140.3245  155.7923 H   0  0  0  0  0  0  0  0  0  0  0  0  # atno 8008 bound_to 7997
  155.4861  140.0558  157.2977 H   0  0  0  0  0  0  0  0  0  0  0  0  # atno 8009 bound_to 7997
  154.4688  140.2001  156.0064 H   0  0  0  0  0  0  0  0  0  0  0  0  # atno 8010 bound_to 7997
  139.9224  144.6204  150.8427 H   0  0  0  0  0  0  0  0  0  0  0  0  # atno 10167 bound_to 10162
  157.6924  131.0202  150.2924 H   0  0  0  0  0  0  0  0  0  0  0  0  # atno 10718 bound_to 10713
  152.9805  135.5744  154.4910 H   0  0  0  0  0  0  0  0  0  0  0  0  # atno 10763 bound_to 10752
  154.4444  135.2776  155.1827 H   0  0  0  0  0  0  0  0  0  0  0  0  # atno 10764 bound_to 10752
  154.3481  135.6215  153.5683 H   0  0  0  0  0  0  0  0  0  0  0  0  # atno 10765 bound_to 10752
  139.9025  134.9591  156.7120 H   0  0  0  0  0  0  0  0  0  0  0  0  # atno 11005 bound_to 11000
  146.0255  139.3288  143.0787 LP  0  0  0  0  0  0  0  0  0  0  0  0  # atno 17320 bound_to 7965
  145.8516  140.9525  143.0746 LP  0  0  0  0  0  0  0  0  0  0  0  0  # atno 17321 bound_to 7965
  140.7659  143.3288  151.2457 LP  0  0  0  0  0  0  0  0  0  0  0  0  # atno 17342 bound_to 10162
  139.6851  143.9788  152.2829 LP  0  0  0  0  0  0  0  0  0  0  0  0  # atno 17343 bound_to 10162
  156.3453  130.3822  149.7374 LP  0  0  0  0  0  0  0  0  0  0  0  0  # atno 17370 bound_to 10713
  156.4870  130.8067  151.3079 LP  0  0  0  0  0  0  0  0  0  0  0  0  # atno 17371 bound_to 10713
  140.7068  133.9258  155.8059 LP  0  0  0  0  0  0  0  0  0  0  0  0  # atno 17394 bound_to 11000
  141.0330  134.0729  157.3991 LP  0  0  0  0  0  0  0  0  0  0  0  0  # atno 17395 bound_to 11000

$$$$
