AV-unprocessed.smi:3141|AV-procd|sdf|11969|dock7
  -GOLD-   2272017373D 1   1.00000     0.00000
 Structure written by MMmdl.
 35 37  0  0  0  0  0  0  0  0  1 V2000
  151.3897  141.4420  157.7108 O   0  0  0  0  0  0  0  0  0  0  0  0
  150.8438  142.3321  157.0587 C   0  0  0  0  0  0  0  0  0  0  0  0
  151.2045  143.6217  157.0910 N   0  0  0  0  0  0  0  0  0  0  0  0
  152.2673  144.1641  157.8735 C   0  0  0  0  0  0  0  0  0  0  0  0
  152.2527  143.8882  159.3614 C   0  0  0  0  0  0  0  0  0  0  0  0
  151.9270  145.2656  158.8540 C   0  0  0  0  0  0  0  0  0  0  0  0
  149.8143  142.1287  156.2255 N   0  0  0  0  0  0  0  0  0  0  0  0
  149.2054  140.8315  155.9448 C   0  0  1  0  0  0  0  0  0  0  0  0
  147.6703  140.9369  155.8302 C   0  0  0  0  0  0  0  0  0  0  0  0
  147.3201  140.6049  154.3770 C   0  0  0  0  0  0  0  0  0  0  0  0
  148.4510  139.6938  153.9093 C   0  0  0  0  0  0  0  0  0  0  0  0
  149.6921  140.2869  154.5853 C   0  0  2  0  0  0  0  0  0  0  0  0
  150.7999  139.3517  154.7045 N   0  0  0  0  0  0  0  0  0  0  0  0
  152.0064  139.5758  155.3558 C   0  0  0  0  0  0  0  0  0  0  0  0
  152.7427  138.4193  155.2350 C   0  0  0  0  0  0  0  0  0  0  0  0
  152.0118  137.4709  154.5245 N   0  0  0  0  0  0  0  0  0  0  0  0
  150.8726  138.0921  154.2482 C   0  0  0  0  0  0  0  0  0  0  0  0
  150.6886  144.2718  156.5167 H   0  0  0  0  0  0  0  0  0  0  0  0
  153.2504  144.2252  157.4085 H   0  0  0  0  0  0  0  0  0  0  0  0
  151.4334  143.2944  159.7621 H   0  0  0  0  0  0  0  0  0  0  0  0
  153.2126  143.7482  159.8542 H   0  0  0  0  0  0  0  0  0  0  0  0
  152.6693  146.0460  159.0082 H   0  0  0  0  0  0  0  0  0  0  0  0
  150.8903  145.5914  158.9144 H   0  0  0  0  0  0  0  0  0  0  0  0
  149.4326  142.9254  155.7372 H   0  0  0  0  0  0  0  0  0  0  0  0
  149.4490  140.1286  156.7442 H   0  0  0  0  0  0  0  0  0  0  0  0
  147.2112  140.2001  156.4907 H   0  0  0  0  0  0  0  0  0  0  0  0
  147.2802  141.9125  156.1239 H   0  0  0  0  0  0  0  0  0  0  0  0
  146.3384  140.1412  154.2777 H   0  0  0  0  0  0  0  0  0  0  0  0
  147.3179  141.5195  153.7822 H   0  0  0  0  0  0  0  0  0  0  0  0
  148.2611  138.6780  154.2576 H   0  0  0  0  0  0  0  0  0  0  0  0
  148.5408  139.6620  152.8230 H   0  0  0  0  0  0  0  0  0  0  0  0
  150.0250  141.1207  153.9636 H   0  0  0  0  0  0  0  0  0  0  0  0
  152.2356  140.5138  155.8394 H   0  0  0  0  0  0  0  0  0  0  0  0
  153.7325  138.1973  155.6060 H   0  0  0  0  0  0  0  0  0  0  0  0
  150.0702  137.6165  153.7031 H   0  0  0  0  0  0  0  0  0  0  0  0
  1  2  2  0  0  0  0
  2  3  1  0  0  0  0
  2  7  1  0  0  0  0
  3  4  1  0  0  0  0
  3 18  1  0  0  0  0
  4  6  1  0  0  0  0
  4  5  1  0  0  0  0
  4 19  1  0  0  0  0
  5  6  1  0  0  0  0
  5 20  1  0  0  0  0
  5 21  1  0  0  0  0
  6 22  1  0  0  0  0
  6 23  1  0  0  0  0
  7  8  1  0  0  0  0
  7 24  1  0  0  0  0
  8 12  1  0  0  0  0
  8  9  1  0  0  0  0
  8 25  1  0  0  0  0
  9 10  1  0  0  0  0
  9 26  1  0  0  0  0
  9 27  1  0  0  0  0
 10 11  1  0  0  0  0
 10 28  1  0  0  0  0
 10 29  1  0  0  0  0
 11 12  1  0  0  0  0
 11 30  1  0  0  0  0
 11 31  1  0  0  0  0
 12 13  1  0  0  0  0
 12 32  1  0  0  0  0
 13 17  1  0  0  0  0
 13 14  1  0  0  0  0
 14 15  2  0  0  0  0
 14 33  1  0  0  0  0
 15 16  1  0  0  0  0
 15 34  1  0  0  0  0
 16 17  2  0  0  0  0
 17 35  1  0  0  0  0
M  END
> <s_m_source_file>
AV-unprocessed.smi

> <i_m_source_file_index>
3141

> <i_lp_mmshare_version>
43012

> <i_f3d_flags>
0

> <s_epik_input>
W0NIMl0xW0NIMl1bQ0hdMVtOSF1DKD1PKVtOSF1bQ0BASF0yW0NIMl1bQ0gyXVtDSDJdW0NASF0ybjNbY0hdW2NIXW5bY0hdMw==

> <s_epik_cmdline>
J2VwaWtfcHl0aG9uJywgJy1waCcsICc3LjAnLCAnLXRuJywgJzgnLCAnLW1hJywgJzIwMCcsICctbWV0YWxfYmluZGluZycsICctaW1hZScsICc8aW5maWxlLm1hZT4nLCAnLW9tYWUnLCAnPG91dGZpbGUubWFlPic=

> <r_lp_tautomer_probability>
1

> <r_epik_Ionization_Penalty>
0.728419

> <r_epik_Ionization_Penalty_Charging>
0.728357

> <r_epik_Ionization_Penalty_Neutral>
6.27871e-05

> <r_epik_State_Penalty>
0.753408

> <r_epik_Charging_Adjusted_Penalty>
1.48176

> <i_epik_Tot_Q>
0

> <i_epik_Tot_abs_Q>
0

> <r_epik_Metal_State_Penalty>
0.332413

> <b_epik_Metal_Only>
0

> <s_lp_Force_Field>
OPLS_2005

> <r_lp_Energy>
34.7591

> <b_lp_Chiralities_Consistent>
1

> <s_lp_Variant>
AV-unprocessed.smi:3141-8

> <Gold.Version>
5.8.1

> <Gold.Id.Protein>
6NUR|6NUR_protein|mol2

> <Gold.PLP.Fitness>
50.2632

> <Gold.PLP.PLP>
-39.4359

> <Gold.PLP.part.hbond>
-3.0000

> <Gold.PLP.part.metal>
0.0000

> <Gold.PLP.part.buried>
-2.0214

> <Gold.PLP.part.nonpolar>
-34.6593

> <Gold.PLP.part.repulsive>
0.2335

> <Gold.PLP.ligand.clash>
0.0000

> <Gold.PLP.ligand.torsion>
0.3320

> <Gold.PLP.Chemscore.Hbond>
2.8164

> <Gold.PLP.Chemscore.CHOScore>
1.0000

> <Gold.PLP.Chemscore.Metal>
0.0000

> <Gold.Chemscore.Hbonds>
donor molecule, donor type, donor heavy atom, donor atom, acceptor molecule, acceptor atom, score
      L1  H     3    18       P1  8028  0.94
      L1  H     7    24       P1  8028  1.00
      P1  H 10752 10763       L1    16  0.84
      L1  C    17    35       P1  7948  1.00

> <Gold.PLP.Chemscore.Internal.Correction>
0.0419

> <Gold.Rescore>
     Score         DG    S(hbond)    S(metal)    S(lipo)     H(rot)  DE(clash)    DE(int)     intcor
     19.36     -19.81       2.62        0.00      82.12       1.57       0.15       0.30       ----

> <Gold.Chemscore.Fitness>
19.3625

> <Gold.Chemscore.DG>
-19.8093

> <Gold.Chemscore.ZeroCoef>
-5.4800

> <Gold.Chemscore.Hbond>
2.6174

> <Gold.Chemscore.Metal>
0.0000

> <Gold.Chemscore.Lipo>
82.1164

> <Gold.Chemscore.Internal_Hbond>
0.0000

> <Gold.Chemscore.DEClash>
0.1464

> <Gold.Chemscore.DEInternal>
0.3004

> <Gold.Chemscore.Rot>
1.5705

> <Gold.Chemscore.Internal.Correction>
   9.000000E+99

> <Gold.Chemscore.Hbonds>
donor molecule, donor type, donor heavy atom, donor atom, acceptor molecule, acceptor atom, score
      L1  H     3    18       P1  8028  0.86
      L1  H     7    24       P1  8028  0.97
      P1  H 10752 10763       L1    16  0.68

> <Gold.Chemscore.Hbond.Weighted>
-8.7423

> <Gold.Chemscore.Metal.Weighted>
-0.0000

> <Gold.Chemscore.Lipo.Weighted>
-9.6076

> <Gold.Chemscore.Internal_Hbond.Weighted>
0.0000

> <Gold.Chemscore.DEClash.Weighted>
0.1464

> <Gold.Chemscore.DEInternal.Weighted>
0.3004

> <Gold.Chemscore.Rot.Weighted>
4.0206

> <Gold.Chemscore.Internal.Correction.Weighted>
   9.000000E+99

> <Gold.Protein.RotatedTorsions>
[ 6907 6896 6895 6894 ] final  150.92 input  -60.11 | X-H torsion
[ 7974 7965 7964 7962 ] final   83.47 input  175.53 | X-H torsion
[ 8008 7997 7996 7995 ] final  117.63 input   59.86 | X-H torsion
[ 10167 10162 10161 10158 ] final -169.68 input  -65.29 | X-H torsion
[ 10718 10713 10712 10709 ] final  -61.65 input   66.30 | X-H torsion
[ 10763 10752 10751 10750 ] final   44.01 input  -60.55 | X-H torsion
[ 11005 11000 10999 10996 ] final -105.72 input  -57.11 | X-H torsion

> <Gold.Protein.ActiveResidues>
 VAL166  LYS551  ARG553  GLY616  TRP617  ASP618  TYR619  PRO620  LYS621  CYS622 
 ASP623  PHE694  ASN695  SER759  ASP760  ASP761  ALA762  ILE779  LEU786  VAL792 
 PHE793  MET794  SER795  GLU796  ALA797  LYS798  CYS799  TRP800  GLU811  SER814 

> <Gold.Protein.RotatedAtoms>
  152.1078  133.4284  159.4616 H   0  0  0  0  0  0  0  0  0  0  0  0  # atno 6907 bound_to 6896
  150.6866  134.2685  159.4587 H   0  0  0  0  0  0  0  0  0  0  0  0  # atno 6908 bound_to 6896
  152.0551  134.9629  160.0625 H   0  0  0  0  0  0  0  0  0  0  0  0  # atno 6909 bound_to 6896
  145.6115  139.2369  143.2189 H   0  0  0  0  0  0  0  0  0  0  0  0  # atno 7974 bound_to 7965
  156.2504  140.2892  156.0708 H   0  0  0  0  0  0  0  0  0  0  0  0  # atno 8008 bound_to 7997
  155.1673  140.0401  157.2873 H   0  0  0  0  0  0  0  0  0  0  0  0  # atno 8009 bound_to 7997
  154.6350  140.2508  155.7395 H   0  0  0  0  0  0  0  0  0  0  0  0  # atno 8010 bound_to 7997
  139.5908  144.1218  152.1631 H   0  0  0  0  0  0  0  0  0  0  0  0  # atno 10167 bound_to 10162
  156.0907  130.4200  150.1024 H   0  0  0  0  0  0  0  0  0  0  0  0  # atno 10718 bound_to 10713
  152.9849  135.6084  154.3204 H   0  0  0  0  0  0  0  0  0  0  0  0  # atno 10763 bound_to 10752
  154.2914  135.2775  155.2655 H   0  0  0  0  0  0  0  0  0  0  0  0  # atno 10764 bound_to 10752
  154.4949  135.5882  153.6543 H   0  0  0  0  0  0  0  0  0  0  0  0  # atno 10765 bound_to 10752
  141.1040  133.8832  157.1769 H   0  0  0  0  0  0  0  0  0  0  0  0  # atno 11005 bound_to 11000
  146.1500  140.6938  142.9326 LP  0  0  0  0  0  0  0  0  0  0  0  0  # atno 17320 bound_to 7965
  144.7268  140.4549  143.6967 LP  0  0  0  0  0  0  0  0  0  0  0  0  # atno 17321 bound_to 7965
  140.0792  144.5715  150.7134 LP  0  0  0  0  0  0  0  0  0  0  0  0  # atno 17342 bound_to 10162
  140.7171  143.2554  151.4399 LP  0  0  0  0  0  0  0  0  0  0  0  0  # atno 17343 bound_to 10162
  156.9035  130.9628  151.3573 LP  0  0  0  0  0  0  0  0  0  0  0  0  # atno 17370 bound_to 10713
  157.6056  130.8544  149.8869 LP  0  0  0  0  0  0  0  0  0  0  0  0  # atno 17371 bound_to 10713
  139.9902  135.0067  156.9957 LP  0  0  0  0  0  0  0  0  0  0  0  0  # atno 17394 bound_to 11000
  140.4951  134.1154  155.7240 LP  0  0  0  0  0  0  0  0  0  0  0  0  # atno 17395 bound_to 11000

$$$$
