AV-unprocessed.smi:701|AV-procd|sdf|3412|dock10
  -GOLD-   22720 0393D 1   1.00000     0.00000
 Structure written by MMmdl.
 48 50  0  0  0  0  0  0  0  0  2 V2000
  146.3420  137.2744  152.3093 C   0  0  0  0  0  0  0  0  0  0  0  0
  146.9946  138.6384  152.5437 C   0  0  0  0  0  0  0  0  0  0  0  0
  147.1201  138.8490  153.9398 O   0  0  0  0  0  0  0  0  0  0  0  0
  148.3347  138.3386  154.4756 C   0  0  2  0  0  0  0  0  0  0  0  0
  148.1340  136.9872  155.1733 C   0  0  0  0  0  0  0  0  0  0  0  0
  147.8442  137.7877  156.4436 C   0  0  1  0  0  0  0  0  0  0  0  0
  148.4163  137.1712  157.6328 N   0  0  0  0  0  0  0  0  0  0  0  0
  148.0752  137.4692  158.8964 C   0  0  0  0  0  0  0  0  0  0  0  0
  147.1832  138.2698  159.1745 O   0  0  0  0  0  0  0  0  0  0  0  0
  148.8527  136.7837  160.0336 C   0  0  0  0  0  0  0  0  0  0  0  0
  148.0138  136.0250  160.9800 N   0  0  0  0  0  0  0  0  0  0  0  0
  147.3606  134.8774  160.4969 C   0  0  0  0  0  0  0  0  0  0  0  0
  146.5938  134.1082  161.2928 C   0  0  0  0  0  0  0  0  0  0  0  0
  146.4491  134.4916  162.6916 C   0  0  0  0  0  0  0  0  0  0  0  0
  145.7565  133.7987  163.4340 O   0  0  0  0  0  0  0  0  0  0  0  0
  147.1008  135.6149  163.1123 N   0  5  0  0  0  0  0  0  0  0  0  0
  147.8779  136.3874  162.2919 C   0  0  0  0  0  0  0  0  0  0  0  0
  148.4662  137.3908  162.6952 O   0  0  0  0  0  0  0  0  0  0  0  0
  148.6837  138.9534  155.8581 C   0  0  0  0  0  0  0  0  0  0  0  0
  148.1484  140.3672  156.1465 C   0  0  0  0  0  0  0  0  0  0  0  0
  148.8727  141.4530  155.3337 C   0  0  0  0  0  0  0  0  0  0  0  0
  150.3809  141.4379  155.6144 C   0  0  0  0  0  0  0  0  0  0  0  0
  150.9725  140.0380  155.4049 C   0  0  0  0  0  0  0  0  0  0  0  0
  150.1927  138.9772  156.2013 C   0  0  0  0  0  0  0  0  0  0  0  0
  146.2268  137.0750  151.2438 H   0  0  0  0  0  0  0  0  0  0  0  0
  145.3536  137.2301  152.7674 H   0  0  0  0  0  0  0  0  0  0  0  0
  146.9465  136.4739  152.7366 H   0  0  0  0  0  0  0  0  0  0  0  0
  147.9720  138.6703  152.0611 H   0  0  0  0  0  0  0  0  0  0  0  0
  146.3819  139.4247  152.1006 H   0  0  0  0  0  0  0  0  0  0  0  0
  149.1612  138.3578  153.7636 H   0  0  0  0  0  0  0  0  0  0  0  0
  147.2940  136.3932  154.8131 H   0  0  0  0  0  0  0  0  0  0  0  0
  149.0503  136.3962  155.2235 H   0  0  0  0  0  0  0  0  0  0  0  0
  146.7826  138.0308  156.5314 H   0  0  0  0  0  0  0  0  0  0  0  0
  149.1632  136.5060  157.4909 H   0  0  0  0  0  0  0  0  0  0  0  0
  149.6068  136.1290  159.5935 H   0  0  0  0  0  0  0  0  0  0  0  0
  149.4190  137.5499  160.5641 H   0  0  0  0  0  0  0  0  0  0  0  0
  147.5258  134.6599  159.4517 H   0  0  0  0  0  0  0  0  0  0  0  0
  146.1019  133.2278  160.9067 H   0  0  0  0  0  0  0  0  0  0  0  0
  147.0788  140.4241  155.9434 H   0  0  0  0  0  0  0  0  0  0  0  0
  148.2492  140.5905  157.2095 H   0  0  0  0  0  0  0  0  0  0  0  0
  148.6946  141.2933  154.2696 H   0  0  0  0  0  0  0  0  0  0  0  0
  148.4608  142.4337  155.5727 H   0  0  0  0  0  0  0  0  0  0  0  0
  150.8898  142.1602  154.9753 H   0  0  0  0  0  0  0  0  0  0  0  0
  150.5596  141.7545  156.6427 H   0  0  0  0  0  0  0  0  0  0  0  0
  150.9572  139.7900  154.3434 H   0  0  0  0  0  0  0  0  0  0  0  0
  152.0205  140.0309  155.7059 H   0  0  0  0  0  0  0  0  0  0  0  0
  150.3309  139.1731  157.2654 H   0  0  0  0  0  0  0  0  0  0  0  0
  150.6481  138.0022  156.0244 H   0  0  0  0  0  0  0  0  0  0  0  0
  1  2  1  0  0  0  0
  1 25  1  0  0  0  0
  1 26  1  0  0  0  0
  1 27  1  0  0  0  0
  2  3  1  0  0  0  0
  2 28  1  0  0  0  0
  2 29  1  0  0  0  0
  3  4  1  0  0  0  0
  4 19  1  0  0  0  0
  4  5  1  0  0  0  0
  4 30  1  0  0  0  0
  5  6  1  0  0  0  0
  5 31  1  0  0  0  0
  5 32  1  0  0  0  0
  6  7  1  0  0  0  0
  6 19  1  0  0  0  0
  6 33  1  0  0  0  0
  7  8  1  0  0  0  0
  7 34  1  0  0  0  0
  8  9  2  0  0  0  0
  8 10  1  0  0  0  0
 10 11  1  0  0  0  0
 10 35  1  0  0  0  0
 10 36  1  0  0  0  0
 11 17  1  0  0  0  0
 11 12  1  0  0  0  0
 12 13  2  0  0  0  0
 12 37  1  0  0  0  0
 13 14  1  0  0  0  0
 13 38  1  0  0  0  0
 14 15  2  0  0  0  0
 14 16  1  0  0  0  0
 16 17  1  0  0  0  0
 17 18  2  0  0  0  0
 19 24  1  0  0  0  0
 19 20  1  0  0  0  0
 20 21  1  0  0  0  0
 20 39  1  0  0  0  0
 20 40  1  0  0  0  0
 21 22  1  0  0  0  0
 21 41  1  0  0  0  0
 21 42  1  0  0  0  0
 22 23  1  0  0  0  0
 22 43  1  0  0  0  0
 22 44  1  0  0  0  0
 23 24  1  0  0  0  0
 23 45  1  0  0  0  0
 23 46  1  0  0  0  0
 24 47  1  0  0  0  0
 24 48  1  0  0  0  0
M  CHG  1  16  -1
M  END
> <s_m_source_file>
AV-unprocessed.smi

> <i_m_source_file_index>
701

> <i_lp_mmshare_version>
43012

> <i_f3d_flags>
0

> <s_epik_input>
W0NIMl0xW0NIMl1bQ0gyXVtDSDJdW0NIMl1DMTJbQ0BIXShPW0NIMl1bQ0gzXSlbQ0gyXVtDQEhdMltOSF1DKD1PKVtDSDJdbjNbY0hdW2NIXWMoPU8pW25IXWMzPU8=

> <s_epik_cmdline>
J2VwaWtfcHl0aG9uJywgJy1waCcsICc3LjAnLCAnLXRuJywgJzgnLCAnLW1hJywgJzIwMCcsICctbWV0YWxfYmluZGluZycsICctaW1hZScsICc8aW5maWxlLm1hZT4nLCAnLW9tYWUnLCAnPG91dGZpbGUubWFlPic=

> <r_lp_tautomer_probability>
0.999537

> <r_epik_Ionization_Penalty>
3.12423

> <r_epik_Ionization_Penalty_Charging>
2.92877e-08

> <r_epik_Ionization_Penalty_Neutral>
3.12423

> <r_epik_State_Penalty>
3.12332

> <r_epik_Charging_Adjusted_Penalty>
3.12332

> <i_epik_Tot_Q>
-1

> <i_epik_Tot_abs_Q>
1

> <r_epik_Metal_State_Penalty>
0.463873

> <b_epik_Metal_Only>
1

> <s_lp_Force_Field>
OPLS_2005

> <r_lp_Energy>
34.5124

> <b_lp_Chiralities_Consistent>
1

> <s_lp_Variant>
AV-unprocessed.smi:701-5

> <Gold.Version>
5.8.1

> <Gold.Id.Protein>
6NUR|6NUR_protein|mol2

> <Gold.PLP.Fitness>
36.3461

> <Gold.PLP.PLP>
-33.2766

> <Gold.PLP.part.hbond>
-2.9398

> <Gold.PLP.part.metal>
0.0000

> <Gold.PLP.part.buried>
-4.6969

> <Gold.PLP.part.nonpolar>
-26.4201

> <Gold.PLP.part.repulsive>
0.2582

> <Gold.PLP.ligand.clash>
0.0000

> <Gold.PLP.ligand.torsion>
0.8555

> <Gold.PLP.Chemscore.Hbond>
1.4800

> <Gold.PLP.Chemscore.CHOScore>
0.0000

> <Gold.PLP.Chemscore.Metal>
0.0000

> <Gold.Chemscore.Hbonds>
donor molecule, donor type, donor heavy atom, donor atom, acceptor molecule, acceptor atom, score
      P1  H  6931  6943       L1    18  0.26
      P1  H  6934  6947       L1     9  0.43

> <Gold.PLP.Chemscore.Internal.Correction>
0.3404

> <Gold.Rescore>
     Score         DG    S(hbond)    S(metal)    S(lipo)     H(rot)  DE(clash)    DE(int)     intcor
     11.37     -12.11       1.41        0.00      61.11       2.04       0.10       0.65       ----

> <Gold.Chemscore.Fitness>
11.3685

> <Gold.Chemscore.DG>
-12.1107

> <Gold.Chemscore.ZeroCoef>
-5.4800

> <Gold.Chemscore.Hbond>
1.4079

> <Gold.Chemscore.Metal>
0.0000

> <Gold.Chemscore.Lipo>
61.1149

> <Gold.Chemscore.Internal_Hbond>
0.0000

> <Gold.Chemscore.DEClash>
0.0956

> <Gold.Chemscore.DEInternal>
0.6465

> <Gold.Chemscore.Rot>
2.0399

> <Gold.Chemscore.Internal.Correction>
   9.000000E+99

> <Gold.Chemscore.Hbonds>
donor molecule, donor type, donor heavy atom, donor atom, acceptor molecule, acceptor atom, score
      P1  H  6931  6943       L1    18  0.27
      P1  H  6934  6947       L1     9  0.41

> <Gold.Chemscore.Hbond.Weighted>
-4.7024

> <Gold.Chemscore.Metal.Weighted>
-0.0000

> <Gold.Chemscore.Lipo.Weighted>
-7.1504

> <Gold.Chemscore.Internal_Hbond.Weighted>
0.0000

> <Gold.Chemscore.DEClash.Weighted>
0.0956

> <Gold.Chemscore.DEInternal.Weighted>
0.6465

> <Gold.Chemscore.Rot.Weighted>
5.2222

> <Gold.Chemscore.Internal.Correction.Weighted>
   9.000000E+99

> <Gold.Protein.RotatedTorsions>
[ 6907 6896 6895 6894 ] final   42.32 input  -60.11 | X-H torsion
[ 7974 7965 7964 7962 ] final -169.30 input  175.53 | X-H torsion
[ 8008 7997 7996 7995 ] final  176.89 input   59.86 | X-H torsion
[ 10167 10162 10161 10158 ] final  132.70 input  -65.29 | X-H torsion
[ 10718 10713 10712 10709 ] final  179.91 input   66.30 | X-H torsion
[ 10763 10752 10751 10750 ] final   24.05 input  -60.55 | X-H torsion
[ 11005 11000 10999 10996 ] final   78.01 input  -57.11 | X-H torsion

> <Gold.Protein.ActiveResidues>
 VAL166  LYS551  ARG553  GLY616  TRP617  ASP618  TYR619  PRO620  LYS621  CYS622 
 ASP623  PHE694  ASN695  SER759  ASP760  ASP761  ALA762  ILE779  LEU786  VAL792 
 PHE793  MET794  SER795  GLU796  ALA797  LYS798  CYS799  TRP800  GLU811  SER814 

> <Gold.Protein.RotatedAtoms>
  152.2064  134.8541  160.0502 H   0  0  0  0  0  0  0  0  0  0  0  0  # atno 6907 bound_to 6896
  151.9376  133.3623  159.3961 H   0  0  0  0  0  0  0  0  0  0  0  0  # atno 6908 bound_to 6896
  150.6966  134.4397  159.5330 H   0  0  0  0  0  0  0  0  0  0  0  0  # atno 6909 bound_to 6896
  144.7188  140.2241  143.6312 H   0  0  0  0  0  0  0  0  0  0  0  0  # atno 7974 bound_to 7965
  156.0715  140.1372  156.9822 H   0  0  0  0  0  0  0  0  0  0  0  0  # atno 8008 bound_to 7997
  154.4534  140.0971  156.6738 H   0  0  0  0  0  0  0  0  0  0  0  0  # atno 8009 bound_to 7997
  155.5220  140.3456  155.4411 H   0  0  0  0  0  0  0  0  0  0  0  0  # atno 8010 bound_to 7997
  139.5328  144.6650  151.4889 H   0  0  0  0  0  0  0  0  0  0  0  0  # atno 10167 bound_to 10162
  156.8687  130.9776  151.3075 H   0  0  0  0  0  0  0  0  0  0  0  0  # atno 10718 bound_to 10713
  153.0792  135.6614  154.0080 H   0  0  0  0  0  0  0  0  0  0  0  0  # atno 10763 bound_to 10752
  153.9706  135.2965  155.3429 H   0  0  0  0  0  0  0  0  0  0  0  0  # atno 10764 bound_to 10752
  154.7188  135.5173  153.8851 H   0  0  0  0  0  0  0  0  0  0  0  0  # atno 10765 bound_to 10752
  139.9230  134.7729  156.1595 H   0  0  0  0  0  0  0  0  0  0  0  0  # atno 11005 bound_to 11000
  145.8473  139.2158  143.1793 LP  0  0  0  0  0  0  0  0  0  0  0  0  # atno 17320 bound_to 7965
  146.0293  140.8273  142.9884 LP  0  0  0  0  0  0  0  0  0  0  0  0  # atno 17321 bound_to 7965
  140.6517  143.8682  150.6793 LP  0  0  0  0  0  0  0  0  0  0  0  0  # atno 17342 bound_to 10162
  140.2049  143.3929  152.1763 LP  0  0  0  0  0  0  0  0  0  0  0  0  # atno 17343 bound_to 10162
  157.6208  130.8654  149.9106 LP  0  0  0  0  0  0  0  0  0  0  0  0  # atno 17370 bound_to 10713
  156.0738  130.3681  150.0721 LP  0  0  0  0  0  0  0  0  0  0  0  0  # atno 17371 bound_to 10713
  141.0767  133.6772  156.2250 LP  0  0  0  0  0  0  0  0  0  0  0  0  # atno 17394 bound_to 11000
  140.6417  134.5159  157.5570 LP  0  0  0  0  0  0  0  0  0  0  0  0  # atno 17395 bound_to 11000

$$$$
