AV-unprocessed.smi:3170|AV-procd|sdf|12110|dock9
  -GOLD-   2272017553D 1   1.00000     0.00000
 Structure written by MMmdl.
 35 36  0  0  0  0  0  0  0  0  1 V2000
  144.7153  137.5404  152.8660 O   0  0  0  0  0  0  0  0  0  0  0  0
  145.8648  137.2949  152.5002 C   0  0  0  0  0  0  0  0  0  0  0  0
  146.1770  136.4005  151.5524 N   0  0  0  0  0  0  0  0  0  0  0  0
  145.2130  135.5964  150.8072 C   0  0  0  0  0  0  0  0  0  0  0  0
  144.3539  134.7029  151.7224 C   0  0  0  0  0  0  0  0  0  0  0  0
  144.3362  133.3202  151.2837 N   0  0  0  0  0  0  0  0  0  0  0  0
  145.0112  132.2505  151.8558 C   0  0  0  0  0  0  0  0  0  0  0  0
  144.6998  131.1413  151.1023 C   0  0  0  0  0  0  0  0  0  0  0  0
  143.8408  131.5034  150.0673 N   0  0  0  0  0  0  0  0  0  0  0  0
  143.6687  132.8073  150.2409 C   0  0  0  0  0  0  0  0  0  0  0  0
  146.9538  137.8944  152.9971 N   0  0  0  0  0  0  0  0  0  0  0  0
  146.9267  138.9197  154.0320 C   0  0  0  0  0  0  0  0  0  0  0  0
  148.1466  139.8483  153.9207 C   0  0  1  0  0  0  0  0  0  0  0  0
  148.1190  141.0182  154.8824 C   0  0  0  0  0  0  0  0  0  0  0  0
  149.5814  141.4526  154.8928 C   0  0  0  0  0  0  0  0  0  0  0  0
  150.3412  140.2672  154.6730 O   0  0  0  0  0  0  0  0  0  0  0  0
  149.4814  139.1981  154.2893 C   0  0  0  0  0  0  0  0  0  0  0  0
  147.1513  136.2718  151.3212 H   0  0  0  0  0  0  0  0  0  0  0  0
  144.5728  136.2700  150.2368 H   0  0  0  0  0  0  0  0  0  0  0  0
  145.7407  134.9824  150.0759 H   0  0  0  0  0  0  0  0  0  0  0  0
  144.7459  134.7318  152.7396 H   0  0  0  0  0  0  0  0  0  0  0  0
  143.3281  135.0698  151.7762 H   0  0  0  0  0  0  0  0  0  0  0  0
  145.6401  132.3641  152.7264 H   0  0  0  0  0  0  0  0  0  0  0  0
  145.0255  130.1187  151.2237 H   0  0  0  0  0  0  0  0  0  0  0  0
  143.0473  133.4053  149.5904 H   0  0  0  0  0  0  0  0  0  0  0  0
  147.8578  137.6300  152.6340 H   0  0  0  0  0  0  0  0  0  0  0  0
  146.0080  139.4990  153.9305 H   0  0  0  0  0  0  0  0  0  0  0  0
  146.9011  138.4499  155.0167 H   0  0  0  0  0  0  0  0  0  0  0  0
  148.2154  140.2396  152.9039 H   0  0  0  0  0  0  0  0  0  0  0  0
  147.4418  141.8142  154.5714 H   0  0  0  0  0  0  0  0  0  0  0  0
  147.8225  140.6864  155.8786 H   0  0  0  0  0  0  0  0  0  0  0  0
  149.7780  142.1463  154.0745 H   0  0  0  0  0  0  0  0  0  0  0  0
  149.8638  141.9408  155.8257 H   0  0  0  0  0  0  0  0  0  0  0  0
  149.3635  138.5294  155.1431 H   0  0  0  0  0  0  0  0  0  0  0  0
  149.9069  138.6225  153.4670 H   0  0  0  0  0  0  0  0  0  0  0  0
  1  2  2  0  0  0  0
  2  3  1  0  0  0  0
  2 11  1  0  0  0  0
  3  4  1  0  0  0  0
  3 18  1  0  0  0  0
  4  5  1  0  0  0  0
  4 19  1  0  0  0  0
  4 20  1  0  0  0  0
  5  6  1  0  0  0  0
  5 21  1  0  0  0  0
  5 22  1  0  0  0  0
  6 10  1  0  0  0  0
  6  7  1  0  0  0  0
  7  8  2  0  0  0  0
  7 23  1  0  0  0  0
  8  9  1  0  0  0  0
  8 24  1  0  0  0  0
  9 10  2  0  0  0  0
 10 25  1  0  0  0  0
 11 12  1  0  0  0  0
 11 26  1  0  0  0  0
 12 13  1  0  0  0  0
 12 27  1  0  0  0  0
 12 28  1  0  0  0  0
 13 17  1  0  0  0  0
 13 14  1  0  0  0  0
 13 29  1  0  0  0  0
 14 15  1  0  0  0  0
 14 30  1  0  0  0  0
 14 31  1  0  0  0  0
 15 16  1  0  0  0  0
 15 32  1  0  0  0  0
 15 33  1  0  0  0  0
 16 17  1  0  0  0  0
 17 34  1  0  0  0  0
 17 35  1  0  0  0  0
M  END
> <s_m_source_file>
AV-unprocessed.smi

> <i_m_source_file_index>
3170

> <i_lp_mmshare_version>
43012

> <i_f3d_flags>
0

> <s_epik_input>
W0NIMl0xT1tDSDJdW0NIMl1bQ0BIXTFbQ0gyXVtOSF1DKD1PKVtOSF1bQ0gyXVtDSDJdbjJbY0hdW2NIXW5bY0hdMg==

> <s_epik_cmdline>
J2VwaWtfcHl0aG9uJywgJy1waCcsICc3LjAnLCAnLXRuJywgJzgnLCAnLW1hJywgJzIwMCcsICctbWV0YWxfYmluZGluZycsICctaW1hZScsICc8aW5maWxlLm1hZT4nLCAnLW9tYWUnLCAnPG91dGZpbGUubWFlPic=

> <r_lp_tautomer_probability>
1

> <r_epik_Ionization_Penalty>
0.621287

> <r_epik_Ionization_Penalty_Charging>
0.621234

> <r_epik_Ionization_Penalty_Neutral>
5.30999e-05

> <r_epik_State_Penalty>
0.637278

> <r_epik_Charging_Adjusted_Penalty>
1.25851

> <i_epik_Tot_Q>
0

> <i_epik_Tot_abs_Q>
0

> <r_epik_Metal_State_Penalty>
0.306756

> <b_epik_Metal_Only>
0

> <s_lp_Force_Field>
OPLS_2005

> <r_lp_Energy>
18.1747

> <b_lp_Chiralities_Consistent>
1

> <s_lp_Variant>
AV-unprocessed.smi:3170-4

> <Gold.Version>
5.8.1

> <Gold.Id.Protein>
6NUR|6NUR_protein|mol2

> <Gold.PLP.Fitness>
43.8738

> <Gold.PLP.PLP>
-31.1591

> <Gold.PLP.part.hbond>
-4.0000

> <Gold.PLP.part.metal>
0.0000

> <Gold.PLP.part.buried>
-4.5210

> <Gold.PLP.part.nonpolar>
-24.5771

> <Gold.PLP.part.repulsive>
0.8572

> <Gold.PLP.ligand.clash>
0.0000

> <Gold.PLP.ligand.torsion>
0.7528

> <Gold.PLP.Chemscore.Hbond>
3.7280

> <Gold.PLP.Chemscore.CHOScore>
1.0000

> <Gold.PLP.Chemscore.Metal>
0.0000

> <Gold.Chemscore.Hbonds>
donor molecule, donor type, donor heavy atom, donor atom, acceptor molecule, acceptor atom, score
      L1  H     3    18       P1  7948  1.00
      L1  H    11    26       P1  7948  0.96
      P1  H  7989  7998       L1    16  1.00
      P1  H 10785 10796       L1     9  0.77
      L1  C    10    25       P1 10186  1.00

> <Gold.PLP.Chemscore.Internal.Correction>
0.0364

> <Gold.Rescore>
     Score         DG    S(hbond)    S(metal)    S(lipo)     H(rot)  DE(clash)    DE(int)     intcor
     16.99     -17.89       3.40        0.00      58.25       2.25       0.15       0.76       ----

> <Gold.Chemscore.Fitness>
16.9897

> <Gold.Chemscore.DG>
-17.8943

> <Gold.Chemscore.ZeroCoef>
-5.4800

> <Gold.Chemscore.Hbond>
3.3987

> <Gold.Chemscore.Metal>
0.0000

> <Gold.Chemscore.Lipo>
58.2543

> <Gold.Chemscore.Internal_Hbond>
0.0000

> <Gold.Chemscore.DEClash>
0.1451

> <Gold.Chemscore.DEInternal>
0.7594

> <Gold.Chemscore.Rot>
2.2474

> <Gold.Chemscore.Internal.Correction>
   9.000000E+99

> <Gold.Chemscore.Hbonds>
donor molecule, donor type, donor heavy atom, donor atom, acceptor molecule, acceptor atom, score
      L1  H     3    18       P1  7948  0.95
      L1  H    11    26       P1  7948  0.92
      P1  H  7989  7998       L1    16  0.29
      P1  H 10785 10796       L1     9  0.73

> <Gold.Chemscore.Hbond.Weighted>
-11.3518

> <Gold.Chemscore.Metal.Weighted>
-0.0000

> <Gold.Chemscore.Lipo.Weighted>
-6.8157

> <Gold.Chemscore.Internal_Hbond.Weighted>
0.0000

> <Gold.Chemscore.DEClash.Weighted>
0.1451

> <Gold.Chemscore.DEInternal.Weighted>
0.7594

> <Gold.Chemscore.Rot.Weighted>
5.7532

> <Gold.Chemscore.Internal.Correction.Weighted>
   9.000000E+99

> <Gold.Protein.RotatedTorsions>
[ 6907 6896 6895 6894 ] final  163.90 input  -60.11 | X-H torsion
[ 7974 7965 7964 7962 ] final  124.81 input  175.53 | X-H torsion
[ 8008 7997 7996 7995 ] final  109.60 input   59.86 | X-H torsion
[ 10167 10162 10161 10158 ] final  131.22 input  -65.29 | X-H torsion
[ 10718 10713 10712 10709 ] final  160.57 input   66.30 | X-H torsion
[ 10763 10752 10751 10750 ] final  118.92 input  -60.55 | X-H torsion
[ 11005 11000 10999 10996 ] final  -26.48 input  -57.11 | X-H torsion

> <Gold.Protein.ActiveResidues>
 VAL166  LYS551  ARG553  GLY616  TRP617  ASP618  TYR619  PRO620  LYS621  CYS622 
 ASP623  PHE694  ASN695  SER759  ASP760  ASP761  ALA762  ILE779  LEU786  VAL792 
 PHE793  MET794  SER795  GLU796  ALA797  LYS798  CYS799  TRP800  GLU811  SER814 

> <Gold.Protein.RotatedAtoms>
  151.9181  133.3578  159.3886 H   0  0  0  0  0  0  0  0  0  0  0  0  # atno 6907 bound_to 6896
  150.7043  134.4664  159.5414 H   0  0  0  0  0  0  0  0  0  0  0  0  # atno 6908 bound_to 6896
  152.2282  134.8348  160.0528 H   0  0  0  0  0  0  0  0  0  0  0  0  # atno 6909 bound_to 6896
  145.0802  139.3663  143.4913 H   0  0  0  0  0  0  0  0  0  0  0  0  # atno 7974 bound_to 7965
  156.1991  140.3054  155.9489 H   0  0  0  0  0  0  0  0  0  0  0  0  # atno 8008 bound_to 7997
  155.2996  140.0446  157.3045 H   0  0  0  0  0  0  0  0  0  0  0  0  # atno 8009 bound_to 7997
  154.5548  140.2302  155.8437 H   0  0  0  0  0  0  0  0  0  0  0  0  # atno 8010 bound_to 7997
  139.5394  144.6715  151.4676 H   0  0  0  0  0  0  0  0  0  0  0  0  # atno 10167 bound_to 10162
  157.1486  131.0558  151.2291 H   0  0  0  0  0  0  0  0  0  0  0  0  # atno 10718 bound_to 10713
  153.5750  135.3495  155.2852 H   0  0  0  0  0  0  0  0  0  0  0  0  # atno 10763 bound_to 10752
  154.8676  135.4168  154.2683 H   0  0  0  0  0  0  0  0  0  0  0  0  # atno 10764 bound_to 10752
  153.3457  135.7052  153.6900 H   0  0  0  0  0  0  0  0  0  0  0  0  # atno 10765 bound_to 10752
  140.9033  133.7509  156.0573 H   0  0  0  0  0  0  0  0  0  0  0  0  # atno 11005 bound_to 11000
  146.3531  140.0588  142.8631 LP  0  0  0  0  0  0  0  0  0  0  0  0  # atno 17320 bound_to 7965
  145.1188  140.9450  143.4613 LP  0  0  0  0  0  0  0  0  0  0  0  0  # atno 17321 bound_to 7965
  140.6617  143.8485  150.6895 LP  0  0  0  0  0  0  0  0  0  0  0  0  # atno 17342 bound_to 10162
  140.1881  143.4059  152.1883 LP  0  0  0  0  0  0  0  0  0  0  0  0  # atno 17343 bound_to 10162
  157.4241  130.7454  149.6937 LP  0  0  0  0  0  0  0  0  0  0  0  0  # atno 17370 bound_to 10713
  155.9775  130.4063  150.3710 LP  0  0  0  0  0  0  0  0  0  0  0  0  # atno 17371 bound_to 10713
  140.8202  134.3298  157.5384 LP  0  0  0  0  0  0  0  0  0  0  0  0  # atno 17394 bound_to 11000
  139.8745  134.9305  156.3503 LP  0  0  0  0  0  0  0  0  0  0  0  0  # atno 17395 bound_to 11000

$$$$
