AV-unprocessed.smi:1641|AV-procd|sdf|6558|dock5
  -GOLD-   22720 7243D 1   1.00000     0.00000
 Structure written by MMmdl.
 41 42  0  0  0  0  0  0  0  0  1 V2000
  143.8602  132.1596  150.8152 C   0  0  0  0  0  0  0  0  0  0  0  0
  144.4077  133.4073  151.4195 C   0  0  0  0  0  0  0  0  0  0  0  0
  143.6880  134.1935  152.2291 N   0  0  0  0  0  0  0  0  0  0  0  0
  144.4083  135.2951  152.6699 N   0  0  0  0  0  0  0  0  0  0  0  0
  145.6543  135.3071  152.1766 C   0  0  0  0  0  0  0  0  0  0  0  0
  146.6078  136.3194  152.4635 N   0  0  0  0  0  0  0  0  0  0  0  0
  146.4281  137.4641  153.1453 C   0  0  0  0  0  0  0  0  0  0  0  0
  145.3720  137.8223  153.6672 O   0  0  0  0  0  0  0  0  0  0  0  0
  147.5601  138.1821  153.1920 N   0  0  0  0  0  0  0  0  0  0  0  0
  147.7093  139.4854  153.8326 C   0  0  0  0  0  0  0  0  0  0  0  0
  148.9570  140.2326  153.3203 C   0  0  0  0  0  0  0  0  0  0  0  0
  150.1346  140.1547  154.1841 N   0  0  0  0  0  0  0  0  0  0  0  0
  150.0041  140.9638  155.3916 C   0  0  0  0  0  0  0  0  0  0  0  0
  151.2754  140.9045  156.2569 C   0  0  1  0  0  0  0  0  0  0  0  0
  151.1171  141.6811  157.5679 C   0  0  0  0  0  0  0  0  0  0  0  0
  151.5697  139.5451  156.5765 O   0  0  0  0  0  0  0  0  0  0  0  0
  151.6797  138.6659  155.4555 C   0  0  2  0  0  0  0  0  0  0  0  0
  152.9923  138.8869  154.6843 C   0  0  0  0  0  0  0  0  0  0  0  0
  150.4250  138.7782  154.5667 C   0  0  0  0  0  0  0  0  0  0  0  0
  146.0491  133.9644  151.1173 S   0  0  0  0  0  0  0  0  0  0  0  0
  143.2236  131.6394  151.5315 H   0  0  0  0  0  0  0  0  0  0  0  0
  144.6721  131.4926  150.5241 H   0  0  0  0  0  0  0  0  0  0  0  0
  143.2704  132.4016  149.9312 H   0  0  0  0  0  0  0  0  0  0  0  0
  147.5369  136.1519  152.1070 H   0  0  0  0  0  0  0  0  0  0  0  0
  148.3790  137.8061  152.7371 H   0  0  0  0  0  0  0  0  0  0  0  0
  146.8032  140.0831  153.7306 H   0  0  0  0  0  0  0  0  0  0  0  0
  147.8230  139.3058  154.9018 H   0  0  0  0  0  0  0  0  0  0  0  0
  149.2131  139.8631  152.3264 H   0  0  0  0  0  0  0  0  0  0  0  0
  148.6823  141.2796  153.1836 H   0  0  0  0  0  0  0  0  0  0  0  0
  149.8097  142.0040  155.1340 H   0  0  0  0  0  0  0  0  0  0  0  0
  149.1470  140.6223  155.9741 H   0  0  0  0  0  0  0  0  0  0  0  0
  152.1105  141.3357  155.7037 H   0  0  0  0  0  0  0  0  0  0  0  0
  150.9082  142.7339  157.3763 H   0  0  0  0  0  0  0  0  0  0  0  0
  152.0275  141.6267  158.1655 H   0  0  0  0  0  0  0  0  0  0  0  0
  150.2993  141.2805  158.1677 H   0  0  0  0  0  0  0  0  0  0  0  0
  151.7144  137.6544  155.8612 H   0  0  0  0  0  0  0  0  0  0  0  0
  153.1133  138.1364  153.9031 H   0  0  0  0  0  0  0  0  0  0  0  0
  153.8519  138.8122  155.3504 H   0  0  0  0  0  0  0  0  0  0  0  0
  153.0265  139.8643  154.2027 H   0  0  0  0  0  0  0  0  0  0  0  0
  149.5709  138.3643  155.1052 H   0  0  0  0  0  0  0  0  0  0  0  0
  150.5541  138.1615  153.6764 H   0  0  0  0  0  0  0  0  0  0  0  0
  1  2  1  0  0  0  0
  1 21  1  0  0  0  0
  1 22  1  0  0  0  0
  1 23  1  0  0  0  0
  2 20  1  0  0  0  0
  2  3  2  0  0  0  0
  3  4  1  0  0  0  0
  4  5  2  0  0  0  0
  5  6  1  0  0  0  0
  5 20  1  0  0  0  0
  6  7  1  0  0  0  0
  6 24  1  0  0  0  0
  7  8  2  0  0  0  0
  7  9  1  0  0  0  0
  9 10  1  0  0  0  0
  9 25  1  0  0  0  0
 10 11  1  0  0  0  0
 10 26  1  0  0  0  0
 10 27  1  0  0  0  0
 11 12  1  0  0  0  0
 11 28  1  0  0  0  0
 11 29  1  0  0  0  0
 12 19  1  0  0  0  0
 12 13  1  0  0  0  0
 13 14  1  0  0  0  0
 13 30  1  0  0  0  0
 13 31  1  0  0  0  0
 14 15  1  0  0  0  0
 14 16  1  0  0  0  0
 14 32  1  0  0  0  0
 15 33  1  0  0  0  0
 15 34  1  0  0  0  0
 15 35  1  0  0  0  0
 16 17  1  0  0  0  0
 17 18  1  0  0  0  0
 17 19  1  0  0  0  0
 17 36  1  0  0  0  0
 18 37  1  0  0  0  0
 18 38  1  0  0  0  0
 18 39  1  0  0  0  0
 19 40  1  0  0  0  0
 19 41  1  0  0  0  0
M  END
> <s_m_source_file>
AV-unprocessed.smi

> <i_m_source_file_index>
1641

> <i_lp_mmshare_version>
43012

> <i_f3d_flags>
0

> <s_epik_input>
W0NIM11jMW5uYyhzMSlbTkhdQyg9TylbTkhdW0NIMl1bQ0gyXU4yW0NIMl1bQ0BASF0oW0NIM10pT1tDQEBIXShbQ0gzXSlbQ0gyXTI=

> <s_epik_cmdline>
J2VwaWtfcHl0aG9uJywgJy1waCcsICc3LjAnLCAnLXRuJywgJzgnLCAnLW1hJywgJzIwMCcsICctbWV0YWxfYmluZGluZycsICctaW1hZScsICc8aW5maWxlLm1hZT4nLCAnLW9tYWUnLCAnPG91dGZpbGUubWFlPic=

> <r_lp_tautomer_probability>
1

> <r_epik_Ionization_Penalty>
0.221104

> <r_epik_Ionization_Penalty_Charging>
0

> <r_epik_Ionization_Penalty_Neutral>
0.221104

> <r_epik_State_Penalty>
0.209349

> <r_epik_Charging_Adjusted_Penalty>
0.209349

> <i_epik_Tot_Q>
0

> <i_epik_Tot_abs_Q>
0

> <r_epik_Metal_State_Penalty>
0.560954

> <b_epik_Metal_Only>
0

> <s_lp_Force_Field>
OPLS_2005

> <r_lp_Energy>
25.2137

> <b_lp_Chiralities_Consistent>
1

> <s_lp_Variant>
AV-unprocessed.smi:1641-3

> <Gold.Version>
5.8.1

> <Gold.Id.Protein>
6NUR|6NUR_protein|mol2

> <Gold.PLP.Fitness>
38.6050

> <Gold.PLP.PLP>
-31.1321

> <Gold.PLP.part.hbond>
-3.0000

> <Gold.PLP.part.metal>
0.0000

> <Gold.PLP.part.buried>
-0.6757

> <Gold.PLP.part.nonpolar>
-29.0380

> <Gold.PLP.part.repulsive>
1.3021

> <Gold.PLP.ligand.clash>
0.0000

> <Gold.PLP.ligand.torsion>
0.4817

> <Gold.PLP.Chemscore.Hbond>
2.8080

> <Gold.PLP.Chemscore.CHOScore>
0.0000

> <Gold.PLP.Chemscore.Metal>
0.0000

> <Gold.Chemscore.Hbonds>
donor molecule, donor type, donor heavy atom, donor atom, acceptor molecule, acceptor atom, score
      L1  H     6    24       P1  7948  0.73
      L1  H     9    25       P1  7948  0.82
      P1  H  7989  7998       L1    12  0.98

> <Gold.PLP.Chemscore.Internal.Correction>
0.0124

> <Gold.Rescore>
     Score         DG    S(hbond)    S(metal)    S(lipo)     H(rot)  DE(clash)    DE(int)     intcor
     14.20     -17.55       2.16        0.00      76.60       1.60       1.67       1.68       ----

> <Gold.Chemscore.Fitness>
14.1990

> <Gold.Chemscore.DG>
-17.5520

> <Gold.Chemscore.ZeroCoef>
-5.4800

> <Gold.Chemscore.Hbond>
2.1554

> <Gold.Chemscore.Metal>
0.0000

> <Gold.Chemscore.Lipo>
76.6014

> <Gold.Chemscore.Internal_Hbond>
0.0000

> <Gold.Chemscore.DEClash>
1.6718

> <Gold.Chemscore.DEInternal>
1.6812

> <Gold.Chemscore.Rot>
1.5975

> <Gold.Chemscore.Internal.Correction>
   9.000000E+99

> <Gold.Chemscore.Hbonds>
donor molecule, donor type, donor heavy atom, donor atom, acceptor molecule, acceptor atom, score
      L1  H     6    24       P1  7948  0.73
      L1  H     9    25       P1  7948  0.81
      P1  H  7989  7998       L1    12  0.15

> <Gold.Chemscore.Hbond.Weighted>
-7.1991

> <Gold.Chemscore.Metal.Weighted>
-0.0000

> <Gold.Chemscore.Lipo.Weighted>
-8.9624

> <Gold.Chemscore.Internal_Hbond.Weighted>
0.0000

> <Gold.Chemscore.DEClash.Weighted>
1.6718

> <Gold.Chemscore.DEInternal.Weighted>
1.6812

> <Gold.Chemscore.Rot.Weighted>
4.0896

> <Gold.Chemscore.Internal.Correction.Weighted>
   9.000000E+99

> <Gold.Protein.RotatedTorsions>
[ 6907 6896 6895 6894 ] final  -92.33 input  -60.11 | X-H torsion
[ 7974 7965 7964 7962 ] final  -91.92 input  175.53 | X-H torsion
[ 8008 7997 7996 7995 ] final   79.44 input   59.86 | X-H torsion
[ 10167 10162 10161 10158 ] final   94.61 input  -65.29 | X-H torsion
[ 10718 10713 10712 10709 ] final  -27.20 input   66.30 | X-H torsion
[ 10763 10752 10751 10750 ] final  -48.39 input  -60.55 | X-H torsion
[ 11005 11000 10999 10996 ] final  -31.89 input  -57.11 | X-H torsion

> <Gold.Protein.ActiveResidues>
 VAL166  LYS551  ARG553  GLY616  TRP617  ASP618  TYR619  PRO620  LYS621  CYS622 
 ASP623  PHE694  ASN695  SER759  ASP760  ASP761  ALA762  ILE779  LEU786  VAL792 
 PHE793  MET794  SER795  GLU796  ALA797  LYS798  CYS799  TRP800  GLU811  SER814 

> <Gold.Protein.RotatedAtoms>
  150.6905  134.2138  159.4369 H   0  0  0  0  0  0  0  0  0  0  0  0  # atno 6907 bound_to 6896
  152.0098  134.9880  160.0577 H   0  0  0  0  0  0  0  0  0  0  0  0  # atno 6908 bound_to 6896
  152.1499  133.4480  159.4845 H   0  0  0  0  0  0  0  0  0  0  0  0  # atno 6909 bound_to 6896
  145.4067  140.9542  143.2257 H   0  0  0  0  0  0  0  0  0  0  0  0  # atno 7974 bound_to 7965
  155.8697  140.3449  155.5812 H   0  0  0  0  0  0  0  0  0  0  0  0  # atno 8008 bound_to 7997
  155.7841  140.0862  157.2063 H   0  0  0  0  0  0  0  0  0  0  0  0  # atno 8009 bound_to 7997
  154.4016  140.1495  156.3074 H   0  0  0  0  0  0  0  0  0  0  0  0  # atno 8010 bound_to 7997
  139.8067  144.6791  150.9693 H   0  0  0  0  0  0  0  0  0  0  0  0  # atno 10167 bound_to 10162
  156.4413  130.4465  149.7051 H   0  0  0  0  0  0  0  0  0  0  0  0  # atno 10718 bound_to 10713
  154.0770  135.6596  153.4832 H   0  0  0  0  0  0  0  0  0  0  0  0  # atno 10763 bound_to 10752
  153.0370  135.5171  154.7511 H   0  0  0  0  0  0  0  0  0  0  0  0  # atno 10764 bound_to 10752
  154.6594  135.3013  154.9853 H   0  0  0  0  0  0  0  0  0  0  0  0  # atno 10765 bound_to 10752
  140.9506  133.7223  156.1215 H   0  0  0  0  0  0  0  0  0  0  0  0  # atno 11005 bound_to 11000
  144.8336  139.5586  143.6932 LP  0  0  0  0  0  0  0  0  0  0  0  0  # atno 17320 bound_to 7965
  146.2725  139.6670  142.9286 LP  0  0  0  0  0  0  0  0  0  0  0  0  # atno 17321 bound_to 7965
  140.7819  143.4226  151.0818 LP  0  0  0  0  0  0  0  0  0  0  0  0  # atno 17342 bound_to 10162
  139.7895  143.8239  152.3149 LP  0  0  0  0  0  0  0  0  0  0  0  0  # atno 17343 bound_to 10162
  156.3914  130.7629  151.2630 LP  0  0  0  0  0  0  0  0  0  0  0  0  # atno 17370 bound_to 10713
  157.7506  131.0266  150.3971 LP  0  0  0  0  0  0  0  0  0  0  0  0  # atno 17371 bound_to 10713
  140.7607  134.3942  157.5526 LP  0  0  0  0  0  0  0  0  0  0  0  0  # atno 17394 bound_to 11000
  139.8846  134.8960  156.2691 LP  0  0  0  0  0  0  0  0  0  0  0  0  # atno 17395 bound_to 11000

$$$$
