AV-unprocessed.smi:3018|AV-procd|sdf|11484|dock6
  -GOLD-   2272016423D 1   1.00000     0.00000
 Structure written by MMmdl.
 44 45  0  0  0  0  0  0  0  0  2 V2000
  148.0279  141.9941  154.2814 C   0  0  0  0  0  0  0  0  0  0  0  0
  148.7555  140.9698  155.1609 C   0  0  0  0  0  0  0  0  0  0  0  0
  150.1728  141.4251  155.5554 C   0  0  1  0  0  0  0  0  0  0  0  0
  150.0594  142.2851  156.6880 O   0  0  0  0  0  0  0  0  0  0  0  0
  151.2781  142.6541  157.3283 C   0  0  0  0  0  0  0  0  0  0  0  0
  151.2778  142.0131  158.7268 C   0  0  0  0  0  0  0  0  0  0  0  0
  152.5164  142.4307  159.5362 C   0  0  0  0  0  0  0  0  0  0  0  0
  152.6234  143.9606  159.6381 C   0  0  0  0  0  0  0  0  0  0  0  0
  152.6181  144.6113  158.2457 C   0  0  0  0  0  0  0  0  0  0  0  0
  151.3805  144.1893  157.4369 C   0  0  0  0  0  0  0  0  0  0  0  0
  151.0628  140.2232  155.9061 C   0  0  0  0  0  0  0  0  0  0  0  0
  152.1024  140.0196  155.2790 O   0  0  0  0  0  0  0  0  0  0  0  0
  150.6359  139.4404  156.9095 N   0  0  0  0  0  0  0  0  0  0  0  0
  151.3514  138.2891  157.4545 C   0  0  0  0  0  0  0  0  0  0  0  0
  150.5091  136.9993  157.3826 C   0  0  0  0  0  0  0  0  0  0  0  0
  149.3953  136.9739  158.3976 C   0  0  0  0  0  0  0  0  0  0  0  0
  148.3594  137.7276  158.4016 N   0  0  0  0  0  0  0  0  0  0  0  0
  147.7000  137.3279  159.5010 N   0  0  0  0  0  0  0  0  0  0  0  0
  148.3424  136.3443  160.1350 C   0  0  0  0  0  0  0  0  0  0  0  0
  147.9293  135.8164  161.1653 O   0  0  0  0  0  0  0  0  0  0  0  0
  149.4582  136.0899  159.4285 N   0  5  0  0  0  0  0  0  0  0  0  0
  146.8272  137.7646  159.7583 H   0  0  0  0  0  0  0  0  0  0  0  0
  147.0351  141.6354  154.0091 H   0  0  0  0  0  0  0  0  0  0  0  0
  148.5780  142.1823  153.3591 H   0  0  0  0  0  0  0  0  0  0  0  0
  147.9070  142.9455  154.8002 H   0  0  0  0  0  0  0  0  0  0  0  0
  148.1617  140.7760  156.0555 H   0  0  0  0  0  0  0  0  0  0  0  0
  148.8110  140.0236  154.6198 H   0  0  0  0  0  0  0  0  0  0  0  0
  150.6071  141.9619  154.7107 H   0  0  0  0  0  0  0  0  0  0  0  0
  152.1400  142.2695  156.7816 H   0  0  0  0  0  0  0  0  0  0  0  0
  150.3754  142.3057  159.2654 H   0  0  0  0  0  0  0  0  0  0  0  0
  151.2444  140.9268  158.6357 H   0  0  0  0  0  0  0  0  0  0  0  0
  152.4731  141.9941  160.5343 H   0  0  0  0  0  0  0  0  0  0  0  0
  153.4142  142.0318  159.0620 H   0  0  0  0  0  0  0  0  0  0  0  0
  151.7887  144.3466  160.2245 H   0  0  0  0  0  0  0  0  0  0  0  0
  153.5319  144.2359  160.1746 H   0  0  0  0  0  0  0  0  0  0  0  0
  152.6460  145.6968  158.3434 H   0  0  0  0  0  0  0  0  0  0  0  0
  153.5215  144.3255  157.7055 H   0  0  0  0  0  0  0  0  0  0  0  0
  151.4262  144.6431  156.4474 H   0  0  0  0  0  0  0  0  0  0  0  0
  150.4819  144.5822  157.9147 H   0  0  0  0  0  0  0  0  0  0  0  0
  149.7664  139.6865  157.3593 H   0  0  0  0  0  0  0  0  0  0  0  0
  152.2527  138.1583  156.8556 H   0  0  0  0  0  0  0  0  0  0  0  0
  151.6944  138.4690  158.4751 H   0  0  0  0  0  0  0  0  0  0  0  0
  150.0976  136.8811  156.3794 H   0  0  0  0  0  0  0  0  0  0  0  0
  151.1611  136.1387  157.5385 H   0  0  0  0  0  0  0  0  0  0  0  0
  1  2  1  0  0  0  0
  1 23  1  0  0  0  0
  1 24  1  0  0  0  0
  1 25  1  0  0  0  0
  2  3  1  0  0  0  0
  2 26  1  0  0  0  0
  2 27  1  0  0  0  0
  3  4  1  0  0  0  0
  3 11  1  0  0  0  0
  3 28  1  0  0  0  0
  4  5  1  0  0  0  0
  5 10  1  0  0  0  0
  5  6  1  0  0  0  0
  5 29  1  0  0  0  0
  6  7  1  0  0  0  0
  6 30  1  0  0  0  0
  6 31  1  0  0  0  0
  7  8  1  0  0  0  0
  7 32  1  0  0  0  0
  7 33  1  0  0  0  0
  8  9  1  0  0  0  0
  8 34  1  0  0  0  0
  8 35  1  0  0  0  0
  9 10  1  0  0  0  0
  9 36  1  0  0  0  0
  9 37  1  0  0  0  0
 10 38  1  0  0  0  0
 10 39  1  0  0  0  0
 11 12  2  0  0  0  0
 11 13  1  0  0  0  0
 13 14  1  0  0  0  0
 13 40  1  0  0  0  0
 14 15  1  0  0  0  0
 14 41  1  0  0  0  0
 14 42  1  0  0  0  0
 15 16  1  0  0  0  0
 15 43  1  0  0  0  0
 15 44  1  0  0  0  0
 16 21  1  0  0  0  0
 16 17  2  0  0  0  0
 17 18  1  0  0  0  0
 18 22  1  0  0  0  0
 18 19  1  0  0  0  0
 19 20  2  0  0  0  0
 19 21  1  0  0  0  0
M  CHG  1  21  -1
M  END
> <s_m_source_file>
AV-unprocessed.smi

> <i_m_source_file_index>
3018

> <i_lp_mmshare_version>
43012

> <i_f3d_flags>
0

> <s_epik_input>
W0NIMl0xW0NIMl1bQ0gyXVtDSDJdW0NIMl1bQ0hdMU9bQ0BASF0oW0NIMl1bQ0gzXSlDKD1PKVtOSF1bQ0gyXVtDSDJdYzJuW25IXWMoPU8pW25IXTI=

> <s_epik_cmdline>
J2VwaWtfcHl0aG9uJywgJy1waCcsICc3LjAnLCAnLXRuJywgJzgnLCAnLW1hJywgJzIwMCcsICctbWV0YWxfYmluZGluZycsICctaW1hZScsICc8aW5maWxlLm1hZT4nLCAnLW9tYWUnLCAnPG91dGZpbGUubWFlPic=

> <r_lp_tautomer_probability>
1

> <r_epik_Ionization_Penalty>
13.7173

> <r_epik_Ionization_Penalty_Charging>
13.7173

> <r_epik_Ionization_Penalty_Neutral>
5.37575e-06

> <r_epik_State_Penalty>
4.05785

> <r_epik_Charging_Adjusted_Penalty>
17.7751

> <i_epik_Tot_Q>
-1

> <i_epik_Tot_abs_Q>
1

> <r_epik_Metal_State_Penalty>
0.460256

> <b_epik_Metal_Only>
1

> <s_lp_Force_Field>
OPLS_2005

> <r_lp_Energy>
25.1559

> <b_lp_Chiralities_Consistent>
1

> <s_lp_Variant>
AV-unprocessed.smi:3018-6

> <Gold.Version>
5.8.1

> <Gold.Id.Protein>
6NUR|6NUR_protein|mol2

> <Gold.PLP.Fitness>
43.7139

> <Gold.PLP.PLP>
-37.4371

> <Gold.PLP.part.hbond>
-2.0000

> <Gold.PLP.part.metal>
0.0000

> <Gold.PLP.part.buried>
-4.6171

> <Gold.PLP.part.nonpolar>
-32.8165

> <Gold.PLP.part.repulsive>
1.3070

> <Gold.PLP.ligand.clash>
0.0000

> <Gold.PLP.ligand.torsion>
1.1410

> <Gold.PLP.Chemscore.Hbond>
2.8000

> <Gold.PLP.Chemscore.CHOScore>
0.0000

> <Gold.PLP.Chemscore.Metal>
0.0000

> <Gold.Chemscore.Hbonds>
donor molecule, donor type, donor heavy atom, donor atom, acceptor molecule, acceptor atom, score
      P1  H  6896  6908       L1    21  1.95
      P1  H  7989  7998       L1    12  0.77

> <Gold.PLP.Chemscore.Internal.Correction>
0.1588

> <Gold.Rescore>
     Score         DG    S(hbond)    S(metal)    S(lipo)     H(rot)  DE(clash)    DE(int)     intcor
     12.77     -15.08       1.78        0.00      96.36       2.98       1.15       1.17       ----

> <Gold.Chemscore.Fitness>
12.7688

> <Gold.Chemscore.DG>
-15.0803

> <Gold.Chemscore.ZeroCoef>
-5.4800

> <Gold.Chemscore.Hbond>
1.7809

> <Gold.Chemscore.Metal>
0.0000

> <Gold.Chemscore.Lipo>
96.3563

> <Gold.Chemscore.Internal_Hbond>
0.0000

> <Gold.Chemscore.DEClash>
1.1456

> <Gold.Chemscore.DEInternal>
1.1659

> <Gold.Chemscore.Rot>
2.9772

> <Gold.Chemscore.Internal.Correction>
   9.000000E+99

> <Gold.Chemscore.Hbonds>
donor molecule, donor type, donor heavy atom, donor atom, acceptor molecule, acceptor atom, score
      P1  H  6896  6908       L1    21  0.92
      P1  H  7989  7998       L1    12  0.26

> <Gold.Chemscore.Hbond.Weighted>
-5.9482

> <Gold.Chemscore.Metal.Weighted>
-0.0000

> <Gold.Chemscore.Lipo.Weighted>
-11.2737

> <Gold.Chemscore.Internal_Hbond.Weighted>
0.0000

> <Gold.Chemscore.DEClash.Weighted>
1.1456

> <Gold.Chemscore.DEInternal.Weighted>
1.1659

> <Gold.Chemscore.Rot.Weighted>
7.6216

> <Gold.Chemscore.Internal.Correction.Weighted>
   9.000000E+99

> <Gold.Protein.RotatedTorsions>
[ 6907 6896 6895 6894 ] final  166.82 input  -60.11 | X-H torsion
[ 7974 7965 7964 7962 ] final -155.18 input  175.53 | X-H torsion
[ 8008 7997 7996 7995 ] final   13.78 input   59.86 | X-H torsion
[ 10167 10162 10161 10158 ] final -108.73 input  -65.29 | X-H torsion
[ 10718 10713 10712 10709 ] final    7.54 input   66.30 | X-H torsion
[ 10763 10752 10751 10750 ] final   19.74 input  -60.55 | X-H torsion
[ 11005 11000 10999 10996 ] final  -85.93 input  -57.11 | X-H torsion

> <Gold.Protein.ActiveResidues>
 VAL166  LYS551  ARG553  GLY616  TRP617  ASP618  TYR619  PRO620  LYS621  CYS622 
 ASP623  PHE694  ASN695  SER759  ASP760  ASP761  ALA762  ILE779  LEU786  VAL792 
 PHE793  MET794  SER795  GLU796  ALA797  LYS798  CYS799  TRP800  GLU811  SER814 

> <Gold.Protein.RotatedAtoms>
  151.8730  133.3479  159.3740 H   0  0  0  0  0  0  0  0  0  0  0  0  # atno 6907 bound_to 6896
  150.7147  134.5094  159.5609 H   0  0  0  0  0  0  0  0  0  0  0  0  # atno 6908 bound_to 6896
  152.2630  134.8014  160.0478 H   0  0  0  0  0  0  0  0  0  0  0  0  # atno 6909 bound_to 6896
  144.7653  140.4286  143.5947 H   0  0  0  0  0  0  0  0  0  0  0  0  # atno 7974 bound_to 7965
  154.8392  140.2912  155.5670 H   0  0  0  0  0  0  0  0  0  0  0  0  # atno 8008 bound_to 7997
  156.3010  140.2517  156.3263 H   0  0  0  0  0  0  0  0  0  0  0  0  # atno 8009 bound_to 7997
  154.9144  140.0387  157.1953 H   0  0  0  0  0  0  0  0  0  0  0  0  # atno 8010 bound_to 7997
  140.1630  143.4105  152.1412 H   0  0  0  0  0  0  0  0  0  0  0  0  # atno 10167 bound_to 10162
  156.9384  130.5852  149.5651 H   0  0  0  0  0  0  0  0  0  0  0  0  # atno 10718 bound_to 10713
  153.1136  135.6702  153.9457 H   0  0  0  0  0  0  0  0  0  0  0  0  # atno 10763 bound_to 10752
  153.8993  135.3038  155.3449 H   0  0  0  0  0  0  0  0  0  0  0  0  # atno 10764 bound_to 10752
  154.7554  135.5014  153.9443 H   0  0  0  0  0  0  0  0  0  0  0  0  # atno 10765 bound_to 10752
  141.1636  133.7426  156.9087 H   0  0  0  0  0  0  0  0  0  0  0  0  # atno 11005 bound_to 11000
  145.6490  139.1562  143.2872 LP  0  0  0  0  0  0  0  0  0  0  0  0  # atno 17320 bound_to 7965
  146.1754  140.6581  142.9214 LP  0  0  0  0  0  0  0  0  0  0  0  0  # atno 17321 bound_to 7965
  139.5372  144.7222  151.4852 LP  0  0  0  0  0  0  0  0  0  0  0  0  # atno 17342 bound_to 10162
  140.6631  143.8456  150.6910 LP  0  0  0  0  0  0  0  0  0  0  0  0  # atno 17343 bound_to 10162
  156.0415  130.5497  150.8782 LP  0  0  0  0  0  0  0  0  0  0  0  0  # atno 17370 bound_to 10713
  157.5801  131.0946  150.9284 LP  0  0  0  0  0  0  0  0  0  0  0  0  # atno 17371 bound_to 10713
  140.1532  134.9216  157.2619 LP  0  0  0  0  0  0  0  0  0  0  0  0  # atno 17394 bound_to 11000
  140.2698  134.3473  155.7377 LP  0  0  0  0  0  0  0  0  0  0  0  0  # atno 17395 bound_to 11000

$$$$
