AV-unprocessed.smi:21|AV-procd|sdf|149|dock8
  -GOLD-   2262015363D 1   1.00000     0.00000
 Structure written by MMmdl.
 62 65  0  0  0  0  0  0  0  0  2 V2000
  143.4878  132.9567  151.2789 C   0  0  0  0  0  0  0  0  0  0  0  0
  143.4510  134.3009  151.7305 O   0  0  0  0  0  0  0  0  0  0  0  0
  144.7117  134.9522  151.6796 C   0  0  1  0  0  0  0  0  0  0  0  0
  144.6661  136.3962  152.1683 C   0  0  0  0  0  0  0  0  0  0  0  0
  146.1201  136.6798  152.5665 C   0  0  1  0  0  0  0  0  0  0  0  0
  146.2899  137.8593  153.5564 C   0  0  0  0  0  0  0  0  0  0  0  0
  147.0022  138.9951  152.9621 N   0  0  0  0  0  0  0  0  0  0  0  0
  146.7193  139.3147  151.5677 C   0  0  0  0  0  0  0  0  0  0  0  0
  147.7363  139.8553  153.7300 C   0  0  0  0  0  0  0  0  0  0  0  0
  147.1714  141.0375  154.0968 N   0  0  0  0  0  0  0  0  0  0  0  0
  147.8378  141.9213  154.8431 C   0  0  0  0  0  0  0  0  0  0  0  0
  149.0723  141.8307  155.3340 N   0  0  0  0  0  0  0  0  0  0  0  0
  149.6547  140.6504  154.9820 C   0  0  0  0  0  0  0  0  0  0  0  0
  149.0705  139.6166  154.1910 C   0  0  0  0  0  0  0  0  0  0  0  0
  149.9885  138.5791  154.0502 N   0  0  0  0  0  0  0  0  0  0  0  0
  151.0400  138.9726  154.7136 C   0  0  0  0  0  0  0  0  0  0  0  0
  150.9218  140.2045  155.3115 N   0  0  0  0  0  0  0  0  0  0  0  0
  151.9267  140.8903  156.1051 C   0  0  0  0  0  0  0  0  0  0  0  0
  151.5281  141.0257  157.5976 C   0  0  1  0  0  0  0  0  0  0  0  0
  151.8246  139.7243  158.3791 C   0  0  0  0  0  0  0  0  0  0  0  0
  153.1935  139.3832  158.3100 O   0  0  0  0  0  0  0  0  0  0  0  0
  152.1484  142.2701  158.2914 C   0  0  1  0  0  0  0  0  0  0  0  0
  151.6601  143.6320  157.8253 C   0  0  0  0  0  0  0  0  0  0  0  0
  152.1159  144.5191  158.9756 C   0  0  0  0  0  0  0  0  0  0  0  0
  151.8634  143.7372  160.1350 O   0  0  0  0  0  0  0  0  0  0  0  0
  151.9669  142.3509  159.8147 C   0  0  0  0  0  0  0  0  0  0  0  0
  146.6745  135.3672  153.0120 N   0  3  1  0  0  0  0  0  0  0  0  0
  147.1657  135.2666  154.4069 C   0  0  0  0  0  0  0  0  0  0  0  0
  145.6849  134.3177  152.6715 C   0  0  0  0  0  0  0  0  0  0  0  0
  145.1372  134.9038  150.6754 H   0  0  0  0  0  0  0  0  0  0  0  0
  146.6689  136.9200  151.6548 H   0  0  0  0  0  0  0  0  0  0  0  0
  142.4990  132.5101  151.3834 H   0  0  0  0  0  0  0  0  0  0  0  0
  144.1873  132.3614  151.8672 H   0  0  0  0  0  0  0  0  0  0  0  0
  143.7713  132.8941  150.2280 H   0  0  0  0  0  0  0  0  0  0  0  0
  144.2929  137.0912  151.4156 H   0  0  0  0  0  0  0  0  0  0  0  0
  144.0166  136.4627  153.0420 H   0  0  0  0  0  0  0  0  0  0  0  0
  145.3296  138.1568  153.9767 H   0  0  0  0  0  0  0  0  0  0  0  0
  146.8846  137.5312  154.4092 H   0  0  0  0  0  0  0  0  0  0  0  0
  146.1355  140.2325  151.4925 H   0  0  0  0  0  0  0  0  0  0  0  0
  146.1461  138.5190  151.0911 H   0  0  0  0  0  0  0  0  0  0  0  0
  147.6442  139.4333  151.0027 H   0  0  0  0  0  0  0  0  0  0  0  0
  147.3051  142.8301  155.0818 H   0  0  0  0  0  0  0  0  0  0  0  0
  151.9332  138.3694  154.7886 H   0  0  0  0  0  0  0  0  0  0  0  0
  152.8643  140.3428  156.0075 H   0  0  0  0  0  0  0  0  0  0  0  0
  152.0912  141.8644  155.6472 H   0  0  0  0  0  0  0  0  0  0  0  0
  150.4467  141.1689  157.6259 H   0  0  0  0  0  0  0  0  0  0  0  0
  151.5781  139.8351  159.4346 H   0  0  0  0  0  0  0  0  0  0  0  0
  151.2255  138.8970  157.9981 H   0  0  0  0  0  0  0  0  0  0  0  0
  153.2843  138.4615  158.4983 H   0  0  0  0  0  0  0  0  0  0  0  0
  153.2266  142.2515  158.1254 H   0  0  0  0  0  0  0  0  0  0  0  0
  152.0813  143.9335  156.8658 H   0  0  0  0  0  0  0  0  0  0  0  0
  150.5739  143.6705  157.7520 H   0  0  0  0  0  0  0  0  0  0  0  0
  153.1855  144.7224  158.9051 H   0  0  0  0  0  0  0  0  0  0  0  0
  151.5873  145.4719  159.0108 H   0  0  0  0  0  0  0  0  0  0  0  0
  151.0652  141.8496  160.1625 H   0  0  0  0  0  0  0  0  0  0  0  0
  152.8116  141.8999  160.3366 H   0  0  0  0  0  0  0  0  0  0  0  0
  146.3710  135.4712  155.1254 H   0  0  0  0  0  0  0  0  0  0  0  0
  147.9907  135.9557  154.5870 H   0  0  0  0  0  0  0  0  0  0  0  0
  147.5397  134.2603  154.5991 H   0  0  0  0  0  0  0  0  0  0  0  0
  145.1397  134.0243  153.5707 H   0  0  0  0  0  0  0  0  0  0  0  0
  146.1667  133.4254  152.2714 H   0  0  0  0  0  0  0  0  0  0  0  0
  147.4775  135.2026  152.4216 H   0  0  0  0  0  0  0  0  0  0  0  0
  1  2  1  0  0  0  0
  1 32  1  0  0  0  0
  1 33  1  0  0  0  0
  1 34  1  0  0  0  0
  2  3  1  0  0  0  0
  3 30  1  0  0  0  0
  3 29  1  0  0  0  0
  3  4  1  0  0  0  0
  4  5  1  0  0  0  0
  4 35  1  0  0  0  0
  4 36  1  0  0  0  0
  5 31  1  0  0  0  0
  5  6  1  0  0  0  0
  5 27  1  0  0  0  0
  6  7  1  0  0  0  0
  6 37  1  0  0  0  0
  6 38  1  0  0  0  0
  7  8  1  0  0  0  0
  7  9  1  0  0  0  0
  8 39  1  0  0  0  0
  8 40  1  0  0  0  0
  8 41  1  0  0  0  0
  9 14  1  0  0  0  0
  9 10  2  0  0  0  0
 10 11  1  0  0  0  0
 11 12  2  0  0  0  0
 11 42  1  0  0  0  0
 12 13  1  0  0  0  0
 13 17  1  0  0  0  0
 13 14  2  0  0  0  0
 14 15  1  0  0  0  0
 15 16  2  0  0  0  0
 16 17  1  0  0  0  0
 16 43  1  0  0  0  0
 17 18  1  0  0  0  0
 18 19  1  0  0  0  0
 18 44  1  0  0  0  0
 18 45  1  0  0  0  0
 19 20  1  0  0  0  0
 19 22  1  0  0  0  0
 19 46  1  0  0  0  0
 20 21  1  0  0  0  0
 20 47  1  0  0  0  0
 20 48  1  0  0  0  0
 21 49  1  0  0  0  0
 22 26  1  0  0  0  0
 22 23  1  0  0  0  0
 22 50  1  0  0  0  0
 23 24  1  0  0  0  0
 23 51  1  0  0  0  0
 23 52  1  0  0  0  0
 24 25  1  0  0  0  0
 24 53  1  0  0  0  0
 24 54  1  0  0  0  0
 25 26  1  0  0  0  0
 26 55  1  0  0  0  0
 26 56  1  0  0  0  0
 27 28  1  0  0  0  0
 27 29  1  0  0  0  0
 27 62  1  0  0  0  0
 28 57  1  0  0  0  0
 28 58  1  0  0  0  0
 28 59  1  0  0  0  0
 29 60  1  0  0  0  0
 29 61  1  0  0  0  0
M  CHG  1  27   1
M  END
> <s_m_source_file>
AV-unprocessed.smi

> <i_m_source_file_index>
21

> <i_lp_mmshare_version>
43012

> <i_f3d_flags>
0

> <s_epik_input>
W0NIM11PW0NASF0xW0NIMl1bQ0BIXShOKFtDSDNdKVtDSDJdMSlbQ0gyXU4oW0NIM10pYyhuW2NIXW4yKWMoYzIzKW5bY0hdbjNbQ0gyXVtDQEhdKFtDSDJdW09IXSlbQ0BASF00W0NIMl1bQ0gyXU9bQ0gyXTQ=

> <s_epik_cmdline>
J2VwaWtfcHl0aG9uJywgJy1waCcsICc3LjAnLCAnLXRuJywgJzgnLCAnLW1hJywgJzIwMCcsICctbWV0YWxfYmluZGluZycsICctaW1hZScsICc8aW5maWxlLm1hZT4nLCAnLW9tYWUnLCAnPG91dGZpbGUubWFlPic=

> <r_lp_tautomer_probability>
1

> <r_epik_Ionization_Penalty>
0.0157465

> <r_epik_Ionization_Penalty_Charging>
0.015354

> <r_epik_Ionization_Penalty_Neutral>
0.000392529

> <r_epik_State_Penalty>
0.0120612

> <r_epik_Charging_Adjusted_Penalty>
0.0274152

> <i_epik_Tot_Q>
1

> <i_epik_Tot_abs_Q>
1

> <r_epik_Metal_State_Penalty>
0.0121253

> <b_epik_Metal_Only>
0

> <s_lp_Force_Field>
OPLS_2005

> <r_lp_Energy>
61.5082

> <b_lp_Chiralities_Consistent>
1

> <s_lp_Variant>
AV-unprocessed.smi:21-29

> <Gold.Version>
5.8.1

> <Gold.Id.Protein>
6NUR|6NUR_protein|mol2

> <Gold.PLP.Fitness>
50.4123

> <Gold.PLP.PLP>
-46.6624

> <Gold.PLP.part.hbond>
-2.0000

> <Gold.PLP.part.metal>
0.0000

> <Gold.PLP.part.buried>
-0.9031

> <Gold.PLP.part.nonpolar>
-45.7392

> <Gold.PLP.part.repulsive>
2.1380

> <Gold.PLP.ligand.clash>
0.0000

> <Gold.PLP.ligand.torsion>
2.9827

> <Gold.PLP.Chemscore.Hbond>
2.4720

> <Gold.PLP.Chemscore.CHOScore>
0.6438

> <Gold.PLP.Chemscore.Metal>
0.0000

> <Gold.Chemscore.Hbonds>
donor molecule, donor type, donor heavy atom, donor atom, acceptor molecule, acceptor atom, score
      L1  H    27    62       P1  7948  1.47
      P1  H  7997  8010       L1    21  1.00
      L1  C    11    42       P1  8028  0.66

> <Gold.PLP.Chemscore.Internal.Correction>
0.3679

> <Gold.Rescore>
     Score         DG    S(hbond)    S(metal)    S(lipo)     H(rot)  DE(clash)    DE(int)     intcor
     11.56     -15.24       1.57        0.00     106.01       3.08       0.70       2.99       ----

> <Gold.Chemscore.Fitness>
11.5566

> <Gold.Chemscore.DG>
-15.2441

> <Gold.Chemscore.ZeroCoef>
-5.4800

> <Gold.Chemscore.Hbond>
1.5674

> <Gold.Chemscore.Metal>
0.0000

> <Gold.Chemscore.Lipo>
106.0110

> <Gold.Chemscore.Internal_Hbond>
0.0000

> <Gold.Chemscore.DEClash>
0.7024

> <Gold.Chemscore.DEInternal>
2.9850

> <Gold.Chemscore.Rot>
3.0758

> <Gold.Chemscore.Internal.Correction>
   9.000000E+99

> <Gold.Chemscore.Hbonds>
donor molecule, donor type, donor heavy atom, donor atom, acceptor molecule, acceptor atom, score
      L1  H    27    62       P1  7948  0.74
      P1  H  7997  8010       L1    21  0.74

> <Gold.Chemscore.Hbond.Weighted>
-5.2350

> <Gold.Chemscore.Metal.Weighted>
-0.0000

> <Gold.Chemscore.Lipo.Weighted>
-12.4033

> <Gold.Chemscore.Internal_Hbond.Weighted>
0.0000

> <Gold.Chemscore.DEClash.Weighted>
0.7024

> <Gold.Chemscore.DEInternal.Weighted>
2.9850

> <Gold.Chemscore.Rot.Weighted>
7.8741

> <Gold.Chemscore.Internal.Correction.Weighted>
   9.000000E+99

> <Gold.Protein.RotatedTorsions>
[ 6907 6896 6895 6894 ] final  -42.79 input  -60.11 | X-H torsion
[ 7974 7965 7964 7962 ] final  155.91 input  175.53 | X-H torsion
[ 8008 7997 7996 7995 ] final   25.05 input   59.86 | X-H torsion
[ 10167 10162 10161 10158 ] final  -49.78 input  -65.29 | X-H torsion
[ 10718 10713 10712 10709 ] final   88.62 input   66.30 | X-H torsion
[ 10763 10752 10751 10750 ] final  -32.07 input  -60.55 | X-H torsion
[ 11005 11000 10999 10996 ] final  -21.07 input  -57.11 | X-H torsion

> <Gold.Protein.ActiveResidues>
 VAL166  LYS551  ARG553  GLY616  TRP617  ASP618  TYR619  PRO620  LYS621  CYS622 
 ASP623  PHE694  ASN695  SER759  ASP760  ASP761  ALA762  ILE779  LEU786  VAL792 
 PHE793  MET794  SER795  GLU796  ALA797  LYS798  CYS799  TRP800  GLU811  SER814 

> <Gold.Protein.RotatedAtoms>
  150.9512  134.8912  159.7672 H   0  0  0  0  0  0  0  0  0  0  0  0  # atno 6907 bound_to 6896
  152.5120  134.3804  159.9359 H   0  0  0  0  0  0  0  0  0  0  0  0  # atno 6908 bound_to 6896
  151.3820  133.3778  159.2746 H   0  0  0  0  0  0  0  0  0  0  0  0  # atno 6909 bound_to 6896
  144.7995  139.7132  143.6188 H   0  0  0  0  0  0  0  0  0  0  0  0  # atno 7974 bound_to 7965
  155.0057  140.3130  155.4849 H   0  0  0  0  0  0  0  0  0  0  0  0  # atno 8008 bound_to 7997
  156.2917  140.2223  156.5111 H   0  0  0  0  0  0  0  0  0  0  0  0  # atno 8009 bound_to 7997
  154.7578  140.0461  157.0936 H   0  0  0  0  0  0  0  0  0  0  0  0  # atno 8010 bound_to 7997
  140.6669  143.2684  151.4264 H   0  0  0  0  0  0  0  0  0  0  0  0  # atno 10167 bound_to 10162
  157.6950  131.0301  150.3302 H   0  0  0  0  0  0  0  0  0  0  0  0  # atno 10718 bound_to 10713
  153.8078  135.6885  153.4845 H   0  0  0  0  0  0  0  0  0  0  0  0  # atno 10763 bound_to 10752
  153.1648  135.4566  154.9820 H   0  0  0  0  0  0  0  0  0  0  0  0  # atno 10764 bound_to 10752
  154.7980  135.3326  154.7561 H   0  0  0  0  0  0  0  0  0  0  0  0  # atno 10765 bound_to 10752
  140.8525  133.7846  155.9982 H   0  0  0  0  0  0  0  0  0  0  0  0  # atno 11005 bound_to 11000
  146.2273  139.5747  142.9579 LP  0  0  0  0  0  0  0  0  0  0  0  0  # atno 17320 bound_to 7965
  145.5588  141.0406  143.2238 LP  0  0  0  0  0  0  0  0  0  0  0  0  # atno 17321 bound_to 7965
  139.5921  144.1476  152.2101 LP  0  0  0  0  0  0  0  0  0  0  0  0  # atno 17342 bound_to 10162
  140.0834  144.5682  150.7106 LP  0  0  0  0  0  0  0  0  0  0  0  0  # atno 17343 bound_to 10162
  156.3777  130.3875  149.7126 LP  0  0  0  0  0  0  0  0  0  0  0  0  # atno 17370 bound_to 10713
  156.4519  130.7911  151.2932 LP  0  0  0  0  0  0  0  0  0  0  0  0  # atno 17371 bound_to 10713
  140.8774  134.2653  157.5161 LP  0  0  0  0  0  0  0  0  0  0  0  0  # atno 17394 bound_to 11000
  139.8704  134.9598  156.4343 LP  0  0  0  0  0  0  0  0  0  0  0  0  # atno 17395 bound_to 11000

$$$$
