AV-unprocessed.smi:1888|AV-procd|sdf|7658|dock6
  -GOLD-   22720 9393D 1   1.00000     0.00000
 Structure written by MMmdl.
 43 45  0  0  0  0  0  0  0  0  2 V2000
  147.6198  140.3973  154.1826 C   0  0  0  0  0  0  0  0  0  0  0  0
  148.0441  141.8633  154.2967 C   0  0  0  0  0  0  0  0  0  0  0  0
  149.3798  141.9195  154.7675 O   0  0  0  0  0  0  0  0  0  0  0  0
  149.4861  141.6073  156.1460 C   0  0  0  0  0  0  0  0  0  0  0  0
  150.8319  142.1267  156.6677 C   0  0  0  0  0  0  0  0  0  0  0  0
  151.5098  141.1384  157.4999 N   0  0  0  0  0  0  0  0  0  0  0  0
  151.9348  141.2851  158.7807 C   0  0  0  0  0  0  0  0  0  0  0  0
  151.7539  142.4964  159.4815 N   0  0  0  0  0  0  0  0  0  0  0  0
  150.7578  143.3403  159.1345 N   0  0  0  0  0  0  0  0  0  0  0  0
  150.8670  144.3580  159.9720 C   0  0  0  0  0  0  0  0  0  0  0  0
  149.8947  145.4964  159.8789 C   0  0  0  0  0  0  0  0  0  0  0  0
  151.9533  144.1967  160.8769 C   0  0  0  0  0  0  0  0  0  0  0  0
  152.5024  142.9936  160.5324 C   0  0  0  0  0  0  0  0  0  0  0  0
  153.6688  142.2620  161.1111 C   0  0  0  0  0  0  0  0  0  0  0  0
  152.5052  140.2027  159.3134 N   0  0  0  0  0  0  0  0  0  0  0  0
  152.4503  139.2877  158.2710 C   0  0  0  0  0  0  0  0  0  0  0  0
  151.8597  139.8268  157.1702 C   0  0  0  0  0  0  0  0  0  0  0  0
  151.6579  139.0970  155.9003 C   0  0  0  0  0  0  0  0  0  0  0  0
  151.1215  139.6391  154.9362 O   0  0  0  0  0  0  0  0  0  0  0  0
  152.1319  137.8123  155.9631 N   0  5  0  0  0  0  0  0  0  0  0  0
  152.7340  137.2232  157.0546 C   0  0  0  0  0  0  0  0  0  0  0  0
  153.1335  136.0583  157.0264 O   0  0  0  0  0  0  0  0  0  0  0  0
  152.9001  137.9402  158.2108 N   0  0  0  0  0  0  0  0  0  0  0  0
  153.5342  137.3384  159.3873 C   0  0  0  0  0  0  0  0  0  0  0  0
  146.5926  140.3159  153.8267 H   0  0  0  0  0  0  0  0  0  0  0  0
  147.6804  139.8961  155.1489 H   0  0  0  0  0  0  0  0  0  0  0  0
  148.2602  139.8587  153.4839 H   0  0  0  0  0  0  0  0  0  0  0  0
  147.9665  142.3497  153.3230 H   0  0  0  0  0  0  0  0  0  0  0  0
  147.3808  142.3903  154.9841 H   0  0  0  0  0  0  0  0  0  0  0  0
  148.6627  142.0629  156.6975 H   0  0  0  0  0  0  0  0  0  0  0  0
  149.4173  140.5281  156.2884 H   0  0  0  0  0  0  0  0  0  0  0  0
  151.4765  142.3970  155.8311 H   0  0  0  0  0  0  0  0  0  0  0  0
  150.6975  143.0441  157.2398 H   0  0  0  0  0  0  0  0  0  0  0  0
  150.0555  146.2183  160.6796 H   0  0  0  0  0  0  0  0  0  0  0  0
  148.8663  145.1421  159.9539 H   0  0  0  0  0  0  0  0  0  0  0  0
  149.9984  146.0236  158.9304 H   0  0  0  0  0  0  0  0  0  0  0  0
  152.2791  144.8634  161.6615 H   0  0  0  0  0  0  0  0  0  0  0  0
  154.0335  142.7583  162.0104 H   0  0  0  0  0  0  0  0  0  0  0  0
  154.4897  142.2156  160.3954 H   0  0  0  0  0  0  0  0  0  0  0  0
  153.3941  141.2414  161.3786 H   0  0  0  0  0  0  0  0  0  0  0  0
  154.5509  137.0220  159.1520 H   0  0  0  0  0  0  0  0  0  0  0  0
  152.9722  136.4644  159.7187 H   0  0  0  0  0  0  0  0  0  0  0  0
  153.5952  138.0253  160.2309 H   0  0  0  0  0  0  0  0  0  0  0  0
  1  2  1  0  0  0  0
  1 25  1  0  0  0  0
  1 26  1  0  0  0  0
  1 27  1  0  0  0  0
  2  3  1  0  0  0  0
  2 28  1  0  0  0  0
  2 29  1  0  0  0  0
  3  4  1  0  0  0  0
  4  5  1  0  0  0  0
  4 30  1  0  0  0  0
  4 31  1  0  0  0  0
  5  6  1  0  0  0  0
  5 32  1  0  0  0  0
  5 33  1  0  0  0  0
  6 17  1  0  0  0  0
  6  7  1  0  0  0  0
  7  8  1  0  0  0  0
  7 15  2  0  0  0  0
  8 13  1  0  0  0  0
  8  9  1  0  0  0  0
  9 10  2  0  0  0  0
 10 11  1  0  0  0  0
 10 12  1  0  0  0  0
 11 34  1  0  0  0  0
 11 35  1  0  0  0  0
 11 36  1  0  0  0  0
 12 13  2  0  0  0  0
 12 37  1  0  0  0  0
 13 14  1  0  0  0  0
 14 38  1  0  0  0  0
 14 39  1  0  0  0  0
 14 40  1  0  0  0  0
 15 16  1  0  0  0  0
 16 23  1  0  0  0  0
 16 17  2  0  0  0  0
 17 18  1  0  0  0  0
 18 19  2  0  0  0  0
 18 20  1  0  0  0  0
 20 21  1  0  0  0  0
 21 22  2  0  0  0  0
 21 23  1  0  0  0  0
 23 24  1  0  0  0  0
 24 41  1  0  0  0  0
 24 42  1  0  0  0  0
 24 43  1  0  0  0  0
M  CHG  1  20  -1
M  END
> <s_m_source_file>
AV-unprocessed.smi

> <i_m_source_file_index>
1888

> <i_lp_mmshare_version>
43012

> <i_f3d_flags>
0

> <s_epik_input>
W0NIM11uMWMoPU8pW25IXWMoPU8pYyhjMTIpbihbQ0gyXVtDSDJdT1tDSDJdW0NIM10pYyhuMiktbjNuYyhbQ0gzXSlbY0hdYzNbQ0gzXQ==

> <s_epik_cmdline>
J2VwaWtfcHl0aG9uJywgJy1waCcsICc3LjAnLCAnLXRuJywgJzgnLCAnLW1hJywgJzIwMCcsICctbWV0YWxfYmluZGluZycsICctaW1hZScsICc8aW5maWxlLm1hZT4nLCAnLW9tYWUnLCAnPG91dGZpbGUubWFlPic=

> <r_lp_tautomer_probability>
1

> <r_epik_Ionization_Penalty>
3.99912

> <r_epik_Ionization_Penalty_Charging>
0.0169474

> <r_epik_Ionization_Penalty_Neutral>
3.98217

> <r_epik_State_Penalty>
3.98062

> <r_epik_Charging_Adjusted_Penalty>
3.99756

> <i_epik_Tot_Q>
-1

> <i_epik_Tot_abs_Q>
1

> <r_epik_Metal_State_Penalty>
0.61592

> <b_epik_Metal_Only>
1

> <s_lp_Force_Field>
OPLS_2005

> <r_lp_Energy>
30.4579

> <b_lp_Chiralities_Consistent>
1

> <s_lp_Variant>
AV-unprocessed.smi:1888-2

> <Gold.Version>
5.8.1

> <Gold.Id.Protein>
6NUR|6NUR_protein|mol2

> <Gold.PLP.Fitness>
48.1471

> <Gold.PLP.PLP>
-43.1087

> <Gold.PLP.part.hbond>
-4.5186

> <Gold.PLP.part.metal>
0.0000

> <Gold.PLP.part.buried>
-5.1437

> <Gold.PLP.part.nonpolar>
-34.0460

> <Gold.PLP.part.repulsive>
0.3558

> <Gold.PLP.ligand.clash>
0.0000

> <Gold.PLP.ligand.torsion>
0.7527

> <Gold.PLP.Chemscore.Hbond>
2.0000

> <Gold.PLP.Chemscore.CHOScore>
0.0000

> <Gold.PLP.Chemscore.Metal>
0.0000

> <Gold.Chemscore.Hbonds>
donor molecule, donor type, donor heavy atom, donor atom, acceptor molecule, acceptor atom, score
      P1  H  7989  7998       L1    19  1.00
      P1  H 10752 10764       L1    22  1.00

> <Gold.PLP.Chemscore.Internal.Correction>
0.5439

> <Gold.Rescore>
     Score         DG    S(hbond)    S(metal)    S(lipo)     H(rot)  DE(clash)    DE(int)     intcor
     13.19     -16.46       1.63        0.00      83.86       1.67       0.02       3.24       ----

> <Gold.Chemscore.Fitness>
13.1930

> <Gold.Chemscore.DG>
-16.4587

> <Gold.Chemscore.ZeroCoef>
-5.4800

> <Gold.Chemscore.Hbond>
1.6275

> <Gold.Chemscore.Metal>
0.0000

> <Gold.Chemscore.Lipo>
83.8600

> <Gold.Chemscore.Internal_Hbond>
0.0000

> <Gold.Chemscore.DEClash>
0.0247

> <Gold.Chemscore.DEInternal>
3.2409

> <Gold.Chemscore.Rot>
1.6675

> <Gold.Chemscore.Internal.Correction>
   9.000000E+99

> <Gold.Chemscore.Hbonds>
donor molecule, donor type, donor heavy atom, donor atom, acceptor molecule, acceptor atom, score
      P1  H  7989  7998       L1    19  0.99
      P1  H 10752 10764       L1    22  0.85

> <Gold.Chemscore.Hbond.Weighted>
-5.4359

> <Gold.Chemscore.Metal.Weighted>
-0.0000

> <Gold.Chemscore.Lipo.Weighted>
-9.8116

> <Gold.Chemscore.Internal_Hbond.Weighted>
0.0000

> <Gold.Chemscore.DEClash.Weighted>
0.0247

> <Gold.Chemscore.DEInternal.Weighted>
3.2409

> <Gold.Chemscore.Rot.Weighted>
4.2689

> <Gold.Chemscore.Internal.Correction.Weighted>
   9.000000E+99

> <Gold.Protein.RotatedTorsions>
[ 6907 6896 6895 6894 ] final  -67.54 input  -60.11 | X-H torsion
[ 7974 7965 7964 7962 ] final  -79.83 input  175.53 | X-H torsion
[ 8008 7997 7996 7995 ] final  -70.34 input   59.86 | X-H torsion
[ 10167 10162 10161 10158 ] final  -37.26 input  -65.29 | X-H torsion
[ 10718 10713 10712 10709 ] final  -73.41 input   66.30 | X-H torsion
[ 10763 10752 10751 10750 ] final  -10.94 input  -60.55 | X-H torsion
[ 11005 11000 10999 10996 ] final   16.86 input  -57.11 | X-H torsion

> <Gold.Protein.ActiveResidues>
 VAL166  LYS551  ARG553  GLY616  TRP617  ASP618  TYR619  PRO620  LYS621  CYS622 
 ASP623  PHE694  ASN695  SER759  ASP760  ASP761  ALA762  ILE779  LEU786  VAL792 
 PHE793  MET794  SER795  GLU796  ALA797  LYS798  CYS799  TRP800  GLU811  SER814 

> <Gold.Protein.RotatedAtoms>
  150.7404  134.5866  159.5965 H   0  0  0  0  0  0  0  0  0  0  0  0  # atno 6907 bound_to 6896
  152.3265  134.7311  160.0309 H   0  0  0  0  0  0  0  0  0  0  0  0  # atno 6908 bound_to 6896
  151.7809  133.3314  159.3508 H   0  0  0  0  0  0  0  0  0  0  0  0  # atno 6909 bound_to 6896
  145.5680  140.9471  143.1411 H   0  0  0  0  0  0  0  0  0  0  0  0  # atno 7974 bound_to 7965
  154.5005  140.0836  156.7787 H   0  0  0  0  0  0  0  0  0  0  0  0  # atno 8008 bound_to 7997
  155.4014  140.3437  155.4239 H   0  0  0  0  0  0  0  0  0  0  0  0  # atno 8009 bound_to 7997
  156.1450  140.1541  156.8848 H   0  0  0  0  0  0  0  0  0  0  0  0  # atno 8010 bound_to 7997
  140.7123  143.3354  151.2475 H   0  0  0  0  0  0  0  0  0  0  0  0  # atno 10167 bound_to 10162
  156.0281  130.4393  150.2738 H   0  0  0  0  0  0  0  0  0  0  0  0  # atno 10718 bound_to 10713
  153.4764  135.7017  153.5963 H   0  0  0  0  0  0  0  0  0  0  0  0  # atno 10763 bound_to 10752
  153.4195  135.3829  155.2102 H   0  0  0  0  0  0  0  0  0  0  0  0  # atno 10764 bound_to 10752
  154.8723  135.3924  154.4208 H   0  0  0  0  0  0  0  0  0  0  0  0  # atno 10765 bound_to 10752
  140.4424  134.1308  155.7692 H   0  0  0  0  0  0  0  0  0  0  0  0  # atno 11005 bound_to 11000
  144.7451  139.7341  143.7295 LP  0  0  0  0  0  0  0  0  0  0  0  0  # atno 17320 bound_to 7965
  146.1805  139.4995  142.9870 LP  0  0  0  0  0  0  0  0  0  0  0  0  # atno 17321 bound_to 7965
  139.6847  143.9794  152.2828 LP  0  0  0  0  0  0  0  0  0  0  0  0  # atno 17342 bound_to 10162
  139.9435  144.6666  150.8242 LP  0  0  0  0  0  0  0  0  0  0  0  0  # atno 17343 bound_to 10162
  157.0841  131.0151  151.3146 LP  0  0  0  0  0  0  0  0  0  0  0  0  # atno 17370 bound_to 10713
  157.4904  130.7819  149.7502 LP  0  0  0  0  0  0  0  0  0  0  0  0  # atno 17371 bound_to 10713
  141.1700  133.8628  157.1601 LP  0  0  0  0  0  0  0  0  0  0  0  0  # atno 17394 bound_to 11000
  140.0061  135.0008  157.0295 LP  0  0  0  0  0  0  0  0  0  0  0  0  # atno 17395 bound_to 11000

$$$$
