AV-unprocessed.smi:1788|AV-procd|sdf|7212|dock7
  -GOLD-   22720 8453D 1   1.00000     0.00000
 Structure written by MMmdl.
 55 57  0  0  0  0  0  0  0  0  2 V2000
  148.2077  133.3028  152.9474 C   0  0  0  0  0  0  0  0  0  0  0  0
  146.6722  133.2050  152.9298 C   0  0  2  0  0  0  0  0  0  0  0  0
  146.1269  132.6757  151.5909 C   0  0  0  0  0  0  0  0  0  0  0  0
  146.2111  133.7471  150.4956 C   0  0  0  0  0  0  0  0  0  0  0  0
  145.5198  135.0437  150.9430 C   0  0  0  0  0  0  0  0  0  0  0  0
  146.0939  135.5467  152.2175 N   0  3  1  0  0  0  0  0  0  0  0  0
  145.5406  136.8735  152.5965 C   0  0  0  0  0  0  0  0  0  0  0  0
  146.2198  138.0519  151.8712 C   0  0  0  0  0  0  0  0  0  0  0  0
  147.5382  138.3484  152.4272 N   0  0  0  0  0  0  0  0  0  0  0  0
  147.7925  139.2628  153.3739 C   0  0  0  0  0  0  0  0  0  0  0  0
  146.9272  139.9858  153.8649 O   0  0  0  0  0  0  0  0  0  0  0  0
  149.0885  139.2517  153.7278 N   0  0  0  0  0  0  0  0  0  0  0  0
  149.7342  140.0331  154.7237 C   0  0  0  0  0  0  0  0  0  0  0  0
  150.9334  139.5438  155.2762 C   0  0  0  0  0  0  0  0  0  0  0  0
  151.6041  140.3059  156.2513 C   0  0  0  0  0  0  0  0  0  0  0  0
  151.0640  141.5528  156.6455 C   0  0  0  0  0  0  0  0  0  0  0  0
  151.7233  142.3383  157.6166 N   0  0  0  0  0  0  0  0  0  0  0  0
  151.3535  143.7518  157.6395 C   0  0  0  0  0  0  0  0  0  0  0  0
  152.3315  144.5498  158.5195 C   0  0  0  0  0  0  0  0  0  0  0  0
  152.3927  143.9738  159.8198 O   0  0  0  0  0  0  0  0  0  0  0  0
  152.8669  142.6323  159.7811 C   0  0  0  0  0  0  0  0  0  0  0  0
  151.9044  141.7667  158.9502 C   0  0  0  0  0  0  0  0  0  0  0  0
  149.9123  142.0254  156.1087 N   0  0  0  0  0  0  0  0  0  0  0  0
  149.2720  141.2925  155.1737 C   0  0  0  0  0  0  0  0  0  0  0  0
  145.9893  134.5380  153.3068 C   0  0  0  0  0  0  0  0  0  0  0  0
  148.5787  134.0487  152.2444 H   0  0  0  0  0  0  0  0  0  0  0  0
  148.6643  132.3469  152.6891 H   0  0  0  0  0  0  0  0  0  0  0  0
  148.5694  133.5760  153.9391 H   0  0  0  0  0  0  0  0  0  0  0  0
  146.4063  132.4758  153.6964 H   0  0  0  0  0  0  0  0  0  0  0  0
  146.6637  131.7769  151.2854 H   0  0  0  0  0  0  0  0  0  0  0  0
  145.0849  132.3794  151.7193 H   0  0  0  0  0  0  0  0  0  0  0  0
  147.2541  133.9507  150.2507 H   0  0  0  0  0  0  0  0  0  0  0  0
  145.7488  133.3775  149.5800 H   0  0  0  0  0  0  0  0  0  0  0  0
  145.6391  135.7954  150.1616 H   0  0  0  0  0  0  0  0  0  0  0  0
  144.4479  134.8786  151.0649 H   0  0  0  0  0  0  0  0  0  0  0  0
  144.4797  136.9024  152.3434 H   0  0  0  0  0  0  0  0  0  0  0  0
  145.5964  137.0054  153.6780 H   0  0  0  0  0  0  0  0  0  0  0  0
  146.3496  137.7990  150.8187 H   0  0  0  0  0  0  0  0  0  0  0  0
  145.5787  138.9345  151.8839 H   0  0  0  0  0  0  0  0  0  0  0  0
  148.3126  137.8047  152.0739 H   0  0  0  0  0  0  0  0  0  0  0  0
  149.6663  138.5513  153.2865 H   0  0  0  0  0  0  0  0  0  0  0  0
  151.3349  138.5905  154.9647 H   0  0  0  0  0  0  0  0  0  0  0  0
  152.5123  139.9211  156.6905 H   0  0  0  0  0  0  0  0  0  0  0  0
  151.3451  144.1841  156.6400 H   0  0  0  0  0  0  0  0  0  0  0  0
  150.3400  143.8427  158.0325 H   0  0  0  0  0  0  0  0  0  0  0  0
  153.3270  144.5718  158.0728 H   0  0  0  0  0  0  0  0  0  0  0  0
  151.9990  145.5843  158.6058 H   0  0  0  0  0  0  0  0  0  0  0  0
  153.8757  142.6027  159.3655 H   0  0  0  0  0  0  0  0  0  0  0  0
  152.9314  142.2493  160.7998 H   0  0  0  0  0  0  0  0  0  0  0  0
  150.9367  141.7021  159.4497 H   0  0  0  0  0  0  0  0  0  0  0  0
  152.3029  140.7539  158.8761 H   0  0  0  0  0  0  0  0  0  0  0  0
  148.3819  141.7524  154.7741 H   0  0  0  0  0  0  0  0  0  0  0  0
  144.9344  134.3594  153.5220 H   0  0  0  0  0  0  0  0  0  0  0  0
  146.4296  134.9243  154.2260 H   0  0  0  0  0  0  0  0  0  0  0  0
  147.0791  135.6886  152.0454 H   0  0  0  0  0  0  0  0  0  0  0  0
  1  2  1  0  0  0  0
  1 26  1  0  0  0  0
  1 27  1  0  0  0  0
  1 28  1  0  0  0  0
  2 25  1  0  0  0  0
  2  3  1  0  0  0  0
  2 29  1  0  0  0  0
  3  4  1  0  0  0  0
  3 30  1  0  0  0  0
  3 31  1  0  0  0  0
  4  5  1  0  0  0  0
  4 32  1  0  0  0  0
  4 33  1  0  0  0  0
  5  6  1  0  0  0  0
  5 34  1  0  0  0  0
  5 35  1  0  0  0  0
  6  7  1  0  0  0  0
  6 25  1  0  0  0  0
  6 55  1  0  0  0  0
  7  8  1  0  0  0  0
  7 36  1  0  0  0  0
  7 37  1  0  0  0  0
  8  9  1  0  0  0  0
  8 38  1  0  0  0  0
  8 39  1  0  0  0  0
  9 10  1  0  0  0  0
  9 40  1  0  0  0  0
 10 11  2  0  0  0  0
 10 12  1  0  0  0  0
 12 13  1  0  0  0  0
 12 41  1  0  0  0  0
 13 24  1  0  0  0  0
 13 14  2  0  0  0  0
 14 15  1  0  0  0  0
 14 42  1  0  0  0  0
 15 16  2  0  0  0  0
 15 43  1  0  0  0  0
 16 17  1  0  0  0  0
 16 23  1  0  0  0  0
 17 22  1  0  0  0  0
 17 18  1  0  0  0  0
 18 19  1  0  0  0  0
 18 44  1  0  0  0  0
 18 45  1  0  0  0  0
 19 20  1  0  0  0  0
 19 46  1  0  0  0  0
 19 47  1  0  0  0  0
 20 21  1  0  0  0  0
 21 22  1  0  0  0  0
 21 48  1  0  0  0  0
 21 49  1  0  0  0  0
 22 50  1  0  0  0  0
 22 51  1  0  0  0  0
 23 24  2  0  0  0  0
 24 52  1  0  0  0  0
 25 53  1  0  0  0  0
 25 54  1  0  0  0  0
M  CHG  1   6   1
M  END
> <s_m_source_file>
AV-unprocessed.smi

> <i_m_source_file_index>
1788

> <i_lp_mmshare_version>
43012

> <i_f3d_flags>
0

> <s_epik_input>
W0NIM11bQ0BASF0xW0NIMl1bQ0gyXVtDSDJdTihbQ0gyXTEpW0NIMl1bQ0gyXVtOSF1DKD1PKVtOSF1jMltjSF1bY0hdYyhuW2NIXTIpTjNbQ0gyXVtDSDJdT1tDSDJdW0NIMl0z

> <s_epik_cmdline>
J2VwaWtfcHl0aG9uJywgJy1waCcsICc3LjAnLCAnLXRuJywgJzgnLCAnLW1hJywgJzIwMCcsICctbWV0YWxfYmluZGluZycsICctaW1hZScsICc8aW5maWxlLm1hZT4nLCAnLW9tYWUnLCAnPG91dGZpbGUubWFlPic=

> <r_lp_tautomer_probability>
1

> <r_epik_Ionization_Penalty>
0.00340126

> <r_epik_Ionization_Penalty_Charging>
0.00171832

> <r_epik_Ionization_Penalty_Neutral>
0.00168294

> <r_epik_State_Penalty>
-0

> <r_epik_Charging_Adjusted_Penalty>
0.00171832

> <i_epik_Tot_Q>
1

> <i_epik_Tot_abs_Q>
1

> <r_epik_Metal_State_Penalty>
-0

> <b_epik_Metal_Only>
0

> <s_lp_Force_Field>
OPLS_2005

> <r_lp_Energy>
41.5568

> <b_lp_Chiralities_Consistent>
1

> <s_lp_Variant>
AV-unprocessed.smi:1788-3

> <Gold.Version>
5.8.1

> <Gold.Id.Protein>
6NUR|6NUR_protein|mol2

> <Gold.PLP.Fitness>
55.6009

> <Gold.PLP.PLP>
-48.1928

> <Gold.PLP.part.hbond>
-4.0000

> <Gold.PLP.part.metal>
0.0000

> <Gold.PLP.part.buried>
-2.3263

> <Gold.PLP.part.nonpolar>
-43.8055

> <Gold.PLP.part.repulsive>
1.8957

> <Gold.PLP.ligand.clash>
0.0000

> <Gold.PLP.ligand.torsion>
0.9191

> <Gold.PLP.Chemscore.Hbond>
2.9600

> <Gold.PLP.Chemscore.CHOScore>
0.0000

> <Gold.PLP.Chemscore.Metal>
0.0000

> <Gold.Chemscore.Hbonds>
donor molecule, donor type, donor heavy atom, donor atom, acceptor molecule, acceptor atom, score
      L1  H     6    55       P1  7948  2.00
      L1  H     9    40       P1  7948  0.94

> <Gold.PLP.Chemscore.Internal.Correction>
0.3662

> <Gold.Rescore>
     Score         DG    S(hbond)    S(metal)    S(lipo)     H(rot)  DE(clash)    DE(int)     intcor
     19.05     -21.56       1.93        0.00     117.35       1.60       0.61       1.90       ----

> <Gold.Chemscore.Fitness>
19.0548

> <Gold.Chemscore.DG>
-21.5620

> <Gold.Chemscore.ZeroCoef>
-5.4800

> <Gold.Chemscore.Hbond>
1.9287

> <Gold.Chemscore.Metal>
0.0000

> <Gold.Chemscore.Lipo>
117.3519

> <Gold.Chemscore.Internal_Hbond>
0.0000

> <Gold.Chemscore.DEClash>
0.6058

> <Gold.Chemscore.DEInternal>
1.9014

> <Gold.Chemscore.Rot>
1.5976

> <Gold.Chemscore.Internal.Correction>
   9.000000E+99

> <Gold.Chemscore.Hbonds>
donor molecule, donor type, donor heavy atom, donor atom, acceptor molecule, acceptor atom, score
      L1  H     6    55       P1  7948  0.99
      L1  H     9    40       P1  7948  0.91

> <Gold.Chemscore.Hbond.Weighted>
-6.4418

> <Gold.Chemscore.Metal.Weighted>
-0.0000

> <Gold.Chemscore.Lipo.Weighted>
-13.7302

> <Gold.Chemscore.Internal_Hbond.Weighted>
0.0000

> <Gold.Chemscore.DEClash.Weighted>
0.6058

> <Gold.Chemscore.DEInternal.Weighted>
1.9014

> <Gold.Chemscore.Rot.Weighted>
4.0899

> <Gold.Chemscore.Internal.Correction.Weighted>
   9.000000E+99

> <Gold.Protein.RotatedTorsions>
[ 6907 6896 6895 6894 ] final  115.39 input  -60.11 | X-H torsion
[ 7974 7965 7964 7962 ] final    9.47 input  175.53 | X-H torsion
[ 8008 7997 7996 7995 ] final   15.93 input   59.86 | X-H torsion
[ 10167 10162 10161 10158 ] final   -9.43 input  -65.29 | X-H torsion
[ 10718 10713 10712 10709 ] final   82.80 input   66.30 | X-H torsion
[ 10763 10752 10751 10750 ] final   21.91 input  -60.55 | X-H torsion
[ 11005 11000 10999 10996 ] final   36.49 input  -57.11 | X-H torsion

> <Gold.Protein.ActiveResidues>
 VAL166  LYS551  ARG553  GLY616  TRP617  ASP618  TYR619  PRO620  LYS621  CYS622 
 ASP623  PHE694  ASN695  SER759  ASP760  ASP761  ALA762  ILE779  LEU786  VAL792 
 PHE793  MET794  SER795  GLU796  ALA797  LYS798  CYS799  TRP800  GLU811  SER814 

> <Gold.Protein.RotatedAtoms>
  152.4744  133.8104  159.7000 H   0  0  0  0  0  0  0  0  0  0  0  0  # atno 6907 bound_to 6896
  150.8752  133.7439  159.2955 H   0  0  0  0  0  0  0  0  0  0  0  0  # atno 6908 bound_to 6896
  151.4961  135.1063  159.9868 H   0  0  0  0  0  0  0  0  0  0  0  0  # atno 6909 bound_to 6896
  146.2403  139.9779  142.8439 H   0  0  0  0  0  0  0  0  0  0  0  0  # atno 7974 bound_to 7965
  154.8696  140.2957  155.5489 H   0  0  0  0  0  0  0  0  0  0  0  0  # atno 8008 bound_to 7997
  156.3021  140.2462  156.3616 H   0  0  0  0  0  0  0  0  0  0  0  0  # atno 8009 bound_to 7997
  154.8831  140.0397  157.1783 H   0  0  0  0  0  0  0  0  0  0  0  0  # atno 8010 bound_to 7997
  140.7087  143.5859  150.8944 H   0  0  0  0  0  0  0  0  0  0  0  0  # atno 10167 bound_to 10162
  157.6865  131.0063  150.2429 H   0  0  0  0  0  0  0  0  0  0  0  0  # atno 10718 bound_to 10713
  153.0957  135.6659  153.9767 H   0  0  0  0  0  0  0  0  0  0  0  0  # atno 10763 bound_to 10752
  153.9352  135.3000  155.3446 H   0  0  0  0  0  0  0  0  0  0  0  0  # atno 10764 bound_to 10752
  154.7376  135.5094  153.9141 H   0  0  0  0  0  0  0  0  0  0  0  0  # atno 10765 bound_to 10752
  140.2320  134.3516  155.7960 H   0  0  0  0  0  0  0  0  0  0  0  0  # atno 11005 bound_to 11000
  145.1619  140.9677  143.4372 LP  0  0  0  0  0  0  0  0  0  0  0  0  # atno 17320 bound_to 7965
  145.0108  139.3512  143.6121 LP  0  0  0  0  0  0  0  0  0  0  0  0  # atno 17321 bound_to 7965
  139.9585  143.6191  152.3009 LP  0  0  0  0  0  0  0  0  0  0  0  0  # atno 17342 bound_to 10162
  139.6735  144.7660  151.1739 LP  0  0  0  0  0  0  0  0  0  0  0  0  # atno 17343 bound_to 10162
  156.3040  130.3762  149.7724 LP  0  0  0  0  0  0  0  0  0  0  0  0  # atno 17370 bound_to 10713
  156.5345  130.8272  151.3248 LP  0  0  0  0  0  0  0  0  0  0  0  0  # atno 17371 bound_to 10713
  141.2217  133.7251  156.8747 LP  0  0  0  0  0  0  0  0  0  0  0  0  # atno 17394 bound_to 11000
  140.1740  134.9080  157.2869 LP  0  0  0  0  0  0  0  0  0  0  0  0  # atno 17395 bound_to 11000

$$$$
