AV-unprocessed.smi:2189|AV-procd|sdf|8885|dock5
  -GOLD-   2272012 83D 1   1.00000     0.00000
 Structure written by MMmdl.
 40 42  0  0  0  0  0  0  0  0  2 V2000
  151.0424  140.4494  155.5651 O   0  0  0  0  0  0  0  0  0  0  0  0
  150.7151  141.5654  155.9730 C   0  0  0  0  0  0  0  0  0  0  0  0
  149.6640  142.2212  155.4433 N   0  0  0  0  0  0  0  0  0  0  0  0
  148.7986  141.7333  154.3719 C   0  0  0  0  0  0  0  0  0  0  0  0
  147.4015  141.3226  154.8775 C   0  0  0  0  0  0  0  0  0  0  0  0
  146.3619  142.4242  154.7700 C   0  0  0  0  0  0  0  0  0  0  0  0
  146.1171  143.1141  153.5623 C   0  0  0  0  0  0  0  0  0  0  0  0
  145.1198  144.1107  153.5287 C   0  0  0  0  0  0  0  0  0  0  0  0
  144.3911  144.3983  154.7014 C   0  0  0  0  0  0  0  0  0  0  0  0
  144.6787  143.6808  155.8802 C   0  0  0  0  0  0  0  0  0  0  0  0
  145.6422  142.7338  155.8728 N   0  3  0  0  0  0  0  0  0  0  0  0
  151.4028  142.3110  157.0440 C   0  0  0  0  0  0  0  0  0  0  0  0
  151.2673  143.6630  157.1025 C   0  0  0  0  0  0  0  0  0  0  0  0
  151.8982  144.4462  158.1357 C   0  0  0  0  0  0  0  0  0  0  0  0
  152.6656  143.8102  159.0270 C   0  0  0  0  0  0  0  0  0  0  0  0
  152.8835  142.4340  159.0016 N   0  0  0  0  0  0  0  0  0  0  0  0
  153.8383  141.8980  159.9658 C   0  0  0  0  0  0  0  0  0  0  0  0
  153.3334  140.5851  160.5357 C   0  0  0  0  0  0  0  0  0  0  0  0
  153.2501  139.4259  159.1241 S   0  0  0  0  0  0  0  0  0  0  0  0
  154.6031  139.2925  158.5616 O   0  0  0  0  0  0  0  0  0  0  0  0
  152.5278  138.2220  159.5618 O   0  0  0  0  0  0  0  0  0  0  0  0
  152.2989  140.3051  158.0624 N   0  0  0  0  0  0  0  0  0  0  0  0
  152.2246  141.6059  158.0496 C   0  0  0  0  0  0  0  0  0  0  0  0
  149.4411  143.1294  155.8247 H   0  0  0  0  0  0  0  0  0  0  0  0
  148.7125  142.4766  153.5777 H   0  0  0  0  0  0  0  0  0  0  0  0
  149.2861  140.8682  153.9218 H   0  0  0  0  0  0  0  0  0  0  0  0
  147.0500  140.4573  154.3144 H   0  0  0  0  0  0  0  0  0  0  0  0
  147.4692  140.9980  155.9167 H   0  0  0  0  0  0  0  0  0  0  0  0
  146.6780  142.8773  152.6701 H   0  0  0  0  0  0  0  0  0  0  0  0
  144.9140  144.6464  152.6137 H   0  0  0  0  0  0  0  0  0  0  0  0
  143.6217  145.1565  154.6960 H   0  0  0  0  0  0  0  0  0  0  0  0
  144.1691  143.8319  156.8207 H   0  0  0  0  0  0  0  0  0  0  0  0
  150.6860  144.2030  156.3689 H   0  0  0  0  0  0  0  0  0  0  0  0
  151.7526  145.5151  158.1906 H   0  0  0  0  0  0  0  0  0  0  0  0
  153.1634  144.3422  159.8249 H   0  0  0  0  0  0  0  0  0  0  0  0
  154.8056  141.7660  159.4798 H   0  0  0  0  0  0  0  0  0  0  0  0
  153.9945  142.5996  160.7857 H   0  0  0  0  0  0  0  0  0  0  0  0
  154.0148  140.1791  161.2830 H   0  0  0  0  0  0  0  0  0  0  0  0
  152.3444  140.6841  160.9844 H   0  0  0  0  0  0  0  0  0  0  0  0
  145.8283  142.2223  156.7358 H   0  0  0  0  0  0  0  0  0  0  0  0
  1  2  2  0  0  0  0
  2  3  1  0  0  0  0
  2 12  1  0  0  0  0
  3  4  1  0  0  0  0
  3 24  1  0  0  0  0
  4  5  1  0  0  0  0
  4 25  1  0  0  0  0
  4 26  1  0  0  0  0
  5  6  1  0  0  0  0
  5 27  1  0  0  0  0
  5 28  1  0  0  0  0
  6 11  1  0  0  0  0
  6  7  2  0  0  0  0
  7  8  1  0  0  0  0
  7 29  1  0  0  0  0
  8  9  2  0  0  0  0
  8 30  1  0  0  0  0
  9 10  1  0  0  0  0
  9 31  1  0  0  0  0
 10 11  2  0  0  0  0
 10 32  1  0  0  0  0
 11 40  1  0  0  0  0
 12 23  1  0  0  0  0
 12 13  2  0  0  0  0
 13 14  1  0  0  0  0
 13 33  1  0  0  0  0
 14 15  2  0  0  0  0
 14 34  1  0  0  0  0
 15 16  1  0  0  0  0
 15 35  1  0  0  0  0
 16 23  1  0  0  0  0
 16 17  1  0  0  0  0
 17 18  1  0  0  0  0
 17 36  1  0  0  0  0
 17 37  1  0  0  0  0
 18 19  1  0  0  0  0
 18 38  1  0  0  0  0
 18 39  1  0  0  0  0
 19 20  2  0  0  0  0
 19 21  2  0  0  0  0
 19 22  1  0  0  0  0
 22 23  2  0  0  0  0
M  CHG  1  11   1
M  END
> <s_m_source_file>
AV-unprocessed.smi

> <i_m_source_file_index>
2189

> <i_lp_mmshare_version>
43012

> <i_f3d_flags>
0

> <s_epik_input>
W0NIMl0xW0NIMl1TKD1PKSg9TylOPUMoTjEyKUMoPVtDSF1bQ0hdPVtDSF0yKUMoPU8pW05IXVtDSDJdW0NIMl1jM1tjSF1bY0hdW2NIXVtjSF1uMw==

> <s_epik_cmdline>
J2VwaWtfcHl0aG9uJywgJy1waCcsICc3LjAnLCAnLXRuJywgJzgnLCAnLW1hJywgJzIwMCcsICctbWV0YWxfYmluZGluZycsICctaW1hZScsICc8aW5maWxlLm1hZT4nLCAnLW9tYWUnLCAnPG91dGZpbGUubWFlPic=

> <r_epik_Ionization_Penalty>
2.08937

> <r_epik_Ionization_Penalty_Charging>
2.08928

> <r_epik_Ionization_Penalty_Neutral>
8.13788e-05

> <r_epik_State_Penalty>
2.22459

> <r_epik_Charging_Adjusted_Penalty>
4.31388

> <i_epik_Tot_Q>
1

> <i_epik_Tot_abs_Q>
1

> <r_epik_Metal_State_Penalty>
2.35797

> <b_epik_Metal_Only>
0

> <s_lp_Force_Field>
OPLS_2005

> <r_lp_Energy>
32.7786

> <b_lp_Chiralities_Consistent>
1

> <s_lp_Variant>
AV-unprocessed.smi:2189-2

> <Gold.Version>
5.8.1

> <Gold.Id.Protein>
6NUR|6NUR_protein|mol2

> <Gold.PLP.Fitness>
53.3915

> <Gold.PLP.PLP>
-47.7509

> <Gold.PLP.part.hbond>
-2.7859

> <Gold.PLP.part.metal>
0.0000

> <Gold.PLP.part.buried>
-4.1785

> <Gold.PLP.part.nonpolar>
-40.3676

> <Gold.PLP.part.repulsive>
0.2184

> <Gold.PLP.ligand.clash>
1.0627

> <Gold.PLP.ligand.torsion>
0.5742

> <Gold.PLP.Chemscore.Hbond>
2.5522

> <Gold.PLP.Chemscore.CHOScore>
0.0000

> <Gold.PLP.Chemscore.Metal>
0.0000

> <Gold.Chemscore.Hbonds>
donor molecule, donor type, donor heavy atom, donor atom, acceptor molecule, acceptor atom, score
      L1  H     3    24       P1  8028  1.00
      P1  H  7989  7998       L1     1  0.58
      P1  H  7997  8010       L1    20  1.00

> <Gold.PLP.Chemscore.Internal.Correction>
0.1951

> <Gold.Rescore>
     Score         DG    S(hbond)    S(metal)    S(lipo)     H(rot)  DE(clash)    DE(int)     intcor
     18.69     -20.85       1.98        0.00     108.41       1.54       0.24       1.92       ----

> <Gold.Chemscore.Fitness>
18.6913

> <Gold.Chemscore.DG>
-20.8478

> <Gold.Chemscore.ZeroCoef>
-5.4800

> <Gold.Chemscore.Hbond>
1.9805

> <Gold.Chemscore.Metal>
0.0000

> <Gold.Chemscore.Lipo>
108.4083

> <Gold.Chemscore.Internal_Hbond>
0.0000

> <Gold.Chemscore.DEClash>
0.2399

> <Gold.Chemscore.DEInternal>
1.9166

> <Gold.Chemscore.Rot>
1.5355

> <Gold.Chemscore.Internal.Correction>
   9.000000E+99

> <Gold.Chemscore.Hbonds>
donor molecule, donor type, donor heavy atom, donor atom, acceptor molecule, acceptor atom, score
      L1  H     3    24       P1  8028  0.95
      P1  H  7989  7998       L1     1  0.19
      P1  H  7997  8010       L1    20  0.83

> <Gold.Chemscore.Hbond.Weighted>
-6.6149

> <Gold.Chemscore.Metal.Weighted>
-0.0000

> <Gold.Chemscore.Lipo.Weighted>
-12.6838

> <Gold.Chemscore.Internal_Hbond.Weighted>
0.0000

> <Gold.Chemscore.DEClash.Weighted>
0.2399

> <Gold.Chemscore.DEInternal.Weighted>
1.9166

> <Gold.Chemscore.Rot.Weighted>
3.9309

> <Gold.Chemscore.Internal.Correction.Weighted>
   9.000000E+99

> <Gold.Protein.RotatedTorsions>
[ 6907 6896 6895 6894 ] final   95.09 input  -60.11 | X-H torsion
[ 7974 7965 7964 7962 ] final  128.25 input  175.53 | X-H torsion
[ 8008 7997 7996 7995 ] final   22.59 input   59.86 | X-H torsion
[ 10167 10162 10161 10158 ] final  129.44 input  -65.29 | X-H torsion
[ 10718 10713 10712 10709 ] final  147.83 input   66.30 | X-H torsion
[ 10763 10752 10751 10750 ] final -152.05 input  -60.55 | X-H torsion
[ 11005 11000 10999 10996 ] final  178.91 input  -57.11 | X-H torsion

> <Gold.Protein.ActiveResidues>
 VAL166  LYS551  ARG553  GLY616  TRP617  ASP618  TYR619  PRO620  LYS621  CYS622 
 ASP623  PHE694  ASN695  SER759  ASP760  ASP761  ALA762  ILE779  LEU786  VAL792 
 PHE793  MET794  SER795  GLU796  ALA797  LYS798  CYS799  TRP800  GLU811  SER814 

> <Gold.Protein.RotatedAtoms>
  152.5446  134.1094  159.8351 H   0  0  0  0  0  0  0  0  0  0  0  0  # atno 6907 bound_to 6896
  151.1162  133.5129  159.2611 H   0  0  0  0  0  0  0  0  0  0  0  0  # atno 6908 bound_to 6896
  151.1829  135.0378  159.8854 H   0  0  0  0  0  0  0  0  0  0  0  0  # atno 6909 bound_to 6896
  145.0416  139.3958  143.5099 H   0  0  0  0  0  0  0  0  0  0  0  0  # atno 7974 bound_to 7965
  154.9681  140.3086  155.5000 H   0  0  0  0  0  0  0  0  0  0  0  0  # atno 8008 bound_to 7997
  156.2969  140.2289  156.4710 H   0  0  0  0  0  0  0  0  0  0  0  0  # atno 8009 bound_to 7997
  154.7902  140.0440  157.1183 H   0  0  0  0  0  0  0  0  0  0  0  0  # atno 8010 bound_to 7997
  139.5477  144.6787  151.4420 H   0  0  0  0  0  0  0  0  0  0  0  0  # atno 10167 bound_to 10162
  157.3161  131.0896  151.1277 H   0  0  0  0  0  0  0  0  0  0  0  0  # atno 10718 bound_to 10713
  154.8019  135.3245  154.7529 H   0  0  0  0  0  0  0  0  0  0  0  0  # atno 10763 bound_to 10752
  153.8195  135.6889  153.4833 H   0  0  0  0  0  0  0  0  0  0  0  0  # atno 10764 bound_to 10752
  153.1740  135.4612  154.9884 H   0  0  0  0  0  0  0  0  0  0  0  0  # atno 10765 bound_to 10752
  140.4003  134.6783  157.4558 H   0  0  0  0  0  0  0  0  0  0  0  0  # atno 11005 bound_to 11000
  146.3510  140.0020  142.8675 LP  0  0  0  0  0  0  0  0  0  0  0  0  # atno 17320 bound_to 7965
  145.1640  140.9687  143.4360 LP  0  0  0  0  0  0  0  0  0  0  0  0  # atno 17321 bound_to 7965
  140.6731  143.8250  150.7024 LP  0  0  0  0  0  0  0  0  0  0  0  0  # atno 17342 bound_to 10162
  140.1680  143.4218  152.2020 LP  0  0  0  0  0  0  0  0  0  0  0  0  # atno 17343 bound_to 10162
  157.2580  130.6645  149.5961 LP  0  0  0  0  0  0  0  0  0  0  0  0  # atno 17370 bound_to 10713
  155.9682  130.4517  150.5747 LP  0  0  0  0  0  0  0  0  0  0  0  0  # atno 17371 bound_to 10713
  140.0341  134.6363  155.9067 LP  0  0  0  0  0  0  0  0  0  0  0  0  # atno 17394 bound_to 11000
  141.1859  133.6556  156.5217 LP  0  0  0  0  0  0  0  0  0  0  0  0  # atno 17395 bound_to 11000

$$$$
