AV-unprocessed.smi:2668|AV-procd|sdf|10342|dock1
  -GOLD-   2272014363D 1   1.00000     0.00000
 Structure written by MMmdl.
 53 54  0  0  0  0  0  0  0  0  2 V2000
  146.1266  136.0001  157.4463 C   0  0  0  0  0  0  0  0  0  0  0  0
  145.4506  137.1831  156.9180 N   0  0  0  0  0  0  0  0  0  0  0  0
  144.0174  136.9542  157.0907 C   0  0  0  0  0  0  0  0  0  0  0  0
  145.8954  138.4246  157.5823 C   0  0  2  0  0  0  0  0  0  0  0  0
  145.1526  139.6818  157.0757 C   0  0  0  0  0  0  0  0  0  0  0  0
  145.5508  140.0509  155.6359 C   0  0  0  0  0  0  0  0  0  0  0  0
  147.0216  140.2815  155.5131 N   0  3  2  0  0  0  0  0  0  0  0  0
  147.4789  140.8682  154.1997 C   0  0  0  0  0  0  0  0  0  0  0  0
  147.1293  139.9028  153.0384 C   0  0  0  0  0  0  0  0  0  0  0  0
  146.6980  142.1763  153.9127 C   0  0  0  0  0  0  0  0  0  0  0  0
  149.0138  141.1403  154.2086 C   0  0  0  0  0  0  0  0  0  0  0  0
  149.4495  141.9936  155.3136 N   0  0  0  0  0  0  0  0  0  0  0  0
  150.3506  141.6602  156.2490 C   0  0  0  0  0  0  0  0  0  0  0  0
  150.9113  140.5655  156.2907 O   0  0  0  0  0  0  0  0  0  0  0  0
  150.5579  142.6752  157.1052 N   0  0  0  0  0  0  0  0  0  0  0  0
  151.4267  142.7223  158.2291 C   0  0  0  0  0  0  0  0  0  0  0  0
  151.7227  143.8980  158.9610 C   0  0  0  0  0  0  0  0  0  0  0  0
  152.6165  143.8160  160.0461 C   0  0  0  0  0  0  0  0  0  0  0  0
  153.1860  142.5660  160.3561 C   0  0  0  0  0  0  0  0  0  0  0  0
  152.9236  141.4403  159.6593 N   0  0  0  0  0  0  0  0  0  0  0  0
  152.0666  141.5267  158.6198 C   0  0  0  0  0  0  0  0  0  0  0  0
  147.7817  139.0829  155.9800 C   0  0  0  0  0  0  0  0  0  0  0  0
  147.4077  138.7027  157.4237 C   0  0  0  0  0  0  0  0  0  0  0  0
  147.1856  135.9966  157.1932 H   0  0  0  0  0  0  0  0  0  0  0  0
  145.7107  135.0895  157.0127 H   0  0  0  0  0  0  0  0  0  0  0  0
  146.0259  135.9344  158.5306 H   0  0  0  0  0  0  0  0  0  0  0  0
  143.4218  137.7017  156.5696 H   0  0  0  0  0  0  0  0  0  0  0  0
  143.7375  136.9590  158.1451 H   0  0  0  0  0  0  0  0  0  0  0  0
  143.7258  135.9910  156.6696 H   0  0  0  0  0  0  0  0  0  0  0  0
  145.6850  138.3112  158.6471 H   0  0  0  0  0  0  0  0  0  0  0  0
  144.0712  139.5907  157.1608 H   0  0  0  0  0  0  0  0  0  0  0  0
  145.4072  140.5198  157.7262 H   0  0  0  0  0  0  0  0  0  0  0  0
  145.2343  139.2587  154.9572 H   0  0  0  0  0  0  0  0  0  0  0  0
  144.9851  140.9403  155.3680 H   0  0  0  0  0  0  0  0  0  0  0  0
  147.2568  140.3791  152.0654 H   0  0  0  0  0  0  0  0  0  0  0  0
  146.0925  139.5688  153.0961 H   0  0  0  0  0  0  0  0  0  0  0  0
  147.7684  139.0203  153.0231 H   0  0  0  0  0  0  0  0  0  0  0  0
  146.8328  142.5122  152.8840 H   0  0  0  0  0  0  0  0  0  0  0  0
  147.0261  143.0032  154.5420 H   0  0  0  0  0  0  0  0  0  0  0  0
  145.6261  142.0420  154.0637 H   0  0  0  0  0  0  0  0  0  0  0  0
  149.5777  140.2071  154.2222 H   0  0  0  0  0  0  0  0  0  0  0  0
  149.3140  141.6534  153.2955 H   0  0  0  0  0  0  0  0  0  0  0  0
  149.0431  142.9167  155.3595 H   0  0  0  0  0  0  0  0  0  0  0  0
  150.0813  143.5395  156.8927 H   0  0  0  0  0  0  0  0  0  0  0  0
  151.2983  144.8566  158.7065 H   0  0  0  0  0  0  0  0  0  0  0  0
  152.8634  144.6936  160.6248 H   0  0  0  0  0  0  0  0  0  0  0  0
  153.8757  142.4691  161.1815 H   0  0  0  0  0  0  0  0  0  0  0  0
  151.8825  140.6071  158.0835 H   0  0  0  0  0  0  0  0  0  0  0  0
  147.5936  138.2352  155.3211 H   0  0  0  0  0  0  0  0  0  0  0  0
  148.8548  139.2605  155.9658 H   0  0  0  0  0  0  0  0  0  0  0  0
  147.6761  139.5345  158.0765 H   0  0  0  0  0  0  0  0  0  0  0  0
  148.0224  137.8751  157.7739 H   0  0  0  0  0  0  0  0  0  0  0  0
  147.2287  140.9997  156.1923 H   0  0  0  0  0  0  0  0  0  0  0  0
  1  2  1  0  0  0  0
  1 24  1  0  0  0  0
  1 25  1  0  0  0  0
  1 26  1  0  0  0  0
  2  3  1  0  0  0  0
  2  4  1  0  0  0  0
  3 27  1  0  0  0  0
  3 28  1  0  0  0  0
  3 29  1  0  0  0  0
  4 23  1  0  0  0  0
  4  5  1  0  0  0  0
  4 30  1  0  0  0  0
  5  6  1  0  0  0  0
  5 31  1  0  0  0  0
  5 32  1  0  0  0  0
  6  7  1  0  0  0  0
  6 33  1  0  0  0  0
  6 34  1  0  0  0  0
  7  8  1  0  0  0  0
  7 22  1  0  0  0  0
  7 53  1  0  0  0  0
  8  9  1  0  0  0  0
  8 10  1  0  0  0  0
  8 11  1  0  0  0  0
  9 35  1  0  0  0  0
  9 36  1  0  0  0  0
  9 37  1  0  0  0  0
 10 38  1  0  0  0  0
 10 39  1  0  0  0  0
 10 40  1  0  0  0  0
 11 12  1  0  0  0  0
 11 41  1  0  0  0  0
 11 42  1  0  0  0  0
 12 13  1  0  0  0  0
 12 43  1  0  0  0  0
 13 14  2  0  0  0  0
 13 15  1  0  0  0  0
 15 16  1  0  0  0  0
 15 44  1  0  0  0  0
 16 21  1  0  0  0  0
 16 17  2  0  0  0  0
 17 18  1  0  0  0  0
 17 45  1  0  0  0  0
 18 19  2  0  0  0  0
 18 46  1  0  0  0  0
 19 20  1  0  0  0  0
 19 47  1  0  0  0  0
 20 21  2  0  0  0  0
 21 48  1  0  0  0  0
 22 23  1  0  0  0  0
 22 49  1  0  0  0  0
 22 50  1  0  0  0  0
 23 51  1  0  0  0  0
 23 52  1  0  0  0  0
M  CHG  1   7   1
M  END
> <s_m_source_file>
AV-unprocessed.smi

> <i_m_source_file_index>
2668

> <i_lp_mmshare_version>
43012

> <i_f3d_flags>
0

> <s_epik_input>
W0NIM11OKFtDSDNdKVtDSF0xW0NIMl1bQ0gyXU4oW0NIMl1bQ0gyXTEpQyhbQ0gzXSkoW0NIM10pW0NIMl1bTkhdQyg9TylbTkhdYzJbY0hdW2NIXVtjSF1uW2NIXTI=

> <s_epik_cmdline>
J2VwaWtfcHl0aG9uJywgJy1waCcsICc3LjAnLCAnLXRuJywgJzgnLCAnLW1hJywgJzIwMCcsICctbWV0YWxfYmluZGluZycsICctaW1hZScsICc8aW5maWxlLm1hZT4nLCAnLW9tYWUnLCAnPG91dGZpbGUubWFlPic=

> <r_epik_Ionization_Penalty>
1.32573

> <r_epik_Ionization_Penalty_Charging>
0.00219175

> <r_epik_Ionization_Penalty_Neutral>
1.32353

> <r_epik_State_Penalty>
1.51166

> <r_epik_Charging_Adjusted_Penalty>
1.51385

> <i_epik_Tot_Q>
1

> <i_epik_Tot_abs_Q>
1

> <r_epik_Metal_State_Penalty>
1.51178

> <b_epik_Metal_Only>
0

> <s_lp_Force_Field>
OPLS_2005

> <r_lp_Energy>
39.6139

> <b_lp_Chiralities_Consistent>
1

> <s_lp_Variant>
AV-unprocessed.smi:2668-5

> <Gold.Version>
5.8.1

> <Gold.Id.Protein>
6NUR|6NUR_protein|mol2

> <Gold.PLP.Fitness>
40.5113

> <Gold.PLP.PLP>
-34.5745

> <Gold.PLP.part.hbond>
-2.0000

> <Gold.PLP.part.metal>
0.0000

> <Gold.PLP.part.buried>
-5.7890

> <Gold.PLP.part.nonpolar>
-27.2766

> <Gold.PLP.part.repulsive>
0.2280

> <Gold.PLP.ligand.clash>
0.0000

> <Gold.PLP.ligand.torsion>
0.0963

> <Gold.PLP.Chemscore.Hbond>
2.0000

> <Gold.PLP.Chemscore.CHOScore>
0.0000

> <Gold.PLP.Chemscore.Metal>
0.0000

> <Gold.Chemscore.Hbonds>
donor molecule, donor type, donor heavy atom, donor atom, acceptor molecule, acceptor atom, score
      L1  H    12    43       P1  8028  1.00
      L1  H    15    44       P1  8028  0.89

> <Gold.PLP.Chemscore.Internal.Correction>
0.1295

> <Gold.Rescore>
     Score         DG    S(hbond)    S(metal)    S(lipo)     H(rot)  DE(clash)    DE(int)     intcor
     16.57     -18.20       1.96        0.00      88.20       1.62       0.09       1.54       ----

> <Gold.Chemscore.Fitness>
16.5678

> <Gold.Chemscore.DG>
-18.2037

> <Gold.Chemscore.ZeroCoef>
-5.4800

> <Gold.Chemscore.Hbond>
1.9636

> <Gold.Chemscore.Metal>
0.0000

> <Gold.Chemscore.Lipo>
88.2022

> <Gold.Chemscore.Internal_Hbond>
0.0000

> <Gold.Chemscore.DEClash>
0.0949

> <Gold.Chemscore.DEInternal>
1.5410

> <Gold.Chemscore.Rot>
1.6228

> <Gold.Chemscore.Internal.Correction>
   9.000000E+99

> <Gold.Chemscore.Hbonds>
donor molecule, donor type, donor heavy atom, donor atom, acceptor molecule, acceptor atom, score
      L1  H    12    43       P1  8028  1.00
      L1  H    15    44       P1  8028  0.83

> <Gold.Chemscore.Hbond.Weighted>
-6.5585

> <Gold.Chemscore.Metal.Weighted>
-0.0000

> <Gold.Chemscore.Lipo.Weighted>
-10.3197

> <Gold.Chemscore.Internal_Hbond.Weighted>
0.0000

> <Gold.Chemscore.DEClash.Weighted>
0.0949

> <Gold.Chemscore.DEInternal.Weighted>
1.5410

> <Gold.Chemscore.Rot.Weighted>
4.1545

> <Gold.Chemscore.Internal.Correction.Weighted>
   9.000000E+99

> <Gold.Protein.RotatedTorsions>
[ 6907 6896 6895 6894 ] final  155.14 input  -60.11 | X-H torsion
[ 7974 7965 7964 7962 ] final  -13.67 input  175.53 | X-H torsion
[ 8008 7997 7996 7995 ] final   67.49 input   59.86 | X-H torsion
[ 10167 10162 10161 10158 ] final -168.05 input  -65.29 | X-H torsion
[ 10718 10713 10712 10709 ] final   96.25 input   66.30 | X-H torsion
[ 10763 10752 10751 10750 ] final  -63.75 input  -60.55 | X-H torsion
[ 11005 11000 10999 10996 ] final  -14.45 input  -57.11 | X-H torsion

> <Gold.Protein.ActiveResidues>
 VAL166  LYS551  ARG553  GLY616  TRP617  ASP618  TYR619  PRO620  LYS621  CYS622 
 ASP623  PHE694  ASN695  SER759  ASP760  ASP761  ALA762  ILE779  LEU786  VAL792 
 PHE793  MET794  SER795  GLU796  ALA797  LYS798  CYS799  TRP800  GLU811  SER814 

> <Gold.Protein.RotatedAtoms>
  152.0484  133.4008  159.4366 H   0  0  0  0  0  0  0  0  0  0  0  0  # atno 6907 bound_to 6896
  150.6871  134.3335  159.4847 H   0  0  0  0  0  0  0  0  0  0  0  0  # atno 6908 bound_to 6896
  152.1142  134.9252  160.0616 H   0  0  0  0  0  0  0  0  0  0  0  0  # atno 6909 bound_to 6896
  146.2105  140.3237  142.8393 H   0  0  0  0  0  0  0  0  0  0  0  0  # atno 7974 bound_to 7965
  155.6936  140.3496  155.4904 H   0  0  0  0  0  0  0  0  0  0  0  0  # atno 8008 bound_to 7997
  155.9502  140.1118  157.1005 H   0  0  0  0  0  0  0  0  0  0  0  0  # atno 8009 bound_to 7997
  154.4120  140.1195  156.5029 H   0  0  0  0  0  0  0  0  0  0  0  0  # atno 8010 bound_to 7997
  139.6010  144.1011  152.1742 H   0  0  0  0  0  0  0  0  0  0  0  0  # atno 10167 bound_to 10162
  157.6929  131.0572  150.4463 H   0  0  0  0  0  0  0  0  0  0  0  0  # atno 10718 bound_to 10713
  154.3197  135.6199  153.5502 H   0  0  0  0  0  0  0  0  0  0  0  0  # atno 10763 bound_to 10752
  152.9821  135.5721  154.5084 H   0  0  0  0  0  0  0  0  0  0  0  0  # atno 10764 bound_to 10752
  154.4749  135.2861  155.1591 H   0  0  0  0  0  0  0  0  0  0  0  0  # atno 10765 bound_to 10752
  140.7865  133.8321  155.9340 H   0  0  0  0  0  0  0  0  0  0  0  0  # atno 11005 bound_to 11000
  144.8901  140.7513  143.5932 LP  0  0  0  0  0  0  0  0  0  0  0  0  # atno 17320 bound_to 7965
  145.3159  139.1803  143.4613 LP  0  0  0  0  0  0  0  0  0  0  0  0  # atno 17321 bound_to 7965
  140.0607  144.5859  150.7265 LP  0  0  0  0  0  0  0  0  0  0  0  0  # atno 17342 bound_to 10162
  140.7249  143.2626  151.4153 LP  0  0  0  0  0  0  0  0  0  0  0  0  # atno 17343 bound_to 10162
  156.4818  130.4075  149.6457 LP  0  0  0  0  0  0  0  0  0  0  0  0  # atno 17370 bound_to 10713
  156.3500  130.7427  151.2385 LP  0  0  0  0  0  0  0  0  0  0  0  0  # atno 17371 bound_to 10713
  140.9431  134.1875  157.4783 LP  0  0  0  0  0  0  0  0  0  0  0  0  # atno 17394 bound_to 11000
  139.8736  134.9880  156.5391 LP  0  0  0  0  0  0  0  0  0  0  0  0  # atno 17395 bound_to 11000

$$$$
