AV-unprocessed.smi:3077|AV-procd|sdf|11729|dock3
  -GOLD-   2272017123D 1   1.00000     0.00000
 Structure written by MMmdl.
 28 29  0  0  0  0  0  0  0  0  2 V2000
  151.4288  139.2953  155.0329 C   0  0  0  0  0  0  0  0  0  0  0  0
  150.1835  139.5764  154.4045 C   0  0  0  0  0  0  0  0  0  0  0  0
  149.5031  140.5275  155.0240 N   0  0  0  0  0  0  0  0  0  0  0  0
  150.2914  140.8883  156.0595 N   0  0  0  0  0  0  0  0  0  0  0  0
  149.8448  141.9190  156.9791 C   0  0  0  0  0  0  0  0  0  0  0  0
  150.9998  142.7770  157.5354 C   0  0  2  0  0  0  0  0  0  0  0  0
  151.7792  142.0796  158.6742 C   0  0  0  0  0  0  0  0  0  0  0  0
  152.8814  142.9893  159.2389 C   0  0  0  0  0  0  0  0  0  0  0  0
  152.2919  144.3390  159.6713 C   0  0  0  0  0  0  0  0  0  0  0  0
  151.5233  144.9922  158.5116 C   0  0  0  0  0  0  0  0  0  0  0  0
  150.4749  144.0823  158.0004 N   0  3  0  0  0  0  0  0  0  0  0  0
  151.4589  140.1548  156.0933 C   0  0  0  0  0  0  0  0  0  0  0  0
  152.1806  138.5728  154.7513 H   0  0  0  0  0  0  0  0  0  0  0  0
  149.7557  139.1194  153.5245 H   0  0  0  0  0  0  0  0  0  0  0  0
  149.1220  142.5481  156.4574 H   0  0  0  0  0  0  0  0  0  0  0  0
  149.3063  141.4379  157.7968 H   0  0  0  0  0  0  0  0  0  0  0  0
  151.6943  142.9836  156.7191 H   0  0  0  0  0  0  0  0  0  0  0  0
  151.0924  141.7994  159.4741 H   0  0  0  0  0  0  0  0  0  0  0  0
  152.2300  141.1532  158.3171 H   0  0  0  0  0  0  0  0  0  0  0  0
  153.3736  142.5054  160.0830 H   0  0  0  0  0  0  0  0  0  0  0  0
  153.6495  143.1496  158.4810 H   0  0  0  0  0  0  0  0  0  0  0  0
  151.6226  144.1923  160.5201 H   0  0  0  0  0  0  0  0  0  0  0  0
  153.0865  145.0023  160.0143 H   0  0  0  0  0  0  0  0  0  0  0  0
  151.0579  145.9211  158.8419 H   0  0  0  0  0  0  0  0  0  0  0  0
  152.2051  145.2480  157.6994 H   0  0  0  0  0  0  0  0  0  0  0  0
  150.0009  144.5339  157.2311 H   0  0  0  0  0  0  0  0  0  0  0  0
  152.2059  140.3031  156.8593 H   0  0  0  0  0  0  0  0  0  0  0  0
  149.8077  143.9143  158.7397 H   0  0  0  0  0  0  0  0  0  0  0  0
  1 12  2  0  0  0  0
  1  2  1  0  0  0  0
  1 13  1  0  0  0  0
  2  3  2  0  0  0  0
  2 14  1  0  0  0  0
  3  4  1  0  0  0  0
  4  5  1  0  0  0  0
  4 12  1  0  0  0  0
  5  6  1  0  0  0  0
  5 15  1  0  0  0  0
  5 16  1  0  0  0  0
  6 11  1  0  0  0  0
  6  7  1  0  0  0  0
  6 17  1  0  0  0  0
  7  8  1  0  0  0  0
  7 18  1  0  0  0  0
  7 19  1  0  0  0  0
  8  9  1  0  0  0  0
  8 20  1  0  0  0  0
  8 21  1  0  0  0  0
  9 10  1  0  0  0  0
  9 22  1  0  0  0  0
  9 23  1  0  0  0  0
 10 11  1  0  0  0  0
 10 24  1  0  0  0  0
 10 25  1  0  0  0  0
 11 26  1  0  0  0  0
 11 28  1  0  0  0  0
 12 27  1  0  0  0  0
M  CHG  1  11   1
M  END
> <s_m_source_file>
AV-unprocessed.smi

> <i_m_source_file_index>
3077

> <i_lp_mmshare_version>
43012

> <i_f3d_flags>
0

> <s_epik_input>
W2NIXTFbY0hdW2NIXW5uMVtDSDJdW0NAQEhdMltDSDJdW0NIMl1bQ0gyXVtDSDJdW05IXTI=

> <s_epik_cmdline>
J2VwaWtfcHl0aG9uJywgJy1waCcsICc3LjAnLCAnLXRuJywgJzgnLCAnLW1hJywgJzIwMCcsICctbWV0YWxfYmluZGluZycsICctaW1hZScsICc8aW5maWxlLm1hZT4nLCAnLW9tYWUnLCAnPG91dGZpbGUubWFlPic=

> <r_lp_tautomer_probability>
1

> <r_epik_Ionization_Penalty>
0.000655985

> <r_epik_Ionization_Penalty_Charging>
0.000651447

> <r_epik_Ionization_Penalty_Neutral>
4.5377e-06

> <r_epik_State_Penalty>
0.000412577

> <r_epik_Charging_Adjusted_Penalty>
0.00106402

> <i_epik_Tot_Q>
1

> <i_epik_Tot_abs_Q>
1

> <r_epik_Metal_State_Penalty>
-0

> <b_epik_Metal_Only>
0

> <s_lp_Force_Field>
OPLS_2005

> <r_lp_Energy>
13.5088

> <b_lp_Chiralities_Consistent>
1

> <s_lp_Variant>
AV-unprocessed.smi:3077-1

> <Gold.Version>
5.8.1

> <Gold.Id.Protein>
6NUR|6NUR_protein|mol2

> <Gold.PLP.Fitness>
38.5955

> <Gold.PLP.PLP>
-30.7360

> <Gold.PLP.part.hbond>
-1.2783

> <Gold.PLP.part.metal>
0.0000

> <Gold.PLP.part.buried>
-1.5295

> <Gold.PLP.part.nonpolar>
-27.6013

> <Gold.PLP.part.repulsive>
0.1379

> <Gold.PLP.ligand.clash>
0.0000

> <Gold.PLP.ligand.torsion>
0.5554

> <Gold.PLP.Chemscore.Hbond>
2.0000

> <Gold.PLP.Chemscore.CHOScore>
0.9887

> <Gold.PLP.Chemscore.Metal>
0.0000

> <Gold.Chemscore.Hbonds>
donor molecule, donor type, donor heavy atom, donor atom, acceptor molecule, acceptor atom, score
      L1  H    11    26       P1  8028  2.00
      L1  C     2    14       P1  7957  0.97

> <Gold.PLP.Chemscore.Internal.Correction>
0.0041

> <Gold.Rescore>
     Score         DG    S(hbond)    S(metal)    S(lipo)     H(rot)  DE(clash)    DE(int)     intcor
     15.31     -15.76       0.95        0.00      86.81       1.19       0.01       0.44       ----

> <Gold.Chemscore.Fitness>
15.3113

> <Gold.Chemscore.DG>
-15.7627

> <Gold.Chemscore.ZeroCoef>
-5.4800

> <Gold.Chemscore.Hbond>
0.9495

> <Gold.Chemscore.Metal>
0.0000

> <Gold.Chemscore.Lipo>
86.8099

> <Gold.Chemscore.Internal_Hbond>
0.0000

> <Gold.Chemscore.DEClash>
0.0121

> <Gold.Chemscore.DEInternal>
0.4392

> <Gold.Chemscore.Rot>
1.1896

> <Gold.Chemscore.Internal.Correction>
   9.000000E+99

> <Gold.Chemscore.Hbonds>
donor molecule, donor type, donor heavy atom, donor atom, acceptor molecule, acceptor atom, score
      L1  H    11    26       P1  8028  0.34

> <Gold.Chemscore.Hbond.Weighted>
-3.1712

> <Gold.Chemscore.Metal.Weighted>
-0.0000

> <Gold.Chemscore.Lipo.Weighted>
-10.1568

> <Gold.Chemscore.Internal_Hbond.Weighted>
0.0000

> <Gold.Chemscore.DEClash.Weighted>
0.0121

> <Gold.Chemscore.DEInternal.Weighted>
0.4392

> <Gold.Chemscore.Rot.Weighted>
3.0453

> <Gold.Chemscore.Internal.Correction.Weighted>
   9.000000E+99

> <Gold.Protein.RotatedTorsions>
[ 6907 6896 6895 6894 ] final  116.93 input  -60.11 | X-H torsion
[ 7974 7965 7964 7962 ] final  -74.38 input  175.53 | X-H torsion
[ 8008 7997 7996 7995 ] final   71.18 input   59.86 | X-H torsion
[ 10167 10162 10161 10158 ] final  124.24 input  -65.29 | X-H torsion
[ 10718 10713 10712 10709 ] final  -80.26 input   66.30 | X-H torsion
[ 10763 10752 10751 10750 ] final   35.60 input  -60.55 | X-H torsion
[ 11005 11000 10999 10996 ] final  -38.19 input  -57.11 | X-H torsion

> <Gold.Protein.ActiveResidues>
 VAL166  LYS551  ARG553  GLY616  TRP617  ASP618  TYR619  PRO620  LYS621  CYS622 
 ASP623  PHE694  ASN695  SER759  ASP760  ASP761  ALA762  ILE779  LEU786  VAL792 
 PHE793  MET794  SER795  GLU796  ALA797  LYS798  CYS799  TRP800  GLU811  SER814 

> <Gold.Protein.RotatedAtoms>
  152.4646  133.7895  159.6893 H   0  0  0  0  0  0  0  0  0  0  0  0  # atno 6907 bound_to 6896
  150.8604  133.7642  159.3000 H   0  0  0  0  0  0  0  0  0  0  0  0  # atno 6908 bound_to 6896
  151.5209  135.1070  159.9930 H   0  0  0  0  0  0  0  0  0  0  0  0  # atno 6909 bound_to 6896
  145.6398  140.9314  143.1042 H   0  0  0  0  0  0  0  0  0  0  0  0  # atno 7974 bound_to 7965
  155.7500  140.3488  155.5146 H   0  0  0  0  0  0  0  0  0  0  0  0  # atno 8008 bound_to 7997
  155.9013  140.1034  157.1369 H   0  0  0  0  0  0  0  0  0  0  0  0  # atno 8009 bound_to 7997
  154.4044  140.1285  156.4427 H   0  0  0  0  0  0  0  0  0  0  0  0  # atno 8010 bound_to 7997
  139.5753  144.6960  151.3670 H   0  0  0  0  0  0  0  0  0  0  0  0  # atno 10167 bound_to 10162
  156.0074  130.4569  150.3773 H   0  0  0  0  0  0  0  0  0  0  0  0  # atno 10718 bound_to 10713
  153.0112  135.6328  154.1853 H   0  0  0  0  0  0  0  0  0  0  0  0  # atno 10763 bound_to 10752
  154.1595  135.2824  155.3114 H   0  0  0  0  0  0  0  0  0  0  0  0  # atno 10764 bound_to 10752
  154.5992  135.5593  153.7417 H   0  0  0  0  0  0  0  0  0  0  0  0  # atno 10765 bound_to 10752
  141.0009  133.6956  156.2020 H   0  0  0  0  0  0  0  0  0  0  0  0  # atno 11005 bound_to 11000
  144.7162  139.8190  143.7398 LP  0  0  0  0  0  0  0  0  0  0  0  0  # atno 17320 bound_to 7965
  146.1290  139.4321  143.0181 LP  0  0  0  0  0  0  0  0  0  0  0  0  # atno 17321 bound_to 7965
  140.7036  143.7570  150.7444 LP  0  0  0  0  0  0  0  0  0  0  0  0  # atno 17342 bound_to 10162
  140.1088  143.4718  152.2382 LP  0  0  0  0  0  0  0  0  0  0  0  0  # atno 17343 bound_to 10162
  157.1855  131.0402  151.2727 LP  0  0  0  0  0  0  0  0  0  0  0  0  # atno 17370 bound_to 10713
  157.4108  130.7384  149.6837 LP  0  0  0  0  0  0  0  0  0  0  0  0  # atno 17371 bound_to 10713
  140.6891  134.4685  157.5589 LP  0  0  0  0  0  0  0  0  0  0  0  0  # atno 17394 bound_to 11000
  139.9038  134.8495  156.1787 LP  0  0  0  0  0  0  0  0  0  0  0  0  # atno 17395 bound_to 11000

$$$$
