AV-unprocessed.smi:1085|AV-procd|sdf|4721|dock6
  -GOLD-   22720 3253D 1   1.00000     0.00000
 Structure written by MMmdl.
 33 34  0  0  0  0  0  0  0  0  1 V2000
  152.5765  140.0581  156.4787 O   0  0  0  0  0  0  0  0  0  0  0  0
  151.6056  139.4243  156.8907 C   0  0  0  0  0  0  0  0  0  0  0  0
  150.9202  138.4017  155.9832 C   0  0  0  0  0  0  0  0  0  0  0  0
  150.8397  137.1027  156.6254 N   0  0  0  0  0  0  0  0  0  0  0  0
  150.1440  136.6907  157.6870 C   0  0  0  0  0  0  0  0  0  0  0  0
  150.3730  135.4143  157.9559 N   0  0  0  0  0  0  0  0  0  0  0  0
  151.2758  135.0425  156.9738 N   0  0  0  0  0  0  0  0  0  0  0  0
  151.5559  136.0399  156.1808 N   0  0  0  0  0  0  0  0  0  0  0  0
  151.0903  139.5752  158.1213 N   0  0  0  0  0  0  0  0  0  0  0  0
  151.5711  140.5100  159.1336 C   0  0  1  0  0  0  0  0  0  0  0  0
  153.0565  140.2480  159.4549 C   0  0  0  0  0  0  0  0  0  0  0  0
  153.6006  141.2775  160.4560 C   0  0  0  0  0  0  0  0  0  0  0  0
  153.3934  142.7125  159.9478 C   0  0  0  0  0  0  0  0  0  0  0  0
  151.9092  142.9963  159.6348 C   0  0  1  0  0  0  0  0  0  0  0  0
  151.6894  144.4397  159.1368 C   0  0  0  0  0  0  0  0  0  0  0  0
  152.0048  145.3219  160.0856 F   0  0  0  0  0  0  0  0  0  0  0  0
  152.4455  144.6722  158.0639 F   0  0  0  0  0  0  0  0  0  0  0  0
  150.4138  144.6151  158.7920 F   0  0  0  0  0  0  0  0  0  0  0  0
  151.3684  141.9529  158.6335 C   0  0  0  0  0  0  0  0  0  0  0  0
  149.9101  138.7335  155.7391 H   0  0  0  0  0  0  0  0  0  0  0  0
  151.4675  138.3119  155.0435 H   0  0  0  0  0  0  0  0  0  0  0  0
  149.4814  137.3215  158.2611 H   0  0  0  0  0  0  0  0  0  0  0  0
  150.2914  139.0091  158.3701 H   0  0  0  0  0  0  0  0  0  0  0  0
  150.9822  140.3781  160.0434 H   0  0  0  0  0  0  0  0  0  0  0  0
  153.1863  139.2440  159.8603 H   0  0  0  0  0  0  0  0  0  0  0  0
  153.6462  140.2888  158.5380 H   0  0  0  0  0  0  0  0  0  0  0  0
  153.1000  141.1530  161.4170 H   0  0  0  0  0  0  0  0  0  0  0  0
  154.6610  141.0960  160.6344 H   0  0  0  0  0  0  0  0  0  0  0  0
  153.7609  143.4163  160.6951 H   0  0  0  0  0  0  0  0  0  0  0  0
  153.9971  142.8703  159.0533 H   0  0  0  0  0  0  0  0  0  0  0  0
  151.3483  142.8841  160.5643 H   0  0  0  0  0  0  0  0  0  0  0  0
  151.8671  142.0798  157.6713 H   0  0  0  0  0  0  0  0  0  0  0  0
  150.3072  142.1286  158.4538 H   0  0  0  0  0  0  0  0  0  0  0  0
  1  2  2  0  0  0  0
  2  3  1  0  0  0  0
  2  9  1  0  0  0  0
  3  4  1  0  0  0  0
  3 20  1  0  0  0  0
  3 21  1  0  0  0  0
  4  8  1  0  0  0  0
  4  5  1  0  0  0  0
  5  6  2  0  0  0  0
  5 22  1  0  0  0  0
  6  7  1  0  0  0  0
  7  8  2  0  0  0  0
  9 10  1  0  0  0  0
  9 23  1  0  0  0  0
 10 19  1  0  0  0  0
 10 11  1  0  0  0  0
 10 24  1  0  0  0  0
 11 12  1  0  0  0  0
 11 25  1  0  0  0  0
 11 26  1  0  0  0  0
 12 13  1  0  0  0  0
 12 27  1  0  0  0  0
 12 28  1  0  0  0  0
 13 14  1  0  0  0  0
 13 29  1  0  0  0  0
 13 30  1  0  0  0  0
 14 15  1  0  0  0  0
 14 19  1  0  0  0  0
 14 31  1  0  0  0  0
 15 16  1  0  0  0  0
 15 17  1  0  0  0  0
 15 18  1  0  0  0  0
 19 32  1  0  0  0  0
 19 33  1  0  0  0  0
M  END
> <s_m_source_file>
AV-unprocessed.smi

> <i_m_source_file_index>
1085

> <i_lp_mmshare_version>
43012

> <i_f3d_flags>
0

> <s_epik_input>
bjFubltjSF1uMVtDSDJdQyg9TylbTkhdW0NAQEhdMltDSDJdW0NIMl1bQ0gyXVtDQEBIXShDKEYpKEYpRilbQ0gyXTI=

> <s_epik_cmdline>
J2VwaWtfcHl0aG9uJywgJy1waCcsICc3LjAnLCAnLXRuJywgJzgnLCAnLW1hJywgJzIwMCcsICctbWV0YWxfYmluZGluZycsICctaW1hZScsICc8aW5maWxlLm1hZT4nLCAnLW9tYWUnLCAnPG91dGZpbGUubWFlPic=

> <r_lp_tautomer_probability>
1

> <r_epik_Ionization_Penalty>
8.41315e-07

> <r_epik_Ionization_Penalty_Charging>
0

> <r_epik_Ionization_Penalty_Neutral>
8.41315e-07

> <r_epik_State_Penalty>
-0

> <r_epik_Charging_Adjusted_Penalty>
0

> <i_epik_Tot_Q>
0

> <i_epik_Tot_abs_Q>
0

> <r_epik_Metal_State_Penalty>
-0

> <b_epik_Metal_Only>
0

> <s_lp_Force_Field>
OPLS_2005

> <r_lp_Energy>
12.0143

> <b_lp_Chiralities_Consistent>
1

> <s_lp_Variant>
AV-unprocessed.smi:1085-2

> <Gold.Version>
5.8.1

> <Gold.Id.Protein>
6NUR|6NUR_protein|mol2

> <Gold.PLP.Fitness>
45.5918

> <Gold.PLP.PLP>
-37.8797

> <Gold.PLP.part.hbond>
-3.8353

> <Gold.PLP.part.metal>
0.0000

> <Gold.PLP.part.buried>
-3.3785

> <Gold.PLP.part.nonpolar>
-30.8937

> <Gold.PLP.part.repulsive>
0.1135

> <Gold.PLP.ligand.clash>
0.0000

> <Gold.PLP.ligand.torsion>
0.1636

> <Gold.PLP.Chemscore.Hbond>
2.6720

> <Gold.PLP.Chemscore.CHOScore>
0.0000

> <Gold.PLP.Chemscore.Metal>
0.0000

> <Gold.Chemscore.Hbonds>
donor molecule, donor type, donor heavy atom, donor atom, acceptor molecule, acceptor atom, score
      P1  H  6896  6909       L1     6  0.67
      P1  H  7997  8009       L1     1  1.00
      P1  H 10752 10765       L1     8  1.00

> <Gold.PLP.Chemscore.Internal.Correction>
0.0234

> <Gold.Rescore>
     Score         DG    S(hbond)    S(metal)    S(lipo)     H(rot)  DE(clash)    DE(int)     intcor
     14.46     -16.48       2.40        0.00      70.17       2.05       0.08       1.95       ----

> <Gold.Chemscore.Fitness>
14.4567

> <Gold.Chemscore.DG>
-16.4811

> <Gold.Chemscore.ZeroCoef>
-5.4800

> <Gold.Chemscore.Hbond>
2.4036

> <Gold.Chemscore.Metal>
0.0000

> <Gold.Chemscore.Lipo>
70.1688

> <Gold.Chemscore.Internal_Hbond>
0.0000

> <Gold.Chemscore.DEClash>
0.0757

> <Gold.Chemscore.DEInternal>
1.9487

> <Gold.Chemscore.Rot>
2.0456

> <Gold.Chemscore.Internal.Correction>
   9.000000E+99

> <Gold.Chemscore.Hbonds>
donor molecule, donor type, donor heavy atom, donor atom, acceptor molecule, acceptor atom, score
      P1  H  6896  6909       L1     6  0.52
      P1  H  7997  8009       L1     1  0.99
      P1  H 10752 10765       L1     8  0.70

> <Gold.Chemscore.Hbond.Weighted>
-8.0281

> <Gold.Chemscore.Metal.Weighted>
-0.0000

> <Gold.Chemscore.Lipo.Weighted>
-8.2097

> <Gold.Chemscore.Internal_Hbond.Weighted>
0.0000

> <Gold.Chemscore.DEClash.Weighted>
0.0757

> <Gold.Chemscore.DEInternal.Weighted>
1.9487

> <Gold.Chemscore.Rot.Weighted>
5.2368

> <Gold.Chemscore.Internal.Correction.Weighted>
   9.000000E+99

> <Gold.Protein.RotatedTorsions>
[ 6907 6896 6895 6894 ] final   47.73 input  -60.11 | X-H torsion
[ 7974 7965 7964 7962 ] final   96.46 input  175.53 | X-H torsion
[ 8008 7997 7996 7995 ] final -162.17 input   59.86 | X-H torsion
[ 10167 10162 10161 10158 ] final -148.15 input  -65.29 | X-H torsion
[ 10718 10713 10712 10709 ] final  171.35 input   66.30 | X-H torsion
[ 10763 10752 10751 10750 ] final -161.49 input  -60.55 | X-H torsion
[ 11005 11000 10999 10996 ] final  107.40 input  -57.11 | X-H torsion

> <Gold.Protein.ActiveResidues>
 VAL166  LYS551  ARG553  GLY616  TRP617  ASP618  TYR619  PRO620  LYS621  CYS622 
 ASP623  PHE694  ASN695  SER759  ASP760  ASP761  ALA762  ILE779  LEU786  VAL792 
 PHE793  MET794  SER795  GLU796  ALA797  LYS798  CYS799  TRP800  GLU811  SER814 

> <Gold.Protein.RotatedAtoms>
  152.2714  134.7928  160.0413 H   0  0  0  0  0  0  0  0  0  0  0  0  # atno 6907 bound_to 6896
  151.8539  133.3439  159.3690 H   0  0  0  0  0  0  0  0  0  0  0  0  # atno 6908 bound_to 6896
  150.7153  134.5200  159.5693 H   0  0  0  0  0  0  0  0  0  0  0  0  # atno 6909 bound_to 6896
  145.4385  139.2303  143.3105 H   0  0  0  0  0  0  0  0  0  0  0  0  # atno 7974 bound_to 7965
  155.8028  140.0894  157.1947 H   0  0  0  0  0  0  0  0  0  0  0  0  # atno 8008 bound_to 7997
  154.3981  140.1469  156.3354 H   0  0  0  0  0  0  0  0  0  0  0  0  # atno 8009 bound_to 7997
  155.8445  140.3437  155.5655 H   0  0  0  0  0  0  0  0  0  0  0  0  # atno 8010 bound_to 7997
  139.7557  143.8451  152.2596 H   0  0  0  0  0  0  0  0  0  0  0  0  # atno 10167 bound_to 10162
  156.9948  131.0158  151.2847 H   0  0  0  0  0  0  0  0  0  0  0  0  # atno 10718 bound_to 10713
  154.7299  135.3044  154.8909 H   0  0  0  0  0  0  0  0  0  0  0  0  # atno 10763 bound_to 10752
  153.9755  135.6736  153.4752 H   0  0  0  0  0  0  0  0  0  0  0  0  # atno 10764 bound_to 10752
  153.0909  135.4960  154.8608 H   0  0  0  0  0  0  0  0  0  0  0  0  # atno 10765 bound_to 10752
  139.8828  134.9400  156.5814 H   0  0  0  0  0  0  0  0  0  0  0  0  # atno 11005 bound_to 11000
  146.2569  140.5131  142.8870 LP  0  0  0  0  0  0  0  0  0  0  0  0  # atno 17320 bound_to 7965
  144.8137  140.6430  143.6399 LP  0  0  0  0  0  0  0  0  0  0  0  0  # atno 17321 bound_to 7965
  139.8443  144.7195  150.9292 LP  0  0  0  0  0  0  0  0  0  0  0  0  # atno 17342 bound_to 10162
  140.7802  143.3955  151.1236 LP  0  0  0  0  0  0  0  0  0  0  0  0  # atno 17343 bound_to 10162
  157.5433  130.8134  149.8055 LP  0  0  0  0  0  0  0  0  0  0  0  0  # atno 17370 bound_to 10713
  156.0193  130.3801  150.2011 LP  0  0  0  0  0  0  0  0  0  0  0  0  # atno 17371 bound_to 10713
  140.8024  133.8495  155.8738 LP  0  0  0  0  0  0  0  0  0  0  0  0  # atno 17394 bound_to 11000
  140.9581  134.1692  157.4676 LP  0  0  0  0  0  0  0  0  0  0  0  0  # atno 17395 bound_to 11000

$$$$
