AV-unprocessed.smi:1213|AV-procd|sdf|5088|dock1
  -GOLD-   22720 4143D 1   1.00000     0.00000
 Structure written by MMmdl.
 36 37  0  0  0  0  0  0  0  0  3 V2000
  144.5047  137.8483  152.2343 N   0  5  0  0  0  0  0  0  0  0  0  0
  145.7805  137.6618  152.6227 C   0  0  0  0  0  0  0  0  0  0  0  0
  146.1989  136.9266  153.5146 O   0  0  0  0  0  0  0  0  0  0  0  0
  146.7720  138.4808  151.7900 C   0  0  0  0  0  0  0  0  0  0  0  0
  147.4682  139.4695  152.6504 N   0  3  2  0  0  0  0  0  0  0  0  0
  148.2325  138.8238  153.7476 C   0  0  0  0  0  0  0  0  0  0  0  0
  149.0595  139.8563  154.5322 C   0  0  0  0  0  0  0  0  0  0  0  0
  148.1666  140.9779  155.0865 C   0  0  1  0  0  0  0  0  0  0  0  0
  148.9868  141.9856  155.7523 N   0  0  0  0  0  0  0  0  0  0  0  0
  149.8571  141.7382  156.7424 C   0  0  0  0  0  0  0  0  0  0  0  0
  150.0660  140.6121  157.1946 O   0  0  0  0  0  0  0  0  0  0  0  0
  150.4504  142.8685  157.1644 N   0  0  0  0  0  0  0  0  0  0  0  0
  151.4150  143.0199  158.1951 C   0  0  0  0  0  0  0  0  0  0  0  0
  151.6014  142.1431  159.1887 N   0  0  0  0  0  0  0  0  0  0  0  0
  152.6165  142.5460  160.0602 C   0  0  0  0  0  0  0  0  0  0  0  0
  153.1958  143.7410  159.7130 C   0  0  0  0  0  0  0  0  0  0  0  0
  152.4876  144.4104  158.2674 S   0  0  0  0  0  0  0  0  0  0  0  0
  147.3561  141.6048  153.9375 C   0  0  0  0  0  0  0  0  0  0  0  0
  146.5668  140.5351  153.1659 C   0  0  0  0  0  0  0  0  0  0  0  0
  144.3237  138.1794  151.2788 H   0  0  0  0  0  0  0  0  0  0  0  0
  147.4957  137.8582  151.2590 H   0  0  0  0  0  0  0  0  0  0  0  0
  146.1892  138.9964  151.0254 H   0  0  0  0  0  0  0  0  0  0  0  0
  147.5431  138.3051  154.4158 H   0  0  0  0  0  0  0  0  0  0  0  0
  148.9034  138.0692  153.3350 H   0  0  0  0  0  0  0  0  0  0  0  0
  149.5881  139.3610  155.3475 H   0  0  0  0  0  0  0  0  0  0  0  0
  149.8244  140.2780  153.8780 H   0  0  0  0  0  0  0  0  0  0  0  0
  147.4779  140.5393  155.8116 H   0  0  0  0  0  0  0  0  0  0  0  0
  148.8779  142.9402  155.4423 H   0  0  0  0  0  0  0  0  0  0  0  0
  150.1759  143.7221  156.7011 H   0  0  0  0  0  0  0  0  0  0  0  0
  152.8617  141.9200  160.9053 H   0  0  0  0  0  0  0  0  0  0  0  0
  153.9930  144.2656  160.2183 H   0  0  0  0  0  0  0  0  0  0  0  0
  146.6676  142.3559  154.3264 H   0  0  0  0  0  0  0  0  0  0  0  0
  148.0252  142.1253  153.2505 H   0  0  0  0  0  0  0  0  0  0  0  0
  146.0360  141.0132  152.3422 H   0  0  0  0  0  0  0  0  0  0  0  0
  145.8081  140.0907  153.8121 H   0  0  0  0  0  0  0  0  0  0  0  0
  148.1481  139.9206  152.0549 H   0  0  0  0  0  0  0  0  0  0  0  0
  1  2  1  0  0  0  0
  1 20  1  0  0  0  0
  2  3  2  0  0  0  0
  2  4  1  0  0  0  0
  4  5  1  0  0  0  0
  4 21  1  0  0  0  0
  4 22  1  0  0  0  0
  5 19  1  0  0  0  0
  5  6  1  0  0  0  0
  5 36  1  0  0  0  0
  6  7  1  0  0  0  0
  6 23  1  0  0  0  0
  6 24  1  0  0  0  0
  7  8  1  0  0  0  0
  7 25  1  0  0  0  0
  7 26  1  0  0  0  0
  8  9  1  0  0  0  0
  8 18  1  0  0  0  0
  8 27  1  0  0  0  0
  9 10  1  0  0  0  0
  9 28  1  0  0  0  0
 10 11  2  0  0  0  0
 10 12  1  0  0  0  0
 12 13  1  0  0  0  0
 12 29  1  0  0  0  0
 13 17  1  0  0  0  0
 13 14  2  0  0  0  0
 14 15  1  0  0  0  0
 15 16  2  0  0  0  0
 15 30  1  0  0  0  0
 16 17  1  0  0  0  0
 16 31  1  0  0  0  0
 18 19  1  0  0  0  0
 18 32  1  0  0  0  0
 18 33  1  0  0  0  0
 19 34  1  0  0  0  0
 19 35  1  0  0  0  0
M  CHG  1   1  -1
M  CHG  1   5   1
M  END
> <s_m_source_file>
AV-unprocessed.smi

> <i_m_source_file_index>
1213

> <i_lp_mmshare_version>
43012

> <i_f3d_flags>
0

> <s_epik_input>
W05IMl1DKD1PKVtDSDJdTjFbQ0gyXVtDSDJdW0NIXShbQ0gyXVtDSDJdMSlbTkhdQyg9TylbTkhdYzJuW2NIXVtjSF1zMg==

> <s_epik_cmdline>
J2VwaWtfcHl0aG9uJywgJy1waCcsICc3LjAnLCAnLXRuJywgJzgnLCAnLW1hJywgJzIwMCcsICctbWV0YWxfYmluZGluZycsICctaW1hZScsICc8aW5maWxlLm1hZT4nLCAnLW9tYWUnLCAnPG91dGZpbGUubWFlPic=

> <r_lp_tautomer_probability>
0.999

> <r_epik_Ionization_Penalty>
5.73166

> <r_epik_Ionization_Penalty_Charging>
5.73152

> <r_epik_Ionization_Penalty_Neutral>
0.000139308

> <r_epik_State_Penalty>
6.57436

> <r_epik_Charging_Adjusted_Penalty>
12.3059

> <i_epik_Tot_Q>
0

> <i_epik_Tot_abs_Q>
2

> <r_epik_Metal_State_Penalty>
2.57084

> <b_epik_Metal_Only>
1

> <s_lp_Force_Field>
OPLS_2005

> <r_lp_Energy>
5.64095

> <b_lp_Chiralities_Consistent>
1

> <s_lp_Variant>
AV-unprocessed.smi:1213-5

> <Gold.Version>
5.8.1

> <Gold.Id.Protein>
6NUR|6NUR_protein|mol2

> <Gold.PLP.Fitness>
47.7688

> <Gold.PLP.PLP>
-36.0667

> <Gold.PLP.part.hbond>
-5.0000

> <Gold.PLP.part.metal>
0.0000

> <Gold.PLP.part.buried>
-2.5477

> <Gold.PLP.part.nonpolar>
-30.1724

> <Gold.PLP.part.repulsive>
0.3374

> <Gold.PLP.ligand.clash>
0.0000

> <Gold.PLP.ligand.torsion>
0.1503

> <Gold.PLP.Chemscore.Hbond>
3.9920

> <Gold.PLP.Chemscore.CHOScore>
0.0000

> <Gold.PLP.Chemscore.Metal>
0.0000

> <Gold.Chemscore.Hbonds>
donor molecule, donor type, donor heavy atom, donor atom, acceptor molecule, acceptor atom, score
      L1  H     1    20       P1 10171  1.00
      L1  H     5    36       P1  7957  1.00
      L1  H     9    28       P1  8028  1.00
      L1  H    12    29       P1  8028  1.00

> <Gold.PLP.Chemscore.Internal.Correction>
0.0268

> <Gold.Rescore>
     Score         DG    S(hbond)    S(metal)    S(lipo)     H(rot)  DE(clash)    DE(int)     intcor
     18.26     -22.55       3.95        0.00      77.68       2.04       0.36       3.93       ----

> <Gold.Chemscore.Fitness>
18.2633

> <Gold.Chemscore.DG>
-22.5528

> <Gold.Chemscore.ZeroCoef>
-5.4800

> <Gold.Chemscore.Hbond>
3.9502

> <Gold.Chemscore.Metal>
0.0000

> <Gold.Chemscore.Lipo>
77.6821

> <Gold.Chemscore.Internal_Hbond>
0.0000

> <Gold.Chemscore.DEClash>
0.3645

> <Gold.Chemscore.DEInternal>
3.9250

> <Gold.Chemscore.Rot>
2.0350

> <Gold.Chemscore.Internal.Correction>
   9.000000E+99

> <Gold.Chemscore.Hbonds>
donor molecule, donor type, donor heavy atom, donor atom, acceptor molecule, acceptor atom, score
      L1  H     1    20       P1 10171  0.98
      L1  H     5    36       P1  7957  0.98
      L1  H     9    28       P1  8028  0.98
      L1  H    12    29       P1  8028  0.95

> <Gold.Chemscore.Hbond.Weighted>
-13.1936

> <Gold.Chemscore.Metal.Weighted>
-0.0000

> <Gold.Chemscore.Lipo.Weighted>
-9.0888

> <Gold.Chemscore.Internal_Hbond.Weighted>
0.0000

> <Gold.Chemscore.DEClash.Weighted>
0.3645

> <Gold.Chemscore.DEInternal.Weighted>
3.9250

> <Gold.Chemscore.Rot.Weighted>
5.2096

> <Gold.Chemscore.Internal.Correction.Weighted>
   9.000000E+99

> <Gold.Protein.RotatedTorsions>
[ 6907 6896 6895 6894 ] final  -39.86 input  -60.11 | X-H torsion
[ 7974 7965 7964 7962 ] final  -94.93 input  175.53 | X-H torsion
[ 8008 7997 7996 7995 ] final -123.75 input   59.86 | X-H torsion
[ 10167 10162 10161 10158 ] final  -11.45 input  -65.29 | X-H torsion
[ 10718 10713 10712 10709 ] final   33.38 input   66.30 | X-H torsion
[ 10763 10752 10751 10750 ] final  112.62 input  -60.55 | X-H torsion
[ 11005 11000 10999 10996 ] final   85.22 input  -57.11 | X-H torsion

> <Gold.Protein.ActiveResidues>
 VAL166  LYS551  ARG553  GLY616  TRP617  ASP618  TYR619  PRO620  LYS621  CYS622 
 ASP623  PHE694  ASN695  SER759  ASP760  ASP761  ALA762  ILE779  LEU786  VAL792 
 PHE793  MET794  SER795  GLU796  ALA797  LYS798  CYS799  TRP800  GLU811  SER814 

> <Gold.Protein.RotatedAtoms>
  150.9853  134.9200  159.7867 H   0  0  0  0  0  0  0  0  0  0  0  0  # atno 6907 bound_to 6896
  152.5234  134.3355  159.9208 H   0  0  0  0  0  0  0  0  0  0  0  0  # atno 6908 bound_to 6896
  151.3361  133.3940  159.2701 H   0  0  0  0  0  0  0  0  0  0  0  0  # atno 6909 bound_to 6896
  145.3668  140.9500  143.2470 H   0  0  0  0  0  0  0  0  0  0  0  0  # atno 7974 bound_to 7965
  155.1857  140.0412  157.2891 H   0  0  0  0  0  0  0  0  0  0  0  0  # atno 8008 bound_to 7997
  154.6173  140.2492  155.7565 H   0  0  0  0  0  0  0  0  0  0  0  0  # atno 8009 bound_to 7997
  156.2414  140.2902  156.0464 H   0  0  0  0  0  0  0  0  0  0  0  0  # atno 8010 bound_to 7997
  140.7139  143.5638  150.9166 H   0  0  0  0  0  0  0  0  0  0  0  0  # atno 10167 bound_to 10162
  157.2971  130.7332  149.6645 H   0  0  0  0  0  0  0  0  0  0  0  0  # atno 10718 bound_to 10713
  153.4805  135.3680  155.2439 H   0  0  0  0  0  0  0  0  0  0  0  0  # atno 10763 bound_to 10752
  154.8755  135.3953  154.3706 H   0  0  0  0  0  0  0  0  0  0  0  0  # atno 10764 bound_to 10752
  153.4309  135.7082  153.6297 H   0  0  0  0  0  0  0  0  0  0  0  0  # atno 10765 bound_to 10752
  139.8978  134.8271  156.2552 H   0  0  0  0  0  0  0  0  0  0  0  0  # atno 11005 bound_to 11000
  144.8606  139.5183  143.6814 LP  0  0  0  0  0  0  0  0  0  0  0  0  # atno 17320 bound_to 7965
  146.2903  139.7121  142.9166 LP  0  0  0  0  0  0  0  0  0  0  0  0  # atno 17321 bound_to 7965
  139.9364  143.6433  152.3064 LP  0  0  0  0  0  0  0  0  0  0  0  0  # atno 17342 bound_to 10162
  139.6902  144.7647  151.1452 LP  0  0  0  0  0  0  0  0  0  0  0  0  # atno 17343 bound_to 10162
  155.9669  130.4291  150.4818 LP  0  0  0  0  0  0  0  0  0  0  0  0  # atno 17370 bound_to 10713
  157.2791  131.0603  151.2209 LP  0  0  0  0  0  0  0  0  0  0  0  0  # atno 17371 bound_to 10713
  141.0198  133.7048  156.1249 LP  0  0  0  0  0  0  0  0  0  0  0  0  # atno 17394 bound_to 11000
  140.7250  134.4317  157.5571 LP  0  0  0  0  0  0  0  0  0  0  0  0  # atno 17395 bound_to 11000

$$$$
