AV-unprocessed.smi:2477|AV-procd|sdf|9760|dock10
  -GOLD-   2272013403D 1   1.00000     0.00000
 Structure written by MMmdl.
 51 53  0  0  0  0  0  0  0  0  1 V2000
  153.4908  141.3124  160.7146 C   0  0  0  0  0  0  0  0  0  0  0  0
  152.5871  142.3880  160.2985 N   0  0  0  0  0  0  0  0  0  0  0  0
  152.5524  143.5499  161.0880 C   0  0  0  0  0  0  0  0  0  0  0  0
  151.7559  144.5836  160.7831 C   0  0  0  0  0  0  0  0  0  0  0  0
  150.9197  144.4833  159.6111 C   0  0  0  0  0  0  0  0  0  0  0  0
  150.9438  143.3742  158.8295 C   0  0  0  0  0  0  0  0  0  0  0  0
  150.1579  143.1912  157.6781 N   0  0  0  0  0  0  0  0  0  0  0  0
  149.4501  142.1141  157.2912 C   0  0  0  0  0  0  0  0  0  0  0  0
  149.3334  141.0632  157.9212 O   0  0  0  0  0  0  0  0  0  0  0  0
  148.8565  142.3315  156.1093 N   0  0  0  0  0  0  0  0  0  0  0  0
  148.0167  141.3720  155.3955 C   0  0  1  0  0  0  0  0  0  0  0  0
  147.4127  142.0328  154.1414 C   0  0  0  0  0  0  0  0  0  0  0  0
  146.5350  141.0465  153.3549 C   0  0  0  0  0  0  0  0  0  0  0  0
  147.3144  139.7740  152.9890 C   0  0  0  0  0  0  0  0  0  0  0  0
  147.9213  139.1142  154.2380 C   0  0  0  0  0  0  0  0  0  0  0  0
  148.8104  140.0958  155.0309 C   0  0  1  0  0  0  0  0  0  0  0  0
  149.9557  140.4852  154.2775 O   0  0  0  0  0  0  0  0  0  0  0  0
  151.1347  139.7278  154.5161 C   0  0  0  0  0  0  0  0  0  0  0  0
  150.8196  138.2335  154.4978 C   0  0  0  0  0  0  0  0  0  0  0  0
  151.9406  137.5878  155.3197 C   0  0  0  0  0  0  0  0  0  0  0  0
  152.4881  138.6913  156.2398 C   0  0  0  0  0  0  0  0  0  0  0  0
  151.6730  139.9516  155.9295 C   0  0  0  0  0  0  0  0  0  0  0  0
  151.8166  142.2365  159.1801 C   0  0  0  0  0  0  0  0  0  0  0  0
  151.8609  141.2014  158.5106 O   0  0  0  0  0  0  0  0  0  0  0  0
  154.0723  141.5697  161.6006 H   0  0  0  0  0  0  0  0  0  0  0  0
  154.1998  141.0775  159.9196 H   0  0  0  0  0  0  0  0  0  0  0  0
  152.9272  140.4074  160.9462 H   0  0  0  0  0  0  0  0  0  0  0  0
  153.2071  143.5483  161.9476 H   0  0  0  0  0  0  0  0  0  0  0  0
  151.7400  145.4708  161.3988 H   0  0  0  0  0  0  0  0  0  0  0  0
  150.2706  145.3169  159.3980 H   0  0  0  0  0  0  0  0  0  0  0  0
  150.0967  144.0032  157.0809 H   0  0  0  0  0  0  0  0  0  0  0  0
  149.0058  143.2226  155.6592 H   0  0  0  0  0  0  0  0  0  0  0  0
  147.1895  141.0901  156.0500 H   0  0  0  0  0  0  0  0  0  0  0  0
  146.8192  142.9021  154.4268 H   0  0  0  0  0  0  0  0  0  0  0  0
  148.2096  142.4028  153.4946 H   0  0  0  0  0  0  0  0  0  0  0  0
  145.6613  140.7807  153.9514 H   0  0  0  0  0  0  0  0  0  0  0  0
  146.1578  141.5243  152.4503 H   0  0  0  0  0  0  0  0  0  0  0  0
  146.6557  139.0693  152.4811 H   0  0  0  0  0  0  0  0  0  0  0  0
  148.1072  140.0199  152.2815 H   0  0  0  0  0  0  0  0  0  0  0  0
  147.1139  138.7668  154.8834 H   0  0  0  0  0  0  0  0  0  0  0  0
  148.4807  138.2222  153.9580 H   0  0  0  0  0  0  0  0  0  0  0  0
  149.1378  139.6150  155.9544 H   0  0  0  0  0  0  0  0  0  0  0  0
  151.9201  139.9299  153.7848 H   0  0  0  0  0  0  0  0  0  0  0  0
  149.8624  138.0543  154.9900 H   0  0  0  0  0  0  0  0  0  0  0  0
  150.7505  137.8313  153.4866 H   0  0  0  0  0  0  0  0  0  0  0  0
  151.5754  136.7287  155.8835 H   0  0  0  0  0  0  0  0  0  0  0  0
  152.7327  137.2317  154.6596 H   0  0  0  0  0  0  0  0  0  0  0  0
  152.4149  138.4193  157.2932 H   0  0  0  0  0  0  0  0  0  0  0  0
  153.5424  138.8636  156.0201 H   0  0  0  0  0  0  0  0  0  0  0  0
  152.2617  140.8643  156.0218 H   0  0  0  0  0  0  0  0  0  0  0  0
  150.8401  140.0254  156.6302 H   0  0  0  0  0  0  0  0  0  0  0  0
  1  2  1  0  0  0  0
  1 25  1  0  0  0  0
  1 26  1  0  0  0  0
  1 27  1  0  0  0  0
  2 23  1  0  0  0  0
  2  3  1  0  0  0  0
  3  4  2  0  0  0  0
  3 28  1  0  0  0  0
  4  5  1  0  0  0  0
  4 29  1  0  0  0  0
  5  6  2  0  0  0  0
  5 30  1  0  0  0  0
  6  7  1  0  0  0  0
  6 23  1  0  0  0  0
  7  8  1  0  0  0  0
  7 31  1  0  0  0  0
  8  9  2  0  0  0  0
  8 10  1  0  0  0  0
 10 11  1  0  0  0  0
 10 32  1  0  0  0  0
 11 16  1  0  0  0  0
 11 12  1  0  0  0  0
 11 33  1  0  0  0  0
 12 13  1  0  0  0  0
 12 34  1  0  0  0  0
 12 35  1  0  0  0  0
 13 14  1  0  0  0  0
 13 36  1  0  0  0  0
 13 37  1  0  0  0  0
 14 15  1  0  0  0  0
 14 38  1  0  0  0  0
 14 39  1  0  0  0  0
 15 16  1  0  0  0  0
 15 40  1  0  0  0  0
 15 41  1  0  0  0  0
 16 17  1  0  0  0  0
 16 42  1  0  0  0  0
 17 18  1  0  0  0  0
 18 22  1  0  0  0  0
 18 19  1  0  0  0  0
 18 43  1  0  0  0  0
 19 20  1  0  0  0  0
 19 44  1  0  0  0  0
 19 45  1  0  0  0  0
 20 21  1  0  0  0  0
 20 46  1  0  0  0  0
 20 47  1  0  0  0  0
 21 22  1  0  0  0  0
 21 48  1  0  0  0  0
 21 49  1  0  0  0  0
 22 50  1  0  0  0  0
 22 51  1  0  0  0  0
 23 24  2  0  0  0  0
M  END
> <s_m_source_file>
AV-unprocessed.smi

> <i_m_source_file_index>
2477

> <i_lp_mmshare_version>
43012

> <i_f3d_flags>
0

> <s_epik_input>
W0NIM11uMVtjSF1bY0hdW2NIXWMoYzE9TylbTkhdQyg9TylbTkhdW0NAQEhdMltDSDJdW0NIMl1bQ0gyXVtDSDJdW0NASF0yT1tDSF0zW0NIMl1bQ0gyXVtDSDJdW0NIMl0z

> <s_epik_cmdline>
J2VwaWtfcHl0aG9uJywgJy1waCcsICc3LjAnLCAnLXRuJywgJzgnLCAnLW1hJywgJzIwMCcsICctbWV0YWxfYmluZGluZycsICctaW1hZScsICc8aW5maWxlLm1hZT4nLCAnLW9tYWUnLCAnPG91dGZpbGUubWFlPic=

> <r_lp_tautomer_probability>
1

> <r_epik_Ionization_Penalty>
2.40753e-05

> <r_epik_Ionization_Penalty_Charging>
4.84018e-06

> <r_epik_Ionization_Penalty_Neutral>
1.92352e-05

> <r_epik_State_Penalty>
-0

> <r_epik_Charging_Adjusted_Penalty>
4.84018e-06

> <i_epik_Tot_Q>
0

> <i_epik_Tot_abs_Q>
0

> <r_epik_Metal_State_Penalty>
-0

> <b_epik_Metal_Only>
0

> <s_lp_Force_Field>
OPLS_2005

> <r_lp_Energy>
43.088

> <b_lp_Chiralities_Consistent>
1

> <s_lp_Variant>
AV-unprocessed.smi:2477-2

> <Gold.Version>
5.8.1

> <Gold.Id.Protein>
6NUR|6NUR_protein|mol2

> <Gold.PLP.Fitness>
48.6758

> <Gold.PLP.PLP>
-45.2495

> <Gold.PLP.part.hbond>
-2.7303

> <Gold.PLP.part.metal>
0.0000

> <Gold.PLP.part.buried>
0.6039

> <Gold.PLP.part.nonpolar>
-43.6457

> <Gold.PLP.part.repulsive>
0.5353

> <Gold.PLP.ligand.clash>
0.0000

> <Gold.PLP.ligand.torsion>
0.9186

> <Gold.PLP.Chemscore.Hbond>
1.7440

> <Gold.PLP.Chemscore.CHOScore>
0.0000

> <Gold.PLP.Chemscore.Metal>
0.0000

> <Gold.Chemscore.Hbonds>
donor molecule, donor type, donor heavy atom, donor atom, acceptor molecule, acceptor atom, score
      L1  H     7    31       P1  8028  0.78
      L1  H    10    32       P1  8028  0.93

> <Gold.PLP.Chemscore.Internal.Correction>
0.0315

> <Gold.Rescore>
     Score         DG    S(hbond)    S(metal)    S(lipo)     H(rot)  DE(clash)    DE(int)     intcor
     14.79     -22.38       1.64        0.00     127.27       1.36       2.63       4.96       ----

> <Gold.Chemscore.Fitness>
14.7857

> <Gold.Chemscore.DG>
-22.3787

> <Gold.Chemscore.ZeroCoef>
-5.4800

> <Gold.Chemscore.Hbond>
1.6408

> <Gold.Chemscore.Metal>
0.0000

> <Gold.Chemscore.Lipo>
127.2721

> <Gold.Chemscore.Internal_Hbond>
0.0000

> <Gold.Chemscore.DEClash>
2.6309

> <Gold.Chemscore.DEInternal>
4.9622

> <Gold.Chemscore.Rot>
1.3564

> <Gold.Chemscore.Internal.Correction>
   9.000000E+99

> <Gold.Chemscore.Hbonds>
donor molecule, donor type, donor heavy atom, donor atom, acceptor molecule, acceptor atom, score
      L1  H     7    31       P1  8028  0.70
      L1  H    10    32       P1  8028  0.84

> <Gold.Chemscore.Hbond.Weighted>
-5.4803

> <Gold.Chemscore.Metal.Weighted>
-0.0000

> <Gold.Chemscore.Lipo.Weighted>
-14.8908

> <Gold.Chemscore.Internal_Hbond.Weighted>
0.0000

> <Gold.Chemscore.DEClash.Weighted>
2.6309

> <Gold.Chemscore.DEInternal.Weighted>
4.9622

> <Gold.Chemscore.Rot.Weighted>
3.4724

> <Gold.Chemscore.Internal.Correction.Weighted>
   9.000000E+99

> <Gold.Protein.RotatedTorsions>
[ 6907 6896 6895 6894 ] final  -26.37 input  -60.11 | X-H torsion
[ 7974 7965 7964 7962 ] final  160.60 input  175.53 | X-H torsion
[ 8008 7997 7996 7995 ] final -125.70 input   59.86 | X-H torsion
[ 10167 10162 10161 10158 ] final  -93.45 input  -65.29 | X-H torsion
[ 10718 10713 10712 10709 ] final  -63.59 input   66.30 | X-H torsion
[ 10763 10752 10751 10750 ] final   42.62 input  -60.55 | X-H torsion
[ 11005 11000 10999 10996 ] final    9.60 input  -57.11 | X-H torsion

> <Gold.Protein.ActiveResidues>
 VAL166  LYS551  ARG553  GLY616  TRP617  ASP618  TYR619  PRO620  LYS621  CYS622 
 ASP623  PHE694  ASN695  SER759  ASP760  ASP761  ALA762  ILE779  LEU786  VAL792 
 PHE793  MET794  SER795  GLU796  ALA797  LYS798  CYS799  TRP800  GLU811  SER814 

> <Gold.Protein.RotatedAtoms>
  151.1619  135.0277  159.8713 H   0  0  0  0  0  0  0  0  0  0  0  0  # atno 6907 bound_to 6896
  152.5451  134.1269  159.8433 H   0  0  0  0  0  0  0  0  0  0  0  0  # atno 6908 bound_to 6896
  151.1365  133.4954  159.2630 H   0  0  0  0  0  0  0  0  0  0  0  0  # atno 6909 bound_to 6896
  144.7729  139.7779  143.6290 H   0  0  0  0  0  0  0  0  0  0  0  0  # atno 7974 bound_to 7965
  155.2176  140.0421  157.2943 H   0  0  0  0  0  0  0  0  0  0  0  0  # atno 8008 bound_to 7997
  154.5971  140.2442  155.7813 H   0  0  0  0  0  0  0  0  0  0  0  0  # atno 8009 bound_to 7997
  156.2297  140.2942  156.0166 H   0  0  0  0  0  0  0  0  0  0  0  0  # atno 8010 bound_to 7997
  140.3245  143.3030  152.0010 H   0  0  0  0  0  0  0  0  0  0  0  0  # atno 10167 bound_to 10162
  156.0781  130.4222  150.1299 H   0  0  0  0  0  0  0  0  0  0  0  0  # atno 10718 bound_to 10713
  152.9879  135.6126  154.2979 H   0  0  0  0  0  0  0  0  0  0  0  0  # atno 10763 bound_to 10752
  154.2701  135.2780  155.2744 H   0  0  0  0  0  0  0  0  0  0  0  0  # atno 10764 bound_to 10752
  154.5130  135.5836  153.6677 H   0  0  0  0  0  0  0  0  0  0  0  0  # atno 10765 bound_to 10752
  140.5239  134.0532  155.7853 H   0  0  0  0  0  0  0  0  0  0  0  0  # atno 11005 bound_to 11000
  146.1888  139.5117  142.9819 LP  0  0  0  0  0  0  0  0  0  0  0  0  # atno 17320 bound_to 7965
  145.6272  141.0311  143.1883 LP  0  0  0  0  0  0  0  0  0  0  0  0  # atno 17321 bound_to 7965
  139.4868  144.6285  151.7117 LP  0  0  0  0  0  0  0  0  0  0  0  0  # atno 17342 bound_to 10162
  140.5454  144.0512  150.6105 LP  0  0  0  0  0  0  0  0  0  0  0  0  # atno 17343 bound_to 10162
  156.9336  130.9722  151.3528 LP  0  0  0  0  0  0  0  0  0  0  0  0  # atno 17370 bound_to 10713
  157.5886  130.8428  149.8626 LP  0  0  0  0  0  0  0  0  0  0  0  0  # atno 17371 bound_to 10713
  141.1319  133.9288  157.2518 LP  0  0  0  0  0  0  0  0  0  0  0  0  # atno 17394 bound_to 11000
  139.9590  135.0158  156.9210 LP  0  0  0  0  0  0  0  0  0  0  0  0  # atno 17395 bound_to 11000

$$$$
