AV-unprocessed.smi:861|AV-procd|sdf|3971|dock6
  -GOLD-   22720 1443D 1   1.00000     0.00000
 Structure written by MMmdl.
 43 44  0  0  0  0  0  0  0  0  1 V2000
  152.1127  144.5094  159.9246 C   0  0  0  0  0  0  0  0  0  0  0  0
  152.1589  143.7327  158.5975 C   0  0  0  0  0  0  0  0  0  0  0  0
  151.9596  144.6916  157.4135 C   0  0  0  0  0  0  0  0  0  0  0  0
  151.1320  142.5824  158.5467 C   0  0  0  0  0  0  0  0  0  0  0  0
  151.0351  141.8924  157.1713 C   0  0  0  0  0  0  0  0  0  0  0  0
  150.0899  140.7779  157.1003 N   0  0  0  0  0  0  0  0  0  0  0  0
  148.7243  141.2417  157.3192 C   0  0  0  0  0  0  0  0  0  0  0  0
  147.7091  140.0893  157.2561 C   0  0  0  0  0  0  0  0  0  0  0  0
  148.0683  139.0943  158.2077 O   0  0  0  0  0  0  0  0  0  0  0  0
  149.3740  138.5625  157.9961 C   0  0  2  0  0  0  0  0  0  0  0  0
  149.6630  137.4960  159.0664 C   0  0  0  0  0  0  0  0  0  0  0  0
  148.6307  136.4668  159.1194 N   0  0  0  0  0  0  0  0  0  0  0  0
  148.0601  136.0723  160.3384 C   0  0  0  0  0  0  0  0  0  0  0  0
  147.8927  134.6968  160.5954 C   0  0  0  0  0  0  0  0  0  0  0  0
  147.3226  134.3266  161.8257 C   0  0  0  0  0  0  0  0  0  0  0  0
  146.9646  135.3620  162.7082 C   0  0  0  0  0  0  0  0  0  0  0  0
  147.1511  136.6678  162.4124 N   0  0  0  0  0  0  0  0  0  0  0  0
  147.6952  137.0174  161.2412 N   0  0  0  0  0  0  0  0  0  0  0  0
  150.3887  139.7216  158.0661 C   0  0  0  0  0  0  0  0  0  0  0  0
  151.1239  144.9341  160.1011 H   0  0  0  0  0  0  0  0  0  0  0  0
  152.8291  145.3313  159.9202 H   0  0  0  0  0  0  0  0  0  0  0  0
  152.3614  143.8754  160.7750 H   0  0  0  0  0  0  0  0  0  0  0  0
  153.1551  143.3002  158.4969 H   0  0  0  0  0  0  0  0  0  0  0  0
  150.9736  145.1564  157.4426 H   0  0  0  0  0  0  0  0  0  0  0  0
  152.0534  144.1685  156.4613 H   0  0  0  0  0  0  0  0  0  0  0  0
  152.7040  145.4883  157.4223 H   0  0  0  0  0  0  0  0  0  0  0  0
  151.3697  141.8433  159.3131 H   0  0  0  0  0  0  0  0  0  0  0  0
  150.1570  142.9901  158.8117 H   0  0  0  0  0  0  0  0  0  0  0  0
  150.7888  142.6325  156.4084 H   0  0  0  0  0  0  0  0  0  0  0  0
  152.0243  141.5154  156.9130 H   0  0  0  0  0  0  0  0  0  0  0  0
  148.6509  141.7307  158.2919 H   0  0  0  0  0  0  0  0  0  0  0  0
  148.4623  141.9922  156.5726 H   0  0  0  0  0  0  0  0  0  0  0  0
  146.7067  140.4530  157.4824 H   0  0  0  0  0  0  0  0  0  0  0  0
  147.6758  139.6547  156.2560 H   0  0  0  0  0  0  0  0  0  0  0  0
  149.4233  138.1034  157.0066 H   0  0  0  0  0  0  0  0  0  0  0  0
  150.5964  136.9892  158.8201 H   0  0  0  0  0  0  0  0  0  0  0  0
  149.8213  137.9553  160.0426 H   0  0  0  0  0  0  0  0  0  0  0  0
  148.1338  136.2562  158.2662 H   0  0  0  0  0  0  0  0  0  0  0  0
  148.1888  133.9484  159.8748 H   0  0  0  0  0  0  0  0  0  0  0  0
  147.1658  133.2900  162.0838 H   0  0  0  0  0  0  0  0  0  0  0  0
  146.5228  135.1407  163.6684 H   0  0  0  0  0  0  0  0  0  0  0  0
  151.3838  139.3169  157.8862 H   0  0  0  0  0  0  0  0  0  0  0  0
  150.3970  140.1366  159.0751 H   0  0  0  0  0  0  0  0  0  0  0  0
  1  2  1  0  0  0  0
  1 20  1  0  0  0  0
  1 21  1  0  0  0  0
  1 22  1  0  0  0  0
  2  3  1  0  0  0  0
  2  4  1  0  0  0  0
  2 23  1  0  0  0  0
  3 24  1  0  0  0  0
  3 25  1  0  0  0  0
  3 26  1  0  0  0  0
  4  5  1  0  0  0  0
  4 27  1  0  0  0  0
  4 28  1  0  0  0  0
  5  6  1  0  0  0  0
  5 29  1  0  0  0  0
  5 30  1  0  0  0  0
  6 19  1  0  0  0  0
  6  7  1  0  0  0  0
  7  8  1  0  0  0  0
  7 31  1  0  0  0  0
  7 32  1  0  0  0  0
  8  9  1  0  0  0  0
  8 33  1  0  0  0  0
  8 34  1  0  0  0  0
  9 10  1  0  0  0  0
 10 11  1  0  0  0  0
 10 19  1  0  0  0  0
 10 35  1  0  0  0  0
 11 12  1  0  0  0  0
 11 36  1  0  0  0  0
 11 37  1  0  0  0  0
 12 13  1  0  0  0  0
 12 38  1  0  0  0  0
 13 18  1  0  0  0  0
 13 14  2  0  0  0  0
 14 15  1  0  0  0  0
 14 39  1  0  0  0  0
 15 16  2  0  0  0  0
 15 40  1  0  0  0  0
 16 17  1  0  0  0  0
 16 41  1  0  0  0  0
 17 18  2  0  0  0  0
 19 42  1  0  0  0  0
 19 43  1  0  0  0  0
M  END
> <s_m_source_file>
AV-unprocessed.smi

> <i_m_source_file_index>
861

> <i_lp_mmshare_version>
43012

> <i_f3d_flags>
0

> <s_epik_input>
W0NIM11bQ0hdKFtDSDNdKVtDSDJdW0NIMl1OMVtDSDJdW0NIMl1PW0NASF0oW0NIMl0xKVtDSDJdW05IXWMyW2NIXVtjSF1bY0hdbm4y

> <s_epik_cmdline>
J2VwaWtfcHl0aG9uJywgJy1waCcsICc3LjAnLCAnLXRuJywgJzgnLCAnLW1hJywgJzIwMCcsICctbWV0YWxfYmluZGluZycsICctaW1hZScsICc8aW5maWxlLm1hZT4nLCAnLW9tYWUnLCAnPG91dGZpbGUubWFlPic=

> <r_lp_tautomer_probability>
0.999978

> <r_epik_Ionization_Penalty>
1.1508

> <r_epik_Ionization_Penalty_Charging>
0

> <r_epik_Ionization_Penalty_Neutral>
1.1508

> <r_epik_State_Penalty>
1.22808

> <r_epik_Charging_Adjusted_Penalty>
1.22808

> <i_epik_Tot_Q>
0

> <i_epik_Tot_abs_Q>
0

> <r_epik_Metal_State_Penalty>
1.22149

> <b_epik_Metal_Only>
0

> <s_lp_Force_Field>
OPLS_2005

> <r_lp_Energy>
31.1204

> <b_lp_Chiralities_Consistent>
1

> <s_lp_Variant>
AV-unprocessed.smi:861-6

> <Gold.Version>
5.8.1

> <Gold.Id.Protein>
6NUR|6NUR_protein|mol2

> <Gold.PLP.Fitness>
41.7331

> <Gold.PLP.PLP>
-37.1361

> <Gold.PLP.part.hbond>
-3.0000

> <Gold.PLP.part.metal>
0.0000

> <Gold.PLP.part.buried>
-6.4003

> <Gold.PLP.part.nonpolar>
-28.5343

> <Gold.PLP.part.repulsive>
0.1965

> <Gold.PLP.ligand.clash>
0.0000

> <Gold.PLP.ligand.torsion>
0.5019

> <Gold.PLP.Chemscore.Hbond>
1.8480

> <Gold.PLP.Chemscore.CHOScore>
0.0000

> <Gold.PLP.Chemscore.Metal>
0.0000

> <Gold.Chemscore.Hbonds>
donor molecule, donor type, donor heavy atom, donor atom, acceptor molecule, acceptor atom, score
      P1  H  6931  6943       L1    18  0.90
      P1  H  6934  6947       L1    18  0.74

> <Gold.PLP.Chemscore.Internal.Correction>
0.0567

> <Gold.Rescore>
     Score         DG    S(hbond)    S(metal)    S(lipo)     H(rot)  DE(clash)    DE(int)     intcor
     15.02     -15.73       1.06        0.00      93.58       1.66       0.20       0.51       ----

> <Gold.Chemscore.Fitness>
15.0227

> <Gold.Chemscore.DG>
-15.7255

> <Gold.Chemscore.ZeroCoef>
-5.4800

> <Gold.Chemscore.Hbond>
1.0610

> <Gold.Chemscore.Metal>
0.0000

> <Gold.Chemscore.Lipo>
93.5824

> <Gold.Chemscore.Internal_Hbond>
0.0000

> <Gold.Chemscore.DEClash>
0.1963

> <Gold.Chemscore.DEInternal>
0.5065

> <Gold.Chemscore.Rot>
1.6591

> <Gold.Chemscore.Internal.Correction>
   9.000000E+99

> <Gold.Chemscore.Hbonds>
donor molecule, donor type, donor heavy atom, donor atom, acceptor molecule, acceptor atom, score
      P1  H  6931  6943       L1    18  0.17
      P1  H  6934  6947       L1    18  0.39

> <Gold.Chemscore.Hbond.Weighted>
-3.5437

> <Gold.Chemscore.Metal.Weighted>
-0.0000

> <Gold.Chemscore.Lipo.Weighted>
-10.9491

> <Gold.Chemscore.Internal_Hbond.Weighted>
0.0000

> <Gold.Chemscore.DEClash.Weighted>
0.1963

> <Gold.Chemscore.DEInternal.Weighted>
0.5065

> <Gold.Chemscore.Rot.Weighted>
4.2474

> <Gold.Chemscore.Internal.Correction.Weighted>
   9.000000E+99

> <Gold.Protein.RotatedTorsions>
[ 6907 6896 6895 6894 ] final -168.28 input  -60.11 | X-H torsion
[ 7974 7965 7964 7962 ] final   12.23 input  175.53 | X-H torsion
[ 8008 7997 7996 7995 ] final -171.69 input   59.86 | X-H torsion
[ 10167 10162 10161 10158 ] final   -9.12 input  -65.29 | X-H torsion
[ 10718 10713 10712 10709 ] final   -5.08 input   66.30 | X-H torsion
[ 10763 10752 10751 10750 ] final   -3.09 input  -60.55 | X-H torsion
[ 11005 11000 10999 10996 ] final   -6.06 input  -57.11 | X-H torsion

> <Gold.Protein.ActiveResidues>
 VAL166  LYS551  ARG553  GLY616  TRP617  ASP618  TYR619  PRO620  LYS621  CYS622 
 ASP623  PHE694  ASN695  SER759  ASP760  ASP761  ALA762  ILE779  LEU786  VAL792 
 PHE793  MET794  SER795  GLU796  ALA797  LYS798  CYS799  TRP800  GLU811  SER814 

> <Gold.Protein.RotatedAtoms>
  151.4730  133.3564  159.2826 H   0  0  0  0  0  0  0  0  0  0  0  0  # atno 6907 bound_to 6896
  150.8948  134.8357  159.7330 H   0  0  0  0  0  0  0  0  0  0  0  0  # atno 6908 bound_to 6896
  152.4845  134.4644  159.9667 H   0  0  0  0  0  0  0  0  0  0  0  0  # atno 6909 bound_to 6896
  146.2355  139.9367  142.8489 H   0  0  0  0  0  0  0  0  0  0  0  0  # atno 7974 bound_to 7965
  155.9349  140.1098  157.1103 H   0  0  0  0  0  0  0  0  0  0  0  0  # atno 8008 bound_to 7997
  154.4078  140.1230  156.4916 H   0  0  0  0  0  0  0  0  0  0  0  0  # atno 8009 bound_to 7997
  155.7034  140.3471  155.4945 H   0  0  0  0  0  0  0  0  0  0  0  0  # atno 8010 bound_to 7997
  140.7078  143.5893  150.8910 H   0  0  0  0  0  0  0  0  0  0  0  0  # atno 10167 bound_to 10162
  156.7518  130.5242  149.5802 H   0  0  0  0  0  0  0  0  0  0  0  0  # atno 10718 bound_to 10713
  153.3667  135.6993  153.6670 H   0  0  0  0  0  0  0  0  0  0  0  0  # atno 10763 bound_to 10752
  153.5336  135.3587  155.2687 H   0  0  0  0  0  0  0  0  0  0  0  0  # atno 10764 bound_to 10752
  154.8676  135.4186  154.2936 H   0  0  0  0  0  0  0  0  0  0  0  0  # atno 10765 bound_to 10752
  140.6979  133.9015  155.8663 H   0  0  0  0  0  0  0  0  0  0  0  0  # atno 11005 bound_to 11000
  145.1991  140.9846  143.4166 LP  0  0  0  0  0  0  0  0  0  0  0  0  # atno 17320 bound_to 7965
  144.9789  139.3803  143.6272 LP  0  0  0  0  0  0  0  0  0  0  0  0  # atno 17321 bound_to 7965
  139.9619  143.6154  152.3000 LP  0  0  0  0  0  0  0  0  0  0  0  0  # atno 17342 bound_to 10162
  139.6710  144.7661  151.1784 LP  0  0  0  0  0  0  0  0  0  0  0  0  # atno 17343 bound_to 10162
  156.1396  130.6235  151.0449 LP  0  0  0  0  0  0  0  0  0  0  0  0  # atno 17370 bound_to 10713
  157.6774  131.0847  150.7460 LP  0  0  0  0  0  0  0  0  0  0  0  0  # atno 17371 bound_to 10713
  141.0188  134.0918  157.4143 LP  0  0  0  0  0  0  0  0  0  0  0  0  # atno 17394 bound_to 11000
  139.8905  135.0112  156.6739 LP  0  0  0  0  0  0  0  0  0  0  0  0  # atno 17395 bound_to 11000

$$$$
