AV-unprocessed.smi:91|AV-procd|sdf|839|dock10
  -GOLD-   2262017273D 1   1.00000     0.00000
 Structure written by MMmdl.
 60 63  0  0  0  0  0  0  0  0  1 V2000
  152.2534  144.0479  161.5571 C   0  0  0  0  0  0  0  0  0  0  0  0
  152.7439  143.0996  160.6261 O   0  0  0  0  0  0  0  0  0  0  0  0
  153.7156  142.2329  161.1903 C   0  0  0  0  0  0  0  0  0  0  0  0
  154.0202  141.0850  160.2181 C   0  0  2  0  0  0  0  0  0  0  0  0
  153.0979  141.0827  158.9848 C   0  0  0  0  0  0  0  0  0  0  0  0
  153.3577  139.9016  158.1758 N   0  0  0  0  0  0  0  0  0  0  0  0
  152.7126  139.9116  156.9905 C   0  0  0  0  0  0  0  0  0  0  0  0
  153.2013  139.1996  155.9409 N   0  0  0  0  0  0  0  0  0  0  0  0
  152.5567  139.2122  154.7699 C   0  0  0  0  0  0  0  0  0  0  0  0
  151.4341  139.8567  154.4413 N   0  0  0  0  0  0  0  0  0  0  0  0
  150.9449  140.5703  155.4963 C   0  0  0  0  0  0  0  0  0  0  0  0
  151.5164  140.6491  156.7964 C   0  0  0  0  0  0  0  0  0  0  0  0
  150.7447  141.4687  157.6101 N   0  0  0  0  0  0  0  0  0  0  0  0
  149.7718  141.8589  156.8314 C   0  0  0  0  0  0  0  0  0  0  0  0
  149.8179  141.3719  155.5442 N   0  0  0  0  0  0  0  0  0  0  0  0
  148.8715  141.6503  154.4777 C   0  0  0  0  0  0  0  0  0  0  0  0
  147.4727  141.0310  154.7221 C   0  0  1  0  0  0  0  0  0  0  0  0
  146.3155  141.9725  154.3066 C   0  0  0  0  0  0  0  0  0  0  0  0
  145.0723  141.5137  154.7966 O   0  0  0  0  0  0  0  0  0  0  0  0
  147.3496  139.6299  154.0709 C   0  0  1  0  0  0  0  0  0  0  0  0
  146.2496  138.7534  154.6437 C   0  0  0  0  0  0  0  0  0  0  0  0
  146.0803  137.7029  153.5524 C   0  0  0  0  0  0  0  0  0  0  0  0
  146.3358  138.3824  152.3288 O   0  0  0  0  0  0  0  0  0  0  0  0
  146.9535  139.6394  152.5901 C   0  0  0  0  0  0  0  0  0  0  0  0
  153.2065  138.6663  158.9343 C   0  0  0  0  0  0  0  0  0  0  0  0
  154.1359  138.6630  160.1682 C   0  0  0  0  0  0  0  0  0  0  0  0
  153.7604  137.4994  161.0985 C   0  0  0  0  0  0  0  0  0  0  0  0
  155.6219  138.5363  159.7705 C   0  0  0  0  0  0  0  0  0  0  0  0
  153.9073  139.8526  160.9326 O   0  0  0  0  0  0  0  0  0  0  0  0
  151.5147  144.6872  161.0737 H   0  0  0  0  0  0  0  0  0  0  0  0
  153.0559  144.6844  161.9321 H   0  0  0  0  0  0  0  0  0  0  0  0
  151.7710  143.5570  162.4032 H   0  0  0  0  0  0  0  0  0  0  0  0
  154.6291  142.7927  161.3965 H   0  0  0  0  0  0  0  0  0  0  0  0
  153.3586  141.8307  162.1397 H   0  0  0  0  0  0  0  0  0  0  0  0
  155.0520  141.2060  159.8880 H   0  0  0  0  0  0  0  0  0  0  0  0
  152.0513  141.0833  159.2924 H   0  0  0  0  0  0  0  0  0  0  0  0
  153.2607  141.9847  158.3930 H   0  0  0  0  0  0  0  0  0  0  0  0
  153.0055  138.6234  153.9837 H   0  0  0  0  0  0  0  0  0  0  0  0
  148.9906  142.5216  157.1746 H   0  0  0  0  0  0  0  0  0  0  0  0
  148.7906  142.7312  154.3578 H   0  0  0  0  0  0  0  0  0  0  0  0
  149.3008  141.2714  153.5501 H   0  0  0  0  0  0  0  0  0  0  0  0
  147.3775  140.8919  155.7999 H   0  0  0  0  0  0  0  0  0  0  0  0
  146.4843  142.9824  154.6798 H   0  0  0  0  0  0  0  0  0  0  0  0
  146.2522  142.0640  153.2223 H   0  0  0  0  0  0  0  0  0  0  0  0
  144.7093  140.9049  154.1706 H   0  0  0  0  0  0  0  0  0  0  0  0
  148.2963  139.0966  154.1716 H   0  0  0  0  0  0  0  0  0  0  0  0
  146.5048  138.3136  155.6082 H   0  0  0  0  0  0  0  0  0  0  0  0
  145.3264  139.3230  154.7597 H   0  0  0  0  0  0  0  0  0  0  0  0
  146.8204  136.9102  153.6710 H   0  0  0  0  0  0  0  0  0  0  0  0
  145.0900  137.2471  153.5586 H   0  0  0  0  0  0  0  0  0  0  0  0
  146.2231  140.4240  152.3883 H   0  0  0  0  0  0  0  0  0  0  0  0
  147.8084  139.7984  151.9322 H   0  0  0  0  0  0  0  0  0  0  0  0
  152.1682  138.5724  159.2566 H   0  0  0  0  0  0  0  0  0  0  0  0
  153.4209  137.8077  158.2958 H   0  0  0  0  0  0  0  0  0  0  0  0
  153.8801  136.5374  160.5991 H   0  0  0  0  0  0  0  0  0  0  0  0
  152.7232  137.5749  161.4269 H   0  0  0  0  0  0  0  0  0  0  0  0
  154.3866  137.4899  161.9911 H   0  0  0  0  0  0  0  0  0  0  0  0
  155.8150  137.5774  159.2889 H   0  0  0  0  0  0  0  0  0  0  0  0
  156.2694  138.6013  160.6452 H   0  0  0  0  0  0  0  0  0  0  0  0
  155.9346  139.3097  159.0697 H   0  0  0  0  0  0  0  0  0  0  0  0
  1  2  1  0  0  0  0
  1 30  1  0  0  0  0
  1 31  1  0  0  0  0
  1 32  1  0  0  0  0
  2  3  1  0  0  0  0
  3  4  1  0  0  0  0
  3 33  1  0  0  0  0
  3 34  1  0  0  0  0
  4 29  1  0  0  0  0
  4  5  1  0  0  0  0
  4 35  1  0  0  0  0
  5  6  1  0  0  0  0
  5 36  1  0  0  0  0
  5 37  1  0  0  0  0
  6  7  1  0  0  0  0
  6 25  1  0  0  0  0
  7 12  1  0  0  0  0
  7  8  2  0  0  0  0
  8  9  1  0  0  0  0
  9 10  2  0  0  0  0
  9 38  1  0  0  0  0
 10 11  1  0  0  0  0
 11 15  1  0  0  0  0
 11 12  2  0  0  0  0
 12 13  1  0  0  0  0
 13 14  2  0  0  0  0
 14 15  1  0  0  0  0
 14 39  1  0  0  0  0
 15 16  1  0  0  0  0
 16 17  1  0  0  0  0
 16 40  1  0  0  0  0
 16 41  1  0  0  0  0
 17 18  1  0  0  0  0
 17 20  1  0  0  0  0
 17 42  1  0  0  0  0
 18 19  1  0  0  0  0
 18 43  1  0  0  0  0
 18 44  1  0  0  0  0
 19 45  1  0  0  0  0
 20 24  1  0  0  0  0
 20 21  1  0  0  0  0
 20 46  1  0  0  0  0
 21 22  1  0  0  0  0
 21 47  1  0  0  0  0
 21 48  1  0  0  0  0
 22 23  1  0  0  0  0
 22 49  1  0  0  0  0
 22 50  1  0  0  0  0
 23 24  1  0  0  0  0
 24 51  1  0  0  0  0
 24 52  1  0  0  0  0
 25 26  1  0  0  0  0
 25 53  1  0  0  0  0
 25 54  1  0  0  0  0
 26 27  1  0  0  0  0
 26 28  1  0  0  0  0
 26 29  1  0  0  0  0
 27 55  1  0  0  0  0
 27 56  1  0  0  0  0
 27 57  1  0  0  0  0
 28 58  1  0  0  0  0
 28 59  1  0  0  0  0
 28 60  1  0  0  0  0
M  END
> <s_m_source_file>
AV-unprocessed.smi

> <i_m_source_file_index>
91

> <i_lp_mmshare_version>
43012

> <i_f3d_flags>
0

> <s_epik_input>
W0NIM11PW0NIMl1bQ0BASF0oTzEpW0NIMl1OKFtDSDJdQzEoW0NIM10pW0NIM10pYyhuW2NIXW4yKWMoYzIzKW5bY0hdbjNbQ0gyXVtDQEhdKFtDSDJdW09IXSlbQ0BASF00W0NIMl1bQ0gyXU9bQ0gyXTQ=

> <s_epik_cmdline>
J2VwaWtfcHl0aG9uJywgJy1waCcsICc3LjAnLCAnLXRuJywgJzgnLCAnLW1hJywgJzIwMCcsICctbWV0YWxfYmluZGluZycsICctaW1hZScsICc8aW5maWxlLm1hZT4nLCAnLW9tYWUnLCAnPG91dGZpbGUubWFlPic=

> <r_lp_tautomer_probability>
1

> <r_epik_Ionization_Penalty>
8.63591e-05

> <r_epik_Ionization_Penalty_Charging>
0

> <r_epik_Ionization_Penalty_Neutral>
8.63591e-05

> <r_epik_State_Penalty>
-0

> <r_epik_Charging_Adjusted_Penalty>
0

> <i_epik_Tot_Q>
0

> <i_epik_Tot_abs_Q>
0

> <r_epik_Metal_State_Penalty>
-0

> <b_epik_Metal_Only>
0

> <s_lp_Force_Field>
OPLS_2005

> <r_lp_Energy>
46.8468

> <b_lp_Chiralities_Consistent>
1

> <s_lp_Variant>
AV-unprocessed.smi:91-7

> <Gold.Version>
5.8.1

> <Gold.Id.Protein>
6NUR|6NUR_protein|mol2

> <Gold.PLP.Fitness>
50.9082

> <Gold.PLP.PLP>
-46.4182

> <Gold.PLP.part.hbond>
-4.0000

> <Gold.PLP.part.metal>
0.0000

> <Gold.PLP.part.buried>
-0.7303

> <Gold.PLP.part.nonpolar>
-41.2279

> <Gold.PLP.part.repulsive>
0.4705

> <Gold.PLP.ligand.clash>
0.5571

> <Gold.PLP.ligand.torsion>
2.2291

> <Gold.PLP.Chemscore.Hbond>
2.4628

> <Gold.PLP.Chemscore.CHOScore>
0.5879

> <Gold.PLP.Chemscore.Metal>
0.0000

> <Gold.Chemscore.Hbonds>
donor molecule, donor type, donor heavy atom, donor atom, acceptor molecule, acceptor atom, score
      L1  H    19    45       P1 10175  1.00
      P1  H  7989  7998       L1    10  0.65
      P1  H  7997  8009       L1     6  0.08
      P1  H  7997  8010       L1     8  0.37
      L1  C    14    39       P1  8028  0.41

> <Gold.PLP.Chemscore.Internal.Correction>
0.3533

> <Gold.Rescore>
     Score         DG    S(hbond)    S(metal)    S(lipo)     H(rot)  DE(clash)    DE(int)     intcor
     10.00     -14.26       1.42        0.00     100.85       3.03       0.39       3.87       ----

> <Gold.Chemscore.Fitness>
9.9991

> <Gold.Chemscore.DG>
-14.2606

> <Gold.Chemscore.ZeroCoef>
-5.4800

> <Gold.Chemscore.Hbond>
1.4175

> <Gold.Chemscore.Metal>
0.0000

> <Gold.Chemscore.Lipo>
100.8452

> <Gold.Chemscore.Internal_Hbond>
0.0000

> <Gold.Chemscore.DEClash>
0.3928

> <Gold.Chemscore.DEInternal>
3.8688

> <Gold.Chemscore.Rot>
3.0284

> <Gold.Chemscore.Internal.Correction>
   9.000000E+99

> <Gold.Chemscore.Hbonds>
donor molecule, donor type, donor heavy atom, donor atom, acceptor molecule, acceptor atom, score
      L1  H    19    45       P1 10175  0.86
      P1  H  7989  7998       L1    10  0.18
      P1  H  7997  8009       L1     6  0.01
      P1  H  7997  8010       L1     8  0.01

> <Gold.Chemscore.Hbond.Weighted>
-4.7346

> <Gold.Chemscore.Metal.Weighted>
-0.0000

> <Gold.Chemscore.Lipo.Weighted>
-11.7989

> <Gold.Chemscore.Internal_Hbond.Weighted>
0.0000

> <Gold.Chemscore.DEClash.Weighted>
0.3928

> <Gold.Chemscore.DEInternal.Weighted>
3.8688

> <Gold.Chemscore.Rot.Weighted>
7.7528

> <Gold.Chemscore.Internal.Correction.Weighted>
   9.000000E+99

> <Gold.Protein.RotatedTorsions>
[ 6907 6896 6895 6894 ] final -132.17 input  -60.11 | X-H torsion
[ 7974 7965 7964 7962 ] final  110.68 input  175.53 | X-H torsion
[ 8008 7997 7996 7995 ] final  103.45 input   59.86 | X-H torsion
[ 10167 10162 10161 10158 ] final  -21.72 input  -65.29 | X-H torsion
[ 10718 10713 10712 10709 ] final   29.17 input   66.30 | X-H torsion
[ 10763 10752 10751 10750 ] final -100.19 input  -60.55 | X-H torsion
[ 11005 11000 10999 10996 ] final  169.87 input  -57.11 | X-H torsion

> <Gold.Protein.ActiveResidues>
 VAL166  LYS551  ARG553  GLY616  TRP617  ASP618  TYR619  PRO620  LYS621  CYS622 
 ASP623  PHE694  ASN695  SER759  ASP760  ASP761  ALA762  ILE779  LEU786  VAL792 
 PHE793  MET794  SER795  GLU796  ALA797  LYS798  CYS799  TRP800  GLU811  SER814 

> <Gold.Protein.RotatedAtoms>
  150.9594  133.6462  159.2757 H   0  0  0  0  0  0  0  0  0  0  0  0  # atno 6907 bound_to 6896
  151.3790  135.0935  159.9499 H   0  0  0  0  0  0  0  0  0  0  0  0  # atno 6908 bound_to 6896
  152.5141  133.9132  159.7553 H   0  0  0  0  0  0  0  0  0  0  0  0  # atno 6909 bound_to 6896
  145.2518  139.2736  143.4063 H   0  0  0  0  0  0  0  0  0  0  0  0  # atno 7974 bound_to 7965
  156.1485  140.3164  155.8609 H   0  0  0  0  0  0  0  0  0  0  0  0  # atno 8008 bound_to 7997
  155.4018  140.0500  157.3053 H   0  0  0  0  0  0  0  0  0  0  0  0  # atno 8009 bound_to 7997
  154.5037  140.2139  155.9306 H   0  0  0  0  0  0  0  0  0  0  0  0  # atno 8010 bound_to 7997
  140.7283  143.4601  151.0392 H   0  0  0  0  0  0  0  0  0  0  0  0  # atno 10167 bound_to 10162
  157.2431  130.7079  149.6368 H   0  0  0  0  0  0  0  0  0  0  0  0  # atno 10718 bound_to 10713
  154.7559  135.4944  153.9374 H   0  0  0  0  0  0  0  0  0  0  0  0  # atno 10763 bound_to 10752
  153.1195  135.6728  153.9367 H   0  0  0  0  0  0  0  0  0  0  0  0  # atno 10764 bound_to 10752
  153.9103  135.3099  155.3427 H   0  0  0  0  0  0  0  0  0  0  0  0  # atno 10765 bound_to 10752
  140.3023  134.7585  157.3926 H   0  0  0  0  0  0  0  0  0  0  0  0  # atno 11005 bound_to 11000
  146.3300  140.2911  142.8615 LP  0  0  0  0  0  0  0  0  0  0  0  0  # atno 17320 bound_to 7965
  144.9496  140.8164  143.5580 LP  0  0  0  0  0  0  0  0  0  0  0  0  # atno 17321 bound_to 7965
  139.8285  143.7723  152.3179 LP  0  0  0  0  0  0  0  0  0  0  0  0  # atno 17342 bound_to 10162
  139.7830  144.7437  151.0061 LP  0  0  0  0  0  0  0  0  0  0  0  0  # atno 17343 bound_to 10162
  155.9669  130.4451  150.5490 LP  0  0  0  0  0  0  0  0  0  0  0  0  # atno 17370 bound_to 10713
  157.3357  131.0708  151.1826 LP  0  0  0  0  0  0  0  0  0  0  0  0  # atno 17371 bound_to 10713
  140.1098  134.5360  155.8276 LP  0  0  0  0  0  0  0  0  0  0  0  0  # atno 17394 bound_to 11000
  141.2125  133.6721  156.6668 LP  0  0  0  0  0  0  0  0  0  0  0  0  # atno 17395 bound_to 11000

$$$$
