AV-unprocessed.smi:2768|AV-procd|sdf|10652|dock5
  -GOLD-   2272015103D 1   1.00000     0.00000
 Structure written by MMmdl.
 34 35  0  0  0  0  0  0  0  0  2 V2000
  151.1138  142.3802  156.6042 O   0  0  0  0  0  0  0  0  0  0  0  0
  151.0361  141.2110  156.2094 C   0  0  0  0  0  0  0  0  0  0  0  0
  150.4989  140.7135  155.0582 N   0  5  0  0  0  0  0  0  0  0  0  0
  149.0684  140.4881  154.8409 C   0  0  2  0  0  0  0  0  0  0  0  0
  148.8649  139.1173  154.1482 C   0  0  0  0  0  0  0  0  0  0  0  0
  147.3962  138.8443  153.7374 C   0  0  0  0  0  0  0  0  0  0  0  0
  146.8198  139.9528  152.8329 C   0  0  0  0  0  0  0  0  0  0  0  0
  146.9989  141.3224  153.5197 C   0  0  0  0  0  0  0  0  0  0  0  0
  148.4694  141.5997  153.9329 C   0  0  1  0  0  0  0  0  0  0  0  0
  148.5084  142.8439  154.6048 O   0  0  0  0  0  0  0  0  0  0  0  0
  151.6013  140.0977  157.1180 C   0  0  0  0  0  0  0  0  0  0  0  0
  150.6277  139.2591  157.4904 F   0  0  0  0  0  0  0  0  0  0  0  0
  152.4876  139.3867  156.4161 F   0  0  0  0  0  0  0  0  0  0  0  0
  152.2969  140.7002  158.3371 C   0  0  0  0  0  0  0  0  0  0  0  0
  151.6069  141.5867  159.1957 C   0  0  0  0  0  0  0  0  0  0  0  0
  152.2837  142.1098  160.3139 C   0  0  0  0  0  0  0  0  0  0  0  0
  153.6211  141.7315  160.5361 C   0  0  0  0  0  0  0  0  0  0  0  0
  154.2236  140.8410  159.6259 C   0  0  0  0  0  0  0  0  0  0  0  0
  153.5841  140.3349  158.5505 N   0  0  0  0  0  0  0  0  0  0  0  0
  148.5016  140.4723  155.7738 H   0  0  0  0  0  0  0  0  0  0  0  0
  149.0697  141.6920  153.0262 H   0  0  0  0  0  0  0  0  0  0  0  0
  149.4910  139.0632  153.2559 H   0  0  0  0  0  0  0  0  0  0  0  0
  149.2086  138.3192  154.8074 H   0  0  0  0  0  0  0  0  0  0  0  0
  147.3379  137.8875  153.2176 H   0  0  0  0  0  0  0  0  0  0  0  0
  146.7708  138.7382  154.6261 H   0  0  0  0  0  0  0  0  0  0  0  0
  147.3385  139.9518  151.8734 H   0  0  0  0  0  0  0  0  0  0  0  0
  145.7662  139.7658  152.6243 H   0  0  0  0  0  0  0  0  0  0  0  0
  146.6555  142.1075  152.8451 H   0  0  0  0  0  0  0  0  0  0  0  0
  146.3434  141.3723  154.3920 H   0  0  0  0  0  0  0  0  0  0  0  0
  148.8509  142.6966  155.4730 H   0  0  0  0  0  0  0  0  0  0  0  0
  150.5778  141.8536  159.0056 H   0  0  0  0  0  0  0  0  0  0  0  0
  151.7843  142.7879  160.9900 H   0  0  0  0  0  0  0  0  0  0  0  0
  154.1710  142.1120  161.3838 H   0  0  0  0  0  0  0  0  0  0  0  0
  155.2481  140.5284  159.7643 H   0  0  0  0  0  0  0  0  0  0  0  0
  1  2  2  0  0  0  0
  2  3  1  0  0  0  0
  2 11  1  0  0  0  0
  3  4  1  0  0  0  0
  4 20  1  0  0  0  0
  4  9  1  0  0  0  0
  4  5  1  0  0  0  0
  5  6  1  0  0  0  0
  5 22  1  0  0  0  0
  5 23  1  0  0  0  0
  6  7  1  0  0  0  0
  6 24  1  0  0  0  0
  6 25  1  0  0  0  0
  7  8  1  0  0  0  0
  7 26  1  0  0  0  0
  7 27  1  0  0  0  0
  8  9  1  0  0  0  0
  8 28  1  0  0  0  0
  8 29  1  0  0  0  0
  9 21  1  0  0  0  0
  9 10  1  0  0  0  0
 10 30  1  0  0  0  0
 11 12  1  0  0  0  0
 11 13  1  0  0  0  0
 11 14  1  0  0  0  0
 14 19  1  0  0  0  0
 14 15  2  0  0  0  0
 15 16  1  0  0  0  0
 15 31  1  0  0  0  0
 16 17  2  0  0  0  0
 16 32  1  0  0  0  0
 17 18  1  0  0  0  0
 17 33  1  0  0  0  0
 18 19  2  0  0  0  0
 18 34  1  0  0  0  0
M  CHG  1   3  -1
M  END
> <s_m_source_file>
AV-unprocessed.smi

> <i_m_source_file_index>
2768

> <i_lp_mmshare_version>
43012

> <i_f3d_flags>
0

> <s_epik_input>
bjFbY0hdW2NIXVtjSF1bY0hdYzFDKEYpKEYpQyg9TylbTkhdW0NAQEhdMltDSDJdW0NIMl1bQ0gyXVtDSDJdW0NASF0yW09IXQ==

> <s_epik_cmdline>
J2VwaWtfcHl0aG9uJywgJy1waCcsICc3LjAnLCAnLXRuJywgJzgnLCAnLW1hJywgJzIwMCcsICctbWV0YWxfYmluZGluZycsICctaW1hZScsICc8aW5maWxlLm1hZT4nLCAnLW9tYWUnLCAnPG91dGZpbGUubWFlPic=

> <r_lp_tautomer_probability>
1

> <r_epik_Ionization_Penalty>
5.70553

> <r_epik_Ionization_Penalty_Charging>
5.70553

> <r_epik_Ionization_Penalty_Neutral>
5.5493e-06

> <r_epik_State_Penalty>
5.70549

> <r_epik_Charging_Adjusted_Penalty>
11.411

> <i_epik_Tot_Q>
-1

> <i_epik_Tot_abs_Q>
1

> <r_epik_Metal_State_Penalty>
1.6859

> <b_epik_Metal_Only>
1

> <s_lp_Force_Field>
OPLS_2005

> <r_lp_Energy>
26.6713

> <b_lp_Chiralities_Consistent>
1

> <s_lp_Variant>
AV-unprocessed.smi:2768-5

> <Gold.Version>
5.8.1

> <Gold.Id.Protein>
6NUR|6NUR_protein|mol2

> <Gold.PLP.Fitness>
39.9363

> <Gold.PLP.PLP>
-34.6825

> <Gold.PLP.part.hbond>
-3.9903

> <Gold.PLP.part.metal>
0.0000

> <Gold.PLP.part.buried>
-0.2193

> <Gold.PLP.part.nonpolar>
-30.3365

> <Gold.PLP.part.repulsive>
0.1424

> <Gold.PLP.ligand.clash>
0.0216

> <Gold.PLP.ligand.torsion>
1.0982

> <Gold.PLP.Chemscore.Hbond>
2.4798

> <Gold.PLP.Chemscore.CHOScore>
0.0000

> <Gold.PLP.Chemscore.Metal>
0.0000

> <Gold.Chemscore.Hbonds>
donor molecule, donor type, donor heavy atom, donor atom, acceptor molecule, acceptor atom, score
      P1  H  7989  7998       L1     3  0.88
      P1  H  7997  8008       L1    19  0.86
      P1  H  8022  8030       L1    10  0.68

> <Gold.PLP.Chemscore.Internal.Correction>
0.0325

> <Gold.Rescore>
     Score         DG    S(hbond)    S(metal)    S(lipo)     H(rot)  DE(clash)    DE(int)     intcor
     13.38     -16.71       1.66        0.00      91.24       1.95       0.95       2.38       ----

> <Gold.Chemscore.Fitness>
13.3792

> <Gold.Chemscore.DG>
-16.7061

> <Gold.Chemscore.ZeroCoef>
-5.4800

> <Gold.Chemscore.Hbond>
1.6599

> <Gold.Chemscore.Metal>
0.0000

> <Gold.Chemscore.Lipo>
91.2385

> <Gold.Chemscore.Internal_Hbond>
0.0000

> <Gold.Chemscore.DEClash>
0.9513

> <Gold.Chemscore.DEInternal>
2.3757

> <Gold.Chemscore.Rot>
1.9503

> <Gold.Chemscore.Internal.Correction>
   9.000000E+99

> <Gold.Chemscore.Hbonds>
donor molecule, donor type, donor heavy atom, donor atom, acceptor molecule, acceptor atom, score
      P1  H  7989  7998       L1     3  0.75
      P1  H  7997  8008       L1    19  0.69
      P1  H  8022  8030       L1    10  0.68

> <Gold.Chemscore.Hbond.Weighted>
-5.5440

> <Gold.Chemscore.Metal.Weighted>
-0.0000

> <Gold.Chemscore.Lipo.Weighted>
-10.6749

> <Gold.Chemscore.Internal_Hbond.Weighted>
0.0000

> <Gold.Chemscore.DEClash.Weighted>
0.9513

> <Gold.Chemscore.DEInternal.Weighted>
2.3757

> <Gold.Chemscore.Rot.Weighted>
4.9928

> <Gold.Chemscore.Internal.Correction.Weighted>
   9.000000E+99

> <Gold.Protein.RotatedTorsions>
[ 6907 6896 6895 6894 ] final -113.59 input  -60.11 | X-H torsion
[ 7974 7965 7964 7962 ] final    6.18 input  175.53 | X-H torsion
[ 8008 7997 7996 7995 ] final  -96.15 input   59.86 | X-H torsion
[ 10167 10162 10161 10158 ] final    2.76 input  -65.29 | X-H torsion
[ 10718 10713 10712 10709 ] final -165.35 input   66.30 | X-H torsion
[ 10763 10752 10751 10750 ] final  153.05 input  -60.55 | X-H torsion
[ 11005 11000 10999 10996 ] final   77.16 input  -57.11 | X-H torsion

> <Gold.Protein.ActiveResidues>
 VAL166  LYS551  ARG553  GLY616  TRP617  ASP618  TYR619  PRO620  LYS621  CYS622 
 ASP623  PHE694  ASN695  SER759  ASP760  ASP761  ALA762  ILE779  LEU786  VAL792 
 PHE793  MET794  SER795  GLU796  ALA797  LYS798  CYS799  TRP800  GLU811  SER814 

> <Gold.Protein.RotatedAtoms>
  150.7840  133.8923  159.3316 H   0  0  0  0  0  0  0  0  0  0  0  0  # atno 6907 bound_to 6896
  151.6779  135.0964  160.0220 H   0  0  0  0  0  0  0  0  0  0  0  0  # atno 6908 bound_to 6896
  152.3899  133.6625  159.6264 H   0  0  0  0  0  0  0  0  0  0  0  0  # atno 6909 bound_to 6896
  146.2436  140.0272  142.8393 H   0  0  0  0  0  0  0  0  0  0  0  0  # atno 7974 bound_to 7965
  154.7707  140.0474  157.1049 H   0  0  0  0  0  0  0  0  0  0  0  0  # atno 8008 bound_to 7997
  154.9824  140.3103  155.4921 H   0  0  0  0  0  0  0  0  0  0  0  0  # atno 8009 bound_to 7997
  156.2920  140.2233  156.4924 H   0  0  0  0  0  0  0  0  0  0  0  0  # atno 8010 bound_to 7997
  140.6619  143.7280  150.7755 H   0  0  0  0  0  0  0  0  0  0  0  0  # atno 10167 bound_to 10162
  156.6522  130.9012  151.3015 H   0  0  0  0  0  0  0  0  0  0  0  0  # atno 10718 bound_to 10713
  154.1299  135.2827  155.3188 H   0  0  0  0  0  0  0  0  0  0  0  0  # atno 10763 bound_to 10752
  154.6363  135.5418  153.7741 H   0  0  0  0  0  0  0  0  0  0  0  0  # atno 10764 bound_to 10752
  153.0285  135.6475  154.1450 H   0  0  0  0  0  0  0  0  0  0  0  0  # atno 10765 bound_to 10752
  139.9266  134.7660  156.1487 H   0  0  0  0  0  0  0  0  0  0  0  0  # atno 11005 bound_to 11000
  145.1187  140.9449  143.4613 LP  0  0  0  0  0  0  0  0  0  0  0  0  # atno 17320 bound_to 7965
  145.0502  139.3187  143.5932 LP  0  0  0  0  0  0  0  0  0  0  0  0  # atno 17321 bound_to 7965
  140.0951  143.4841  152.2457 LP  0  0  0  0  0  0  0  0  0  0  0  0  # atno 17342 bound_to 10162
  139.5856  144.7529  151.3529 LP  0  0  0  0  0  0  0  0  0  0  0  0  # atno 17343 bound_to 10162
  157.7137  130.9471  150.1179 LP  0  0  0  0  0  0  0  0  0  0  0  0  # atno 17370 bound_to 10713
  156.2076  130.3664  149.8710 LP  0  0  0  0  0  0  0  0  0  0  0  0  # atno 17371 bound_to 10713
  141.0828  133.6747  156.2373 LP  0  0  0  0  0  0  0  0  0  0  0  0  # atno 17394 bound_to 11000
  140.6318  134.5256  157.5560 LP  0  0  0  0  0  0  0  0  0  0  0  0  # atno 17395 bound_to 11000

$$$$
