AV-unprocessed.smi:837|AV-procd|sdf|3897|dock8
  -GOLD-   22720 1353D 1   1.00000     0.00000
 Structure written by MMmdl.
 50 52  0  0  0  0  0  0  0  0  2 V2000
  147.7015  135.6907  162.1347 C   0  0  0  0  0  0  0  0  0  0  0  0
  146.6570  134.5558  162.1849 C   0  0  1  0  0  0  0  0  0  0  0  0
  145.3135  135.0741  162.7426 C   0  0  0  0  0  0  0  0  0  0  0  0
  144.2865  133.9413  162.8933 C   0  0  0  0  0  0  0  0  0  0  0  0
  144.0632  133.2043  161.5654 C   0  0  0  0  0  0  0  0  0  0  0  0
  145.3907  132.6780  160.9910 C   0  0  0  0  0  0  0  0  0  0  0  0
  146.4689  133.7814  160.8417 C   0  0  2  0  0  0  0  0  0  0  0  0
  147.7175  133.1841  160.4006 N   0  0  0  0  0  0  0  0  0  0  0  0
  148.1082  133.6074  159.1926 C   0  0  0  0  0  0  0  0  0  0  0  0
  149.1204  133.2317  158.6024 O   0  0  0  0  0  0  0  0  0  0  0  0
  147.2083  134.5013  158.7468 N   0  0  0  0  0  0  0  0  0  0  0  0
  147.2880  135.1665  157.4402 C   0  0  0  0  0  0  0  0  0  0  0  0
  146.1432  134.7675  156.4995 C   0  0  0  0  0  0  0  0  0  0  0  0
  145.0348  134.4682  156.9455 O   0  0  0  0  0  0  0  0  0  0  0  0
  146.4310  134.7688  155.1895 N   0  0  0  0  0  0  0  0  0  0  0  0
  145.5060  134.3963  154.1226 C   0  0  0  0  0  0  0  0  0  0  0  0
  146.0727  134.6472  152.7095 C   0  0  0  0  0  0  0  0  0  0  0  0
  145.3277  133.9072  151.6113 C   0  0  0  0  0  0  0  0  0  0  0  0
  145.9627  132.8813  150.8759 C   0  0  0  0  0  0  0  0  0  0  0  0
  145.2501  132.2185  149.8554 C   0  0  0  0  0  0  0  0  0  0  0  0
  143.9162  132.5927  149.5958 C   0  0  0  0  0  0  0  0  0  0  0  0
  143.3404  133.5761  150.3218 N   0  3  0  0  0  0  0  0  0  0  0  0
  143.9896  134.2368  151.3057 C   0  0  0  0  0  0  0  0  0  0  0  0
  146.2111  134.6739  159.6255 C   0  0  0  0  0  0  0  0  0  0  0  0
  145.2384  135.4176  159.4965 O   0  0  0  0  0  0  0  0  0  0  0  0
  147.3951  136.4945  161.4649 H   0  0  0  0  0  0  0  0  0  0  0  0
  148.6740  135.3289  161.8010 H   0  0  0  0  0  0  0  0  0  0  0  0
  147.8441  136.1293  163.1224 H   0  0  0  0  0  0  0  0  0  0  0  0
  147.0362  133.8335  162.9098 H   0  0  0  0  0  0  0  0  0  0  0  0
  145.4735  135.5413  163.7149 H   0  0  0  0  0  0  0  0  0  0  0  0
  144.9084  135.8542  162.0977 H   0  0  0  0  0  0  0  0  0  0  0  0
  144.6327  133.2343  163.6483 H   0  0  0  0  0  0  0  0  0  0  0  0
  143.3412  134.3437  163.2581 H   0  0  0  0  0  0  0  0  0  0  0  0
  143.3737  132.3736  161.7174 H   0  0  0  0  0  0  0  0  0  0  0  0
  143.5794  133.8705  160.8512 H   0  0  0  0  0  0  0  0  0  0  0  0
  145.7695  131.8921  161.6461 H   0  0  0  0  0  0  0  0  0  0  0  0
  145.2007  132.1969  160.0301 H   0  0  0  0  0  0  0  0  0  0  0  0
  148.2213  132.5074  160.9553 H   0  0  0  0  0  0  0  0  0  0  0  0
  147.2750  136.2510  157.5600 H   0  0  0  0  0  0  0  0  0  0  0  0
  148.2456  134.9316  156.9712 H   0  0  0  0  0  0  0  0  0  0  0  0
  147.3627  135.0411  154.9108 H   0  0  0  0  0  0  0  0  0  0  0  0
  145.2068  133.3528  154.2334 H   0  0  0  0  0  0  0  0  0  0  0  0
  144.6025  134.9910  154.2591 H   0  0  0  0  0  0  0  0  0  0  0  0
  146.0548  135.7152  152.4892 H   0  0  0  0  0  0  0  0  0  0  0  0
  147.1235  134.3570  152.6804 H   0  0  0  0  0  0  0  0  0  0  0  0
  146.9877  132.6097  151.0837 H   0  0  0  0  0  0  0  0  0  0  0  0
  145.7229  131.4365  149.2792 H   0  0  0  0  0  0  0  0  0  0  0  0
  143.2976  132.1393  148.8350 H   0  0  0  0  0  0  0  0  0  0  0  0
  143.4236  135.0047  151.8128 H   0  0  0  0  0  0  0  0  0  0  0  0
  142.3736  133.8309  150.1181 H   0  0  0  0  0  0  0  0  0  0  0  0
  1  2  1  0  0  0  0
  1 26  1  0  0  0  0
  1 27  1  0  0  0  0
  1 28  1  0  0  0  0
  2  7  1  0  0  0  0
  2  3  1  0  0  0  0
  2 29  1  0  0  0  0
  3  4  1  0  0  0  0
  3 30  1  0  0  0  0
  3 31  1  0  0  0  0
  4  5  1  0  0  0  0
  4 32  1  0  0  0  0
  4 33  1  0  0  0  0
  5  6  1  0  0  0  0
  5 34  1  0  0  0  0
  5 35  1  0  0  0  0
  6  7  1  0  0  0  0
  6 36  1  0  0  0  0
  6 37  1  0  0  0  0
  7 24  1  0  0  0  0
  7  8  1  0  0  0  0
  8  9  1  0  0  0  0
  8 38  1  0  0  0  0
  9 10  2  0  0  0  0
  9 11  1  0  0  0  0
 11 12  1  0  0  0  0
 11 24  1  0  0  0  0
 12 13  1  0  0  0  0
 12 39  1  0  0  0  0
 12 40  1  0  0  0  0
 13 14  2  0  0  0  0
 13 15  1  0  0  0  0
 15 16  1  0  0  0  0
 15 41  1  0  0  0  0
 16 17  1  0  0  0  0
 16 42  1  0  0  0  0
 16 43  1  0  0  0  0
 17 18  1  0  0  0  0
 17 44  1  0  0  0  0
 17 45  1  0  0  0  0
 18 23  1  0  0  0  0
 18 19  2  0  0  0  0
 19 20  1  0  0  0  0
 19 46  1  0  0  0  0
 20 21  2  0  0  0  0
 20 47  1  0  0  0  0
 21 22  1  0  0  0  0
 21 48  1  0  0  0  0
 22 23  2  0  0  0  0
 22 50  1  0  0  0  0
 23 49  1  0  0  0  0
 24 25  2  0  0  0  0
M  CHG  1  22   1
M  END
> <s_m_source_file>
AV-unprocessed.smi

> <i_m_source_file_index>
837

> <i_lp_mmshare_version>
43012

> <i_f3d_flags>
0

> <s_epik_input>
W0NIMl0xW0NIMl1bQ0gyXVtDSDJdW0NAQEhdKFtDSDNdKVtDQEBdMTJbTkhdQyg9TylOKEMyPU8pW0NIMl1DKD1PKVtOSF1bQ0gyXVtDSDJdYzNbY0hdW2NIXVtjSF1uW2NIXTM=

> <s_epik_cmdline>
J2VwaWtfcHl0aG9uJywgJy1waCcsICc3LjAnLCAnLXRuJywgJzgnLCAnLW1hJywgJzIwMCcsICctbWV0YWxfYmluZGluZycsICctaW1hZScsICc8aW5maWxlLm1hZT4nLCAnLW9tYWUnLCAnPG91dGZpbGUubWFlPic=

> <r_lp_tautomer_probability>
1

> <r_epik_Ionization_Penalty>
2.28139

> <r_epik_Ionization_Penalty_Charging>
2.28135

> <r_epik_Ionization_Penalty_Neutral>
4.65525e-05

> <r_epik_State_Penalty>
2.43066

> <r_epik_Charging_Adjusted_Penalty>
4.71201

> <i_epik_Tot_Q>
1

> <i_epik_Tot_abs_Q>
1

> <r_epik_Metal_State_Penalty>
2.4646

> <b_epik_Metal_Only>
0

> <s_lp_Force_Field>
OPLS_2005

> <r_lp_Energy>
25.3405

> <b_lp_Chiralities_Consistent>
1

> <s_lp_Variant>
AV-unprocessed.smi:837-6

> <Gold.Version>
5.8.1

> <Gold.Id.Protein>
6NUR|6NUR_protein|mol2

> <Gold.PLP.Fitness>
44.4616

> <Gold.PLP.PLP>
-36.4867

> <Gold.PLP.part.hbond>
-2.0000

> <Gold.PLP.part.metal>
0.0000

> <Gold.PLP.part.buried>
-5.9737

> <Gold.PLP.part.nonpolar>
-28.6583

> <Gold.PLP.part.repulsive>
0.1340

> <Gold.PLP.ligand.clash>
0.0000

> <Gold.PLP.ligand.torsion>
0.5272

> <Gold.PLP.Chemscore.Hbond>
3.0000

> <Gold.PLP.Chemscore.CHOScore>
0.0000

> <Gold.PLP.Chemscore.Metal>
0.0000

> <Gold.Chemscore.Hbonds>
donor molecule, donor type, donor heavy atom, donor atom, acceptor molecule, acceptor atom, score
      L1  H    22    50       P1 10186  2.00
      P1  H  6896  6909       L1    10  1.00

> <Gold.PLP.Chemscore.Internal.Correction>
0.0293

> <Gold.Rescore>
     Score         DG    S(hbond)    S(metal)    S(lipo)     H(rot)  DE(clash)    DE(int)     intcor
     14.89     -18.22       1.96        0.00      96.09       1.96       0.00       3.33       ----

> <Gold.Chemscore.Fitness>
14.8914

> <Gold.Chemscore.DG>
-18.2246

> <Gold.Chemscore.ZeroCoef>
-5.4800

> <Gold.Chemscore.Hbond>
1.9551

> <Gold.Chemscore.Metal>
0.0000

> <Gold.Chemscore.Lipo>
96.0856

> <Gold.Chemscore.Internal_Hbond>
0.0000

> <Gold.Chemscore.DEClash>
0.0038

> <Gold.Chemscore.DEInternal>
3.3294

> <Gold.Chemscore.Rot>
1.9638

> <Gold.Chemscore.Internal.Correction>
   9.000000E+99

> <Gold.Chemscore.Hbonds>
donor molecule, donor type, donor heavy atom, donor atom, acceptor molecule, acceptor atom, score
      L1  H    22    50       P1 10186  0.98
      P1  H  6896  6909       L1    10  0.93

> <Gold.Chemscore.Hbond.Weighted>
-6.5300

> <Gold.Chemscore.Metal.Weighted>
-0.0000

> <Gold.Chemscore.Lipo.Weighted>
-11.2420

> <Gold.Chemscore.Internal_Hbond.Weighted>
0.0000

> <Gold.Chemscore.DEClash.Weighted>
0.0038

> <Gold.Chemscore.DEInternal.Weighted>
3.3294

> <Gold.Chemscore.Rot.Weighted>
5.0274

> <Gold.Chemscore.Internal.Correction.Weighted>
   9.000000E+99

> <Gold.Protein.RotatedTorsions>
[ 6907 6896 6895 6894 ] final  -10.83 input  -60.11 | X-H torsion
[ 7974 7965 7964 7962 ] final -144.09 input  175.53 | X-H torsion
[ 8008 7997 7996 7995 ] final  -89.94 input   59.86 | X-H torsion
[ 10167 10162 10161 10158 ] final  -93.32 input  -65.29 | X-H torsion
[ 10718 10713 10712 10709 ] final  152.53 input   66.30 | X-H torsion
[ 10763 10752 10751 10750 ] final   31.66 input  -60.55 | X-H torsion
[ 11005 11000 10999 10996 ] final   36.33 input  -57.11 | X-H torsion

> <Gold.Protein.ActiveResidues>
 VAL166  LYS551  ARG553  GLY616  TRP617  ASP618  TYR619  PRO620  LYS621  CYS622 
 ASP623  PHE694  ASN695  SER759  ASP760  ASP761  ALA762  ILE779  LEU786  VAL792 
 PHE793  MET794  SER795  GLU796  ALA797  LYS798  CYS799  TRP800  GLU811  SER814 

> <Gold.Protein.RotatedAtoms>
  151.3957  135.0963  159.9539 H   0  0  0  0  0  0  0  0  0  0  0  0  # atno 6907 bound_to 6896
  152.5066  133.8936  159.7417 H   0  0  0  0  0  0  0  0  0  0  0  0  # atno 6908 bound_to 6896
  150.9399  133.6612  159.2821 H   0  0  0  0  0  0  0  0  0  0  0  0  # atno 6909 bound_to 6896
  144.8322  140.5753  143.5507 H   0  0  0  0  0  0  0  0  0  0  0  0  # atno 7974 bound_to 7965
  154.6925  140.0536  157.0378 H   0  0  0  0  0  0  0  0  0  0  0  0  # atno 8008 bound_to 7997
  155.0796  140.3208  155.4586 H   0  0  0  0  0  0  0  0  0  0  0  0  # atno 8009 bound_to 7997
  156.2733  140.2067  156.5924 H   0  0  0  0  0  0  0  0  0  0  0  0  # atno 8010 bound_to 7997
  140.3259  143.3022  151.9996 H   0  0  0  0  0  0  0  0  0  0  0  0  # atno 10167 bound_to 10162
  157.2566  131.0790  151.1694 H   0  0  0  0  0  0  0  0  0  0  0  0  # atno 10718 bound_to 10713
  153.0304  135.6433  154.1234 H   0  0  0  0  0  0  0  0  0  0  0  0  # atno 10763 bound_to 10752
  154.0957  135.2863  155.3264 H   0  0  0  0  0  0  0  0  0  0  0  0  # atno 10764 bound_to 10752
  154.6434  135.5451  153.7879 H   0  0  0  0  0  0  0  0  0  0  0  0  # atno 10765 bound_to 10752
  140.2336  134.3498  155.7953 H   0  0  0  0  0  0  0  0  0  0  0  0  # atno 11005 bound_to 11000
  145.4870  139.1491  143.3730 LP  0  0  0  0  0  0  0  0  0  0  0  0  # atno 17320 bound_to 7965
  146.2624  140.5008  142.8848 LP  0  0  0  0  0  0  0  0  0  0  0  0  # atno 17321 bound_to 7965
  139.4865  144.6274  151.7137 LP  0  0  0  0  0  0  0  0  0  0  0  0  # atno 17342 bound_to 10162
  140.5442  144.0531  150.6100 LP  0  0  0  0  0  0  0  0  0  0  0  0  # atno 17343 bound_to 10162
  157.3220  130.6942  149.6275 LP  0  0  0  0  0  0  0  0  0  0  0  0  # atno 17370 bound_to 10713
  155.9665  130.4332  150.4998 LP  0  0  0  0  0  0  0  0  0  0  0  0  # atno 17371 bound_to 10713
  141.2216  133.7259  156.8772 LP  0  0  0  0  0  0  0  0  0  0  0  0  # atno 17394 bound_to 11000
  140.1725  134.9090  157.2850 LP  0  0  0  0  0  0  0  0  0  0  0  0  # atno 17395 bound_to 11000

$$$$
