AV-unprocessed.smi:2775|AV-procd|sdf|10692|dock3
  -GOLD-   2272015133D 1   1.00000     0.00000
 Structure written by MMmdl.
 42 45  0  0  0  0  0  0  0  0  1 V2000
  144.8077  131.8119  150.3500 C   0  0  0  0  0  0  0  0  0  0  0  0
  145.8072  131.7349  151.4888 C   0  0  0  0  0  0  0  0  0  0  0  0
  145.9656  130.5146  152.0468 N   0  0  0  0  0  0  0  0  0  0  0  0
  146.8376  130.3915  153.0687 C   0  0  0  0  0  0  0  0  0  0  0  0
  147.5922  131.4660  153.5769 C   0  0  0  0  0  0  0  0  0  0  0  0
  147.4408  132.7409  152.9826 C   0  0  0  0  0  0  0  0  0  0  0  0
  148.1397  133.8956  153.4255 N   0  0  0  0  0  0  0  0  0  0  0  0
  148.9710  134.0243  154.4771 C   0  0  0  0  0  0  0  0  0  0  0  0
  149.1994  133.1451  155.3052 O   0  0  0  0  0  0  0  0  0  0  0  0
  149.5963  135.2132  154.5286 N   0  0  0  0  0  0  0  0  0  0  0  0
  150.5587  135.6699  155.5376 C   0  0  2  0  0  0  0  0  0  0  0  0
  149.9669  135.8093  156.9657 C   0  0  2  0  0  0  0  0  0  0  0  0
  148.6093  135.2806  157.3659 C   0  0  0  0  0  0  0  0  0  0  0  0
  147.7244  136.5280  157.2992 C   0  0  0  0  0  0  0  0  0  0  0  0
  148.4192  137.4185  156.4295 O   0  0  0  0  0  0  0  0  0  0  0  0
  149.8098  137.3043  156.7159 C   0  0  2  0  0  0  0  0  0  0  0  0
  150.7334  137.1977  155.4953 C   0  0  0  0  0  0  0  0  0  0  0  0
  150.4968  138.0469  154.2352 C   0  0  0  0  0  0  0  0  0  0  0  0
  151.6086  138.9819  154.7188 C   0  0  0  0  0  0  0  0  0  0  0  0
  152.1346  137.8233  155.5715 C   0  0  0  0  0  0  0  0  0  0  0  0
  146.5157  132.8802  151.9220 C   0  0  0  0  0  0  0  0  0  0  0  0
  146.2656  134.4179  151.1632 Cl  0  0  0  0  0  0  0  0  0  0  0  0
  145.2901  132.1838  149.4457 H   0  0  0  0  0  0  0  0  0  0  0  0
  143.9904  132.4858  150.6084 H   0  0  0  0  0  0  0  0  0  0  0  0
  144.3802  130.8338  150.1243 H   0  0  0  0  0  0  0  0  0  0  0  0
  146.9328  129.4061  153.4998 H   0  0  0  0  0  0  0  0  0  0  0  0
  148.2569  131.2970  154.4101 H   0  0  0  0  0  0  0  0  0  0  0  0
  148.1134  134.6816  152.7923 H   0  0  0  0  0  0  0  0  0  0  0  0
  149.4428  135.8411  153.7526 H   0  0  0  0  0  0  0  0  0  0  0  0
  151.5148  135.1443  155.5161 H   0  0  0  0  0  0  0  0  0  0  0  0
  150.7394  135.6251  157.7138 H   0  0  0  0  0  0  0  0  0  0  0  0
  148.2457  134.5078  156.6913 H   0  0  0  0  0  0  0  0  0  0  0  0
  148.6128  134.8545  158.3695 H   0  0  0  0  0  0  0  0  0  0  0  0
  146.7197  136.3130  156.9349 H   0  0  0  0  0  0  0  0  0  0  0  0
  147.6393  136.9895  158.2841 H   0  0  0  0  0  0  0  0  0  0  0  0
  150.1530  137.9361  157.5365 H   0  0  0  0  0  0  0  0  0  0  0  0
  150.7631  137.5250  153.3146 H   0  0  0  0  0  0  0  0  0  0  0  0
  149.5105  138.5063  154.1666 H   0  0  0  0  0  0  0  0  0  0  0  0
  152.2905  139.3235  153.9396 H   0  0  0  0  0  0  0  0  0  0  0  0
  151.2300  139.8104  155.3197 H   0  0  0  0  0  0  0  0  0  0  0  0
  152.4606  138.1055  156.5731 H   0  0  0  0  0  0  0  0  0  0  0  0
  152.8917  137.2319  155.0541 H   0  0  0  0  0  0  0  0  0  0  0  0
  1  2  1  0  0  0  0
  1 23  1  0  0  0  0
  1 24  1  0  0  0  0
  1 25  1  0  0  0  0
  2 21  1  0  0  0  0
  2  3  2  0  0  0  0
  3  4  1  0  0  0  0
  4  5  2  0  0  0  0
  4 26  1  0  0  0  0
  5  6  1  0  0  0  0
  5 27  1  0  0  0  0
  6  7  1  0  0  0  0
  6 21  2  0  0  0  0
  7  8  1  0  0  0  0
  7 28  1  0  0  0  0
  8  9  2  0  0  0  0
  8 10  1  0  0  0  0
 10 11  1  0  0  0  0
 10 29  1  0  0  0  0
 11 17  1  0  0  0  0
 11 12  1  0  0  0  0
 11 30  1  0  0  0  0
 12 16  1  0  0  0  0
 12 13  1  0  0  0  0
 12 31  1  0  0  0  0
 13 14  1  0  0  0  0
 13 32  1  0  0  0  0
 13 33  1  0  0  0  0
 14 15  1  0  0  0  0
 14 34  1  0  0  0  0
 14 35  1  0  0  0  0
 15 16  1  0  0  0  0
 16 17  1  0  0  0  0
 16 36  1  0  0  0  0
 17 20  1  0  0  0  0
 17 18  1  0  0  0  0
 18 19  1  0  0  0  0
 18 37  1  0  0  0  0
 18 38  1  0  0  0  0
 19 20  1  0  0  0  0
 19 39  1  0  0  0  0
 19 40  1  0  0  0  0
 20 41  1  0  0  0  0
 20 42  1  0  0  0  0
 21 22  1  0  0  0  0
M  END
> <s_m_source_file>
AV-unprocessed.smi

> <i_m_source_file_index>
2775

> <i_lp_mmshare_version>
43012

> <i_f3d_flags>
0

> <s_epik_input>
W0NIM11jMW5bY0hdW2NIXWMoYzFDbClbTkhdQyg9TylbTkhdW0NAQEhdMltDQEhdKFtDSDJdW0NIMl1PMylbQ0BASF0zQzI0W0NIMl1bQ0gyXVtDSDJdNA==

> <s_epik_cmdline>
J2VwaWtfcHl0aG9uJywgJy1waCcsICc3LjAnLCAnLXRuJywgJzgnLCAnLW1hJywgJzIwMCcsICctbWV0YWxfYmluZGluZycsICctaW1hZScsICc8aW5maWxlLm1hZT4nLCAnLW9tYWUnLCAnPG91dGZpbGUubWFlPic=

> <r_epik_Ionization_Penalty>
0.01026

> <r_epik_Ionization_Penalty_Charging>
0

> <r_epik_Ionization_Penalty_Neutral>
0.01026

> <r_epik_State_Penalty>
0.00780685

> <r_epik_Charging_Adjusted_Penalty>
0.00780685

> <i_epik_Tot_Q>
0

> <i_epik_Tot_abs_Q>
0

> <r_epik_Metal_State_Penalty>
0.00767411

> <b_epik_Metal_Only>
0

> <s_lp_Force_Field>
OPLS_2005

> <r_lp_Energy>
58.5604

> <b_lp_Chiralities_Consistent>
1

> <s_lp_Variant>
AV-unprocessed.smi:2775-5

> <Gold.Version>
5.8.1

> <Gold.Id.Protein>
6NUR|6NUR_protein|mol2

> <Gold.PLP.Fitness>
39.4340

> <Gold.PLP.PLP>
-33.5022

> <Gold.PLP.part.hbond>
-2.0000

> <Gold.PLP.part.metal>
0.0000

> <Gold.PLP.part.buried>
-4.3738

> <Gold.PLP.part.nonpolar>
-27.4914

> <Gold.PLP.part.repulsive>
0.2308

> <Gold.PLP.ligand.clash>
0.0000

> <Gold.PLP.ligand.torsion>
0.1269

> <Gold.PLP.Chemscore.Hbond>
1.9920

> <Gold.PLP.Chemscore.CHOScore>
0.0000

> <Gold.PLP.Chemscore.Metal>
0.0000

> <Gold.Chemscore.Hbonds>
donor molecule, donor type, donor heavy atom, donor atom, acceptor molecule, acceptor atom, score
      L1  H     7    28       P1  7948  1.00
      L1  H    10    29       P1  7948  1.00

> <Gold.PLP.Chemscore.Internal.Correction>
0.2097

> <Gold.Rescore>
     Score         DG    S(hbond)    S(metal)    S(lipo)     H(rot)  DE(clash)    DE(int)     intcor
     15.39     -18.04       1.43        0.00      88.47       1.00       0.05       2.60       ----

> <Gold.Chemscore.Fitness>
15.3917

> <Gold.Chemscore.DG>
-18.0393

> <Gold.Chemscore.ZeroCoef>
-5.4800

> <Gold.Chemscore.Hbond>
1.4275

> <Gold.Chemscore.Metal>
0.0000

> <Gold.Chemscore.Lipo>
88.4740

> <Gold.Chemscore.Internal_Hbond>
0.0000

> <Gold.Chemscore.DEClash>
0.0524

> <Gold.Chemscore.DEInternal>
2.5953

> <Gold.Chemscore.Rot>
1.0000

> <Gold.Chemscore.Internal.Correction>
   9.000000E+99

> <Gold.Chemscore.Hbonds>
donor molecule, donor type, donor heavy atom, donor atom, acceptor molecule, acceptor atom, score
      L1  H     7    28       P1  7948  0.62
      L1  H    10    29       P1  7948  0.47

> <Gold.Chemscore.Hbond.Weighted>
-4.7679

> <Gold.Chemscore.Metal.Weighted>
-0.0000

> <Gold.Chemscore.Lipo.Weighted>
-10.3515

> <Gold.Chemscore.Internal_Hbond.Weighted>
0.0000

> <Gold.Chemscore.DEClash.Weighted>
0.0524

> <Gold.Chemscore.DEInternal.Weighted>
2.5953

> <Gold.Chemscore.Rot.Weighted>
2.5600

> <Gold.Chemscore.Internal.Correction.Weighted>
   9.000000E+99

> <Gold.Protein.RotatedTorsions>
[ 6907 6896 6895 6894 ] final -150.86 input  -60.11 | X-H torsion
[ 7974 7965 7964 7962 ] final   61.32 input  175.53 | X-H torsion
[ 8008 7997 7996 7995 ] final -109.47 input   59.86 | X-H torsion
[ 10167 10162 10161 10158 ] final  103.88 input  -65.29 | X-H torsion
[ 10718 10713 10712 10709 ] final  116.95 input   66.30 | X-H torsion
[ 10763 10752 10751 10750 ] final  138.90 input  -60.55 | X-H torsion
[ 11005 11000 10999 10996 ] final -147.36 input  -57.11 | X-H torsion

> <Gold.Protein.ActiveResidues>
 VAL166  LYS551  ARG553  GLY616  TRP617  ASP618  TYR619  PRO620  LYS621  CYS622 
 ASP623  PHE694  ASN695  SER759  ASP760  ASP761  ALA762  ILE779  LEU786  VAL792 
 PHE793  MET794  SER795  GLU796  ALA797  LYS798  CYS799  TRP800  GLU811  SER814 

> <Gold.Protein.RotatedAtoms>
  151.2047  133.4590  159.2596 H   0  0  0  0  0  0  0  0  0  0  0  0  # atno 6907 bound_to 6896
  151.1035  134.9986  159.8470 H   0  0  0  0  0  0  0  0  0  0  0  0  # atno 6908 bound_to 6896
  152.5445  134.1972  159.8750 H   0  0  0  0  0  0  0  0  0  0  0  0  # atno 6909 bound_to 6896
  145.8861  139.3477  143.0677 H   0  0  0  0  0  0  0  0  0  0  0  0  # atno 7974 bound_to 7965
  154.9599  140.0399  157.2185 H   0  0  0  0  0  0  0  0  0  0  0  0  # atno 8008 bound_to 7997
  154.7899  140.2833  155.5977 H   0  0  0  0  0  0  0  0  0  0  0  0  # atno 8009 bound_to 7997
  156.2948  140.2575  156.2744 H   0  0  0  0  0  0  0  0  0  0  0  0  # atno 8010 bound_to 7997
  139.7225  144.7055  151.0850 H   0  0  0  0  0  0  0  0  0  0  0  0  # atno 10167 bound_to 10162
  157.6128  131.1031  150.7545 H   0  0  0  0  0  0  0  0  0  0  0  0  # atno 10718 bound_to 10713
  153.8972  135.3026  155.3448 H   0  0  0  0  0  0  0  0  0  0  0  0  # atno 10763 bound_to 10752
  154.7688  135.4897  153.9610 H   0  0  0  0  0  0  0  0  0  0  0  0  # atno 10764 bound_to 10752
  153.1265  135.6794  153.9348 H   0  0  0  0  0  0  0  0  0  0  0  0  # atno 10765 bound_to 10752
  140.7724  134.3173  157.5071 H   0  0  0  0  0  0  0  0  0  0  0  0  # atno 11005 bound_to 11000
  145.8965  140.9270  143.0525 LP  0  0  0  0  0  0  0  0  0  0  0  0  # atno 17320 bound_to 7965
  144.6728  140.0975  143.7462 LP  0  0  0  0  0  0  0  0  0  0  0  0  # atno 17321 bound_to 7965
  140.7756  143.5148  150.9608 LP  0  0  0  0  0  0  0  0  0  0  0  0  # atno 17342 bound_to 10162
  139.8835  143.7042  152.3154 LP  0  0  0  0  0  0  0  0  0  0  0  0  # atno 17343 bound_to 10162
  156.7919  130.4893  149.5383 LP  0  0  0  0  0  0  0  0  0  0  0  0  # atno 17370 bound_to 10713
  156.1237  130.6129  151.0232 LP  0  0  0  0  0  0  0  0  0  0  0  0  # atno 17371 bound_to 10713
  139.8754  134.9269  156.3411 LP  0  0  0  0  0  0  0  0  0  0  0  0  # atno 17394 bound_to 11000
  140.9561  133.7419  156.0337 LP  0  0  0  0  0  0  0  0  0  0  0  0  # atno 17395 bound_to 11000

$$$$
