AV-unprocessed.smi:2140|AV-procd|sdf|8716|dock2
  -GOLD-   2272011483D 1   1.00000     0.00000
 Structure written by MMmdl.
 40 41  0  0  0  0  0  0  0  0  2 V2000
  146.5982  142.5459  153.6862 C   0  0  0  0  0  0  0  0  0  0  0  0
  147.0213  141.1957  154.3149 C   0  0  2  0  0  0  0  0  0  0  0  0
  148.5656  141.0437  154.2579 C   0  0  0  0  0  0  0  0  0  0  0  0
  149.2663  141.9910  155.1205 N   0  0  0  0  0  0  0  0  0  0  0  0
  150.1195  141.6493  156.0965 C   0  0  0  0  0  0  0  0  0  0  0  0
  150.4060  140.4824  156.3626 O   0  0  0  0  0  0  0  0  0  0  0  0
  150.5859  142.7354  156.7363 N   0  0  0  0  0  0  0  0  0  0  0  0
  151.4817  142.8068  157.8380 C   0  0  0  0  0  0  0  0  0  0  0  0
  151.9711  144.0113  158.4005 C   0  0  0  0  0  0  0  0  0  0  0  0
  152.8457  143.9410  159.5021 C   0  0  0  0  0  0  0  0  0  0  0  0
  153.1933  142.6729  160.0063 C   0  0  0  0  0  0  0  0  0  0  0  0
  152.7259  141.5178  159.4883 N   0  0  0  0  0  0  0  0  0  0  0  0
  151.8882  141.5929  158.4323 C   0  0  0  0  0  0  0  0  0  0  0  0
  146.3538  140.0094  153.6847 N   0  3  0  0  0  0  0  0  0  0  0  0
  147.0845  139.5145  152.4854 C   0  0  0  0  0  0  0  0  0  0  0  0
  146.3285  138.3569  151.8140 C   0  0  0  0  0  0  0  0  0  0  0  0
  146.1533  137.3031  152.7489 O   0  0  0  0  0  0  0  0  0  0  0  0
  145.3727  137.7181  153.8598 C   0  0  0  0  0  0  0  0  0  0  0  0
  146.0791  138.8672  154.6003 C   0  0  0  0  0  0  0  0  0  0  0  0
  147.1238  143.3858  154.1398 H   0  0  0  0  0  0  0  0  0  0  0  0
  145.5380  142.7517  153.8335 H   0  0  0  0  0  0  0  0  0  0  0  0
  146.8072  142.5709  152.6163 H   0  0  0  0  0  0  0  0  0  0  0  0
  146.7072  141.2254  155.3594 H   0  0  0  0  0  0  0  0  0  0  0  0
  148.8916  140.0416  154.5324 H   0  0  0  0  0  0  0  0  0  0  0  0
  148.9126  141.2028  153.2365 H   0  0  0  0  0  0  0  0  0  0  0  0
  149.0828  142.9722  154.9677 H   0  0  0  0  0  0  0  0  0  0  0  0
  150.2083  143.6216  156.4344 H   0  0  0  0  0  0  0  0  0  0  0  0
  151.6892  144.9818  158.0243 H   0  0  0  0  0  0  0  0  0  0  0  0
  153.2379  144.8403  159.9535 H   0  0  0  0  0  0  0  0  0  0  0  0
  153.8603  142.5844  160.8509 H   0  0  0  0  0  0  0  0  0  0  0  0
  151.5328  140.6487  158.0461 H   0  0  0  0  0  0  0  0  0  0  0  0
  147.2235  140.3048  151.7507 H   0  0  0  0  0  0  0  0  0  0  0  0
  148.0811  139.1801  152.7783 H   0  0  0  0  0  0  0  0  0  0  0  0
  145.3629  138.6897  151.4297 H   0  0  0  0  0  0  0  0  0  0  0  0
  146.8972  137.9809  150.9632 H   0  0  0  0  0  0  0  0  0  0  0  0
  144.3785  138.0217  153.5282 H   0  0  0  0  0  0  0  0  0  0  0  0
  145.2371  136.8687  154.5295 H   0  0  0  0  0  0  0  0  0  0  0  0
  147.0152  138.5131  155.0353 H   0  0  0  0  0  0  0  0  0  0  0  0
  145.4300  139.1721  155.4206 H   0  0  0  0  0  0  0  0  0  0  0  0
  145.4499  140.3293  153.3674 H   0  0  0  0  0  0  0  0  0  0  0  0
  1  2  1  0  0  0  0
  1 20  1  0  0  0  0
  1 21  1  0  0  0  0
  1 22  1  0  0  0  0
  2  3  1  0  0  0  0
  2 14  1  0  0  0  0
  2 23  1  0  0  0  0
  3  4  1  0  0  0  0
  3 24  1  0  0  0  0
  3 25  1  0  0  0  0
  4  5  1  0  0  0  0
  4 26  1  0  0  0  0
  5  6  2  0  0  0  0
  5  7  1  0  0  0  0
  7  8  1  0  0  0  0
  7 27  1  0  0  0  0
  8 13  1  0  0  0  0
  8  9  2  0  0  0  0
  9 10  1  0  0  0  0
  9 28  1  0  0  0  0
 10 11  2  0  0  0  0
 10 29  1  0  0  0  0
 11 12  1  0  0  0  0
 11 30  1  0  0  0  0
 12 13  2  0  0  0  0
 13 31  1  0  0  0  0
 14 19  1  0  0  0  0
 14 15  1  0  0  0  0
 14 40  1  0  0  0  0
 15 16  1  0  0  0  0
 15 32  1  0  0  0  0
 15 33  1  0  0  0  0
 16 17  1  0  0  0  0
 16 34  1  0  0  0  0
 16 35  1  0  0  0  0
 17 18  1  0  0  0  0
 18 19  1  0  0  0  0
 18 36  1  0  0  0  0
 18 37  1  0  0  0  0
 19 38  1  0  0  0  0
 19 39  1  0  0  0  0
M  CHG  1  14   1
M  END
> <s_m_source_file>
AV-unprocessed.smi

> <i_m_source_file_index>
2140

> <i_lp_mmshare_version>
43012

> <i_f3d_flags>
0

> <s_epik_input>
W0NIMl0xW0NIMl1PW0NIMl1bQ0gyXU4xW0NASF0oW0NIM10pW0NIMl1bTkhdQyg9TylbTkhdYzJbY0hdW2NIXVtjSF1uW2NIXTI=

> <s_epik_cmdline>
J2VwaWtfcHl0aG9uJywgJy1waCcsICc3LjAnLCAnLXRuJywgJzgnLCAnLW1hJywgJzIwMCcsICctbWV0YWxfYmluZGluZycsICctaW1hZScsICc8aW5maWxlLm1hZT4nLCAnLW9tYWUnLCAnPG91dGZpbGUubWFlPic=

> <r_epik_Ionization_Penalty>
0.60672

> <r_epik_Ionization_Penalty_Charging>
0.602531

> <r_epik_Ionization_Penalty_Neutral>
0.00418997

> <r_epik_State_Penalty>
0.607459

> <r_epik_Charging_Adjusted_Penalty>
1.20999

> <i_epik_Tot_Q>
1

> <i_epik_Tot_abs_Q>
1

> <r_epik_Metal_State_Penalty>
0.604586

> <b_epik_Metal_Only>
0

> <s_lp_Force_Field>
OPLS_2005

> <r_lp_Energy>
23.5262

> <b_lp_Chiralities_Consistent>
1

> <s_lp_Variant>
AV-unprocessed.smi:2140-3

> <Gold.Version>
5.8.1

> <Gold.Id.Protein>
6NUR|6NUR_protein|mol2

> <Gold.PLP.Fitness>
48.6065

> <Gold.PLP.PLP>
-37.9795

> <Gold.PLP.part.hbond>
-3.0000

> <Gold.PLP.part.metal>
0.0000

> <Gold.PLP.part.buried>
-3.9243

> <Gold.PLP.part.nonpolar>
-32.3151

> <Gold.PLP.part.repulsive>
0.8517

> <Gold.PLP.ligand.clash>
0.0000

> <Gold.PLP.ligand.torsion>
0.7185

> <Gold.PLP.Chemscore.Hbond>
4.0000

> <Gold.PLP.Chemscore.CHOScore>
0.0000

> <Gold.PLP.Chemscore.Metal>
0.0000

> <Gold.Chemscore.Hbonds>
donor molecule, donor type, donor heavy atom, donor atom, acceptor molecule, acceptor atom, score
      L1  H     4    26       P1  8028  1.00
      L1  H     7    27       P1  8028  1.00
      L1  H    14    40       P1 10175  2.00

> <Gold.PLP.Chemscore.Internal.Correction>
0.0641

> <Gold.Rescore>
     Score         DG    S(hbond)    S(metal)    S(lipo)     H(rot)  DE(clash)    DE(int)     intcor
     20.71     -22.89       2.94        0.00      98.09       1.52       0.04       2.15       ----

> <Gold.Chemscore.Fitness>
20.7064

> <Gold.Chemscore.DG>
-22.8940

> <Gold.Chemscore.ZeroCoef>
-5.4800

> <Gold.Chemscore.Hbond>
2.9412

> <Gold.Chemscore.Metal>
0.0000

> <Gold.Chemscore.Lipo>
98.0882

> <Gold.Chemscore.Internal_Hbond>
0.0000

> <Gold.Chemscore.DEClash>
0.0365

> <Gold.Chemscore.DEInternal>
2.1512

> <Gold.Chemscore.Rot>
1.5179

> <Gold.Chemscore.Internal.Correction>
   9.000000E+99

> <Gold.Chemscore.Hbonds>
donor molecule, donor type, donor heavy atom, donor atom, acceptor molecule, acceptor atom, score
      L1  H     4    26       P1  8028  0.95
      L1  H     7    27       P1  8028  0.98
      L1  H    14    40       P1 10175  0.97

> <Gold.Chemscore.Hbond.Weighted>
-9.8236

> <Gold.Chemscore.Metal.Weighted>
-0.0000

> <Gold.Chemscore.Lipo.Weighted>
-11.4763

> <Gold.Chemscore.Internal_Hbond.Weighted>
0.0000

> <Gold.Chemscore.DEClash.Weighted>
0.0365

> <Gold.Chemscore.DEInternal.Weighted>
2.1512

> <Gold.Chemscore.Rot.Weighted>
3.8859

> <Gold.Chemscore.Internal.Correction.Weighted>
   9.000000E+99

> <Gold.Protein.RotatedTorsions>
[ 6907 6896 6895 6894 ] final -166.68 input  -60.11 | X-H torsion
[ 7974 7965 7964 7962 ] final -130.37 input  175.53 | X-H torsion
[ 8008 7997 7996 7995 ] final    9.51 input   59.86 | X-H torsion
[ 10167 10162 10161 10158 ] final   69.40 input  -65.29 | X-H torsion
[ 10718 10713 10712 10709 ] final   97.68 input   66.30 | X-H torsion
[ 10763 10752 10751 10750 ] final  112.18 input  -60.55 | X-H torsion
[ 11005 11000 10999 10996 ] final   53.02 input  -57.11 | X-H torsion

> <Gold.Protein.ActiveResidues>
 VAL166  LYS551  ARG553  GLY616  TRP617  ASP618  TYR619  PRO620  LYS621  CYS622 
 ASP623  PHE694  ASN695  SER759  ASP760  ASP761  ALA762  ILE779  LEU786  VAL792 
 PHE793  MET794  SER795  GLU796  ALA797  LYS798  CYS799  TRP800  GLU811  SER814 

> <Gold.Protein.RotatedAtoms>
  151.4475  133.3626  159.2790 H   0  0  0  0  0  0  0  0  0  0  0  0  # atno 6907 bound_to 6896
  150.9114  134.8532  159.7438 H   0  0  0  0  0  0  0  0  0  0  0  0  # atno 6908 bound_to 6896
  152.4934  134.4405  159.9594 H   0  0  0  0  0  0  0  0  0  0  0  0  # atno 6909 bound_to 6896
  144.9481  140.7315  143.4804 H   0  0  0  0  0  0  0  0  0  0  0  0  # atno 7974 bound_to 7965
  154.7810  140.2819  155.6064 H   0  0  0  0  0  0  0  0  0  0  0  0  # atno 8008 bound_to 7997
  156.2950  140.2623  156.2563 H   0  0  0  0  0  0  0  0  0  0  0  0  # atno 8009 bound_to 7997
  154.9785  140.0375  157.2256 H   0  0  0  0  0  0  0  0  0  0  0  0  # atno 8010 bound_to 7997
  140.0682  144.5175  150.7246 H   0  0  0  0  0  0  0  0  0  0  0  0  # atno 10167 bound_to 10162
  157.6908  131.0617  150.4680 H   0  0  0  0  0  0  0  0  0  0  0  0  # atno 10718 bound_to 10713
  153.4742  135.3694  155.2407 H   0  0  0  0  0  0  0  0  0  0  0  0  # atno 10763 bound_to 10752
  154.8756  135.3938  154.3777 H   0  0  0  0  0  0  0  0  0  0  0  0  # atno 10764 bound_to 10752
  153.4370  135.7083  153.6258 H   0  0  0  0  0  0  0  0  0  0  0  0  # atno 10765 bound_to 10752
  140.0801  134.5350  155.8955 H   0  0  0  0  0  0  0  0  0  0  0  0  # atno 11005 bound_to 11000
  145.2886  139.1892  143.4753 LP  0  0  0  0  0  0  0  0  0  0  0  0  # atno 17320 bound_to 7965
  146.3311  140.2859  142.8612 LP  0  0  0  0  0  0  0  0  0  0  0  0  # atno 17321 bound_to 7965
  140.7138  143.2527  151.4497 LP  0  0  0  0  0  0  0  0  0  0  0  0  # atno 17342 bound_to 10162
  139.5852  144.1621  152.2019 LP  0  0  0  0  0  0  0  0  0  0  0  0  # atno 17343 bound_to 10162
  156.5020  130.4119  149.6348 LP  0  0  0  0  0  0  0  0  0  0  0  0  # atno 17370 bound_to 10713
  156.3320  130.7336  151.2267 LP  0  0  0  0  0  0  0  0  0  0  0  0  # atno 17371 bound_to 10713
  141.2043  133.6638  156.6116 LP  0  0  0  0  0  0  0  0  0  0  0  0  # atno 17394 bound_to 11000
  140.3500  134.7776  157.4460 LP  0  0  0  0  0  0  0  0  0  0  0  0  # atno 17395 bound_to 11000

$$$$
