AV-unprocessed.smi:459|AV-procd|sdf|2624|dock4
  -GOLD-   2262023 23D 1   1.00000     0.00000
 Structure written by MMmdl.
 43 45  0  0  0  0  0  0  0  0  1 V2000
  156.3510  139.6828  164.8078 C   0  0  0  0  0  0  0  0  0  0  0  0
  155.6843  138.6188  164.1440 O   0  0  0  0  0  0  0  0  0  0  0  0
  155.2901  138.8153  162.8378 C   0  0  0  0  0  0  0  0  0  0  0  0
  155.6097  139.9635  162.0726 C   0  0  0  0  0  0  0  0  0  0  0  0
  155.1637  140.0789  160.7419 C   0  0  0  0  0  0  0  0  0  0  0  0
  154.3932  139.0619  160.1449 C   0  0  0  0  0  0  0  0  0  0  0  0
  154.0001  139.2594  158.8395 O   0  0  0  0  0  0  0  0  0  0  0  0
  153.0278  138.3822  158.2861 C   0  0  0  0  0  0  0  0  0  0  0  0
  151.6213  138.8942  158.6274 C   0  0  0  0  0  0  0  0  0  0  0  0
  151.3464  140.1831  158.0079 N   0  0  0  0  0  0  0  0  0  0  0  0
  150.6263  140.4546  156.8884 C   0  0  0  0  0  0  0  0  0  0  0  0
  149.9485  139.3902  156.0742 C   0  0  0  0  0  0  0  0  0  0  0  0
  150.4872  139.2871  154.6384 C   0  0  0  0  0  0  0  0  0  0  0  0
  150.1040  140.4092  153.8713 O   0  0  0  0  0  0  0  0  0  0  0  0
  150.5458  141.7430  156.5515 N   0  0  0  0  0  0  0  0  0  0  0  0
  151.2847  142.3642  157.5388 C   0  0  0  0  0  0  0  0  0  0  0  0
  151.5814  143.7311  157.7412 C   0  0  0  0  0  0  0  0  0  0  0  0
  152.3708  144.1353  158.8378 C   0  0  0  0  0  0  0  0  0  0  0  0
  152.8741  143.1807  159.7452 C   0  0  0  0  0  0  0  0  0  0  0  0
  152.5898  141.8138  159.5617 C   0  0  0  0  0  0  0  0  0  0  0  0
  151.8005  141.4156  158.4660 C   0  0  0  0  0  0  0  0  0  0  0  0
  154.0734  137.9138  160.9099 C   0  0  0  0  0  0  0  0  0  0  0  0
  154.5199  137.7982  162.2403 C   0  0  0  0  0  0  0  0  0  0  0  0
  156.6001  139.3736  165.8229 H   0  0  0  0  0  0  0  0  0  0  0  0
  155.7166  140.5676  164.8791 H   0  0  0  0  0  0  0  0  0  0  0  0
  157.2830  139.9452  164.3053 H   0  0  0  0  0  0  0  0  0  0  0  0
  156.1962  140.7711  162.4831 H   0  0  0  0  0  0  0  0  0  0  0  0
  155.4156  140.9613  160.1721 H   0  0  0  0  0  0  0  0  0  0  0  0
  153.1411  138.3277  157.2025 H   0  0  0  0  0  0  0  0  0  0  0  0
  153.1561  137.3766  158.6899 H   0  0  0  0  0  0  0  0  0  0  0  0
  150.8667  138.1697  158.3255 H   0  0  0  0  0  0  0  0  0  0  0  0
  151.5180  139.0013  159.7077 H   0  0  0  0  0  0  0  0  0  0  0  0
  150.1160  138.4376  156.5781 H   0  0  0  0  0  0  0  0  0  0  0  0
  148.8679  139.5272  156.0729 H   0  0  0  0  0  0  0  0  0  0  0  0
  151.5725  139.1830  154.6319 H   0  0  0  0  0  0  0  0  0  0  0  0
  150.0770  138.3999  154.1556 H   0  0  0  0  0  0  0  0  0  0  0  0
  149.7284  140.1037  153.0595 H   0  0  0  0  0  0  0  0  0  0  0  0
  151.2015  144.4694  157.0508 H   0  0  0  0  0  0  0  0  0  0  0  0
  152.5912  145.1827  158.9830 H   0  0  0  0  0  0  0  0  0  0  0  0
  153.4785  143.4983  160.5823 H   0  0  0  0  0  0  0  0  0  0  0  0
  152.9739  141.0800  160.2546 H   0  0  0  0  0  0  0  0  0  0  0  0
  153.4871  137.1060  160.4996 H   0  0  0  0  0  0  0  0  0  0  0  0
  154.2673  136.9157  162.8097 H   0  0  0  0  0  0  0  0  0  0  0  0
  1  2  1  0  0  0  0
  1 24  1  0  0  0  0
  1 25  1  0  0  0  0
  1 26  1  0  0  0  0
  2  3  1  0  0  0  0
  3 23  1  0  0  0  0
  3  4  2  0  0  0  0
  4  5  1  0  0  0  0
  4 27  1  0  0  0  0
  5  6  2  0  0  0  0
  5 28  1  0  0  0  0
  6  7  1  0  0  0  0
  6 22  1  0  0  0  0
  7  8  1  0  0  0  0
  8  9  1  0  0  0  0
  8 29  1  0  0  0  0
  8 30  1  0  0  0  0
  9 10  1  0  0  0  0
  9 31  1  0  0  0  0
  9 32  1  0  0  0  0
 10 21  1  0  0  0  0
 10 11  1  0  0  0  0
 11 12  1  0  0  0  0
 11 15  2  0  0  0  0
 12 13  1  0  0  0  0
 12 33  1  0  0  0  0
 12 34  1  0  0  0  0
 13 14  1  0  0  0  0
 13 35  1  0  0  0  0
 13 36  1  0  0  0  0
 14 37  1  0  0  0  0
 15 16  1  0  0  0  0
 16 21  2  0  0  0  0
 16 17  1  0  0  0  0
 17 18  2  0  0  0  0
 17 38  1  0  0  0  0
 18 19  1  0  0  0  0
 18 39  1  0  0  0  0
 19 20  2  0  0  0  0
 19 40  1  0  0  0  0
 20 21  1  0  0  0  0
 20 41  1  0  0  0  0
 22 23  2  0  0  0  0
 22 42  1  0  0  0  0
 23 43  1  0  0  0  0
M  END
> <s_m_source_file>
AV-unprocessed.smi

> <i_m_source_file_index>
459

> <i_lp_mmshare_version>
43012

> <i_f3d_flags>
0

> <s_epik_input>
W0NIM11PYzFbY0hdW2NIXWMoW2NIXVtjSF0xKU9bQ0gyXVtDSDJdbihjKG4yKVtDSDJdW0NIMl1bT0hdKWMoYzIzKVtjSF1bY0hdW2NIXVtjSF0z

> <s_epik_cmdline>
J2VwaWtfcHl0aG9uJywgJy1waCcsICc3LjAnLCAnLXRuJywgJzgnLCAnLW1hJywgJzIwMCcsICctbWV0YWxfYmluZGluZycsICctaW1hZScsICc8aW5maWxlLm1hZT4nLCAnLW9tYWUnLCAnPG91dGZpbGUubWFlPic=

> <r_lp_tautomer_probability>
1

> <r_epik_Ionization_Penalty>
0.207087

> <r_epik_Ionization_Penalty_Charging>
0

> <r_epik_Ionization_Penalty_Neutral>
0.207087

> <r_epik_State_Penalty>
0.197081

> <r_epik_Charging_Adjusted_Penalty>
0.197081

> <i_epik_Tot_Q>
0

> <i_epik_Tot_abs_Q>
0

> <r_epik_Metal_State_Penalty>
0.00023377

> <b_epik_Metal_Only>
0

> <s_lp_Force_Field>
OPLS_2005

> <r_lp_Energy>
17.9825

> <b_lp_Chiralities_Consistent>
1

> <s_lp_Variant>
AV-unprocessed.smi:459-1

> <Gold.Version>
5.8.1

> <Gold.Id.Protein>
6NUR|6NUR_protein|mol2

> <Gold.PLP.Fitness>
51.0103

> <Gold.PLP.PLP>
-44.1467

> <Gold.PLP.part.hbond>
-2.6885

> <Gold.PLP.part.metal>
0.0000

> <Gold.PLP.part.buried>
-5.8935

> <Gold.PLP.part.nonpolar>
-35.9595

> <Gold.PLP.part.repulsive>
0.0939

> <Gold.PLP.ligand.clash>
0.0000

> <Gold.PLP.ligand.torsion>
0.6042

> <Gold.PLP.Chemscore.Hbond>
2.6732

> <Gold.PLP.Chemscore.CHOScore>
0.0000

> <Gold.PLP.Chemscore.Metal>
0.0000

> <Gold.Chemscore.Hbonds>
donor molecule, donor type, donor heavy atom, donor atom, acceptor molecule, acceptor atom, score
      L1  H    14    37       P1  7957  1.00
      P1  H  7989  7998       L1    14  0.63
      P1  H  7997  8009       L1     7  1.00

> <Gold.PLP.Chemscore.Internal.Correction>
0.0527

> <Gold.Rescore>
     Score         DG    S(hbond)    S(metal)    S(lipo)     H(rot)  DE(clash)    DE(int)     intcor
     21.01     -21.86       2.37        0.00     128.96       2.59       0.04       0.80       ----

> <Gold.Chemscore.Fitness>
21.0134

> <Gold.Chemscore.DG>
-21.8587

> <Gold.Chemscore.ZeroCoef>
-5.4800

> <Gold.Chemscore.Hbond>
2.3727

> <Gold.Chemscore.Metal>
0.0000

> <Gold.Chemscore.Lipo>
128.9615

> <Gold.Chemscore.Internal_Hbond>
0.0000

> <Gold.Chemscore.DEClash>
0.0445

> <Gold.Chemscore.DEInternal>
0.8008

> <Gold.Chemscore.Rot>
2.5916

> <Gold.Chemscore.Internal.Correction>
   9.000000E+99

> <Gold.Chemscore.Hbonds>
donor molecule, donor type, donor heavy atom, donor atom, acceptor molecule, acceptor atom, score
      L1  H    14    37       P1  7957  0.97
      P1  H  7989  7998       L1    14  0.05
      P1  H  7997  8009       L1     7  0.34

> <Gold.Chemscore.Hbond.Weighted>
-7.9248

> <Gold.Chemscore.Metal.Weighted>
-0.0000

> <Gold.Chemscore.Lipo.Weighted>
-15.0885

> <Gold.Chemscore.Internal_Hbond.Weighted>
0.0000

> <Gold.Chemscore.DEClash.Weighted>
0.0445

> <Gold.Chemscore.DEInternal.Weighted>
0.8008

> <Gold.Chemscore.Rot.Weighted>
6.6346

> <Gold.Chemscore.Internal.Correction.Weighted>
   9.000000E+99

> <Gold.Protein.RotatedTorsions>
[ 6907 6896 6895 6894 ] final   54.64 input  -60.11 | X-H torsion
[ 7974 7965 7964 7962 ] final  -81.45 input  175.53 | X-H torsion
[ 8008 7997 7996 7995 ] final  137.51 input   59.86 | X-H torsion
[ 10167 10162 10161 10158 ] final -149.66 input  -65.29 | X-H torsion
[ 10718 10713 10712 10709 ] final  -96.86 input   66.30 | X-H torsion
[ 10763 10752 10751 10750 ] final  -61.51 input  -60.55 | X-H torsion
[ 11005 11000 10999 10996 ] final  156.88 input  -57.11 | X-H torsion

> <Gold.Protein.ActiveResidues>
 VAL166  LYS551  ARG553  GLY616  TRP617  ASP618  TYR619  PRO620  LYS621  CYS622 
 ASP623  PHE694  ASN695  SER759  ASP760  ASP761  ALA762  ILE779  LEU786  VAL792 
 PHE793  MET794  SER795  GLU796  ALA797  LYS798  CYS799  TRP800  GLU811  SER814 

> <Gold.Protein.RotatedAtoms>
  152.3459  134.7071  160.0250 H   0  0  0  0  0  0  0  0  0  0  0  0  # atno 6907 bound_to 6896
  151.7441  133.3318  159.3381 H   0  0  0  0  0  0  0  0  0  0  0  0  # atno 6908 bound_to 6896
  150.7509  134.6185  159.6168 H   0  0  0  0  0  0  0  0  0  0  0  0  # atno 6909 bound_to 6896
  145.5465  140.9502  143.1522 H   0  0  0  0  0  0  0  0  0  0  0  0  # atno 7974 bound_to 7965
  156.3002  140.2417  156.3922 H   0  0  0  0  0  0  0  0  0  0  0  0  # atno 8008 bound_to 7997
  154.8604  140.0420  157.1681 H   0  0  0  0  0  0  0  0  0  0  0  0  # atno 8009 bound_to 7997
  154.8903  140.2962  155.5378 H   0  0  0  0  0  0  0  0  0  0  0  0  # atno 8010 bound_to 7997
  139.7423  143.8644  152.2565 H   0  0  0  0  0  0  0  0  0  0  0  0  # atno 10167 bound_to 10162
  156.0071  130.5169  150.6289 H   0  0  0  0  0  0  0  0  0  0  0  0  # atno 10718 bound_to 10713
  154.2857  135.6263  153.5365 H   0  0  0  0  0  0  0  0  0  0  0  0  # atno 10763 bound_to 10752
  152.9859  135.5644  154.5445 H   0  0  0  0  0  0  0  0  0  0  0  0  # atno 10764 bound_to 10752
  154.5046  135.2873  155.1369 H   0  0  0  0  0  0  0  0  0  0  0  0  # atno 10765 bound_to 10752
  140.1716  134.8539  157.2697 H   0  0  0  0  0  0  0  0  0  0  0  0  # atno 11005 bound_to 11000
  144.7551  139.7096  143.7257 LP  0  0  0  0  0  0  0  0  0  0  0  0  # atno 17320 bound_to 7965
  146.1946  139.5205  142.9783 LP  0  0  0  0  0  0  0  0  0  0  0  0  # atno 17321 bound_to 7965
  139.8598  144.7123  150.9114 LP  0  0  0  0  0  0  0  0  0  0  0  0  # atno 17342 bound_to 10162
  140.7787  143.3827  151.1447 LP  0  0  0  0  0  0  0  0  0  0  0  0  # atno 17343 bound_to 10162
  157.4091  131.0821  151.1238 LP  0  0  0  0  0  0  0  0  0  0  0  0  # atno 17370 bound_to 10713
  157.1875  130.6337  149.5693 LP  0  0  0  0  0  0  0  0  0  0  0  0  # atno 17371 bound_to 10713
  140.2370  134.3841  155.7497 LP  0  0  0  0  0  0  0  0  0  0  0  0  # atno 17394 bound_to 11000
  141.2218  133.7245  156.8730 LP  0  0  0  0  0  0  0  0  0  0  0  0  # atno 17395 bound_to 11000

$$$$
