AV-unprocessed.smi:1455|AV-procd|sdf|5916|dock5
  -GOLD-   22720 6 03D 1   1.00000     0.00000
 Structure written by MMmdl.
 31 32  0  0  0  0  0  0  0  0  2 V2000
  153.4457  139.8701  159.0566 O   0  0  0  0  0  0  0  0  0  0  0  0
  152.3085  140.2994  158.8647 C   0  0  0  0  0  0  0  0  0  0  0  0
  151.2520  139.3694  158.2430 C   0  0  0  0  0  0  0  0  0  0  0  0
  150.8032  139.7588  156.8935 N   0  0  0  0  0  0  0  0  0  0  0  0
  149.4908  140.2459  156.7615 C   0  0  0  0  0  0  0  0  0  0  0  0
  148.9944  140.6386  155.5730 C   0  0  0  0  0  0  0  0  0  0  0  0
  149.8566  140.5476  154.4011 C   0  0  0  0  0  0  0  0  0  0  0  0
  149.4197  140.8993  153.3072 O   0  0  0  0  0  0  0  0  0  0  0  0
  151.1234  140.0717  154.5809 N   0  5  0  0  0  0  0  0  0  0  0  0
  151.6160  139.6793  155.7967 C   0  0  0  0  0  0  0  0  0  0  0  0
  152.7663  139.2644  155.9385 O   0  0  0  0  0  0  0  0  0  0  0  0
  151.9404  141.5508  159.1863 N   0  0  0  0  0  0  0  0  0  0  0  0
  152.8021  142.5600  159.7921 C   0  0  0  0  0  0  0  0  0  0  0  0
  152.2117  143.0905  161.1155 C   0  0  0  0  0  0  0  0  0  0  0  0
  152.2105  144.6163  161.0010 C   0  0  0  0  0  0  0  0  0  0  0  0
  152.0921  144.8844  159.5039 C   0  0  0  0  0  0  0  0  0  0  0  0
  152.9313  143.7797  158.8624 C   0  0  0  0  0  0  0  0  0  0  0  0
  151.6474  138.3524  158.2346 H   0  0  0  0  0  0  0  0  0  0  0  0
  150.3972  139.3321  158.9196 H   0  0  0  0  0  0  0  0  0  0  0  0
  148.9221  140.2873  157.6789 H   0  0  0  0  0  0  0  0  0  0  0  0
  147.9853  141.0142  155.4892 H   0  0  0  0  0  0  0  0  0  0  0  0
  150.9879  141.8232  158.9884 H   0  0  0  0  0  0  0  0  0  0  0  0
  153.7940  142.1363  159.9595 H   0  0  0  0  0  0  0  0  0  0  0  0
  151.1853  142.7436  161.2468 H   0  0  0  0  0  0  0  0  0  0  0  0
  152.7779  142.7489  161.9825 H   0  0  0  0  0  0  0  0  0  0  0  0
  151.4083  145.0798  161.5759 H   0  0  0  0  0  0  0  0  0  0  0  0
  153.1570  145.0131  161.3699 H   0  0  0  0  0  0  0  0  0  0  0  0
  151.0514  144.7834  159.1925 H   0  0  0  0  0  0  0  0  0  0  0  0
  152.4295  145.8832  159.2266 H   0  0  0  0  0  0  0  0  0  0  0  0
  153.9745  144.0971  158.8306 H   0  0  0  0  0  0  0  0  0  0  0  0
  152.6281  143.5763  157.8342 H   0  0  0  0  0  0  0  0  0  0  0  0
  1  2  2  0  0  0  0
  2  3  1  0  0  0  0
  2 12  1  0  0  0  0
  3  4  1  0  0  0  0
  3 18  1  0  0  0  0
  3 19  1  0  0  0  0
  4 10  1  0  0  0  0
  4  5  1  0  0  0  0
  5  6  2  0  0  0  0
  5 20  1  0  0  0  0
  6  7  1  0  0  0  0
  6 21  1  0  0  0  0
  7  8  2  0  0  0  0
  7  9  1  0  0  0  0
  9 10  1  0  0  0  0
 10 11  2  0  0  0  0
 12 13  1  0  0  0  0
 12 22  1  0  0  0  0
 13 17  1  0  0  0  0
 13 14  1  0  0  0  0
 13 23  1  0  0  0  0
 14 15  1  0  0  0  0
 14 24  1  0  0  0  0
 14 25  1  0  0  0  0
 15 16  1  0  0  0  0
 15 26  1  0  0  0  0
 15 27  1  0  0  0  0
 16 17  1  0  0  0  0
 16 28  1  0  0  0  0
 16 29  1  0  0  0  0
 17 30  1  0  0  0  0
 17 31  1  0  0  0  0
M  CHG  1   9  -1
M  END
> <s_m_source_file>
AV-unprocessed.smi

> <i_m_source_file_index>
1455

> <i_lp_mmshare_version>
43012

> <i_f3d_flags>
0

> <s_epik_input>
W0NIMl0xW0NIMl1bQ0gyXVtDSDJdW0NIXTFbTkhdQyg9TylbQ0gyXW4yW2NIXVtjSF1jKD1PKVtuSF1jMj1P

> <s_epik_cmdline>
J2VwaWtfcHl0aG9uJywgJy1waCcsICc3LjAnLCAnLXRuJywgJzgnLCAnLW1hJywgJzIwMCcsICctbWV0YWxfYmluZGluZycsICctaW1hZScsICc8aW5maWxlLm1hZT4nLCAnLW9tYWUnLCAnPG91dGZpbGUubWFlPic=

> <r_lp_tautomer_probability>
0.999537

> <r_epik_Ionization_Penalty>
3.09122

> <r_epik_Ionization_Penalty_Charging>
2.83991e-08

> <r_epik_Ionization_Penalty_Neutral>
3.09122

> <r_epik_State_Penalty>
3.09028

> <r_epik_Charging_Adjusted_Penalty>
3.09028

> <i_epik_Tot_Q>
-1

> <i_epik_Tot_abs_Q>
1

> <r_epik_Metal_State_Penalty>
0.460928

> <b_epik_Metal_Only>
1

> <s_lp_Force_Field>
OPLS_2005

> <r_lp_Energy>
25.8803

> <b_lp_Chiralities_Consistent>
1

> <s_lp_Variant>
AV-unprocessed.smi:1455-2

> <Gold.Version>
5.8.1

> <Gold.Id.Protein>
6NUR|6NUR_protein|mol2

> <Gold.PLP.Fitness>
43.6875

> <Gold.PLP.PLP>
-35.3546

> <Gold.PLP.part.hbond>
-3.8942

> <Gold.PLP.part.metal>
0.0000

> <Gold.PLP.part.buried>
-4.4987

> <Gold.PLP.part.nonpolar>
-28.2095

> <Gold.PLP.part.repulsive>
1.4726

> <Gold.PLP.ligand.clash>
0.0000

> <Gold.PLP.ligand.torsion>
0.1403

> <Gold.PLP.Chemscore.Hbond>
2.8697

> <Gold.PLP.Chemscore.CHOScore>
0.0000

> <Gold.PLP.Chemscore.Metal>
0.0000

> <Gold.Chemscore.Hbonds>
donor molecule, donor type, donor heavy atom, donor atom, acceptor molecule, acceptor atom, score
      P1  H  7989  7998       L1     9  0.46
      P1  H  7997  8008       L1    11  1.00
      P1  H  8011  8017       L1     8  1.00

> <Gold.PLP.Chemscore.Internal.Correction>
0.0045

> <Gold.Rescore>
     Score         DG    S(hbond)    S(metal)    S(lipo)     H(rot)  DE(clash)    DE(int)     intcor
     16.99     -18.64       2.70        0.00      72.36       1.69       1.47       0.19       ----

> <Gold.Chemscore.Fitness>
16.9876

> <Gold.Chemscore.DG>
-18.6399

> <Gold.Chemscore.ZeroCoef>
-5.4800

> <Gold.Chemscore.Hbond>
2.6986

> <Gold.Chemscore.Metal>
0.0000

> <Gold.Chemscore.Lipo>
72.3645

> <Gold.Chemscore.Internal_Hbond>
0.0000

> <Gold.Chemscore.DEClash>
1.4670

> <Gold.Chemscore.DEInternal>
0.1853

> <Gold.Chemscore.Rot>
1.6875

> <Gold.Chemscore.Internal.Correction>
   9.000000E+99

> <Gold.Chemscore.Hbonds>
donor molecule, donor type, donor heavy atom, donor atom, acceptor molecule, acceptor atom, score
      P1  H  7989  7998       L1     9  0.03
      P1  H  7997  8008       L1    11  0.98
      P1  H  8011  8017       L1     8  1.00

> <Gold.Chemscore.Hbond.Weighted>
-9.0132

> <Gold.Chemscore.Metal.Weighted>
-0.0000

> <Gold.Chemscore.Lipo.Weighted>
-8.4666

> <Gold.Chemscore.Internal_Hbond.Weighted>
0.0000

> <Gold.Chemscore.DEClash.Weighted>
1.4670

> <Gold.Chemscore.DEInternal.Weighted>
0.1853

> <Gold.Chemscore.Rot.Weighted>
4.3200

> <Gold.Chemscore.Internal.Correction.Weighted>
   9.000000E+99

> <Gold.Protein.RotatedTorsions>
[ 6907 6896 6895 6894 ] final   43.83 input  -60.11 | X-H torsion
[ 7974 7965 7964 7962 ] final  -87.67 input  175.53 | X-H torsion
[ 8008 7997 7996 7995 ] final  -21.72 input   59.86 | X-H torsion
[ 10167 10162 10161 10158 ] final   15.19 input  -65.29 | X-H torsion
[ 10718 10713 10712 10709 ] final   -5.34 input   66.30 | X-H torsion
[ 10763 10752 10751 10750 ] final  -90.90 input  -60.55 | X-H torsion
[ 11005 11000 10999 10996 ] final    7.74 input  -57.11 | X-H torsion

> <Gold.Protein.ActiveResidues>
 VAL166  LYS551  ARG553  GLY616  TRP617  ASP618  TYR619  PRO620  LYS621  CYS622 
 ASP623  PHE694  ASN695  SER759  ASP760  ASP761  ALA762  ILE779  LEU786  VAL792 
 PHE793  MET794  SER795  GLU796  ALA797  LYS798  CYS799  TRP800  GLU811  SER814 

> <Gold.Protein.RotatedAtoms>
  152.2251  134.8376  160.0480 H   0  0  0  0  0  0  0  0  0  0  0  0  # atno 6907 bound_to 6896
  151.9145  133.3564  159.3883 H   0  0  0  0  0  0  0  0  0  0  0  0  # atno 6908 bound_to 6896
  150.7010  134.4623  159.5430 H   0  0  0  0  0  0  0  0  0  0  0  0  # atno 6909 bound_to 6896
  145.4635  140.9560  143.1956 H   0  0  0  0  0  0  0  0  0  0  0  0  # atno 7974 bound_to 7965
  154.4688  140.2027  156.0049 H   0  0  0  0  0  0  0  0  0  0  0  0  # atno 8008 bound_to 7997
  156.0974  140.3249  155.7867 H   0  0  0  0  0  0  0  0  0  0  0  0  # atno 8009 bound_to 7997
  155.4855  140.0542  157.2952 H   0  0  0  0  0  0  0  0  0  0  0  0  # atno 8010 bound_to 7997
  140.5884  143.8843  150.6851 H   0  0  0  0  0  0  0  0  0  0  0  0  # atno 10167 bound_to 10162
  156.7480  130.5230  149.5810 H   0  0  0  0  0  0  0  0  0  0  0  0  # atno 10718 bound_to 10713
  154.6705  135.5287  153.8132 H   0  0  0  0  0  0  0  0  0  0  0  0  # atno 10763 bound_to 10752
  153.0498  135.6528  154.0732 H   0  0  0  0  0  0  0  0  0  0  0  0  # atno 10764 bound_to 10752
  154.0631  135.2960  155.3301 H   0  0  0  0  0  0  0  0  0  0  0  0  # atno 10765 bound_to 10752
  140.5448  134.0339  155.7916 H   0  0  0  0  0  0  0  0  0  0  0  0  # atno 11005 bound_to 11000
  144.7988  139.6181  143.7081 LP  0  0  0  0  0  0  0  0  0  0  0  0  # atno 17320 bound_to 7965
  146.2438  139.6055  142.9474 LP  0  0  0  0  0  0  0  0  0  0  0  0  # atno 17321 bound_to 7965
  140.2360  143.3700  152.1526 LP  0  0  0  0  0  0  0  0  0  0  0  0  # atno 17342 bound_to 10162
  139.5212  144.7043  151.5401 LP  0  0  0  0  0  0  0  0  0  0  0  0  # atno 17343 bound_to 10162
  156.1420  130.6251  151.0480 LP  0  0  0  0  0  0  0  0  0  0  0  0  # atno 17370 bound_to 10713
  157.6790  131.0843  150.7420 LP  0  0  0  0  0  0  0  0  0  0  0  0  # atno 17371 bound_to 10713
  141.1206  133.9468  157.2737 LP  0  0  0  0  0  0  0  0  0  0  0  0  # atno 17394 bound_to 11000
  139.9485  135.0180  156.8924 LP  0  0  0  0  0  0  0  0  0  0  0  0  # atno 17395 bound_to 11000

$$$$
