AV-unprocessed.smi:1356|AV-procd|sdf|5546|dock1
  -GOLD-   22720 5133D 1   1.00000     0.00000
 Structure written by MMmdl.
 42 43  0  0  0  0  0  0  0  0  2 V2000
  147.1841  134.4123  153.9459 C   0  0  0  0  0  0  0  0  0  0  0  0
  148.2292  133.3861  153.5451 C   0  0  2  0  0  0  0  0  0  0  0  0
  148.7238  132.3600  154.5367 C   0  0  0  0  0  0  0  0  0  0  0  0
  149.6801  133.4101  154.0075 C   0  0  2  0  0  0  0  0  0  0  0  0
  150.1545  134.4661  154.9570 C   0  0  0  0  0  0  0  0  0  0  0  0
  150.6683  134.2203  156.0487 O   0  0  0  0  0  0  0  0  0  0  0  0
  149.9882  135.7155  154.4973 N   0  0  0  0  0  0  0  0  0  0  0  0
  150.4005  136.9374  155.1866 C   0  0  0  0  0  0  0  0  0  0  0  0
  151.5346  137.6993  154.4640 C   0  0  0  0  0  0  0  0  0  0  0  0
  152.1792  138.7915  155.3238 C   0  0  0  0  0  0  0  0  0  0  0  0
  153.4020  138.9341  155.3306 O   0  0  0  0  0  0  0  0  0  0  0  0
  151.3451  139.5403  156.0613 N   0  0  0  0  0  0  0  0  0  0  0  0
  151.7606  140.5725  157.0022 C   0  0  0  0  0  0  0  0  0  0  0  0
  150.9709  141.8752  156.7884 C   0  0  0  0  0  0  0  0  0  0  0  0
  151.3937  142.9679  157.7503 C   0  0  0  0  0  0  0  0  0  0  0  0
  152.4407  142.7888  158.6802 C   0  0  0  0  0  0  0  0  0  0  0  0
  152.7794  143.8477  159.5485 C   0  0  0  0  0  0  0  0  0  0  0  0
  152.0651  145.0613  159.4688 C   0  0  0  0  0  0  0  0  0  0  0  0
  151.0280  145.1852  158.5219 C   0  0  0  0  0  0  0  0  0  0  0  0
  150.7333  144.1477  157.7079 N   0  3  0  0  0  0  0  0  0  0  0  0
  147.1627  134.5650  155.0244 H   0  0  0  0  0  0  0  0  0  0  0  0
  146.1957  134.0718  153.6374 H   0  0  0  0  0  0  0  0  0  0  0  0
  147.3879  135.3657  153.4583 H   0  0  0  0  0  0  0  0  0  0  0  0
  148.1009  133.0480  152.5186 H   0  0  0  0  0  0  0  0  0  0  0  0
  148.3773  132.4422  155.5655 H   0  0  0  0  0  0  0  0  0  0  0  0
  148.8661  131.3403  154.1848 H   0  0  0  0  0  0  0  0  0  0  0  0
  150.4108  133.0776  153.2714 H   0  0  0  0  0  0  0  0  0  0  0  0
  149.5548  135.8310  153.5925 H   0  0  0  0  0  0  0  0  0  0  0  0
  149.5251  137.5810  155.2802 H   0  0  0  0  0  0  0  0  0  0  0  0
  150.7068  136.6923  156.2046 H   0  0  0  0  0  0  0  0  0  0  0  0
  152.3115  136.9953  154.1649 H   0  0  0  0  0  0  0  0  0  0  0  0
  151.1544  138.1370  153.5399 H   0  0  0  0  0  0  0  0  0  0  0  0
  150.3544  139.3562  155.9902 H   0  0  0  0  0  0  0  0  0  0  0  0
  151.6427  140.2122  158.0257 H   0  0  0  0  0  0  0  0  0  0  0  0
  152.8259  140.7551  156.8572 H   0  0  0  0  0  0  0  0  0  0  0  0
  151.1035  142.2278  155.7643 H   0  0  0  0  0  0  0  0  0  0  0  0
  149.9016  141.6973  156.9137 H   0  0  0  0  0  0  0  0  0  0  0  0
  152.9783  141.8527  158.7302 H   0  0  0  0  0  0  0  0  0  0  0  0
  153.5770  143.7305  160.2677 H   0  0  0  0  0  0  0  0  0  0  0  0
  152.3086  145.8844  160.1249 H   0  0  0  0  0  0  0  0  0  0  0  0
  150.4298  146.0753  158.3917 H   0  0  0  0  0  0  0  0  0  0  0  0
  149.9778  144.2588  157.0310 H   0  0  0  0  0  0  0  0  0  0  0  0
  1  2  1  0  0  0  0
  1 21  1  0  0  0  0
  1 22  1  0  0  0  0
  1 23  1  0  0  0  0
  2  4  1  0  0  0  0
  2  3  1  0  0  0  0
  2 24  1  0  0  0  0
  3  4  1  0  0  0  0
  3 25  1  0  0  0  0
  3 26  1  0  0  0  0
  4  5  1  0  0  0  0
  4 27  1  0  0  0  0
  5  6  2  0  0  0  0
  5  7  1  0  0  0  0
  7  8  1  0  0  0  0
  7 28  1  0  0  0  0
  8  9  1  0  0  0  0
  8 29  1  0  0  0  0
  8 30  1  0  0  0  0
  9 10  1  0  0  0  0
  9 31  1  0  0  0  0
  9 32  1  0  0  0  0
 10 11  2  0  0  0  0
 10 12  1  0  0  0  0
 12 13  1  0  0  0  0
 12 33  1  0  0  0  0
 13 14  1  0  0  0  0
 13 34  1  0  0  0  0
 13 35  1  0  0  0  0
 14 15  1  0  0  0  0
 14 36  1  0  0  0  0
 14 37  1  0  0  0  0
 15 20  1  0  0  0  0
 15 16  2  0  0  0  0
 16 17  1  0  0  0  0
 16 38  1  0  0  0  0
 17 18  2  0  0  0  0
 17 39  1  0  0  0  0
 18 19  1  0  0  0  0
 18 40  1  0  0  0  0
 19 20  2  0  0  0  0
 19 41  1  0  0  0  0
 20 42  1  0  0  0  0
M  CHG  1  20   1
M  END
> <s_m_source_file>
AV-unprocessed.smi

> <i_m_source_file_index>
1356

> <i_lp_mmshare_version>
43012

> <i_f3d_flags>
0

> <s_epik_input>
W0NIM11bQ0BASF0xW0NIMl1bQ0BIXTFDKD1PKVtOSF1bQ0gyXVtDSDJdQyg9TylbTkhdW0NIMl1bQ0gyXWMyW2NIXVtjSF1bY0hdW2NIXW4y

> <s_epik_cmdline>
J2VwaWtfcHl0aG9uJywgJy1waCcsICc3LjAnLCAnLXRuJywgJzgnLCAnLW1hJywgJzIwMCcsICctbWV0YWxfYmluZGluZycsICctaW1hZScsICc8aW5maWxlLm1hZT4nLCAnLW9tYWUnLCAnPG91dGZpbGUubWFlPic=

> <r_epik_Ionization_Penalty>
1.86966

> <r_epik_Ionization_Penalty_Charging>
1.86966

> <r_epik_Ionization_Penalty_Neutral>
5.0403e-08

> <r_epik_State_Penalty>
1.98858

> <r_epik_Charging_Adjusted_Penalty>
3.85824

> <i_epik_Tot_Q>
1

> <i_epik_Tot_abs_Q>
1

> <r_epik_Metal_State_Penalty>
2.01347

> <b_epik_Metal_Only>
0

> <s_lp_Force_Field>
OPLS_2005

> <r_lp_Energy>
10.2403

> <b_lp_Chiralities_Consistent>
1

> <s_lp_Variant>
AV-unprocessed.smi:1356-7

> <Gold.Version>
5.8.1

> <Gold.Id.Protein>
6NUR|6NUR_protein|mol2

> <Gold.PLP.Fitness>
56.1819

> <Gold.PLP.PLP>
-44.8959

> <Gold.PLP.part.hbond>
-3.5717

> <Gold.PLP.part.metal>
0.0000

> <Gold.PLP.part.buried>
-5.4947

> <Gold.PLP.part.nonpolar>
-35.7481

> <Gold.PLP.part.repulsive>
0.2169

> <Gold.PLP.ligand.clash>
0.0000

> <Gold.PLP.ligand.torsion>
0.4309

> <Gold.PLP.Chemscore.Hbond>
4.0000

> <Gold.PLP.Chemscore.CHOScore>
0.0000

> <Gold.PLP.Chemscore.Metal>
0.0000

> <Gold.Chemscore.Hbonds>
donor molecule, donor type, donor heavy atom, donor atom, acceptor molecule, acceptor atom, score
      L1  H     7    28       P1  7948  1.00
      L1  H    20    42       P1  8028  2.00
      P1  H  7997  8010       L1    11  1.00

> <Gold.PLP.Chemscore.Internal.Correction>
0.1478

> <Gold.Rescore>
     Score         DG    S(hbond)    S(metal)    S(lipo)     H(rot)  DE(clash)    DE(int)     intcor
     20.47     -21.08       2.68        0.00     107.35       2.31       0.13       0.48       ----

> <Gold.Chemscore.Fitness>
20.4730

> <Gold.Chemscore.DG>
-21.0825

> <Gold.Chemscore.ZeroCoef>
-5.4800

> <Gold.Chemscore.Hbond>
2.6844

> <Gold.Chemscore.Metal>
0.0000

> <Gold.Chemscore.Lipo>
107.3544

> <Gold.Chemscore.Internal_Hbond>
0.0000

> <Gold.Chemscore.DEClash>
0.1265

> <Gold.Chemscore.DEInternal>
0.4830

> <Gold.Chemscore.Rot>
2.3140

> <Gold.Chemscore.Internal.Correction>
   9.000000E+99

> <Gold.Chemscore.Hbonds>
donor molecule, donor type, donor heavy atom, donor atom, acceptor molecule, acceptor atom, score
      L1  H     7    28       P1  7948  0.30
      L1  H    20    42       P1  8028  0.78
      P1  H  7997  8010       L1    11  0.95

> <Gold.Chemscore.Hbond.Weighted>
-8.9659

> <Gold.Chemscore.Metal.Weighted>
-0.0000

> <Gold.Chemscore.Lipo.Weighted>
-12.5605

> <Gold.Chemscore.Internal_Hbond.Weighted>
0.0000

> <Gold.Chemscore.DEClash.Weighted>
0.1265

> <Gold.Chemscore.DEInternal.Weighted>
0.4830

> <Gold.Chemscore.Rot.Weighted>
5.9238

> <Gold.Chemscore.Internal.Correction.Weighted>
   9.000000E+99

> <Gold.Protein.RotatedTorsions>
[ 6907 6896 6895 6894 ] final -106.29 input  -60.11 | X-H torsion
[ 7974 7965 7964 7962 ] final   97.79 input  175.53 | X-H torsion
[ 8008 7997 7996 7995 ] final  106.20 input   59.86 | X-H torsion
[ 10167 10162 10161 10158 ] final -120.45 input  -65.29 | X-H torsion
[ 10718 10713 10712 10709 ] final  139.05 input   66.30 | X-H torsion
[ 10763 10752 10751 10750 ] final  111.32 input  -60.55 | X-H torsion
[ 11005 11000 10999 10996 ] final  159.49 input  -57.11 | X-H torsion

> <Gold.Protein.ActiveResidues>
 VAL166  LYS551  ARG553  GLY616  TRP617  ASP618  TYR619  PRO620  LYS621  CYS622 
 ASP623  PHE694  ASN695  SER759  ASP760  ASP761  ALA762  ILE779  LEU786  VAL792 
 PHE793  MET794  SER795  GLU796  ALA797  LYS798  CYS799  TRP800  GLU811  SER814 

> <Gold.Protein.RotatedAtoms>
  150.7381  133.9998  159.3634 H   0  0  0  0  0  0  0  0  0  0  0  0  # atno 6907 bound_to 6896
  151.7952  135.0722  160.0402 H   0  0  0  0  0  0  0  0  0  0  0  0  # atno 6908 bound_to 6896
  152.3180  133.5786  159.5761 H   0  0  0  0  0  0  0  0  0  0  0  0  # atno 6909 bound_to 6896
  145.4208  139.2321  143.3197 H   0  0  0  0  0  0  0  0  0  0  0  0  # atno 7974 bound_to 7965
  156.1723  140.3117  155.8996 H   0  0  0  0  0  0  0  0  0  0  0  0  # atno 8008 bound_to 7997
  155.3561  140.0474  157.3063 H   0  0  0  0  0  0  0  0  0  0  0  0  # atno 8009 bound_to 7997
  154.5254  140.2212  155.8910 H   0  0  0  0  0  0  0  0  0  0  0  0  # atno 8010 bound_to 7997
  140.0357  143.5204  152.2155 H   0  0  0  0  0  0  0  0  0  0  0  0  # atno 10167 bound_to 10162
  157.4186  131.1036  151.0377 H   0  0  0  0  0  0  0  0  0  0  0  0  # atno 10718 bound_to 10713
  153.4617  135.3720  155.2342 H   0  0  0  0  0  0  0  0  0  0  0  0  # atno 10763 bound_to 10752
  154.8757  135.3910  154.3917 H   0  0  0  0  0  0  0  0  0  0  0  0  # atno 10764 bound_to 10752
  153.4491  135.7085  153.6184 H   0  0  0  0  0  0  0  0  0  0  0  0  # atno 10765 bound_to 10752
  140.1967  134.8367  157.2973 H   0  0  0  0  0  0  0  0  0  0  0  0  # atno 11005 bound_to 11000
  146.2657  140.4933  142.8835 LP  0  0  0  0  0  0  0  0  0  0  0  0  # atno 17320 bound_to 7965
  144.8246  140.6607  143.6330 LP  0  0  0  0  0  0  0  0  0  0  0  0  # atno 17321 bound_to 7965
  139.6047  144.7593  151.3090 LP  0  0  0  0  0  0  0  0  0  0  0  0  # atno 17342 bound_to 10162
  140.7282  143.6941  150.7898 LP  0  0  0  0  0  0  0  0  0  0  0  0  # atno 17343 bound_to 10162
  157.1316  130.6104  149.5531 LP  0  0  0  0  0  0  0  0  0  0  0  0  # atno 17370 bound_to 10713
  155.9873  130.4912  150.7120 LP  0  0  0  0  0  0  0  0  0  0  0  0  # atno 17371 bound_to 10713
  140.2099  134.4151  155.7618 LP  0  0  0  0  0  0  0  0  0  0  0  0  # atno 17394 bound_to 11000
  141.2227  133.7113  156.8321 LP  0  0  0  0  0  0  0  0  0  0  0  0  # atno 17395 bound_to 11000

$$$$
