AV-unprocessed.smi:1282|AV-procd|sdf|5360|dock3
  -GOLD-   22720 4503D 1   1.00000     0.00000
 Structure written by MMmdl.
 36 37  0  0  0  0  0  0  0  0  1 V2000
  150.0440  132.9198  155.3540 C   0  0  0  0  0  0  0  0  0  0  0  0
  150.7036  134.1520  155.5865 O   0  0  0  0  0  0  0  0  0  0  0  0
  150.1863  135.2028  154.7879 C   0  0  0  0  0  0  0  0  0  0  0  0
  150.9725  136.4853  155.0735 C   0  0  0  0  0  0  0  0  0  0  0  0
  150.3455  137.5635  154.3860 O   0  0  0  0  0  0  0  0  0  0  0  0
  150.3764  138.8185  154.9585 C   0  0  0  0  0  0  0  0  0  0  0  0
  149.5932  139.8389  154.3840 C   0  0  0  0  0  0  0  0  0  0  0  0
  149.6195  141.1239  154.9591 C   0  0  0  0  0  0  0  0  0  0  0  0
  150.4397  141.3506  156.0901 C   0  0  0  0  0  0  0  0  0  0  0  0
  150.5401  142.5938  156.7716 N   0  0  0  0  0  0  0  0  0  0  0  0
  151.2876  142.9076  157.8454 C   0  0  0  0  0  0  0  0  0  0  0  0
  152.0128  142.1155  158.4473 O   0  0  0  0  0  0  0  0  0  0  0  0
  151.1670  144.3607  158.3249 C   0  0  0  0  0  0  0  0  0  0  0  0
  152.5084  145.0392  158.6550 C   0  0  0  0  0  0  0  0  0  0  0  0
  151.8568  145.6179  159.9145 C   0  0  0  0  0  0  0  0  0  0  0  0
  150.7926  144.5213  159.8094 C   0  0  0  0  0  0  0  0  0  0  0  0
  151.1737  140.2581  156.5970 C   0  0  0  0  0  0  0  0  0  0  0  0
  151.1525  139.0238  156.0510 N   0  0  0  0  0  0  0  0  0  0  0  0
  150.4714  132.1483  155.9945 H   0  0  0  0  0  0  0  0  0  0  0  0
  150.1613  132.5997  154.3179 H   0  0  0  0  0  0  0  0  0  0  0  0
  148.9793  132.9927  155.5795 H   0  0  0  0  0  0  0  0  0  0  0  0
  150.2676  134.9453  153.7307 H   0  0  0  0  0  0  0  0  0  0  0  0
  149.1292  135.3557  155.0109 H   0  0  0  0  0  0  0  0  0  0  0  0
  150.9860  136.6786  156.1476 H   0  0  0  0  0  0  0  0  0  0  0  0
  152.0038  136.3653  154.7374 H   0  0  0  0  0  0  0  0  0  0  0  0
  148.9786  139.6386  153.5188 H   0  0  0  0  0  0  0  0  0  0  0  0
  149.0030  141.8985  154.5309 H   0  0  0  0  0  0  0  0  0  0  0  0
  149.9275  143.3220  156.4342 H   0  0  0  0  0  0  0  0  0  0  0  0
  150.5445  144.9832  157.6789 H   0  0  0  0  0  0  0  0  0  0  0  0
  153.3200  144.3451  158.8818 H   0  0  0  0  0  0  0  0  0  0  0  0
  152.8212  145.7929  157.9320 H   0  0  0  0  0  0  0  0  0  0  0  0
  152.4749  145.5690  160.8114 H   0  0  0  0  0  0  0  0  0  0  0  0
  151.4493  146.6176  159.7564 H   0  0  0  0  0  0  0  0  0  0  0  0
  149.7751  144.8737  159.9808 H   0  0  0  0  0  0  0  0  0  0  0  0
  151.0214  143.6527  160.4295 H   0  0  0  0  0  0  0  0  0  0  0  0
  151.8032  140.3772  157.4668 H   0  0  0  0  0  0  0  0  0  0  0  0
  1  2  1  0  0  0  0
  1 19  1  0  0  0  0
  1 20  1  0  0  0  0
  1 21  1  0  0  0  0
  2  3  1  0  0  0  0
  3  4  1  0  0  0  0
  3 22  1  0  0  0  0
  3 23  1  0  0  0  0
  4  5  1  0  0  0  0
  4 24  1  0  0  0  0
  4 25  1  0  0  0  0
  5  6  1  0  0  0  0
  6 18  1  0  0  0  0
  6  7  2  0  0  0  0
  7  8  1  0  0  0  0
  7 26  1  0  0  0  0
  8  9  2  0  0  0  0
  8 27  1  0  0  0  0
  9 10  1  0  0  0  0
  9 17  1  0  0  0  0
 10 11  1  0  0  0  0
 10 28  1  0  0  0  0
 11 12  2  0  0  0  0
 11 13  1  0  0  0  0
 13 16  1  0  0  0  0
 13 14  1  0  0  0  0
 13 29  1  0  0  0  0
 14 15  1  0  0  0  0
 14 30  1  0  0  0  0
 14 31  1  0  0  0  0
 15 16  1  0  0  0  0
 15 32  1  0  0  0  0
 15 33  1  0  0  0  0
 16 34  1  0  0  0  0
 16 35  1  0  0  0  0
 17 18  2  0  0  0  0
 17 36  1  0  0  0  0
M  END
> <s_m_source_file>
AV-unprocessed.smi

> <i_m_source_file_index>
1282

> <i_lp_mmshare_version>
43012

> <i_f3d_flags>
0

> <s_epik_input>
W0NIM11PW0NIMl1bQ0gyXU9jMVtjSF1bY0hdYyhbY0hdbjEpW05IXUMoPU8pW0NIXTJbQ0gyXVtDSDJdW0NIMl0y

> <s_epik_cmdline>
J2VwaWtfcHl0aG9uJywgJy1waCcsICc3LjAnLCAnLXRuJywgJzgnLCAnLW1hJywgJzIwMCcsICctbWV0YWxfYmluZGluZycsICctaW1hZScsICc8aW5maWxlLm1hZT4nLCAnLW9tYWUnLCAnPG91dGZpbGUubWFlPic=

> <r_lp_tautomer_probability>
1

> <r_epik_Ionization_Penalty>
2.67646e-05

> <r_epik_Ionization_Penalty_Charging>
0

> <r_epik_Ionization_Penalty_Neutral>
2.67646e-05

> <r_epik_State_Penalty>
-0

> <r_epik_Charging_Adjusted_Penalty>
0

> <i_epik_Tot_Q>
0

> <i_epik_Tot_abs_Q>
0

> <r_epik_Metal_State_Penalty>
-0

> <b_epik_Metal_Only>
0

> <s_lp_Force_Field>
OPLS_2005

> <r_lp_Energy>
17.3297

> <b_lp_Chiralities_Consistent>
1

> <s_lp_Variant>
AV-unprocessed.smi:1282-1

> <Gold.Version>
5.8.1

> <Gold.Id.Protein>
6NUR|6NUR_protein|mol2

> <Gold.PLP.Fitness>
40.5771

> <Gold.PLP.PLP>
-38.2079

> <Gold.PLP.part.hbond>
-1.0000

> <Gold.PLP.part.metal>
0.0000

> <Gold.PLP.part.buried>
-5.2585

> <Gold.PLP.part.nonpolar>
-33.0671

> <Gold.PLP.part.repulsive>
0.3161

> <Gold.PLP.ligand.clash>
0.0000

> <Gold.PLP.ligand.torsion>
0.5250

> <Gold.PLP.Chemscore.Hbond>
1.0000

> <Gold.PLP.Chemscore.CHOScore>
0.0000

> <Gold.PLP.Chemscore.Metal>
0.0000

> <Gold.Chemscore.Hbonds>
donor molecule, donor type, donor heavy atom, donor atom, acceptor molecule, acceptor atom, score
      L1  H    10    28       P1  8028  1.00

> <Gold.PLP.Chemscore.Internal.Correction>
0.4191

> <Gold.Rescore>
     Score         DG    S(hbond)    S(metal)    S(lipo)     H(rot)  DE(clash)    DE(int)     intcor
     13.11     -15.03       1.00        0.00      91.74       1.76       0.01       1.91       ----

> <Gold.Chemscore.Fitness>
13.1129

> <Gold.Chemscore.DG>
-15.0313

> <Gold.Chemscore.ZeroCoef>
-5.4800

> <Gold.Chemscore.Hbond>
0.9975

> <Gold.Chemscore.Metal>
0.0000

> <Gold.Chemscore.Lipo>
91.7409

> <Gold.Chemscore.Internal_Hbond>
0.0000

> <Gold.Chemscore.DEClash>
0.0073

> <Gold.Chemscore.DEInternal>
1.9111

> <Gold.Chemscore.Rot>
1.7634

> <Gold.Chemscore.Internal.Correction>
   9.000000E+99

> <Gold.Chemscore.Hbonds>
donor molecule, donor type, donor heavy atom, donor atom, acceptor molecule, acceptor atom, score
      L1  H    10    28       P1  8028  1.00

> <Gold.Chemscore.Hbond.Weighted>
-3.3318

> <Gold.Chemscore.Metal.Weighted>
-0.0000

> <Gold.Chemscore.Lipo.Weighted>
-10.7337

> <Gold.Chemscore.Internal_Hbond.Weighted>
0.0000

> <Gold.Chemscore.DEClash.Weighted>
0.0073

> <Gold.Chemscore.DEInternal.Weighted>
1.9111

> <Gold.Chemscore.Rot.Weighted>
4.5142

> <Gold.Chemscore.Internal.Correction.Weighted>
   9.000000E+99

> <Gold.Protein.RotatedTorsions>
[ 6907 6896 6895 6894 ] final  -98.55 input  -60.11 | X-H torsion
[ 7974 7965 7964 7962 ] final  -80.11 input  175.53 | X-H torsion
[ 8008 7997 7996 7995 ] final  169.88 input   59.86 | X-H torsion
[ 10167 10162 10161 10158 ] final   52.83 input  -65.29 | X-H torsion
[ 10718 10713 10712 10709 ] final -116.90 input   66.30 | X-H torsion
[ 10763 10752 10751 10750 ] final  177.78 input  -60.55 | X-H torsion
[ 11005 11000 10999 10996 ] final -163.65 input  -57.11 | X-H torsion

> <Gold.Protein.ActiveResidues>
 VAL166  LYS551  ARG553  GLY616  TRP617  ASP618  TYR619  PRO620  LYS621  CYS622 
 ASP623  PHE694  ASN695  SER759  ASP760  ASP761  ALA762  ILE779  LEU786  VAL792 
 PHE793  MET794  SER795  GLU796  ALA797  LYS798  CYS799  TRP800  GLU811  SER814 

> <Gold.Protein.RotatedAtoms>
  150.7050  134.1177  159.4023 H   0  0  0  0  0  0  0  0  0  0  0  0  # atno 6907 bound_to 6896
  151.9164  135.0315  160.0528 H   0  0  0  0  0  0  0  0  0  0  0  0  # atno 6908 bound_to 6896
  152.2293  133.5010  159.5243 H   0  0  0  0  0  0  0  0  0  0  0  0  # atno 6909 bound_to 6896
  145.5643  140.9477  143.1430 H   0  0  0  0  0  0  0  0  0  0  0  0  # atno 7974 bound_to 7965
  156.1417  140.1552  156.8910 H   0  0  0  0  0  0  0  0  0  0  0  0  # atno 8008 bound_to 7997
  154.4993  140.0829  156.7802 H   0  0  0  0  0  0  0  0  0  0  0  0  # atno 8009 bound_to 7997
  155.4066  140.3417  155.4263 H   0  0  0  0  0  0  0  0  0  0  0  0  # atno 8010 bound_to 7997
  140.2472  144.3519  150.6360 H   0  0  0  0  0  0  0  0  0  0  0  0  # atno 10167 bound_to 10162
  156.0996  130.6161  150.9095 H   0  0  0  0  0  0  0  0  0  0  0  0  # atno 10718 bound_to 10713
  154.4990  135.2782  155.1436 H   0  0  0  0  0  0  0  0  0  0  0  0  # atno 10763 bound_to 10752
  154.3077  135.6235  153.5456 H   0  0  0  0  0  0  0  0  0  0  0  0  # atno 10764 bound_to 10752
  152.9899  135.5712  154.5428 H   0  0  0  0  0  0  0  0  0  0  0  0  # atno 10765 bound_to 10752
  140.5957  134.4999  157.5199 H   0  0  0  0  0  0  0  0  0  0  0  0  # atno 11005 bound_to 11000
  144.7468  139.7299  143.7289 LP  0  0  0  0  0  0  0  0  0  0  0  0  # atno 17320 bound_to 7965
  146.1829  139.5031  142.9854 LP  0  0  0  0  0  0  0  0  0  0  0  0  # atno 17321 bound_to 7965
  140.6068  143.2168  151.6965 LP  0  0  0  0  0  0  0  0  0  0  0  0  # atno 17342 bound_to 10162
  139.5058  144.3705  152.0474 LP  0  0  0  0  0  0  0  0  0  0  0  0  # atno 17343 bound_to 10162
  157.6163  131.0933  150.8704 LP  0  0  0  0  0  0  0  0  0  0  0  0  # atno 17370 bound_to 10713
  156.8834  130.5187  149.5289 LP  0  0  0  0  0  0  0  0  0  0  0  0  # atno 17371 bound_to 10713
  139.9254  134.8066  156.1084 LP  0  0  0  0  0  0  0  0  0  0  0  0  # atno 17394 bound_to 11000
  141.0906  133.6716  156.2531 LP  0  0  0  0  0  0  0  0  0  0  0  0  # atno 17395 bound_to 11000

$$$$
