AV-unprocessed.smi:3204|AV-procd|sdf|12252|dock5
  -GOLD-   2272018 83D 1   1.00000     0.00000
 Structure written by MMmdl.
 30 31  0  0  0  0  0  0  0  0  1 V2000
  151.8785  144.5251  160.7530 C   0  0  0  0  0  0  0  0  0  0  0  0
  152.3704  144.2026  159.3375 C   0  0  0  0  0  0  0  0  0  0  0  0
  152.7623  142.7447  159.1840 C   0  0  0  0  0  0  0  0  0  0  0  0
  153.9091  142.3571  159.7858 N   0  0  0  0  0  0  0  0  0  0  0  0
  154.2635  141.0784  159.6382 C   0  0  0  0  0  0  0  0  0  0  0  0
  153.6032  140.1403  158.9540 N   0  0  0  0  0  0  0  0  0  0  0  0
  152.4536  140.5133  158.3427 C   0  0  0  0  0  0  0  0  0  0  0  0
  151.7247  139.5703  157.6039 N   0  0  0  0  0  0  0  0  0  0  0  0
  151.8318  139.4903  156.1502 C   0  0  2  0  0  0  0  0  0  0  0  0
  150.5615  139.9028  155.4183 C   0  0  0  0  0  0  0  0  0  0  0  0
  150.7757  139.4114  154.1025 O   0  0  0  0  0  0  0  0  0  0  0  0
  151.5500  138.2131  154.1577 C   0  0  0  0  0  0  0  0  0  0  0  0
  152.0702  138.0894  155.5969 C   0  0  2  0  0  0  0  0  0  0  0  0
  151.3076  137.1071  156.2763 O   0  0  0  0  0  0  0  0  0  0  0  0
  151.9804  141.8401  158.4324 C   0  0  0  0  0  0  0  0  0  0  0  0
  150.8342  142.2269  157.8207 F   0  0  0  0  0  0  0  0  0  0  0  0
  151.6017  145.5760  160.8382 H   0  0  0  0  0  0  0  0  0  0  0  0
  152.6541  144.3240  161.4926 H   0  0  0  0  0  0  0  0  0  0  0  0
  151.0043  143.9276  161.0127 H   0  0  0  0  0  0  0  0  0  0  0  0
  151.5894  144.4398  158.6138 H   0  0  0  0  0  0  0  0  0  0  0  0
  153.2200  144.8383  159.0870 H   0  0  0  0  0  0  0  0  0  0  0  0
  155.1789  140.7710  160.1214 H   0  0  0  0  0  0  0  0  0  0  0  0
  151.1720  138.8786  158.0896 H   0  0  0  0  0  0  0  0  0  0  0  0
  152.6360  140.1468  155.8141 H   0  0  0  0  0  0  0  0  0  0  0  0
  149.6813  139.4194  155.8453 H   0  0  0  0  0  0  0  0  0  0  0  0
  150.3996  140.9810  155.4234 H   0  0  0  0  0  0  0  0  0  0  0  0
  150.9556  137.3520  153.8490 H   0  0  0  0  0  0  0  0  0  0  0  0
  152.3777  138.3099  153.4544 H   0  0  0  0  0  0  0  0  0  0  0  0
  153.1222  137.8048  155.6307 H   0  0  0  0  0  0  0  0  0  0  0  0
  151.5079  136.2635  155.9007 H   0  0  0  0  0  0  0  0  0  0  0  0
  1  2  1  0  0  0  0
  1 17  1  0  0  0  0
  1 18  1  0  0  0  0
  1 19  1  0  0  0  0
  2  3  1  0  0  0  0
  2 20  1  0  0  0  0
  2 21  1  0  0  0  0
  3 15  1  0  0  0  0
  3  4  2  0  0  0  0
  4  5  1  0  0  0  0
  5  6  2  0  0  0  0
  5 22  1  0  0  0  0
  6  7  1  0  0  0  0
  7  8  1  0  0  0  0
  7 15  2  0  0  0  0
  8  9  1  0  0  0  0
  8 23  1  0  0  0  0
  9 13  1  0  0  0  0
  9 10  1  0  0  0  0
  9 24  1  0  0  0  0
 10 11  1  0  0  0  0
 10 25  1  0  0  0  0
 10 26  1  0  0  0  0
 11 12  1  0  0  0  0
 12 13  1  0  0  0  0
 12 27  1  0  0  0  0
 12 28  1  0  0  0  0
 13 14  1  0  0  0  0
 13 29  1  0  0  0  0
 14 30  1  0  0  0  0
 15 16  1  0  0  0  0
M  END
> <s_m_source_file>
AV-unprocessed.smi

> <i_m_source_file_index>
3204

> <i_lp_mmshare_version>
43012

> <i_f3d_flags>
0

> <s_epik_input>
W0NIM11bQ0gyXWMxbltjSF1uYyhjMUYpW05IXVtDQEBIXTJbQ0gyXU9bQ0gyXVtDQEhdMltPSF0=

> <s_epik_cmdline>
J2VwaWtfcHl0aG9uJywgJy1waCcsICc3LjAnLCAnLXRuJywgJzgnLCAnLW1hJywgJzIwMCcsICctbWV0YWxfYmluZGluZycsICctaW1hZScsICc8aW5maWxlLm1hZT4nLCAnLW9tYWUnLCAnPG91dGZpbGUubWFlPic=

> <r_lp_tautomer_probability>
1

> <r_epik_Ionization_Penalty>
0.000484964

> <r_epik_Ionization_Penalty_Charging>
0

> <r_epik_Ionization_Penalty_Neutral>
0.000484964

> <r_epik_State_Penalty>
-0

> <r_epik_Charging_Adjusted_Penalty>
0

> <i_epik_Tot_Q>
0

> <i_epik_Tot_abs_Q>
0

> <r_epik_Metal_State_Penalty>
-0

> <b_epik_Metal_Only>
0

> <s_lp_Force_Field>
OPLS_2005

> <r_lp_Energy>
19.3266

> <b_lp_Chiralities_Consistent>
1

> <s_lp_Variant>
AV-unprocessed.smi:3204-3

> <Gold.Version>
5.8.1

> <Gold.Id.Protein>
6NUR|6NUR_protein|mol2

> <Gold.PLP.Fitness>
35.6388

> <Gold.PLP.PLP>
-31.5442

> <Gold.PLP.part.hbond>
-2.0000

> <Gold.PLP.part.metal>
0.0000

> <Gold.PLP.part.buried>
-3.3731

> <Gold.PLP.part.nonpolar>
-24.9269

> <Gold.PLP.part.repulsive>
0.2372

> <Gold.PLP.ligand.clash>
0.0000

> <Gold.PLP.ligand.torsion>
0.9451

> <Gold.PLP.Chemscore.Hbond>
1.9920

> <Gold.PLP.Chemscore.CHOScore>
0.0000

> <Gold.PLP.Chemscore.Metal>
0.0000

> <Gold.Chemscore.Hbonds>
donor molecule, donor type, donor heavy atom, donor atom, acceptor molecule, acceptor atom, score
      P1  H  7989  7998       L1    11  0.85
      P1  H  7997  8009       L1     6  0.65

> <Gold.PLP.Chemscore.Internal.Correction>
0.0087

> <Gold.Rescore>
     Score         DG    S(hbond)    S(metal)    S(lipo)     H(rot)  DE(clash)    DE(int)     intcor
     10.68     -11.88       0.77        0.00      72.78       1.83       0.10       1.10       ----

> <Gold.Chemscore.Fitness>
10.6766

> <Gold.Chemscore.DG>
-11.8848

> <Gold.Chemscore.ZeroCoef>
-5.4800

> <Gold.Chemscore.Hbond>
0.7735

> <Gold.Chemscore.Metal>
0.0000

> <Gold.Chemscore.Lipo>
72.7834

> <Gold.Chemscore.Internal_Hbond>
0.0000

> <Gold.Chemscore.DEClash>
0.1046

> <Gold.Chemscore.DEInternal>
1.1036

> <Gold.Chemscore.Rot>
1.8337

> <Gold.Chemscore.Internal.Correction>
   9.000000E+99

> <Gold.Chemscore.Hbonds>
donor molecule, donor type, donor heavy atom, donor atom, acceptor molecule, acceptor atom, score
      P1  H  7989  7998       L1    11  0.13
      P1  H  7997  8009       L1     6  0.03

> <Gold.Chemscore.Hbond.Weighted>
-2.5834

> <Gold.Chemscore.Metal.Weighted>
-0.0000

> <Gold.Chemscore.Lipo.Weighted>
-8.5157

> <Gold.Chemscore.Internal_Hbond.Weighted>
0.0000

> <Gold.Chemscore.DEClash.Weighted>
0.1046

> <Gold.Chemscore.DEInternal.Weighted>
1.1036

> <Gold.Chemscore.Rot.Weighted>
4.6942

> <Gold.Chemscore.Internal.Correction.Weighted>
   9.000000E+99

> <Gold.Protein.RotatedTorsions>
[ 6907 6896 6895 6894 ] final  -35.25 input  -60.11 | X-H torsion
[ 7974 7965 7964 7962 ] final   85.16 input  175.53 | X-H torsion
[ 8008 7997 7996 7995 ] final  137.30 input   59.86 | X-H torsion
[ 10167 10162 10161 10158 ] final  152.07 input  -65.29 | X-H torsion
[ 10718 10713 10712 10709 ] final  157.68 input   66.30 | X-H torsion
[ 10763 10752 10751 10750 ] final  -24.05 input  -60.55 | X-H torsion
[ 11005 11000 10999 10996 ] final -152.95 input  -57.11 | X-H torsion

> <Gold.Protein.ActiveResidues>
 VAL166  LYS551  ARG553  GLY616  TRP617  ASP618  TYR619  PRO620  LYS621  CYS622 
 ASP623  PHE694  ASN695  SER759  ASP760  ASP761  ALA762  ILE779  LEU786  VAL792 
 PHE793  MET794  SER795  GLU796  ALA797  LYS798  CYS799  TRP800  GLU811  SER814 

> <Gold.Protein.RotatedAtoms>
  151.0422  134.9615  159.8167 H   0  0  0  0  0  0  0  0  0  0  0  0  # atno 6907 bound_to 6896
  152.5366  134.2644  159.8957 H   0  0  0  0  0  0  0  0  0  0  0  0  # atno 6908 bound_to 6896
  151.2656  133.4237  159.2652 H   0  0  0  0  0  0  0  0  0  0  0  0  # atno 6909 bound_to 6896
  145.5891  139.2335  143.2309 H   0  0  0  0  0  0  0  0  0  0  0  0  # atno 7974 bound_to 7965
  156.3002  140.2423  156.3887 H   0  0  0  0  0  0  0  0  0  0  0  0  # atno 8008 bound_to 7997
  154.8634  140.0419  157.1699 H   0  0  0  0  0  0  0  0  0  0  0  0  # atno 8009 bound_to 7997
  154.8872  140.2958  155.5395 H   0  0  0  0  0  0  0  0  0  0  0  0  # atno 8010 bound_to 7997
  139.4835  144.5388  151.7599 H   0  0  0  0  0  0  0  0  0  0  0  0  # atno 10167 bound_to 10162
  157.1882  131.0648  151.2094 H   0  0  0  0  0  0  0  0  0  0  0  0  # atno 10718 bound_to 10713
  153.6775  135.6968  153.5128 H   0  0  0  0  0  0  0  0  0  0  0  0  # atno 10763 bound_to 10752
  153.2510  135.4275  155.0797 H   0  0  0  0  0  0  0  0  0  0  0  0  # atno 10764 bound_to 10752
  154.8409  135.3531  154.6319 H   0  0  0  0  0  0  0  0  0  0  0  0  # atno 10765 bound_to 10752
  140.7134  134.3807  157.5194 H   0  0  0  0  0  0  0  0  0  0  0  0  # atno 11005 bound_to 11000
  146.1660  140.6718  142.9255 LP  0  0  0  0  0  0  0  0  0  0  0  0  # atno 17320 bound_to 7965
  144.7359  140.4807  143.6904 LP  0  0  0  0  0  0  0  0  0  0  0  0  # atno 17321 bound_to 7965
  140.4925  144.1290  150.5953 LP  0  0  0  0  0  0  0  0  0  0  0  0  # atno 17342 bound_to 10162
  140.4155  143.2636  151.9780 LP  0  0  0  0  0  0  0  0  0  0  0  0  # atno 17343 bound_to 10162
  157.3886  130.7270  149.6681 LP  0  0  0  0  0  0  0  0  0  0  0  0  # atno 17370 bound_to 10713
  155.9715  130.4152  150.4173 LP  0  0  0  0  0  0  0  0  0  0  0  0  # atno 17371 bound_to 10713
  139.8866  134.8905  156.2576 LP  0  0  0  0  0  0  0  0  0  0  0  0  # atno 17394 bound_to 11000
  141.0065  133.7120  156.1043 LP  0  0  0  0  0  0  0  0  0  0  0  0  # atno 17395 bound_to 11000

$$$$
