AV-unprocessed.smi:232|AV-procd|sdf|1781|dock4
  -GOLD-   2262020333D 1   1.00000     0.00000
 Structure written by MMmdl.
 52 55  0  0  0  0  0  0  0  0  1 V2000
  152.7983  144.7108  158.2401 C   0  0  0  0  0  0  0  0  0  0  0  0
  151.5936  143.7624  158.2394 C   0  0  0  0  0  0  0  0  0  0  0  0
  151.7796  142.5454  159.1691 C   0  0  2  0  0  0  0  0  0  0  0  0
  152.5981  142.8407  160.4337 C   0  0  0  0  0  0  0  0  0  0  0  0
  153.3222  141.5255  160.7464 C   0  0  0  0  0  0  0  0  0  0  0  0
  152.9027  140.5721  159.6201 C   0  0  2  0  0  0  0  0  0  0  0  0
  154.0035  139.5755  159.2198 C   0  0  0  0  0  0  0  0  0  0  0  0
  152.4918  141.4455  158.5283 N   0  0  0  0  0  0  0  0  0  0  0  0
  151.8407  140.8277  157.5150 C   0  0  0  0  0  0  0  0  0  0  0  0
  152.5147  140.0314  156.6428 N   0  0  0  0  0  0  0  0  0  0  0  0
  151.8571  139.4217  155.6518 C   0  0  0  0  0  0  0  0  0  0  0  0
  150.5553  139.4709  155.3585 N   0  0  0  0  0  0  0  0  0  0  0  0
  149.8814  140.2733  156.2320 C   0  0  0  0  0  0  0  0  0  0  0  0
  150.4432  140.9844  157.3278 C   0  0  0  0  0  0  0  0  0  0  0  0
  149.4544  141.6961  157.9948 N   0  0  0  0  0  0  0  0  0  0  0  0
  148.3650  141.4188  157.3306 C   0  0  0  0  0  0  0  0  0  0  0  0
  148.5313  140.5703  156.2589 N   0  0  0  0  0  0  0  0  0  0  0  0
  147.4992  140.0904  155.3583 C   0  0  0  0  0  0  0  0  0  0  0  0
  147.1487  141.1228  154.2698 C   0  0  1  0  0  0  0  0  0  0  0  0
  146.3980  140.5189  153.2324 O   0  0  0  0  0  0  0  0  0  0  0  0
  146.4091  142.3531  154.8326 C   0  0  1  0  0  0  0  0  0  0  0  0
  146.0649  143.4663  153.8300 C   0  0  0  0  0  0  0  0  0  0  0  0
  144.6601  143.8982  154.2296 C   0  0  0  0  0  0  0  0  0  0  0  0
  144.4188  143.1902  155.5601 C   0  0  0  0  0  0  0  0  0  0  0  0
  145.1745  141.9972  155.4392 O   0  0  0  0  0  0  0  0  0  0  0  0
  152.6114  145.5726  157.5993 H   0  0  0  0  0  0  0  0  0  0  0  0
  153.6969  144.2150  157.8728 H   0  0  0  0  0  0  0  0  0  0  0  0
  153.0051  145.0816  159.2442 H   0  0  0  0  0  0  0  0  0  0  0  0
  150.7154  144.3302  158.5484 H   0  0  0  0  0  0  0  0  0  0  0  0
  151.3927  143.4251  157.2217 H   0  0  0  0  0  0  0  0  0  0  0  0
  150.7968  142.1867  159.4807 H   0  0  0  0  0  0  0  0  0  0  0  0
  153.3339  143.6243  160.2476 H   0  0  0  0  0  0  0  0  0  0  0  0
  151.9632  143.1711  161.2563 H   0  0  0  0  0  0  0  0  0  0  0  0
  154.4004  141.6920  160.7398 H   0  0  0  0  0  0  0  0  0  0  0  0
  153.0545  141.1275  161.7255 H   0  0  0  0  0  0  0  0  0  0  0  0
  152.0295  140.0105  159.9575 H   0  0  0  0  0  0  0  0  0  0  0  0
  154.3085  138.9711  160.0741 H   0  0  0  0  0  0  0  0  0  0  0  0
  154.8873  140.0917  158.8437 H   0  0  0  0  0  0  0  0  0  0  0  0
  153.6607  138.8925  158.4421 H   0  0  0  0  0  0  0  0  0  0  0  0
  152.4603  138.8057  155.0013 H   0  0  0  0  0  0  0  0  0  0  0  0
  147.4021  141.8221  157.6093 H   0  0  0  0  0  0  0  0  0  0  0  0
  147.8365  139.1554  154.9088 H   0  0  0  0  0  0  0  0  0  0  0  0
  146.6150  139.8511  155.9504 H   0  0  0  0  0  0  0  0  0  0  0  0
  148.0769  141.4733  153.8163 H   0  0  0  0  0  0  0  0  0  0  0  0
  145.4871  140.7384  153.3551 H   0  0  0  0  0  0  0  0  0  0  0  0
  147.0244  142.7894  155.6217 H   0  0  0  0  0  0  0  0  0  0  0  0
  146.7770  144.2884  153.9097 H   0  0  0  0  0  0  0  0  0  0  0  0
  146.0734  143.1262  152.7944 H   0  0  0  0  0  0  0  0  0  0  0  0
  144.5538  144.9805  154.3083 H   0  0  0  0  0  0  0  0  0  0  0  0
  143.9428  143.5431  153.4884 H   0  0  0  0  0  0  0  0  0  0  0  0
  144.8031  143.7828  156.3920 H   0  0  0  0  0  0  0  0  0  0  0  0
  143.3640  142.9837  155.7432 H   0  0  0  0  0  0  0  0  0  0  0  0
  1  2  1  0  0  0  0
  1 26  1  0  0  0  0
  1 27  1  0  0  0  0
  1 28  1  0  0  0  0
  2  3  1  0  0  0  0
  2 29  1  0  0  0  0
  2 30  1  0  0  0  0
  3  8  1  0  0  0  0
  3  4  1  0  0  0  0
  3 31  1  0  0  0  0
  4  5  1  0  0  0  0
  4 32  1  0  0  0  0
  4 33  1  0  0  0  0
  5  6  1  0  0  0  0
  5 34  1  0  0  0  0
  5 35  1  0  0  0  0
  6  7  1  0  0  0  0
  6  8  1  0  0  0  0
  6 36  1  0  0  0  0
  7 37  1  0  0  0  0
  7 38  1  0  0  0  0
  7 39  1  0  0  0  0
  8  9  1  0  0  0  0
  9 14  1  0  0  0  0
  9 10  2  0  0  0  0
 10 11  1  0  0  0  0
 11 12  2  0  0  0  0
 11 40  1  0  0  0  0
 12 13  1  0  0  0  0
 13 17  1  0  0  0  0
 13 14  2  0  0  0  0
 14 15  1  0  0  0  0
 15 16  2  0  0  0  0
 16 17  1  0  0  0  0
 16 41  1  0  0  0  0
 17 18  1  0  0  0  0
 18 19  1  0  0  0  0
 18 42  1  0  0  0  0
 18 43  1  0  0  0  0
 19 20  1  0  0  0  0
 19 21  1  0  0  0  0
 19 44  1  0  0  0  0
 20 45  1  0  0  0  0
 21 25  1  0  0  0  0
 21 22  1  0  0  0  0
 21 46  1  0  0  0  0
 22 23  1  0  0  0  0
 22 47  1  0  0  0  0
 22 48  1  0  0  0  0
 23 24  1  0  0  0  0
 23 49  1  0  0  0  0
 23 50  1  0  0  0  0
 24 25  1  0  0  0  0
 24 51  1  0  0  0  0
 24 52  1  0  0  0  0
M  END
> <s_m_source_file>
AV-unprocessed.smi

> <i_m_source_file_index>
232

> <i_lp_mmshare_version>
43012

> <i_f3d_flags>
0

> <s_epik_input>
W0NIM11bQ0gyXVtDQEBIXTFbQ0gyXVtDSDJdW0NAQEhdKFtDSDNdKU4xYyhuW2NIXW4yKWMoYzIzKW5bY0hdbjNbQ0gyXVtDQEhdKFtPSF0pW0NAQEhdNFtDSDJdW0NIMl1bQ0gyXU80

> <s_epik_cmdline>
J2VwaWtfcHl0aG9uJywgJy1waCcsICc3LjAnLCAnLXRuJywgJzgnLCAnLW1hJywgJzIwMCcsICctbWV0YWxfYmluZGluZycsICctaW1hZScsICc8aW5maWxlLm1hZT4nLCAnLW9tYWUnLCAnPG91dGZpbGUubWFlPic=

> <r_lp_tautomer_probability>
1

> <r_epik_Ionization_Penalty>
0.00258048

> <r_epik_Ionization_Penalty_Charging>
0

> <r_epik_Ionization_Penalty_Neutral>
0.00258048

> <r_epik_State_Penalty>
0.00168551

> <r_epik_Charging_Adjusted_Penalty>
0.00168551

> <i_epik_Tot_Q>
0

> <i_epik_Tot_abs_Q>
0

> <r_epik_Metal_State_Penalty>
-0

> <b_epik_Metal_Only>
0

> <s_lp_Force_Field>
OPLS_2005

> <r_lp_Energy>
54.2714

> <b_lp_Chiralities_Consistent>
1

> <s_lp_Variant>
AV-unprocessed.smi:232-15

> <Gold.Version>
5.8.1

> <Gold.Id.Protein>
6NUR|6NUR_protein|mol2

> <Gold.PLP.Fitness>
48.5570

> <Gold.PLP.PLP>
-45.3866

> <Gold.PLP.part.hbond>
-2.0000

> <Gold.PLP.part.metal>
0.0000

> <Gold.PLP.part.buried>
-5.0963

> <Gold.PLP.part.nonpolar>
-38.3391

> <Gold.PLP.part.repulsive>
0.2573

> <Gold.PLP.ligand.clash>
0.3702

> <Gold.PLP.ligand.torsion>
1.0323

> <Gold.PLP.Chemscore.Hbond>
1.8320

> <Gold.PLP.Chemscore.CHOScore>
0.0000

> <Gold.PLP.Chemscore.Metal>
0.0000

> <Gold.Chemscore.Hbonds>
donor molecule, donor type, donor heavy atom, donor atom, acceptor molecule, acceptor atom, score
      L1  H    20    45       P1 10175  0.82
      P1  H  7997  8008       L1    10  1.00

> <Gold.PLP.Chemscore.Internal.Correction>
0.1092

> <Gold.Rescore>
     Score         DG    S(hbond)    S(metal)    S(lipo)     H(rot)  DE(clash)    DE(int)     intcor
     14.62     -17.77       1.74        0.00     108.36       2.43       0.33       2.81       ----

> <Gold.Chemscore.Fitness>
14.6247

> <Gold.Chemscore.DG>
-17.7657

> <Gold.Chemscore.ZeroCoef>
-5.4800

> <Gold.Chemscore.Hbond>
1.7422

> <Gold.Chemscore.Metal>
0.0000

> <Gold.Chemscore.Lipo>
108.3551

> <Gold.Chemscore.Internal_Hbond>
0.0000

> <Gold.Chemscore.DEClash>
0.3340

> <Gold.Chemscore.DEInternal>
2.8070

> <Gold.Chemscore.Rot>
2.4260

> <Gold.Chemscore.Internal.Correction>
   9.000000E+99

> <Gold.Chemscore.Hbonds>
donor molecule, donor type, donor heavy atom, donor atom, acceptor molecule, acceptor atom, score
      L1  H    20    45       P1 10175  0.63
      P1  H  7997  8008       L1    10  0.92

> <Gold.Chemscore.Hbond.Weighted>
-5.8188

> <Gold.Chemscore.Metal.Weighted>
-0.0000

> <Gold.Chemscore.Lipo.Weighted>
-12.6775

> <Gold.Chemscore.Internal_Hbond.Weighted>
0.0000

> <Gold.Chemscore.DEClash.Weighted>
0.3340

> <Gold.Chemscore.DEInternal.Weighted>
2.8070

> <Gold.Chemscore.Rot.Weighted>
6.2107

> <Gold.Chemscore.Internal.Correction.Weighted>
   9.000000E+99

> <Gold.Protein.RotatedTorsions>
[ 6907 6896 6895 6894 ] final   81.37 input  -60.11 | X-H torsion
[ 7974 7965 7964 7962 ] final -109.05 input  175.53 | X-H torsion
[ 8008 7997 7996 7995 ] final  -53.32 input   59.86 | X-H torsion
[ 10167 10162 10161 10158 ] final  -14.78 input  -65.29 | X-H torsion
[ 10718 10713 10712 10709 ] final   48.77 input   66.30 | X-H torsion
[ 10763 10752 10751 10750 ] final    2.06 input  -60.55 | X-H torsion
[ 11005 11000 10999 10996 ] final   29.18 input  -57.11 | X-H torsion

> <Gold.Protein.ActiveResidues>
 VAL166  LYS551  ARG553  GLY616  TRP617  ASP618  TYR619  PRO620  LYS621  CYS622 
 ASP623  PHE694  ASN695  SER759  ASP760  ASP761  ALA762  ILE779  LEU786  VAL792 
 PHE793  MET794  SER795  GLU796  ALA797  LYS798  CYS799  TRP800  GLU811  SER814 

> <Gold.Protein.RotatedAtoms>
  152.5266  134.3215  159.9149 H   0  0  0  0  0  0  0  0  0  0  0  0  # atno 6907 bound_to 6896
  151.3164  133.4052  159.2658 H   0  0  0  0  0  0  0  0  0  0  0  0  # atno 6908 bound_to 6896
  150.9995  134.9328  159.8003 H   0  0  0  0  0  0  0  0  0  0  0  0  # atno 6909 bound_to 6896
  145.1853  140.8990  143.3456 H   0  0  0  0  0  0  0  0  0  0  0  0  # atno 7974 bound_to 7965
  154.4130  140.1203  156.5135 H   0  0  0  0  0  0  0  0  0  0  0  0  # atno 8008 bound_to 7997
  155.6775  140.3496  155.4823 H   0  0  0  0  0  0  0  0  0  0  0  0  # atno 8009 bound_to 7997
  155.9580  140.1117  157.0910 H   0  0  0  0  0  0  0  0  0  0  0  0  # atno 8010 bound_to 7997
  140.7207  143.5286  150.9547 H   0  0  0  0  0  0  0  0  0  0  0  0  # atno 10167 bound_to 10162
  157.4720  130.8261  149.7998 H   0  0  0  0  0  0  0  0  0  0  0  0  # atno 10718 bound_to 10713
  153.3003  135.6955  153.7210 H   0  0  0  0  0  0  0  0  0  0  0  0  # atno 10763 bound_to 10752
  153.6127  135.3441  155.2985 H   0  0  0  0  0  0  0  0  0  0  0  0  # atno 10764 bound_to 10752
  154.8548  135.4367  154.2111 H   0  0  0  0  0  0  0  0  0  0  0  0  # atno 10765 bound_to 10752
  140.3077  134.2685  155.7740 H   0  0  0  0  0  0  0  0  0  0  0  0  # atno 11005 bound_to 11000
  145.0096  139.3523  143.6127 LP  0  0  0  0  0  0  0  0  0  0  0  0  # atno 17320 bound_to 7965
  146.3446  139.9352  142.8748 LP  0  0  0  0  0  0  0  0  0  0  0  0  # atno 17321 bound_to 7965
  139.9005  143.6841  152.3132 LP  0  0  0  0  0  0  0  0  0  0  0  0  # atno 17342 bound_to 10162
  139.7189  144.7606  151.0988 LP  0  0  0  0  0  0  0  0  0  0  0  0  # atno 17343 bound_to 10162
  156.0078  130.3847  150.2369 LP  0  0  0  0  0  0  0  0  0  0  0  0  # atno 17370 bound_to 10713
  157.0552  131.0074  151.3240 LP  0  0  0  0  0  0  0  0  0  0  0  0  # atno 17371 bound_to 10713
  141.2115  133.7688  156.9861 LP  0  0  0  0  0  0  0  0  0  0  0  0  # atno 17394 bound_to 11000
  140.1052  134.9511  157.1984 LP  0  0  0  0  0  0  0  0  0  0  0  0  # atno 17395 bound_to 11000

$$$$
