AV-unprocessed.smi:3330|AV-procd|sdf|12811|dock1
  -GOLD-   2272019183D 1   1.00000     0.00000
 Structure written by MMmdl.
 38 39  0  0  0  0  0  0  0  0  3 V2000
  149.3493  137.9643  155.3587 C   0  0  0  0  0  0  0  0  0  0  0  0
  148.0451  137.5579  154.6479 C   0  0  2  0  0  0  0  0  0  0  0  0
  148.1643  136.1498  154.2072 N   0  3  0  0  0  0  0  0  0  0  0  0
  148.7895  135.2411  155.1885 C   0  0  0  0  0  0  0  0  0  0  0  0
  149.6738  134.2024  154.4847 C   0  0  0  0  0  0  0  0  0  0  0  0
  150.3349  133.3280  155.4566 N   0  0  0  0  0  0  0  0  0  0  0  0
  150.2832  131.9931  155.4280 C   0  0  0  0  0  0  0  0  0  0  0  0
  149.6888  131.2778  154.6215 O   0  0  0  0  0  0  0  0  0  0  0  0
  151.1152  131.4811  156.5807 C   0  0  0  0  0  0  0  0  0  0  0  0
  151.5996  132.7052  157.1784 N   0  5  0  0  0  0  0  0  0  0  0  0
  151.1112  133.7509  156.4722 C   0  0  0  0  0  0  0  0  0  0  0  0
  151.3234  134.9451  156.6805 O   0  0  0  0  0  0  0  0  0  0  0  0
  147.6963  138.4790  153.4464 C   0  0  1  0  0  0  0  0  0  0  0  0
  146.3299  138.1550  152.8123 C   0  0  0  0  0  0  0  0  0  0  0  0
  147.7562  139.8911  153.8028 N   0  0  0  0  0  0  0  0  0  0  0  0
  146.7390  140.8231  153.7720 C   0  0  0  0  0  0  0  0  0  0  0  0
  147.2616  142.0125  154.1920 C   0  0  0  0  0  0  0  0  0  0  0  0
  148.6235  141.7059  154.4656 C   0  0  0  0  0  0  0  0  0  0  0  0
  148.9164  140.4367  154.2333 N   0  0  0  0  0  0  0  0  0  0  0  0
  149.2758  138.9550  155.8073 H   0  0  0  0  0  0  0  0  0  0  0  0
  150.1921  137.9736  154.6669 H   0  0  0  0  0  0  0  0  0  0  0  0
  149.5879  137.2689  156.1640 H   0  0  0  0  0  0  0  0  0  0  0  0
  147.2459  137.6307  155.3879 H   0  0  0  0  0  0  0  0  0  0  0  0
  147.2421  135.8039  153.9842 H   0  0  0  0  0  0  0  0  0  0  0  0
  149.3851  135.8282  155.8891 H   0  0  0  0  0  0  0  0  0  0  0  0
  148.0140  134.7398  155.7684 H   0  0  0  0  0  0  0  0  0  0  0  0
  149.0742  133.6029  153.7971 H   0  0  0  0  0  0  0  0  0  0  0  0
  150.4192  134.7051  153.8659 H   0  0  0  0  0  0  0  0  0  0  0  0
  150.4937  130.8892  157.2534 H   0  0  0  0  0  0  0  0  0  0  0  0
  151.9136  130.8392  156.2067 H   0  0  0  0  0  0  0  0  0  0  0  0
  148.4551  138.3233  152.6779 H   0  0  0  0  0  0  0  0  0  0  0  0
  146.3162  137.1543  152.3808 H   0  0  0  0  0  0  0  0  0  0  0  0
  146.0968  138.8529  152.0075 H   0  0  0  0  0  0  0  0  0  0  0  0
  145.5243  138.2127  153.5450 H   0  0  0  0  0  0  0  0  0  0  0  0
  145.7386  140.5663  153.4558 H   0  0  0  0  0  0  0  0  0  0  0  0
  146.7484  142.9578  154.2905 H   0  0  0  0  0  0  0  0  0  0  0  0
  149.4024  142.3629  154.8239 H   0  0  0  0  0  0  0  0  0  0  0  0
  148.7266  136.1276  153.3686 H   0  0  0  0  0  0  0  0  0  0  0  0
  1  2  1  0  0  0  0
  1 20  1  0  0  0  0
  1 21  1  0  0  0  0
  1 22  1  0  0  0  0
  2  3  1  0  0  0  0
  2 13  1  0  0  0  0
  2 23  1  0  0  0  0
  3  4  1  0  0  0  0
  3 24  1  0  0  0  0
  3 38  1  0  0  0  0
  4  5  1  0  0  0  0
  4 25  1  0  0  0  0
  4 26  1  0  0  0  0
  5  6  1  0  0  0  0
  5 27  1  0  0  0  0
  5 28  1  0  0  0  0
  6 11  1  0  0  0  0
  6  7  1  0  0  0  0
  7  8  2  0  0  0  0
  7  9  1  0  0  0  0
  9 10  1  0  0  0  0
  9 29  1  0  0  0  0
  9 30  1  0  0  0  0
 10 11  1  0  0  0  0
 11 12  2  0  0  0  0
 13 14  1  0  0  0  0
 13 15  1  0  0  0  0
 13 31  1  0  0  0  0
 14 32  1  0  0  0  0
 14 33  1  0  0  0  0
 14 34  1  0  0  0  0
 15 19  1  0  0  0  0
 15 16  1  0  0  0  0
 16 17  2  0  0  0  0
 16 35  1  0  0  0  0
 17 18  1  0  0  0  0
 17 36  1  0  0  0  0
 18 19  2  0  0  0  0
 18 37  1  0  0  0  0
M  CHG  1   3   1
M  CHG  1  10  -1
M  END
> <s_m_source_file>
AV-unprocessed.smi

> <i_m_source_file_index>
3330

> <i_lp_mmshare_version>
43012

> <i_f3d_flags>
0

> <s_epik_input>
bjFbY0hdW2NIXVtjSF1uMVtDQEBIXShbQ0gzXSlbQ0BIXShbQ0gzXSlbTkhdW0NIMl1bQ0gyXU4yQyg9TylbQ0gyXVtOSF1DMj1P

> <s_epik_cmdline>
J2VwaWtfcHl0aG9uJywgJy1waCcsICc3LjAnLCAnLXRuJywgJzgnLCAnLW1hJywgJzIwMCcsICctbWV0YWxfYmluZGluZycsICctaW1hZScsICc8aW5maWxlLm1hZT4nLCAnLW9tYWUnLCAnPG91dGZpbGUubWFlPic=

> <r_lp_tautomer_probability>
1

> <r_epik_Ionization_Penalty>
5.18149

> <r_epik_Ionization_Penalty_Charging>
5.18148

> <r_epik_Ionization_Penalty_Neutral>
9.83265e-06

> <r_epik_State_Penalty>
5.18201

> <r_epik_Charging_Adjusted_Penalty>
10.3635

> <i_epik_Tot_Q>
0

> <i_epik_Tot_abs_Q>
2

> <r_epik_Metal_State_Penalty>
1.25422

> <b_epik_Metal_Only>
1

> <s_lp_Force_Field>
OPLS_2005

> <r_lp_Energy>
16.3237

> <b_lp_Chiralities_Consistent>
1

> <s_lp_Variant>
AV-unprocessed.smi:3330-11

> <Gold.Version>
5.8.1

> <Gold.Id.Protein>
6NUR|6NUR_protein|mol2

> <Gold.PLP.Fitness>
42.7759

> <Gold.PLP.PLP>
-26.2238

> <Gold.PLP.part.hbond>
-2.1718

> <Gold.PLP.part.metal>
0.0000

> <Gold.PLP.part.buried>
-1.1906

> <Gold.PLP.part.nonpolar>
-23.9216

> <Gold.PLP.part.repulsive>
0.1549

> <Gold.PLP.ligand.clash>
0.0000

> <Gold.PLP.ligand.torsion>
0.5183

> <Gold.PLP.Chemscore.Hbond>
4.0000

> <Gold.PLP.Chemscore.CHOScore>
1.8107

> <Gold.PLP.Chemscore.Metal>
0.0000

> <Gold.Chemscore.Hbonds>
donor molecule, donor type, donor heavy atom, donor atom, acceptor molecule, acceptor atom, score
      L1  H     3    38       P1  7948  1.92
      P1  H  6896  6909       L1    10  1.43
      L1  C    16    35       P1 10175  1.00
      L1  C    18    37       P1  8028  0.80

> <Gold.PLP.Chemscore.Internal.Correction>
0.1564

> <Gold.Rescore>
     Score         DG    S(hbond)    S(metal)    S(lipo)     H(rot)  DE(clash)    DE(int)     intcor
     10.52     -12.79       2.33        0.00      52.49       2.59       0.27       2.00       ----

> <Gold.Chemscore.Fitness>
10.5166

> <Gold.Chemscore.DG>
-12.7851

> <Gold.Chemscore.ZeroCoef>
-5.4800

> <Gold.Chemscore.Hbond>
2.3339

> <Gold.Chemscore.Metal>
0.0000

> <Gold.Chemscore.Lipo>
52.4867

> <Gold.Chemscore.Internal_Hbond>
0.0000

> <Gold.Chemscore.DEClash>
0.2670

> <Gold.Chemscore.DEInternal>
2.0014

> <Gold.Chemscore.Rot>
2.5903

> <Gold.Chemscore.Internal.Correction>
   9.000000E+99

> <Gold.Chemscore.Hbonds>
donor molecule, donor type, donor heavy atom, donor atom, acceptor molecule, acceptor atom, score
      L1  H     3    38       P1  7948  0.90
      P1  H  6896  6909       L1    10  0.27

> <Gold.Chemscore.Hbond.Weighted>
-7.7952

> <Gold.Chemscore.Metal.Weighted>
-0.0000

> <Gold.Chemscore.Lipo.Weighted>
-6.1409

> <Gold.Chemscore.Internal_Hbond.Weighted>
0.0000

> <Gold.Chemscore.DEClash.Weighted>
0.2670

> <Gold.Chemscore.DEInternal.Weighted>
2.0014

> <Gold.Chemscore.Rot.Weighted>
6.6311

> <Gold.Chemscore.Internal.Correction.Weighted>
   9.000000E+99

> <Gold.Protein.RotatedTorsions>
[ 6907 6896 6895 6894 ] final  -44.46 input  -60.11 | X-H torsion
[ 7974 7965 7964 7962 ] final   19.25 input  175.53 | X-H torsion
[ 8008 7997 7996 7995 ] final   78.59 input   59.86 | X-H torsion
[ 10167 10162 10161 10158 ] final   82.44 input  -65.29 | X-H torsion
[ 10718 10713 10712 10709 ] final -135.10 input   66.30 | X-H torsion
[ 10763 10752 10751 10750 ] final   78.51 input  -60.55 | X-H torsion
[ 11005 11000 10999 10996 ] final   23.92 input  -57.11 | X-H torsion

> <Gold.Protein.ActiveResidues>
 VAL166  LYS551  ARG553  GLY616  TRP617  ASP618  TYR619  PRO620  LYS621  CYS622 
 ASP623  PHE694  ASN695  SER759  ASP760  ASP761  ALA762  ILE779  LEU786  VAL792 
 PHE793  MET794  SER795  GLU796  ALA797  LYS798  CYS799  TRP800  GLU811  SER814 

> <Gold.Protein.RotatedAtoms>
  150.9326  134.8740  159.7560 H   0  0  0  0  0  0  0  0  0  0  0  0  # atno 6907 bound_to 6896
  152.5044  134.4058  159.9442 H   0  0  0  0  0  0  0  0  0  0  0  0  # atno 6908 bound_to 6896
  151.4084  133.3695  159.2776 H   0  0  0  0  0  0  0  0  0  0  0  0  # atno 6909 bound_to 6896
  146.2156  139.8340  142.8654 H   0  0  0  0  0  0  0  0  0  0  0  0  # atno 7974 bound_to 7965
  155.8579  140.3455  155.5736 H   0  0  0  0  0  0  0  0  0  0  0  0  # atno 8008 bound_to 7997
  155.7966  140.0879  157.1999 H   0  0  0  0  0  0  0  0  0  0  0  0  # atno 8009 bound_to 7997
  154.4010  140.1473  156.3212 H   0  0  0  0  0  0  0  0  0  0  0  0  # atno 8010 bound_to 7997
  139.9287  144.6166  150.8366 H   0  0  0  0  0  0  0  0  0  0  0  0  # atno 10167 bound_to 10162
  156.2626  130.7218  151.1158 H   0  0  0  0  0  0  0  0  0  0  0  0  # atno 10718 bound_to 10713
  153.0880  135.4874  154.8635 H   0  0  0  0  0  0  0  0  0  0  0  0  # atno 10763 bound_to 10752
  154.7235  135.3044  154.9012 H   0  0  0  0  0  0  0  0  0  0  0  0  # atno 10764 bound_to 10752
  153.9669  135.6806  153.4799 H   0  0  0  0  0  0  0  0  0  0  0  0  # atno 10765 bound_to 10752
  140.3643  134.2091  155.7670 H   0  0  0  0  0  0  0  0  0  0  0  0  # atno 11005 bound_to 11000
  145.2967  141.0183  143.3632 LP  0  0  0  0  0  0  0  0  0  0  0  0  # atno 17320 bound_to 7965
  144.9036  139.4617  143.6620 LP  0  0  0  0  0  0  0  0  0  0  0  0  # atno 17321 bound_to 7965
  140.7643  143.3245  151.2547 LP  0  0  0  0  0  0  0  0  0  0  0  0  # atno 17342 bound_to 10162
  139.6800  143.9871  152.2803 LP  0  0  0  0  0  0  0  0  0  0  0  0  # atno 17343 bound_to 10162
  157.7256  131.0652  150.5947 LP  0  0  0  0  0  0  0  0  0  0  0  0  # atno 17370 bound_to 10713
  156.6036  130.4361  149.5887 LP  0  0  0  0  0  0  0  0  0  0  0  0  # atno 17371 bound_to 10713
  141.1974  133.8059  157.0627 LP  0  0  0  0  0  0  0  0  0  0  0  0  # atno 17394 bound_to 11000
  140.0602  134.9759  157.1291 LP  0  0  0  0  0  0  0  0  0  0  0  0  # atno 17395 bound_to 11000

$$$$
