AV-unprocessed.smi:794|AV-procd|sdf|3758|dock5
  -GOLD-   22720 1193D 1   1.00000     0.00000
 Structure written by MMmdl.
 41 43  0  0  0  0  0  0  0  0  1 V2000
  142.6968  144.1375  161.9141 C   0  0  0  0  0  0  0  0  0  0  0  0
  143.4619  144.6220  160.7208 C   0  0  0  0  0  0  0  0  0  0  0  0
  144.8172  144.3030  160.5936 N   0  0  0  0  0  0  0  0  0  0  0  0
  145.3531  144.8052  159.4766 C   0  0  0  0  0  0  0  0  0  0  0  0
  146.7086  144.6347  159.0906 N   0  0  0  0  0  0  0  0  0  0  0  0
  147.6376  143.8398  159.6499 C   0  0  0  0  0  0  0  0  0  0  0  0
  147.4557  143.1056  160.6216 O   0  0  0  0  0  0  0  0  0  0  0  0
  148.8131  143.9458  159.0150 N   0  0  0  0  0  0  0  0  0  0  0  0
  150.0278  143.2230  159.3864 C   0  0  2  0  0  0  0  0  0  0  0  0
  151.0851  144.1136  160.0868 C   0  0  2  0  0  0  0  0  0  0  0  0
  151.3787  145.3914  159.2711 C   0  0  0  0  0  0  0  0  0  0  0  0
  152.1319  144.8422  158.0454 C   0  0  0  0  0  0  0  0  0  0  0  0
  152.1942  143.3294  158.3331 C   0  0  1  0  0  0  0  0  0  0  0  0
  152.3604  143.3156  159.8486 C   0  0  0  0  0  0  0  0  0  0  0  0
  150.7906  142.7108  158.1356 C   0  0  1  0  0  0  0  0  0  0  0  0
  150.8259  141.1743  158.0254 C   0  0  0  0  0  0  0  0  0  0  0  0
  151.6984  140.7811  156.9872 O   0  0  0  0  0  0  0  0  0  0  0  0
  144.2156  145.7159  158.4981 S   0  0  0  0  0  0  0  0  0  0  0  0
  142.9741  145.3759  159.6784 C   0  0  0  0  0  0  0  0  0  0  0  0
  141.5823  145.8825  159.4940 C   0  0  0  0  0  0  0  0  0  0  0  0
  142.1585  144.9545  162.3947 H   0  0  0  0  0  0  0  0  0  0  0  0
  143.3540  143.6932  162.6623 H   0  0  0  0  0  0  0  0  0  0  0  0
  141.9642  143.3824  161.6289 H   0  0  0  0  0  0  0  0  0  0  0  0
  147.0051  145.1815  158.2959 H   0  0  0  0  0  0  0  0  0  0  0  0
  148.8772  144.5688  158.2234 H   0  0  0  0  0  0  0  0  0  0  0  0
  149.7676  142.3866  160.0388 H   0  0  0  0  0  0  0  0  0  0  0  0
  150.8613  144.3107  161.1357 H   0  0  0  0  0  0  0  0  0  0  0  0
  150.4839  145.9514  158.9991 H   0  0  0  0  0  0  0  0  0  0  0  0
  152.0216  146.0657  159.8385 H   0  0  0  0  0  0  0  0  0  0  0  0
  151.6227  145.0674  157.1076 H   0  0  0  0  0  0  0  0  0  0  0  0
  153.1342  145.2693  157.9905 H   0  0  0  0  0  0  0  0  0  0  0  0
  152.9838  142.8199  157.7797 H   0  0  0  0  0  0  0  0  0  0  0  0
  153.2622  143.8268  160.1905 H   0  0  0  0  0  0  0  0  0  0  0  0
  152.3338  142.3162  160.2853 H   0  0  0  0  0  0  0  0  0  0  0  0
  150.3554  143.1044  157.2149 H   0  0  0  0  0  0  0  0  0  0  0  0
  151.1844  140.7365  158.9574 H   0  0  0  0  0  0  0  0  0  0  0  0
  149.8341  140.7628  157.8373 H   0  0  0  0  0  0  0  0  0  0  0  0
  152.4414  141.3651  156.9815 H   0  0  0  0  0  0  0  0  0  0  0  0
  140.8653  145.0619  159.5238 H   0  0  0  0  0  0  0  0  0  0  0  0
  141.4698  146.3912  158.5364 H   0  0  0  0  0  0  0  0  0  0  0  0
  141.3208  146.5887  160.2823 H   0  0  0  0  0  0  0  0  0  0  0  0
  1  2  1  0  0  0  0
  1 21  1  0  0  0  0
  1 22  1  0  0  0  0
  1 23  1  0  0  0  0
  2 19  2  0  0  0  0
  2  3  1  0  0  0  0
  3  4  2  0  0  0  0
  4  5  1  0  0  0  0
  4 18  1  0  0  0  0
  5  6  1  0  0  0  0
  5 24  1  0  0  0  0
  6  7  2  0  0  0  0
  6  8  1  0  0  0  0
  8  9  1  0  0  0  0
  8 25  1  0  0  0  0
  9 15  1  0  0  0  0
  9 10  1  0  0  0  0
  9 26  1  0  0  0  0
 10 14  1  0  0  0  0
 10 11  1  0  0  0  0
 10 27  1  0  0  0  0
 11 12  1  0  0  0  0
 11 28  1  0  0  0  0
 11 29  1  0  0  0  0
 12 13  1  0  0  0  0
 12 30  1  0  0  0  0
 12 31  1  0  0  0  0
 13 14  1  0  0  0  0
 13 15  1  0  0  0  0
 13 32  1  0  0  0  0
 14 33  1  0  0  0  0
 14 34  1  0  0  0  0
 15 16  1  0  0  0  0
 15 35  1  0  0  0  0
 16 17  1  0  0  0  0
 16 36  1  0  0  0  0
 16 37  1  0  0  0  0
 17 38  1  0  0  0  0
 18 19  1  0  0  0  0
 19 20  1  0  0  0  0
 20 39  1  0  0  0  0
 20 40  1  0  0  0  0
 20 41  1  0  0  0  0
M  END
> <s_m_source_file>
AV-unprocessed.smi

> <i_m_source_file_index>
794

> <i_lp_mmshare_version>
43012

> <i_f3d_flags>
0

> <s_epik_input>
W0NIM11jMW5jKHNjMVtDSDNdKVtOSF1DKD1PKVtOSF1bQ0BIXShbQ0BASF0yMylbQ0BIXShbQ0gyXVtPSF0pW0NAQEhdKFtDSDJdMylbQ0gyXVtDSDJdMg==

> <s_epik_cmdline>
J2VwaWtfcHl0aG9uJywgJy1waCcsICc3LjAnLCAnLXRuJywgJzgnLCAnLW1hJywgJzIwMCcsICctbWV0YWxfYmluZGluZycsICctaW1hZScsICc8aW5maWxlLm1hZT4nLCAnLW9tYWUnLCAnPG91dGZpbGUubWFlPic=

> <r_lp_tautomer_probability>
0.999

> <r_epik_Ionization_Penalty>
0.000713029

> <r_epik_Ionization_Penalty_Charging>
0

> <r_epik_Ionization_Penalty_Neutral>
0.000713029

> <r_epik_State_Penalty>
0.000177984

> <r_epik_Charging_Adjusted_Penalty>
0.000177984

> <i_epik_Tot_Q>
0

> <i_epik_Tot_abs_Q>
0

> <r_epik_Metal_State_Penalty>
-0

> <b_epik_Metal_Only>
0

> <s_lp_Force_Field>
OPLS_2005

> <r_lp_Energy>
47.0696

> <b_lp_Chiralities_Consistent>
1

> <s_lp_Variant>
AV-unprocessed.smi:794-3

> <Gold.Version>
5.8.1

> <Gold.Id.Protein>
6NUR|6NUR_protein|mol2

> <Gold.PLP.Fitness>
38.7474

> <Gold.PLP.PLP>
-30.0499

> <Gold.PLP.part.hbond>
-3.7952

> <Gold.PLP.part.metal>
0.0000

> <Gold.PLP.part.buried>
-1.7952

> <Gold.PLP.part.nonpolar>
-25.6714

> <Gold.PLP.part.repulsive>
0.2794

> <Gold.PLP.ligand.clash>
0.0000

> <Gold.PLP.ligand.torsion>
0.2620

> <Gold.PLP.Chemscore.Hbond>
3.0678

> <Gold.PLP.Chemscore.CHOScore>
0.0000

> <Gold.PLP.Chemscore.Metal>
0.0000

> <Gold.Chemscore.Hbonds>
donor molecule, donor type, donor heavy atom, donor atom, acceptor molecule, acceptor atom, score
      L1  H     5    24       P1  8029  0.99
      L1  H     8    25       P1  8029  0.85
      P1  H  6933  6944       L1     7  0.98
      P1  H  6934  6946       L1     7  0.20

> <Gold.PLP.Chemscore.Internal.Correction>
0.0183

> <Gold.Rescore>
     Score         DG    S(hbond)    S(metal)    S(lipo)     H(rot)  DE(clash)    DE(int)     intcor
     20.65     -24.20       3.23        0.00     106.79       1.78       2.03       1.52       ----

> <Gold.Chemscore.Fitness>
20.6483

> <Gold.Chemscore.DG>
-24.1983

> <Gold.Chemscore.ZeroCoef>
-5.4800

> <Gold.Chemscore.Hbond>
3.2274

> <Gold.Chemscore.Metal>
0.0000

> <Gold.Chemscore.Lipo>
106.7949

> <Gold.Chemscore.Internal_Hbond>
0.0000

> <Gold.Chemscore.DEClash>
2.0283

> <Gold.Chemscore.DEInternal>
1.5217

> <Gold.Chemscore.Rot>
1.7798

> <Gold.Chemscore.Internal.Correction>
   9.000000E+99

> <Gold.Chemscore.Hbonds>
donor molecule, donor type, donor heavy atom, donor atom, acceptor molecule, acceptor atom, score
      L1  H     5    24       P1  8029  0.92
      L1  H     8    25       P1  8029  0.33
      P1  H  6933  6944       L1     7  0.91
      P1  H  6934  6946       L1     7  0.20

> <Gold.Chemscore.Hbond.Weighted>
-10.7795

> <Gold.Chemscore.Metal.Weighted>
-0.0000

> <Gold.Chemscore.Lipo.Weighted>
-12.4950

> <Gold.Chemscore.Internal_Hbond.Weighted>
0.0000

> <Gold.Chemscore.DEClash.Weighted>
2.0283

> <Gold.Chemscore.DEInternal.Weighted>
1.5217

> <Gold.Chemscore.Rot.Weighted>
4.5562

> <Gold.Chemscore.Internal.Correction.Weighted>
   9.000000E+99

> <Gold.Protein.RotatedTorsions>
[ 6907 6896 6895 6894 ] final  -49.46 input  -60.11 | X-H torsion
[ 7974 7965 7964 7962 ] final -125.69 input  175.53 | X-H torsion
[ 8008 7997 7996 7995 ] final  176.08 input   59.86 | X-H torsion
[ 10167 10162 10161 10158 ] final  -59.95 input  -65.29 | X-H torsion
[ 10718 10713 10712 10709 ] final   34.57 input   66.30 | X-H torsion
[ 10763 10752 10751 10750 ] final  125.46 input  -60.55 | X-H torsion
[ 11005 11000 10999 10996 ] final  140.01 input  -57.11 | X-H torsion

> <Gold.Protein.ActiveResidues>
 VAL166  LYS551  ARG553  GLY616  TRP617  ASP618  TYR619  PRO620  LYS621  CYS622 
 ASP623  PHE694  ASN695  SER759  ASP760  ASP761  ALA762  ILE779  LEU786  VAL792 
 PHE793  MET794  SER795  GLU796  ALA797  LYS798  CYS799  TRP800  GLU811  SER814 

> <Gold.Protein.RotatedAtoms>
  150.8803  134.8193  159.7219 H   0  0  0  0  0  0  0  0  0  0  0  0  # atno 6907 bound_to 6896
  152.4773  134.4807  159.9674 H   0  0  0  0  0  0  0  0  0  0  0  0  # atno 6908 bound_to 6896
  151.4882  133.3492  159.2884 H   0  0  0  0  0  0  0  0  0  0  0  0  # atno 6909 bound_to 6896
  144.9950  140.7767  143.4531 H   0  0  0  0  0  0  0  0  0  0  0  0  # atno 7974 bound_to 7965
  156.0803  140.1392  156.9721 H   0  0  0  0  0  0  0  0  0  0  0  0  # atno 8008 bound_to 7997
  154.4581  140.0953  156.6864 H   0  0  0  0  0  0  0  0  0  0  0  0  # atno 8009 bound_to 7997
  155.5087  140.3453  155.4386 H   0  0  0  0  0  0  0  0  0  0  0  0  # atno 8010 bound_to 7997
  140.6103  143.2385  151.5725 H   0  0  0  0  0  0  0  0  0  0  0  0  # atno 10167 bound_to 10162
  157.3120  130.7404  149.6730 H   0  0  0  0  0  0  0  0  0  0  0  0  # atno 10718 bound_to 10713
  153.6777  135.3319  155.3170 H   0  0  0  0  0  0  0  0  0  0  0  0  # atno 10763 bound_to 10752
  154.8474  135.4401  154.1639 H   0  0  0  0  0  0  0  0  0  0  0  0  # atno 10764 bound_to 10752
  153.2647  135.6994  153.7619 H   0  0  0  0  0  0  0  0  0  0  0  0  # atno 10765 bound_to 10752
  140.0296  134.9358  157.0636 H   0  0  0  0  0  0  0  0  0  0  0  0  # atno 11005 bound_to 11000
  145.2233  139.2149  143.5082 LP  0  0  0  0  0  0  0  0  0  0  0  0  # atno 17320 bound_to 7965
  146.3440  140.2095  142.8590 LP  0  0  0  0  0  0  0  0  0  0  0  0  # atno 17321 bound_to 7965
  139.5356  144.2791  152.1243 LP  0  0  0  0  0  0  0  0  0  0  0  0  # atno 17342 bound_to 10162
  140.1989  144.4678  150.6441 LP  0  0  0  0  0  0  0  0  0  0  0  0  # atno 17343 bound_to 10162
  155.9678  130.4248  150.4627 LP  0  0  0  0  0  0  0  0  0  0  0  0  # atno 17370 bound_to 10713
  157.2627  131.0570  151.2310 LP  0  0  0  0  0  0  0  0  0  0  0  0  # atno 17371 bound_to 10713
  140.4248  134.1842  155.7165 LP  0  0  0  0  0  0  0  0  0  0  0  0  # atno 17394 bound_to 11000
  141.1823  133.8387  157.1213 LP  0  0  0  0  0  0  0  0  0  0  0  0  # atno 17395 bound_to 11000

$$$$
