AV-unprocessed.smi:1087|AV-procd|sdf|4727|dock10
  -GOLD-   22720 3253D 1   1.00000     0.00000
 Structure written by MMmdl.
 46 47  0  0  0  0  0  0  0  0  1 V2000
  152.3238  143.0351  159.4271 C   0  0  0  0  0  0  0  0  0  0  0  0
  151.5750  141.8376  159.5632 O   0  0  0  0  0  0  0  0  0  0  0  0
  151.0388  141.3418  158.3429 C   0  0  0  0  0  0  0  0  0  0  0  0
  149.6842  141.9731  157.9567 C   0  0  0  0  0  0  0  0  0  0  0  0
  149.0301  141.4083  156.7746 N   0  0  0  0  0  0  0  0  0  0  0  0
  149.8640  141.4903  155.5728 C   0  0  0  0  0  0  0  0  0  0  0  0
  149.1913  140.8616  154.3404 C   0  0  0  0  0  0  0  0  0  0  0  0
  147.8254  141.5128  154.0594 C   0  0  0  0  0  0  0  0  0  0  0  0
  147.1232  140.8445  152.8583 C   0  0  0  0  0  0  0  0  0  0  0  0
  146.3654  139.6594  153.2453 N   0  0  0  0  0  0  0  0  0  0  0  0
  146.2163  138.5589  152.4934 C   0  0  0  0  0  0  0  0  0  0  0  0
  146.7497  138.4154  151.3926 O   0  0  0  0  0  0  0  0  0  0  0  0
  145.3392  137.4497  153.0907 C   0  0  0  0  0  0  0  0  0  0  0  0
  145.5246  136.1477  152.4294 N   0  0  0  0  0  0  0  0  0  0  0  0
  145.0899  136.0254  151.0988 C   0  0  0  0  0  0  0  0  0  0  0  0
  145.2251  134.8688  150.4343 C   0  0  0  0  0  0  0  0  0  0  0  0
  145.8443  133.7602  151.1724 C   0  0  0  0  0  0  0  0  0  0  0  0
  146.2393  133.8675  152.3860 N   0  0  0  0  0  0  0  0  0  0  0  0
  146.0935  135.0821  153.0827 C   0  0  0  0  0  0  0  0  0  0  0  0
  146.4666  135.1912  154.2512 O   0  0  0  0  0  0  0  0  0  0  0  0
  146.9780  141.4750  155.3474 C   0  0  0  0  0  0  0  0  0  0  0  0
  147.7533  142.0800  156.5293 C   0  0  0  0  0  0  0  0  0  0  0  0
  152.6564  143.3667  160.4108 H   0  0  0  0  0  0  0  0  0  0  0  0
  151.7187  143.8327  158.9939 H   0  0  0  0  0  0  0  0  0  0  0  0
  153.2113  142.8934  158.8107 H   0  0  0  0  0  0  0  0  0  0  0  0
  151.7632  141.5327  157.5503 H   0  0  0  0  0  0  0  0  0  0  0  0
  150.9419  140.2569  158.4043 H   0  0  0  0  0  0  0  0  0  0  0  0
  149.0229  141.8184  158.8103 H   0  0  0  0  0  0  0  0  0  0  0  0
  149.7731  143.0547  157.8569 H   0  0  0  0  0  0  0  0  0  0  0  0
  150.1139  142.5316  155.3639 H   0  0  0  0  0  0  0  0  0  0  0  0
  150.8064  140.9699  155.7334 H   0  0  0  0  0  0  0  0  0  0  0  0
  149.8427  140.9667  153.4722 H   0  0  0  0  0  0  0  0  0  0  0  0
  149.0650  139.7906  154.5052 H   0  0  0  0  0  0  0  0  0  0  0  0
  148.0062  142.5594  153.8088 H   0  0  0  0  0  0  0  0  0  0  0  0
  146.4622  141.5560  152.3605 H   0  0  0  0  0  0  0  0  0  0  0  0
  147.8623  140.5427  152.1155 H   0  0  0  0  0  0  0  0  0  0  0  0
  145.8987  139.6893  154.1400 H   0  0  0  0  0  0  0  0  0  0  0  0
  145.5653  137.3767  154.1552 H   0  0  0  0  0  0  0  0  0  0  0  0
  144.2888  137.7430  153.0387 H   0  0  0  0  0  0  0  0  0  0  0  0
  144.6456  136.9111  150.6684 H   0  0  0  0  0  0  0  0  0  0  0  0
  144.9113  134.7067  149.4136 H   0  0  0  0  0  0  0  0  0  0  0  0
  145.9476  132.8265  150.6136 H   0  0  0  0  0  0  0  0  0  0  0  0
  146.0467  142.0249  155.2092 H   0  0  0  0  0  0  0  0  0  0  0  0
  146.7008  140.4461  155.5812 H   0  0  0  0  0  0  0  0  0  0  0  0
  147.1291  142.0192  157.4217 H   0  0  0  0  0  0  0  0  0  0  0  0
  147.9233  143.1421  156.3452 H   0  0  0  0  0  0  0  0  0  0  0  0
  1  2  1  0  0  0  0
  1 23  1  0  0  0  0
  1 24  1  0  0  0  0
  1 25  1  0  0  0  0
  2  3  1  0  0  0  0
  3  4  1  0  0  0  0
  3 26  1  0  0  0  0
  3 27  1  0  0  0  0
  4  5  1  0  0  0  0
  4 28  1  0  0  0  0
  4 29  1  0  0  0  0
  5 22  1  0  0  0  0
  5  6  1  0  0  0  0
  6  7  1  0  0  0  0
  6 30  1  0  0  0  0
  6 31  1  0  0  0  0
  7  8  1  0  0  0  0
  7 32  1  0  0  0  0
  7 33  1  0  0  0  0
  8  9  1  0  0  0  0
  8 21  1  0  0  0  0
  8 34  1  0  0  0  0
  9 10  1  0  0  0  0
  9 35  1  0  0  0  0
  9 36  1  0  0  0  0
 10 11  1  0  0  0  0
 10 37  1  0  0  0  0
 11 12  2  0  0  0  0
 11 13  1  0  0  0  0
 13 14  1  0  0  0  0
 13 38  1  0  0  0  0
 13 39  1  0  0  0  0
 14 19  1  0  0  0  0
 14 15  1  0  0  0  0
 15 16  2  0  0  0  0
 15 40  1  0  0  0  0
 16 17  1  0  0  0  0
 16 41  1  0  0  0  0
 17 18  2  0  0  0  0
 17 42  1  0  0  0  0
 18 19  1  0  0  0  0
 19 20  2  0  0  0  0
 21 22  1  0  0  0  0
 21 43  1  0  0  0  0
 21 44  1  0  0  0  0
 22 45  1  0  0  0  0
 22 46  1  0  0  0  0
M  END
> <s_m_source_file>
AV-unprocessed.smi

> <i_m_source_file_index>
1087

> <i_lp_mmshare_version>
43012

> <i_f3d_flags>
0

> <s_epik_input>
W0NIM11PW0NIMl1bQ0gyXU4xW0NIMl1bQ0gyXVtDSF0oW0NIMl1bQ0gyXTEpW0NIMl1bTkhdQyg9TylbQ0gyXW4yW2NIXVtjSF1bY0hdbmMyPU8=

> <s_epik_cmdline>
J2VwaWtfcHl0aG9uJywgJy1waCcsICc3LjAnLCAnLXRuJywgJzgnLCAnLW1hJywgJzIwMCcsICctbWV0YWxfYmluZGluZycsICctaW1hZScsICc8aW5maWxlLm1hZT4nLCAnLW9tYWUnLCAnPG91dGZpbGUubWFlPic=

> <r_lp_tautomer_probability>
1

> <r_epik_Ionization_Penalty>
2.43401

> <r_epik_Ionization_Penalty_Charging>
1.64716e-08

> <r_epik_Ionization_Penalty_Neutral>
2.43401

> <r_epik_State_Penalty>
2.59428

> <r_epik_Charging_Adjusted_Penalty>
2.59428

> <i_epik_Tot_Q>
0

> <i_epik_Tot_abs_Q>
0

> <r_epik_Metal_State_Penalty>
2.59427

> <b_epik_Metal_Only>
0

> <s_lp_Force_Field>
OPLS_2005

> <r_lp_Energy>
30.2677

> <b_lp_Chiralities_Consistent>
1

> <s_lp_Variant>
AV-unprocessed.smi:1087-3

> <Gold.Version>
5.8.1

> <Gold.Id.Protein>
6NUR|6NUR_protein|mol2

> <Gold.PLP.Fitness>
38.1133

> <Gold.PLP.PLP>
-33.9884

> <Gold.PLP.part.hbond>
-2.3531

> <Gold.PLP.part.metal>
0.0000

> <Gold.PLP.part.buried>
-0.4151

> <Gold.PLP.part.nonpolar>
-31.6808

> <Gold.PLP.part.repulsive>
1.2537

> <Gold.PLP.ligand.clash>
0.0000

> <Gold.PLP.ligand.torsion>
0.8505

> <Gold.PLP.Chemscore.Hbond>
0.9100

> <Gold.PLP.Chemscore.CHOScore>
1.0000

> <Gold.PLP.Chemscore.Metal>
0.0000

> <Gold.Chemscore.Hbonds>
donor molecule, donor type, donor heavy atom, donor atom, acceptor molecule, acceptor atom, score
      P1  H  7954  7966       L1    12  0.75
      L1  C    15    40       P1 10171  1.00

> <Gold.PLP.Chemscore.Internal.Correction>
0.0959

> <Gold.Rescore>
     Score         DG    S(hbond)    S(metal)    S(lipo)     H(rot)  DE(clash)    DE(int)     intcor
      9.04     -11.53       0.78        0.00      81.25       2.37       0.56       1.93       ----

> <Gold.Chemscore.Fitness>
9.0406

> <Gold.Chemscore.DG>
-11.5333

> <Gold.Chemscore.ZeroCoef>
-5.4800

> <Gold.Chemscore.Hbond>
0.7843

> <Gold.Chemscore.Metal>
0.0000

> <Gold.Chemscore.Lipo>
81.2540

> <Gold.Chemscore.Internal_Hbond>
0.0000

> <Gold.Chemscore.DEClash>
0.5625

> <Gold.Chemscore.DEInternal>
1.9302

> <Gold.Chemscore.Rot>
2.3723

> <Gold.Chemscore.Internal.Correction>
   9.000000E+99

> <Gold.Chemscore.Hbonds>
donor molecule, donor type, donor heavy atom, donor atom, acceptor molecule, acceptor atom, score
      P1  H  7954  7966       L1    12  0.74

> <Gold.Chemscore.Hbond.Weighted>
-2.6197

> <Gold.Chemscore.Metal.Weighted>
-0.0000

> <Gold.Chemscore.Lipo.Weighted>
-9.5067

> <Gold.Chemscore.Internal_Hbond.Weighted>
0.0000

> <Gold.Chemscore.DEClash.Weighted>
0.5625

> <Gold.Chemscore.DEInternal.Weighted>
1.9302

> <Gold.Chemscore.Rot.Weighted>
6.0731

> <Gold.Chemscore.Internal.Correction.Weighted>
   9.000000E+99

> <Gold.Protein.RotatedTorsions>
[ 6907 6896 6895 6894 ] final  -15.57 input  -60.11 | X-H torsion
[ 7974 7965 7964 7962 ] final    9.21 input  175.53 | X-H torsion
[ 8008 7997 7996 7995 ] final  -33.51 input   59.86 | X-H torsion
[ 10167 10162 10161 10158 ] final   93.36 input  -65.29 | X-H torsion
[ 10718 10713 10712 10709 ] final   95.09 input   66.30 | X-H torsion
[ 10763 10752 10751 10750 ] final  138.53 input  -60.55 | X-H torsion
[ 11005 11000 10999 10996 ] final  -86.84 input  -57.11 | X-H torsion

> <Gold.Protein.ActiveResidues>
 VAL166  LYS551  ARG553  GLY616  TRP617  ASP618  TYR619  PRO620  LYS621  CYS622 
 ASP623  PHE694  ASN695  SER759  ASP760  ASP761  ALA762  ILE779  LEU786  VAL792 
 PHE793  MET794  SER795  GLU796  ALA797  LYS798  CYS799  TRP800  GLU811  SER814 

> <Gold.Protein.RotatedAtoms>
  151.3220  135.0821  159.9308 H   0  0  0  0  0  0  0  0  0  0  0  0  # atno 6907 bound_to 6896
  152.5254  133.9630  159.7736 H   0  0  0  0  0  0  0  0  0  0  0  0  # atno 6908 bound_to 6896
  150.9952  133.6057  159.2732 H   0  0  0  0  0  0  0  0  0  0  0  0  # atno 6909 bound_to 6896
  146.2406  139.9818  142.8435 H   0  0  0  0  0  0  0  0  0  0  0  0  # atno 7974 bound_to 7965
  154.4147  140.1709  156.1899 H   0  0  0  0  0  0  0  0  0  0  0  0  # atno 8008 bound_to 7997
  155.9612  140.3393  155.6468 H   0  0  0  0  0  0  0  0  0  0  0  0  # atno 8009 bound_to 7997
  155.6746  140.0715  157.2498 H   0  0  0  0  0  0  0  0  0  0  0  0  # atno 8010 bound_to 7997
  139.8188  144.6741  150.9546 H   0  0  0  0  0  0  0  0  0  0  0  0  # atno 10167 bound_to 10162
  157.6942  131.0534  150.4285 H   0  0  0  0  0  0  0  0  0  0  0  0  # atno 10718 bound_to 10713
  153.8912  135.3033  155.3447 H   0  0  0  0  0  0  0  0  0  0  0  0  # atno 10763 bound_to 10752
  154.7715  135.4883  153.9662 H   0  0  0  0  0  0  0  0  0  0  0  0  # atno 10764 bound_to 10752
  153.1297  135.6801  153.9298 H   0  0  0  0  0  0  0  0  0  0  0  0  # atno 10765 bound_to 10752
  141.1625  133.7477  156.9220 H   0  0  0  0  0  0  0  0  0  0  0  0  # atno 11005 bound_to 11000
  145.1585  140.9660  143.4391 LP  0  0  0  0  0  0  0  0  0  0  0  0  # atno 17320 bound_to 7965
  145.0138  139.3485  143.6106 LP  0  0  0  0  0  0  0  0  0  0  0  0  # atno 17321 bound_to 7965
  140.7814  143.4112  151.0989 LP  0  0  0  0  0  0  0  0  0  0  0  0  # atno 17342 bound_to 10162
  139.7774  143.8405  152.3132 LP  0  0  0  0  0  0  0  0  0  0  0  0  # atno 17343 bound_to 10162
  156.4654  130.4041  149.6550 LP  0  0  0  0  0  0  0  0  0  0  0  0  # atno 17370 bound_to 10713
  156.3650  130.7501  151.2478 LP  0  0  0  0  0  0  0  0  0  0  0  0  # atno 17371 bound_to 10713
  140.1445  134.9272  157.2511 LP  0  0  0  0  0  0  0  0  0  0  0  0  # atno 17394 bound_to 11000
  140.2797  134.3364  155.7347 LP  0  0  0  0  0  0  0  0  0  0  0  0  # atno 17395 bound_to 11000

$$$$
