AV-unprocessed.smi:1952|AV-procd|sdf|7886|dock8
  -GOLD-   2272010 43D 1   1.00000     0.00000
 Structure written by MMmdl.
 40 41  0  0  0  0  0  0  0  0  2 V2000
  137.6282  137.1470  154.3412 C   0  0  0  0  0  0  0  0  0  0  0  0
  139.1152  137.1800  154.2468 C   0  0  0  0  0  0  0  0  0  0  0  0
  139.9837  137.9075  153.4822 C   0  0  0  0  0  0  0  0  0  0  0  0
  141.2544  137.4298  153.8997 C   0  0  0  0  0  0  0  0  0  0  0  0
  142.4493  137.9446  153.3346 N   0  0  0  0  0  0  0  0  0  0  0  0
  143.6075  137.2918  153.1400 C   0  0  0  0  0  0  0  0  0  0  0  0
  143.8079  136.1072  153.4100 O   0  0  0  0  0  0  0  0  0  0  0  0
  144.5421  138.0988  152.6150 N   0  0  0  0  0  0  0  0  0  0  0  0
  145.9016  137.7094  152.2362 C   0  0  1  0  0  0  0  0  0  0  0  0
  145.8246  136.5256  151.2624 C   0  0  0  0  0  0  0  0  0  0  0  0
  146.6817  138.8923  151.6157 C   0  0  0  0  0  0  0  0  0  0  0  0
  147.4257  139.6952  152.6193 N   0  3  0  0  0  0  0  0  0  0  0  0
  146.7387  140.9542  152.9973 C   0  0  0  0  0  0  0  0  0  0  0  0
  147.6102  141.7611  153.9735 C   0  0  0  0  0  0  0  0  0  0  0  0
  147.8961  140.9686  155.1199 O   0  0  0  0  0  0  0  0  0  0  0  0
  148.6227  139.7921  154.7864 C   0  0  0  0  0  0  0  0  0  0  0  0
  147.7895  138.9219  153.8295 C   0  0  0  0  0  0  0  0  0  0  0  0
  141.1700  136.4996  154.8384 N   0  0  0  0  0  0  0  0  0  0  0  0
  139.7985  136.3336  155.0644 O   0  0  0  0  0  0  0  0  0  0  0  0
  137.1856  137.9992  153.8252 H   0  0  0  0  0  0  0  0  0  0  0  0
  137.3045  137.1779  155.3818 H   0  0  0  0  0  0  0  0  0  0  0  0
  137.2336  136.2362  153.8905 H   0  0  0  0  0  0  0  0  0  0  0  0
  139.7440  138.6570  152.7427 H   0  0  0  0  0  0  0  0  0  0  0  0
  142.4173  138.9127  153.0506 H   0  0  0  0  0  0  0  0  0  0  0  0
  144.2836  139.0573  152.4301 H   0  0  0  0  0  0  0  0  0  0  0  0
  146.4285  137.3531  153.1226 H   0  0  0  0  0  0  0  0  0  0  0  0
  146.8209  136.1775  150.9882 H   0  0  0  0  0  0  0  0  0  0  0  0
  145.3035  136.7979  150.3438 H   0  0  0  0  0  0  0  0  0  0  0  0
  145.2950  135.6829  151.7083 H   0  0  0  0  0  0  0  0  0  0  0  0
  147.3736  138.5387  150.8498 H   0  0  0  0  0  0  0  0  0  0  0  0
  145.9665  139.5363  151.1013 H   0  0  0  0  0  0  0  0  0  0  0  0
  146.5330  141.5571  152.1135 H   0  0  0  0  0  0  0  0  0  0  0  0
  145.7765  140.7247  153.4582 H   0  0  0  0  0  0  0  0  0  0  0  0
  148.5372  142.0819  153.4954 H   0  0  0  0  0  0  0  0  0  0  0  0
  147.0854  142.6631  154.2889 H   0  0  0  0  0  0  0  0  0  0  0  0
  149.5806  140.0581  154.3364 H   0  0  0  0  0  0  0  0  0  0  0  0
  148.8425  139.2415  155.7014 H   0  0  0  0  0  0  0  0  0  0  0  0
  146.8835  138.5741  154.3285 H   0  0  0  0  0  0  0  0  0  0  0  0
  148.3623  138.0376  153.5479 H   0  0  0  0  0  0  0  0  0  0  0  0
  148.2975  139.9594  152.1818 H   0  0  0  0  0  0  0  0  0  0  0  0
  1  2  1  0  0  0  0
  1 20  1  0  0  0  0
  1 21  1  0  0  0  0
  1 22  1  0  0  0  0
  2 19  1  0  0  0  0
  2  3  2  0  0  0  0
  3  4  1  0  0  0  0
  3 23  1  0  0  0  0
  4  5  1  0  0  0  0
  4 18  2  0  0  0  0
  5  6  1  0  0  0  0
  5 24  1  0  0  0  0
  6  7  2  0  0  0  0
  6  8  1  0  0  0  0
  8  9  1  0  0  0  0
  8 25  1  0  0  0  0
  9 10  1  0  0  0  0
  9 11  1  0  0  0  0
  9 26  1  0  0  0  0
 10 27  1  0  0  0  0
 10 28  1  0  0  0  0
 10 29  1  0  0  0  0
 11 12  1  0  0  0  0
 11 30  1  0  0  0  0
 11 31  1  0  0  0  0
 12 17  1  0  0  0  0
 12 13  1  0  0  0  0
 12 40  1  0  0  0  0
 13 14  1  0  0  0  0
 13 32  1  0  0  0  0
 13 33  1  0  0  0  0
 14 15  1  0  0  0  0
 14 34  1  0  0  0  0
 14 35  1  0  0  0  0
 15 16  1  0  0  0  0
 16 17  1  0  0  0  0
 16 36  1  0  0  0  0
 16 37  1  0  0  0  0
 17 38  1  0  0  0  0
 17 39  1  0  0  0  0
 18 19  1  0  0  0  0
M  CHG  1  12   1
M  END
> <s_m_source_file>
AV-unprocessed.smi

> <i_m_source_file_index>
1952

> <i_lp_mmshare_version>
43012

> <i_f3d_flags>
0

> <s_epik_input>
W0NIM11jMVtjSF1jKG5vMSlbTkhdQyg9TylbTkhdW0NASF0oW0NIM10pW0NIMl1OMltDSDJdW0NIMl1PW0NIMl1bQ0gyXTI=

> <s_epik_cmdline>
J2VwaWtfcHl0aG9uJywgJy1waCcsICc3LjAnLCAnLXRuJywgJzgnLCAnLW1hJywgJzIwMCcsICctbWV0YWxfYmluZGluZycsICctaW1hZScsICc8aW5maWxlLm1hZT4nLCAnLW9tYWUnLCAnPG91dGZpbGUubWFlPic=

> <r_epik_Ionization_Penalty>
0.707079

> <r_epik_Ionization_Penalty_Charging>
0.707039

> <r_epik_Ionization_Penalty_Neutral>
4.01892e-05

> <r_epik_State_Penalty>
0.730276

> <r_epik_Charging_Adjusted_Penalty>
1.43732

> <i_epik_Tot_Q>
1

> <i_epik_Tot_abs_Q>
1

> <r_epik_Metal_State_Penalty>
0.744847

> <b_epik_Metal_Only>
0

> <s_lp_Force_Field>
OPLS_2005

> <r_lp_Energy>
19.2195

> <b_lp_Chiralities_Consistent>
1

> <s_lp_Variant>
AV-unprocessed.smi:1952-4

> <Gold.Version>
5.8.1

> <Gold.Id.Protein>
6NUR|6NUR_protein|mol2

> <Gold.PLP.Fitness>
44.5088

> <Gold.PLP.PLP>
-35.0335

> <Gold.PLP.part.hbond>
-5.5155

> <Gold.PLP.part.metal>
0.0000

> <Gold.PLP.part.buried>
-1.7651

> <Gold.PLP.part.nonpolar>
-29.5460

> <Gold.PLP.part.repulsive>
0.3682

> <Gold.PLP.ligand.clash>
0.0000

> <Gold.PLP.ligand.torsion>
1.1283

> <Gold.PLP.Chemscore.Hbond>
3.9040

> <Gold.PLP.Chemscore.CHOScore>
0.0000

> <Gold.PLP.Chemscore.Metal>
0.0000

> <Gold.Chemscore.Hbonds>
donor molecule, donor type, donor heavy atom, donor atom, acceptor molecule, acceptor atom, score
      L1  H     5    24       P1 10175  0.85
      L1  H     8    25       P1 10175  0.98
      L1  H    12    40       P1  7957  1.00
      P1  H 11000 11005       L1    19  0.95

> <Gold.PLP.Chemscore.Internal.Correction>
0.0198

> <Gold.Rescore>
     Score         DG    S(hbond)    S(metal)    S(lipo)     H(rot)  DE(clash)    DE(int)     intcor
     18.94     -20.98       3.46        0.00      68.96       1.61       0.17       1.87       ----

> <Gold.Chemscore.Fitness>
18.9420

> <Gold.Chemscore.DG>
-20.9828

> <Gold.Chemscore.ZeroCoef>
-5.4800

> <Gold.Chemscore.Hbond>
3.4581

> <Gold.Chemscore.Metal>
0.0000

> <Gold.Chemscore.Lipo>
68.9616

> <Gold.Chemscore.Internal_Hbond>
0.0000

> <Gold.Chemscore.DEClash>
0.1724

> <Gold.Chemscore.DEInternal>
1.8684

> <Gold.Chemscore.Rot>
1.6078

> <Gold.Chemscore.Internal.Correction>
   9.000000E+99

> <Gold.Chemscore.Hbonds>
donor molecule, donor type, donor heavy atom, donor atom, acceptor molecule, acceptor atom, score
      L1  H     5    24       P1 10175  0.80
      L1  H     8    25       P1 10175  0.91
      L1  H    12    40       P1  7957  0.99
      P1  H 11000 11005       L1    19  0.21

> <Gold.Chemscore.Hbond.Weighted>
-11.5501

> <Gold.Chemscore.Metal.Weighted>
-0.0000

> <Gold.Chemscore.Lipo.Weighted>
-8.0685

> <Gold.Chemscore.Internal_Hbond.Weighted>
0.0000

> <Gold.Chemscore.DEClash.Weighted>
0.1724

> <Gold.Chemscore.DEInternal.Weighted>
1.8684

> <Gold.Chemscore.Rot.Weighted>
4.1158

> <Gold.Chemscore.Internal.Correction.Weighted>
   9.000000E+99

> <Gold.Protein.RotatedTorsions>
[ 6907 6896 6895 6894 ] final  118.03 input  -60.11 | X-H torsion
[ 7974 7965 7964 7962 ] final  -94.03 input  175.53 | X-H torsion
[ 8008 7997 7996 7995 ] final  107.80 input   59.86 | X-H torsion
[ 10167 10162 10161 10158 ] final -127.31 input  -65.29 | X-H torsion
[ 10718 10713 10712 10709 ] final  -27.82 input   66.30 | X-H torsion
[ 10763 10752 10751 10750 ] final  103.55 input  -60.55 | X-H torsion
[ 11005 11000 10999 10996 ] final   91.01 input  -57.11 | X-H torsion

> <Gold.Protein.ActiveResidues>
 VAL166  LYS551  ARG553  GLY616  TRP617  ASP618  TYR619  PRO620  LYS621  CYS622 
 ASP623  PHE694  ASN695  SER759  ASP760  ASP761  ALA762  ILE779  LEU786  VAL792 
 PHE793  MET794  SER795  GLU796  ALA797  LYS798  CYS799  TRP800  GLU811  SER814 

> <Gold.Protein.RotatedAtoms>
  152.4571  133.7745  159.6816 H   0  0  0  0  0  0  0  0  0  0  0  0  # atno 6907 bound_to 6896
  150.8501  133.7790  159.3035 H   0  0  0  0  0  0  0  0  0  0  0  0  # atno 6908 bound_to 6896
  151.5388  135.1071  159.9973 H   0  0  0  0  0  0  0  0  0  0  0  0  # atno 6909 bound_to 6896
  145.3786  140.9515  143.2406 H   0  0  0  0  0  0  0  0  0  0  0  0  # atno 7974 bound_to 7965
  156.1853  140.3088  155.9226 H   0  0  0  0  0  0  0  0  0  0  0  0  # atno 8008 bound_to 7997
  155.3294  140.0460  157.3059 H   0  0  0  0  0  0  0  0  0  0  0  0  # atno 8009 bound_to 7997
  154.5389  140.2255  155.8685 H   0  0  0  0  0  0  0  0  0  0  0  0  # atno 8010 bound_to 7997
  139.9622  143.5937  152.2441 H   0  0  0  0  0  0  0  0  0  0  0  0  # atno 10167 bound_to 10162
  156.4332  130.4449  149.7103 H   0  0  0  0  0  0  0  0  0  0  0  0  # atno 10718 bound_to 10713
  153.3542  135.3973  155.1669 H   0  0  0  0  0  0  0  0  0  0  0  0  # atno 10763 bound_to 10752
  154.8668  135.3664  154.5183 H   0  0  0  0  0  0  0  0  0  0  0  0  # atno 10764 bound_to 10752
  153.5637  135.7080  153.5596 H   0  0  0  0  0  0  0  0  0  0  0  0  # atno 10765 bound_to 10752
  139.8846  134.8648  156.3367 H   0  0  0  0  0  0  0  0  0  0  0  0  # atno 11005 bound_to 11000
  144.8524  139.5302  143.6850 LP  0  0  0  0  0  0  0  0  0  0  0  0  # atno 17320 bound_to 7965
  146.2852  139.6985  142.9200 LP  0  0  0  0  0  0  0  0  0  0  0  0  # atno 17321 bound_to 7965
  139.6545  144.7662  151.2083 LP  0  0  0  0  0  0  0  0  0  0  0  0  # atno 17342 bound_to 10162
  140.7549  143.6108  150.8608 LP  0  0  0  0  0  0  0  0  0  0  0  0  # atno 17343 bound_to 10162
  156.3998  130.7669  151.2676 LP  0  0  0  0  0  0  0  0  0  0  0  0  # atno 17370 bound_to 10713
  157.7508  131.0243  150.3871 LP  0  0  0  0  0  0  0  0  0  0  0  0  # atno 17371 bound_to 10713
  140.9686  133.7342  156.0502 LP  0  0  0  0  0  0  0  0  0  0  0  0  # atno 17394 bound_to 11000
  140.7899  134.3629  157.5467 LP  0  0  0  0  0  0  0  0  0  0  0  0  # atno 17395 bound_to 11000

$$$$
