AV-unprocessed.smi:2889|AV-procd|sdf|11108|dock2
  -GOLD-   2272015573D 1   1.00000     0.00000
 Structure written by MMmdl.
 36 37  0  0  0  0  0  0  0  0  1 V2000
  154.5824  141.1139  161.1120 C   0  0  0  0  0  0  0  0  0  0  0  0
  153.3763  140.5695  159.8719 S   0  0  0  0  0  0  0  0  0  0  0  0
  152.9256  142.1544  159.0950 C   0  0  2  0  0  0  0  0  0  0  0  0
  152.6691  143.2075  160.1899 C   0  0  0  0  0  0  0  0  0  0  0  0
  152.2389  144.5577  159.5983 C   0  0  0  0  0  0  0  0  0  0  0  0
  150.9943  144.3975  158.7145 C   0  0  0  0  0  0  0  0  0  0  0  0
  151.2393  143.3675  157.6024 C   0  0  0  0  0  0  0  0  0  0  0  0
  151.6914  142.0090  158.1728 C   0  0  1  0  0  0  0  0  0  0  0  0
  151.9911  141.1006  157.0629 N   0  0  0  0  0  0  0  0  0  0  0  0
  150.6919  140.2915  156.2692 S   0  0  0  0  0  0  0  0  0  0  0  0
  151.2467  139.5923  155.0997 O   0  0  0  0  0  0  0  0  0  0  0  0
  149.9473  139.5392  157.2903 O   0  0  0  0  0  0  0  0  0  0  0  0
  149.6583  141.6952  155.6751 C   0  0  0  0  0  0  0  0  0  0  0  0
  148.4785  141.1633  154.9137 C   0  0  0  0  0  0  0  0  0  0  0  0
  147.3414  141.8730  154.4376 C   0  0  0  0  0  0  0  0  0  0  0  0
  146.5969  140.9069  153.8245 C   0  0  0  0  0  0  0  0  0  0  0  0
  147.2146  139.7020  153.9149 O   0  0  0  0  0  0  0  0  0  0  0  0
  148.4148  139.8754  154.6135 N   0  0  0  0  0  0  0  0  0  0  0  0
  154.9368  140.2585  161.6869 H   0  0  0  0  0  0  0  0  0  0  0  0
  154.1263  141.8253  161.8005 H   0  0  0  0  0  0  0  0  0  0  0  0
  155.4429  141.5872  160.6406 H   0  0  0  0  0  0  0  0  0  0  0  0
  153.7772  142.4930  158.5030 H   0  0  0  0  0  0  0  0  0  0  0  0
  151.8940  142.8492  160.8690 H   0  0  0  0  0  0  0  0  0  0  0  0
  153.5675  143.3425  160.7932 H   0  0  0  0  0  0  0  0  0  0  0  0
  152.0353  145.2668  160.4014 H   0  0  0  0  0  0  0  0  0  0  0  0
  153.0559  144.9798  159.0118 H   0  0  0  0  0  0  0  0  0  0  0  0
  150.1474  144.0826  159.3257 H   0  0  0  0  0  0  0  0  0  0  0  0
  150.7211  145.3585  158.2779 H   0  0  0  0  0  0  0  0  0  0  0  0
  150.3297  143.2433  157.0136 H   0  0  0  0  0  0  0  0  0  0  0  0
  151.9984  143.7518  156.9194 H   0  0  0  0  0  0  0  0  0  0  0  0
  150.8744  141.5909  158.7624 H   0  0  0  0  0  0  0  0  0  0  0  0
  152.6217  141.5363  156.3905 H   0  0  0  0  0  0  0  0  0  0  0  0
  149.3462  142.2846  156.5378 H   0  0  0  0  0  0  0  0  0  0  0  0
  150.2762  142.3318  155.0419 H   0  0  0  0  0  0  0  0  0  0  0  0
  147.1116  142.9243  154.5280 H   0  0  0  0  0  0  0  0  0  0  0  0
  145.6508  140.9177  153.3039 H   0  0  0  0  0  0  0  0  0  0  0  0
  1  2  1  0  0  0  0
  1 19  1  0  0  0  0
  1 20  1  0  0  0  0
  1 21  1  0  0  0  0
  2  3  1  0  0  0  0
  3  8  1  0  0  0  0
  3  4  1  0  0  0  0
  3 22  1  0  0  0  0
  4  5  1  0  0  0  0
  4 23  1  0  0  0  0
  4 24  1  0  0  0  0
  5  6  1  0  0  0  0
  5 25  1  0  0  0  0
  5 26  1  0  0  0  0
  6  7  1  0  0  0  0
  6 27  1  0  0  0  0
  6 28  1  0  0  0  0
  7  8  1  0  0  0  0
  7 29  1  0  0  0  0
  7 30  1  0  0  0  0
  8  9  1  0  0  0  0
  8 31  1  0  0  0  0
  9 10  1  0  0  0  0
  9 32  1  0  0  0  0
 10 11  2  0  0  0  0
 10 12  2  0  0  0  0
 10 13  1  0  0  0  0
 13 14  1  0  0  0  0
 13 33  1  0  0  0  0
 13 34  1  0  0  0  0
 14 18  2  0  0  0  0
 14 15  1  0  0  0  0
 15 16  2  0  0  0  0
 15 35  1  0  0  0  0
 16 17  1  0  0  0  0
 16 36  1  0  0  0  0
 17 18  1  0  0  0  0
M  END
> <s_m_source_file>
AV-unprocessed.smi

> <i_m_source_file_index>
2889

> <i_lp_mmshare_version>
43012

> <i_f3d_flags>
0

> <s_epik_input>
W0NIM11TW0NAQEhdMVtDSDJdW0NIMl1bQ0gyXVtDSDJdW0NASF0xW05IXVMoPU8pKD1PKVtDSDJdYzJbY0hdW2NIXW9uMg==

> <s_epik_cmdline>
J2VwaWtfcHl0aG9uJywgJy1waCcsICc3LjAnLCAnLXRuJywgJzgnLCAnLW1hJywgJzIwMCcsICctbWV0YWxfYmluZGluZycsICctaW1hZScsICc8aW5maWxlLm1hZT4nLCAnLW9tYWUnLCAnPG91dGZpbGUubWFlPic=

> <r_lp_tautomer_probability>
1

> <r_epik_Ionization_Penalty>
0.000229547

> <r_epik_Ionization_Penalty_Charging>
0

> <r_epik_Ionization_Penalty_Neutral>
0.000229547

> <r_epik_State_Penalty>
-0

> <r_epik_Charging_Adjusted_Penalty>
0

> <i_epik_Tot_Q>
0

> <i_epik_Tot_abs_Q>
0

> <r_epik_Metal_State_Penalty>
0.145979

> <b_epik_Metal_Only>
0

> <s_lp_Force_Field>
OPLS_2005

> <r_lp_Energy>
3.33114

> <b_lp_Chiralities_Consistent>
1

> <s_lp_Variant>
AV-unprocessed.smi:2889-1

> <Gold.Version>
5.8.1

> <Gold.Id.Protein>
6NUR|6NUR_protein|mol2

> <Gold.PLP.Fitness>
43.4326

> <Gold.PLP.PLP>
-38.1947

> <Gold.PLP.part.hbond>
-1.2301

> <Gold.PLP.part.metal>
0.0000

> <Gold.PLP.part.buried>
-2.6484

> <Gold.PLP.part.nonpolar>
-35.2725

> <Gold.PLP.part.repulsive>
0.8651

> <Gold.PLP.ligand.clash>
0.0000

> <Gold.PLP.ligand.torsion>
0.4604

> <Gold.PLP.Chemscore.Hbond>
1.0000

> <Gold.PLP.Chemscore.CHOScore>
1.0000

> <Gold.PLP.Chemscore.Metal>
0.0000

> <Gold.Chemscore.Hbonds>
donor molecule, donor type, donor heavy atom, donor atom, acceptor molecule, acceptor atom, score
      P1  H  7989  7998       L1    11  0.88
      L1  C    16    36       P1 10175  1.00

> <Gold.PLP.Chemscore.Internal.Correction>
0.1586

> <Gold.Rescore>
     Score         DG    S(hbond)    S(metal)    S(lipo)     H(rot)  DE(clash)    DE(int)     intcor
     12.95     -15.49       0.94        0.00      98.15       1.81       0.23       2.32       ----

> <Gold.Chemscore.Fitness>
12.9471

> <Gold.Chemscore.DG>
-15.4931

> <Gold.Chemscore.ZeroCoef>
-5.4800

> <Gold.Chemscore.Hbond>
0.9437

> <Gold.Chemscore.Metal>
0.0000

> <Gold.Chemscore.Lipo>
98.1533

> <Gold.Chemscore.Internal_Hbond>
0.0000

> <Gold.Chemscore.DEClash>
0.2303

> <Gold.Chemscore.DEInternal>
2.3158

> <Gold.Chemscore.Rot>
1.8058

> <Gold.Chemscore.Internal.Correction>
   9.000000E+99

> <Gold.Chemscore.Hbonds>
donor molecule, donor type, donor heavy atom, donor atom, acceptor molecule, acceptor atom, score
      P1  H  7989  7998       L1    11  0.73

> <Gold.Chemscore.Hbond.Weighted>
-3.1520

> <Gold.Chemscore.Metal.Weighted>
-0.0000

> <Gold.Chemscore.Lipo.Weighted>
-11.4839

> <Gold.Chemscore.Internal_Hbond.Weighted>
0.0000

> <Gold.Chemscore.DEClash.Weighted>
0.2303

> <Gold.Chemscore.DEInternal.Weighted>
2.3158

> <Gold.Chemscore.Rot.Weighted>
4.6228

> <Gold.Chemscore.Internal.Correction.Weighted>
   9.000000E+99

> <Gold.Protein.RotatedTorsions>
[ 6907 6896 6895 6894 ] final   -9.77 input  -60.11 | X-H torsion
[ 7974 7965 7964 7962 ] final   96.83 input  175.53 | X-H torsion
[ 8008 7997 7996 7995 ] final   66.86 input   59.86 | X-H torsion
[ 10167 10162 10161 10158 ] final   40.81 input  -65.29 | X-H torsion
[ 10718 10713 10712 10709 ] final   98.94 input   66.30 | X-H torsion
[ 10763 10752 10751 10750 ] final  153.30 input  -60.55 | X-H torsion
[ 11005 11000 10999 10996 ] final -139.10 input  -57.11 | X-H torsion

> <Gold.Protein.ActiveResidues>
 VAL166  LYS551  ARG553  GLY616  TRP617  ASP618  TYR619  PRO620  LYS621  CYS622 
 ASP623  PHE694  ASN695  SER759  ASP760  ASP761  ALA762  ILE779  LEU786  VAL792 
 PHE793  MET794  SER795  GLU796  ALA797  LYS798  CYS799  TRP800  GLU811  SER814 

> <Gold.Protein.RotatedAtoms>
  151.4124  135.0987  159.9588 H   0  0  0  0  0  0  0  0  0  0  0  0  # atno 6907 bound_to 6896
  152.5015  133.8784  159.7344 H   0  0  0  0  0  0  0  0  0  0  0  0  # atno 6908 bound_to 6896
  150.9282  133.6741  159.2845 H   0  0  0  0  0  0  0  0  0  0  0  0  # atno 6909 bound_to 6896
  145.4336  139.2308  143.3130 H   0  0  0  0  0  0  0  0  0  0  0  0  # atno 7974 bound_to 7965
  155.6839  140.3496  155.4866 H   0  0  0  0  0  0  0  0  0  0  0  0  # atno 8008 bound_to 7997
  155.9583  140.1132  157.0940 H   0  0  0  0  0  0  0  0  0  0  0  0  # atno 8009 bound_to 7997
  154.4137  140.1181  156.5130 H   0  0  0  0  0  0  0  0  0  0  0  0  # atno 8010 bound_to 7997
  140.3705  144.2111  150.6133 H   0  0  0  0  0  0  0  0  0  0  0  0  # atno 10167 bound_to 10162
  157.6886  131.0655  150.4872 H   0  0  0  0  0  0  0  0  0  0  0  0  # atno 10718 bound_to 10713
  154.1340  135.2825  155.3178 H   0  0  0  0  0  0  0  0  0  0  0  0  # atno 10763 bound_to 10752
  154.6335  135.5427  153.7711 H   0  0  0  0  0  0  0  0  0  0  0  0  # atno 10764 bound_to 10752
  153.0272  135.6468  154.1489 H   0  0  0  0  0  0  0  0  0  0  0  0  # atno 10765 bound_to 10752
  140.8552  134.2237  157.4738 H   0  0  0  0  0  0  0  0  0  0  0  0  # atno 11005 bound_to 11000
  146.2594  140.5076  142.8860 LP  0  0  0  0  0  0  0  0  0  0  0  0  # atno 17320 bound_to 7965
  144.8167  140.6480  143.6380 LP  0  0  0  0  0  0  0  0  0  0  0  0  # atno 17321 bound_to 7965
  140.5038  143.2310  151.8639 LP  0  0  0  0  0  0  0  0  0  0  0  0  # atno 17342 bound_to 10162
  139.4804  144.5029  151.9036 LP  0  0  0  0  0  0  0  0  0  0  0  0  # atno 17343 bound_to 10162
  156.5200  130.4160  149.6255 LP  0  0  0  0  0  0  0  0  0  0  0  0  # atno 17370 bound_to 10713
  156.3162  130.7256  151.2159 LP  0  0  0  0  0  0  0  0  0  0  0  0  # atno 17371 bound_to 10713
  139.8705  134.9703  156.4695 LP  0  0  0  0  0  0  0  0  0  0  0  0  # atno 17394 bound_to 11000
  140.8745  133.7963  155.9400 LP  0  0  0  0  0  0  0  0  0  0  0  0  # atno 17395 bound_to 11000

$$$$
