AV-unprocessed.smi:35|AV-procd|sdf|268|dock4
  -GOLD-   2262016 33D 1   1.00000     0.00000
 Structure written by MMmdl.
 28 29  0  0  0  0  0  0  0  0  2 V2000
  151.5281  134.2111  157.1598 O   0  0  0  0  0  0  0  0  0  0  0  0
  151.5442  135.3827  156.7867 C   0  0  0  0  0  0  0  0  0  0  0  0
  152.6829  136.1341  156.7538 N   0  5  0  0  0  0  0  0  0  0  0  0
  152.6966  137.4344  156.3360 C   0  0  0  0  0  0  0  0  0  0  0  0
  153.7121  138.1300  156.3335 O   0  0  0  0  0  0  0  0  0  0  0  0
  151.4811  138.0267  155.8972 N   0  0  0  0  0  0  0  0  0  0  0  0
  151.4748  139.4673  155.4334 C   0  0  1  0  0  0  0  0  0  0  0  0
  150.3069  139.6983  154.7093 O   0  0  0  0  0  0  0  0  0  0  0  0
  149.9290  141.0553  154.8808 C   0  0  1  0  0  0  0  0  0  0  0  0
  148.4439  141.2357  154.5301 C   0  0  0  0  0  0  0  0  0  0  0  0
  148.2555  141.1299  153.1348 O   0  0  0  0  0  0  0  0  0  0  0  0
  150.2421  141.3007  156.3604 C   0  0  2  0  0  0  0  0  0  0  0  0
  150.4801  142.6744  156.5944 O   0  0  0  0  0  0  0  0  0  0  0  0
  151.5113  140.4873  156.5944 C   0  0  1  0  0  0  0  0  0  0  0  0
  151.4966  139.9101  157.8881 O   0  0  0  0  0  0  0  0  0  0  0  0
  150.3058  137.2964  155.9380 C   0  0  0  0  0  0  0  0  0  0  0  0
  150.2985  136.0160  156.3603 C   0  0  0  0  0  0  0  0  0  0  0  0
  148.5455  135.0921  156.3711 Br  0  0  0  0  0  0  0  0  0  0  0  0
  152.3145  139.5798  154.7456 H   0  0  0  0  0  0  0  0  0  0  0  0
  150.5656  141.6855  154.2556 H   0  0  0  0  0  0  0  0  0  0  0  0
  147.8212  140.5108  155.0552 H   0  0  0  0  0  0  0  0  0  0  0  0
  148.1070  142.2286  154.8293 H   0  0  0  0  0  0  0  0  0  0  0  0
  148.4599  140.2462  152.8698 H   0  0  0  0  0  0  0  0  0  0  0  0
  149.4236  140.9377  156.9847 H   0  0  0  0  0  0  0  0  0  0  0  0
  149.8217  143.1715  156.1331 H   0  0  0  0  0  0  0  0  0  0  0  0
  152.4108  141.0931  156.4739 H   0  0  0  0  0  0  0  0  0  0  0  0
  151.9351  139.0735  157.8434 H   0  0  0  0  0  0  0  0  0  0  0  0
  149.3758  137.7551  155.6363 H   0  0  0  0  0  0  0  0  0  0  0  0
  1  2  2  0  0  0  0
  2 17  1  0  0  0  0
  2  3  1  0  0  0  0
  3  4  1  0  0  0  0
  4  5  2  0  0  0  0
  4  6  1  0  0  0  0
  6  7  1  0  0  0  0
  6 16  1  0  0  0  0
  7 14  1  0  0  0  0
  7  8  1  0  0  0  0
  7 19  1  0  0  0  0
  8  9  1  0  0  0  0
  9 10  1  0  0  0  0
  9 12  1  0  0  0  0
  9 20  1  0  0  0  0
 10 11  1  0  0  0  0
 10 21  1  0  0  0  0
 10 22  1  0  0  0  0
 11 23  1  0  0  0  0
 12 13  1  0  0  0  0
 12 14  1  0  0  0  0
 12 24  1  0  0  0  0
 13 25  1  0  0  0  0
 14 15  1  0  0  0  0
 14 26  1  0  0  0  0
 15 27  1  0  0  0  0
 16 17  2  0  0  0  0
 16 28  1  0  0  0  0
 17 18  1  0  0  0  0
M  CHG  1   3  -1
M  END
> <s_m_source_file>
AV-unprocessed.smi

> <i_m_source_file_index>
35

> <i_lp_mmshare_version>
43012

> <i_f3d_flags>
0

> <s_epik_input>
Tz1jMVtuSF1jKD1PKW4oW2NIXWMxQnIpW0NAQEhdMk9bQ0BASF0oW0NIMl1bT0hdKVtDQEBIXShbT0hdKVtDQEhdMltPSF0=

> <s_epik_cmdline>
J2VwaWtfcHl0aG9uJywgJy1waCcsICc3LjAnLCAnLXRuJywgJzgnLCAnLW1hJywgJzIwMCcsICctbWV0YWxfYmluZGluZycsICctaW1hZScsICc8aW5maWxlLm1hZT4nLCAnLW9tYWUnLCAnPG91dGZpbGUubWFlPic=

> <r_epik_Ionization_Penalty>
1.06112

> <r_epik_Ionization_Penalty_Charging>
2.1796e-09

> <r_epik_Ionization_Penalty_Neutral>
1.06112

> <r_epik_State_Penalty>
1.11484

> <r_epik_Charging_Adjusted_Penalty>
1.11484

> <i_epik_Tot_Q>
-1

> <i_epik_Tot_abs_Q>
1

> <r_epik_Metal_State_Penalty>
0.0032876

> <b_epik_Metal_Only>
0

> <s_epik_Chemistry_Notes>
This compound contains an acetal/aminal-like group ( X-CH(R)-Y where X, Y are N, S, or O) that may be acid/base labile, releasing an aldehyde.

> <s_lp_Force_Field>
OPLS_2005

> <r_lp_Energy>
42.419

> <b_lp_Chiralities_Consistent>
1

> <s_lp_Variant>
AV-unprocessed.smi:35-22

> <Gold.Version>
5.8.1

> <Gold.Id.Protein>
6NUR|6NUR_protein|mol2

> <Gold.PLP.Fitness>
36.8303

> <Gold.PLP.PLP>
-22.3382

> <Gold.PLP.part.hbond>
-6.3964

> <Gold.PLP.part.metal>
0.0000

> <Gold.PLP.part.buried>
-1.9174

> <Gold.PLP.part.nonpolar>
-15.0646

> <Gold.PLP.part.repulsive>
0.0827

> <Gold.PLP.ligand.clash>
0.0000

> <Gold.PLP.ligand.torsion>
0.5406

> <Gold.PLP.Chemscore.Hbond>
5.0832

> <Gold.PLP.Chemscore.CHOScore>
0.0000

> <Gold.PLP.Chemscore.Metal>
0.0000

> <Gold.Chemscore.Hbonds>
donor molecule, donor type, donor heavy atom, donor atom, acceptor molecule, acceptor atom, score
      L1  H    11    23       P1  7957  0.29
      L1  H    13    25       P1  8028  1.00
      P1  H  6896  6908       L1     1  0.12
      P1  H  7997  8009       L1     5  0.59
      P1  H  8011  8017       L1    11  0.61
      P1  H 10752 10764       L1     3  1.90

> <Gold.PLP.Chemscore.Internal.Correction>
0.3237

> <Gold.Rescore>
     Score         DG    S(hbond)    S(metal)    S(lipo)     H(rot)  DE(clash)    DE(int)     intcor
      8.71     -10.47       2.98        0.00      37.06       3.63       1.32       0.45       ----

> <Gold.Chemscore.Fitness>
8.7090

> <Gold.Chemscore.DG>
-10.4731

> <Gold.Chemscore.ZeroCoef>
-5.4800

> <Gold.Chemscore.Hbond>
2.9761

> <Gold.Chemscore.Metal>
0.0000

> <Gold.Chemscore.Lipo>
37.0575

> <Gold.Chemscore.Internal_Hbond>
0.0000

> <Gold.Chemscore.DEClash>
1.3156

> <Gold.Chemscore.DEInternal>
0.4485

> <Gold.Chemscore.Rot>
3.6261

> <Gold.Chemscore.Internal.Correction>
   9.000000E+99

> <Gold.Chemscore.Hbonds>
donor molecule, donor type, donor heavy atom, donor atom, acceptor molecule, acceptor atom, score
      L1  H    11    23       P1  7957  0.28
      L1  H    13    25       P1  8028  0.98
      P1  H  6896  6908       L1     1  0.12
      P1  H  7997  8009       L1     5  0.56
      P1  H  8011  8017       L1    11  0.17
      P1  H 10752 10764       L1     3  0.07

> <Gold.Chemscore.Hbond.Weighted>
-9.9402

> <Gold.Chemscore.Metal.Weighted>
-0.0000

> <Gold.Chemscore.Lipo.Weighted>
-4.3357

> <Gold.Chemscore.Internal_Hbond.Weighted>
0.0000

> <Gold.Chemscore.DEClash.Weighted>
1.3156

> <Gold.Chemscore.DEInternal.Weighted>
0.4485

> <Gold.Chemscore.Rot.Weighted>
9.2828

> <Gold.Chemscore.Internal.Correction.Weighted>
   9.000000E+99

> <Gold.Protein.RotatedTorsions>
[ 6907 6896 6895 6894 ] final  115.47 input  -60.11 | X-H torsion
[ 7974 7965 7964 7962 ] final   38.04 input  175.53 | X-H torsion
[ 8008 7997 7996 7995 ] final  179.84 input   59.86 | X-H torsion
[ 10167 10162 10161 10158 ] final  154.02 input  -65.29 | X-H torsion
[ 10718 10713 10712 10709 ] final  178.79 input   66.30 | X-H torsion
[ 10763 10752 10751 10750 ] final    4.84 input  -60.55 | X-H torsion
[ 11005 11000 10999 10996 ] final  146.72 input  -57.11 | X-H torsion

> <Gold.Protein.ActiveResidues>
 VAL166  LYS551  ARG553  GLY616  TRP617  ASP618  TYR619  PRO620  LYS621  CYS622 
 ASP623  PHE694  ASN695  SER759  ASP760  ASP761  ALA762  ILE779  LEU786  VAL792 
 PHE793  MET794  SER795  GLU796  ALA797  LYS798  CYS799  TRP800  GLU811  SER814 

> <Gold.Protein.RotatedAtoms>
  152.4740  133.8094  159.6995 H   0  0  0  0  0  0  0  0  0  0  0  0  # atno 6907 bound_to 6896
  150.8745  133.7449  159.2957 H   0  0  0  0  0  0  0  0  0  0  0  0  # atno 6908 bound_to 6896
  151.4973  135.1063  159.9871 H   0  0  0  0  0  0  0  0  0  0  0  0  # atno 6909 bound_to 6896
  146.1092  139.5820  142.9363 H   0  0  0  0  0  0  0  0  0  0  0  0  # atno 7974 bound_to 7965
  156.0388  140.1298  157.0179 H   0  0  0  0  0  0  0  0  0  0  0  0  # atno 8008 bound_to 7997
  154.4381  140.1034  156.6277 H   0  0  0  0  0  0  0  0  0  0  0  0  # atno 8009 bound_to 7997
  155.5698  140.3466  155.4514 H   0  0  0  0  0  0  0  0  0  0  0  0  # atno 8010 bound_to 7997
  139.4825  144.5223  151.7857 H   0  0  0  0  0  0  0  0  0  0  0  0  # atno 10167 bound_to 10162
  156.8853  130.9829  151.3056 H   0  0  0  0  0  0  0  0  0  0  0  0  # atno 10718 bound_to 10713
  153.2665  135.6928  153.7524 H   0  0  0  0  0  0  0  0  0  0  0  0  # atno 10763 bound_to 10752
  153.6564  135.3368  155.3115 H   0  0  0  0  0  0  0  0  0  0  0  0  # atno 10764 bound_to 10752
  154.8449  135.4466  154.1673 H   0  0  0  0  0  0  0  0  0  0  0  0  # atno 10765 bound_to 10752
  140.0817  134.9093  157.1510 H   0  0  0  0  0  0  0  0  0  0  0  0  # atno 11005 bound_to 11000
  145.5699  141.0395  143.2180 LP  0  0  0  0  0  0  0  0  0  0  0  0  # atno 17320 bound_to 7965
  144.7497  139.7227  143.7278 LP  0  0  0  0  0  0  0  0  0  0  0  0  # atno 17321 bound_to 7965
  140.4738  144.1548  150.5922 LP  0  0  0  0  0  0  0  0  0  0  0  0  # atno 17342 bound_to 10162
  140.4353  143.2550  151.9543 LP  0  0  0  0  0  0  0  0  0  0  0  0  # atno 17343 bound_to 10162
  157.6116  130.8587  149.8961 LP  0  0  0  0  0  0  0  0  0  0  0  0  # atno 17370 bound_to 10713
  156.0656  130.3693  150.0885 LP  0  0  0  0  0  0  0  0  0  0  0  0  # atno 17371 bound_to 10713
  140.3479  134.2631  155.7202 LP  0  0  0  0  0  0  0  0  0  0  0  0  # atno 17394 bound_to 11000
  141.2049  133.7875  157.0264 LP  0  0  0  0  0  0  0  0  0  0  0  0  # atno 17395 bound_to 11000

$$$$
