AV-unprocessed.smi:45|AV-procd|sdf|412|dock1
  -GOLD-   2262016273D 1   1.00000     0.00000
 Structure written by MMmdl.
 61 64  0  0  0  0  0  0  0  0  2 V2000
  151.1168  142.6854  156.9832 C   0  0  0  0  0  0  0  0  0  0  0  0
  150.2819  142.1534  155.9650 O   0  0  0  0  0  0  0  0  0  0  0  0
  150.3698  140.8048  155.6866 C   0  0  0  0  0  0  0  0  0  0  0  0
  151.2801  139.9248  156.3255 C   0  0  0  0  0  0  0  0  0  0  0  0
  151.3128  138.5585  155.9862 C   0  0  0  0  0  0  0  0  0  0  0  0
  150.4397  138.0480  155.0053 C   0  0  0  0  0  0  0  0  0  0  0  0
  150.4799  136.5780  154.6366 C   0  0  0  0  0  0  0  0  0  0  0  0
  149.8633  135.7234  155.6407 N   0  0  0  0  0  0  0  0  0  0  0  0
  148.6458  135.0675  155.3978 C   0  0  0  0  0  0  0  0  0  0  0  0
  148.0578  135.2350  154.1836 N   0  3  0  0  0  0  0  0  0  0  0  0
  146.9010  134.6217  153.8839 C   0  0  0  0  0  0  0  0  0  0  0  0
  146.3258  134.8220  152.6300 N   0  0  0  0  0  0  0  0  0  0  0  0
  146.2494  133.7457  151.6474 C   0  0  0  0  0  0  0  0  0  0  0  0
  144.9762  133.9988  150.8416 C   0  0  0  0  0  0  0  0  0  0  0  0
  144.8161  135.5114  150.9211 C   0  0  0  0  0  0  0  0  0  0  0  0
  145.3295  135.8511  152.3279 C   0  0  2  0  0  0  0  0  0  0  0  0
  145.8850  137.2880  152.4241 C   0  0  0  0  0  0  0  0  0  0  0  0
  146.5750  137.6150  151.2374 O   0  0  0  0  0  0  0  0  0  0  0  0
  146.2721  133.8280  154.7604 N   0  0  0  0  0  0  0  0  0  0  0  0
  146.8118  133.6298  155.9775 C   0  0  0  0  0  0  0  0  0  0  0  0
  148.0267  134.2301  156.3615 C   0  0  0  0  0  0  0  0  0  0  0  0
  148.5828  134.0115  157.7426 C   0  0  0  0  0  0  0  0  0  0  0  0
  149.7771  133.7712  157.9194 O   0  0  0  0  0  0  0  0  0  0  0  0
  147.6847  134.0772  158.7383 N   0  0  0  0  0  0  0  0  0  0  0  0
  148.0060  133.9621  160.1557 C   0  0  0  0  0  0  0  0  0  0  0  0
  146.7685  134.0194  161.0348 C   0  0  0  0  0  0  0  0  0  0  0  0
  145.8301  133.0921  160.8196 N   0  0  0  0  0  0  0  0  0  0  0  0
  144.7363  133.1348  161.6111 C   0  0  0  0  0  0  0  0  0  0  0  0
  144.5874  134.1101  162.6179 C   0  0  0  0  0  0  0  0  0  0  0  0
  145.6425  135.0347  162.7515 C   0  0  0  0  0  0  0  0  0  0  0  0
  146.7344  134.9869  161.9579 N   0  0  0  0  0  0  0  0  0  0  0  0
  149.5303  138.9153  154.3687 C   0  0  0  0  0  0  0  0  0  0  0  0
  149.4967  140.2827  154.7061 C   0  0  0  0  0  0  0  0  0  0  0  0
  148.3721  141.3191  153.9027 Cl  0  0  0  0  0  0  0  0  0  0  0  0
  144.5122  135.7275  153.0405 H   0  0  0  0  0  0  0  0  0  0  0  0
  150.9304  143.7550  157.0788 H   0  0  0  0  0  0  0  0  0  0  0  0
  152.1726  142.5557  156.7418 H   0  0  0  0  0  0  0  0  0  0  0  0
  150.9070  142.2271  157.9507 H   0  0  0  0  0  0  0  0  0  0  0  0
  151.9673  140.2736  157.0812 H   0  0  0  0  0  0  0  0  0  0  0  0
  152.0135  137.9024  156.4819 H   0  0  0  0  0  0  0  0  0  0  0  0
  149.9644  136.4462  153.6847 H   0  0  0  0  0  0  0  0  0  0  0  0
  151.5149  136.2673  154.4875 H   0  0  0  0  0  0  0  0  0  0  0  0
  150.3484  135.5734  156.5145 H   0  0  0  0  0  0  0  0  0  0  0  0
  147.1295  133.7952  151.0052 H   0  0  0  0  0  0  0  0  0  0  0  0
  146.2245  132.7595  152.1128 H   0  0  0  0  0  0  0  0  0  0  0  0
  145.0394  133.6266  149.8187 H   0  0  0  0  0  0  0  0  0  0  0  0
  144.1281  133.5132  151.3265 H   0  0  0  0  0  0  0  0  0  0  0  0
  145.4428  135.9803  150.1608 H   0  0  0  0  0  0  0  0  0  0  0  0
  143.7891  135.8389  150.7557 H   0  0  0  0  0  0  0  0  0  0  0  0
  145.0931  138.0234  152.5593 H   0  0  0  0  0  0  0  0  0  0  0  0
  146.5602  137.3887  153.2746 H   0  0  0  0  0  0  0  0  0  0  0  0
  147.4875  137.3926  151.3456 H   0  0  0  0  0  0  0  0  0  0  0  0
  146.2578  132.9906  156.6496 H   0  0  0  0  0  0  0  0  0  0  0  0
  146.7193  134.2605  158.5076 H   0  0  0  0  0  0  0  0  0  0  0  0
  148.5082  133.0082  160.3187 H   0  0  0  0  0  0  0  0  0  0  0  0
  148.7196  134.7367  160.4436 H   0  0  0  0  0  0  0  0  0  0  0  0
  143.9758  132.3876  161.4401 H   0  0  0  0  0  0  0  0  0  0  0  0
  143.7136  134.1466  163.2516 H   0  0  0  0  0  0  0  0  0  0  0  0
  145.6111  135.8138  163.4986 H   0  0  0  0  0  0  0  0  0  0  0  0
  148.8561  138.5353  153.6152 H   0  0  0  0  0  0  0  0  0  0  0  0
  148.5100  135.8383  153.4971 H   0  0  0  0  0  0  0  0  0  0  0  0
  1  2  1  0  0  0  0
  1 36  1  0  0  0  0
  1 37  1  0  0  0  0
  1 38  1  0  0  0  0
  2  3  1  0  0  0  0
  3 33  1  0  0  0  0
  3  4  2  0  0  0  0
  4  5  1  0  0  0  0
  4 39  1  0  0  0  0
  5  6  2  0  0  0  0
  5 40  1  0  0  0  0
  6  7  1  0  0  0  0
  6 32  1  0  0  0  0
  7  8  1  0  0  0  0
  7 41  1  0  0  0  0
  7 42  1  0  0  0  0
  8  9  1  0  0  0  0
  8 43  1  0  0  0  0
  9 21  1  0  0  0  0
  9 10  2  0  0  0  0
 10 11  1  0  0  0  0
 10 61  1  0  0  0  0
 11 12  1  0  0  0  0
 11 19  2  0  0  0  0
 12 16  1  0  0  0  0
 12 13  1  0  0  0  0
 13 14  1  0  0  0  0
 13 44  1  0  0  0  0
 13 45  1  0  0  0  0
 14 15  1  0  0  0  0
 14 46  1  0  0  0  0
 14 47  1  0  0  0  0
 15 16  1  0  0  0  0
 15 48  1  0  0  0  0
 15 49  1  0  0  0  0
 16 35  1  0  0  0  0
 16 17  1  0  0  0  0
 17 18  1  0  0  0  0
 17 50  1  0  0  0  0
 17 51  1  0  0  0  0
 18 52  1  0  0  0  0
 19 20  1  0  0  0  0
 20 21  2  0  0  0  0
 20 53  1  0  0  0  0
 21 22  1  0  0  0  0
 22 23  2  0  0  0  0
 22 24  1  0  0  0  0
 24 25  1  0  0  0  0
 24 54  1  0  0  0  0
 25 26  1  0  0  0  0
 25 55  1  0  0  0  0
 25 56  1  0  0  0  0
 26 31  1  0  0  0  0
 26 27  2  0  0  0  0
 27 28  1  0  0  0  0
 28 29  2  0  0  0  0
 28 57  1  0  0  0  0
 29 30  1  0  0  0  0
 29 58  1  0  0  0  0
 30 31  2  0  0  0  0
 30 59  1  0  0  0  0
 32 33  2  0  0  0  0
 32 60  1  0  0  0  0
 33 34  1  0  0  0  0
M  CHG  1  10   1
M  END
> <s_m_source_file>
AV-unprocessed.smi

> <i_m_source_file_index>
45

> <i_lp_mmshare_version>
43012

> <i_f3d_flags>
0

> <s_epik_input>
W0NIM11PYzFbY0hdW2NIXWMoW2NIXWMxQ2wpW0NIMl1bTkhdYzJuYyhOM1tDSDJdW0NIMl1bQ0gyXVtDQEhdM1tDSDJdW09IXSluW2NIXWMyQyg9TylbTkhdW0NIMl1jNG5bY0hdW2NIXVtjSF1uNA==

> <s_epik_cmdline>
J2VwaWtfcHl0aG9uJywgJy1waCcsICc3LjAnLCAnLXRuJywgJzgnLCAnLW1hJywgJzIwMCcsICctbWV0YWxfYmluZGluZycsICctaW1hZScsICc8aW5maWxlLm1hZT4nLCAnLW9tYWUnLCAnPG91dGZpbGUubWFlPic=

> <r_lp_tautomer_probability>
0.424989

> <r_epik_Ionization_Penalty>
2.31209

> <r_epik_Ionization_Penalty_Charging>
2.31199

> <r_epik_Ionization_Penalty_Neutral>
9.65277e-05

> <r_epik_State_Penalty>
2.29675

> <r_epik_Charging_Adjusted_Penalty>
4.60874

> <i_epik_Tot_Q>
1

> <i_epik_Tot_abs_Q>
1

> <r_epik_Metal_State_Penalty>
2.3404

> <b_epik_Metal_Only>
0

> <s_epik_Chemistry_Notes>
This compound contains an electron-poor aromatic ring that is susceptible to covalent hydrolysis at low pH, typically resulting in measured values for nitrogen ring protonation that are around two units higher than predicted values.

> <s_lp_Force_Field>
OPLS_2005

> <r_lp_Energy>
35.4262

> <b_lp_Chiralities_Consistent>
1

> <s_lp_Variant>
AV-unprocessed.smi:45-6

> <Gold.Version>
5.8.1

> <Gold.Id.Protein>
6NUR|6NUR_protein|mol2

> <Gold.PLP.Fitness>
55.6076

> <Gold.PLP.PLP>
-46.7846

> <Gold.PLP.part.hbond>
-4.1843

> <Gold.PLP.part.metal>
0.0000

> <Gold.PLP.part.buried>
-5.4706

> <Gold.PLP.part.nonpolar>
-38.5559

> <Gold.PLP.part.repulsive>
0.3799

> <Gold.PLP.ligand.clash>
0.0000

> <Gold.PLP.ligand.torsion>
2.6057

> <Gold.PLP.Chemscore.Hbond>
4.0000

> <Gold.PLP.Chemscore.CHOScore>
0.0000

> <Gold.PLP.Chemscore.Metal>
0.0000

> <Gold.Chemscore.Hbonds>
donor molecule, donor type, donor heavy atom, donor atom, acceptor molecule, acceptor atom, score
      L1  H    10    61       P1  7948  2.00
      L1  H    18    52       P1  7948  1.00
      P1  H  6896  6909       L1    23  1.00

> <Gold.PLP.Chemscore.Internal.Correction>
2.0346

> <Gold.Rescore>
     Score         DG    S(hbond)    S(metal)    S(lipo)     H(rot)  DE(clash)    DE(int)     intcor
     17.65     -21.19       2.95        0.00     114.36       2.94       0.19       3.34       ----

> <Gold.Chemscore.Fitness>
17.6538

> <Gold.Chemscore.DG>
-21.1908

> <Gold.Chemscore.ZeroCoef>
-5.4800

> <Gold.Chemscore.Hbond>
2.9509

> <Gold.Chemscore.Metal>
0.0000

> <Gold.Chemscore.Lipo>
114.3594

> <Gold.Chemscore.Internal_Hbond>
0.0000

> <Gold.Chemscore.DEClash>
0.1943

> <Gold.Chemscore.DEInternal>
3.3427

> <Gold.Chemscore.Rot>
2.9395

> <Gold.Chemscore.Internal.Correction>
   9.000000E+99

> <Gold.Chemscore.Hbonds>
donor molecule, donor type, donor heavy atom, donor atom, acceptor molecule, acceptor atom, score
      L1  H    10    61       P1  7948  0.95
      L1  H    18    52       P1  7948  0.98
      P1  H  6896  6909       L1    23  1.00

> <Gold.Chemscore.Hbond.Weighted>
-9.8559

> <Gold.Chemscore.Metal.Weighted>
-0.0000

> <Gold.Chemscore.Lipo.Weighted>
-13.3801

> <Gold.Chemscore.Internal_Hbond.Weighted>
0.0000

> <Gold.Chemscore.DEClash.Weighted>
0.1943

> <Gold.Chemscore.DEInternal.Weighted>
3.3427

> <Gold.Chemscore.Rot.Weighted>
7.5251

> <Gold.Chemscore.Internal.Correction.Weighted>
   9.000000E+99

> <Gold.Protein.RotatedTorsions>
[ 6907 6896 6895 6894 ] final    9.26 input  -60.11 | X-H torsion
[ 7974 7965 7964 7962 ] final  164.73 input  175.53 | X-H torsion
[ 8008 7997 7996 7995 ] final  -77.90 input   59.86 | X-H torsion
[ 10167 10162 10161 10158 ] final   40.46 input  -65.29 | X-H torsion
[ 10718 10713 10712 10709 ] final  -34.55 input   66.30 | X-H torsion
[ 10763 10752 10751 10750 ] final  -34.19 input  -60.55 | X-H torsion
[ 11005 11000 10999 10996 ] final  -66.17 input  -57.11 | X-H torsion

> <Gold.Protein.ActiveResidues>
 VAL166  LYS551  ARG553  GLY616  TRP617  ASP618  TYR619  PRO620  LYS621  CYS622 
 ASP623  PHE694  ASN695  SER759  ASP760  ASP761  ALA762  ILE779  LEU786  VAL792 
 PHE793  MET794  SER795  GLU796  ALA797  LYS798  CYS799  TRP800  GLU811  SER814 

> <Gold.Protein.RotatedAtoms>
  151.7193  135.0897  160.0281 H   0  0  0  0  0  0  0  0  0  0  0  0  # atno 6907 bound_to 6896
  152.3612  133.6295  159.6025 H   0  0  0  0  0  0  0  0  0  0  0  0  # atno 6908 bound_to 6896
  150.7606  133.9336  159.3476 H   0  0  0  0  0  0  0  0  0  0  0  0  # atno 6909 bound_to 6896
  144.7532  139.8368  143.6359 H   0  0  0  0  0  0  0  0  0  0  0  0  # atno 7974 bound_to 7965
  154.5639  140.0703  156.8861 H   0  0  0  0  0  0  0  0  0  0  0  0  # atno 8008 bound_to 7997
  155.2760  140.3368  155.4243 H   0  0  0  0  0  0  0  0  0  0  0  0  # atno 8009 bound_to 7997
  156.2064  140.1742  156.7775 H   0  0  0  0  0  0  0  0  0  0  0  0  # atno 8010 bound_to 7997
  140.3740  144.2068  150.6132 H   0  0  0  0  0  0  0  0  0  0  0  0  # atno 10167 bound_to 10162
  156.3492  130.4305  149.7719 H   0  0  0  0  0  0  0  0  0  0  0  0  # atno 10718 bound_to 10713
  153.8427  135.6856  153.4801 H   0  0  0  0  0  0  0  0  0  0  0  0  # atno 10763 bound_to 10752
  153.1444  135.4644  154.9542 H   0  0  0  0  0  0  0  0  0  0  0  0  # atno 10764 bound_to 10752
  154.7838  135.3277  154.7879 H   0  0  0  0  0  0  0  0  0  0  0  0  # atno 10765 bound_to 10752
  141.1475  133.6694  156.6099 H   0  0  0  0  0  0  0  0  0  0  0  0  # atno 11005 bound_to 11000
  146.1510  139.4594  143.0048 LP  0  0  0  0  0  0  0  0  0  0  0  0  # atno 17320 bound_to 7965
  145.6869  141.0175  143.1576 LP  0  0  0  0  0  0  0  0  0  0  0  0  # atno 17321 bound_to 7965
  140.5005  143.2319  151.8686 LP  0  0  0  0  0  0  0  0  0  0  0  0  # atno 17342 bound_to 10162
  139.4801  144.5065  151.8991 LP  0  0  0  0  0  0  0  0  0  0  0  0  # atno 17343 bound_to 10162
  156.4926  130.8092  151.3101 LP  0  0  0  0  0  0  0  0  0  0  0  0  # atno 17370 bound_to 10713
  157.7458  130.9970  150.2802 LP  0  0  0  0  0  0  0  0  0  0  0  0  # atno 17371 bound_to 10713
  140.3622  134.7677  157.4542 LP  0  0  0  0  0  0  0  0  0  0  0  0  # atno 17394 bound_to 11000
  140.0776  134.5776  155.8575 LP  0  0  0  0  0  0  0  0  0  0  0  0  # atno 17395 bound_to 11000

$$$$
