AV-unprocessed.smi:2083|AV-procd|sdf|8507|dock10
  -GOLD-   2272011223D 1   1.00000     0.00000
 Structure written by MMmdl.
 44 45  0  0  0  0  0  0  0  0  3 V2000
  152.7674  142.8323  160.6353 C   0  0  0  0  0  0  0  0  0  0  0  0
  151.9117  142.4570  159.4744 C   0  0  0  0  0  0  0  0  0  0  0  0
  152.1342  141.6921  158.3645 C   0  0  0  0  0  0  0  0  0  0  0  0
  150.8940  141.7571  157.6752 C   0  0  0  0  0  0  0  0  0  0  0  0
  150.7153  141.0753  156.4427 N   0  0  0  0  0  0  0  0  0  0  0  0
  151.5044  140.1484  155.8691 C   0  0  0  0  0  0  0  0  0  0  0  0
  152.5453  139.7817  156.4274 O   0  0  0  0  0  0  0  0  0  0  0  0
  151.0088  139.7206  154.6758 N   0  5  0  0  0  0  0  0  0  0  0  0
  149.9517  138.7214  154.5281 C   0  0  0  0  0  0  0  0  0  0  0  0
  150.5025  137.2942  154.8473 C   0  0  1  0  0  0  0  0  0  0  0  0
  151.1331  137.1806  156.2560 C   0  0  0  0  0  0  0  0  0  0  0  0
  149.5400  136.1609  154.6237 N   0  3  1  0  0  0  0  0  0  0  0  0
  149.9852  134.7930  155.0254 C   0  0  0  0  0  0  0  0  0  0  0  0
  149.0607  133.7256  154.4199 C   0  0  0  0  0  0  0  0  0  0  0  0
  147.6000  133.9720  154.8207 C   0  0  0  0  0  0  0  0  0  0  0  0
  147.1671  135.3952  154.4270 C   0  0  1  0  0  0  0  0  0  0  0  0
  145.7132  135.6720  154.8352 C   0  0  0  0  0  0  0  0  0  0  0  0
  148.1321  136.4345  155.0325 C   0  0  0  0  0  0  0  0  0  0  0  0
  149.9956  142.4967  158.3088 N   0  0  0  0  0  0  0  0  0  0  0  0
  150.6433  142.9489  159.4646 O   0  0  0  0  0  0  0  0  0  0  0  0
  153.6535  142.1995  160.6863 H   0  0  0  0  0  0  0  0  0  0  0  0
  152.2204  142.7233  161.5719 H   0  0  0  0  0  0  0  0  0  0  0  0
  153.0955  143.8685  160.5527 H   0  0  0  0  0  0  0  0  0  0  0  0
  153.0394  141.1705  158.0908 H   0  0  0  0  0  0  0  0  0  0  0  0
  149.8855  141.3232  155.9249 H   0  0  0  0  0  0  0  0  0  0  0  0
  149.0986  138.9247  155.1768 H   0  0  0  0  0  0  0  0  0  0  0  0
  149.5555  138.7268  153.5125 H   0  0  0  0  0  0  0  0  0  0  0  0
  151.3227  137.1106  154.1512 H   0  0  0  0  0  0  0  0  0  0  0  0
  151.9901  137.8460  156.3764 H   0  0  0  0  0  0  0  0  0  0  0  0
  151.5010  136.1694  156.4312 H   0  0  0  0  0  0  0  0  0  0  0  0
  150.4290  137.4119  157.0568 H   0  0  0  0  0  0  0  0  0  0  0  0
  151.0050  134.6073  154.6903 H   0  0  0  0  0  0  0  0  0  0  0  0
  149.9852  134.6963  156.1121 H   0  0  0  0  0  0  0  0  0  0  0  0
  149.1506  133.7368  153.3329 H   0  0  0  0  0  0  0  0  0  0  0  0
  149.3743  132.7336  154.7461 H   0  0  0  0  0  0  0  0  0  0  0  0
  146.9556  133.2340  154.3417 H   0  0  0  0  0  0  0  0  0  0  0  0
  147.4871  133.8328  155.8969 H   0  0  0  0  0  0  0  0  0  0  0  0
  147.2235  135.4762  153.3402 H   0  0  0  0  0  0  0  0  0  0  0  0
  145.5865  135.6121  155.9167 H   0  0  0  0  0  0  0  0  0  0  0  0
  145.0334  134.9506  154.3805 H   0  0  0  0  0  0  0  0  0  0  0  0
  145.3978  136.6661  154.5173 H   0  0  0  0  0  0  0  0  0  0  0  0
  148.0496  136.4278  156.1203 H   0  0  0  0  0  0  0  0  0  0  0  0
  147.8394  137.4310  154.6990 H   0  0  0  0  0  0  0  0  0  0  0  0
  149.4860  136.1134  153.6168 H   0  0  0  0  0  0  0  0  0  0  0  0
  1  2  1  0  0  0  0
  1 21  1  0  0  0  0
  1 22  1  0  0  0  0
  1 23  1  0  0  0  0
  2 20  1  0  0  0  0
  2  3  2  0  0  0  0
  3  4  1  0  0  0  0
  3 24  1  0  0  0  0
  4  5  1  0  0  0  0
  4 19  2  0  0  0  0
  5  6  1  0  0  0  0
  5 25  1  0  0  0  0
  6  7  2  0  0  0  0
  6  8  1  0  0  0  0
  8  9  1  0  0  0  0
  9 10  1  0  0  0  0
  9 26  1  0  0  0  0
  9 27  1  0  0  0  0
 10 11  1  0  0  0  0
 10 12  1  0  0  0  0
 10 28  1  0  0  0  0
 11 29  1  0  0  0  0
 11 30  1  0  0  0  0
 11 31  1  0  0  0  0
 12 18  1  0  0  0  0
 12 13  1  0  0  0  0
 12 44  1  0  0  0  0
 13 14  1  0  0  0  0
 13 32  1  0  0  0  0
 13 33  1  0  0  0  0
 14 15  1  0  0  0  0
 14 34  1  0  0  0  0
 14 35  1  0  0  0  0
 15 16  1  0  0  0  0
 15 36  1  0  0  0  0
 15 37  1  0  0  0  0
 16 17  1  0  0  0  0
 16 18  1  0  0  0  0
 16 38  1  0  0  0  0
 17 39  1  0  0  0  0
 17 40  1  0  0  0  0
 17 41  1  0  0  0  0
 18 42  1  0  0  0  0
 18 43  1  0  0  0  0
 19 20  1  0  0  0  0
M  CHG  1   8  -1
M  CHG  1  12   1
M  END
> <s_m_source_file>
AV-unprocessed.smi

> <i_m_source_file_index>
2083

> <i_lp_mmshare_version>
43012

> <i_f3d_flags>
0

> <s_epik_input>
W0NIM11jMVtjSF1jKG5vMSlbTkhdQyg9TylbTkhdW0NIMl1bQ0BIXShbQ0gzXSlOMltDSDJdW0NIMl1bQ0gyXVtDQEBIXShbQ0gzXSlbQ0gyXTI=

> <s_epik_cmdline>
J2VwaWtfcHl0aG9uJywgJy1waCcsICc3LjAnLCAnLXRuJywgJzgnLCAnLW1hJywgJzIwMCcsICctbWV0YWxfYmluZGluZycsICctaW1hZScsICc8aW5maWxlLm1hZT4nLCAnLW9tYWUnLCAnPG91dGZpbGUubWFlPic=

> <r_epik_Ionization_Penalty>
6.76934

> <r_epik_Ionization_Penalty_Charging>
6.76934

> <r_epik_Ionization_Penalty_Neutral>
5.77849e-06

> <r_epik_State_Penalty>
6.79457

> <r_epik_Charging_Adjusted_Penalty>
13.5639

> <i_epik_Tot_Q>
0

> <i_epik_Tot_abs_Q>
2

> <r_epik_Metal_State_Penalty>
2.72837

> <b_epik_Metal_Only>
1

> <s_lp_Force_Field>
OPLS_2005

> <r_lp_Energy>
21.1768

> <b_lp_Chiralities_Consistent>
1

> <s_lp_Variant>
AV-unprocessed.smi:2083-18

> <Gold.Version>
5.8.1

> <Gold.Id.Protein>
6NUR|6NUR_protein|mol2

> <Gold.PLP.Fitness>
41.9943

> <Gold.PLP.PLP>
-32.1524

> <Gold.PLP.part.hbond>
-4.0000

> <Gold.PLP.part.metal>
0.0000

> <Gold.PLP.part.buried>
-4.4662

> <Gold.PLP.part.nonpolar>
-23.1740

> <Gold.PLP.part.repulsive>
0.2453

> <Gold.PLP.ligand.clash>
0.0000

> <Gold.PLP.ligand.torsion>
1.1966

> <Gold.PLP.Chemscore.Hbond>
4.0000

> <Gold.PLP.Chemscore.CHOScore>
0.0000

> <Gold.PLP.Chemscore.Metal>
0.0000

> <Gold.Chemscore.Hbonds>
donor molecule, donor type, donor heavy atom, donor atom, acceptor molecule, acceptor atom, score
      L1  H    12    44       P1  7948  2.00
      P1  H  7989  7998       L1     8  1.00
      P1  H  7997  8009       L1     7  1.00

> <Gold.PLP.Chemscore.Internal.Correction>
0.2352

> <Gold.Rescore>
     Score         DG    S(hbond)    S(metal)    S(lipo)     H(rot)  DE(clash)    DE(int)     intcor
     15.87     -18.70       2.85        0.00      64.78       1.52       0.01       2.82       ----

> <Gold.Chemscore.Fitness>
15.8697

> <Gold.Chemscore.DG>
-18.7039

> <Gold.Chemscore.ZeroCoef>
-5.4800

> <Gold.Chemscore.Hbond>
2.8544

> <Gold.Chemscore.Metal>
0.0000

> <Gold.Chemscore.Lipo>
64.7770

> <Gold.Chemscore.Internal_Hbond>
0.0000

> <Gold.Chemscore.DEClash>
0.0140

> <Gold.Chemscore.DEInternal>
2.8202

> <Gold.Chemscore.Rot>
1.5190

> <Gold.Chemscore.Internal.Correction>
   9.000000E+99

> <Gold.Chemscore.Hbonds>
donor molecule, donor type, donor heavy atom, donor atom, acceptor molecule, acceptor atom, score
      L1  H    12    44       P1  7948  0.55
      P1  H  7989  7998       L1     8  0.50
      P1  H  7997  8009       L1     7  1.00

> <Gold.Chemscore.Hbond.Weighted>
-9.5337

> <Gold.Chemscore.Metal.Weighted>
-0.0000

> <Gold.Chemscore.Lipo.Weighted>
-7.5789

> <Gold.Chemscore.Internal_Hbond.Weighted>
0.0000

> <Gold.Chemscore.DEClash.Weighted>
0.0140

> <Gold.Chemscore.DEInternal.Weighted>
2.8202

> <Gold.Chemscore.Rot.Weighted>
3.8886

> <Gold.Chemscore.Internal.Correction.Weighted>
   9.000000E+99

> <Gold.Protein.RotatedTorsions>
[ 6907 6896 6895 6894 ] final  -88.51 input  -60.11 | X-H torsion
[ 7974 7965 7964 7962 ] final  159.79 input  175.53 | X-H torsion
[ 8008 7997 7996 7995 ] final -168.78 input   59.86 | X-H torsion
[ 10167 10162 10161 10158 ] final -107.75 input  -65.29 | X-H torsion
[ 10718 10713 10712 10709 ] final -151.20 input   66.30 | X-H torsion
[ 10763 10752 10751 10750 ] final -106.30 input  -60.55 | X-H torsion
[ 11005 11000 10999 10996 ] final   68.39 input  -57.11 | X-H torsion

> <Gold.Protein.ActiveResidues>
 VAL166  LYS551  ARG553  GLY616  TRP617  ASP618  TYR619  PRO620  LYS621  CYS622 
 ASP623  PHE694  ASN695  SER759  ASP760  ASP761  ALA762  ILE779  LEU786  VAL792 
 PHE793  MET794  SER795  GLU796  ALA797  LYS798  CYS799  TRP800  GLU811  SER814 

> <Gold.Protein.RotatedAtoms>
  150.6869  134.2731  159.4596 H   0  0  0  0  0  0  0  0  0  0  0  0  # atno 6907 bound_to 6896
  152.0651  134.9567  160.0584 H   0  0  0  0  0  0  0  0  0  0  0  0  # atno 6908 bound_to 6896
  152.0978  133.4199  159.4610 H   0  0  0  0  0  0  0  0  0  0  0  0  # atno 6909 bound_to 6896
  144.7771  139.7666  143.6274 H   0  0  0  0  0  0  0  0  0  0  0  0  # atno 7974 bound_to 7965
  155.8961  140.1033  157.1383 H   0  0  0  0  0  0  0  0  0  0  0  0  # atno 8008 bound_to 7997
  154.4020  140.1301  156.4441 H   0  0  0  0  0  0  0  0  0  0  0  0  # atno 8009 bound_to 7997
  155.7477  140.3465  155.5137 H   0  0  0  0  0  0  0  0  0  0  0  0  # atno 8010 bound_to 7997
  140.1736  143.4023  152.1335 H   0  0  0  0  0  0  0  0  0  0  0  0  # atno 10167 bound_to 10162
  156.4562  130.8191  151.2422 H   0  0  0  0  0  0  0  0  0  0  0  0  # atno 10718 bound_to 10713
  154.8003  135.4717  154.0260 H   0  0  0  0  0  0  0  0  0  0  0  0  # atno 10763 bound_to 10752
  153.1771  135.6834  153.8535 H   0  0  0  0  0  0  0  0  0  0  0  0  # atno 10764 bound_to 10752
  153.8098  135.3218  155.3377 H   0  0  0  0  0  0  0  0  0  0  0  0  # atno 10765 bound_to 10752
  139.9714  134.6894  156.0439 H   0  0  0  0  0  0  0  0  0  0  0  0  # atno 11005 bound_to 11000
  146.1958  139.5223  142.9776 LP  0  0  0  0  0  0  0  0  0  0  0  0  # atno 17320 bound_to 7965
  145.6154  141.0332  143.1944 LP  0  0  0  0  0  0  0  0  0  0  0  0  # atno 17321 bound_to 7965
  139.5327  144.7176  151.5000 LP  0  0  0  0  0  0  0  0  0  0  0  0  # atno 17342 bound_to 10162
  140.6566  143.8587  150.6841 LP  0  0  0  0  0  0  0  0  0  0  0  0  # atno 17343 bound_to 10162
  157.7500  131.0122  150.3375 LP  0  0  0  0  0  0  0  0  0  0  0  0  # atno 17370 bound_to 10713
  156.3764  130.3872  149.7135 LP  0  0  0  0  0  0  0  0  0  0  0  0  # atno 17371 bound_to 10713
  141.1393  133.6568  156.3685 LP  0  0  0  0  0  0  0  0  0  0  0  0  # atno 17394 bound_to 11000
  140.5285  134.6235  157.5342 LP  0  0  0  0  0  0  0  0  0  0  0  0  # atno 17395 bound_to 11000

$$$$
