AV-unprocessed.smi:2812|AV-procd|sdf|10836|dock9
  -GOLD-   2272015273D 1   1.00000     0.00000
 Structure written by MMmdl.
 55 56  0  0  0  0  0  0  0  0  2 V2000
  147.8710  132.2699  160.9854 C   0  0  0  0  0  0  0  0  0  0  0  0
  147.5537  133.6963  161.4053 C   0  0  0  0  0  0  0  0  0  0  0  0
  147.3434  133.9877  162.8082 C   0  0  0  0  0  0  0  0  0  0  0  0
  147.0522  135.2400  163.1853 C   0  0  0  0  0  0  0  0  0  0  0  0
  146.9601  136.2861  162.2561 N   0  0  0  0  0  0  0  0  0  0  0  0
  146.6523  137.6238  162.7690 C   0  0  0  0  0  0  0  0  0  0  0  0
  147.1764  136.0981  160.9226 C   0  0  0  0  0  0  0  0  0  0  0  0
  147.1635  137.0517  160.1404 O   0  0  0  0  0  0  0  0  0  0  0  0
  147.4417  134.7016  160.4976 C   0  0  0  0  0  0  0  0  0  0  0  0
  147.6615  134.4209  159.1396 N   0  0  0  0  0  0  0  0  0  0  0  0
  146.8159  134.6906  158.1292 C   0  0  0  0  0  0  0  0  0  0  0  0
  145.7095  135.2165  158.2581 O   0  0  0  0  0  0  0  0  0  0  0  0
  147.3198  134.3086  156.9476 N   0  0  0  0  0  0  0  0  0  0  0  0
  146.6504  134.4953  155.6646 C   0  0  0  0  0  0  0  0  0  0  0  0
  147.5755  135.1561  154.6045 C   0  0  1  0  0  0  0  0  0  0  0  0
  149.0818  135.0116  154.9237 C   0  0  0  0  0  0  0  0  0  0  0  0
  149.5780  133.5731  154.7152 C   0  0  0  0  0  0  0  0  0  0  0  0
  149.2391  133.1001  153.2958 C   0  0  0  0  0  0  0  0  0  0  0  0
  147.7414  133.2698  152.9918 C   0  0  0  0  0  0  0  0  0  0  0  0
  147.3096  134.6761  153.2166 N   0  3  1  0  0  0  0  0  0  0  0  0
  145.9351  134.9668  152.7312 C   0  0  0  0  0  0  0  0  0  0  0  0
  145.6944  134.4563  151.2950 C   0  0  0  0  0  0  0  0  0  0  0  0
  144.6617  135.3183  150.5489 C   0  0  0  0  0  0  0  0  0  0  0  0
  145.2538  132.9851  151.3109 C   0  0  0  0  0  0  0  0  0  0  0  0
  147.8472  131.5927  161.8394 H   0  0  0  0  0  0  0  0  0  0  0  0
  148.8649  132.2158  160.5405 H   0  0  0  0  0  0  0  0  0  0  0  0
  147.1439  131.9124  160.2556 H   0  0  0  0  0  0  0  0  0  0  0  0
  147.4122  133.2047  163.5492 H   0  0  0  0  0  0  0  0  0  0  0  0
  146.8823  135.5167  164.2156 H   0  0  0  0  0  0  0  0  0  0  0  0
  145.7927  138.0493  162.2487 H   0  0  0  0  0  0  0  0  0  0  0  0
  147.5025  138.2917  162.6248 H   0  0  0  0  0  0  0  0  0  0  0  0
  146.4138  137.6215  163.8331 H   0  0  0  0  0  0  0  0  0  0  0  0
  148.4844  133.8756  158.9298 H   0  0  0  0  0  0  0  0  0  0  0  0
  148.2318  133.8753  156.9323 H   0  0  0  0  0  0  0  0  0  0  0  0
  146.3085  133.5165  155.3306 H   0  0  0  0  0  0  0  0  0  0  0  0
  145.7496  135.0890  155.8260 H   0  0  0  0  0  0  0  0  0  0  0  0
  147.3631  136.2263  154.6016 H   0  0  0  0  0  0  0  0  0  0  0  0
  149.6472  135.6768  154.2696 H   0  0  0  0  0  0  0  0  0  0  0  0
  149.3009  135.3414  155.9395 H   0  0  0  0  0  0  0  0  0  0  0  0
  150.6548  133.5208  154.8787 H   0  0  0  0  0  0  0  0  0  0  0  0
  149.1227  132.9073  155.4488 H   0  0  0  0  0  0  0  0  0  0  0  0
  149.8229  133.6719  152.5731 H   0  0  0  0  0  0  0  0  0  0  0  0
  149.5300  132.0567  153.1707 H   0  0  0  0  0  0  0  0  0  0  0  0
  147.5611  132.9840  151.9561 H   0  0  0  0  0  0  0  0  0  0  0  0
  147.1481  132.5898  153.6037 H   0  0  0  0  0  0  0  0  0  0  0  0
  145.2103  134.5323  153.4216 H   0  0  0  0  0  0  0  0  0  0  0  0
  145.7578  136.0435  152.7431 H   0  0  0  0  0  0  0  0  0  0  0  0
  146.6304  134.5001  150.7387 H   0  0  0  0  0  0  0  0  0  0  0  0
  143.6961  135.3089  151.0555 H   0  0  0  0  0  0  0  0  0  0  0  0
  144.5062  134.9521  149.5338 H   0  0  0  0  0  0  0  0  0  0  0  0
  144.9868  136.3561  150.4715 H   0  0  0  0  0  0  0  0  0  0  0  0
  144.3175  132.8567  151.8551 H   0  0  0  0  0  0  0  0  0  0  0  0
  146.0046  132.3542  151.7875 H   0  0  0  0  0  0  0  0  0  0  0  0
  145.1044  132.6081  150.2988 H   0  0  0  0  0  0  0  0  0  0  0  0
  147.9128  135.2409  152.6357 H   0  0  0  0  0  0  0  0  0  0  0  0
  1  2  1  0  0  0  0
  1 25  1  0  0  0  0
  1 26  1  0  0  0  0
  1 27  1  0  0  0  0
  2  9  2  0  0  0  0
  2  3  1  0  0  0  0
  3  4  2  0  0  0  0
  3 28  1  0  0  0  0
  4  5  1  0  0  0  0
  4 29  1  0  0  0  0
  5  6  1  0  0  0  0
  5  7  1  0  0  0  0
  6 30  1  0  0  0  0
  6 31  1  0  0  0  0
  6 32  1  0  0  0  0
  7  8  2  0  0  0  0
  7  9  1  0  0  0  0
  9 10  1  0  0  0  0
 10 11  1  0  0  0  0
 10 33  1  0  0  0  0
 11 12  2  0  0  0  0
 11 13  1  0  0  0  0
 13 14  1  0  0  0  0
 13 34  1  0  0  0  0
 14 15  1  0  0  0  0
 14 35  1  0  0  0  0
 14 36  1  0  0  0  0
 15 20  1  0  0  0  0
 15 16  1  0  0  0  0
 15 37  1  0  0  0  0
 16 17  1  0  0  0  0
 16 38  1  0  0  0  0
 16 39  1  0  0  0  0
 17 18  1  0  0  0  0
 17 40  1  0  0  0  0
 17 41  1  0  0  0  0
 18 19  1  0  0  0  0
 18 42  1  0  0  0  0
 18 43  1  0  0  0  0
 19 20  1  0  0  0  0
 19 44  1  0  0  0  0
 19 45  1  0  0  0  0
 20 21  1  0  0  0  0
 20 55  1  0  0  0  0
 21 22  1  0  0  0  0
 21 46  1  0  0  0  0
 21 47  1  0  0  0  0
 22 23  1  0  0  0  0
 22 24  1  0  0  0  0
 22 48  1  0  0  0  0
 23 49  1  0  0  0  0
 23 50  1  0  0  0  0
 23 51  1  0  0  0  0
 24 52  1  0  0  0  0
 24 53  1  0  0  0  0
 24 54  1  0  0  0  0
M  CHG  1  20   1
M  END
> <s_m_source_file>
AV-unprocessed.smi

> <i_m_source_file_index>
2812

> <i_lp_mmshare_version>
43012

> <i_f3d_flags>
0

> <s_epik_input>
W0NIM11jMVtjSF1bY0hdbihbQ0gzXSljKD1PKWMxW05IXUMoPU8pW05IXVtDSDJdW0NAQEhdMltDSDJdW0NIMl1bQ0gyXVtDSDJdTjJbQ0gyXVtDSF0oW0NIM10pW0NIM10=

> <s_epik_cmdline>
J2VwaWtfcHl0aG9uJywgJy1waCcsICc3LjAnLCAnLXRuJywgJzgnLCAnLW1hJywgJzIwMCcsICctbWV0YWxfYmluZGluZycsICctaW1hZScsICc8aW5maWxlLm1hZT4nLCAnLW9tYWUnLCAnPG91dGZpbGUubWFlPic=

> <r_lp_tautomer_probability>
1

> <r_epik_Ionization_Penalty>
0.0010902

> <r_epik_Ionization_Penalty_Charging>
0.00107091

> <r_epik_Ionization_Penalty_Neutral>
1.92854e-05

> <r_epik_State_Penalty>
0.000697184

> <r_epik_Charging_Adjusted_Penalty>
0.0017681

> <i_epik_Tot_Q>
1

> <i_epik_Tot_abs_Q>
1

> <r_epik_Metal_State_Penalty>
-0

> <b_epik_Metal_Only>
0

> <s_lp_Force_Field>
OPLS_2005

> <r_lp_Energy>
38.3811

> <b_lp_Chiralities_Consistent>
1

> <s_lp_Variant>
AV-unprocessed.smi:2812-4

> <Gold.Version>
5.8.1

> <Gold.Id.Protein>
6NUR|6NUR_protein|mol2

> <Gold.PLP.Fitness>
46.0355

> <Gold.PLP.PLP>
-39.1967

> <Gold.PLP.part.hbond>
-2.0000

> <Gold.PLP.part.metal>
0.0000

> <Gold.PLP.part.buried>
0.1673

> <Gold.PLP.part.nonpolar>
-36.4311

> <Gold.PLP.part.repulsive>
0.0577

> <Gold.PLP.ligand.clash>
0.0000

> <Gold.PLP.ligand.torsion>
1.4199

> <Gold.PLP.Chemscore.Hbond>
3.0000

> <Gold.PLP.Chemscore.CHOScore>
0.0000

> <Gold.PLP.Chemscore.Metal>
0.0000

> <Gold.Chemscore.Hbonds>
donor molecule, donor type, donor heavy atom, donor atom, acceptor molecule, acceptor atom, score
      L1  H    20    55       P1  7948  2.00
      P1  H  6934  6947       L1     8  0.78

> <Gold.PLP.Chemscore.Internal.Correction>
0.6786

> <Gold.Rescore>
     Score         DG    S(hbond)    S(metal)    S(lipo)     H(rot)  DE(clash)    DE(int)     intcor
     17.34     -18.96       1.97        0.00      92.22       1.52       0.03       1.60       ----

> <Gold.Chemscore.Fitness>
17.3385

> <Gold.Chemscore.DG>
-18.9634

> <Gold.Chemscore.ZeroCoef>
-5.4800

> <Gold.Chemscore.Hbond>
1.9684

> <Gold.Chemscore.Metal>
0.0000

> <Gold.Chemscore.Lipo>
92.2163

> <Gold.Chemscore.Internal_Hbond>
0.0000

> <Gold.Chemscore.DEClash>
0.0274

> <Gold.Chemscore.DEInternal>
1.5976

> <Gold.Chemscore.Rot>
1.5157

> <Gold.Chemscore.Internal.Correction>
   9.000000E+99

> <Gold.Chemscore.Hbonds>
donor molecule, donor type, donor heavy atom, donor atom, acceptor molecule, acceptor atom, score
      L1  H    20    55       P1  7948  0.98
      P1  H  6934  6947       L1     8  0.74

> <Gold.Chemscore.Hbond.Weighted>
-6.5744

> <Gold.Chemscore.Metal.Weighted>
-0.0000

> <Gold.Chemscore.Lipo.Weighted>
-10.7893

> <Gold.Chemscore.Internal_Hbond.Weighted>
0.0000

> <Gold.Chemscore.DEClash.Weighted>
0.0274

> <Gold.Chemscore.DEInternal.Weighted>
1.5976

> <Gold.Chemscore.Rot.Weighted>
3.8803

> <Gold.Chemscore.Internal.Correction.Weighted>
   9.000000E+99

> <Gold.Protein.RotatedTorsions>
[ 6907 6896 6895 6894 ] final  149.99 input  -60.11 | X-H torsion
[ 7974 7965 7964 7962 ] final  149.80 input  175.53 | X-H torsion
[ 8008 7997 7996 7995 ] final  172.85 input   59.86 | X-H torsion
[ 10167 10162 10161 10158 ] final   98.03 input  -65.29 | X-H torsion
[ 10718 10713 10712 10709 ] final -105.51 input   66.30 | X-H torsion
[ 10763 10752 10751 10750 ] final  -55.73 input  -60.55 | X-H torsion
[ 11005 11000 10999 10996 ] final   70.69 input  -57.11 | X-H torsion

> <Gold.Protein.ActiveResidues>
 VAL166  LYS551  ARG553  GLY616  TRP617  ASP618  TYR619  PRO620  LYS621  CYS622 
 ASP623  PHE694  ASN695  SER759  ASP760  ASP761  ALA762  ILE779  LEU786  VAL792 
 PHE793  MET794  SER795  GLU796  ALA797  LYS798  CYS799  TRP800  GLU811  SER814 

> <Gold.Protein.RotatedAtoms>
  152.1205  133.4351  159.4673 H   0  0  0  0  0  0  0  0  0  0  0  0  # atno 6907 bound_to 6896
  150.6871  134.2540  159.4531 H   0  0  0  0  0  0  0  0  0  0  0  0  # atno 6908 bound_to 6896
  152.0416  134.9707  160.0624 H   0  0  0  0  0  0  0  0  0  0  0  0  # atno 6909 bound_to 6896
  144.8411  139.6327  143.6016 H   0  0  0  0  0  0  0  0  0  0  0  0  # atno 7974 bound_to 7965
  156.1133  140.1475  156.9307 H   0  0  0  0  0  0  0  0  0  0  0  0  # atno 8008 bound_to 7997
  154.4783  140.0887  156.7358 H   0  0  0  0  0  0  0  0  0  0  0  0  # atno 8009 bound_to 7997
  155.4557  140.3436  155.4308 H   0  0  0  0  0  0  0  0  0  0  0  0  # atno 8010 bound_to 7997
  139.7746  144.6910  151.0107 H   0  0  0  0  0  0  0  0  0  0  0  0  # atno 10167 bound_to 10162
  156.0349  130.5567  150.7549 H   0  0  0  0  0  0  0  0  0  0  0  0  # atno 10718 bound_to 10713
  154.1954  135.6420  153.5071 H   0  0  0  0  0  0  0  0  0  0  0  0  # atno 10763 bound_to 10752
  153.0025  135.5438  154.6372 H   0  0  0  0  0  0  0  0  0  0  0  0  # atno 10764 bound_to 10752
  154.5771  135.2922  155.0743 H   0  0  0  0  0  0  0  0  0  0  0  0  # atno 10765 bound_to 10752
  139.9584  134.7104  156.0701 H   0  0  0  0  0  0  0  0  0  0  0  0  # atno 11005 bound_to 11000
  146.2703  139.6620  142.9300 LP  0  0  0  0  0  0  0  0  0  0  0  0  # atno 17320 bound_to 7965
  145.4692  141.0435  143.2708 LP  0  0  0  0  0  0  0  0  0  0  0  0  # atno 17321 bound_to 7965
  140.7816  143.4550  151.0358 LP  0  0  0  0  0  0  0  0  0  0  0  0  # atno 17342 bound_to 10162
  139.8233  143.7791  152.3177 LP  0  0  0  0  0  0  0  0  0  0  0  0  # atno 17343 bound_to 10162
  157.5084  131.0923  151.0229 LP  0  0  0  0  0  0  0  0  0  0  0  0  # atno 17370 bound_to 10713
  157.0591  130.5818  149.5383 LP  0  0  0  0  0  0  0  0  0  0  0  0  # atno 17371 bound_to 10713
  141.1258  133.6599  156.3333 LP  0  0  0  0  0  0  0  0  0  0  0  0  # atno 17394 bound_to 11000
  140.5557  134.5984  157.5420 LP  0  0  0  0  0  0  0  0  0  0  0  0  # atno 17395 bound_to 11000

$$$$
