AV-unprocessed.smi:2172|AV-procd|sdf|8834|dock10
  -GOLD-   2272012 23D 1   1.00000     0.00000
 Structure written by MMmdl.
 36 38  0  0  0  0  0  0  0  0  1 V2000
  152.2270  137.6311  154.6478 O   0  0  0  0  0  0  0  0  0  0  0  0
  152.3264  138.8769  155.3031 C   0  0  0  0  0  0  0  0  0  0  0  0
  151.0320  139.6324  155.3260 C   0  0  0  0  0  0  0  0  0  0  0  0
  150.4706  140.0891  154.2056 N   0  0  0  0  0  0  0  0  0  0  0  0
  149.3147  140.6879  154.6653 C   0  0  0  0  0  0  0  0  0  0  0  0
  148.2852  141.3555  153.9640 C   0  0  0  0  0  0  0  0  0  0  0  0
  147.1786  141.8884  154.6571 C   0  0  0  0  0  0  0  0  0  0  0  0
  147.0846  141.7596  156.0580 C   0  0  0  0  0  0  0  0  0  0  0  0
  148.1001  141.0991  156.7759 C   0  0  0  0  0  0  0  0  0  0  0  0
  149.2054  140.5730  156.0799 C   0  0  0  0  0  0  0  0  0  0  0  0
  150.3522  139.8898  156.4737 N   0  0  0  0  0  0  0  0  0  0  0  0
  150.7035  139.5308  157.8432 C   0  0  0  0  0  0  0  0  0  0  0  0
  152.0387  140.1516  158.3031 C   0  0  2  0  0  0  0  0  0  0  0  0
  152.6208  139.3596  159.3198 O   0  0  0  0  0  0  0  0  0  0  0  0
  151.8532  141.5991  158.7315 C   0  0  0  0  0  0  0  0  0  0  0  0
  151.2278  142.5158  157.8594 C   0  0  0  0  0  0  0  0  0  0  0  0
  151.0446  143.8566  158.2503 C   0  0  0  0  0  0  0  0  0  0  0  0
  151.4836  144.2880  159.5169 C   0  0  0  0  0  0  0  0  0  0  0  0
  151.2597  145.9308  159.9948 Cl  0  0  0  0  0  0  0  0  0  0  0  0
  152.1036  143.3767  160.3935 C   0  0  0  0  0  0  0  0  0  0  0  0
  152.2861  142.0359  160.0031 C   0  0  0  0  0  0  0  0  0  0  0  0
  151.9278  137.7804  153.7643 H   0  0  0  0  0  0  0  0  0  0  0  0
  152.6583  138.7008  156.3268 H   0  0  0  0  0  0  0  0  0  0  0  0
  153.0985  139.4823  154.8288 H   0  0  0  0  0  0  0  0  0  0  0  0
  148.3468  141.4565  152.8906 H   0  0  0  0  0  0  0  0  0  0  0  0
  146.3975  142.3965  154.1109 H   0  0  0  0  0  0  0  0  0  0  0  0
  146.2326  142.1685  156.5811 H   0  0  0  0  0  0  0  0  0  0  0  0
  148.0296  140.9984  157.8486 H   0  0  0  0  0  0  0  0  0  0  0  0
  149.8954  139.8683  158.4933 H   0  0  0  0  0  0  0  0  0  0  0  0
  150.7408  138.4472  157.9458 H   0  0  0  0  0  0  0  0  0  0  0  0
  152.7419  140.1379  157.4699 H   0  0  0  0  0  0  0  0  0  0  0  0
  152.7099  138.4758  158.9978 H   0  0  0  0  0  0  0  0  0  0  0  0
  150.8850  142.1937  156.8871 H   0  0  0  0  0  0  0  0  0  0  0  0
  150.5663  144.5531  157.5773 H   0  0  0  0  0  0  0  0  0  0  0  0
  152.4393  143.7043  161.3664 H   0  0  0  0  0  0  0  0  0  0  0  0
  152.7585  141.3437  160.6848 H   0  0  0  0  0  0  0  0  0  0  0  0
  1  2  1  0  0  0  0
  1 22  1  0  0  0  0
  2  3  1  0  0  0  0
  2 23  1  0  0  0  0
  2 24  1  0  0  0  0
  3 11  1  0  0  0  0
  3  4  2  0  0  0  0
  4  5  1  0  0  0  0
  5 10  2  0  0  0  0
  5  6  1  0  0  0  0
  6  7  2  0  0  0  0
  6 25  1  0  0  0  0
  7  8  1  0  0  0  0
  7 26  1  0  0  0  0
  8  9  2  0  0  0  0
  8 27  1  0  0  0  0
  9 10  1  0  0  0  0
  9 28  1  0  0  0  0
 10 11  1  0  0  0  0
 11 12  1  0  0  0  0
 12 13  1  0  0  0  0
 12 29  1  0  0  0  0
 12 30  1  0  0  0  0
 13 14  1  0  0  0  0
 13 15  1  0  0  0  0
 13 31  1  0  0  0  0
 14 32  1  0  0  0  0
 15 21  1  0  0  0  0
 15 16  2  0  0  0  0
 16 17  1  0  0  0  0
 16 33  1  0  0  0  0
 17 18  2  0  0  0  0
 17 34  1  0  0  0  0
 18 19  1  0  0  0  0
 18 20  1  0  0  0  0
 20 21  2  0  0  0  0
 20 35  1  0  0  0  0
 21 36  1  0  0  0  0
M  END
> <s_m_source_file>
AV-unprocessed.smi

> <i_m_source_file_index>
2172

> <i_lp_mmshare_version>
43012

> <i_f3d_flags>
0

> <s_epik_input>
W2NIXTFbY0hdW2NIXVtjSF1jKGMxMiluKGMobjIpW0NIMl1bT0hdKVtDSDJdW0NASF0oW09IXSljM1tjSF1bY0hdYyhDbClbY0hdW2NIXTM=

> <s_epik_cmdline>
J2VwaWtfcHl0aG9uJywgJy1waCcsICc3LjAnLCAnLXRuJywgJzgnLCAnLW1hJywgJzIwMCcsICctbWV0YWxfYmluZGluZycsICctaW1hZScsICc8aW5maWxlLm1hZT4nLCAnLW9tYWUnLCAnPG91dGZpbGUubWFlPic=

> <r_epik_Ionization_Penalty>
0.0634726

> <r_epik_Ionization_Penalty_Charging>
0

> <r_epik_Ionization_Penalty_Neutral>
0.0634726

> <r_epik_State_Penalty>
0.0551572

> <r_epik_Charging_Adjusted_Penalty>
0.0551572

> <i_epik_Tot_Q>
0

> <i_epik_Tot_abs_Q>
0

> <r_epik_Metal_State_Penalty>
5.78034e-05

> <b_epik_Metal_Only>
0

> <s_lp_Force_Field>
OPLS_2005

> <r_lp_Energy>
12.889

> <b_lp_Chiralities_Consistent>
1

> <s_lp_Variant>
AV-unprocessed.smi:2172-1

> <Gold.Version>
5.8.1

> <Gold.Id.Protein>
6NUR|6NUR_protein|mol2

> <Gold.PLP.Fitness>
52.0421

> <Gold.PLP.PLP>
-47.1146

> <Gold.PLP.part.hbond>
-2.0000

> <Gold.PLP.part.metal>
0.0000

> <Gold.PLP.part.buried>
-4.4851

> <Gold.PLP.part.nonpolar>
-40.9828

> <Gold.PLP.part.repulsive>
0.2931

> <Gold.PLP.ligand.clash>
0.0000

> <Gold.PLP.ligand.torsion>
0.3294

> <Gold.PLP.Chemscore.Hbond>
1.8480

> <Gold.PLP.Chemscore.CHOScore>
0.0000

> <Gold.PLP.Chemscore.Metal>
0.0000

> <Gold.Chemscore.Hbonds>
donor molecule, donor type, donor heavy atom, donor atom, acceptor molecule, acceptor atom, score
      P1  H  7989  7998       L1     4  1.00
      P1  H 10752 10765       L1     1  0.52

> <Gold.PLP.Chemscore.Internal.Correction>
0.0423

> <Gold.Rescore>
     Score         DG    S(hbond)    S(metal)    S(lipo)     H(rot)  DE(clash)    DE(int)     intcor
     17.33     -17.88       1.49        0.00     120.82       2.62       0.20       0.35       ----

> <Gold.Chemscore.Fitness>
17.3332

> <Gold.Chemscore.DG>
-17.8842

> <Gold.Chemscore.ZeroCoef>
-5.4800

> <Gold.Chemscore.Hbond>
1.4921

> <Gold.Chemscore.Metal>
0.0000

> <Gold.Chemscore.Lipo>
120.8213

> <Gold.Chemscore.Internal_Hbond>
0.0000

> <Gold.Chemscore.DEClash>
0.1984

> <Gold.Chemscore.DEInternal>
0.3526

> <Gold.Chemscore.Rot>
2.6232

> <Gold.Chemscore.Internal.Correction>
   9.000000E+99

> <Gold.Chemscore.Hbonds>
donor molecule, donor type, donor heavy atom, donor atom, acceptor molecule, acceptor atom, score
      P1  H  7989  7998       L1     4  0.47
      P1  H 10752 10765       L1     1  0.10

> <Gold.Chemscore.Hbond.Weighted>
-4.9836

> <Gold.Chemscore.Metal.Weighted>
-0.0000

> <Gold.Chemscore.Lipo.Weighted>
-14.1361

> <Gold.Chemscore.Internal_Hbond.Weighted>
0.0000

> <Gold.Chemscore.DEClash.Weighted>
0.1984

> <Gold.Chemscore.DEInternal.Weighted>
0.3526

> <Gold.Chemscore.Rot.Weighted>
6.7154

> <Gold.Chemscore.Internal.Correction.Weighted>
   9.000000E+99

> <Gold.Protein.RotatedTorsions>
[ 6907 6896 6895 6894 ] final   40.43 input  -60.11 | X-H torsion
[ 7974 7965 7964 7962 ] final  131.17 input  175.53 | X-H torsion
[ 8008 7997 7996 7995 ] final  122.35 input   59.86 | X-H torsion
[ 10167 10162 10161 10158 ] final -154.28 input  -65.29 | X-H torsion
[ 10718 10713 10712 10709 ] final   16.79 input   66.30 | X-H torsion
[ 10763 10752 10751 10750 ] final  167.42 input  -60.55 | X-H torsion
[ 11005 11000 10999 10996 ] final   75.58 input  -57.11 | X-H torsion

> <Gold.Protein.ActiveResidues>
 VAL166  LYS551  ARG553  GLY616  TRP617  ASP618  TYR619  PRO620  LYS621  CYS622 
 ASP623  PHE694  ASN695  SER759  ASP760  ASP761  ALA762  ILE779  LEU786  VAL792 
 PHE793  MET794  SER795  GLU796  ALA797  LYS798  CYS799  TRP800  GLU811  SER814 

> <Gold.Protein.RotatedAtoms>
  152.1824  134.8742  160.0524 H   0  0  0  0  0  0  0  0  0  0  0  0  # atno 6907 bound_to 6896
  151.9662  133.3706  159.4062 H   0  0  0  0  0  0  0  0  0  0  0  0  # atno 6908 bound_to 6896
  150.6920  134.4112  159.5206 H   0  0  0  0  0  0  0  0  0  0  0  0  # atno 6909 bound_to 6896
  145.0102  139.4228  143.5249 H   0  0  0  0  0  0  0  0  0  0  0  0  # atno 7974 bound_to 7965
  156.2724  140.2788  156.1453 H   0  0  0  0  0  0  0  0  0  0  0  0  # atno 8008 bound_to 7997
  155.0910  140.0388  157.2686 H   0  0  0  0  0  0  0  0  0  0  0  0  # atno 8009 bound_to 7997
  154.6889  140.2625  155.6838 H   0  0  0  0  0  0  0  0  0  0  0  0  # atno 8010 bound_to 7997
  139.7026  143.9237  152.2435 H   0  0  0  0  0  0  0  0  0  0  0  0  # atno 10167 bound_to 10162
  157.0729  130.6355  149.5809 H   0  0  0  0  0  0  0  0  0  0  0  0  # atno 10718 bound_to 10713
  154.3536  135.2753  155.2358 H   0  0  0  0  0  0  0  0  0  0  0  0  # atno 10763 bound_to 10752
  154.4577  135.5915  153.6238 H   0  0  0  0  0  0  0  0  0  0  0  0  # atno 10764 bound_to 10752
  152.9848  135.6057  154.3749 H   0  0  0  0  0  0  0  0  0  0  0  0  # atno 10765 bound_to 10752
  139.9337  134.7530  156.1289 H   0  0  0  0  0  0  0  0  0  0  0  0  # atno 11005 bound_to 11000
  146.3468  139.9541  142.8725 LP  0  0  0  0  0  0  0  0  0  0  0  0  # atno 17320 bound_to 7965
  145.2034  140.9864  143.4142 LP  0  0  0  0  0  0  0  0  0  0  0  0  # atno 17321 bound_to 7965
  139.9084  144.6871  150.8589 LP  0  0  0  0  0  0  0  0  0  0  0  0  # atno 17342 bound_to 10162
  140.7713  143.3461  151.2108 LP  0  0  0  0  0  0  0  0  0  0  0  0  # atno 17343 bound_to 10162
  155.9945  130.5009  150.7424 LP  0  0  0  0  0  0  0  0  0  0  0  0  # atno 17370 bound_to 10713
  157.4863  131.0907  151.0478 LP  0  0  0  0  0  0  0  0  0  0  0  0  # atno 17371 bound_to 10713
  141.0939  133.6703  156.2602 LP  0  0  0  0  0  0  0  0  0  0  0  0  # atno 17394 bound_to 11000
  140.6133  134.5436  157.5537 LP  0  0  0  0  0  0  0  0  0  0  0  0  # atno 17395 bound_to 11000

$$$$
