AV-unprocessed.smi:2789|AV-procd|sdf|10762|dock10
  -GOLD-   2272015193D 1   1.00000     0.00000
 Structure written by MMmdl.
 35 36  0  0  0  0  0  0  0  0  1 V2000
  152.7164  142.9990  162.5110 C   0  0  0  0  0  0  0  0  0  0  0  0
  151.7340  142.8810  161.4943 O   0  0  0  0  0  0  0  0  0  0  0  0
  152.2046  143.2276  160.1988 C   0  0  2  0  0  0  0  0  0  0  0  0
  152.4108  144.7406  160.0445 C   0  0  0  0  0  0  0  0  0  0  0  0
  152.1385  145.0128  158.5697 C   0  0  0  0  0  0  0  0  0  0  0  0
  150.9769  144.0792  158.2340 C   0  0  0  0  0  0  0  0  0  0  0  0
  151.1589  142.8385  159.1313 C   0  0  1  0  0  0  0  0  0  0  0  0
  151.6180  141.6890  158.3551 N   0  0  0  0  0  0  0  0  0  0  0  0
  150.9820  141.1713  157.2947 C   0  0  0  0  0  0  0  0  0  0  0  0
  149.9284  141.6257  156.8484 O   0  0  0  0  0  0  0  0  0  0  0  0
  151.6481  140.1138  156.7995 N   0  0  0  0  0  0  0  0  0  0  0  0
  151.3240  139.3248  155.7406 C   0  0  0  0  0  0  0  0  0  0  0  0
  150.6100  139.6422  154.6172 C   0  0  0  0  0  0  0  0  0  0  0  0
  150.6077  138.4137  153.8964 C   0  0  0  0  0  0  0  0  0  0  0  0
  151.2586  137.4418  154.5230 N   0  0  0  0  0  0  0  0  0  0  0  0
  151.7038  138.0023  155.6689 N   0  0  0  0  0  0  0  0  0  0  0  0
  152.4698  137.2127  156.6134 C   0  0  0  0  0  0  0  0  0  0  0  0
  152.2889  142.6949  163.4664 H   0  0  0  0  0  0  0  0  0  0  0  0
  153.0669  144.0261  162.6153 H   0  0  0  0  0  0  0  0  0  0  0  0
  153.5733  142.3554  162.3082 H   0  0  0  0  0  0  0  0  0  0  0  0
  153.1477  142.7166  159.9928 H   0  0  0  0  0  0  0  0  0  0  0  0
  151.6804  145.2791  160.6500 H   0  0  0  0  0  0  0  0  0  0  0  0
  153.4045  145.0648  160.3546 H   0  0  0  0  0  0  0  0  0  0  0  0
  151.9079  146.0595  158.3700 H   0  0  0  0  0  0  0  0  0  0  0  0
  153.0134  144.7425  157.9768 H   0  0  0  0  0  0  0  0  0  0  0  0
  150.0374  144.5704  158.4911 H   0  0  0  0  0  0  0  0  0  0  0  0
  150.9332  143.8467  157.1691 H   0  0  0  0  0  0  0  0  0  0  0  0
  150.2075  142.5991  159.6110 H   0  0  0  0  0  0  0  0  0  0  0  0
  152.4783  141.2544  158.6546 H   0  0  0  0  0  0  0  0  0  0  0  0
  152.5061  139.8687  157.2714 H   0  0  0  0  0  0  0  0  0  0  0  0
  150.1580  140.5822  154.3392 H   0  0  0  0  0  0  0  0  0  0  0  0
  150.1537  138.1995  152.9401 H   0  0  0  0  0  0  0  0  0  0  0  0
  153.4781  137.6187  156.6959 H   0  0  0  0  0  0  0  0  0  0  0  0
  152.5320  136.1742  156.2857 H   0  0  0  0  0  0  0  0  0  0  0  0
  151.9905  137.2449  157.5922 H   0  0  0  0  0  0  0  0  0  0  0  0
  1  2  1  0  0  0  0
  1 18  1  0  0  0  0
  1 19  1  0  0  0  0
  1 20  1  0  0  0  0
  2  3  1  0  0  0  0
  3  7  1  0  0  0  0
  3  4  1  0  0  0  0
  3 21  1  0  0  0  0
  4  5  1  0  0  0  0
  4 22  1  0  0  0  0
  4 23  1  0  0  0  0
  5  6  1  0  0  0  0
  5 24  1  0  0  0  0
  5 25  1  0  0  0  0
  6  7  1  0  0  0  0
  6 26  1  0  0  0  0
  6 27  1  0  0  0  0
  7  8  1  0  0  0  0
  7 28  1  0  0  0  0
  8  9  1  0  0  0  0
  8 29  1  0  0  0  0
  9 10  2  0  0  0  0
  9 11  1  0  0  0  0
 11 12  1  0  0  0  0
 11 30  1  0  0  0  0
 12 16  1  0  0  0  0
 12 13  2  0  0  0  0
 13 14  1  0  0  0  0
 13 31  1  0  0  0  0
 14 15  2  0  0  0  0
 14 32  1  0  0  0  0
 15 16  1  0  0  0  0
 16 17  1  0  0  0  0
 17 33  1  0  0  0  0
 17 34  1  0  0  0  0
 17 35  1  0  0  0  0
M  END
> <s_m_source_file>
AV-unprocessed.smi

> <i_m_source_file_index>
2789

> <i_lp_mmshare_version>
43012

> <i_f3d_flags>
0

> <s_epik_input>
W0NIM11PW0NAQEhdMVtDSDJdW0NIMl1bQ0gyXVtDQEhdMVtOSF1DKD1PKVtOSF1jMltjSF1bY0hdbm4yW0NIM10=

> <s_epik_cmdline>
J2VwaWtfcHl0aG9uJywgJy1waCcsICc3LjAnLCAnLXRuJywgJzgnLCAnLW1hJywgJzIwMCcsICctbWV0YWxfYmluZGluZycsICctaW1hZScsICc8aW5maWxlLm1hZT4nLCAnLW9tYWUnLCAnPG91dGZpbGUubWFlPic=

> <r_lp_tautomer_probability>
1

> <r_epik_Ionization_Penalty>
4.40608e-05

> <r_epik_Ionization_Penalty_Charging>
0

> <r_epik_Ionization_Penalty_Neutral>
4.40608e-05

> <r_epik_State_Penalty>
-0

> <r_epik_Charging_Adjusted_Penalty>
0

> <i_epik_Tot_Q>
0

> <i_epik_Tot_abs_Q>
0

> <r_epik_Metal_State_Penalty>
-0

> <b_epik_Metal_Only>
0

> <s_lp_Force_Field>
OPLS_2005

> <r_lp_Energy>
20.8704

> <b_lp_Chiralities_Consistent>
1

> <s_lp_Variant>
AV-unprocessed.smi:2789-1

> <Gold.Version>
5.8.1

> <Gold.Id.Protein>
6NUR|6NUR_protein|mol2

> <Gold.PLP.Fitness>
39.8041

> <Gold.PLP.PLP>
-33.2921

> <Gold.PLP.part.hbond>
-1.0000

> <Gold.PLP.part.metal>
0.0000

> <Gold.PLP.part.buried>
-3.9964

> <Gold.PLP.part.nonpolar>
-28.9364

> <Gold.PLP.part.repulsive>
0.5917

> <Gold.PLP.ligand.clash>
0.0000

> <Gold.PLP.ligand.torsion>
0.2525

> <Gold.PLP.Chemscore.Hbond>
0.4259

> <Gold.PLP.Chemscore.CHOScore>
1.9113

> <Gold.PLP.Chemscore.Metal>
0.0000

> <Gold.Chemscore.Hbonds>
donor molecule, donor type, donor heavy atom, donor atom, acceptor molecule, acceptor atom, score
      P1  H  6933  6945       L1     2  0.40
      L1  C    14    32       P1  7948  0.96
      L1  C    14    32       P1  7949  0.04
      L1  C    14    32       P1  7957  0.73

> <Gold.PLP.Chemscore.Internal.Correction>
0.0055

> <Gold.Rescore>
     Score         DG    S(hbond)    S(metal)    S(lipo)     H(rot)  DE(clash)    DE(int)     intcor
     12.83     -14.61       0.71        0.00      85.66       1.27       0.03       1.76       ----

> <Gold.Chemscore.Fitness>
12.8266

> <Gold.Chemscore.DG>
-14.6126

> <Gold.Chemscore.ZeroCoef>
-5.4800

> <Gold.Chemscore.Hbond>
0.7078

> <Gold.Chemscore.Metal>
0.0000

> <Gold.Chemscore.Lipo>
85.6647

> <Gold.Chemscore.Internal_Hbond>
0.0000

> <Gold.Chemscore.DEClash>
0.0288

> <Gold.Chemscore.DEInternal>
1.7572

> <Gold.Chemscore.Rot>
1.2712

> <Gold.Chemscore.Internal.Correction>
   9.000000E+99

> <Gold.Chemscore.Hbonds>
donor molecule, donor type, donor heavy atom, donor atom, acceptor molecule, acceptor atom, score
      P1  H  6933  6945       L1     2  0.30

> <Gold.Chemscore.Hbond.Weighted>
-2.3642

> <Gold.Chemscore.Metal.Weighted>
-0.0000

> <Gold.Chemscore.Lipo.Weighted>
-10.0228

> <Gold.Chemscore.Internal_Hbond.Weighted>
0.0000

> <Gold.Chemscore.DEClash.Weighted>
0.0288

> <Gold.Chemscore.DEInternal.Weighted>
1.7572

> <Gold.Chemscore.Rot.Weighted>
3.2544

> <Gold.Chemscore.Internal.Correction.Weighted>
   9.000000E+99

> <Gold.Protein.RotatedTorsions>
[ 6907 6896 6895 6894 ] final  139.50 input  -60.11 | X-H torsion
[ 7974 7965 7964 7962 ] final  -94.97 input  175.53 | X-H torsion
[ 8008 7997 7996 7995 ] final  -36.34 input   59.86 | X-H torsion
[ 10167 10162 10161 10158 ] final  111.78 input  -65.29 | X-H torsion
[ 10718 10713 10712 10709 ] final  178.40 input   66.30 | X-H torsion
[ 10763 10752 10751 10750 ] final  -37.05 input  -60.55 | X-H torsion
[ 11005 11000 10999 10996 ] final -123.63 input  -57.11 | X-H torsion

> <Gold.Protein.ActiveResidues>
 VAL166  LYS551  ARG553  GLY616  TRP617  ASP618  TYR619  PRO620  LYS621  CYS622 
 ASP623  PHE694  ASN695  SER759  ASP760  ASP761  ALA762  ILE779  LEU786  VAL792 
 PHE793  MET794  SER795  GLU796  ALA797  LYS798  CYS799  TRP800  GLU811  SER814 

> <Gold.Protein.RotatedAtoms>
  152.2541  133.5240  159.5342 H   0  0  0  0  0  0  0  0  0  0  0  0  # atno 6907 bound_to 6896
  150.7103  134.0919  159.3944 H   0  0  0  0  0  0  0  0  0  0  0  0  # atno 6908 bound_to 6896
  151.8838  135.0443  160.0542 H   0  0  0  0  0  0  0  0  0  0  0  0  # atno 6909 bound_to 6896
  145.3662  140.9499  143.2473 H   0  0  0  0  0  0  0  0  0  0  0  0  # atno 7974 bound_to 7965
  154.4075  140.1633  156.2359 H   0  0  0  0  0  0  0  0  0  0  0  0  # atno 8008 bound_to 7997
  155.9243  140.3419  155.6175 H   0  0  0  0  0  0  0  0  0  0  0  0  # atno 8009 bound_to 7997
  155.7184  140.0765  157.2332 H   0  0  0  0  0  0  0  0  0  0  0  0  # atno 8010 bound_to 7997
  139.6585  144.7129  151.1911 H   0  0  0  0  0  0  0  0  0  0  0  0  # atno 10167 bound_to 10162
  156.8912  130.9848  151.3049 H   0  0  0  0  0  0  0  0  0  0  0  0  # atno 10718 bound_to 10713
  153.8898  135.6813  153.4761 H   0  0  0  0  0  0  0  0  0  0  0  0  # atno 10763 bound_to 10752
  153.1187  135.4749  154.9157 H   0  0  0  0  0  0  0  0  0  0  0  0  # atno 10764 bound_to 10752
  154.7628  135.3215  154.8298 H   0  0  0  0  0  0  0  0  0  0  0  0  # atno 10765 bound_to 10752
  140.9904  134.0547  157.3661 H   0  0  0  0  0  0  0  0  0  0  0  0  # atno 11005 bound_to 11000
  144.8610  139.5177  143.6812 LP  0  0  0  0  0  0  0  0  0  0  0  0  # atno 17320 bound_to 7965
  146.2906  139.7127  142.9164 LP  0  0  0  0  0  0  0  0  0  0  0  0  # atno 17321 bound_to 7965
  140.7570  143.6033  150.8678 LP  0  0  0  0  0  0  0  0  0  0  0  0  # atno 17342 bound_to 10162
  139.9688  143.6080  152.2980 LP  0  0  0  0  0  0  0  0  0  0  0  0  # atno 17343 bound_to 10162
  157.6083  130.8563  149.8910 LP  0  0  0  0  0  0  0  0  0  0  0  0  # atno 17370 bound_to 10713
  156.0628  130.3697  150.0944 LP  0  0  0  0  0  0  0  0  0  0  0  0  # atno 17371 bound_to 10713
  139.8989  135.0156  156.7173 LP  0  0  0  0  0  0  0  0  0  0  0  0  # atno 17394 bound_to 11000
  140.7049  133.9274  155.8047 LP  0  0  0  0  0  0  0  0  0  0  0  0  # atno 17395 bound_to 11000

$$$$
