AV-unprocessed.smi:3143|AV-procd|sdf|11974|dock9
  -GOLD-   2272017373D 1   1.00000     0.00000
 Structure written by MMmdl.
 38 39  0  0  0  0  0  0  0  0  2 V2000
  149.0792  141.5350  154.5610 C   0  0  0  0  0  0  0  0  0  0  0  0
  149.7990  141.3659  155.9084 C   0  0  2  0  0  0  0  0  0  0  0  0
  150.6038  142.5767  156.1929 N   0  3  0  0  0  0  0  0  0  0  0  0
  151.4309  142.5043  157.4160 C   0  0  0  0  0  0  0  0  0  0  0  0
  151.1020  143.6614  158.3707 C   0  0  0  0  0  0  0  0  0  0  0  0
  151.6873  143.4652  159.6835 N   0  0  0  0  0  0  0  0  0  0  0  0
  152.4990  142.4375  160.1164 C   0  0  0  0  0  0  0  0  0  0  0  0
  152.7895  142.6749  161.4294 C   0  0  0  0  0  0  0  0  0  0  0  0
  152.0949  143.8830  161.7166 C   0  0  0  0  0  0  0  0  0  0  0  0
  151.4332  144.3516  160.6704 N   0  0  0  0  0  0  0  0  0  0  0  0
  150.6752  140.0972  155.8817 C   0  0  0  0  0  0  0  0  0  0  0  0
  151.5222  139.9804  154.9946 O   0  0  0  0  0  0  0  0  0  0  0  0
  150.4861  139.1417  156.8174 N   0  0  0  0  0  0  0  0  0  0  0  0
  151.2728  137.9104  156.8734 C   0  0  0  0  0  0  0  0  0  0  0  0
  150.9265  137.2553  158.2103 C   0  0  0  0  0  0  0  0  0  0  0  0
  149.5326  137.7771  158.5273 C   0  0  0  0  0  0  0  0  0  0  0  0
  149.5058  139.1725  157.9033 C   0  0  0  0  0  0  0  0  0  0  0  0
  148.4621  140.6676  154.3243 H   0  0  0  0  0  0  0  0  0  0  0  0
  149.7874  141.6698  153.7423 H   0  0  0  0  0  0  0  0  0  0  0  0
  148.4225  142.4051  154.5758 H   0  0  0  0  0  0  0  0  0  0  0  0
  149.0430  141.2928  156.6902 H   0  0  0  0  0  0  0  0  0  0  0  0
  151.2024  142.7548  155.3985 H   0  0  0  0  0  0  0  0  0  0  0  0
  151.2522  141.5502  157.9136 H   0  0  0  0  0  0  0  0  0  0  0  0
  152.4868  142.5328  157.1446 H   0  0  0  0  0  0  0  0  0  0  0  0
  151.4686  144.6067  157.9678 H   0  0  0  0  0  0  0  0  0  0  0  0
  150.0218  143.7623  158.4852 H   0  0  0  0  0  0  0  0  0  0  0  0
  152.8003  141.6320  159.4627 H   0  0  0  0  0  0  0  0  0  0  0  0
  153.4026  142.0752  162.0859 H   0  0  0  0  0  0  0  0  0  0  0  0
  152.0510  144.4286  162.6477 H   0  0  0  0  0  0  0  0  0  0  0  0
  150.9805  137.2643  156.0444 H   0  0  0  0  0  0  0  0  0  0  0  0
  152.3441  138.1012  156.7930 H   0  0  0  0  0  0  0  0  0  0  0  0
  150.9737  136.1665  158.1732 H   0  0  0  0  0  0  0  0  0  0  0  0
  151.6258  137.5945  158.9757 H   0  0  0  0  0  0  0  0  0  0  0  0
  148.7876  137.1446  158.0425 H   0  0  0  0  0  0  0  0  0  0  0  0
  149.3169  137.7874  159.5961 H   0  0  0  0  0  0  0  0  0  0  0  0
  149.8113  139.9197  158.6372 H   0  0  0  0  0  0  0  0  0  0  0  0
  148.5033  139.4234  157.5551 H   0  0  0  0  0  0  0  0  0  0  0  0
  149.9695  143.3551  156.2999 H   0  0  0  0  0  0  0  0  0  0  0  0
  1  2  1  0  0  0  0
  1 18  1  0  0  0  0
  1 19  1  0  0  0  0
  1 20  1  0  0  0  0
  2  3  1  0  0  0  0
  2 11  1  0  0  0  0
  2 21  1  0  0  0  0
  3  4  1  0  0  0  0
  3 22  1  0  0  0  0
  3 38  1  0  0  0  0
  4  5  1  0  0  0  0
  4 23  1  0  0  0  0
  4 24  1  0  0  0  0
  5  6  1  0  0  0  0
  5 25  1  0  0  0  0
  5 26  1  0  0  0  0
  6 10  1  0  0  0  0
  6  7  1  0  0  0  0
  7  8  2  0  0  0  0
  7 27  1  0  0  0  0
  8  9  1  0  0  0  0
  8 28  1  0  0  0  0
  9 10  2  0  0  0  0
  9 29  1  0  0  0  0
 11 12  2  0  0  0  0
 11 13  1  0  0  0  0
 13 17  1  0  0  0  0
 13 14  1  0  0  0  0
 14 15  1  0  0  0  0
 14 30  1  0  0  0  0
 14 31  1  0  0  0  0
 15 16  1  0  0  0  0
 15 32  1  0  0  0  0
 15 33  1  0  0  0  0
 16 17  1  0  0  0  0
 16 34  1  0  0  0  0
 16 35  1  0  0  0  0
 17 36  1  0  0  0  0
 17 37  1  0  0  0  0
M  CHG  1   3   1
M  END
> <s_m_source_file>
AV-unprocessed.smi

> <i_m_source_file_index>
3143

> <i_lp_mmshare_version>
43012

> <i_f3d_flags>
0

> <s_epik_input>
W0NIMl0xW0NIMl1bQ0gyXVtDSDJdTjFDKD1PKVtDQEhdKFtDSDNdKVtOSF1bQ0gyXVtDSDJdbjJbY0hdW2NIXVtjSF1uMg==

> <s_epik_cmdline>
J2VwaWtfcHl0aG9uJywgJy1waCcsICc3LjAnLCAnLXRuJywgJzgnLCAnLW1hJywgJzIwMCcsICctbWV0YWxfYmluZGluZycsICctaW1hZScsICc8aW5maWxlLm1hZT4nLCAnLW9tYWUnLCAnPG91dGZpbGUubWFlPic=

> <r_lp_tautomer_probability>
1

> <r_epik_Ionization_Penalty>
0.203171

> <r_epik_Ionization_Penalty_Charging>
0.203168

> <r_epik_Ionization_Penalty_Neutral>
2.46932e-06

> <r_epik_State_Penalty>
0.193072

> <r_epik_Charging_Adjusted_Penalty>
0.39624

> <i_epik_Tot_Q>
1

> <i_epik_Tot_abs_Q>
1

> <r_epik_Metal_State_Penalty>
0.193323

> <b_epik_Metal_Only>
0

> <s_lp_Force_Field>
OPLS_2005

> <r_lp_Energy>
30.2015

> <b_lp_Chiralities_Consistent>
1

> <s_lp_Variant>
AV-unprocessed.smi:3143-1

> <Gold.Version>
5.8.1

> <Gold.Id.Protein>
6NUR|6NUR_protein|mol2

> <Gold.PLP.Fitness>
43.5133

> <Gold.PLP.PLP>
-35.4360

> <Gold.PLP.part.hbond>
-2.0000

> <Gold.PLP.part.metal>
0.0000

> <Gold.PLP.part.buried>
-5.9396

> <Gold.PLP.part.nonpolar>
-27.6606

> <Gold.PLP.part.repulsive>
0.2865

> <Gold.PLP.ligand.clash>
0.0000

> <Gold.PLP.ligand.torsion>
0.4781

> <Gold.PLP.Chemscore.Hbond>
3.0000

> <Gold.PLP.Chemscore.CHOScore>
0.0000

> <Gold.PLP.Chemscore.Metal>
0.0000

> <Gold.Chemscore.Hbonds>
donor molecule, donor type, donor heavy atom, donor atom, acceptor molecule, acceptor atom, score
      L1  H     3    38       P1  8028  2.00
      P1  H  7989  7998       L1    12  1.00

> <Gold.PLP.Chemscore.Internal.Correction>
0.0336

> <Gold.Rescore>
     Score         DG    S(hbond)    S(metal)    S(lipo)     H(rot)  DE(clash)    DE(int)     intcor
     16.62     -17.07       1.99        0.00      82.42       1.84       0.04       0.41       ----

> <Gold.Chemscore.Fitness>
16.6152

> <Gold.Chemscore.DG>
-17.0734

> <Gold.Chemscore.ZeroCoef>
-5.4800

> <Gold.Chemscore.Hbond>
1.9946

> <Gold.Chemscore.Metal>
0.0000

> <Gold.Chemscore.Lipo>
82.4209

> <Gold.Chemscore.Internal_Hbond>
0.0000

> <Gold.Chemscore.DEClash>
0.0436

> <Gold.Chemscore.DEInternal>
0.4146

> <Gold.Chemscore.Rot>
1.8405

> <Gold.Chemscore.Internal.Correction>
   9.000000E+99

> <Gold.Chemscore.Hbonds>
donor molecule, donor type, donor heavy atom, donor atom, acceptor molecule, acceptor atom, score
      L1  H     3    38       P1  8028  0.98
      P1  H  7989  7998       L1    12  0.98

> <Gold.Chemscore.Hbond.Weighted>
-6.6619

> <Gold.Chemscore.Metal.Weighted>
-0.0000

> <Gold.Chemscore.Lipo.Weighted>
-9.6432

> <Gold.Chemscore.Internal_Hbond.Weighted>
0.0000

> <Gold.Chemscore.DEClash.Weighted>
0.0436

> <Gold.Chemscore.DEInternal.Weighted>
0.4146

> <Gold.Chemscore.Rot.Weighted>
4.7117

> <Gold.Chemscore.Internal.Correction.Weighted>
   9.000000E+99

> <Gold.Protein.RotatedTorsions>
[ 6907 6896 6895 6894 ] final -157.96 input  -60.11 | X-H torsion
[ 7974 7965 7964 7962 ] final   -1.40 input  175.53 | X-H torsion
[ 8008 7997 7996 7995 ] final -109.67 input   59.86 | X-H torsion
[ 10167 10162 10161 10158 ] final  172.02 input  -65.29 | X-H torsion
[ 10718 10713 10712 10709 ] final  179.52 input   66.30 | X-H torsion
[ 10763 10752 10751 10750 ] final   69.46 input  -60.55 | X-H torsion
[ 11005 11000 10999 10996 ] final  102.36 input  -57.11 | X-H torsion

> <Gold.Protein.ActiveResidues>
 VAL166  LYS551  ARG553  GLY616  TRP617  ASP618  TYR619  PRO620  LYS621  CYS622 
 ASP623  PHE694  ASN695  SER759  ASP760  ASP761  ALA762  ILE779  LEU786  VAL792 
 PHE793  MET794  SER795  GLU796  ALA797  LYS798  CYS799  TRP800  GLU811  SER814 

> <Gold.Protein.RotatedAtoms>
  151.3108  133.4081  159.2646 H   0  0  0  0  0  0  0  0  0  0  0  0  # atno 6907 bound_to 6896
  151.0116  134.9402  159.8021 H   0  0  0  0  0  0  0  0  0  0  0  0  # atno 6908 bound_to 6896
  152.5302  134.3072  159.9152 H   0  0  0  0  0  0  0  0  0  0  0  0  # atno 6909 bound_to 6896
  146.2417  140.1415  142.8335 H   0  0  0  0  0  0  0  0  0  0  0  0  # atno 7974 bound_to 7965
  154.9629  140.0399  157.2198 H   0  0  0  0  0  0  0  0  0  0  0  0  # atno 8008 bound_to 7997
  154.7873  140.2829  155.5996 H   0  0  0  0  0  0  0  0  0  0  0  0  # atno 8009 bound_to 7997
  156.2945  140.2580  156.2712 H   0  0  0  0  0  0  0  0  0  0  0  0  # atno 8010 bound_to 7997
  139.5064  144.3420  152.0008 H   0  0  0  0  0  0  0  0  0  0  0  0  # atno 10167 bound_to 10162
  156.8746  130.9795  151.3069 H   0  0  0  0  0  0  0  0  0  0  0  0  # atno 10718 bound_to 10713
  153.0288  135.5210  154.7291 H   0  0  0  0  0  0  0  0  0  0  0  0  # atno 10763 bound_to 10752
  154.6324  135.2902  155.0203 H   0  0  0  0  0  0  0  0  0  0  0  0  # atno 10764 bound_to 10752
  154.1150  135.6616  153.4944 H   0  0  0  0  0  0  0  0  0  0  0  0  # atno 10765 bound_to 10752
  139.8777  134.9221  156.5047 H   0  0  0  0  0  0  0  0  0  0  0  0  # atno 11005 bound_to 11000
  145.0243  140.8819  143.5148 LP  0  0  0  0  0  0  0  0  0  0  0  0  # atno 17320 bound_to 7965
  145.1468  139.2538  143.5461 LP  0  0  0  0  0  0  0  0  0  0  0  0  # atno 17321 bound_to 7965
  140.2858  144.3809  150.6104 LP  0  0  0  0  0  0  0  0  0  0  0  0  # atno 17342 bound_to 10162
  140.5984  143.2167  151.7120 LP  0  0  0  0  0  0  0  0  0  0  0  0  # atno 17343 bound_to 10162
  157.6176  130.8630  149.9054 LP  0  0  0  0  0  0  0  0  0  0  0  0  # atno 17370 bound_to 10713
  156.0709  130.3685  150.0779 LP  0  0  0  0  0  0  0  0  0  0  0  0  # atno 17371 bound_to 10713
  140.8564  133.8093  155.9220 LP  0  0  0  0  0  0  0  0  0  0  0  0  # atno 17394 bound_to 11000
  140.9093  134.2280  157.4995 LP  0  0  0  0  0  0  0  0  0  0  0  0  # atno 17395 bound_to 11000

$$$$
