AV-unprocessed.smi:2124|AV-procd|sdf|8662|dock8
  -GOLD-   2272011413D 1   1.00000     0.00000
 Structure written by MMmdl.
 47 49  0  0  0  0  0  0  0  0  1 V2000
  146.5982  138.3464  151.8287 C   0  0  0  0  0  0  0  0  0  0  0  0
  147.2115  139.3162  152.8152 C   0  0  0  0  0  0  0  0  0  0  0  0
  146.3210  140.2654  153.2893 N   0  0  0  0  0  0  0  0  0  0  0  0
  146.7943  141.2064  154.1868 C   0  0  0  0  0  0  0  0  0  0  0  0
  145.7567  142.2154  154.6476 C   0  0  0  0  0  0  0  0  0  0  0  0
  148.0877  141.1954  154.5982 C   0  0  0  0  0  0  0  0  0  0  0  0
  148.6573  142.2085  155.5896 C   0  0  0  0  0  0  0  0  0  0  0  0
  149.4287  141.6235  156.7754 C   0  0  0  0  0  0  0  0  0  0  0  0
  148.8288  141.1061  157.7176 O   0  0  0  0  0  0  0  0  0  0  0  0
  150.7657  141.7119  156.7098 N   0  0  0  0  0  0  0  0  0  0  0  0
  151.7039  141.1995  157.7069 C   0  0  2  0  0  0  0  0  0  0  0  0
  151.4587  139.6910  157.8926 C   0  0  0  0  0  0  0  0  0  0  0  0
  151.5447  142.0015  159.0225 C   0  0  2  0  0  0  0  0  0  0  0  0
  151.2081  143.4987  158.8026 C   0  0  0  0  0  0  0  0  0  0  0  0
  152.2824  144.2301  159.6259 C   0  0  1  0  0  0  0  0  0  0  0  0
  152.0282  144.0010  161.1268 C   0  0  0  0  0  0  0  0  0  0  0  0
  152.4341  142.5277  161.3165 C   0  0  0  0  0  0  0  0  0  0  0  0
  152.8260  142.0958  159.8901 C   0  0  2  0  0  0  0  0  0  0  0  0
  153.5048  143.3593  159.3702 C   0  0  0  0  0  0  0  0  0  0  0  0
  148.9880  140.1434  154.0707 C   0  0  0  0  0  0  0  0  0  0  0  0
  150.1636  140.0666  154.4258 O   0  0  0  0  0  0  0  0  0  0  0  0
  148.4622  139.2218  153.1508 N   0  0  0  0  0  0  0  0  0  0  0  0
  145.3516  140.3091  153.0102 H   0  0  0  0  0  0  0  0  0  0  0  0
  147.3398  137.6296  151.4735 H   0  0  0  0  0  0  0  0  0  0  0  0
  146.2017  138.8819  150.9653 H   0  0  0  0  0  0  0  0  0  0  0  0
  145.7851  137.7911  152.2971 H   0  0  0  0  0  0  0  0  0  0  0  0
  146.0405  143.2212  154.3378 H   0  0  0  0  0  0  0  0  0  0  0  0
  145.6654  142.2014  155.7338 H   0  0  0  0  0  0  0  0  0  0  0  0
  144.7730  142.0017  154.2277 H   0  0  0  0  0  0  0  0  0  0  0  0
  147.8433  142.8076  155.9972 H   0  0  0  0  0  0  0  0  0  0  0  0
  149.2884  142.9243  155.0604 H   0  0  0  0  0  0  0  0  0  0  0  0
  151.1684  142.1527  155.8956 H   0  0  0  0  0  0  0  0  0  0  0  0
  152.7220  141.3398  157.3400 H   0  0  0  0  0  0  0  0  0  0  0  0
  152.1832  139.2415  158.5701 H   0  0  0  0  0  0  0  0  0  0  0  0
  151.5417  139.1606  156.9434 H   0  0  0  0  0  0  0  0  0  0  0  0
  150.4631  139.4976  158.2930 H   0  0  0  0  0  0  0  0  0  0  0  0
  150.7476  141.5343  159.6035 H   0  0  0  0  0  0  0  0  0  0  0  0
  151.2978  143.7812  157.7527 H   0  0  0  0  0  0  0  0  0  0  0  0
  150.1963  143.7477  159.1246 H   0  0  0  0  0  0  0  0  0  0  0  0
  152.3995  145.2800  159.3562 H   0  0  0  0  0  0  0  0  0  0  0  0
  152.6570  144.6538  161.7339 H   0  0  0  0  0  0  0  0  0  0  0  0
  150.9889  144.1853  161.4013 H   0  0  0  0  0  0  0  0  0  0  0  0
  153.2884  142.4515  161.9903 H   0  0  0  0  0  0  0  0  0  0  0  0
  151.6284  141.9217  161.7324 H   0  0  0  0  0  0  0  0  0  0  0  0
  153.4541  141.2062  159.8787 H   0  0  0  0  0  0  0  0  0  0  0  0
  153.7857  143.3042  158.3173 H   0  0  0  0  0  0  0  0  0  0  0  0
  154.3766  143.6551  159.9569 H   0  0  0  0  0  0  0  0  0  0  0  0
  1 24  1  0  0  0  0
  1 25  1  0  0  0  0
  1 26  1  0  0  0  0
  1  2  1  0  0  0  0
  2  3  1  0  0  0  0
  2 22  2  0  0  0  0
  3  4  1  0  0  0  0
  3 23  1  0  0  0  0
  4  6  2  0  0  0  0
  4  5  1  0  0  0  0
  5 27  1  0  0  0  0
  5 28  1  0  0  0  0
  5 29  1  0  0  0  0
  6 20  1  0  0  0  0
  6  7  1  0  0  0  0
  7  8  1  0  0  0  0
  7 30  1  0  0  0  0
  7 31  1  0  0  0  0
  8  9  2  0  0  0  0
  8 10  1  0  0  0  0
 10 11  1  0  0  0  0
 10 32  1  0  0  0  0
 11 12  1  0  0  0  0
 11 13  1  0  0  0  0
 11 33  1  0  0  0  0
 12 34  1  0  0  0  0
 12 35  1  0  0  0  0
 12 36  1  0  0  0  0
 13 18  1  0  0  0  0
 13 14  1  0  0  0  0
 13 37  1  0  0  0  0
 14 15  1  0  0  0  0
 14 38  1  0  0  0  0
 14 39  1  0  0  0  0
 15 19  1  0  0  0  0
 15 16  1  0  0  0  0
 15 40  1  0  0  0  0
 16 17  1  0  0  0  0
 16 41  1  0  0  0  0
 16 42  1  0  0  0  0
 17 18  1  0  0  0  0
 17 43  1  0  0  0  0
 17 44  1  0  0  0  0
 18 19  1  0  0  0  0
 18 45  1  0  0  0  0
 19 46  1  0  0  0  0
 19 47  1  0  0  0  0
 20 21  2  0  0  0  0
 20 22  1  0  0  0  0
M  END
> <s_m_source_file>
AV-unprocessed.smi

> <i_m_source_file_index>
2124

> <i_lp_mmshare_version>
43012

> <i_f3d_flags>
0

> <s_epik_input>
W0NIM11jMW5jKFtDSDNdKWMoYyg9TylbbkhdMSlbQ0gyXUMoPU8pW05IXVtDQEhdKFtDSDNdKVtDQEhdKFtDSDJdW0NASF0yMylbQ0BIXShbQ0gyXTMpW0NIMl1bQ0gyXTI=

> <s_epik_cmdline>
J2VwaWtfcHl0aG9uJywgJy1waCcsICc3LjAnLCAnLXRuJywgJzgnLCAnLW1hJywgJzIwMCcsICctbWV0YWxfYmluZGluZycsICctaW1hZScsICc8aW5maWxlLm1hZT4nLCAnLW9tYWUnLCAnPG91dGZpbGUubWFlPic=

> <r_lp_tautomer_probability>
0.156392

> <r_epik_Ionization_Penalty>
0.0139374

> <r_epik_Ionization_Penalty_Charging>
0.0138122

> <r_epik_Ionization_Penalty_Neutral>
0.000125146

> <r_epik_State_Penalty>
1.15342

> <r_epik_Charging_Adjusted_Penalty>
1.16723

> <i_epik_Tot_Q>
0

> <i_epik_Tot_abs_Q>
0

> <r_epik_Metal_State_Penalty>
1.3173

> <b_epik_Metal_Only>
0

> <s_lp_Force_Field>
OPLS_2005

> <r_lp_Energy>
56.0301

> <b_lp_Chiralities_Consistent>
1

> <s_lp_Variant>
AV-unprocessed.smi:2124-13

> <Gold.Version>
5.8.1

> <Gold.Id.Protein>
6NUR|6NUR_protein|mol2

> <Gold.PLP.Fitness>
46.3145

> <Gold.PLP.PLP>
-42.1491

> <Gold.PLP.part.hbond>
-2.0000

> <Gold.PLP.part.metal>
0.0000

> <Gold.PLP.part.buried>
-0.0999

> <Gold.PLP.part.nonpolar>
-42.6468

> <Gold.PLP.part.repulsive>
3.9727

> <Gold.PLP.ligand.clash>
0.0000

> <Gold.PLP.ligand.torsion>
0.9275

> <Gold.PLP.Chemscore.Hbond>
2.0000

> <Gold.PLP.Chemscore.CHOScore>
0.0000

> <Gold.PLP.Chemscore.Metal>
0.0000

> <Gold.Chemscore.Hbonds>
donor molecule, donor type, donor heavy atom, donor atom, acceptor molecule, acceptor atom, score
      L1  H     3    23       P1 10175  1.00
      P1  H  7989  7998       L1    21  1.00

> <Gold.PLP.Chemscore.Internal.Correction>
0.0205

> <Gold.Rescore>
     Score         DG    S(hbond)    S(metal)    S(lipo)     H(rot)  DE(clash)    DE(int)     intcor
     14.61     -21.94       1.93        0.00     121.78       1.65       2.98       4.35       ----

> <Gold.Chemscore.Fitness>
14.6076

> <Gold.Chemscore.DG>
-21.9438

> <Gold.Chemscore.ZeroCoef>
-5.4800

> <Gold.Chemscore.Hbond>
1.9305

> <Gold.Chemscore.Metal>
0.0000

> <Gold.Chemscore.Lipo>
121.7830

> <Gold.Chemscore.Internal_Hbond>
0.0000

> <Gold.Chemscore.DEClash>
2.9826

> <Gold.Chemscore.DEInternal>
4.3536

> <Gold.Chemscore.Rot>
1.6534

> <Gold.Chemscore.Internal.Correction>
   9.000000E+99

> <Gold.Chemscore.Hbonds>
donor molecule, donor type, donor heavy atom, donor atom, acceptor molecule, acceptor atom, score
      L1  H     3    23       P1 10175  0.97
      P1  H  7989  7998       L1    21  0.97

> <Gold.Chemscore.Hbond.Weighted>
-6.4478

> <Gold.Chemscore.Metal.Weighted>
-0.0000

> <Gold.Chemscore.Lipo.Weighted>
-14.2486

> <Gold.Chemscore.Internal_Hbond.Weighted>
0.0000

> <Gold.Chemscore.DEClash.Weighted>
2.9826

> <Gold.Chemscore.DEInternal.Weighted>
4.3536

> <Gold.Chemscore.Rot.Weighted>
4.2326

> <Gold.Chemscore.Internal.Correction.Weighted>
   9.000000E+99

> <Gold.Protein.RotatedTorsions>
[ 6907 6896 6895 6894 ] final -108.92 input  -60.11 | X-H torsion
[ 7974 7965 7964 7962 ] final   73.21 input  175.53 | X-H torsion
[ 8008 7997 7996 7995 ] final  -74.79 input   59.86 | X-H torsion
[ 10167 10162 10161 10158 ] final   86.25 input  -65.29 | X-H torsion
[ 10718 10713 10712 10709 ] final  132.11 input   66.30 | X-H torsion
[ 10763 10752 10751 10750 ] final -127.49 input  -60.55 | X-H torsion
[ 11005 11000 10999 10996 ] final   62.76 input  -57.11 | X-H torsion

> <Gold.Protein.ActiveResidues>
 VAL166  LYS551  ARG553  GLY616  TRP617  ASP618  TYR619  PRO620  LYS621  CYS622 
 ASP623  PHE694  ASN695  SER759  ASP760  ASP761  ALA762  ILE779  LEU786  VAL792 
 PHE793  MET794  SER795  GLU796  ALA797  LYS798  CYS799  TRP800  GLU811  SER814 

> <Gold.Protein.RotatedAtoms>
  150.7530  133.9606  159.3514 H   0  0  0  0  0  0  0  0  0  0  0  0  # atno 6907 bound_to 6896
  151.7531  135.0826  160.0343 H   0  0  0  0  0  0  0  0  0  0  0  0  # atno 6908 bound_to 6896
  152.3453  133.6077  159.5941 H   0  0  0  0  0  0  0  0  0  0  0  0  # atno 6909 bound_to 6896
  145.7437  139.2731  143.1471 H   0  0  0  0  0  0  0  0  0  0  0  0  # atno 7974 bound_to 7965
  154.5361  140.0755  156.8429 H   0  0  0  0  0  0  0  0  0  0  0  0  # atno 8008 bound_to 7997
  155.3276  140.3400  155.4222 H   0  0  0  0  0  0  0  0  0  0  0  0  # atno 8009 bound_to 7997
  156.1829  140.1658  156.8227 H   0  0  0  0  0  0  0  0  0  0  0  0  # atno 8010 bound_to 7997
  139.8894  144.6394  150.8755 H   0  0  0  0  0  0  0  0  0  0  0  0  # atno 10167 bound_to 10162
  157.4903  131.1090  150.9565 H   0  0  0  0  0  0  0  0  0  0  0  0  # atno 10718 bound_to 10713
  154.8752  135.3960  154.3602 H   0  0  0  0  0  0  0  0  0  0  0  0  # atno 10763 bound_to 10752
  153.4375  135.7026  153.6195 H   0  0  0  0  0  0  0  0  0  0  0  0  # atno 10764 bound_to 10752
  153.4791  135.3773  155.2401 H   0  0  0  0  0  0  0  0  0  0  0  0  # atno 10765 bound_to 10752
  140.0070  134.6354  155.9839 H   0  0  0  0  0  0  0  0  0  0  0  0  # atno 11005 bound_to 11000
  146.0423  140.8153  142.9822 LP  0  0  0  0  0  0  0  0  0  0  0  0  # atno 17320 bound_to 7965
  144.6865  140.2928  143.7275 LP  0  0  0  0  0  0  0  0  0  0  0  0  # atno 17321 bound_to 7965
  140.7729  143.3522  151.1992 LP  0  0  0  0  0  0  0  0  0  0  0  0  # atno 17342 bound_to 10162
  139.7123  143.9357  152.2952 LP  0  0  0  0  0  0  0  0  0  0  0  0  # atno 17343 bound_to 10162
  157.0269  130.5696  149.5338 LP  0  0  0  0  0  0  0  0  0  0  0  0  # atno 17370 bound_to 10713
  156.0169  130.5264  150.8162 LP  0  0  0  0  0  0  0  0  0  0  0  0  # atno 17371 bound_to 10713
  141.1684  133.6537  156.4562 LP  0  0  0  0  0  0  0  0  0  0  0  0  # atno 17394 bound_to 11000
  140.4623  134.6830  157.5091 LP  0  0  0  0  0  0  0  0  0  0  0  0  # atno 17395 bound_to 11000

$$$$
