AV-unprocessed.smi:1437|AV-procd|sdf|5864|dock2
  -GOLD-   22720 5533D 1   1.00000     0.00000
 Structure written by MMmdl.
 36 37  0  0  0  0  0  0  0  0  2 V2000
  153.8000  141.1557  159.9558 C   0  0  0  0  0  0  0  0  0  0  0  0
  152.8461  141.0991  158.8122 C   0  0  0  0  0  0  0  0  0  0  0  0
  151.7427  141.8360  158.4847 C   0  0  0  0  0  0  0  0  0  0  0  0
  151.3105  141.2414  157.2696 C   0  0  0  0  0  0  0  0  0  0  0  0
  150.1647  141.7268  156.5890 N   0  0  0  0  0  0  0  0  0  0  0  0
  149.6817  141.3148  155.4044 C   0  0  0  0  0  0  0  0  0  0  0  0
  150.1761  140.4309  154.7043 O   0  0  0  0  0  0  0  0  0  0  0  0
  148.5761  141.9940  155.0652 N   0  0  0  0  0  0  0  0  0  0  0  0
  147.7924  141.7768  153.8492 C   0  0  2  0  0  0  0  0  0  0  0  0
  146.5008  142.6200  153.8373 C   0  0  0  0  0  0  0  0  0  0  0  0
  145.4690  142.1090  154.8583 C   0  0  0  0  0  0  0  0  0  0  0  0
  145.1657  140.6735  154.6353 N   0  3  2  0  0  0  0  0  0  0  0  0
  144.0851  140.1822  155.5170 C   0  0  0  0  0  0  0  0  0  0  0  0
  146.3833  139.8285  154.7115 C   0  0  0  0  0  0  0  0  0  0  0  0
  147.4430  140.2859  153.6921 C   0  0  0  0  0  0  0  0  0  0  0  0
  152.0804  140.2335  156.8891 N   0  0  0  0  0  0  0  0  0  0  0  0
  153.0683  140.1367  157.8760 O   0  0  0  0  0  0  0  0  0  0  0  0
  153.7829  142.1381  160.4279 H   0  0  0  0  0  0  0  0  0  0  0  0
  154.8193  140.9595  159.6225 H   0  0  0  0  0  0  0  0  0  0  0  0
  153.5405  140.4129  160.7102 H   0  0  0  0  0  0  0  0  0  0  0  0
  151.3164  142.6648  159.0302 H   0  0  0  0  0  0  0  0  0  0  0  0
  149.6568  142.4616  157.0582 H   0  0  0  0  0  0  0  0  0  0  0  0
  148.2405  142.6992  155.7048 H   0  0  0  0  0  0  0  0  0  0  0  0
  148.4101  142.0689  152.9978 H   0  0  0  0  0  0  0  0  0  0  0  0
  146.7237  143.6711  154.0239 H   0  0  0  0  0  0  0  0  0  0  0  0
  146.0604  142.5809  152.8400 H   0  0  0  0  0  0  0  0  0  0  0  0
  145.8378  142.2531  155.8752 H   0  0  0  0  0  0  0  0  0  0  0  0
  144.5525  142.6935  154.7693 H   0  0  0  0  0  0  0  0  0  0  0  0
  144.3815  140.2336  156.5655 H   0  0  0  0  0  0  0  0  0  0  0  0
  143.8380  139.1463  155.2820 H   0  0  0  0  0  0  0  0  0  0  0  0
  143.1802  140.7767  155.3868 H   0  0  0  0  0  0  0  0  0  0  0  0
  146.7901  139.8631  155.7234 H   0  0  0  0  0  0  0  0  0  0  0  0
  146.1177  138.7892  154.5143 H   0  0  0  0  0  0  0  0  0  0  0  0
  147.0626  140.1136  152.6842 H   0  0  0  0  0  0  0  0  0  0  0  0
  148.3412  139.6738  153.7840 H   0  0  0  0  0  0  0  0  0  0  0  0
  144.8197  140.5967  153.6891 H   0  0  0  0  0  0  0  0  0  0  0  0
  1  2  1  0  0  0  0
  1 18  1  0  0  0  0
  1 19  1  0  0  0  0
  1 20  1  0  0  0  0
  2 17  1  0  0  0  0
  2  3  2  0  0  0  0
  3  4  1  0  0  0  0
  3 21  1  0  0  0  0
  4  5  1  0  0  0  0
  4 16  2  0  0  0  0
  5  6  1  0  0  0  0
  5 22  1  0  0  0  0
  6  7  2  0  0  0  0
  6  8  1  0  0  0  0
  8  9  1  0  0  0  0
  8 23  1  0  0  0  0
  9 15  1  0  0  0  0
  9 10  1  0  0  0  0
  9 24  1  0  0  0  0
 10 11  1  0  0  0  0
 10 25  1  0  0  0  0
 10 26  1  0  0  0  0
 11 12  1  0  0  0  0
 11 27  1  0  0  0  0
 11 28  1  0  0  0  0
 12 13  1  0  0  0  0
 12 14  1  0  0  0  0
 12 36  1  0  0  0  0
 13 29  1  0  0  0  0
 13 30  1  0  0  0  0
 13 31  1  0  0  0  0
 14 15  1  0  0  0  0
 14 32  1  0  0  0  0
 14 33  1  0  0  0  0
 15 34  1  0  0  0  0
 15 35  1  0  0  0  0
 16 17  1  0  0  0  0
M  CHG  1  12   1
M  END
> <s_m_source_file>
AV-unprocessed.smi

> <i_m_source_file_index>
1437

> <i_lp_mmshare_version>
43012

> <i_f3d_flags>
0

> <s_epik_input>
W0NIM11jMVtjSF1jKG5vMSlbTkhdQyg9TylbTkhdW0NIXTJbQ0gyXVtDSDJdTihbQ0gzXSlbQ0gyXVtDSDJdMg==

> <s_epik_cmdline>
J2VwaWtfcHl0aG9uJywgJy1waCcsICc3LjAnLCAnLXRuJywgJzgnLCAnLW1hJywgJzIwMCcsICctbWV0YWxfYmluZGluZycsICctaW1hZScsICc8aW5maWxlLm1hZT4nLCAnLW9tYWUnLCAnPG91dGZpbGUubWFlPic=

> <r_epik_Ionization_Penalty>
0.00408962

> <r_epik_Ionization_Penalty_Charging>
0.00405645

> <r_epik_Ionization_Penalty_Neutral>
3.31706e-05

> <r_epik_State_Penalty>
0.00290716

> <r_epik_Charging_Adjusted_Penalty>
0.00696361

> <i_epik_Tot_Q>
1

> <i_epik_Tot_abs_Q>
1

> <r_epik_Metal_State_Penalty>
0.0142111

> <b_epik_Metal_Only>
0

> <s_lp_Force_Field>
OPLS_2005

> <r_lp_Energy>
12.346

> <b_lp_Chiralities_Consistent>
1

> <s_lp_Variant>
AV-unprocessed.smi:1437-2

> <Gold.Version>
5.8.1

> <Gold.Id.Protein>
6NUR|6NUR_protein|mol2

> <Gold.PLP.Fitness>
41.7671

> <Gold.PLP.PLP>
-28.3226

> <Gold.PLP.part.hbond>
-4.1662

> <Gold.PLP.part.metal>
0.0000

> <Gold.PLP.part.buried>
-3.4057

> <Gold.PLP.part.nonpolar>
-19.0129

> <Gold.PLP.part.repulsive>
0.3262

> <Gold.PLP.ligand.clash>
0.0000

> <Gold.PLP.ligand.torsion>
0.0597

> <Gold.PLP.Chemscore.Hbond>
4.5200

> <Gold.PLP.Chemscore.CHOScore>
0.0000

> <Gold.PLP.Chemscore.Metal>
0.0000

> <Gold.Chemscore.Hbonds>
donor molecule, donor type, donor heavy atom, donor atom, acceptor molecule, acceptor atom, score
      L1  H     8    23       P1  8028  0.39
      L1  H    12    36       P1 10175  2.00
      P1  H  7989  7998       L1     7  0.98
      P1  H  7997  8009       L1    17  0.95

> <Gold.PLP.Chemscore.Internal.Correction>
0.0039

> <Gold.Rescore>
     Score         DG    S(hbond)    S(metal)    S(lipo)     H(rot)  DE(clash)    DE(int)     intcor
     16.66     -19.69       3.03        0.00      56.66       1.00       0.20       2.82       ----

> <Gold.Chemscore.Fitness>
16.6579

> <Gold.Chemscore.DG>
-19.6854

> <Gold.Chemscore.ZeroCoef>
-5.4800

> <Gold.Chemscore.Hbond>
3.0348

> <Gold.Chemscore.Metal>
0.0000

> <Gold.Chemscore.Lipo>
56.6600

> <Gold.Chemscore.Internal_Hbond>
0.0000

> <Gold.Chemscore.DEClash>
0.2031

> <Gold.Chemscore.DEInternal>
2.8244

> <Gold.Chemscore.Rot>
1.0000

> <Gold.Chemscore.Internal.Correction>
   9.000000E+99

> <Gold.Chemscore.Hbonds>
donor molecule, donor type, donor heavy atom, donor atom, acceptor molecule, acceptor atom, score
      L1  H     8    23       P1  8028  0.37
      L1  H    12    36       P1 10175  0.98
      P1  H  7989  7998       L1     7  0.90
      P1  H  7997  8009       L1    17  0.20

> <Gold.Chemscore.Hbond.Weighted>
-10.1361

> <Gold.Chemscore.Metal.Weighted>
-0.0000

> <Gold.Chemscore.Lipo.Weighted>
-6.6292

> <Gold.Chemscore.Internal_Hbond.Weighted>
0.0000

> <Gold.Chemscore.DEClash.Weighted>
0.2031

> <Gold.Chemscore.DEInternal.Weighted>
2.8244

> <Gold.Chemscore.Rot.Weighted>
2.5600

> <Gold.Chemscore.Internal.Correction.Weighted>
   9.000000E+99

> <Gold.Protein.RotatedTorsions>
[ 6907 6896 6895 6894 ] final  -87.72 input  -60.11 | X-H torsion
[ 7974 7965 7964 7962 ] final  -26.77 input  175.53 | X-H torsion
[ 8008 7997 7996 7995 ] final  167.00 input   59.86 | X-H torsion
[ 10167 10162 10161 10158 ] final   -9.75 input  -65.29 | X-H torsion
[ 10718 10713 10712 10709 ] final -144.11 input   66.30 | X-H torsion
[ 10763 10752 10751 10750 ] final -107.72 input  -60.55 | X-H torsion
[ 11005 11000 10999 10996 ] final  112.48 input  -57.11 | X-H torsion

> <Gold.Protein.ActiveResidues>
 VAL166  LYS551  ARG553  GLY616  TRP617  ASP618  TYR619  PRO620  LYS621  CYS622 
 ASP623  PHE694  ASN695  SER759  ASP760  ASP761  ALA762  ILE779  LEU786  VAL792 
 PHE793  MET794  SER795  GLU796  ALA797  LYS798  CYS799  TRP800  GLU811  SER814 

> <Gold.Protein.RotatedAtoms>
  150.6867  134.2853  159.4643 H   0  0  0  0  0  0  0  0  0  0  0  0  # atno 6907 bound_to 6896
  152.0763  134.9498  160.0583 H   0  0  0  0  0  0  0  0  0  0  0  0  # atno 6908 bound_to 6896
  152.0868  133.4145  159.4563 H   0  0  0  0  0  0  0  0  0  0  0  0  # atno 6909 bound_to 6896
  146.1403  140.5064  142.8655 H   0  0  0  0  0  0  0  0  0  0  0  0  # atno 7974 bound_to 7965
  156.1671  140.1628  156.8512 H   0  0  0  0  0  0  0  0  0  0  0  0  # atno 8008 bound_to 7997
  154.5219  140.0776  156.8222 H   0  0  0  0  0  0  0  0  0  0  0  0  # atno 8009 bound_to 7997
  155.3589  140.3394  155.4242 H   0  0  0  0  0  0  0  0  0  0  0  0  # atno 8010 bound_to 7997
  140.7096  143.5823  150.8979 H   0  0  0  0  0  0  0  0  0  0  0  0  # atno 10167 bound_to 10162
  156.3661  130.7763  151.1938 H   0  0  0  0  0  0  0  0  0  0  0  0  # atno 10718 bound_to 10713
  154.8092  135.4664  154.0473 H   0  0  0  0  0  0  0  0  0  0  0  0  # atno 10763 bound_to 10752
  153.1917  135.6856  153.8351 H   0  0  0  0  0  0  0  0  0  0  0  0  # atno 10764 bound_to 10752
  153.7866  135.3249  155.3350 H   0  0  0  0  0  0  0  0  0  0  0  0  # atno 10765 bound_to 10752
  139.8928  134.9530  156.6591 H   0  0  0  0  0  0  0  0  0  0  0  0  # atno 11005 bound_to 11000
  144.7785  140.5790  143.6622 LP  0  0  0  0  0  0  0  0  0  0  0  0  # atno 17320 bound_to 7965
  145.5062  139.1481  143.3630 LP  0  0  0  0  0  0  0  0  0  0  0  0  # atno 17321 bound_to 7965
  139.9549  143.6229  152.3018 LP  0  0  0  0  0  0  0  0  0  0  0  0  # atno 17342 bound_to 10162
  139.6761  144.7658  151.1693 LP  0  0  0  0  0  0  0  0  0  0  0  0  # atno 17343 bound_to 10162
  157.7479  131.0386  150.4510 LP  0  0  0  0  0  0  0  0  0  0  0  0  # atno 17370 bound_to 10713
  156.4729  130.4056  149.6507 LP  0  0  0  0  0  0  0  0  0  0  0  0  # atno 17371 bound_to 10713
  140.7461  133.8937  155.8313 LP  0  0  0  0  0  0  0  0  0  0  0  0  # atno 17394 bound_to 11000
  141.0039  134.1113  157.4290 LP  0  0  0  0  0  0  0  0  0  0  0  0  # atno 17395 bound_to 11000

$$$$
