AV-unprocessed.smi:334|AV-procd|sdf|2369|dock7
  -GOLD-   2262022283D 1   1.00000     0.00000
 Structure written by MMmdl.
 44 46  0  0  0  0  0  0  0  0  3 V2000
  148.0564  134.0578  154.2982 C   0  0  0  0  0  0  0  0  0  0  0  0
  146.7718  134.8594  154.0317 C   0  0  1  0  0  0  0  0  0  0  0  0
  147.1478  136.1732  153.5120 N   0  0  0  0  0  0  0  0  0  0  0  0
  146.7458  137.3585  153.9969 C   0  0  0  0  0  0  0  0  0  0  0  0
  146.0246  137.4792  154.9878 O   0  0  0  0  0  0  0  0  0  0  0  0
  147.2472  138.5975  153.2426 C   0  0  0  0  0  0  0  0  0  0  0  0
  148.3281  139.3031  153.9518 N   0  0  0  0  0  0  0  0  0  0  0  0
  149.5321  138.5993  154.1542 C   0  0  0  0  0  0  0  0  0  0  0  0
  150.5833  139.1482  154.7943 C   0  0  0  0  0  0  0  0  0  0  0  0
  151.8113  138.4106  154.9953 N   0  3  0  0  0  0  0  0  0  0  0  0
  152.7530  138.9742  155.5440 O   0  0  0  0  0  0  0  0  0  0  0  0
  151.8766  137.2463  154.6120 O   0  5  0  0  0  0  0  0  0  0  0  0
  150.4422  140.5072  155.2801 C   0  0  0  0  0  0  0  0  0  0  0  0
  149.2929  141.1848  155.0919 C   0  0  0  0  0  0  0  0  0  0  0  0
  148.1504  140.5861  154.3944 C   0  0  0  0  0  0  0  0  0  0  0  0
  147.0979  141.2005  154.2187 O   0  0  0  0  0  0  0  0  0  0  0  0
  145.8269  134.1409  153.0358 C   0  0  1  0  0  0  0  0  0  0  0  0
  144.5209  134.9236  152.7529 C   0  0  0  0  0  0  0  0  0  0  0  0
  144.4950  135.0303  151.2180 C   0  0  2  0  0  0  0  0  0  0  0  0
  144.2280  133.6415  150.6104 C   0  0  0  0  0  0  0  0  0  0  0  0
  145.5572  132.9050  150.8584 C   0  0  0  0  0  0  0  0  0  0  0  0
  146.3975  133.9596  151.6042 C   0  0  1  0  0  0  0  0  0  0  0  0
  145.9691  135.2418  150.8993 C   0  0  0  0  0  0  0  0  0  0  0  0
  147.8396  133.0861  154.7414 H   0  0  0  0  0  0  0  0  0  0  0  0
  148.7120  134.5888  154.9891 H   0  0  0  0  0  0  0  0  0  0  0  0
  148.6144  133.8846  153.3774 H   0  0  0  0  0  0  0  0  0  0  0  0
  146.2518  134.9715  154.9842 H   0  0  0  0  0  0  0  0  0  0  0  0
  147.7428  136.1794  152.6962 H   0  0  0  0  0  0  0  0  0  0  0  0
  147.5735  138.2801  152.2512 H   0  0  0  0  0  0  0  0  0  0  0  0
  146.4155  139.2820  153.0636 H   0  0  0  0  0  0  0  0  0  0  0  0
  149.5353  137.5928  153.7614 H   0  0  0  0  0  0  0  0  0  0  0  0
  151.2562  140.9909  155.7999 H   0  0  0  0  0  0  0  0  0  0  0  0
  149.2089  142.1953  155.4644 H   0  0  0  0  0  0  0  0  0  0  0  0
  145.5856  133.1606  153.4505 H   0  0  0  0  0  0  0  0  0  0  0  0
  143.6402  134.4169  153.1488 H   0  0  0  0  0  0  0  0  0  0  0  0
  144.5491  135.9228  153.1891 H   0  0  0  0  0  0  0  0  0  0  0  0
  143.8269  135.8071  150.8451 H   0  0  0  0  0  0  0  0  0  0  0  0
  143.3802  133.1418  151.0806 H   0  0  0  0  0  0  0  0  0  0  0  0
  144.0239  133.7157  149.5415 H   0  0  0  0  0  0  0  0  0  0  0  0
  145.4263  131.9889  151.4356 H   0  0  0  0  0  0  0  0  0  0  0  0
  146.0271  132.6362  149.9115 H   0  0  0  0  0  0  0  0  0  0  0  0
  147.4659  133.7504  151.5576 H   0  0  0  0  0  0  0  0  0  0  0  0
  146.1849  135.2400  149.8293 H   0  0  0  0  0  0  0  0  0  0  0  0
  146.3859  136.1460  151.3455 H   0  0  0  0  0  0  0  0  0  0  0  0
  1  2  1  0  0  0  0
  1 24  1  0  0  0  0
  1 25  1  0  0  0  0
  1 26  1  0  0  0  0
  2  3  1  0  0  0  0
  2 17  1  0  0  0  0
  2 27  1  0  0  0  0
  3  4  1  0  0  0  0
  3 28  1  0  0  0  0
  4  5  2  0  0  0  0
  4  6  1  0  0  0  0
  6  7  1  0  0  0  0
  6 29  1  0  0  0  0
  6 30  1  0  0  0  0
  7 15  1  0  0  0  0
  7  8  1  0  0  0  0
  8  9  2  0  0  0  0
  8 31  1  0  0  0  0
  9 10  1  0  0  0  0
  9 13  1  0  0  0  0
 10 11  2  0  0  0  0
 10 12  1  0  0  0  0
 13 14  2  0  0  0  0
 13 32  1  0  0  0  0
 14 15  1  0  0  0  0
 14 33  1  0  0  0  0
 15 16  2  0  0  0  0
 17 22  1  0  0  0  0
 17 18  1  0  0  0  0
 17 34  1  0  0  0  0
 18 19  1  0  0  0  0
 18 35  1  0  0  0  0
 18 36  1  0  0  0  0
 19 23  1  0  0  0  0
 19 20  1  0  0  0  0
 19 37  1  0  0  0  0
 20 21  1  0  0  0  0
 20 38  1  0  0  0  0
 20 39  1  0  0  0  0
 21 22  1  0  0  0  0
 21 40  1  0  0  0  0
 21 41  1  0  0  0  0
 22 23  1  0  0  0  0
 22 42  1  0  0  0  0
 23 43  1  0  0  0  0
 23 44  1  0  0  0  0
M  CHG  1  10   1
M  CHG  1  12  -1
M  END
> <s_m_source_file>
AV-unprocessed.smi

> <i_m_source_file_index>
334

> <i_lp_mmshare_version>
43012

> <i_f3d_flags>
0

> <s_epik_input>
W0NIMl0xW0NIMl1bQ0BIXShbQ0gyXTIpW0NAQEhdKFtDSDJdW0NAQEhdMTIpW0NASF0oW0NIM10pW05IXUMoPU8pW0NIMl1uM1tjSF1jKFtOK10oPU8pW08tXSlbY0hdW2NIXWMzPU8=

> <s_epik_cmdline>
J2VwaWtfcHl0aG9uJywgJy1waCcsICc3LjAnLCAnLXRuJywgJzgnLCAnLW1hJywgJzIwMCcsICctbWV0YWxfYmluZGluZycsICctaW1hZScsICc8aW5maWxlLm1hZT4nLCAnLW9tYWUnLCAnPG91dGZpbGUubWFlPic=

> <r_lp_tautomer_probability>
1

> <r_epik_Ionization_Penalty>
2.17081e-08

> <r_epik_Ionization_Penalty_Charging>
8.1195e-11

> <r_epik_Ionization_Penalty_Neutral>
2.16269e-08

> <r_epik_State_Penalty>
-0

> <r_epik_Charging_Adjusted_Penalty>
8.1195e-11

> <i_epik_Tot_Q>
0

> <i_epik_Tot_abs_Q>
2

> <r_epik_Metal_State_Penalty>
-0

> <b_epik_Metal_Only>
0

> <s_lp_Force_Field>
OPLS_2005

> <r_lp_Energy>
62.1709

> <b_lp_Chiralities_Consistent>
1

> <s_lp_Variant>
AV-unprocessed.smi:334-8

> <Gold.Version>
5.8.1

> <Gold.Id.Protein>
6NUR|6NUR_protein|mol2

> <Gold.PLP.Fitness>
48.9704

> <Gold.PLP.PLP>
-37.6498

> <Gold.PLP.part.hbond>
-2.8743

> <Gold.PLP.part.metal>
0.0000

> <Gold.PLP.part.buried>
-3.3846

> <Gold.PLP.part.nonpolar>
-31.9219

> <Gold.PLP.part.repulsive>
0.3331

> <Gold.PLP.ligand.clash>
0.0000

> <Gold.PLP.ligand.torsion>
0.2866

> <Gold.PLP.Chemscore.Hbond>
2.9513

> <Gold.PLP.Chemscore.CHOScore>
1.0000

> <Gold.PLP.Chemscore.Metal>
0.0000

> <Gold.Chemscore.Hbonds>
donor molecule, donor type, donor heavy atom, donor atom, acceptor molecule, acceptor atom, score
      L1  H     3    28       P1  7948  0.84
      P1  H  7997  8010       L1    11  0.80
      P1  H 10752 10765       L1    12  0.99
      L1  C     8    31       P1  7948  1.00

> <Gold.PLP.Chemscore.Internal.Correction>
0.0401

> <Gold.Rescore>
     Score         DG    S(hbond)    S(metal)    S(lipo)     H(rot)  DE(clash)    DE(int)     intcor
     17.64     -18.89       2.89        0.00      70.49       1.75       0.04       1.21       ----

> <Gold.Chemscore.Fitness>
17.6424

> <Gold.Chemscore.DG>
-18.8944

> <Gold.Chemscore.ZeroCoef>
-5.4800

> <Gold.Chemscore.Hbond>
2.8863

> <Gold.Chemscore.Metal>
0.0000

> <Gold.Chemscore.Lipo>
70.4910

> <Gold.Chemscore.Internal_Hbond>
0.0000

> <Gold.Chemscore.DEClash>
0.0424

> <Gold.Chemscore.DEInternal>
1.2096

> <Gold.Chemscore.Rot>
1.7474

> <Gold.Chemscore.Internal.Correction>
   9.000000E+99

> <Gold.Chemscore.Hbonds>
donor molecule, donor type, donor heavy atom, donor atom, acceptor molecule, acceptor atom, score
      L1  H     3    28       P1  7948  0.82
      P1  H  7997  8010       L1    11  0.78
      P1  H 10752 10765       L1    12  0.94

> <Gold.Chemscore.Hbond.Weighted>
-9.6403

> <Gold.Chemscore.Metal.Weighted>
-0.0000

> <Gold.Chemscore.Lipo.Weighted>
-8.2474

> <Gold.Chemscore.Internal_Hbond.Weighted>
0.0000

> <Gold.Chemscore.DEClash.Weighted>
0.0424

> <Gold.Chemscore.DEInternal.Weighted>
1.2096

> <Gold.Chemscore.Rot.Weighted>
4.4733

> <Gold.Chemscore.Internal.Correction.Weighted>
   9.000000E+99

> <Gold.Protein.RotatedTorsions>
[ 6907 6896 6895 6894 ] final  171.94 input  -60.11 | X-H torsion
[ 7974 7965 7964 7962 ] final    6.28 input  175.53 | X-H torsion
[ 8008 7997 7996 7995 ] final  103.18 input   59.86 | X-H torsion
[ 10167 10162 10161 10158 ] final -148.41 input  -65.29 | X-H torsion
[ 10718 10713 10712 10709 ] final   86.54 input   66.30 | X-H torsion
[ 10763 10752 10751 10750 ] final  165.19 input  -60.55 | X-H torsion
[ 11005 11000 10999 10996 ] final -171.31 input  -57.11 | X-H torsion

> <Gold.Protein.ActiveResidues>
 VAL166  LYS551  ARG553  GLY616  TRP617  ASP618  TYR619  PRO620  LYS621  CYS622 
 ASP623  PHE694  ASN695  SER759  ASP760  ASP761  ALA762  ILE779  LEU786  VAL792 
 PHE793  MET794  SER795  GLU796  ALA797  LYS798  CYS799  TRP800  GLU811  SER814 

> <Gold.Protein.RotatedAtoms>
  151.7922  133.3360  159.3502 H   0  0  0  0  0  0  0  0  0  0  0  0  # atno 6907 bound_to 6896
  150.7388  134.5832  159.5959 H   0  0  0  0  0  0  0  0  0  0  0  0  # atno 6908 bound_to 6896
  152.3202  134.7391  160.0367 H   0  0  0  0  0  0  0  0  0  0  0  0  # atno 6909 bound_to 6896
  146.2436  140.0257  142.8394 H   0  0  0  0  0  0  0  0  0  0  0  0  # atno 7974 bound_to 7965
  156.1460  140.3169  155.8571 H   0  0  0  0  0  0  0  0  0  0  0  0  # atno 8008 bound_to 7997
  155.4063  140.0503  157.3051 H   0  0  0  0  0  0  0  0  0  0  0  0  # atno 8009 bound_to 7997
  154.5017  140.2132  155.9345 H   0  0  0  0  0  0  0  0  0  0  0  0  # atno 8010 bound_to 7997
  139.7534  143.8484  152.2591 H   0  0  0  0  0  0  0  0  0  0  0  0  # atno 10167 bound_to 10162
  157.6930  131.0219  150.2988 H   0  0  0  0  0  0  0  0  0  0  0  0  # atno 10718 bound_to 10713
  154.3203  135.2756  155.2523 H   0  0  0  0  0  0  0  0  0  0  0  0  # atno 10763 bound_to 10752
  154.4879  135.5841  153.6441 H   0  0  0  0  0  0  0  0  0  0  0  0  # atno 10764 bound_to 10752
  152.9877  135.6127  154.3387 H   0  0  0  0  0  0  0  0  0  0  0  0  # atno 10765 bound_to 10752
  140.5097  134.5813  157.5015 H   0  0  0  0  0  0  0  0  0  0  0  0  # atno 11005 bound_to 11000
  145.1200  140.9457  143.4606 LP  0  0  0  0  0  0  0  0  0  0  0  0  # atno 17320 bound_to 7965
  145.0490  139.3197  143.5938 LP  0  0  0  0  0  0  0  0  0  0  0  0  # atno 17321 bound_to 7965
  139.8469  144.7183  150.9262 LP  0  0  0  0  0  0  0  0  0  0  0  0  # atno 17342 bound_to 10162
  140.7800  143.3934  151.1271 LP  0  0  0  0  0  0  0  0  0  0  0  0  # atno 17343 bound_to 10162
  156.3507  130.3830  149.7332 LP  0  0  0  0  0  0  0  0  0  0  0  0  # atno 17370 bound_to 10713
  156.4810  130.8041  151.3055 LP  0  0  0  0  0  0  0  0  0  0  0  0  # atno 17371 bound_to 10713
  139.9666  134.7363  156.0126 LP  0  0  0  0  0  0  0  0  0  0  0  0  # atno 17394 bound_to 11000
  141.1392  133.6568  156.3680 LP  0  0  0  0  0  0  0  0  0  0  0  0  # atno 17395 bound_to 11000

$$$$
