AV-unprocessed.smi:1627|AV-procd|sdf|6519|dock10
  -GOLD-   22720 7193D 1   1.00000     0.00000
 Structure written by MMmdl.
 44 45  0  0  0  0  0  0  0  0  2 V2000
  157.2112  135.4409  161.2654 C   0  0  0  0  0  0  0  0  0  0  0  0
  155.8018  135.4341  161.8752 C   0  0  1  0  0  0  0  0  0  0  0  0
  155.9423  135.6513  163.2764 O   0  0  0  0  0  0  0  0  0  0  0  0
  154.8672  135.1769  164.0804 C   0  0  0  0  0  0  0  0  0  0  0  0
  155.1533  133.7328  164.5096 C   0  0  0  0  0  0  0  0  0  0  0  0
  156.3880  133.6588  165.0051 F   0  0  0  0  0  0  0  0  0  0  0  0
  154.2909  133.3511  165.4514 F   0  0  0  0  0  0  0  0  0  0  0  0
  155.0633  132.9155  163.4609 F   0  0  0  0  0  0  0  0  0  0  0  0
  154.9216  136.5302  161.2529 C   0  0  0  0  0  0  0  0  0  0  0  0
  153.9362  136.2138  160.5870 O   0  0  0  0  0  0  0  0  0  0  0  0
  155.3281  137.7970  161.4579 N   0  0  0  0  0  0  0  0  0  0  0  0
  154.7234  139.0030  161.0110 C   0  0  0  0  0  0  0  0  0  0  0  0
  153.8150  139.0804  159.9272 C   0  0  0  0  0  0  0  0  0  0  0  0
  153.2573  140.3265  159.5747 C   0  0  0  0  0  0  0  0  0  0  0  0
  153.5978  141.4881  160.3083 C   0  0  0  0  0  0  0  0  0  0  0  0
  153.0696  142.7602  159.9975 N   0  0  0  0  0  0  0  0  0  0  0  0
  152.5073  142.9047  158.6527 C   0  0  0  0  0  0  0  0  0  0  0  0
  152.3525  144.3867  158.2698 C   0  0  0  0  0  0  0  0  0  0  0  0
  151.5491  145.1516  159.3315 C   0  0  0  0  0  0  0  0  0  0  0  0
  152.1981  144.9697  160.7108 C   0  0  0  0  0  0  0  0  0  0  0  0
  152.3560  143.4791  161.0568 C   0  0  0  0  0  0  0  0  0  0  0  0
  154.4645  141.3590  161.3434 N   0  3  0  0  0  0  0  0  0  0  0  0
  155.0207  140.1863  161.7164 C   0  0  0  0  0  0  0  0  0  0  0  0
  157.1777  135.2913  160.1856 H   0  0  0  0  0  0  0  0  0  0  0  0
  157.8184  134.6408  161.6891 H   0  0  0  0  0  0  0  0  0  0  0  0
  157.7283  136.3817  161.4581 H   0  0  0  0  0  0  0  0  0  0  0  0
  155.3577  134.4520  161.7009 H   0  0  0  0  0  0  0  0  0  0  0  0
  154.7354  135.7989  164.9665 H   0  0  0  0  0  0  0  0  0  0  0  0
  153.9360  135.2159  163.5133 H   0  0  0  0  0  0  0  0  0  0  0  0
  156.2066  137.9045  161.9442 H   0  0  0  0  0  0  0  0  0  0  0  0
  153.5253  138.2073  159.3633 H   0  0  0  0  0  0  0  0  0  0  0  0
  152.5812  140.3761  158.7343 H   0  0  0  0  0  0  0  0  0  0  0  0
  153.1213  142.4120  157.9004 H   0  0  0  0  0  0  0  0  0  0  0  0
  151.5336  142.4133  158.6300 H   0  0  0  0  0  0  0  0  0  0  0  0
  153.3387  144.8403  158.1621 H   0  0  0  0  0  0  0  0  0  0  0  0
  151.8650  144.4719  157.2982 H   0  0  0  0  0  0  0  0  0  0  0  0
  151.4976  146.2103  159.0753 H   0  0  0  0  0  0  0  0  0  0  0  0
  150.5223  144.7840  159.3549 H   0  0  0  0  0  0  0  0  0  0  0  0
  153.1768  145.4514  160.7189 H   0  0  0  0  0  0  0  0  0  0  0  0
  151.6014  145.4692  161.4747 H   0  0  0  0  0  0  0  0  0  0  0  0
  151.3753  143.0231  161.1992 H   0  0  0  0  0  0  0  0  0  0  0  0
  152.8938  143.3930  162.0018 H   0  0  0  0  0  0  0  0  0  0  0  0
  155.6906  140.2343  162.5626 H   0  0  0  0  0  0  0  0  0  0  0  0
  154.7081  142.1954  161.8741 H   0  0  0  0  0  0  0  0  0  0  0  0
  1  2  1  0  0  0  0
  1 24  1  0  0  0  0
  1 25  1  0  0  0  0
  1 26  1  0  0  0  0
  2  3  1  0  0  0  0
  2  9  1  0  0  0  0
  2 27  1  0  0  0  0
  3  4  1  0  0  0  0
  4  5  1  0  0  0  0
  4 28  1  0  0  0  0
  4 29  1  0  0  0  0
  5  6  1  0  0  0  0
  5  7  1  0  0  0  0
  5  8  1  0  0  0  0
  9 10  2  0  0  0  0
  9 11  1  0  0  0  0
 11 12  1  0  0  0  0
 11 30  1  0  0  0  0
 12 23  1  0  0  0  0
 12 13  2  0  0  0  0
 13 14  1  0  0  0  0
 13 31  1  0  0  0  0
 14 15  2  0  0  0  0
 14 32  1  0  0  0  0
 15 16  1  0  0  0  0
 15 22  1  0  0  0  0
 16 21  1  0  0  0  0
 16 17  1  0  0  0  0
 17 18  1  0  0  0  0
 17 33  1  0  0  0  0
 17 34  1  0  0  0  0
 18 19  1  0  0  0  0
 18 35  1  0  0  0  0
 18 36  1  0  0  0  0
 19 20  1  0  0  0  0
 19 37  1  0  0  0  0
 19 38  1  0  0  0  0
 20 21  1  0  0  0  0
 20 39  1  0  0  0  0
 20 40  1  0  0  0  0
 21 41  1  0  0  0  0
 21 42  1  0  0  0  0
 22 23  2  0  0  0  0
 22 44  1  0  0  0  0
 23 43  1  0  0  0  0
M  CHG  1  22   1
M  END
> <s_m_source_file>
AV-unprocessed.smi

> <i_m_source_file_index>
1627

> <i_lp_mmshare_version>
43012

> <i_f3d_flags>
0

> <s_epik_input>
RkMoRikoRilbQ0gyXU9bQ0BASF0oW0NIM10pQyg9TylbTkhdYzFbY0hdW2NIXWMobltjSF0xKU4yW0NIMl1bQ0gyXVtDSDJdW0NIMl1bQ0gyXTI=

> <s_epik_cmdline>
J2VwaWtfcHl0aG9uJywgJy1waCcsICc3LjAnLCAnLXRuJywgJzgnLCAnLW1hJywgJzIwMCcsICctbWV0YWxfYmluZGluZycsICctaW1hZScsICc8aW5maWxlLm1hZT4nLCAnLW9tYWUnLCAnPG91dGZpbGUubWFlPic=

> <r_lp_tautomer_probability>
0.999994

> <r_epik_Ionization_Penalty>
1.93197

> <r_epik_Ionization_Penalty_Charging>
1.93197

> <r_epik_Ionization_Penalty_Neutral>
3.16684e-06

> <r_epik_State_Penalty>
2.05557

> <r_epik_Charging_Adjusted_Penalty>
3.98754

> <i_epik_Tot_Q>
1

> <i_epik_Tot_abs_Q>
1

> <r_epik_Metal_State_Penalty>
2.08108

> <b_epik_Metal_Only>
0

> <s_lp_Force_Field>
OPLS_2005

> <r_lp_Energy>
31.3841

> <b_lp_Chiralities_Consistent>
1

> <s_lp_Variant>
AV-unprocessed.smi:1627-4

> <Gold.Version>
5.8.1

> <Gold.Id.Protein>
6NUR|6NUR_protein|mol2

> <Gold.PLP.Fitness>
50.8543

> <Gold.PLP.PLP>
-49.2667

> <Gold.PLP.part.hbond>
-1.6515

> <Gold.PLP.part.metal>
0.0000

> <Gold.PLP.part.buried>
-6.7640

> <Gold.PLP.part.nonpolar>
-41.6165

> <Gold.PLP.part.repulsive>
0.0325

> <Gold.PLP.ligand.clash>
0.0000

> <Gold.PLP.ligand.torsion>
0.9322

> <Gold.PLP.Chemscore.Hbond>
0.9750

> <Gold.PLP.Chemscore.CHOScore>
0.0000

> <Gold.PLP.Chemscore.Metal>
0.0000

> <Gold.Chemscore.Hbonds>
donor molecule, donor type, donor heavy atom, donor atom, acceptor molecule, acceptor atom, score
      P1  H  6896  6907       L1    10  0.60

> <Gold.PLP.Chemscore.Internal.Correction>
0.5271

> <Gold.Rescore>
     Score         DG    S(hbond)    S(metal)    S(lipo)     H(rot)  DE(clash)    DE(int)     intcor
     15.19     -17.44       1.00        0.00     115.25       1.90       0.10       2.15       ----

> <Gold.Chemscore.Fitness>
15.1860

> <Gold.Chemscore.DG>
-17.4375

> <Gold.Chemscore.ZeroCoef>
-5.4800

> <Gold.Chemscore.Hbond>
0.9997

> <Gold.Chemscore.Metal>
0.0000

> <Gold.Chemscore.Lipo>
115.2491

> <Gold.Chemscore.Internal_Hbond>
0.0000

> <Gold.Chemscore.DEClash>
0.0995

> <Gold.Chemscore.DEInternal>
2.1520

> <Gold.Chemscore.Rot>
1.9007

> <Gold.Chemscore.Internal.Correction>
   9.000000E+99

> <Gold.Chemscore.Hbonds>
donor molecule, donor type, donor heavy atom, donor atom, acceptor molecule, acceptor atom, score
      P1  H  6896  6907       L1    10  0.60

> <Gold.Chemscore.Hbond.Weighted>
-3.3391

> <Gold.Chemscore.Metal.Weighted>
-0.0000

> <Gold.Chemscore.Lipo.Weighted>
-13.4841

> <Gold.Chemscore.Internal_Hbond.Weighted>
0.0000

> <Gold.Chemscore.DEClash.Weighted>
0.0995

> <Gold.Chemscore.DEInternal.Weighted>
2.1520

> <Gold.Chemscore.Rot.Weighted>
4.8657

> <Gold.Chemscore.Internal.Correction.Weighted>
   9.000000E+99

> <Gold.Protein.RotatedTorsions>
[ 6907 6896 6895 6894 ] final   46.37 input  -60.11 | X-H torsion
[ 7974 7965 7964 7962 ] final  -23.49 input  175.53 | X-H torsion
[ 8008 7997 7996 7995 ] final   67.31 input   59.86 | X-H torsion
[ 10167 10162 10161 10158 ] final -101.95 input  -65.29 | X-H torsion
[ 10718 10713 10712 10709 ] final   80.92 input   66.30 | X-H torsion
[ 10763 10752 10751 10750 ] final   -0.57 input  -60.55 | X-H torsion
[ 11005 11000 10999 10996 ] final  109.99 input  -57.11 | X-H torsion

> <Gold.Protein.ActiveResidues>
 VAL166  LYS551  ARG553  GLY616  TRP617  ASP618  TYR619  PRO620  LYS621  CYS622 
 ASP623  PHE694  ASN695  SER759  ASP760  ASP761  ALA762  ILE779  LEU786  VAL792 
 PHE793  MET794  SER795  GLU796  ALA797  LYS798  CYS799  TRP800  GLU811  SER814 

> <Gold.Protein.RotatedAtoms>
  152.2556  134.8088  160.0438 H   0  0  0  0  0  0  0  0  0  0  0  0  # atno 6907 bound_to 6896
  151.8752  133.3479  159.3756 H   0  0  0  0  0  0  0  0  0  0  0  0  # atno 6908 bound_to 6896
  150.7098  134.5000  159.5601 H   0  0  0  0  0  0  0  0  0  0  0  0  # atno 6909 bound_to 6896
  146.1613  140.4623  142.8570 H   0  0  0  0  0  0  0  0  0  0  0  0  # atno 7974 bound_to 7965
  155.6908  140.3496  155.4893 H   0  0  0  0  0  0  0  0  0  0  0  0  # atno 8008 bound_to 7997
  155.9525  140.1122  157.0987 H   0  0  0  0  0  0  0  0  0  0  0  0  # atno 8009 bound_to 7997
  154.4125  140.1191  156.5058 H   0  0  0  0  0  0  0  0  0  0  0  0  # atno 8010 bound_to 7997
  140.2358  143.3574  152.0846 H   0  0  0  0  0  0  0  0  0  0  0  0  # atno 10167 bound_to 10162
  157.6819  130.9981  150.2150 H   0  0  0  0  0  0  0  0  0  0  0  0  # atno 10718 bound_to 10713
  153.3336  135.6976  153.6926 H   0  0  0  0  0  0  0  0  0  0  0  0  # atno 10763 bound_to 10752
  153.5719  135.3514  155.2841 H   0  0  0  0  0  0  0  0  0  0  0  0  # atno 10764 bound_to 10752
  154.8623  135.4274  154.2532 H   0  0  0  0  0  0  0  0  0  0  0  0  # atno 10765 bound_to 10752
  139.8873  134.9472  156.6210 H   0  0  0  0  0  0  0  0  0  0  0  0  # atno 11005 bound_to 11000
  144.8031  140.6249  143.6465 LP  0  0  0  0  0  0  0  0  0  0  0  0  # atno 17320 bound_to 7965
  145.4581  139.1516  143.3881 LP  0  0  0  0  0  0  0  0  0  0  0  0  # atno 17321 bound_to 7965
  139.5094  144.6866  151.5870 LP  0  0  0  0  0  0  0  0  0  0  0  0  # atno 17342 bound_to 10162
  140.6151  143.9364  150.6482 LP  0  0  0  0  0  0  0  0  0  0  0  0  # atno 17343 bound_to 10162
  156.2813  130.3734  149.7932 LP  0  0  0  0  0  0  0  0  0  0  0  0  # atno 17370 bound_to 10713
  156.5620  130.8387  151.3331 LP  0  0  0  0  0  0  0  0  0  0  0  0  # atno 17371 bound_to 10713
  140.7739  133.8715  155.8514 LP  0  0  0  0  0  0  0  0  0  0  0  0  # atno 17394 bound_to 11000
  140.9818  134.1395  157.4487 LP  0  0  0  0  0  0  0  0  0  0  0  0  # atno 17395 bound_to 11000

$$$$
