AV-unprocessed.smi:1879|AV-procd|sdf|7631|dock2
  -GOLD-   22720 9353D 1   1.00000     0.00000
 Structure written by MMmdl.
 46 48  0  0  0  0  0  0  0  0  1 V2000
  147.2698  132.7974  154.2035 O   0  0  0  0  0  0  0  0  0  0  0  0
  147.6456  133.7722  153.5527 C   0  0  0  0  0  0  0  0  0  0  0  0
  148.7637  134.4784  153.7900 N   0  0  0  0  0  0  0  0  0  0  0  0
  149.7666  134.2506  154.7750 C   0  0  0  0  0  0  0  0  0  0  0  0
  150.1138  132.9568  155.2353 C   0  0  0  0  0  0  0  0  0  0  0  0
  151.1375  132.8208  156.1906 C   0  0  0  0  0  0  0  0  0  0  0  0
  151.7844  133.9826  156.6481 C   0  0  0  0  0  0  0  0  0  0  0  0
  151.4758  135.2200  156.2099 N   0  0  0  0  0  0  0  0  0  0  0  0
  150.4906  135.3571  155.2889 C   0  0  0  0  0  0  0  0  0  0  0  0
  150.1906  136.6572  154.8435 N   0  0  0  0  0  0  0  0  0  0  0  0
  149.4409  137.4824  155.7763 C   0  0  0  0  0  0  0  0  0  0  0  0
  149.5693  138.9125  155.2468 C   0  0  0  0  0  0  0  0  0  0  0  0
  150.8309  138.8982  154.3748 C   0  0  0  0  0  0  0  0  0  0  0  0
  151.3344  137.4530  154.4303 C   0  0  0  0  0  0  0  0  0  0  0  0
  146.9683  134.2823  152.5142 N   0  0  0  0  0  0  0  0  0  0  0  0
  145.7092  133.7728  151.9773 C   0  0  2  0  0  0  0  0  0  0  0  0
  145.9155  132.3361  151.4598 C   0  0  0  0  0  0  0  0  0  0  0  0
  144.6432  131.7872  150.7944 C   0  0  0  0  0  0  0  0  0  0  0  0
  144.1669  132.7163  149.6650 C   0  0  1  0  0  0  0  0  0  0  0  0
  142.9675  132.2150  149.1143 O   0  0  0  0  0  0  0  0  0  0  0  0
  143.9378  134.1454  150.1862 C   0  0  0  0  0  0  0  0  0  0  0  0
  145.2066  134.7010  150.8537 C   0  0  0  0  0  0  0  0  0  0  0  0
  148.8859  135.3165  153.2402 H   0  0  0  0  0  0  0  0  0  0  0  0
  149.6279  132.0682  154.8630 H   0  0  0  0  0  0  0  0  0  0  0  0
  151.4240  131.8473  156.5599 H   0  0  0  0  0  0  0  0  0  0  0  0
  152.5753  133.9165  157.3802 H   0  0  0  0  0  0  0  0  0  0  0  0
  148.3989  137.1660  155.8312 H   0  0  0  0  0  0  0  0  0  0  0  0
  149.8667  137.4155  156.7784 H   0  0  0  0  0  0  0  0  0  0  0  0
  148.7014  139.1699  154.6382 H   0  0  0  0  0  0  0  0  0  0  0  0
  149.6322  139.6379  156.0585 H   0  0  0  0  0  0  0  0  0  0  0  0
  150.5774  139.1748  153.3508 H   0  0  0  0  0  0  0  0  0  0  0  0
  151.5877  139.5978  154.7304 H   0  0  0  0  0  0  0  0  0  0  0  0
  152.1449  137.3659  155.1553 H   0  0  0  0  0  0  0  0  0  0  0  0
  151.7115  137.1225  153.4620 H   0  0  0  0  0  0  0  0  0  0  0  0
  147.3581  135.0908  152.0521 H   0  0  0  0  0  0  0  0  0  0  0  0
  144.9490  133.7408  152.7600 H   0  0  0  0  0  0  0  0  0  0  0  0
  146.7350  132.3153  150.7397 H   0  0  0  0  0  0  0  0  0  0  0  0
  146.2103  131.6824  152.2816 H   0  0  0  0  0  0  0  0  0  0  0  0
  144.8340  130.7870  150.4037 H   0  0  0  0  0  0  0  0  0  0  0  0
  143.8592  131.6823  151.5458 H   0  0  0  0  0  0  0  0  0  0  0  0
  144.9165  132.7359  148.8726 H   0  0  0  0  0  0  0  0  0  0  0  0
  142.3274  132.9102  149.1049 H   0  0  0  0  0  0  0  0  0  0  0  0
  143.6350  134.7997  149.3677 H   0  0  0  0  0  0  0  0  0  0  0  0
  143.1186  134.1513  150.9070 H   0  0  0  0  0  0  0  0  0  0  0  0
  145.0049  135.6958  151.2532 H   0  0  0  0  0  0  0  0  0  0  0  0
  145.9847  134.8235  150.0987 H   0  0  0  0  0  0  0  0  0  0  0  0
  1  2  2  0  0  0  0
  2  3  1  0  0  0  0
  2 15  1  0  0  0  0
  3  4  1  0  0  0  0
  3 23  1  0  0  0  0
  4  9  1  0  0  0  0
  4  5  2  0  0  0  0
  5  6  1  0  0  0  0
  5 24  1  0  0  0  0
  6  7  2  0  0  0  0
  6 25  1  0  0  0  0
  7  8  1  0  0  0  0
  7 26  1  0  0  0  0
  8  9  2  0  0  0  0
  9 10  1  0  0  0  0
 10 14  1  0  0  0  0
 10 11  1  0  0  0  0
 11 12  1  0  0  0  0
 11 27  1  0  0  0  0
 11 28  1  0  0  0  0
 12 13  1  0  0  0  0
 12 29  1  0  0  0  0
 12 30  1  0  0  0  0
 13 14  1  0  0  0  0
 13 31  1  0  0  0  0
 13 32  1  0  0  0  0
 14 33  1  0  0  0  0
 14 34  1  0  0  0  0
 15 16  1  0  0  0  0
 15 35  1  0  0  0  0
 16 22  1  0  0  0  0
 16 17  1  0  0  0  0
 16 36  1  0  0  0  0
 17 18  1  0  0  0  0
 17 37  1  0  0  0  0
 17 38  1  0  0  0  0
 18 19  1  0  0  0  0
 18 39  1  0  0  0  0
 18 40  1  0  0  0  0
 19 20  1  0  0  0  0
 19 21  1  0  0  0  0
 19 41  1  0  0  0  0
 20 42  1  0  0  0  0
 21 22  1  0  0  0  0
 21 43  1  0  0  0  0
 21 44  1  0  0  0  0
 22 45  1  0  0  0  0
 22 46  1  0  0  0  0
M  END
> <s_m_source_file>
AV-unprocessed.smi

> <i_m_source_file_index>
1879

> <i_lp_mmshare_version>
43012

> <i_f3d_flags>
0

> <s_epik_input>
W0NIMl0xW0NIMl1bQ0BIXShbT0hdKVtDSDJdW0NIMl1bQ0BIXTFbTkhdQyg9TylbTkhdYzJbY0hdW2NIXVtjSF1uYzJOM1tDSDJdW0NIMl1bQ0gyXVtDSDJdMw==

> <s_epik_cmdline>
J2VwaWtfcHl0aG9uJywgJy1waCcsICc3LjAnLCAnLXRuJywgJzgnLCAnLW1hJywgJzIwMCcsICctbWV0YWxfYmluZGluZycsICctaW1hZScsICc8aW5maWxlLm1hZT4nLCAnLW9tYWUnLCAnPG91dGZpbGUubWFlPic=

> <r_lp_tautomer_probability>
1

> <r_epik_Ionization_Penalty>
0.104121

> <r_epik_Ionization_Penalty_Charging>
0

> <r_epik_Ionization_Penalty_Neutral>
0.104121

> <r_epik_State_Penalty>
0.0934704

> <r_epik_Charging_Adjusted_Penalty>
0.0934704

> <i_epik_Tot_Q>
0

> <i_epik_Tot_abs_Q>
0

> <r_epik_Metal_State_Penalty>
0.0794466

> <b_epik_Metal_Only>
0

> <s_lp_Force_Field>
OPLS_2005

> <r_lp_Energy>
38.1849

> <b_lp_Chiralities_Consistent>
1

> <s_lp_Variant>
AV-unprocessed.smi:1879-1

> <Gold.Version>
5.8.1

> <Gold.Id.Protein>
6NUR|6NUR_protein|mol2

> <Gold.PLP.Fitness>
49.8761

> <Gold.PLP.PLP>
-37.5290

> <Gold.PLP.part.hbond>
-5.8565

> <Gold.PLP.part.metal>
0.0000

> <Gold.PLP.part.buried>
-3.2726

> <Gold.PLP.part.nonpolar>
-28.4101

> <Gold.PLP.part.repulsive>
0.2371

> <Gold.PLP.ligand.clash>
0.0000

> <Gold.PLP.ligand.torsion>
0.5055

> <Gold.PLP.Chemscore.Hbond>
4.4418

> <Gold.PLP.Chemscore.CHOScore>
0.0000

> <Gold.PLP.Chemscore.Metal>
0.0000

> <Gold.Chemscore.Hbonds>
donor molecule, donor type, donor heavy atom, donor atom, acceptor molecule, acceptor atom, score
      L1  H     3    23       P1  7948  1.00
      L1  H    15    35       P1  7948  0.91
      L1  H    20    42       P1 10186  0.96
      P1  H 10752 10764       L1     8  0.80
      P1  H 10785 10796       L1    20  0.78

> <Gold.PLP.Chemscore.Internal.Correction>
0.0329

> <Gold.Rescore>
     Score         DG    S(hbond)    S(metal)    S(lipo)     H(rot)  DE(clash)    DE(int)     intcor
     20.52     -21.20       3.06        0.00      83.59       1.67       0.20       0.49       ----

> <Gold.Chemscore.Fitness>
20.5172

> <Gold.Chemscore.DG>
-21.2014

> <Gold.Chemscore.ZeroCoef>
-5.4800

> <Gold.Chemscore.Hbond>
3.0606

> <Gold.Chemscore.Metal>
0.0000

> <Gold.Chemscore.Lipo>
83.5907

> <Gold.Chemscore.Internal_Hbond>
0.0000

> <Gold.Chemscore.DEClash>
0.1984

> <Gold.Chemscore.DEInternal>
0.4858

> <Gold.Chemscore.Rot>
1.6723

> <Gold.Chemscore.Internal.Correction>
   9.000000E+99

> <Gold.Chemscore.Hbonds>
donor molecule, donor type, donor heavy atom, donor atom, acceptor molecule, acceptor atom, score
      L1  H     3    23       P1  7948  0.59
      L1  H    15    35       P1  7948  0.85
      L1  H    20    42       P1 10186  0.91
      P1  H 10752 10764       L1     8  0.03
      P1  H 10785 10796       L1    20  0.53

> <Gold.Chemscore.Hbond.Weighted>
-10.2225

> <Gold.Chemscore.Metal.Weighted>
-0.0000

> <Gold.Chemscore.Lipo.Weighted>
-9.7801

> <Gold.Chemscore.Internal_Hbond.Weighted>
0.0000

> <Gold.Chemscore.DEClash.Weighted>
0.1984

> <Gold.Chemscore.DEInternal.Weighted>
0.4858

> <Gold.Chemscore.Rot.Weighted>
4.2812

> <Gold.Chemscore.Internal.Correction.Weighted>
   9.000000E+99

> <Gold.Protein.RotatedTorsions>
[ 6907 6896 6895 6894 ] final  142.87 input  -60.11 | X-H torsion
[ 7974 7965 7964 7962 ] final  101.96 input  175.53 | X-H torsion
[ 8008 7997 7996 7995 ] final  -37.62 input   59.86 | X-H torsion
[ 10167 10162 10161 10158 ] final -143.47 input  -65.29 | X-H torsion
[ 10718 10713 10712 10709 ] final  -48.40 input   66.30 | X-H torsion
[ 10763 10752 10751 10750 ] final  -33.83 input  -60.55 | X-H torsion
[ 11005 11000 10999 10996 ] final -125.72 input  -57.11 | X-H torsion

> <Gold.Protein.ActiveResidues>
 VAL166  LYS551  ARG553  GLY616  TRP617  ASP618  TYR619  PRO620  LYS621  CYS622 
 ASP623  PHE694  ASN695  SER759  ASP760  ASP761  ALA762  ILE779  LEU786  VAL792 
 PHE793  MET794  SER795  GLU796  ALA797  LYS798  CYS799  TRP800  GLU811  SER814 

> <Gold.Protein.RotatedAtoms>
  152.2133  133.4928  159.5122 H   0  0  0  0  0  0  0  0  0  0  0  0  # atno 6907 bound_to 6896
  150.6995  134.1438  159.4124 H   0  0  0  0  0  0  0  0  0  0  0  0  # atno 6908 bound_to 6896
  151.9358  135.0236  160.0583 H   0  0  0  0  0  0  0  0  0  0  0  0  # atno 6909 bound_to 6896
  145.3654  139.2409  143.3484 H   0  0  0  0  0  0  0  0  0  0  0  0  # atno 7974 bound_to 7965
  154.4050  140.1599  156.2567 H   0  0  0  0  0  0  0  0  0  0  0  0  # atno 8008 bound_to 7997
  155.9072  140.3429  155.6048 H   0  0  0  0  0  0  0  0  0  0  0  0  # atno 8009 bound_to 7997
  155.7379  140.0788  157.2250 H   0  0  0  0  0  0  0  0  0  0  0  0  # atno 8010 bound_to 7997
  139.7990  143.7859  152.2656 H   0  0  0  0  0  0  0  0  0  0  0  0  # atno 10167 bound_to 10162
  156.1991  130.4155  149.9265 H   0  0  0  0  0  0  0  0  0  0  0  0  # atno 10718 bound_to 10713
  153.8367  135.6861  153.4808 H   0  0  0  0  0  0  0  0  0  0  0  0  # atno 10763 bound_to 10752
  153.1478  135.4630  154.9590 H   0  0  0  0  0  0  0  0  0  0  0  0  # atno 10764 bound_to 10752
  154.7863  135.3286  154.7825 H   0  0  0  0  0  0  0  0  0  0  0  0  # atno 10765 bound_to 10752
  140.9739  134.0767  157.3839 H   0  0  0  0  0  0  0  0  0  0  0  0  # atno 11005 bound_to 11000
  146.2909  140.4295  142.8740 LP  0  0  0  0  0  0  0  0  0  0  0  0  # atno 17320 bound_to 7965
  144.8615  140.7147  143.6104 LP  0  0  0  0  0  0  0  0  0  0  0  0  # atno 17321 bound_to 7965
  139.7974  144.7387  150.9872 LP  0  0  0  0  0  0  0  0  0  0  0  0  # atno 17342 bound_to 10162
  140.7820  143.4380  151.0594 LP  0  0  0  0  0  0  0  0  0  0  0  0  # atno 17343 bound_to 10162
  156.6980  130.8922  151.3596 LP  0  0  0  0  0  0  0  0  0  0  0  0  # atno 17370 bound_to 10713
  157.6975  130.9297  150.0688 LP  0  0  0  0  0  0  0  0  0  0  0  0  # atno 17371 bound_to 10713
  139.8923  135.0124  156.6838 LP  0  0  0  0  0  0  0  0  0  0  0  0  # atno 17394 bound_to 11000
  140.7287  133.9077  155.8196 LP  0  0  0  0  0  0  0  0  0  0  0  0  # atno 17395 bound_to 11000

$$$$
