AV-unprocessed.smi:2573|AV-procd|sdf|10112|dock7
  -GOLD-   2272014133D 1   1.00000     0.00000
 Structure written by MMmdl.
 38 39  0  0  0  0  0  0  0  0  1 V2000
  153.8879  137.3647  161.5196 C   0  0  0  0  0  0  0  0  0  0  0  0
  153.4066  138.3063  160.4071 C   0  0  0  0  0  0  0  0  0  0  0  0
  154.0116  139.7204  160.4801 C   0  0  0  0  0  0  0  0  0  0  0  0
  153.2212  140.7047  159.7416 N   0  0  0  0  0  0  0  0  0  0  0  0
  152.7492  140.5842  158.4779 C   0  0  0  0  0  0  0  0  0  0  0  0
  152.9037  139.6136  157.7370 O   0  0  0  0  0  0  0  0  0  0  0  0
  152.0712  141.7150  158.1720 N   0  0  0  0  0  0  0  0  0  0  0  0
  151.3834  142.0029  156.9144 C   0  0  0  0  0  0  0  0  0  0  0  0
  150.8392  140.7171  156.2586 C   0  0  2  0  0  0  0  0  0  0  0  0
  151.8516  140.1909  155.4231 O   0  0  0  0  0  0  0  0  0  0  0  0
  149.5941  140.9973  155.3911 C   0  0  0  0  0  0  0  0  0  0  0  0
  148.9811  139.7527  154.7226 C   0  0  0  0  0  0  0  0  0  0  0  0
  148.1014  140.1457  153.8017 F   0  0  0  0  0  0  0  0  0  0  0  0
  149.9142  139.0132  154.1239 F   0  0  0  0  0  0  0  0  0  0  0  0
  148.3434  139.0086  155.6263 F   0  0  0  0  0  0  0  0  0  0  0  0
  152.0974  142.5791  159.2767 C   0  0  0  0  0  0  0  0  0  0  0  0
  151.5345  143.8528  159.4706 C   0  0  0  0  0  0  0  0  0  0  0  0
  151.7477  144.4696  160.7258 C   0  0  0  0  0  0  0  0  0  0  0  0
  152.4992  143.8177  161.7381 C   0  0  0  0  0  0  0  0  0  0  0  0
  153.0516  142.5345  161.5174 C   0  0  0  0  0  0  0  0  0  0  0  0
  152.8242  141.9444  160.2621 C   0  0  0  0  0  0  0  0  0  0  0  0
  153.4861  136.3614  161.3777 H   0  0  0  0  0  0  0  0  0  0  0  0
  153.5669  137.7100  162.5024 H   0  0  0  0  0  0  0  0  0  0  0  0
  154.9756  137.2899  161.5278 H   0  0  0  0  0  0  0  0  0  0  0  0
  153.6625  137.8673  159.4426 H   0  0  0  0  0  0  0  0  0  0  0  0
  152.3180  138.3664  160.4304 H   0  0  0  0  0  0  0  0  0  0  0  0
  154.1163  140.0256  161.5225 H   0  0  0  0  0  0  0  0  0  0  0  0
  155.0229  139.7075  160.0725 H   0  0  0  0  0  0  0  0  0  0  0  0
  150.5620  142.6835  157.1405 H   0  0  0  0  0  0  0  0  0  0  0  0
  152.0330  142.5514  156.2296 H   0  0  0  0  0  0  0  0  0  0  0  0
  150.5862  139.9845  157.0263 H   0  0  0  0  0  0  0  0  0  0  0  0
  151.8433  139.2484  155.4944 H   0  0  0  0  0  0  0  0  0  0  0  0
  148.8236  141.4457  156.0196 H   0  0  0  0  0  0  0  0  0  0  0  0
  149.8318  141.7447  154.6326 H   0  0  0  0  0  0  0  0  0  0  0  0
  150.9617  144.3437  158.6979 H   0  0  0  0  0  0  0  0  0  0  0  0
  151.3332  145.4485  160.9163 H   0  0  0  0  0  0  0  0  0  0  0  0
  152.6506  144.3063  162.6894 H   0  0  0  0  0  0  0  0  0  0  0  0
  153.6230  142.0323  162.2840 H   0  0  0  0  0  0  0  0  0  0  0  0
  1  2  1  0  0  0  0
  1 22  1  0  0  0  0
  1 23  1  0  0  0  0
  1 24  1  0  0  0  0
  2  3  1  0  0  0  0
  2 25  1  0  0  0  0
  2 26  1  0  0  0  0
  3  4  1  0  0  0  0
  3 27  1  0  0  0  0
  3 28  1  0  0  0  0
  4 21  1  0  0  0  0
  4  5  1  0  0  0  0
  5  6  2  0  0  0  0
  5  7  1  0  0  0  0
  7  8  1  0  0  0  0
  7 16  1  0  0  0  0
  8  9  1  0  0  0  0
  8 29  1  0  0  0  0
  8 30  1  0  0  0  0
  9 10  1  0  0  0  0
  9 11  1  0  0  0  0
  9 31  1  0  0  0  0
 10 32  1  0  0  0  0
 11 12  1  0  0  0  0
 11 33  1  0  0  0  0
 11 34  1  0  0  0  0
 12 13  1  0  0  0  0
 12 14  1  0  0  0  0
 12 15  1  0  0  0  0
 16 21  2  0  0  0  0
 16 17  1  0  0  0  0
 17 18  2  0  0  0  0
 17 35  1  0  0  0  0
 18 19  1  0  0  0  0
 18 36  1  0  0  0  0
 19 20  2  0  0  0  0
 19 37  1  0  0  0  0
 20 21  1  0  0  0  0
 20 38  1  0  0  0  0
M  END
> <s_m_source_file>
AV-unprocessed.smi

> <i_m_source_file_index>
2573

> <i_lp_mmshare_version>
43012

> <i_f3d_flags>
0

> <s_epik_input>
W2NIXTFbY0hdW2NIXVtjSF1jKGMxMiluKFtDSDJdW0NIMl1bQ0gzXSljKD1PKW4yW0NIMl1bQ0BIXShbT0hdKVtDSDJdQyhGKShGKUY=

> <s_epik_cmdline>
J2VwaWtfcHl0aG9uJywgJy1waCcsICc3LjAnLCAnLXRuJywgJzgnLCAnLW1hJywgJzIwMCcsICctbWV0YWxfYmluZGluZycsICctaW1hZScsICc8aW5maWxlLm1hZT4nLCAnLW9tYWUnLCAnPG91dGZpbGUubWFlPic=

> <r_lp_tautomer_probability>
1

> <r_epik_Ionization_Penalty>
2.4024e-06

> <r_epik_Ionization_Penalty_Charging>
3.10219e-09

> <r_epik_Ionization_Penalty_Neutral>
2.3993e-06

> <r_epik_State_Penalty>
-0

> <r_epik_Charging_Adjusted_Penalty>
3.10219e-09

> <i_epik_Tot_Q>
0

> <i_epik_Tot_abs_Q>
0

> <r_epik_Metal_State_Penalty>
-0

> <b_epik_Metal_Only>
0

> <s_lp_Force_Field>
OPLS_2005

> <r_lp_Energy>
43.3878

> <b_lp_Chiralities_Consistent>
1

> <s_lp_Variant>
AV-unprocessed.smi:2573-1

> <Gold.Version>
5.8.1

> <Gold.Id.Protein>
6NUR|6NUR_protein|mol2

> <Gold.PLP.Fitness>
50.9703

> <Gold.PLP.PLP>
-47.4820

> <Gold.PLP.part.hbond>
-2.0000

> <Gold.PLP.part.metal>
0.0000

> <Gold.PLP.part.buried>
-3.9740

> <Gold.PLP.part.nonpolar>
-39.9234

> <Gold.PLP.part.repulsive>
0.0000

> <Gold.PLP.ligand.clash>
0.0000

> <Gold.PLP.ligand.torsion>
1.0512

> <Gold.PLP.Chemscore.Hbond>
1.8320

> <Gold.PLP.Chemscore.CHOScore>
0.0000

> <Gold.PLP.Chemscore.Metal>
0.0000

> <Gold.Chemscore.Hbonds>
donor molecule, donor type, donor heavy atom, donor atom, acceptor molecule, acceptor atom, score
      P1  H  7989  7998       L1    10  0.80
      P1  H  7997  8009       L1     6  1.00

> <Gold.PLP.Chemscore.Internal.Correction>
0.0946

> <Gold.Rescore>
     Score         DG    S(hbond)    S(metal)    S(lipo)     H(rot)  DE(clash)    DE(int)     intcor
     13.45     -17.72       1.73        0.00     109.51       2.48       0.08       4.19       ----

> <Gold.Chemscore.Fitness>
13.4534

> <Gold.Chemscore.DG>
-17.7224

> <Gold.Chemscore.ZeroCoef>
-5.4800

> <Gold.Chemscore.Hbond>
1.7309

> <Gold.Chemscore.Metal>
0.0000

> <Gold.Chemscore.Lipo>
109.5131

> <Gold.Chemscore.Internal_Hbond>
0.0000

> <Gold.Chemscore.DEClash>
0.0784

> <Gold.Chemscore.DEInternal>
4.1905

> <Gold.Chemscore.Rot>
2.4812

> <Gold.Chemscore.Internal.Correction>
   9.000000E+99

> <Gold.Chemscore.Hbonds>
donor molecule, donor type, donor heavy atom, donor atom, acceptor molecule, acceptor atom, score
      P1  H  7989  7998       L1    10  0.52
      P1  H  7997  8009       L1     6  0.26

> <Gold.Chemscore.Hbond.Weighted>
-5.7812

> <Gold.Chemscore.Metal.Weighted>
-0.0000

> <Gold.Chemscore.Lipo.Weighted>
-12.8130

> <Gold.Chemscore.Internal_Hbond.Weighted>
0.0000

> <Gold.Chemscore.DEClash.Weighted>
0.0784

> <Gold.Chemscore.DEInternal.Weighted>
4.1905

> <Gold.Chemscore.Rot.Weighted>
6.3518

> <Gold.Chemscore.Internal.Correction.Weighted>
   9.000000E+99

> <Gold.Protein.RotatedTorsions>
[ 6907 6896 6895 6894 ] final -139.79 input  -60.11 | X-H torsion
[ 7974 7965 7964 7962 ] final  -92.74 input  175.53 | X-H torsion
[ 8008 7997 7996 7995 ] final  159.31 input   59.86 | X-H torsion
[ 10167 10162 10161 10158 ] final  110.08 input  -65.29 | X-H torsion
[ 10718 10713 10712 10709 ] final -137.53 input   66.30 | X-H torsion
[ 10763 10752 10751 10750 ] final -132.13 input  -60.55 | X-H torsion
[ 11005 11000 10999 10996 ] final  168.23 input  -57.11 | X-H torsion

> <Gold.Protein.ActiveResidues>
 VAL166  LYS551  ARG553  GLY616  TRP617  ASP618  TYR619  PRO620  LYS621  CYS622 
 ASP623  PHE694  ASN695  SER759  ASP760  ASP761  ALA762  ILE779  LEU786  VAL792 
 PHE793  MET794  SER795  GLU796  ALA797  LYS798  CYS799  TRP800  GLU811  SER814 

> <Gold.Protein.RotatedAtoms>
  151.0523  133.5614  159.2641 H   0  0  0  0  0  0  0  0  0  0  0  0  # atno 6907 bound_to 6896
  151.2620  135.0656  159.9112 H   0  0  0  0  0  0  0  0  0  0  0  0  # atno 6908 bound_to 6896
  152.5384  134.0267  159.8060 H   0  0  0  0  0  0  0  0  0  0  0  0  # atno 6909 bound_to 6896
  145.3958  140.9533  143.2314 H   0  0  0  0  0  0  0  0  0  0  0  0  # atno 7974 bound_to 7965
  156.2247  140.1835  156.7392 H   0  0  0  0  0  0  0  0  0  0  0  0  # atno 8008 bound_to 7997
  154.5922  140.0649  156.9282 H   0  0  0  0  0  0  0  0  0  0  0  0  # atno 8009 bound_to 7997
  155.2317  140.3315  155.4305 H   0  0  0  0  0  0  0  0  0  0  0  0  # atno 8010 bound_to 7997
  139.6716  144.7125  151.1677 H   0  0  0  0  0  0  0  0  0  0  0  0  # atno 10167 bound_to 10162
  156.2891  130.7365  151.1385 H   0  0  0  0  0  0  0  0  0  0  0  0  # atno 10718 bound_to 10713
  154.8745  135.3808  154.4359 H   0  0  0  0  0  0  0  0  0  0  0  0  # atno 10763 bound_to 10752
  153.5049  135.7030  153.5817 H   0  0  0  0  0  0  0  0  0  0  0  0  # atno 10764 bound_to 10752
  153.4132  135.3919  155.2030 H   0  0  0  0  0  0  0  0  0  0  0  0  # atno 10765 bound_to 10752
  140.2851  134.7719  157.3791 H   0  0  0  0  0  0  0  0  0  0  0  0  # atno 11005 bound_to 11000
  144.8408  139.5475  143.6901 LP  0  0  0  0  0  0  0  0  0  0  0  0  # atno 17320 bound_to 7965
  146.2775  139.6792  142.9252 LP  0  0  0  0  0  0  0  0  0  0  0  0  # atno 17321 bound_to 7965
  140.7620  143.5835  150.8870 LP  0  0  0  0  0  0  0  0  0  0  0  0  # atno 17342 bound_to 10162
  139.9501  143.6282  152.3031 LP  0  0  0  0  0  0  0  0  0  0  0  0  # atno 17343 bound_to 10162
  157.7337  131.0588  150.5562 LP  0  0  0  0  0  0  0  0  0  0  0  0  # atno 17370 bound_to 10713
  156.5676  130.4271  149.6034 LP  0  0  0  0  0  0  0  0  0  0  0  0  # atno 17371 bound_to 10713
  140.1247  134.5173  155.8154 LP  0  0  0  0  0  0  0  0  0  0  0  0  # atno 17394 bound_to 11000
  141.2156  133.6768  156.6931 LP  0  0  0  0  0  0  0  0  0  0  0  0  # atno 17395 bound_to 11000

$$$$
