AV-unprocessed.smi:2329|AV-procd|sdf|9309|dock2
  -GOLD-   2272012523D 1   1.00000     0.00000
 Structure written by MMmdl.
 45 48  0  0  0  0  0  0  0  0  1 V2000
  146.9246  132.5014  160.3024 C   0  0  0  0  0  0  0  0  0  0  0  0
  147.0974  133.8546  160.9601 C   0  0  0  0  0  0  0  0  0  0  0  0
  146.7277  134.0604  162.3039 C   0  0  0  0  0  0  0  0  0  0  0  0
  146.9137  135.3412  162.8539 C   0  0  0  0  0  0  0  0  0  0  0  0
  147.4578  136.3562  162.0437 C   0  0  0  0  0  0  0  0  0  0  0  0
  147.8031  136.0658  160.7047 C   0  0  0  0  0  0  0  0  0  0  0  0
  148.3350  137.1584  159.9726 N   0  0  0  0  0  0  0  0  0  0  0  0
  149.3226  137.1530  159.0563 C   0  0  0  0  0  0  0  0  0  0  0  0
  150.0201  136.1784  158.7810 O   0  0  0  0  0  0  0  0  0  0  0  0
  149.5066  138.3372  158.4468 N   0  0  0  0  0  0  0  0  0  0  0  0
  150.4882  138.6669  157.4120 C   0  0  1  0  0  0  0  0  0  0  0  0
  149.9495  138.4012  156.0054 C   0  0  2  0  0  0  0  0  0  0  0  0
  150.2752  137.4213  154.9349 C   0  0  0  0  0  0  0  0  0  0  0  0
  150.3393  138.4149  153.7446 C   0  0  0  0  0  0  0  0  0  0  0  0
  150.3033  139.7388  154.3305 O   0  0  0  0  0  0  0  0  0  0  0  0
  150.8531  139.5528  155.6188 C   0  0  1  0  0  0  0  0  0  0  0  0
  150.4992  140.1856  156.9793 C   0  0  0  0  0  0  0  0  0  0  0  0
  149.2173  141.0303  157.0877 C   0  0  0  0  0  0  0  0  0  0  0  0
  149.3901  141.9441  158.2969 C   0  0  0  0  0  0  0  0  0  0  0  0
  150.8834  142.2497  158.3337 C   0  0  0  0  0  0  0  0  0  0  0  0
  151.5703  141.0856  157.6090 C   0  0  0  0  0  0  0  0  0  0  0  0
  147.6200  134.8274  160.1830 N   0  0  0  0  0  0  0  0  0  0  0  0
  146.4113  131.8027  160.9635 H   0  0  0  0  0  0  0  0  0  0  0  0
  147.8965  132.0786  160.0465 H   0  0  0  0  0  0  0  0  0  0  0  0
  146.3390  132.5953  159.3874 H   0  0  0  0  0  0  0  0  0  0  0  0
  146.3124  133.2607  162.8993 H   0  0  0  0  0  0  0  0  0  0  0  0
  146.6437  135.5434  163.8798 H   0  0  0  0  0  0  0  0  0  0  0  0
  147.6063  137.3461  162.4504 H   0  0  0  0  0  0  0  0  0  0  0  0
  147.8740  138.0439  160.1203 H   0  0  0  0  0  0  0  0  0  0  0  0
  148.9139  139.0970  158.7491 H   0  0  0  0  0  0  0  0  0  0  0  0
  151.4792  138.2340  157.5784 H   0  0  0  0  0  0  0  0  0  0  0  0
  148.8889  138.6646  155.9469 H   0  0  0  0  0  0  0  0  0  0  0  0
  151.2334  136.9301  155.1101 H   0  0  0  0  0  0  0  0  0  0  0  0
  149.5035  136.6620  154.8060 H   0  0  0  0  0  0  0  0  0  0  0  0
  151.2578  138.2769  153.1727 H   0  0  0  0  0  0  0  0  0  0  0  0
  149.4956  138.2930  153.0650 H   0  0  0  0  0  0  0  0  0  0  0  0
  151.9139  139.2845  155.5520 H   0  0  0  0  0  0  0  0  0  0  0  0
  149.1004  141.6393  156.1902 H   0  0  0  0  0  0  0  0  0  0  0  0
  148.3075  140.4378  157.1840 H   0  0  0  0  0  0  0  0  0  0  0  0
  148.7777  142.8442  158.2347 H   0  0  0  0  0  0  0  0  0  0  0  0
  149.1031  141.4119  159.2041 H   0  0  0  0  0  0  0  0  0  0  0  0
  151.0818  143.1798  157.8000 H   0  0  0  0  0  0  0  0  0  0  0  0
  151.2471  142.3729  159.3545 H   0  0  0  0  0  0  0  0  0  0  0  0
  152.1931  140.5245  158.3053 H   0  0  0  0  0  0  0  0  0  0  0  0
  152.2467  141.4773  156.8484 H   0  0  0  0  0  0  0  0  0  0  0  0
  1  2  1  0  0  0  0
  1 23  1  0  0  0  0
  1 24  1  0  0  0  0
  1 25  1  0  0  0  0
  2 22  1  0  0  0  0
  2  3  2  0  0  0  0
  3  4  1  0  0  0  0
  3 26  1  0  0  0  0
  4  5  2  0  0  0  0
  4 27  1  0  0  0  0
  5  6  1  0  0  0  0
  5 28  1  0  0  0  0
  6  7  1  0  0  0  0
  6 22  2  0  0  0  0
  7  8  1  0  0  0  0
  7 29  1  0  0  0  0
  8  9  2  0  0  0  0
  8 10  1  0  0  0  0
 10 11  1  0  0  0  0
 10 30  1  0  0  0  0
 11 17  1  0  0  0  0
 11 12  1  0  0  0  0
 11 31  1  0  0  0  0
 12 16  1  0  0  0  0
 12 13  1  0  0  0  0
 12 32  1  0  0  0  0
 13 14  1  0  0  0  0
 13 33  1  0  0  0  0
 13 34  1  0  0  0  0
 14 15  1  0  0  0  0
 14 35  1  0  0  0  0
 14 36  1  0  0  0  0
 15 16  1  0  0  0  0
 16 17  1  0  0  0  0
 16 37  1  0  0  0  0
 17 21  1  0  0  0  0
 17 18  1  0  0  0  0
 18 19  1  0  0  0  0
 18 38  1  0  0  0  0
 18 39  1  0  0  0  0
 19 20  1  0  0  0  0
 19 40  1  0  0  0  0
 19 41  1  0  0  0  0
 20 21  1  0  0  0  0
 20 42  1  0  0  0  0
 20 43  1  0  0  0  0
 21 44  1  0  0  0  0
 21 45  1  0  0  0  0
M  END
> <s_m_source_file>
AV-unprocessed.smi

> <i_m_source_file_index>
2329

> <i_lp_mmshare_version>
43012

> <i_f3d_flags>
0

> <s_epik_input>
W0NIM11jMVtjSF1bY0hdW2NIXWMobjEpW05IXUMoPU8pW05IXVtDQEBIXTJbQ0BASF0oW0NIMl1bQ0gyXU8zKVtDQEhdM0MyNFtDSDJdW0NIMl1bQ0gyXVtDSDJdNA==

> <s_epik_cmdline>
J2VwaWtfcHl0aG9uJywgJy1waCcsICc3LjAnLCAnLXRuJywgJzgnLCAnLW1hJywgJzIwMCcsICctbWV0YWxfYmluZGluZycsICctaW1hZScsICc8aW5maWxlLm1hZT4nLCAnLW9tYWUnLCAnPG91dGZpbGUubWFlPic=

> <r_lp_tautomer_probability>
1

> <r_epik_Ionization_Penalty>
8.97002e-05

> <r_epik_Ionization_Penalty_Charging>
0

> <r_epik_Ionization_Penalty_Neutral>
8.97002e-05

> <r_epik_State_Penalty>
-0

> <r_epik_Charging_Adjusted_Penalty>
0

> <i_epik_Tot_Q>
0

> <i_epik_Tot_abs_Q>
0

> <r_epik_Metal_State_Penalty>
-0

> <b_epik_Metal_Only>
0

> <s_lp_Force_Field>
OPLS_2005

> <r_lp_Energy>
86.4026

> <b_lp_Chiralities_Consistent>
1

> <s_lp_Variant>
AV-unprocessed.smi:2329-8

> <Gold.Version>
5.8.1

> <Gold.Id.Protein>
6NUR|6NUR_protein|mol2

> <Gold.PLP.Fitness>
42.7854

> <Gold.PLP.PLP>
-37.4611

> <Gold.PLP.part.hbond>
-2.0000

> <Gold.PLP.part.metal>
0.0000

> <Gold.PLP.part.buried>
-7.3633

> <Gold.PLP.part.nonpolar>
-29.7486

> <Gold.PLP.part.repulsive>
1.3734

> <Gold.PLP.ligand.clash>
0.0000

> <Gold.PLP.ligand.torsion>
0.4773

> <Gold.PLP.Chemscore.Hbond>
2.0000

> <Gold.PLP.Chemscore.CHOScore>
0.0000

> <Gold.PLP.Chemscore.Metal>
0.0000

> <Gold.Chemscore.Hbonds>
donor molecule, donor type, donor heavy atom, donor atom, acceptor molecule, acceptor atom, score
      P1  H  6896  6908       L1     9  1.00
      P1  H  7989  7998       L1    15  1.00

> <Gold.PLP.Chemscore.Internal.Correction>
0.2790

> <Gold.Rescore>
     Score         DG    S(hbond)    S(metal)    S(lipo)     H(rot)  DE(clash)    DE(int)     intcor
     19.40     -20.05       1.99        0.00      89.73       1.00       0.12       0.54       ----

> <Gold.Chemscore.Fitness>
19.3951

> <Gold.Chemscore.DG>
-20.0508

> <Gold.Chemscore.ZeroCoef>
-5.4800

> <Gold.Chemscore.Hbond>
1.9856

> <Gold.Chemscore.Metal>
0.0000

> <Gold.Chemscore.Lipo>
89.7347

> <Gold.Chemscore.Internal_Hbond>
0.0000

> <Gold.Chemscore.DEClash>
0.1205

> <Gold.Chemscore.DEInternal>
0.5352

> <Gold.Chemscore.Rot>
1.0000

> <Gold.Chemscore.Internal.Correction>
   9.000000E+99

> <Gold.Chemscore.Hbonds>
donor molecule, donor type, donor heavy atom, donor atom, acceptor molecule, acceptor atom, score
      P1  H  6896  6908       L1     9  1.00
      P1  H  7989  7998       L1    15  0.26

> <Gold.Chemscore.Hbond.Weighted>
-6.6318

> <Gold.Chemscore.Metal.Weighted>
-0.0000

> <Gold.Chemscore.Lipo.Weighted>
-10.4990

> <Gold.Chemscore.Internal_Hbond.Weighted>
0.0000

> <Gold.Chemscore.DEClash.Weighted>
0.1205

> <Gold.Chemscore.DEInternal.Weighted>
0.5352

> <Gold.Chemscore.Rot.Weighted>
2.5600

> <Gold.Chemscore.Internal.Correction.Weighted>
   9.000000E+99

> <Gold.Protein.RotatedTorsions>
[ 6907 6896 6895 6894 ] final -168.77 input  -60.11 | X-H torsion
[ 7974 7965 7964 7962 ] final  -22.01 input  175.53 | X-H torsion
[ 8008 7997 7996 7995 ] final   83.49 input   59.86 | X-H torsion
[ 10167 10162 10161 10158 ] final  118.10 input  -65.29 | X-H torsion
[ 10718 10713 10712 10709 ] final -144.45 input   66.30 | X-H torsion
[ 10763 10752 10751 10750 ] final -177.38 input  -60.55 | X-H torsion
[ 11005 11000 10999 10996 ] final   15.95 input  -57.11 | X-H torsion

> <Gold.Protein.ActiveResidues>
 VAL166  LYS551  ARG553  GLY616  TRP617  ASP618  TYR619  PRO620  LYS621  CYS622 
 ASP623  PHE694  ASN695  SER759  ASP760  ASP761  ALA762  ILE779  LEU786  VAL792 
 PHE793  MET794  SER795  GLU796  ALA797  LYS798  CYS799  TRP800  GLU811  SER814 

> <Gold.Protein.RotatedAtoms>
  151.4810  133.3546  159.2837 H   0  0  0  0  0  0  0  0  0  0  0  0  # atno 6907 bound_to 6896
  150.8898  134.8302  159.7296 H   0  0  0  0  0  0  0  0  0  0  0  0  # atno 6908 bound_to 6896
  152.4815  134.4718  159.9689 H   0  0  0  0  0  0  0  0  0  0  0  0  # atno 6909 bound_to 6896
  146.1700  140.4420  142.8536 H   0  0  0  0  0  0  0  0  0  0  0  0  # atno 7974 bound_to 7965
  155.9245  140.3419  155.6199 H   0  0  0  0  0  0  0  0  0  0  0  0  # atno 8008 bound_to 7997
  155.7232  140.0786  157.2340 H   0  0  0  0  0  0  0  0  0  0  0  0  # atno 8009 bound_to 7997
  154.4075  140.1601  156.2413 H   0  0  0  0  0  0  0  0  0  0  0  0  # atno 8010 bound_to 7997
  139.6134  144.7087  151.2794 H   0  0  0  0  0  0  0  0  0  0  0  0  # atno 10167 bound_to 10162
  156.3702  130.7784  151.1964 H   0  0  0  0  0  0  0  0  0  0  0  0  # atno 10718 bound_to 10713
  154.5608  135.2820  155.0920 H   0  0  0  0  0  0  0  0  0  0  0  0  # atno 10763 bound_to 10752
  154.2330  135.6371  153.5185 H   0  0  0  0  0  0  0  0  0  0  0  0  # atno 10764 bound_to 10752
  153.0029  135.5541  154.6202 H   0  0  0  0  0  0  0  0  0  0  0  0  # atno 10765 bound_to 10752
  140.4526  134.1209  155.7704 H   0  0  0  0  0  0  0  0  0  0  0  0  # atno 11005 bound_to 11000
  144.8149  140.6450  143.6391 LP  0  0  0  0  0  0  0  0  0  0  0  0  # atno 17320 bound_to 7965
  145.4365  139.1541  143.3994 LP  0  0  0  0  0  0  0  0  0  0  0  0  # atno 17321 bound_to 7965
  140.7334  143.6795  150.8013 LP  0  0  0  0  0  0  0  0  0  0  0  0  # atno 17342 bound_to 10162
  140.0393  143.5362  152.2725 LP  0  0  0  0  0  0  0  0  0  0  0  0  # atno 17343 bound_to 10162
  157.7483  131.0374  150.4456 LP  0  0  0  0  0  0  0  0  0  0  0  0  # atno 17370 bound_to 10713
  156.4681  130.4046  149.6534 LP  0  0  0  0  0  0  0  0  0  0  0  0  # atno 17371 bound_to 10713
  141.1657  133.8707  157.1720 LP  0  0  0  0  0  0  0  0  0  0  0  0  # atno 17394 bound_to 11000
  139.9997  135.0033  157.0162 LP  0  0  0  0  0  0  0  0  0  0  0  0  # atno 17395 bound_to 11000

$$$$
