AV-unprocessed.smi:1985|AV-procd|sdf|8044|dock1
  -GOLD-   2272010243D 1   1.00000     0.00000
 Structure written by MMmdl.
 51 52  0  0  0  0  0  0  0  0  2 V2000
  146.9959  141.6570  154.4923 C   0  0  0  0  0  0  0  0  0  0  0  0
  146.8217  140.1283  154.5319 C   0  0  0  0  0  0  0  0  0  0  0  0
  147.6308  139.3269  153.4650 C   0  0  1  0  0  0  0  0  0  0  0  0
  147.2673  139.9168  152.0765 C   0  0  0  0  0  0  0  0  0  0  0  0
  149.1633  139.5139  153.7015 C   0  0  0  0  0  0  0  0  0  0  0  0
  149.5332  139.5544  155.1158 N   0  0  0  0  0  0  0  0  0  0  0  0
  150.7114  139.9742  155.6014 C   0  0  0  0  0  0  0  0  0  0  0  0
  151.6116  140.4293  154.8950 O   0  0  0  0  0  0  0  0  0  0  0  0
  150.9016  139.8578  157.1184 C   0  0  0  0  0  0  0  0  0  0  0  0
  151.2797  141.1393  157.7275 N   0  0  0  0  0  0  0  0  0  0  0  0
  150.7843  142.3202  157.2045 C   0  0  0  0  0  0  0  0  0  0  0  0
  151.0975  143.5401  157.6925 C   0  0  0  0  0  0  0  0  0  0  0  0
  152.0006  143.6804  158.8276 C   0  0  0  0  0  0  0  0  0  0  0  0
  152.3212  144.7679  159.3095 O   0  0  0  0  0  0  0  0  0  0  0  0
  152.4922  142.4602  159.3444 N   0  0  0  0  0  0  0  0  0  0  0  0
  153.3984  142.5586  160.4696 C   0  0  0  0  0  0  0  0  0  0  0  0
  152.1603  141.1845  158.8314 C   0  0  0  0  0  0  0  0  0  0  0  0
  152.6116  140.1406  159.3090 O   0  0  0  0  0  0  0  0  0  0  0  0
  147.2566  137.8668  153.5299 N   0  3  0  0  0  0  0  0  0  0  0  0
  147.5379  137.1717  154.8180 C   0  0  0  0  0  0  0  0  0  0  0  0
  147.2932  135.6590  154.6788 C   0  0  0  0  0  0  0  0  0  0  0  0
  145.9592  135.4213  154.2524 O   0  0  0  0  0  0  0  0  0  0  0  0
  145.7022  136.0036  152.9823 C   0  0  0  0  0  0  0  0  0  0  0  0
  145.8786  137.5276  153.0728 C   0  0  0  0  0  0  0  0  0  0  0  0
  146.4033  142.1259  155.2782 H   0  0  0  0  0  0  0  0  0  0  0  0
  146.6668  142.0807  153.5435 H   0  0  0  0  0  0  0  0  0  0  0  0
  148.0327  141.9515  154.6525 H   0  0  0  0  0  0  0  0  0  0  0  0
  147.1084  139.8005  155.5311 H   0  0  0  0  0  0  0  0  0  0  0  0
  145.7605  139.8907  154.4637 H   0  0  0  0  0  0  0  0  0  0  0  0
  147.3138  141.0066  152.0765 H   0  0  0  0  0  0  0  0  0  0  0  0
  146.2591  139.6391  151.7683 H   0  0  0  0  0  0  0  0  0  0  0  0
  147.9529  139.5832  151.2975 H   0  0  0  0  0  0  0  0  0  0  0  0
  149.7376  138.7342  153.2012 H   0  0  0  0  0  0  0  0  0  0  0  0
  149.5019  140.4541  153.2674 H   0  0  0  0  0  0  0  0  0  0  0  0
  148.8518  139.2039  155.7737 H   0  0  0  0  0  0  0  0  0  0  0  0
  149.9692  139.4940  157.5520 H   0  0  0  0  0  0  0  0  0  0  0  0
  151.6519  139.0999  157.3511 H   0  0  0  0  0  0  0  0  0  0  0  0
  150.1147  142.2688  156.3583 H   0  0  0  0  0  0  0  0  0  0  0  0
  150.6767  144.4236  157.2353 H   0  0  0  0  0  0  0  0  0  0  0  0
  153.7197  141.5752  160.8109 H   0  0  0  0  0  0  0  0  0  0  0  0
  152.8637  143.0700  161.2721 H   0  0  0  0  0  0  0  0  0  0  0  0
  154.2634  143.1353  160.1371 H   0  0  0  0  0  0  0  0  0  0  0  0
  148.5709  137.3081  155.1323 H   0  0  0  0  0  0  0  0  0  0  0  0
  146.9037  137.5726  155.6089 H   0  0  0  0  0  0  0  0  0  0  0  0
  147.9974  135.2145  153.9736 H   0  0  0  0  0  0  0  0  0  0  0  0
  147.4491  135.1637  155.6372 H   0  0  0  0  0  0  0  0  0  0  0  0
  146.3653  135.5768  152.2279 H   0  0  0  0  0  0  0  0  0  0  0  0
  144.6822  135.7611  152.6839 H   0  0  0  0  0  0  0  0  0  0  0  0
  145.1376  137.9283  153.7646 H   0  0  0  0  0  0  0  0  0  0  0  0
  145.6654  137.9508  152.0931 H   0  0  0  0  0  0  0  0  0  0  0  0
  147.8703  137.4253  152.8599 H   0  0  0  0  0  0  0  0  0  0  0  0
  1  2  1  0  0  0  0
  1 25  1  0  0  0  0
  1 26  1  0  0  0  0
  1 27  1  0  0  0  0
  2  3  1  0  0  0  0
  2 28  1  0  0  0  0
  2 29  1  0  0  0  0
  3  4  1  0  0  0  0
  3  5  1  0  0  0  0
  3 19  1  0  0  0  0
  4 30  1  0  0  0  0
  4 31  1  0  0  0  0
  4 32  1  0  0  0  0
  5  6  1  0  0  0  0
  5 33  1  0  0  0  0
  5 34  1  0  0  0  0
  6  7  1  0  0  0  0
  6 35  1  0  0  0  0
  7  8  2  0  0  0  0
  7  9  1  0  0  0  0
  9 10  1  0  0  0  0
  9 36  1  0  0  0  0
  9 37  1  0  0  0  0
 10 17  1  0  0  0  0
 10 11  1  0  0  0  0
 11 12  2  0  0  0  0
 11 38  1  0  0  0  0
 12 13  1  0  0  0  0
 12 39  1  0  0  0  0
 13 14  2  0  0  0  0
 13 15  1  0  0  0  0
 15 16  1  0  0  0  0
 15 17  1  0  0  0  0
 16 40  1  0  0  0  0
 16 41  1  0  0  0  0
 16 42  1  0  0  0  0
 17 18  2  0  0  0  0
 19 24  1  0  0  0  0
 19 20  1  0  0  0  0
 19 51  1  0  0  0  0
 20 21  1  0  0  0  0
 20 43  1  0  0  0  0
 20 44  1  0  0  0  0
 21 22  1  0  0  0  0
 21 45  1  0  0  0  0
 21 46  1  0  0  0  0
 22 23  1  0  0  0  0
 23 24  1  0  0  0  0
 23 47  1  0  0  0  0
 23 48  1  0  0  0  0
 24 49  1  0  0  0  0
 24 50  1  0  0  0  0
M  CHG  1  19   1
M  END
> <s_m_source_file>
AV-unprocessed.smi

> <i_m_source_file_index>
1985

> <i_lp_mmshare_version>
43012

> <i_f3d_flags>
0

> <s_epik_input>
W0NIMl0xW0NIMl1PW0NIMl1bQ0gyXU4xW0NAQF0oW0NIM10pKFtDSDJdW0NIM10pW0NIMl1bTkhdQyg9TylbQ0gyXW4yW2NIXVtjSF1jKD1PKW4oW0NIM10pYzI9Tw==

> <s_epik_cmdline>
J2VwaWtfcHl0aG9uJywgJy1waCcsICc3LjAnLCAnLXRuJywgJzgnLCAnLW1hJywgJzIwMCcsICctbWV0YWxfYmluZGluZycsICctaW1hZScsICc8aW5maWxlLm1hZT4nLCAnLW9tYWUnLCAnPG91dGZpbGUubWFlPic=

> <r_lp_tautomer_probability>
1

> <r_epik_Ionization_Penalty>
0.519658

> <r_epik_Ionization_Penalty_Charging>
0.519658

> <r_epik_Ionization_Penalty_Neutral>
8.70177e-08

> <r_epik_State_Penalty>
0.527569

> <r_epik_Charging_Adjusted_Penalty>
1.04723

> <i_epik_Tot_Q>
1

> <i_epik_Tot_abs_Q>
1

> <r_epik_Metal_State_Penalty>
0.527613

> <b_epik_Metal_Only>
0

> <s_lp_Force_Field>
OPLS_2005

> <r_lp_Energy>
36.0852

> <b_lp_Chiralities_Consistent>
1

> <s_lp_Variant>
AV-unprocessed.smi:1985-3

> <Gold.Version>
5.8.1

> <Gold.Id.Protein>
6NUR|6NUR_protein|mol2

> <Gold.PLP.Fitness>
43.2708

> <Gold.PLP.PLP>
-35.4786

> <Gold.PLP.part.hbond>
-1.8697

> <Gold.PLP.part.metal>
0.0000

> <Gold.PLP.part.buried>
3.6378

> <Gold.PLP.part.nonpolar>
-37.2623

> <Gold.PLP.part.repulsive>
0.1597

> <Gold.PLP.ligand.clash>
0.0000

> <Gold.PLP.ligand.torsion>
0.9604

> <Gold.PLP.Chemscore.Hbond>
3.0000

> <Gold.PLP.Chemscore.CHOScore>
0.0840

> <Gold.PLP.Chemscore.Metal>
0.0000

> <Gold.Chemscore.Hbonds>
donor molecule, donor type, donor heavy atom, donor atom, acceptor molecule, acceptor atom, score
      L1  H    19    51       P1  7948  2.00
      P1  H  7989  7998       L1     8  0.73
      L1  C    11    38       P1  8028  0.18

> <Gold.PLP.Chemscore.Internal.Correction>
0.4611

> <Gold.Rescore>
     Score         DG    S(hbond)    S(metal)    S(lipo)     H(rot)  DE(clash)    DE(int)     intcor
     11.86     -14.98       1.97        0.00      74.56       2.27       1.94       1.18       ----

> <Gold.Chemscore.Fitness>
11.8553

> <Gold.Chemscore.DG>
-14.9807

> <Gold.Chemscore.ZeroCoef>
-5.4800

> <Gold.Chemscore.Hbond>
1.9743

> <Gold.Chemscore.Metal>
0.0000

> <Gold.Chemscore.Lipo>
74.5628

> <Gold.Chemscore.Internal_Hbond>
0.0000

> <Gold.Chemscore.DEClash>
1.9414

> <Gold.Chemscore.DEInternal>
1.1839

> <Gold.Chemscore.Rot>
2.2724

> <Gold.Chemscore.Internal.Correction>
   9.000000E+99

> <Gold.Chemscore.Hbonds>
donor molecule, donor type, donor heavy atom, donor atom, acceptor molecule, acceptor atom, score
      L1  H    19    51       P1  7948  1.00
      P1  H  7989  7998       L1     8  0.71

> <Gold.Chemscore.Hbond.Weighted>
-6.5942

> <Gold.Chemscore.Metal.Weighted>
-0.0000

> <Gold.Chemscore.Lipo.Weighted>
-8.7238

> <Gold.Chemscore.Internal_Hbond.Weighted>
0.0000

> <Gold.Chemscore.DEClash.Weighted>
1.9414

> <Gold.Chemscore.DEInternal.Weighted>
1.1839

> <Gold.Chemscore.Rot.Weighted>
5.8174

> <Gold.Chemscore.Internal.Correction.Weighted>
   9.000000E+99

> <Gold.Protein.RotatedTorsions>
[ 6907 6896 6895 6894 ] final  171.59 input  -60.11 | X-H torsion
[ 7974 7965 7964 7962 ] final  165.28 input  175.53 | X-H torsion
[ 8008 7997 7996 7995 ] final -131.83 input   59.86 | X-H torsion
[ 10167 10162 10161 10158 ] final -166.91 input  -65.29 | X-H torsion
[ 10718 10713 10712 10709 ] final  150.22 input   66.30 | X-H torsion
[ 10763 10752 10751 10750 ] final  111.58 input  -60.55 | X-H torsion
[ 11005 11000 10999 10996 ] final -164.47 input  -57.11 | X-H torsion

> <Gold.Protein.ActiveResidues>
 VAL166  LYS551  ARG553  GLY616  TRP617  ASP618  TYR619  PRO620  LYS621  CYS622 
 ASP623  PHE694  ASN695  SER759  ASP760  ASP761  ALA762  ILE779  LEU786  VAL792 
 PHE793  MET794  SER795  GLU796  ALA797  LYS798  CYS799  TRP800  GLU811  SER814 

> <Gold.Protein.RotatedAtoms>
  151.7979  133.3366  159.3517 H   0  0  0  0  0  0  0  0  0  0  0  0  # atno 6907 bound_to 6896
  150.7369  134.5781  159.5934 H   0  0  0  0  0  0  0  0  0  0  0  0  # atno 6908 bound_to 6896
  152.3164  134.7436  160.0375 H   0  0  0  0  0  0  0  0  0  0  0  0  # atno 6909 bound_to 6896
  144.7509  139.8448  143.6366 H   0  0  0  0  0  0  0  0  0  0  0  0  # atno 7974 bound_to 7965
  155.3188  140.0461  157.3038 H   0  0  0  0  0  0  0  0  0  0  0  0  # atno 8008 bound_to 7997
  154.5392  140.2282  155.8637 H   0  0  0  0  0  0  0  0  0  0  0  0  # atno 8009 bound_to 7997
  156.1864  140.3061  155.9253 H   0  0  0  0  0  0  0  0  0  0  0  0  # atno 8010 bound_to 7997
  139.6084  144.0866  152.1816 H   0  0  0  0  0  0  0  0  0  0  0  0  # atno 10167 bound_to 10162
  157.2862  131.0845  151.1495 H   0  0  0  0  0  0  0  0  0  0  0  0  # atno 10718 bound_to 10713
  153.4654  135.3713  155.2361 H   0  0  0  0  0  0  0  0  0  0  0  0  # atno 10763 bound_to 10752
  154.8757  135.3918  154.3875 H   0  0  0  0  0  0  0  0  0  0  0  0  # atno 10764 bound_to 10752
  153.4455  135.7085  153.6206 H   0  0  0  0  0  0  0  0  0  0  0  0  # atno 10765 bound_to 10752
  140.5865  134.5088  157.5186 H   0  0  0  0  0  0  0  0  0  0  0  0  # atno 11005 bound_to 11000
  146.1457  139.4526  143.0080 LP  0  0  0  0  0  0  0  0  0  0  0  0  # atno 17320 bound_to 7965
  145.6948  141.0153  143.1536 LP  0  0  0  0  0  0  0  0  0  0  0  0  # atno 17321 bound_to 7965
  140.0479  144.5956  150.7359 LP  0  0  0  0  0  0  0  0  0  0  0  0  # atno 17342 bound_to 10162
  140.7301  143.2680  151.3982 LP  0  0  0  0  0  0  0  0  0  0  0  0  # atno 17343 bound_to 10162
  157.2909  130.6796  149.6114 LP  0  0  0  0  0  0  0  0  0  0  0  0  # atno 17370 bound_to 10713
  155.9665  130.4421  150.5367 LP  0  0  0  0  0  0  0  0  0  0  0  0  # atno 17371 bound_to 10713
  139.9293  134.7994  156.0977 LP  0  0  0  0  0  0  0  0  0  0  0  0  # atno 17394 bound_to 11000
  141.0962  133.6694  156.2651 LP  0  0  0  0  0  0  0  0  0  0  0  0  # atno 17395 bound_to 11000

$$$$
