AV-unprocessed.smi:33|AV-procd|sdf|202|dock7
  -GOLD-   2262015483D 1   1.00000     0.00000
 Structure written by MMmdl.
 67 72  0  0  0  0  0  0  0  0  1 V2000
  153.3875  139.5957  158.3561 O   0  0  0  0  0  0  0  0  0  0  0  0
  152.7675  140.6343  158.5948 C   0  0  0  0  0  0  0  0  0  0  0  0
  151.9362  141.2253  157.7140 O   0  0  0  0  0  0  0  0  0  0  0  0
  151.7612  140.6659  156.4221 C   0  0  0  0  0  0  0  0  0  0  0  0
  150.2657  140.5102  156.1242 C   0  0  1  0  0  0  0  0  0  0  0  0
  149.6275  141.7778  156.1632 O   0  0  0  0  0  0  0  0  0  0  0  0
  148.4098  141.6944  155.4900 C   0  0  2  0  0  0  0  0  0  0  0  0
  147.3546  141.3600  156.5056 N   0  0  0  0  0  0  0  0  0  0  0  0
  147.3304  140.3703  157.4697 C   0  0  0  0  0  0  0  0  0  0  0  0
  146.2720  140.3565  158.2342 N   0  0  0  0  0  0  0  0  0  0  0  0
  145.5200  141.4324  157.7838 C   0  0  0  0  0  0  0  0  0  0  0  0
  144.2749  141.9991  158.1678 C   0  0  0  0  0  0  0  0  0  0  0  0
  143.5158  141.4929  159.1674 N   0  0  0  0  0  0  0  0  0  0  0  0
  143.5425  142.1961  160.4593 C   0  0  0  0  0  0  0  0  0  0  0  0
  142.5937  142.0722  161.2363 O   0  0  0  0  0  0  0  0  0  0  0  0
  144.6845  143.1072  160.8126 C   0  0  0  0  0  0  0  0  0  0  0  0
  145.5968  142.7346  161.8242 C   0  0  0  0  0  0  0  0  0  0  0  0
  146.6744  143.5786  162.1557 C   0  0  0  0  0  0  0  0  0  0  0  0
  146.8575  144.7919  161.4655 C   0  0  0  0  0  0  0  0  0  0  0  0
  145.9696  145.1554  160.4351 C   0  0  0  0  0  0  0  0  0  0  0  0
  144.8922  144.3115  160.1024 C   0  0  0  0  0  0  0  0  0  0  0  0
  142.7382  140.2832  158.8633 C   0  0  0  0  0  0  0  0  0  0  0  0
  142.4232  139.5169  159.7758 O   0  0  0  0  0  0  0  0  0  0  0  0
  142.3648  139.9537  157.4461 C   0  0  0  0  0  0  0  0  0  0  0  0
  142.3712  138.6118  157.0066 C   0  0  0  0  0  0  0  0  0  0  0  0
  142.0084  138.2969  155.6828 C   0  0  0  0  0  0  0  0  0  0  0  0
  141.6176  139.3189  154.7968 C   0  0  0  0  0  0  0  0  0  0  0  0
  141.5803  140.6556  155.2373 C   0  0  0  0  0  0  0  0  0  0  0  0
  141.9456  140.9718  156.5601 C   0  0  0  0  0  0  0  0  0  0  0  0
  143.8387  143.0959  157.4960 N   0  0  0  0  0  0  0  0  0  0  0  0
  144.5778  143.6040  156.5052 C   0  0  0  0  0  0  0  0  0  0  0  0
  145.7527  143.1768  156.0354 N   0  0  0  0  0  0  0  0  0  0  0  0
  146.1932  142.0748  156.7095 C   0  0  0  0  0  0  0  0  0  0  0  0
  148.5562  140.5850  154.4289 C   0  0  1  0  0  0  0  0  0  0  0  0
  148.4818  141.0916  153.1120 O   0  0  0  0  0  0  0  0  0  0  0  0
  149.9479  140.0241  154.7094 C   0  0  2  0  0  0  0  0  0  0  0  0
  149.9611  138.6930  154.6318 F   0  0  0  0  0  0  0  0  0  0  0  0
  152.8635  141.3697  159.8888 C   0  0  0  0  0  0  0  0  0  0  0  0
  153.6641  140.8401  160.9278 C   0  0  0  0  0  0  0  0  0  0  0  0
  153.7777  141.5124  162.1602 C   0  0  0  0  0  0  0  0  0  0  0  0
  153.0912  142.7225  162.3690 C   0  0  0  0  0  0  0  0  0  0  0  0
  152.2903  143.2593  161.3440 C   0  0  0  0  0  0  0  0  0  0  0  0
  152.1759  142.5886  160.1103 C   0  0  0  0  0  0  0  0  0  0  0  0
  152.2142  141.3276  155.6825 H   0  0  0  0  0  0  0  0  0  0  0  0
  152.2678  139.7023  156.3528 H   0  0  0  0  0  0  0  0  0  0  0  0
  149.8031  139.8624  156.8697 H   0  0  0  0  0  0  0  0  0  0  0  0
  148.1142  142.6614  155.0810 H   0  0  0  0  0  0  0  0  0  0  0  0
  148.1234  139.6481  157.5968 H   0  0  0  0  0  0  0  0  0  0  0  0
  145.4654  141.8064  162.3617 H   0  0  0  0  0  0  0  0  0  0  0  0
  147.3608  143.2945  162.9398 H   0  0  0  0  0  0  0  0  0  0  0  0
  147.6828  145.4397  161.7217 H   0  0  0  0  0  0  0  0  0  0  0  0
  146.1147  146.0817  159.8991 H   0  0  0  0  0  0  0  0  0  0  0  0
  144.2195  144.5997  159.3075 H   0  0  0  0  0  0  0  0  0  0  0  0
  142.6698  137.8199  157.6784 H   0  0  0  0  0  0  0  0  0  0  0  0
  142.0293  137.2704  155.3474 H   0  0  0  0  0  0  0  0  0  0  0  0
  141.3389  139.0763  153.7819 H   0  0  0  0  0  0  0  0  0  0  0  0
  141.2704  141.4388  154.5615 H   0  0  0  0  0  0  0  0  0  0  0  0
  141.9089  142.0004  156.8893 H   0  0  0  0  0  0  0  0  0  0  0  0
  144.1699  144.4780  156.0192 H   0  0  0  0  0  0  0  0  0  0  0  0
  147.7811  139.8282  154.5474 H   0  0  0  0  0  0  0  0  0  0  0  0
  148.7038  140.3974  152.5101 H   0  0  0  0  0  0  0  0  0  0  0  0
  150.6814  140.4105  153.9995 H   0  0  0  0  0  0  0  0  0  0  0  0
  154.2015  139.9127  160.7910 H   0  0  0  0  0  0  0  0  0  0  0  0
  154.3928  141.0982  162.9456 H   0  0  0  0  0  0  0  0  0  0  0  0
  153.1788  143.2379  163.3141 H   0  0  0  0  0  0  0  0  0  0  0  0
  151.7621  144.1878  161.5039 H   0  0  0  0  0  0  0  0  0  0  0  0
  151.5525  143.0278  159.3450 H   0  0  0  0  0  0  0  0  0  0  0  0
  1  2  2  0  0  0  0
  2  3  1  0  0  0  0
  2 38  1  0  0  0  0
  3  4  1  0  0  0  0
  4  5  1  0  0  0  0
  4 44  1  0  0  0  0
  4 45  1  0  0  0  0
  5 36  1  0  0  0  0
  5  6  1  0  0  0  0
  5 46  1  0  0  0  0
  6  7  1  0  0  0  0
  7  8  1  0  0  0  0
  7 34  1  0  0  0  0
  7 47  1  0  0  0  0
  8 33  1  0  0  0  0
  8  9  1  0  0  0  0
  9 10  2  0  0  0  0
  9 48  1  0  0  0  0
 10 11  1  0  0  0  0
 11 33  2  0  0  0  0
 11 12  1  0  0  0  0
 12 13  1  0  0  0  0
 12 30  2  0  0  0  0
 13 14  1  0  0  0  0
 13 22  1  0  0  0  0
 14 15  2  0  0  0  0
 14 16  1  0  0  0  0
 16 21  1  0  0  0  0
 16 17  2  0  0  0  0
 17 18  1  0  0  0  0
 17 49  1  0  0  0  0
 18 19  2  0  0  0  0
 18 50  1  0  0  0  0
 19 20  1  0  0  0  0
 19 51  1  0  0  0  0
 20 21  2  0  0  0  0
 20 52  1  0  0  0  0
 21 53  1  0  0  0  0
 22 23  2  0  0  0  0
 22 24  1  0  0  0  0
 24 29  1  0  0  0  0
 24 25  2  0  0  0  0
 25 26  1  0  0  0  0
 25 54  1  0  0  0  0
 26 27  2  0  0  0  0
 26 55  1  0  0  0  0
 27 28  1  0  0  0  0
 27 56  1  0  0  0  0
 28 29  2  0  0  0  0
 28 57  1  0  0  0  0
 29 58  1  0  0  0  0
 30 31  1  0  0  0  0
 31 32  2  0  0  0  0
 31 59  1  0  0  0  0
 32 33  1  0  0  0  0
 34 35  1  0  0  0  0
 34 36  1  0  0  0  0
 34 60  1  0  0  0  0
 35 61  1  0  0  0  0
 36 37  1  0  0  0  0
 36 62  1  0  0  0  0
 38 43  1  0  0  0  0
 38 39  2  0  0  0  0
 39 40  1  0  0  0  0
 39 63  1  0  0  0  0
 40 41  2  0  0  0  0
 40 64  1  0  0  0  0
 41 42  1  0  0  0  0
 41 65  1  0  0  0  0
 42 43  2  0  0  0  0
 42 66  1  0  0  0  0
 43 67  1  0  0  0  0
M  END
> <s_m_source_file>
AV-unprocessed.smi

> <i_m_source_file_index>
33

> <i_lp_mmshare_version>
43012

> <i_f3d_flags>
0

> <s_epik_input>
W2NIXTFbY0hdW2NIXVtjSF1bY0hdYzFDKD1PKU9bQ0gyXVtDQEBIXTJPW0NASF0oW0NAQEhdKFtPSF0pW0NAQEhdMkYpbihbY0hdbjMpYyhjMzQpbltjSF1uYzROKEMoPU8pYzVbY0hdW2NIXVtjSF1bY0hdW2NIXTUpQyg9TyljNltjSF1bY0hdW2NIXVtjSF1bY0hdNg==

> <s_epik_cmdline>
J2VwaWtfcHl0aG9uJywgJy1waCcsICc3LjAnLCAnLXRuJywgJzgnLCAnLW1hJywgJzIwMCcsICctbWV0YWxfYmluZGluZycsICctaW1hZScsICc8aW5maWxlLm1hZT4nLCAnLW9tYWUnLCAnPG91dGZpbGUubWFlPic=

> <r_lp_tautomer_probability>
1

> <r_epik_Ionization_Penalty>
0.00067664

> <r_epik_Ionization_Penalty_Charging>
0

> <r_epik_Ionization_Penalty_Neutral>
0.00067664

> <r_epik_State_Penalty>
0.000428095

> <r_epik_Charging_Adjusted_Penalty>
0.000428095

> <i_epik_Tot_Q>
0

> <i_epik_Tot_abs_Q>
0

> <r_epik_Metal_State_Penalty>
-0

> <b_epik_Metal_Only>
0

> <s_epik_Chemistry_Notes>
This compound has an ester and may undergo hydrolysis at high or low pH. This compound contains an acetal/aminal-like group ( X-CH(R)-Y where X, Y are N, S, or O) that may be acid/base labile, releasing an aldehyde.

> <s_lp_Force_Field>
OPLS_2005

> <r_lp_Energy>
69.1038

> <b_lp_Chiralities_Consistent>
1

> <s_lp_Variant>
AV-unprocessed.smi:33-4

> <Gold.Version>
5.8.1

> <Gold.Id.Protein>
6NUR|6NUR_protein|mol2

> <Gold.PLP.Fitness>
61.7374

> <Gold.PLP.PLP>
-58.4875

> <Gold.PLP.part.hbond>
-3.5062

> <Gold.PLP.part.metal>
0.0000

> <Gold.PLP.part.buried>
-6.7815

> <Gold.PLP.part.nonpolar>
-46.0555

> <Gold.PLP.part.repulsive>
0.9475

> <Gold.PLP.ligand.clash>
0.0000

> <Gold.PLP.ligand.torsion>
4.2586

> <Gold.PLP.Chemscore.Hbond>
2.6785

> <Gold.PLP.Chemscore.CHOScore>
0.0000

> <Gold.PLP.Chemscore.Metal>
0.0000

> <Gold.Chemscore.Hbonds>
donor molecule, donor type, donor heavy atom, donor atom, acceptor molecule, acceptor atom, score
      L1  H    35    61       P1  7957  0.86
      P1  H  7997  8008       L1     1  1.00
      P1  H  8011  8017       L1    35  0.73

> <Gold.PLP.Chemscore.Internal.Correction>
3.7316

> <Gold.Rescore>
     Score         DG    S(hbond)    S(metal)    S(lipo)     H(rot)  DE(clash)    DE(int)     intcor
     13.36     -19.33       1.67        0.00     126.06       2.52       0.24       5.73       ----

> <Gold.Chemscore.Fitness>
13.3606

> <Gold.Chemscore.DG>
-19.3293

> <Gold.Chemscore.ZeroCoef>
-5.4800

> <Gold.Chemscore.Hbond>
1.6658

> <Gold.Chemscore.Metal>
0.0000

> <Gold.Chemscore.Lipo>
126.0589

> <Gold.Chemscore.Internal_Hbond>
0.0000

> <Gold.Chemscore.DEClash>
0.2414

> <Gold.Chemscore.DEInternal>
5.7273

> <Gold.Chemscore.Rot>
2.5247

> <Gold.Chemscore.Internal.Correction>
   9.000000E+99

> <Gold.Chemscore.Hbonds>
donor molecule, donor type, donor heavy atom, donor atom, acceptor molecule, acceptor atom, score
      L1  H    35    61       P1  7957  0.85
      P1  H  7997  8008       L1     1  0.60
      P1  H  8011  8017       L1    35  0.08

> <Gold.Chemscore.Hbond.Weighted>
-5.5637

> <Gold.Chemscore.Metal.Weighted>
-0.0000

> <Gold.Chemscore.Lipo.Weighted>
-14.7489

> <Gold.Chemscore.Internal_Hbond.Weighted>
0.0000

> <Gold.Chemscore.DEClash.Weighted>
0.2414

> <Gold.Chemscore.DEInternal.Weighted>
5.7273

> <Gold.Chemscore.Rot.Weighted>
6.4633

> <Gold.Chemscore.Internal.Correction.Weighted>
   9.000000E+99

> <Gold.Protein.RotatedTorsions>
[ 6907 6896 6895 6894 ] final  130.70 input  -60.11 | X-H torsion
[ 7974 7965 7964 7962 ] final   60.07 input  175.53 | X-H torsion
[ 8008 7997 7996 7995 ] final  -97.46 input   59.86 | X-H torsion
[ 10167 10162 10161 10158 ] final -168.58 input  -65.29 | X-H torsion
[ 10718 10713 10712 10709 ] final  -51.61 input   66.30 | X-H torsion
[ 10763 10752 10751 10750 ] final    0.09 input  -60.55 | X-H torsion
[ 11005 11000 10999 10996 ] final   -9.77 input  -57.11 | X-H torsion

> <Gold.Protein.ActiveResidues>
 VAL166  LYS551  ARG553  GLY616  TRP617  ASP618  TYR619  PRO620  LYS621  CYS622 
 ASP623  PHE694  ASN695  SER759  ASP760  ASP761  ALA762  ILE779  LEU786  VAL792 
 PHE793  MET794  SER795  GLU796  ALA797  LYS798  CYS799  TRP800  GLU811  SER814 

> <Gold.Protein.RotatedAtoms>
  152.3500  133.6169  159.5937 H   0  0  0  0  0  0  0  0  0  0  0  0  # atno 6907 bound_to 6896
  150.7532  133.9588  159.3518 H   0  0  0  0  0  0  0  0  0  0  0  0  # atno 6908 bound_to 6896
  151.7441  135.0848  160.0371 H   0  0  0  0  0  0  0  0  0  0  0  0  # atno 6909 bound_to 6896
  145.9001  139.3575  143.0597 H   0  0  0  0  0  0  0  0  0  0  0  0  # atno 7974 bound_to 7965
  154.7880  140.0463  157.1179 H   0  0  0  0  0  0  0  0  0  0  0  0  # atno 8008 bound_to 7997
  154.9625  140.3079  155.5004 H   0  0  0  0  0  0  0  0  0  0  0  0  # atno 8009 bound_to 7997
  156.2946  140.2268  156.4712 H   0  0  0  0  0  0  0  0  0  0  0  0  # atno 8010 bound_to 7997
  139.5976  144.1078  152.1707 H   0  0  0  0  0  0  0  0  0  0  0  0  # atno 10167 bound_to 10162
  156.1694  130.4149  149.9670 H   0  0  0  0  0  0  0  0  0  0  0  0  # atno 10718 bound_to 10713
  153.3251  135.6971  153.6996 H   0  0  0  0  0  0  0  0  0  0  0  0  # atno 10763 bound_to 10752
  153.5821  135.3496  155.2879 H   0  0  0  0  0  0  0  0  0  0  0  0  # atno 10764 bound_to 10752
  154.8606  135.4297  154.2425 H   0  0  0  0  0  0  0  0  0  0  0  0  # atno 10765 bound_to 10752
  140.7377  133.8696  155.8943 H   0  0  0  0  0  0  0  0  0  0  0  0  # atno 11005 bound_to 11000
  145.8801  140.9368  143.0605 LP  0  0  0  0  0  0  0  0  0  0  0  0  # atno 17320 bound_to 7965
  144.6735  140.0769  143.7471 LP  0  0  0  0  0  0  0  0  0  0  0  0  # atno 17321 bound_to 7965
  140.0667  144.5812  150.7222 LP  0  0  0  0  0  0  0  0  0  0  0  0  # atno 17342 bound_to 10162
  140.7224  143.2602  151.4233 LP  0  0  0  0  0  0  0  0  0  0  0  0  # atno 17343 bound_to 10162
  156.7474  130.9102  151.3635 LP  0  0  0  0  0  0  0  0  0  0  0  0  # atno 17370 bound_to 10713
  157.6792  130.9123  150.0225 LP  0  0  0  0  0  0  0  0  0  0  0  0  # atno 17371 bound_to 10713
  140.9865  134.1336  157.4448 LP  0  0  0  0  0  0  0  0  0  0  0  0  # atno 17394 bound_to 11000
  139.8812  135.0027  156.6142 LP  0  0  0  0  0  0  0  0  0  0  0  0  # atno 17395 bound_to 11000

$$$$
