AV-unprocessed.smi:1929|AV-procd|sdf|7801|dock3
  -GOLD-   22720 9543D 1   1.00000     0.00000
 Structure written by MMmdl.
 43 44  0  0  0  0  0  0  0  0  2 V2000
  141.2190  140.0164  154.9849 C   0  0  0  0  0  0  0  0  0  0  0  0
  142.3037  140.9578  154.7498 N   0  0  0  0  0  0  0  0  0  0  0  0
  142.5686  142.0133  155.5326 C   0  0  0  0  0  0  0  0  0  0  0  0
  141.9182  142.2853  156.5424 O   0  0  0  0  0  0  0  0  0  0  0  0
  143.7600  142.8839  155.1186 C   0  0  0  0  0  0  0  0  0  0  0  0
  144.9384  142.0888  154.6863 N   0  3  2  0  0  0  0  0  0  0  0  0
  145.5968  141.3654  155.8066 C   0  0  0  0  0  0  0  0  0  0  0  0
  146.7147  140.4441  155.2889 C   0  0  0  0  0  0  0  0  0  0  0  0
  147.7589  141.2152  154.4563 C   0  0  2  0  0  0  0  0  0  0  0  0
  148.5792  142.0985  155.2856 N   0  0  0  0  0  0  0  0  0  0  0  0
  149.4853  141.6933  156.1882 C   0  0  0  0  0  0  0  0  0  0  0  0
  149.7051  140.5086  156.4373 O   0  0  0  0  0  0  0  0  0  0  0  0
  150.0876  142.7422  156.7761 N   0  0  0  0  0  0  0  0  0  0  0  0
  151.1078  142.7517  157.7674 C   0  0  0  0  0  0  0  0  0  0  0  0
  151.7153  143.9895  158.0647 C   0  0  0  0  0  0  0  0  0  0  0  0
  152.7391  144.0303  159.0321 C   0  0  0  0  0  0  0  0  0  0  0  0
  153.1796  142.9389  159.6922 N   0  0  0  0  0  0  0  0  0  0  0  0
  152.6056  141.7529  159.3990 C   0  0  0  0  0  0  0  0  0  0  0  0
  151.5756  141.6018  158.4490 C   0  0  0  0  0  0  0  0  0  0  0  0
  147.0490  142.0180  153.3520 C   0  0  0  0  0  0  0  0  0  0  0  0
  145.9138  142.8966  153.9103 C   0  0  0  0  0  0  0  0  0  0  0  0
  141.2194  139.2480  154.2116 H   0  0  0  0  0  0  0  0  0  0  0  0
  140.2527  140.5220  154.9615 H   0  0  0  0  0  0  0  0  0  0  0  0
  141.3319  139.5254  155.9522 H   0  0  0  0  0  0  0  0  0  0  0  0
  142.8872  140.7946  153.9418 H   0  0  0  0  0  0  0  0  0  0  0  0
  143.4161  143.5093  154.2936 H   0  0  0  0  0  0  0  0  0  0  0  0
  144.0421  143.5600  155.9277 H   0  0  0  0  0  0  0  0  0  0  0  0
  146.0001  142.0840  156.5217 H   0  0  0  0  0  0  0  0  0  0  0  0
  144.8651  140.7642  156.3470 H   0  0  0  0  0  0  0  0  0  0  0  0
  147.1895  139.9275  156.1236 H   0  0  0  0  0  0  0  0  0  0  0  0
  146.2703  139.6640  154.6691 H   0  0  0  0  0  0  0  0  0  0  0  0
  148.4251  140.4961  153.9759 H   0  0  0  0  0  0  0  0  0  0  0  0
  148.4657  143.0916  155.1451 H   0  0  0  0  0  0  0  0  0  0  0  0
  149.7491  143.6537  156.5053 H   0  0  0  0  0  0  0  0  0  0  0  0
  151.4043  144.8960  157.5660 H   0  0  0  0  0  0  0  0  0  0  0  0
  153.2180  144.9657  159.2812 H   0  0  0  0  0  0  0  0  0  0  0  0
  152.9830  140.8944  159.9346 H   0  0  0  0  0  0  0  0  0  0  0  0
  151.1827  140.6152  158.2616 H   0  0  0  0  0  0  0  0  0  0  0  0
  147.7677  142.6330  152.8087 H   0  0  0  0  0  0  0  0  0  0  0  0
  146.6319  141.3247  152.6200 H   0  0  0  0  0  0  0  0  0  0  0  0
  145.4057  143.3890  153.0801 H   0  0  0  0  0  0  0  0  0  0  0  0
  146.3193  143.6866  154.5446 H   0  0  0  0  0  0  0  0  0  0  0  0
  144.5832  141.3870  154.0520 H   0  0  0  0  0  0  0  0  0  0  0  0
  1  2  1  0  0  0  0
  1 22  1  0  0  0  0
  1 23  1  0  0  0  0
  1 24  1  0  0  0  0
  2  3  1  0  0  0  0
  2 25  1  0  0  0  0
  3  4  2  0  0  0  0
  3  5  1  0  0  0  0
  5  6  1  0  0  0  0
  5 26  1  0  0  0  0
  5 27  1  0  0  0  0
  6 21  1  0  0  0  0
  6  7  1  0  0  0  0
  6 43  1  0  0  0  0
  7  8  1  0  0  0  0
  7 28  1  0  0  0  0
  7 29  1  0  0  0  0
  8  9  1  0  0  0  0
  8 30  1  0  0  0  0
  8 31  1  0  0  0  0
  9 10  1  0  0  0  0
  9 20  1  0  0  0  0
  9 32  1  0  0  0  0
 10 11  1  0  0  0  0
 10 33  1  0  0  0  0
 11 12  2  0  0  0  0
 11 13  1  0  0  0  0
 13 14  1  0  0  0  0
 13 34  1  0  0  0  0
 14 19  1  0  0  0  0
 14 15  2  0  0  0  0
 15 16  1  0  0  0  0
 15 35  1  0  0  0  0
 16 17  2  0  0  0  0
 16 36  1  0  0  0  0
 17 18  1  0  0  0  0
 18 19  2  0  0  0  0
 18 37  1  0  0  0  0
 19 38  1  0  0  0  0
 20 21  1  0  0  0  0
 20 39  1  0  0  0  0
 20 40  1  0  0  0  0
 21 41  1  0  0  0  0
 21 42  1  0  0  0  0
M  CHG  1   6   1
M  END
> <s_m_source_file>
AV-unprocessed.smi

> <i_m_source_file_index>
1929

> <i_lp_mmshare_version>
43012

> <i_f3d_flags>
0

> <s_epik_input>
W0NIM11bTkhdQyg9TylbQ0gyXU4xW0NIMl1bQ0gyXVtDSF0oW0NIMl1bQ0gyXTEpW05IXUMoPU8pW05IXWMyW2NIXVtjSF1uW2NIXVtjSF0y

> <s_epik_cmdline>
J2VwaWtfcHl0aG9uJywgJy1waCcsICc3LjAnLCAnLXRuJywgJzgnLCAnLW1hJywgJzIwMCcsICctbWV0YWxfYmluZGluZycsICctaW1hZScsICc8aW5maWxlLm1hZT4nLCAnLW9tYWUnLCAnPG91dGZpbGUubWFlPic=

> <r_epik_Ionization_Penalty>
0.938295

> <r_epik_Ionization_Penalty_Charging>
0.838844

> <r_epik_Ionization_Penalty_Neutral>
0.0994513

> <r_epik_State_Penalty>
0.957722

> <r_epik_Charging_Adjusted_Penalty>
1.79657

> <i_epik_Tot_Q>
1

> <i_epik_Tot_abs_Q>
1

> <r_epik_Metal_State_Penalty>
0.961727

> <b_epik_Metal_Only>
0

> <s_lp_Force_Field>
OPLS_2005

> <r_lp_Energy>
19.6911

> <b_lp_Chiralities_Consistent>
1

> <s_lp_Variant>
AV-unprocessed.smi:1929-3

> <Gold.Version>
5.8.1

> <Gold.Id.Protein>
6NUR|6NUR_protein|mol2

> <Gold.PLP.Fitness>
47.5555

> <Gold.PLP.PLP>
-33.4752

> <Gold.PLP.part.hbond>
-4.3899

> <Gold.PLP.part.metal>
0.0000

> <Gold.PLP.part.buried>
-6.0479

> <Gold.PLP.part.nonpolar>
-24.8238

> <Gold.PLP.part.repulsive>
0.2587

> <Gold.PLP.ligand.clash>
0.0000

> <Gold.PLP.ligand.torsion>
0.4390

> <Gold.PLP.Chemscore.Hbond>
4.9745

> <Gold.PLP.Chemscore.CHOScore>
0.0000

> <Gold.PLP.Chemscore.Metal>
0.0000

> <Gold.Chemscore.Hbonds>
donor molecule, donor type, donor heavy atom, donor atom, acceptor molecule, acceptor atom, score
      L1  H     2    25       P1 10175  1.00
      L1  H     6    43       P1 10175  2.00
      L1  H    10    33       P1  8028  0.98
      L1  H    13    34       P1  8028  1.00

> <Gold.PLP.Chemscore.Internal.Correction>
0.0348

> <Gold.Rescore>
     Score         DG    S(hbond)    S(metal)    S(lipo)     H(rot)  DE(clash)    DE(int)     intcor
     20.32     -22.46       3.56        0.00      80.46       1.69       0.36       1.77       ----

> <Gold.Chemscore.Fitness>
20.3229

> <Gold.Chemscore.DG>
-22.4568

> <Gold.Chemscore.ZeroCoef>
-5.4800

> <Gold.Chemscore.Hbond>
3.5576

> <Gold.Chemscore.Metal>
0.0000

> <Gold.Chemscore.Lipo>
80.4601

> <Gold.Chemscore.Internal_Hbond>
0.0000

> <Gold.Chemscore.DEClash>
0.3638

> <Gold.Chemscore.DEInternal>
1.7701

> <Gold.Chemscore.Rot>
1.6873

> <Gold.Chemscore.Internal.Correction>
   9.000000E+99

> <Gold.Chemscore.Hbonds>
donor molecule, donor type, donor heavy atom, donor atom, acceptor molecule, acceptor atom, score
      L1  H     2    25       P1 10175  0.55
      L1  H     6    43       P1 10175  0.38
      L1  H    10    33       P1  8028  0.93
      L1  H    13    34       P1  8028  0.98

> <Gold.Chemscore.Hbond.Weighted>
-11.8824

> <Gold.Chemscore.Metal.Weighted>
-0.0000

> <Gold.Chemscore.Lipo.Weighted>
-9.4138

> <Gold.Chemscore.Internal_Hbond.Weighted>
0.0000

> <Gold.Chemscore.DEClash.Weighted>
0.3638

> <Gold.Chemscore.DEInternal.Weighted>
1.7701

> <Gold.Chemscore.Rot.Weighted>
4.3194

> <Gold.Chemscore.Internal.Correction.Weighted>
   9.000000E+99

> <Gold.Protein.RotatedTorsions>
[ 6907 6896 6895 6894 ] final  -28.67 input  -60.11 | X-H torsion
[ 7974 7965 7964 7962 ] final   42.32 input  175.53 | X-H torsion
[ 8008 7997 7996 7995 ] final   56.37 input   59.86 | X-H torsion
[ 10167 10162 10161 10158 ] final  -56.86 input  -65.29 | X-H torsion
[ 10718 10713 10712 10709 ] final -171.73 input   66.30 | X-H torsion
[ 10763 10752 10751 10750 ] final  -66.56 input  -60.55 | X-H torsion
[ 11005 11000 10999 10996 ] final    3.81 input  -57.11 | X-H torsion

> <Gold.Protein.ActiveResidues>
 VAL166  LYS551  ARG553  GLY616  TRP617  ASP618  TYR619  PRO620  LYS621  CYS622 
 ASP623  PHE694  ASN695  SER759  ASP760  ASP761  ALA762  ILE779  LEU786  VAL792 
 PHE793  MET794  SER795  GLU796  ALA797  LYS798  CYS799  TRP800  GLU811  SER814 

> <Gold.Protein.RotatedAtoms>
  151.1297  135.0124  159.8576 H   0  0  0  0  0  0  0  0  0  0  0  0  # atno 6907 bound_to 6896
  152.5450  134.1625  159.8573 H   0  0  0  0  0  0  0  0  0  0  0  0  # atno 6908 bound_to 6896
  151.1690  133.4751  159.2627 H   0  0  0  0  0  0  0  0  0  0  0  0  # atno 6909 bound_to 6896
  146.0750  139.5313  142.9573 H   0  0  0  0  0  0  0  0  0  0  0  0  # atno 7974 bound_to 7965
  155.5164  140.3478  155.4398 H   0  0  0  0  0  0  0  0  0  0  0  0  # atno 8008 bound_to 7997
  156.0814  140.1387  156.9734 H   0  0  0  0  0  0  0  0  0  0  0  0  # atno 8009 bound_to 7997
  154.4582  140.0945  156.6794 H   0  0  0  0  0  0  0  0  0  0  0  0  # atno 8010 bound_to 7997
  140.6292  143.2451  151.5285 H   0  0  0  0  0  0  0  0  0  0  0  0  # atno 10167 bound_to 10162
  156.7451  130.9357  151.3112 H   0  0  0  0  0  0  0  0  0  0  0  0  # atno 10718 bound_to 10713
  154.3617  135.6114  153.5694 H   0  0  0  0  0  0  0  0  0  0  0  0  # atno 10763 bound_to 10752
  152.9793  135.5816  154.4625 H   0  0  0  0  0  0  0  0  0  0  0  0  # atno 10764 bound_to 10752
  154.4364  135.2849  155.1855 H   0  0  0  0  0  0  0  0  0  0  0  0  # atno 10765 bound_to 10752
  140.5890  133.9942  155.8080 H   0  0  0  0  0  0  0  0  0  0  0  0  # atno 11005 bound_to 11000
  145.6323  141.0301  143.1857 LP  0  0  0  0  0  0  0  0  0  0  0  0  # atno 17320 bound_to 7965
  144.7255  139.7888  143.7366 LP  0  0  0  0  0  0  0  0  0  0  0  0  # atno 17321 bound_to 7965
  139.5508  144.2400  152.1527 LP  0  0  0  0  0  0  0  0  0  0  0  0  # atno 17342 bound_to 10162
  140.1640  144.4999  150.6617 LP  0  0  0  0  0  0  0  0  0  0  0  0  # atno 17343 bound_to 10162
  157.6801  130.9132  150.0247 LP  0  0  0  0  0  0  0  0  0  0  0  0  # atno 17370 bound_to 10713
  156.1438  130.3642  149.9541 LP  0  0  0  0  0  0  0  0  0  0  0  0  # atno 17371 bound_to 10713
  141.0947  133.9861  157.3179 LP  0  0  0  0  0  0  0  0  0  0  0  0  # atno 17394 bound_to 11000
  139.9283  135.0201  156.8311 LP  0  0  0  0  0  0  0  0  0  0  0  0  # atno 17395 bound_to 11000

$$$$
