AV-unprocessed.smi:535|AV-procd|sdf|2861|dock5
  -GOLD-   2262023353D 1   1.00000     0.00000
 Structure written by MMmdl.
 45 47  0  0  0  0  0  0  0  0  2 V2000
  150.2126  141.1564  157.2312 C   0  0  0  0  0  0  0  0  0  0  0  0
  150.0640  140.0881  158.1496 O   0  0  0  0  0  0  0  0  0  0  0  0
  151.0701  139.1006  158.0000 C   0  0  0  0  0  0  0  0  0  0  0  0
  152.4472  139.7784  158.0962 C   0  0  0  0  0  0  0  0  0  0  0  0
  153.1635  139.4159  159.3167 N   0  0  0  0  0  0  0  0  0  0  0  0
  153.5684  140.2153  160.3472 C   0  0  0  0  0  0  0  0  0  0  0  0
  153.3645  141.6026  160.3855 N   0  0  0  0  0  0  0  0  0  0  0  0
  153.1231  142.5049  159.2565 C   0  0  0  0  0  0  0  0  0  0  0  0
  151.9068  143.4170  159.4959 C   0  0  0  0  0  0  0  0  0  0  0  0
  152.0975  144.2413  160.7743 C   0  0  0  0  0  0  0  0  0  0  0  0
  152.4449  143.3146  161.9506 C   0  0  2  0  0  0  0  0  0  0  0  0
  152.7248  144.1111  163.2322 C   0  0  0  0  0  0  0  0  0  0  0  0
  153.6387  142.4132  161.5751 C   0  0  0  0  0  0  0  0  0  0  0  0
  154.1548  139.5558  161.3501 N   0  0  0  0  0  0  0  0  0  0  0  0
  154.1379  138.2388  160.9243 C   0  0  0  0  0  0  0  0  0  0  0  0
  153.5371  138.1250  159.7108 C   0  0  0  0  0  0  0  0  0  0  0  0
  153.3365  136.8333  159.0144 C   0  0  0  0  0  0  0  0  0  0  0  0
  152.7619  136.7772  157.9293 O   0  0  0  0  0  0  0  0  0  0  0  0
  153.8513  135.7777  159.7211 N   0  5  0  0  0  0  0  0  0  0  0  0
  154.4749  135.8510  160.9477 C   0  0  0  0  0  0  0  0  0  0  0  0
  154.9097  134.8490  161.5170 O   0  0  0  0  0  0  0  0  0  0  0  0
  154.6223  137.0654  161.5643 N   0  0  0  0  0  0  0  0  0  0  0  0
  155.2767  137.1735  162.8713 C   0  0  0  0  0  0  0  0  0  0  0  0
  149.4225  141.8898  157.3913 H   0  0  0  0  0  0  0  0  0  0  0  0
  150.1409  140.8034  156.2016 H   0  0  0  0  0  0  0  0  0  0  0  0
  151.1711  141.6600  157.3630 H   0  0  0  0  0  0  0  0  0  0  0  0
  150.9611  138.3403  158.7734 H   0  0  0  0  0  0  0  0  0  0  0  0
  150.9508  138.5934  157.0426 H   0  0  0  0  0  0  0  0  0  0  0  0
  153.0567  139.5370  157.2295 H   0  0  0  0  0  0  0  0  0  0  0  0
  152.3373  140.8619  158.0618 H   0  0  0  0  0  0  0  0  0  0  0  0
  154.0135  143.1165  159.1051 H   0  0  0  0  0  0  0  0  0  0  0  0
  152.9971  141.9484  158.3331 H   0  0  0  0  0  0  0  0  0  0  0  0
  151.7644  144.0806  158.6427 H   0  0  0  0  0  0  0  0  0  0  0  0
  150.9989  142.8196  159.5787 H   0  0  0  0  0  0  0  0  0  0  0  0
  152.8998  144.9648  160.6234 H   0  0  0  0  0  0  0  0  0  0  0  0
  151.1950  144.8141  160.9906 H   0  0  0  0  0  0  0  0  0  0  0  0
  151.5845  142.6715  162.1429 H   0  0  0  0  0  0  0  0  0  0  0  0
  153.5834  144.7718  163.1087 H   0  0  0  0  0  0  0  0  0  0  0  0
  152.9349  143.4450  164.0696 H   0  0  0  0  0  0  0  0  0  0  0  0
  151.8674  144.7258  163.5073 H   0  0  0  0  0  0  0  0  0  0  0  0
  153.8689  141.7614  162.4184 H   0  0  0  0  0  0  0  0  0  0  0  0
  154.5317  143.0154  161.4014 H   0  0  0  0  0  0  0  0  0  0  0  0
  156.2954  136.7870  162.8219 H   0  0  0  0  0  0  0  0  0  0  0  0
  154.7298  136.5997  163.6207 H   0  0  0  0  0  0  0  0  0  0  0  0
  155.3376  138.2011  163.2285 H   0  0  0  0  0  0  0  0  0  0  0  0
  1  2  1  0  0  0  0
  1 24  1  0  0  0  0
  1 25  1  0  0  0  0
  1 26  1  0  0  0  0
  2  3  1  0  0  0  0
  3  4  1  0  0  0  0
  3 27  1  0  0  0  0
  3 28  1  0  0  0  0
  4  5  1  0  0  0  0
  4 29  1  0  0  0  0
  4 30  1  0  0  0  0
  5 16  1  0  0  0  0
  5  6  1  0  0  0  0
  6  7  1  0  0  0  0
  6 14  2  0  0  0  0
  7 13  1  0  0  0  0
  7  8  1  0  0  0  0
  8  9  1  0  0  0  0
  8 31  1  0  0  0  0
  8 32  1  0  0  0  0
  9 10  1  0  0  0  0
  9 33  1  0  0  0  0
  9 34  1  0  0  0  0
 10 11  1  0  0  0  0
 10 35  1  0  0  0  0
 10 36  1  0  0  0  0
 11 12  1  0  0  0  0
 11 13  1  0  0  0  0
 11 37  1  0  0  0  0
 12 38  1  0  0  0  0
 12 39  1  0  0  0  0
 12 40  1  0  0  0  0
 13 41  1  0  0  0  0
 13 42  1  0  0  0  0
 14 15  1  0  0  0  0
 15 22  1  0  0  0  0
 15 16  2  0  0  0  0
 16 17  1  0  0  0  0
 17 18  2  0  0  0  0
 17 19  1  0  0  0  0
 19 20  1  0  0  0  0
 20 21  2  0  0  0  0
 20 22  1  0  0  0  0
 22 23  1  0  0  0  0
 23 43  1  0  0  0  0
 23 44  1  0  0  0  0
 23 45  1  0  0  0  0
M  CHG  1  19  -1
M  END
> <s_m_source_file>
AV-unprocessed.smi

> <i_m_source_file_index>
535

> <i_lp_mmshare_version>
43012

> <i_f3d_flags>
0

> <s_epik_input>
W0NIM11uMWMoPU8pW25IXWMoPU8pYyhjMTIpbihbQ0gyXVtDSDJdT1tDSDNdKWMobjIpTjNbQ0gyXVtDSDJdW0NIMl1bQ0BASF0oW0NIM10pW0NIMl0z

> <s_epik_cmdline>
J2VwaWtfcHl0aG9uJywgJy1waCcsICc3LjAnLCAnLXRuJywgJzgnLCAnLW1hJywgJzIwMCcsICctbWV0YWxfYmluZGluZycsICctaW1hZScsICc8aW5maWxlLm1hZT4nLCAnLW9tYWUnLCAnPG91dGZpbGUubWFlPic=

> <r_lp_tautomer_probability>
1

> <r_epik_Ionization_Penalty>
5.11375

> <r_epik_Ionization_Penalty_Charging>
0.0788329

> <r_epik_Ionization_Penalty_Neutral>
5.03492

> <r_epik_State_Penalty>
5.02848

> <r_epik_Charging_Adjusted_Penalty>
5.10731

> <i_epik_Tot_Q>
-1

> <i_epik_Tot_abs_Q>
1

> <r_epik_Metal_State_Penalty>
1.14014

> <b_epik_Metal_Only>
1

> <s_lp_Force_Field>
OPLS_2005

> <r_lp_Energy>
42.0611

> <b_lp_Chiralities_Consistent>
1

> <s_lp_Variant>
AV-unprocessed.smi:535-4

> <Gold.Version>
5.8.1

> <Gold.Id.Protein>
6NUR|6NUR_protein|mol2

> <Gold.PLP.Fitness>
45.1786

> <Gold.PLP.PLP>
-40.0238

> <Gold.PLP.part.hbond>
-1.0000

> <Gold.PLP.part.metal>
0.0000

> <Gold.PLP.part.buried>
-2.1633

> <Gold.PLP.part.nonpolar>
-35.5819

> <Gold.PLP.part.repulsive>
0.0000

> <Gold.PLP.ligand.clash>
0.0000

> <Gold.PLP.ligand.torsion>
0.4756

> <Gold.PLP.Chemscore.Hbond>
2.0000

> <Gold.PLP.Chemscore.CHOScore>
0.0000

> <Gold.PLP.Chemscore.Metal>
0.0000

> <Gold.Chemscore.Hbonds>
donor molecule, donor type, donor heavy atom, donor atom, acceptor molecule, acceptor atom, score
      P1  H  6896  6907       L1    19  2.00

> <Gold.PLP.Chemscore.Internal.Correction>
0.1060

> <Gold.Rescore>
     Score         DG    S(hbond)    S(metal)    S(lipo)     H(rot)  DE(clash)    DE(int)     intcor
     11.51     -14.87       0.48        0.00      97.96       1.44       0.74       2.62       ----

> <Gold.Chemscore.Fitness>
11.5146

> <Gold.Chemscore.DG>
-14.8664

> <Gold.Chemscore.ZeroCoef>
-5.4800

> <Gold.Chemscore.Hbond>
0.4805

> <Gold.Chemscore.Metal>
0.0000

> <Gold.Chemscore.Lipo>
97.9562

> <Gold.Chemscore.Internal_Hbond>
0.0000

> <Gold.Chemscore.DEClash>
0.7354

> <Gold.Chemscore.DEInternal>
2.6163

> <Gold.Chemscore.Rot>
1.4372

> <Gold.Chemscore.Internal.Correction>
   9.000000E+99

> <Gold.Chemscore.Hbonds>
donor molecule, donor type, donor heavy atom, donor atom, acceptor molecule, acceptor atom, score
      P1  H  6896  6907       L1    19  0.29

> <Gold.Chemscore.Hbond.Weighted>
-1.6049

> <Gold.Chemscore.Metal.Weighted>
-0.0000

> <Gold.Chemscore.Lipo.Weighted>
-11.4609

> <Gold.Chemscore.Internal_Hbond.Weighted>
0.0000

> <Gold.Chemscore.DEClash.Weighted>
0.7354

> <Gold.Chemscore.DEInternal.Weighted>
2.6163

> <Gold.Chemscore.Rot.Weighted>
3.6793

> <Gold.Chemscore.Internal.Correction.Weighted>
   9.000000E+99

> <Gold.Protein.RotatedTorsions>
[ 6907 6896 6895 6894 ] final   70.35 input  -60.11 | X-H torsion
[ 7974 7965 7964 7962 ] final  -63.68 input  175.53 | X-H torsion
[ 8008 7997 7996 7995 ] final  -45.17 input   59.86 | X-H torsion
[ 10167 10162 10161 10158 ] final -129.35 input  -65.29 | X-H torsion
[ 10718 10713 10712 10709 ] final  -81.40 input   66.30 | X-H torsion
[ 10763 10752 10751 10750 ] final  -92.58 input  -60.55 | X-H torsion
[ 11005 11000 10999 10996 ] final  111.35 input  -57.11 | X-H torsion

> <Gold.Protein.ActiveResidues>
 VAL166  LYS551  ARG553  GLY616  TRP617  ASP618  TYR619  PRO620  LYS621  CYS622 
 ASP623  PHE694  ASN695  SER759  ASP760  ASP761  ALA762  ILE779  LEU786  VAL792 
 PHE793  MET794  SER795  GLU796  ALA797  LYS798  CYS799  TRP800  GLU811  SER814 

> <Gold.Protein.RotatedAtoms>
  152.4744  134.4881  159.9686 H   0  0  0  0  0  0  0  0  0  0  0  0  # atno 6907 bound_to 6896
  151.4900  133.3521  159.2860 H   0  0  0  0  0  0  0  0  0  0  0  0  # atno 6908 bound_to 6896
  150.8773  134.8185  159.7260 H   0  0  0  0  0  0  0  0  0  0  0  0  # atno 6909 bound_to 6896
  145.7761  140.8787  143.0355 H   0  0  0  0  0  0  0  0  0  0  0  0  # atno 7974 bound_to 7965
  154.4000  140.1403  156.3804 H   0  0  0  0  0  0  0  0  0  0  0  0  # atno 8008 bound_to 7997
  155.8009  140.3476  155.5381 H   0  0  0  0  0  0  0  0  0  0  0  0  # atno 8009 bound_to 7997
  155.8484  140.0937  157.1681 H   0  0  0  0  0  0  0  0  0  0  0  0  # atno 8010 bound_to 7997
  139.9407  143.6166  152.2504 H   0  0  0  0  0  0  0  0  0  0  0  0  # atno 10167 bound_to 10162
  156.0051  130.4602  150.3946 H   0  0  0  0  0  0  0  0  0  0  0  0  # atno 10718 bound_to 10713
  154.6875  135.5226  153.8347 H   0  0  0  0  0  0  0  0  0  0  0  0  # atno 10763 bound_to 10752
  153.0608  135.6567  154.0477 H   0  0  0  0  0  0  0  0  0  0  0  0  # atno 10764 bound_to 10752
  154.0355  135.2981  155.3342 H   0  0  0  0  0  0  0  0  0  0  0  0  # atno 10765 bound_to 10752
  139.8902  134.9506  156.6419 H   0  0  0  0  0  0  0  0  0  0  0  0  # atno 11005 bound_to 11000
  144.6804  139.9923  143.7484 LP  0  0  0  0  0  0  0  0  0  0  0  0  # atno 17320 bound_to 7965
  146.0121  139.3179  143.0864 LP  0  0  0  0  0  0  0  0  0  0  0  0  # atno 17321 bound_to 7965
  139.6706  144.7661  151.1789 LP  0  0  0  0  0  0  0  0  0  0  0  0  # atno 17342 bound_to 10162
  140.7611  143.5870  150.8835 LP  0  0  0  0  0  0  0  0  0  0  0  0  # atno 17343 bound_to 10162
  157.2019  131.0440  151.2646 LP  0  0  0  0  0  0  0  0  0  0  0  0  # atno 17370 bound_to 10713
  157.3968  130.7311  149.6737 LP  0  0  0  0  0  0  0  0  0  0  0  0  # atno 17371 bound_to 10713
  140.7587  133.8836  155.8401 LP  0  0  0  0  0  0  0  0  0  0  0  0  # atno 17394 bound_to 11000
  140.9940  134.1240  157.4381 LP  0  0  0  0  0  0  0  0  0  0  0  0  # atno 17395 bound_to 11000

$$$$
