AV-unprocessed.smi:1445|AV-procd|sdf|5887|dock5
  -GOLD-   22720 5563D 1   1.00000     0.00000
 Structure written by MMmdl.
 46 47  0  0  0  0  0  0  0  0  2 V2000
  151.6469  138.1540  154.4346 C   0  0  0  0  0  0  0  0  0  0  0  0
  150.2710  138.1996  154.0712 O   0  0  0  0  0  0  0  0  0  0  0  0
  149.5640  139.3630  154.3093 C   0  0  0  0  0  0  0  0  0  0  0  0
  150.2064  140.3949  154.9118 N   0  0  0  0  0  0  0  0  0  0  0  0
  149.5215  141.5339  155.1394 C   0  0  0  0  0  0  0  0  0  0  0  0
  148.1733  141.7063  154.7777 C   0  0  0  0  0  0  0  0  0  0  0  0
  147.5043  140.6378  154.1528 C   0  0  0  0  0  0  0  0  0  0  0  0
  148.2057  139.4295  153.9173 C   0  0  0  0  0  0  0  0  0  0  0  0
  147.6400  138.2875  153.2823 N   0  0  0  0  0  0  0  0  0  0  0  0
  146.3583  137.8849  153.2379 C   0  0  0  0  0  0  0  0  0  0  0  0
  145.4089  138.4506  153.7792 O   0  0  0  0  0  0  0  0  0  0  0  0
  146.2301  136.7550  152.5276 N   0  0  0  0  0  0  0  0  0  0  0  0
  144.9676  136.0720  152.2698 C   0  0  0  0  0  0  0  0  0  0  0  0
  144.7922  134.8354  153.1733 C   0  0  0  0  0  0  0  0  0  0  0  0
  144.8476  133.5646  152.4080 N   0  3  1  0  0  0  0  0  0  0  0  0
  143.7929  133.4896  151.3644 C   0  0  0  0  0  0  0  0  0  0  0  0
  143.7688  132.1033  150.7014 C   0  0  0  0  0  0  0  0  0  0  0  0
  145.1443  131.7444  150.1209 C   0  0  0  0  0  0  0  0  0  0  0  0
  146.2531  131.8862  151.1801 C   0  0  2  0  0  0  0  0  0  0  0  0
  146.2373  130.7499  152.2179 C   0  0  0  0  0  0  0  0  0  0  0  0
  146.1944  133.2789  151.8415 C   0  0  0  0  0  0  0  0  0  0  0  0
  152.0558  137.1770  154.1784 H   0  0  0  0  0  0  0  0  0  0  0  0
  151.7808  138.2972  155.5077 H   0  0  0  0  0  0  0  0  0  0  0  0
  152.2273  138.9059  153.8979 H   0  0  0  0  0  0  0  0  0  0  0  0
  150.0660  142.3336  155.6192 H   0  0  0  0  0  0  0  0  0  0  0  0
  147.6646  142.6390  154.9712 H   0  0  0  0  0  0  0  0  0  0  0  0
  146.4763  140.7775  153.8596 H   0  0  0  0  0  0  0  0  0  0  0  0
  148.3089  137.6771  152.8357 H   0  0  0  0  0  0  0  0  0  0  0  0
  147.0612  136.3515  152.1197 H   0  0  0  0  0  0  0  0  0  0  0  0
  144.1506  136.7827  152.3968 H   0  0  0  0  0  0  0  0  0  0  0  0
  144.9544  135.7703  151.2220 H   0  0  0  0  0  0  0  0  0  0  0  0
  145.5934  134.8463  153.9138 H   0  0  0  0  0  0  0  0  0  0  0  0
  143.8569  134.8812  153.7332 H   0  0  0  0  0  0  0  0  0  0  0  0
  142.8166  133.6875  151.8085 H   0  0  0  0  0  0  0  0  0  0  0  0
  143.9638  134.2647  150.6154 H   0  0  0  0  0  0  0  0  0  0  0  0
  143.4641  131.3524  151.4308 H   0  0  0  0  0  0  0  0  0  0  0  0
  143.0174  132.0830  149.9114 H   0  0  0  0  0  0  0  0  0  0  0  0
  145.1315  130.7341  149.7104 H   0  0  0  0  0  0  0  0  0  0  0  0
  145.3612  132.4102  149.2843 H   0  0  0  0  0  0  0  0  0  0  0  0
  147.2089  131.8118  150.6595 H   0  0  0  0  0  0  0  0  0  0  0  0
  145.3224  130.7503  152.8102 H   0  0  0  0  0  0  0  0  0  0  0  0
  147.0759  130.8412  152.9090 H   0  0  0  0  0  0  0  0  0  0  0  0
  146.3188  129.7763  151.7337 H   0  0  0  0  0  0  0  0  0  0  0  0
  146.4389  134.0463  151.1052 H   0  0  0  0  0  0  0  0  0  0  0  0
  146.9605  133.3403  152.6134 H   0  0  0  0  0  0  0  0  0  0  0  0
  144.6420  132.8269  153.0665 H   0  0  0  0  0  0  0  0  0  0  0  0
  1  2  1  0  0  0  0
  1 22  1  0  0  0  0
  1 23  1  0  0  0  0
  1 24  1  0  0  0  0
  2  3  1  0  0  0  0
  3  8  1  0  0  0  0
  3  4  2  0  0  0  0
  4  5  1  0  0  0  0
  5  6  2  0  0  0  0
  5 25  1  0  0  0  0
  6  7  1  0  0  0  0
  6 26  1  0  0  0  0
  7  8  2  0  0  0  0
  7 27  1  0  0  0  0
  8  9  1  0  0  0  0
  9 10  1  0  0  0  0
  9 28  1  0  0  0  0
 10 11  2  0  0  0  0
 10 12  1  0  0  0  0
 12 13  1  0  0  0  0
 12 29  1  0  0  0  0
 13 14  1  0  0  0  0
 13 30  1  0  0  0  0
 13 31  1  0  0  0  0
 14 15  1  0  0  0  0
 14 32  1  0  0  0  0
 14 33  1  0  0  0  0
 15 21  1  0  0  0  0
 15 16  1  0  0  0  0
 15 46  1  0  0  0  0
 16 17  1  0  0  0  0
 16 34  1  0  0  0  0
 16 35  1  0  0  0  0
 17 18  1  0  0  0  0
 17 36  1  0  0  0  0
 17 37  1  0  0  0  0
 18 19  1  0  0  0  0
 18 38  1  0  0  0  0
 18 39  1  0  0  0  0
 19 20  1  0  0  0  0
 19 21  1  0  0  0  0
 19 40  1  0  0  0  0
 20 41  1  0  0  0  0
 20 42  1  0  0  0  0
 20 43  1  0  0  0  0
 21 44  1  0  0  0  0
 21 45  1  0  0  0  0
M  CHG  1  15   1
M  END
> <s_m_source_file>
AV-unprocessed.smi

> <i_m_source_file_index>
1445

> <i_lp_mmshare_version>
43012

> <i_f3d_flags>
0

> <s_epik_input>
W0NIM11PYzFuW2NIXVtjSF1bY0hdYzFbTkhdQyg9TylbTkhdW0NIMl1bQ0gyXU4yW0NIMl1bQ0gyXVtDSDJdW0NAQEhdKFtDSDNdKVtDSDJdMg==

> <s_epik_cmdline>
J2VwaWtfcHl0aG9uJywgJy1waCcsICc3LjAnLCAnLXRuJywgJzgnLCAnLW1hJywgJzIwMCcsICctbWV0YWxfYmluZGluZycsICctaW1hZScsICc8aW5maWxlLm1hZT4nLCAnLW9tYWUnLCAnPG91dGZpbGUubWFlPic=

> <r_lp_tautomer_probability>
1

> <r_epik_Ionization_Penalty>
0.00179544

> <r_epik_Ionization_Penalty_Charging>
0.00171832

> <r_epik_Ionization_Penalty_Neutral>
7.71118e-05

> <r_epik_State_Penalty>
0.0011618

> <r_epik_Charging_Adjusted_Penalty>
0.00288012

> <i_epik_Tot_Q>
1

> <i_epik_Tot_abs_Q>
1

> <r_epik_Metal_State_Penalty>
-0

> <b_epik_Metal_Only>
0

> <s_lp_Force_Field>
OPLS_2005

> <r_lp_Energy>
21.8859

> <b_lp_Chiralities_Consistent>
1

> <s_lp_Variant>
AV-unprocessed.smi:1445-3

> <Gold.Version>
5.8.1

> <Gold.Id.Protein>
6NUR|6NUR_protein|mol2

> <Gold.PLP.Fitness>
44.7452

> <Gold.PLP.PLP>
-34.8397

> <Gold.PLP.part.hbond>
-3.3124

> <Gold.PLP.part.metal>
0.0000

> <Gold.PLP.part.buried>
-2.8486

> <Gold.PLP.part.nonpolar>
-32.5418

> <Gold.PLP.part.repulsive>
3.0805

> <Gold.PLP.ligand.clash>
0.0000

> <Gold.PLP.ligand.torsion>
0.6474

> <Gold.PLP.Chemscore.Hbond>
2.9600

> <Gold.PLP.Chemscore.CHOScore>
0.7582

> <Gold.PLP.Chemscore.Metal>
0.0000

> <Gold.Chemscore.Hbonds>
donor molecule, donor type, donor heavy atom, donor atom, acceptor molecule, acceptor atom, score
      L1  H     9    28       P1  7948  1.00
      L1  H    12    29       P1  7948  1.00
      P1  H  7989  7998       L1     4  0.93
      L1  C     5    25       P1  8028  0.49

> <Gold.PLP.Chemscore.Internal.Correction>
0.0457

> <Gold.Rescore>
     Score         DG    S(hbond)    S(metal)    S(lipo)     H(rot)  DE(clash)    DE(int)     intcor
     16.74     -18.50       2.06        0.00      89.98       1.71       0.21       1.56       ----

> <Gold.Chemscore.Fitness>
16.7370

> <Gold.Chemscore.DG>
-18.5046

> <Gold.Chemscore.ZeroCoef>
-5.4800

> <Gold.Chemscore.Hbond>
2.0587

> <Gold.Chemscore.Metal>
0.0000

> <Gold.Chemscore.Lipo>
89.9833

> <Gold.Chemscore.Internal_Hbond>
0.0000

> <Gold.Chemscore.DEClash>
0.2121

> <Gold.Chemscore.DEInternal>
1.5555

> <Gold.Chemscore.Rot>
1.7107

> <Gold.Chemscore.Internal.Correction>
   9.000000E+99

> <Gold.Chemscore.Hbonds>
donor molecule, donor type, donor heavy atom, donor atom, acceptor molecule, acceptor atom, score
      L1  H     9    28       P1  7948  1.00
      L1  H    12    29       P1  7948  0.97
      P1  H  7989  7998       L1     4  0.15

> <Gold.Chemscore.Hbond.Weighted>
-6.8759

> <Gold.Chemscore.Metal.Weighted>
-0.0000

> <Gold.Chemscore.Lipo.Weighted>
-10.5280

> <Gold.Chemscore.Internal_Hbond.Weighted>
0.0000

> <Gold.Chemscore.DEClash.Weighted>
0.2121

> <Gold.Chemscore.DEInternal.Weighted>
1.5555

> <Gold.Chemscore.Rot.Weighted>
4.3794

> <Gold.Chemscore.Internal.Correction.Weighted>
   9.000000E+99

> <Gold.Protein.RotatedTorsions>
[ 6907 6896 6895 6894 ] final    9.87 input  -60.11 | X-H torsion
[ 7974 7965 7964 7962 ] final -175.18 input  175.53 | X-H torsion
[ 8008 7997 7996 7995 ] final   85.92 input   59.86 | X-H torsion
[ 10167 10162 10161 10158 ] final   12.73 input  -65.29 | X-H torsion
[ 10718 10713 10712 10709 ] final  114.28 input   66.30 | X-H torsion
[ 10763 10752 10751 10750 ] final -141.90 input  -60.55 | X-H torsion
[ 11005 11000 10999 10996 ] final -122.89 input  -57.11 | X-H torsion

> <Gold.Protein.ActiveResidues>
 VAL166  LYS551  ARG553  GLY616  TRP617  ASP618  TYR619  PRO620  LYS621  CYS622 
 ASP623  PHE694  ASN695  SER759  ASP760  ASP761  ALA762  ILE779  LEU786  VAL792 
 PHE793  MET794  SER795  GLU796  ALA797  LYS798  CYS799  TRP800  GLU811  SER814 

> <Gold.Protein.RotatedAtoms>
  151.7292  135.0878  160.0296 H   0  0  0  0  0  0  0  0  0  0  0  0  # atno 6907 bound_to 6896
  152.3552  133.6224  159.5983 H   0  0  0  0  0  0  0  0  0  0  0  0  # atno 6908 bound_to 6896
  150.7566  133.9427  159.3503 H   0  0  0  0  0  0  0  0  0  0  0  0  # atno 6909 bound_to 6896
  144.7129  140.1359  143.6395 H   0  0  0  0  0  0  0  0  0  0  0  0  # atno 7974 bound_to 7965
  155.9562  140.3397  155.6451 H   0  0  0  0  0  0  0  0  0  0  0  0  # atno 8008 bound_to 7997
  155.6857  140.0743  157.2486 H   0  0  0  0  0  0  0  0  0  0  0  0  # atno 8009 bound_to 7997
  154.4133  140.1666  156.2018 H   0  0  0  0  0  0  0  0  0  0  0  0  # atno 8010 bound_to 7997
  140.6049  143.8529  150.7003 H   0  0  0  0  0  0  0  0  0  0  0  0  # atno 10167 bound_to 10162
  157.6290  131.0996  150.7163 H   0  0  0  0  0  0  0  0  0  0  0  0  # atno 10718 bound_to 10713
  154.8528  135.3511  154.5942 H   0  0  0  0  0  0  0  0  0  0  0  0  # atno 10763 bound_to 10752
  153.6551  135.6992  153.5200 H   0  0  0  0  0  0  0  0  0  0  0  0  # atno 10764 bound_to 10752
  153.2862  135.4248  155.1082 H   0  0  0  0  0  0  0  0  0  0  0  0  # atno 10765 bound_to 10752
  140.9960  134.0470  157.3596 H   0  0  0  0  0  0  0  0  0  0  0  0  # atno 11005 bound_to 11000
  145.9245  139.2566  143.1362 LP  0  0  0  0  0  0  0  0  0  0  0  0  # atno 17320 bound_to 7965
  145.9586  140.8853  143.0222 LP  0  0  0  0  0  0  0  0  0  0  0  0  # atno 17321 bound_to 7965
  140.2083  143.3903  152.1738 LP  0  0  0  0  0  0  0  0  0  0  0  0  # atno 17342 bound_to 10162
  139.5317  144.7167  151.5031 LP  0  0  0  0  0  0  0  0  0  0  0  0  # atno 17343 bound_to 10162
  156.7506  130.4767  149.5457 LP  0  0  0  0  0  0  0  0  0  0  0  0  # atno 17370 bound_to 10713
  156.1481  130.6291  151.0558 LP  0  0  0  0  0  0  0  0  0  0  0  0  # atno 17371 bound_to 10713
  139.9015  135.0166  156.7291 LP  0  0  0  0  0  0  0  0  0  0  0  0  # atno 17394 bound_to 11000
  140.6964  133.9344  155.7997 LP  0  0  0  0  0  0  0  0  0  0  0  0  # atno 17395 bound_to 11000

$$$$
