AV-unprocessed.smi:2516|AV-procd|sdf|9898|dock7
  -GOLD-   2272013533D 1   1.00000     0.00000
 Structure written by MMmdl.
 47 48  0  0  0  0  0  0  0  0  1 V2000
  150.6493  141.9232  157.1819 C   0  0  0  0  0  0  0  0  0  0  0  0
  151.1938  141.1754  155.9595 C   0  0  0  0  0  0  0  0  0  0  0  0
  150.1246  140.5721  155.1810 N   0  0  0  0  0  0  0  0  0  0  0  0
  149.1040  141.3608  154.7652 N   0  0  0  0  0  0  0  0  0  0  0  0
  148.2916  140.5612  154.0949 C   0  0  0  0  0  0  0  0  0  0  0  0
  147.0443  141.1201  153.4731 C   0  0  0  0  0  0  0  0  0  0  0  0
  148.7772  139.2269  154.1048 C   0  0  0  0  0  0  0  0  0  0  0  0
  148.1387  138.1370  153.4622 N   0  0  0  0  0  0  0  0  0  0  0  0
  146.8168  137.9244  153.3724 C   0  0  0  0  0  0  0  0  0  0  0  0
  145.9534  138.6296  153.8946 O   0  0  0  0  0  0  0  0  0  0  0  0
  146.5472  136.8482  152.6198 N   0  0  0  0  0  0  0  0  0  0  0  0
  145.2117  136.3534  152.2876 C   0  0  2  0  0  0  0  0  0  0  0  0
  144.5127  135.9123  153.5868 C   0  0  0  0  0  0  0  0  0  0  0  0
  145.3116  135.2258  151.2270 C   0  0  0  0  0  0  0  0  0  0  0  0
  144.0062  134.4089  151.1121 C   0  0  0  0  0  0  0  0  0  0  0  0
  144.1547  133.2545  150.1081 C   0  0  0  0  0  0  0  0  0  0  0  0
  145.2375  132.4154  150.4894 O   0  0  0  0  0  0  0  0  0  0  0  0
  146.4861  133.0961  150.4851 C   0  0  0  0  0  0  0  0  0  0  0  0
  146.4665  134.2432  151.5085 C   0  0  0  0  0  0  0  0  0  0  0  0
  149.9725  139.2543  154.7740 C   0  0  0  0  0  0  0  0  0  0  0  0
  150.9896  138.1939  155.0650 C   0  0  0  0  0  0  0  0  0  0  0  0
  151.4592  142.3855  157.7460 H   0  0  0  0  0  0  0  0  0  0  0  0
  150.1184  141.2489  157.8544 H   0  0  0  0  0  0  0  0  0  0  0  0
  149.9582  142.7122  156.8836 H   0  0  0  0  0  0  0  0  0  0  0  0
  151.7545  141.8627  155.3239 H   0  0  0  0  0  0  0  0  0  0  0  0
  151.8961  140.4003  156.2650 H   0  0  0  0  0  0  0  0  0  0  0  0
  146.4357  140.3356  153.0235 H   0  0  0  0  0  0  0  0  0  0  0  0
  147.2865  141.8401  152.6911 H   0  0  0  0  0  0  0  0  0  0  0  0
  146.4296  141.6286  154.2164 H   0  0  0  0  0  0  0  0  0  0  0  0
  148.7321  137.5454  152.8990 H   0  0  0  0  0  0  0  0  0  0  0  0
  147.3265  136.3358  152.2336 H   0  0  0  0  0  0  0  0  0  0  0  0
  144.6303  137.1680  151.8516 H   0  0  0  0  0  0  0  0  0  0  0  0
  143.4683  135.6533  153.4167 H   0  0  0  0  0  0  0  0  0  0  0  0
  144.5202  136.7130  154.3274 H   0  0  0  0  0  0  0  0  0  0  0  0
  145.0064  135.0468  154.0300 H   0  0  0  0  0  0  0  0  0  0  0  0
  145.4989  135.6901  150.2571 H   0  0  0  0  0  0  0  0  0  0  0  0
  143.7377  134.0041  152.0890 H   0  0  0  0  0  0  0  0  0  0  0  0
  143.1759  135.0430  150.8008 H   0  0  0  0  0  0  0  0  0  0  0  0
  143.2415  132.6597  150.0851 H   0  0  0  0  0  0  0  0  0  0  0  0
  144.3115  133.6351  149.0976 H   0  0  0  0  0  0  0  0  0  0  0  0
  147.2735  132.3852  150.7361 H   0  0  0  0  0  0  0  0  0  0  0  0
  146.7048  133.4715  149.4841 H   0  0  0  0  0  0  0  0  0  0  0  0
  147.4275  134.7555  151.4767 H   0  0  0  0  0  0  0  0  0  0  0  0
  146.3643  133.8300  152.5127 H   0  0  0  0  0  0  0  0  0  0  0  0
  150.9470  137.3976  154.3223 H   0  0  0  0  0  0  0  0  0  0  0  0
  150.8162  137.7521  156.0462 H   0  0  0  0  0  0  0  0  0  0  0  0
  152.0036  138.5915  155.0470 H   0  0  0  0  0  0  0  0  0  0  0  0
  1  2  1  0  0  0  0
  1 22  1  0  0  0  0
  1 23  1  0  0  0  0
  1 24  1  0  0  0  0
  2  3  1  0  0  0  0
  2 25  1  0  0  0  0
  2 26  1  0  0  0  0
  3 20  1  0  0  0  0
  3  4  1  0  0  0  0
  4  5  2  0  0  0  0
  5  6  1  0  0  0  0
  5  7  1  0  0  0  0
  6 27  1  0  0  0  0
  6 28  1  0  0  0  0
  6 29  1  0  0  0  0
  7  8  1  0  0  0  0
  7 20  2  0  0  0  0
  8  9  1  0  0  0  0
  8 30  1  0  0  0  0
  9 10  2  0  0  0  0
  9 11  1  0  0  0  0
 11 12  1  0  0  0  0
 11 31  1  0  0  0  0
 12 13  1  0  0  0  0
 12 14  1  0  0  0  0
 12 32  1  0  0  0  0
 13 33  1  0  0  0  0
 13 34  1  0  0  0  0
 13 35  1  0  0  0  0
 14 19  1  0  0  0  0
 14 15  1  0  0  0  0
 14 36  1  0  0  0  0
 15 16  1  0  0  0  0
 15 37  1  0  0  0  0
 15 38  1  0  0  0  0
 16 17  1  0  0  0  0
 16 39  1  0  0  0  0
 16 40  1  0  0  0  0
 17 18  1  0  0  0  0
 18 19  1  0  0  0  0
 18 41  1  0  0  0  0
 18 42  1  0  0  0  0
 19 43  1  0  0  0  0
 19 44  1  0  0  0  0
 20 21  1  0  0  0  0
 21 45  1  0  0  0  0
 21 46  1  0  0  0  0
 21 47  1  0  0  0  0
M  END
> <s_m_source_file>
AV-unprocessed.smi

> <i_m_source_file_index>
2516

> <i_lp_mmshare_version>
43012

> <i_f3d_flags>
0

> <s_epik_input>
W0NIM11bQ0gyXW4xbmMoW0NIM10pYyhjMVtDSDNdKVtOSF1DKD1PKVtOSF1bQ0BIXShbQ0gzXSlbQ0hdMltDSDJdW0NIMl1PW0NIMl1bQ0gyXTI=

> <s_epik_cmdline>
J2VwaWtfcHl0aG9uJywgJy1waCcsICc3LjAnLCAnLXRuJywgJzgnLCAnLW1hJywgJzIwMCcsICctbWV0YWxfYmluZGluZycsICctaW1hZScsICc8aW5maWxlLm1hZT4nLCAnLW9tYWUnLCAnPG91dGZpbGUubWFlPic=

> <r_lp_tautomer_probability>
1

> <r_epik_Ionization_Penalty>
0.00383358

> <r_epik_Ionization_Penalty_Charging>
0

> <r_epik_Ionization_Penalty_Neutral>
0.00383358

> <r_epik_State_Penalty>
0.00270714

> <r_epik_Charging_Adjusted_Penalty>
0.00270714

> <i_epik_Tot_Q>
0

> <i_epik_Tot_abs_Q>
0

> <r_epik_Metal_State_Penalty>
-0

> <b_epik_Metal_Only>
0

> <s_lp_Force_Field>
OPLS_2005

> <r_lp_Energy>
15.1794

> <b_lp_Chiralities_Consistent>
1

> <s_lp_Variant>
AV-unprocessed.smi:2516-1

> <Gold.Version>
5.8.1

> <Gold.Id.Protein>
6NUR|6NUR_protein|mol2

> <Gold.PLP.Fitness>
41.3336

> <Gold.PLP.PLP>
-36.2011

> <Gold.PLP.part.hbond>
-2.0498

> <Gold.PLP.part.metal>
0.0000

> <Gold.PLP.part.buried>
-3.5147

> <Gold.PLP.part.nonpolar>
-30.2708

> <Gold.PLP.part.repulsive>
0.4752

> <Gold.PLP.ligand.clash>
0.0000

> <Gold.PLP.ligand.torsion>
0.6346

> <Gold.PLP.Chemscore.Hbond>
2.0000

> <Gold.PLP.Chemscore.CHOScore>
0.0000

> <Gold.PLP.Chemscore.Metal>
0.0000

> <Gold.Chemscore.Hbonds>
donor molecule, donor type, donor heavy atom, donor atom, acceptor molecule, acceptor atom, score
      L1  H     8    30       P1  7948  1.00
      L1  H    11    31       P1  7948  1.00

> <Gold.PLP.Chemscore.Internal.Correction>
0.4018

> <Gold.Rescore>
     Score         DG    S(hbond)    S(metal)    S(lipo)     H(rot)  DE(clash)    DE(int)     intcor
     16.54     -18.41       1.93        0.00      83.89       1.30       0.07       1.80       ----

> <Gold.Chemscore.Fitness>
16.5430

> <Gold.Chemscore.DG>
-18.4133

> <Gold.Chemscore.ZeroCoef>
-5.4800

> <Gold.Chemscore.Hbond>
1.9291

> <Gold.Chemscore.Metal>
0.0000

> <Gold.Chemscore.Lipo>
83.8943

> <Gold.Chemscore.Internal_Hbond>
0.0000

> <Gold.Chemscore.DEClash>
0.0722

> <Gold.Chemscore.DEInternal>
1.7980

> <Gold.Chemscore.Rot>
1.2990

> <Gold.Chemscore.Internal.Correction>
   9.000000E+99

> <Gold.Chemscore.Hbonds>
donor molecule, donor type, donor heavy atom, donor atom, acceptor molecule, acceptor atom, score
      L1  H     8    30       P1  7948  0.96
      L1  H    11    31       P1  7948  0.95

> <Gold.Chemscore.Hbond.Weighted>
-6.4430

> <Gold.Chemscore.Metal.Weighted>
-0.0000

> <Gold.Chemscore.Lipo.Weighted>
-9.8156

> <Gold.Chemscore.Internal_Hbond.Weighted>
0.0000

> <Gold.Chemscore.DEClash.Weighted>
0.0722

> <Gold.Chemscore.DEInternal.Weighted>
1.7980

> <Gold.Chemscore.Rot.Weighted>
3.3254

> <Gold.Chemscore.Internal.Correction.Weighted>
   9.000000E+99

> <Gold.Protein.RotatedTorsions>
[ 6907 6896 6895 6894 ] final -152.69 input  -60.11 | X-H torsion
[ 7974 7965 7964 7962 ] final  128.24 input  175.53 | X-H torsion
[ 8008 7997 7996 7995 ] final   -1.50 input   59.86 | X-H torsion
[ 10167 10162 10161 10158 ] final  156.62 input  -65.29 | X-H torsion
[ 10718 10713 10712 10709 ] final  176.02 input   66.30 | X-H torsion
[ 10763 10752 10751 10750 ] final  -37.29 input  -60.55 | X-H torsion
[ 11005 11000 10999 10996 ] final   13.51 input  -57.11 | X-H torsion

> <Gold.Protein.ActiveResidues>
 VAL166  LYS551  ARG553  GLY616  TRP617  ASP618  TYR619  PRO620  LYS621  CYS622 
 ASP623  PHE694  ASN695  SER759  ASP760  ASP761  ALA762  ILE779  LEU786  VAL792 
 PHE793  MET794  SER795  GLU796  ALA797  LYS798  CYS799  TRP800  GLU811  SER814 

> <Gold.Protein.RotatedAtoms>
  151.2315  133.4448  159.2603 H   0  0  0  0  0  0  0  0  0  0  0  0  # atno 6907 bound_to 6896
  151.0790  134.9846  159.8357 H   0  0  0  0  0  0  0  0  0  0  0  0  # atno 6908 bound_to 6896
  152.5422  134.2255  159.8857 H   0  0  0  0  0  0  0  0  0  0  0  0  # atno 6909 bound_to 6896
  145.0417  139.3957  143.5098 H   0  0  0  0  0  0  0  0  0  0  0  0  # atno 7974 bound_to 7965
  154.6461  140.2558  155.7267 H   0  0  0  0  0  0  0  0  0  0  0  0  # atno 8008 bound_to 7997
  156.2552  140.2877  156.0796 H   0  0  0  0  0  0  0  0  0  0  0  0  # atno 8009 bound_to 7997
  155.1522  140.0382  157.2814 H   0  0  0  0  0  0  0  0  0  0  0  0  # atno 8010 bound_to 7997
  139.4821  144.4992  151.8193 H   0  0  0  0  0  0  0  0  0  0  0  0  # atno 10167 bound_to 10162
  156.9263  130.9957  151.2995 H   0  0  0  0  0  0  0  0  0  0  0  0  # atno 10718 bound_to 10713
  153.8938  135.6809  153.4759 H   0  0  0  0  0  0  0  0  0  0  0  0  # atno 10763 bound_to 10752
  153.1166  135.4758  154.9123 H   0  0  0  0  0  0  0  0  0  0  0  0  # atno 10764 bound_to 10752
  154.7609  135.3210  154.8333 H   0  0  0  0  0  0  0  0  0  0  0  0  # atno 10765 bound_to 10752
  140.4799  134.0945  155.7749 H   0  0  0  0  0  0  0  0  0  0  0  0  # atno 11005 bound_to 11000
  146.3510  140.0022  142.8675 LP  0  0  0  0  0  0  0  0  0  0  0  0  # atno 17320 bound_to 7965
  145.1639  140.9687  143.4361 LP  0  0  0  0  0  0  0  0  0  0  0  0  # atno 17321 bound_to 7965
  140.4484  144.1890  150.5895 LP  0  0  0  0  0  0  0  0  0  0  0  0  # atno 17342 bound_to 10162
  140.4611  143.2448  151.9219 LP  0  0  0  0  0  0  0  0  0  0  0  0  # atno 17343 bound_to 10162
  157.5875  130.8420  149.8611 LP  0  0  0  0  0  0  0  0  0  0  0  0  # atno 17370 bound_to 10713
  156.0467  130.3726  150.1299 LP  0  0  0  0  0  0  0  0  0  0  0  0  # atno 17371 bound_to 10713
  141.1536  133.8924  157.2035 LP  0  0  0  0  0  0  0  0  0  0  0  0  # atno 17394 bound_to 11000
  139.9833  135.0091  156.9801 LP  0  0  0  0  0  0  0  0  0  0  0  0  # atno 17395 bound_to 11000

$$$$
