AV-unprocessed.smi:2994|AV-procd|sdf|11404|dock9
  -GOLD-   2272016323D 1   1.00000     0.00000
 Structure written by MMmdl.
 47 49  0  0  0  0  0  0  0  0  1 V2000
  147.5082  133.2190  154.8740 C   0  0  0  0  0  0  0  0  0  0  0  0
  148.6969  133.3123  153.9030 C   0  0  2  0  0  0  0  0  0  0  0  0
  149.2441  134.6661  153.9137 N   0  0  0  0  0  0  0  0  0  0  0  0
  149.8453  135.2564  154.9572 C   0  0  0  0  0  0  0  0  0  0  0  0
  149.9994  134.7090  156.0486 O   0  0  0  0  0  0  0  0  0  0  0  0
  150.2309  136.5067  154.6482 N   0  0  0  0  0  0  0  0  0  0  0  0
  150.8657  137.4782  155.4703 C   0  0  0  0  0  0  0  0  0  0  0  0
  151.1358  138.8119  155.0801 C   0  0  0  0  0  0  0  0  0  0  0  0
  151.7667  139.6746  155.9965 C   0  0  0  0  0  0  0  0  0  0  0  0
  152.1089  139.1802  157.2750 C   0  0  0  0  0  0  0  0  0  0  0  0
  152.7638  140.0761  158.2855 C   0  0  0  0  0  0  0  0  0  0  0  0
  153.9243  139.8361  158.6218 O   0  0  0  0  0  0  0  0  0  0  0  0
  152.0411  141.1042  158.7978 N   0  0  0  0  0  0  0  0  0  0  0  0
  150.7901  141.6394  158.2363 C   0  0  0  0  0  0  0  0  0  0  0  0
  151.0761  143.0080  157.5901 C   0  0  0  0  0  0  0  0  0  0  0  0
  151.7179  143.9766  158.6004 C   0  0  0  0  0  0  0  0  0  0  0  0
  152.9258  143.3355  159.3073 C   0  0  0  0  0  0  0  0  0  0  0  0
  152.5560  141.9551  159.8793 C   0  0  0  0  0  0  0  0  0  0  0  0
  151.8302  137.9158  157.6626 N   0  0  0  0  0  0  0  0  0  0  0  0
  151.2271  137.0937  156.7784 C   0  0  0  0  0  0  0  0  0  0  0  0
  148.2905  132.8630  152.5121 C   0  0  0  0  0  0  0  0  0  0  0  0
  147.0264  133.3784  151.8667 C   0  0  0  0  0  0  0  0  0  0  0  0
  147.1202  131.9328  152.3005 C   0  0  0  0  0  0  0  0  0  0  0  0
  147.1050  132.2063  154.9023 H   0  0  0  0  0  0  0  0  0  0  0  0
  146.7007  133.8898  154.5789 H   0  0  0  0  0  0  0  0  0  0  0  0
  147.8020  133.4787  155.8914 H   0  0  0  0  0  0  0  0  0  0  0  0
  149.4713  132.6259  154.2514 H   0  0  0  0  0  0  0  0  0  0  0  0
  149.1593  135.1931  153.0570 H   0  0  0  0  0  0  0  0  0  0  0  0
  149.9877  136.8242  153.7213 H   0  0  0  0  0  0  0  0  0  0  0  0
  150.8663  139.1979  154.1101 H   0  0  0  0  0  0  0  0  0  0  0  0
  151.9812  140.6969  155.7207 H   0  0  0  0  0  0  0  0  0  0  0  0
  150.3256  140.9929  157.4940 H   0  0  0  0  0  0  0  0  0  0  0  0
  150.0555  141.7475  159.0354 H   0  0  0  0  0  0  0  0  0  0  0  0
  151.7437  142.8738  156.7378 H   0  0  0  0  0  0  0  0  0  0  0  0
  150.1546  143.4373  157.1959 H   0  0  0  0  0  0  0  0  0  0  0  0
  152.0172  144.8994  158.1025 H   0  0  0  0  0  0  0  0  0  0  0  0
  150.9744  144.2569  159.3475 H   0  0  0  0  0  0  0  0  0  0  0  0
  153.7501  143.2282  158.6009 H   0  0  0  0  0  0  0  0  0  0  0  0
  153.2826  143.9890  160.1040 H   0  0  0  0  0  0  0  0  0  0  0  0
  151.7883  142.0616  160.6471 H   0  0  0  0  0  0  0  0  0  0  0  0
  153.4180  141.5168  160.3844 H   0  0  0  0  0  0  0  0  0  0  0  0
  151.0296  136.0910  157.1288 H   0  0  0  0  0  0  0  0  0  0  0  0
  149.1338  132.7232  151.8379 H   0  0  0  0  0  0  0  0  0  0  0  0
  146.3886  134.0372  152.4529 H   0  0  0  0  0  0  0  0  0  0  0  0
  147.0580  133.5879  150.7994 H   0  0  0  0  0  0  0  0  0  0  0  0
  147.2120  131.1790  151.5211 H   0  0  0  0  0  0  0  0  0  0  0  0
  146.5456  131.6328  153.1745 H   0  0  0  0  0  0  0  0  0  0  0  0
  1  2  1  0  0  0  0
  1 24  1  0  0  0  0
  1 25  1  0  0  0  0
  1 26  1  0  0  0  0
  2  3  1  0  0  0  0
  2 21  1  0  0  0  0
  2 27  1  0  0  0  0
  3  4  1  0  0  0  0
  3 28  1  0  0  0  0
  4  5  2  0  0  0  0
  4  6  1  0  0  0  0
  6  7  1  0  0  0  0
  6 29  1  0  0  0  0
  7 20  1  0  0  0  0
  7  8  2  0  0  0  0
  8  9  1  0  0  0  0
  8 30  1  0  0  0  0
  9 10  2  0  0  0  0
  9 31  1  0  0  0  0
 10 11  1  0  0  0  0
 10 19  1  0  0  0  0
 11 12  2  0  0  0  0
 11 13  1  0  0  0  0
 13 18  1  0  0  0  0
 13 14  1  0  0  0  0
 14 15  1  0  0  0  0
 14 32  1  0  0  0  0
 14 33  1  0  0  0  0
 15 16  1  0  0  0  0
 15 34  1  0  0  0  0
 15 35  1  0  0  0  0
 16 17  1  0  0  0  0
 16 36  1  0  0  0  0
 16 37  1  0  0  0  0
 17 18  1  0  0  0  0
 17 38  1  0  0  0  0
 17 39  1  0  0  0  0
 18 40  1  0  0  0  0
 18 41  1  0  0  0  0
 19 20  2  0  0  0  0
 20 42  1  0  0  0  0
 21 23  1  0  0  0  0
 21 22  1  0  0  0  0
 21 43  1  0  0  0  0
 22 23  1  0  0  0  0
 22 44  1  0  0  0  0
 22 45  1  0  0  0  0
 23 46  1  0  0  0  0
 23 47  1  0  0  0  0
M  END
> <s_m_source_file>
AV-unprocessed.smi

> <i_m_source_file_index>
2994

> <i_lp_mmshare_version>
43012

> <i_f3d_flags>
0

> <s_epik_input>
W0NIMl0xW0NIMl1bQ0hdMVtDQEhdKFtDSDNdKVtOSF1DKD1PKVtOSF1jMltjSF1bY0hdYyhuW2NIXTIpQyg9TylOM1tDSDJdW0NIMl1bQ0gyXVtDSDJdW0NIMl0z

> <s_epik_cmdline>
J2VwaWtfcHl0aG9uJywgJy1waCcsICc3LjAnLCAnLXRuJywgJzgnLCAnLW1hJywgJzIwMCcsICctbWV0YWxfYmluZGluZycsICctaW1hZScsICc8aW5maWxlLm1hZT4nLCAnLW9tYWUnLCAnPG91dGZpbGUubWFlPic=

> <r_lp_tautomer_probability>
1

> <r_epik_Ionization_Penalty>
4.52104e-05

> <r_epik_Ionization_Penalty_Charging>
0

> <r_epik_Ionization_Penalty_Neutral>
4.52104e-05

> <r_epik_State_Penalty>
-0

> <r_epik_Charging_Adjusted_Penalty>
0

> <i_epik_Tot_Q>
0

> <i_epik_Tot_abs_Q>
0

> <r_epik_Metal_State_Penalty>
-0

> <b_epik_Metal_Only>
0

> <s_lp_Force_Field>
OPLS_2005

> <r_lp_Energy>
45.7479

> <b_lp_Chiralities_Consistent>
1

> <s_lp_Variant>
AV-unprocessed.smi:2994-1

> <Gold.Version>
5.8.1

> <Gold.Id.Protein>
6NUR|6NUR_protein|mol2

> <Gold.PLP.Fitness>
47.3988

> <Gold.PLP.PLP>
-41.4304

> <Gold.PLP.part.hbond>
-3.0000

> <Gold.PLP.part.metal>
0.0000

> <Gold.PLP.part.buried>
-2.7141

> <Gold.PLP.part.nonpolar>
-35.9810

> <Gold.PLP.part.repulsive>
0.0789

> <Gold.PLP.ligand.clash>
0.0000

> <Gold.PLP.ligand.torsion>
1.9703

> <Gold.PLP.Chemscore.Hbond>
2.6435

> <Gold.PLP.Chemscore.CHOScore>
0.0000

> <Gold.PLP.Chemscore.Metal>
0.0000

> <Gold.Chemscore.Hbonds>
donor molecule, donor type, donor heavy atom, donor atom, acceptor molecule, acceptor atom, score
      L1  H     3    28       P1  7948  0.75
      L1  H     6    29       P1  7948  0.57
      P1  H  7997  8008       L1    12  1.00

> <Gold.PLP.Chemscore.Internal.Correction>
1.9785

> <Gold.Rescore>
     Score         DG    S(hbond)    S(metal)    S(lipo)     H(rot)  DE(clash)    DE(int)     intcor
     19.31     -22.81       2.71        0.00      95.63       1.14       0.00       3.50       ----

> <Gold.Chemscore.Fitness>
19.3059

> <Gold.Chemscore.DG>
-22.8051

> <Gold.Chemscore.ZeroCoef>
-5.4800

> <Gold.Chemscore.Hbond>
2.7111

> <Gold.Chemscore.Metal>
0.0000

> <Gold.Chemscore.Lipo>
95.6258

> <Gold.Chemscore.Internal_Hbond>
0.0000

> <Gold.Chemscore.DEClash>
0.0013

> <Gold.Chemscore.DEInternal>
3.4979

> <Gold.Chemscore.Rot>
1.1399

> <Gold.Chemscore.Internal.Correction>
   9.000000E+99

> <Gold.Chemscore.Hbonds>
donor molecule, donor type, donor heavy atom, donor atom, acceptor molecule, acceptor atom, score
      L1  H     3    28       P1  7948  0.09
      L1  H     6    29       P1  7948  0.17
      P1  H  7997  8008       L1    12  0.64

> <Gold.Chemscore.Hbond.Weighted>
-9.0549

> <Gold.Chemscore.Metal.Weighted>
-0.0000

> <Gold.Chemscore.Lipo.Weighted>
-11.1882

> <Gold.Chemscore.Internal_Hbond.Weighted>
0.0000

> <Gold.Chemscore.DEClash.Weighted>
0.0013

> <Gold.Chemscore.DEInternal.Weighted>
3.4979

> <Gold.Chemscore.Rot.Weighted>
2.9180

> <Gold.Chemscore.Internal.Correction.Weighted>
   9.000000E+99

> <Gold.Protein.RotatedTorsions>
[ 6907 6896 6895 6894 ] final   98.78 input  -60.11 | X-H torsion
[ 7974 7965 7964 7962 ] final   40.03 input  175.53 | X-H torsion
[ 8008 7997 7996 7995 ] final -108.75 input   59.86 | X-H torsion
[ 10167 10162 10161 10158 ] final  -76.43 input  -65.29 | X-H torsion
[ 10718 10713 10712 10709 ] final  -76.29 input   66.30 | X-H torsion
[ 10763 10752 10751 10750 ] final  -96.19 input  -60.55 | X-H torsion
[ 11005 11000 10999 10996 ] final  123.27 input  -57.11 | X-H torsion

> <Gold.Protein.ActiveResidues>
 VAL166  LYS551  ARG553  GLY616  TRP617  ASP618  TYR619  PRO620  LYS621  CYS622 
 ASP623  PHE694  ASN695  SER759  ASP760  ASP761  ALA762  ILE779  LEU786  VAL792 
 PHE793  MET794  SER795  GLU796  ALA797  LYS798  CYS799  TRP800  GLU811  SER814 

> <Gold.Protein.RotatedAtoms>
  152.5403  134.0528  159.8117 H   0  0  0  0  0  0  0  0  0  0  0  0  # atno 6907 bound_to 6896
  151.0667  133.5492  159.2637 H   0  0  0  0  0  0  0  0  0  0  0  0  # atno 6908 bound_to 6896
  151.2370  135.0583  159.9064 H   0  0  0  0  0  0  0  0  0  0  0  0  # atno 6909 bound_to 6896
  146.0937  139.5581  142.9459 H   0  0  0  0  0  0  0  0  0  0  0  0  # atno 7974 bound_to 7965
  154.9489  140.0401  157.2134 H   0  0  0  0  0  0  0  0  0  0  0  0  # atno 8008 bound_to 7997
  154.7997  140.2849  155.5908 H   0  0  0  0  0  0  0  0  0  0  0  0  # atno 8009 bound_to 7997
  156.2960  140.2557  156.2863 H   0  0  0  0  0  0  0  0  0  0  0  0  # atno 8010 bound_to 7997
  140.4858  143.2391  151.7986 H   0  0  0  0  0  0  0  0  0  0  0  0  # atno 10167 bound_to 10162
  156.0180  130.4462  150.3171 H   0  0  0  0  0  0  0  0  0  0  0  0  # atno 10718 bound_to 10713
  154.7217  135.5093  153.8822 H   0  0  0  0  0  0  0  0  0  0  0  0  # atno 10763 bound_to 10752
  153.0868  135.6648  153.9942 H   0  0  0  0  0  0  0  0  0  0  0  0  # atno 10764 bound_to 10752
  153.9763  135.3033  155.3403 H   0  0  0  0  0  0  0  0  0  0  0  0  # atno 10765 bound_to 10752
  139.9305  134.9641  156.8233 H   0  0  0  0  0  0  0  0  0  0  0  0  # atno 11005 bound_to 11000
  145.5989  141.0358  143.2029 LP  0  0  0  0  0  0  0  0  0  0  0  0  # atno 17320 bound_to 7965
  144.7379  139.7532  143.7322 LP  0  0  0  0  0  0  0  0  0  0  0  0  # atno 17321 bound_to 7965
  139.4841  144.4714  151.9421 LP  0  0  0  0  0  0  0  0  0  0  0  0  # atno 17342 bound_to 10162
  140.3800  144.2748  150.5910 LP  0  0  0  0  0  0  0  0  0  0  0  0  # atno 17343 bound_to 10162
  157.1272  131.0262  151.2984 LP  0  0  0  0  0  0  0  0  0  0  0  0  # atno 17370 bound_to 10713
  157.4580  130.7637  149.7210 LP  0  0  0  0  0  0  0  0  0  0  0  0  # atno 17371 bound_to 10713
  140.6216  133.9989  155.7621 LP  0  0  0  0  0  0  0  0  0  0  0  0  # atno 17394 bound_to 11000
  141.0890  133.9946  157.3267 LP  0  0  0  0  0  0  0  0  0  0  0  0  # atno 17395 bound_to 11000

$$$$
