AV-unprocessed.smi:1419|AV-procd|sdf|5776|dock8
  -GOLD-   22720 5423D 1   1.00000     0.00000
 Structure written by MMmdl.
 42 43  0  0  0  0  0  0  0  0  2 V2000
  148.5269  134.6346  156.1026 C   0  0  0  0  0  0  0  0  0  0  0  0
  149.0587  134.5926  154.6639 C   0  0  2  0  0  0  0  0  0  0  0  0
  150.1029  133.4701  154.4851 C   0  0  0  0  0  0  0  0  0  0  0  0
  149.4975  132.1370  154.3889 N   0  0  0  0  0  0  0  0  0  0  0  0
  148.9673  131.5451  153.2712 C   0  0  0  0  0  0  0  0  0  0  0  0
  148.5334  130.3025  153.6555 C   0  0  0  0  0  0  0  0  0  0  0  0
  148.8090  130.1917  154.9920 N   0  3  0  0  0  0  0  0  0  0  0  0
  149.3915  131.3098  155.4374 C   0  0  0  0  0  0  0  0  0  0  0  0
  149.6331  135.8962  154.3343 N   0  0  0  0  0  0  0  0  0  0  0  0
  150.6881  136.4716  154.9374 C   0  0  0  0  0  0  0  0  0  0  0  0
  151.3135  135.9144  155.8404 O   0  0  0  0  0  0  0  0  0  0  0  0
  151.0040  137.7040  154.4690 N   0  0  0  0  0  0  0  0  0  0  0  0
  150.0752  138.7039  153.9268 C   0  0  0  0  0  0  0  0  0  0  0  0
  149.9120  139.8214  154.9750 C   0  0  2  0  0  0  0  0  0  0  0  0
  149.0029  140.9504  154.4781 C   0  0  0  0  0  0  0  0  0  0  0  0
  151.1920  140.3851  155.2735 O   0  0  0  0  0  0  0  0  0  0  0  0
  152.1978  139.4597  155.6990 C   0  0  1  0  0  0  0  0  0  0  0  0
  151.9479  138.9885  157.1430 C   0  0  0  0  0  0  0  0  0  0  0  0
  152.3212  138.3115  154.6738 C   0  0  0  0  0  0  0  0  0  0  0  0
  148.0643  133.6864  156.3777 H   0  0  0  0  0  0  0  0  0  0  0  0
  147.7723  135.4131  156.2197 H   0  0  0  0  0  0  0  0  0  0  0  0
  149.3259  134.8346  156.8177 H   0  0  0  0  0  0  0  0  0  0  0  0
  148.2065  134.3880  154.0133 H   0  0  0  0  0  0  0  0  0  0  0  0
  150.7130  133.6436  153.5967 H   0  0  0  0  0  0  0  0  0  0  0  0
  150.7847  133.4495  155.3364 H   0  0  0  0  0  0  0  0  0  0  0  0
  148.9470  132.0360  152.3089 H   0  0  0  0  0  0  0  0  0  0  0  0
  148.0617  129.5101  153.0926 H   0  0  0  0  0  0  0  0  0  0  0  0
  149.7214  131.5009  156.4432 H   0  0  0  0  0  0  0  0  0  0  0  0
  149.1857  136.4106  153.5893 H   0  0  0  0  0  0  0  0  0  0  0  0
  150.4865  139.1123  153.0023 H   0  0  0  0  0  0  0  0  0  0  0  0
  149.0995  138.2999  153.6570 H   0  0  0  0  0  0  0  0  0  0  0  0
  149.4741  139.4085  155.8846 H   0  0  0  0  0  0  0  0  0  0  0  0
  148.0040  140.5789  154.2480 H   0  0  0  0  0  0  0  0  0  0  0  0
  149.4047  141.4123  153.5758 H   0  0  0  0  0  0  0  0  0  0  0  0
  148.9014  141.7291  155.2344 H   0  0  0  0  0  0  0  0  0  0  0  0
  153.1397  140.0089  155.7005 H   0  0  0  0  0  0  0  0  0  0  0  0
  152.7600  138.3476  157.4864 H   0  0  0  0  0  0  0  0  0  0  0  0
  151.0237  138.4216  157.2397 H   0  0  0  0  0  0  0  0  0  0  0  0
  151.8879  139.8384  157.8227 H   0  0  0  0  0  0  0  0  0  0  0  0
  153.0754  137.5928  154.9984 H   0  0  0  0  0  0  0  0  0  0  0  0
  152.6814  138.7039  153.7217 H   0  0  0  0  0  0  0  0  0  0  0  0
  148.6036  129.3811  155.5629 H   0  0  0  0  0  0  0  0  0  0  0  0
  1  2  1  0  0  0  0
  1 20  1  0  0  0  0
  1 21  1  0  0  0  0
  1 22  1  0  0  0  0
  2  3  1  0  0  0  0
  2  9  1  0  0  0  0
  2 23  1  0  0  0  0
  3  4  1  0  0  0  0
  3 24  1  0  0  0  0
  3 25  1  0  0  0  0
  4  8  1  0  0  0  0
  4  5  1  0  0  0  0
  5  6  2  0  0  0  0
  5 26  1  0  0  0  0
  6  7  1  0  0  0  0
  6 27  1  0  0  0  0
  7  8  2  0  0  0  0
  7 42  1  0  0  0  0
  8 28  1  0  0  0  0
  9 10  1  0  0  0  0
  9 29  1  0  0  0  0
 10 11  2  0  0  0  0
 10 12  1  0  0  0  0
 12 19  1  0  0  0  0
 12 13  1  0  0  0  0
 13 14  1  0  0  0  0
 13 30  1  0  0  0  0
 13 31  1  0  0  0  0
 14 15  1  0  0  0  0
 14 16  1  0  0  0  0
 14 32  1  0  0  0  0
 15 33  1  0  0  0  0
 15 34  1  0  0  0  0
 15 35  1  0  0  0  0
 16 17  1  0  0  0  0
 17 18  1  0  0  0  0
 17 19  1  0  0  0  0
 17 36  1  0  0  0  0
 18 37  1  0  0  0  0
 18 38  1  0  0  0  0
 18 39  1  0  0  0  0
 19 40  1  0  0  0  0
 19 41  1  0  0  0  0
M  CHG  1   7   1
M  END
> <s_m_source_file>
AV-unprocessed.smi

> <i_m_source_file_index>
1419

> <i_lp_mmshare_version>
43012

> <i_f3d_flags>
0

> <s_epik_input>
W2NIXTFuW2NIXVtjSF1uMVtDSDJdW0NAQEhdKFtDSDNdKVtOSF1DKD1PKU4yW0NIMl1bQ0BASF0oW0NIM10pT1tDQEBIXShbQ0gzXSlbQ0gyXTI=

> <s_epik_cmdline>
J2VwaWtfcHl0aG9uJywgJy1waCcsICc3LjAnLCAnLXRuJywgJzgnLCAnLW1hJywgJzIwMCcsICctbWV0YWxfYmluZGluZycsICctaW1hZScsICc8aW5maWxlLm1hZT4nLCAnLW9tYWUnLCAnPG91dGZpbGUubWFlPic=

> <r_lp_tautomer_probability>
1

> <r_epik_Ionization_Penalty>
0.253607

> <r_epik_Ionization_Penalty_Charging>
0

> <r_epik_Ionization_Penalty_Neutral>
0.253607

> <r_epik_State_Penalty>
0.245018

> <r_epik_Charging_Adjusted_Penalty>
0.245018

> <i_epik_Tot_Q>
1

> <i_epik_Tot_abs_Q>
1

> <r_epik_Metal_State_Penalty>
0.535379

> <b_epik_Metal_Only>
0

> <s_lp_Force_Field>
OPLS_2005

> <r_lp_Energy>
31.3779

> <b_lp_Chiralities_Consistent>
1

> <s_lp_Variant>
AV-unprocessed.smi:1419-3

> <Gold.Version>
5.8.1

> <Gold.Id.Protein>
6NUR|6NUR_protein|mol2

> <Gold.PLP.Fitness>
43.6878

> <Gold.PLP.PLP>
-33.8992

> <Gold.PLP.part.hbond>
-3.0253

> <Gold.PLP.part.metal>
0.0000

> <Gold.PLP.part.buried>
-3.0736

> <Gold.PLP.part.nonpolar>
-28.8669

> <Gold.PLP.part.repulsive>
0.1133

> <Gold.PLP.ligand.clash>
0.0000

> <Gold.PLP.ligand.torsion>
0.7604

> <Gold.PLP.Chemscore.Hbond>
2.7680

> <Gold.PLP.Chemscore.CHOScore>
0.9839

> <Gold.PLP.Chemscore.Metal>
0.0000

> <Gold.Chemscore.Hbonds>
donor molecule, donor type, donor heavy atom, donor atom, acceptor molecule, acceptor atom, score
      L1  H     9    29       P1  7948  0.72
      P1  H  7989  7998       L1    16  0.84
      P1  H 10752 10765       L1    11  1.00
      L1  C     5    26       P1 10747  0.85

> <Gold.PLP.Chemscore.Internal.Correction>
0.0536

> <Gold.Rescore>
     Score         DG    S(hbond)    S(metal)    S(lipo)     H(rot)  DE(clash)    DE(int)     intcor
     13.51     -15.32       1.83        0.00      67.59       1.63       0.04       1.78       ----

> <Gold.Chemscore.Fitness>
13.5072

> <Gold.Chemscore.DG>
-15.3215

> <Gold.Chemscore.ZeroCoef>
-5.4800

> <Gold.Chemscore.Hbond>
1.8261

> <Gold.Chemscore.Metal>
0.0000

> <Gold.Chemscore.Lipo>
67.5908

> <Gold.Chemscore.Internal_Hbond>
0.0000

> <Gold.Chemscore.DEClash>
0.0391

> <Gold.Chemscore.DEInternal>
1.7752

> <Gold.Chemscore.Rot>
1.6273

> <Gold.Chemscore.Internal.Correction>
   9.000000E+99

> <Gold.Chemscore.Hbonds>
donor molecule, donor type, donor heavy atom, donor atom, acceptor molecule, acceptor atom, score
      L1  H     9    29       P1  7948  0.69
      P1  H  7989  7998       L1    16  0.08
      P1  H 10752 10765       L1    11  0.38

> <Gold.Chemscore.Hbond.Weighted>
-6.0992

> <Gold.Chemscore.Metal.Weighted>
-0.0000

> <Gold.Chemscore.Lipo.Weighted>
-7.9081

> <Gold.Chemscore.Internal_Hbond.Weighted>
0.0000

> <Gold.Chemscore.DEClash.Weighted>
0.0391

> <Gold.Chemscore.DEInternal.Weighted>
1.7752

> <Gold.Chemscore.Rot.Weighted>
4.1658

> <Gold.Chemscore.Internal.Correction.Weighted>
   9.000000E+99

> <Gold.Protein.RotatedTorsions>
[ 6907 6896 6895 6894 ] final   56.65 input  -60.11 | X-H torsion
[ 7974 7965 7964 7962 ] final  142.69 input  175.53 | X-H torsion
[ 8008 7997 7996 7995 ] final   83.26 input   59.86 | X-H torsion
[ 10167 10162 10161 10158 ] final -121.78 input  -65.29 | X-H torsion
[ 10718 10713 10712 10709 ] final -163.58 input   66.30 | X-H torsion
[ 10763 10752 10751 10750 ] final -156.44 input  -60.55 | X-H torsion
[ 11005 11000 10999 10996 ] final -175.23 input  -57.11 | X-H torsion

> <Gold.Protein.ActiveResidues>
 VAL166  LYS551  ARG553  GLY616  TRP617  ASP618  TYR619  PRO620  LYS621  CYS622 
 ASP623  PHE694  ASN695  SER759  ASP760  ASP761  ALA762  ILE779  LEU786  VAL792 
 PHE793  MET794  SER795  GLU796  ALA797  LYS798  CYS799  TRP800  GLU811  SER814 

> <Gold.Protein.RotatedAtoms>
  152.3656  134.6809  160.0192 H   0  0  0  0  0  0  0  0  0  0  0  0  # atno 6907 bound_to 6896
  151.7118  133.3307  159.3300 H   0  0  0  0  0  0  0  0  0  0  0  0  # atno 6908 bound_to 6896
  150.7636  134.6460  159.6307 H   0  0  0  0  0  0  0  0  0  0  0  0  # atno 6909 bound_to 6896
  144.8986  139.5456  143.5764 H   0  0  0  0  0  0  0  0  0  0  0  0  # atno 7974 bound_to 7965
  155.9216  140.3421  155.6177 H   0  0  0  0  0  0  0  0  0  0  0  0  # atno 8008 bound_to 7997
  155.7266  140.0790  157.2326 H   0  0  0  0  0  0  0  0  0  0  0  0  # atno 8009 bound_to 7997
  154.4070  140.1595  156.2449 H   0  0  0  0  0  0  0  0  0  0  0  0  # atno 8010 bound_to 7997
  140.0213  143.5341  152.2219 H   0  0  0  0  0  0  0  0  0  0  0  0  # atno 10167 bound_to 10162
  156.6267  130.8913  151.2969 H   0  0  0  0  0  0  0  0  0  0  0  0  # atno 10718 bound_to 10713
  154.7713  135.3146  154.8184 H   0  0  0  0  0  0  0  0  0  0  0  0  # atno 10763 bound_to 10752
  153.8919  135.6824  153.4764 H   0  0  0  0  0  0  0  0  0  0  0  0  # atno 10764 bound_to 10752
  153.1327  135.4773  154.9309 H   0  0  0  0  0  0  0  0  0  0  0  0  # atno 10765 bound_to 10752
  140.4656  134.6213  157.4861 H   0  0  0  0  0  0  0  0  0  0  0  0  # atno 11005 bound_to 11000
  146.3095  139.7697  142.9030 LP  0  0  0  0  0  0  0  0  0  0  0  0  # atno 17320 bound_to 7965
  145.3657  141.0334  143.3259 LP  0  0  0  0  0  0  0  0  0  0  0  0  # atno 17321 bound_to 7965
  139.6138  144.7615  151.2892 LP  0  0  0  0  0  0  0  0  0  0  0  0  # atno 17342 bound_to 10162
  140.7341  143.6775  150.8029 LP  0  0  0  0  0  0  0  0  0  0  0  0  # atno 17343 bound_to 10162
  157.7212  130.9561  150.1446 LP  0  0  0  0  0  0  0  0  0  0  0  0  # atno 17370 bound_to 10713
  156.2267  130.3678  149.8492 LP  0  0  0  0  0  0  0  0  0  0  0  0  # atno 17371 bound_to 10713
  139.9917  134.6974  155.9678 LP  0  0  0  0  0  0  0  0  0  0  0  0  # atno 17394 bound_to 11000
  141.1601  133.6539  156.4290 LP  0  0  0  0  0  0  0  0  0  0  0  0  # atno 17395 bound_to 11000

$$$$
