AV-unprocessed.smi:1071|AV-procd|sdf|4679|dock6
  -GOLD-   22720 3193D 1   1.00000     0.00000
 Structure written by MMmdl.
 47 48  0  0  0  0  0  0  0  0  2 V2000
  152.8131  138.5286  155.0176 C   0  0  0  0  0  0  0  0  0  0  0  0
  151.8478  139.5239  154.7155 O   0  0  0  0  0  0  0  0  0  0  0  0
  151.3335  140.1946  155.8576 C   0  0  0  0  0  0  0  0  0  0  0  0
  150.2937  141.2586  155.4771 C   0  0  0  0  0  0  0  0  0  0  0  0
  149.0559  140.9264  156.0982 O   0  0  0  0  0  0  0  0  0  0  0  0
  148.1770  140.1070  155.4196 C   0  0  0  0  0  0  0  0  0  0  0  0
  146.9604  139.7625  156.0416 C   0  0  0  0  0  0  0  0  0  0  0  0
  146.0568  138.9281  155.3561 C   0  0  0  0  0  0  0  0  0  0  0  0
  146.3971  138.4701  154.0611 C   0  0  0  0  0  0  0  0  0  0  0  0
  145.5822  137.6089  153.2778 N   0  0  0  0  0  0  0  0  0  0  0  0
  144.6203  136.7571  153.6855 C   0  0  0  0  0  0  0  0  0  0  0  0
  144.2406  136.6927  154.8550 O   0  0  0  0  0  0  0  0  0  0  0  0
  144.0395  136.0418  152.6829 N   0  0  0  0  0  0  0  0  0  0  0  0
  144.1053  136.3896  151.2467 C   0  0  0  0  0  0  0  0  0  0  0  0
  144.6197  135.2124  150.4050 C   0  0  0  0  0  0  0  0  0  0  0  0
  143.8052  134.0000  150.6358 N   0  3  1  0  0  0  0  0  0  0  0  0
  144.2086  132.8723  149.7686 C   0  0  0  0  0  0  0  0  0  0  0  0
  143.7630  133.6271  152.0675 C   0  0  0  0  0  0  0  0  0  0  0  0
  143.2965  134.7934  152.9647 C   0  0  2  0  0  0  0  0  0  0  0  0
  141.7777  135.0348  152.9104 C   0  0  0  0  0  0  0  0  0  0  0  0
  147.6460  138.8589  153.5345 C   0  0  0  0  0  0  0  0  0  0  0  0
  148.5161  139.6587  154.1856 N   0  0  0  0  0  0  0  0  0  0  0  0
  153.1851  138.0918  154.0910 H   0  0  0  0  0  0  0  0  0  0  0  0
  152.3917  137.7216  155.6167 H   0  0  0  0  0  0  0  0  0  0  0  0
  153.6642  138.9534  155.5514 H   0  0  0  0  0  0  0  0  0  0  0  0
  150.9280  139.4861  156.5816 H   0  0  0  0  0  0  0  0  0  0  0  0
  152.1759  140.6861  156.3449 H   0  0  0  0  0  0  0  0  0  0  0  0
  150.6317  142.2372  155.8219 H   0  0  0  0  0  0  0  0  0  0  0  0
  150.1724  141.3028  154.3943 H   0  0  0  0  0  0  0  0  0  0  0  0
  146.7260  140.1282  157.0303 H   0  0  0  0  0  0  0  0  0  0  0  0
  145.1344  138.6469  155.8402 H   0  0  0  0  0  0  0  0  0  0  0  0
  145.7178  137.6772  152.2797 H   0  0  0  0  0  0  0  0  0  0  0  0
  143.1077  136.6763  150.9124 H   0  0  0  0  0  0  0  0  0  0  0  0
  144.7424  137.2461  151.0263 H   0  0  0  0  0  0  0  0  0  0  0  0
  144.5883  135.4779  149.3477 H   0  0  0  0  0  0  0  0  0  0  0  0
  145.6625  135.0047  150.6508 H   0  0  0  0  0  0  0  0  0  0  0  0
  145.2284  132.5539  149.9889 H   0  0  0  0  0  0  0  0  0  0  0  0
  144.1590  133.1577  148.7172 H   0  0  0  0  0  0  0  0  0  0  0  0
  143.5455  132.0187  149.9126 H   0  0  0  0  0  0  0  0  0  0  0  0
  143.1115  132.7630  152.2067 H   0  0  0  0  0  0  0  0  0  0  0  0
  144.7626  133.3143  152.3746 H   0  0  0  0  0  0  0  0  0  0  0  0
  143.4941  134.4523  153.9817 H   0  0  0  0  0  0  0  0  0  0  0  0
  141.2301  134.1392  153.2043 H   0  0  0  0  0  0  0  0  0  0  0  0
  141.4445  135.3087  151.9094 H   0  0  0  0  0  0  0  0  0  0  0  0
  141.4833  135.8351  153.5902 H   0  0  0  0  0  0  0  0  0  0  0  0
  147.9573  138.5222  152.5564 H   0  0  0  0  0  0  0  0  0  0  0  0
  142.8587  134.2386  150.3762 H   0  0  0  0  0  0  0  0  0  0  0  0
  1  2  1  0  0  0  0
  1 23  1  0  0  0  0
  1 24  1  0  0  0  0
  1 25  1  0  0  0  0
  2  3  1  0  0  0  0
  3  4  1  0  0  0  0
  3 26  1  0  0  0  0
  3 27  1  0  0  0  0
  4  5  1  0  0  0  0
  4 28  1  0  0  0  0
  4 29  1  0  0  0  0
  5  6  1  0  0  0  0
  6 22  1  0  0  0  0
  6  7  2  0  0  0  0
  7  8  1  0  0  0  0
  7 30  1  0  0  0  0
  8  9  2  0  0  0  0
  8 31  1  0  0  0  0
  9 10  1  0  0  0  0
  9 21  1  0  0  0  0
 10 11  1  0  0  0  0
 10 32  1  0  0  0  0
 11 12  2  0  0  0  0
 11 13  1  0  0  0  0
 13 19  1  0  0  0  0
 13 14  1  0  0  0  0
 14 15  1  0  0  0  0
 14 33  1  0  0  0  0
 14 34  1  0  0  0  0
 15 16  1  0  0  0  0
 15 35  1  0  0  0  0
 15 36  1  0  0  0  0
 16 17  1  0  0  0  0
 16 18  1  0  0  0  0
 16 47  1  0  0  0  0
 17 37  1  0  0  0  0
 17 38  1  0  0  0  0
 17 39  1  0  0  0  0
 18 19  1  0  0  0  0
 18 40  1  0  0  0  0
 18 41  1  0  0  0  0
 19 20  1  0  0  0  0
 19 42  1  0  0  0  0
 20 43  1  0  0  0  0
 20 44  1  0  0  0  0
 20 45  1  0  0  0  0
 21 22  2  0  0  0  0
 21 46  1  0  0  0  0
M  CHG  1  16   1
M  END
> <s_m_source_file>
AV-unprocessed.smi

> <i_m_source_file_index>
1071

> <i_lp_mmshare_version>
43012

> <i_f3d_flags>
0

> <s_epik_input>
W0NIM11PW0NIMl1bQ0gyXU9jMVtjSF1bY0hdYyhbY0hdbjEpW05IXUMoPU8pTjJbQ0gyXVtDSDJdTihbQ0gzXSlbQ0gyXVtDQEhdMltDSDNd

> <s_epik_cmdline>
J2VwaWtfcHl0aG9uJywgJy1waCcsICc3LjAnLCAnLXRuJywgJzgnLCAnLW1hJywgJzIwMCcsICctbWV0YWxfYmluZGluZycsICctaW1hZScsICc8aW5maWxlLm1hZT4nLCAnLW9tYWUnLCAnPG91dGZpbGUubWFlPic=

> <r_lp_tautomer_probability>
1

> <r_epik_Ionization_Penalty>
0.25455

> <r_epik_Ionization_Penalty_Charging>
0.254506

> <r_epik_Ionization_Penalty_Neutral>
4.43365e-05

> <r_epik_State_Penalty>
0.245983

> <r_epik_Charging_Adjusted_Penalty>
0.500488

> <i_epik_Tot_Q>
1

> <i_epik_Tot_abs_Q>
1

> <r_epik_Metal_State_Penalty>
0.245987

> <b_epik_Metal_Only>
0

> <s_lp_Force_Field>
OPLS_2005

> <r_lp_Energy>
58.5188

> <b_lp_Chiralities_Consistent>
1

> <s_lp_Variant>
AV-unprocessed.smi:1071-3

> <Gold.Version>
5.8.1

> <Gold.Id.Protein>
6NUR|6NUR_protein|mol2

> <Gold.PLP.Fitness>
39.8610

> <Gold.PLP.PLP>
-28.0790

> <Gold.PLP.part.hbond>
-2.0000

> <Gold.PLP.part.metal>
0.0000

> <Gold.PLP.part.buried>
-1.1120

> <Gold.PLP.part.nonpolar>
-24.2192

> <Gold.PLP.part.repulsive>
0.2880

> <Gold.PLP.ligand.clash>
0.0000

> <Gold.PLP.ligand.torsion>
0.8668

> <Gold.PLP.Chemscore.Hbond>
3.0000

> <Gold.PLP.Chemscore.CHOScore>
1.4899

> <Gold.PLP.Chemscore.Metal>
0.0000

> <Gold.Chemscore.Hbonds>
donor molecule, donor type, donor heavy atom, donor atom, acceptor molecule, acceptor atom, score
      L1  H    16    47       P1 10186  2.00
      P1  H  7989  7998       L1     2  0.95
      L1  C    21    46       P1  7948  0.91
      L1  C    21    46       P1  7957  0.62

> <Gold.PLP.Chemscore.Internal.Correction>
0.0460

> <Gold.Rescore>
     Score         DG    S(hbond)    S(metal)    S(lipo)     H(rot)  DE(clash)    DE(int)     intcor
     11.71     -15.60       1.71        0.00      72.81       1.60       1.86       2.02       ----

> <Gold.Chemscore.Fitness>
11.7110

> <Gold.Chemscore.DG>
-15.5955

> <Gold.Chemscore.ZeroCoef>
-5.4800

> <Gold.Chemscore.Hbond>
1.7077

> <Gold.Chemscore.Metal>
0.0000

> <Gold.Chemscore.Lipo>
72.8140

> <Gold.Chemscore.Internal_Hbond>
0.0000

> <Gold.Chemscore.DEClash>
1.8606

> <Gold.Chemscore.DEInternal>
2.0238

> <Gold.Chemscore.Rot>
1.6045

> <Gold.Chemscore.Internal.Correction>
   9.000000E+99

> <Gold.Chemscore.Hbonds>
donor molecule, donor type, donor heavy atom, donor atom, acceptor molecule, acceptor atom, score
      L1  H    16    47       P1 10186  0.77
      P1  H  7989  7998       L1     2  0.20

> <Gold.Chemscore.Hbond.Weighted>
-5.7038

> <Gold.Chemscore.Metal.Weighted>
-0.0000

> <Gold.Chemscore.Lipo.Weighted>
-8.5192

> <Gold.Chemscore.Internal_Hbond.Weighted>
0.0000

> <Gold.Chemscore.DEClash.Weighted>
1.8606

> <Gold.Chemscore.DEInternal.Weighted>
2.0238

> <Gold.Chemscore.Rot.Weighted>
4.1075

> <Gold.Chemscore.Internal.Correction.Weighted>
   9.000000E+99

> <Gold.Protein.RotatedTorsions>
[ 6907 6896 6895 6894 ] final -112.95 input  -60.11 | X-H torsion
[ 7974 7965 7964 7962 ] final  -66.98 input  175.53 | X-H torsion
[ 8008 7997 7996 7995 ] final  113.13 input   59.86 | X-H torsion
[ 10167 10162 10161 10158 ] final   21.49 input  -65.29 | X-H torsion
[ 10718 10713 10712 10709 ] final -143.33 input   66.30 | X-H torsion
[ 10763 10752 10751 10750 ] final    3.34 input  -60.55 | X-H torsion
[ 11005 11000 10999 10996 ] final   47.45 input  -57.11 | X-H torsion

> <Gold.Protein.ActiveResidues>
 VAL166  LYS551  ARG553  GLY616  TRP617  ASP618  TYR619  PRO620  LYS621  CYS622 
 ASP623  PHE694  ASN695  SER759  ASP760  ASP761  ALA762  ILE779  LEU786  VAL792 
 PHE793  MET794  SER795  GLU796  ALA797  LYS798  CYS799  TRP800  GLU811  SER814 

> <Gold.Protein.RotatedAtoms>
  150.7794  133.9016  159.3342 H   0  0  0  0  0  0  0  0  0  0  0  0  # atno 6907 bound_to 6896
  151.6882  135.0949  160.0238 H   0  0  0  0  0  0  0  0  0  0  0  0  # atno 6908 bound_to 6896
  152.3841  133.6548  159.6220 H   0  0  0  0  0  0  0  0  0  0  0  0  # atno 6909 bound_to 6896
  145.7350  140.8980  143.0560 H   0  0  0  0  0  0  0  0  0  0  0  0  # atno 7974 bound_to 7965
  156.2238  140.2986  156.0016 H   0  0  0  0  0  0  0  0  0  0  0  0  # atno 8008 bound_to 7997
  155.2412  140.0422  157.2992 H   0  0  0  0  0  0  0  0  0  0  0  0  # atno 8009 bound_to 7997
  154.5882  140.2394  155.7965 H   0  0  0  0  0  0  0  0  0  0  0  0  # atno 8010 bound_to 7997
  140.5423  143.9656  150.6526 H   0  0  0  0  0  0  0  0  0  0  0  0  # atno 10167 bound_to 10162
  156.3566  130.7716  151.1877 H   0  0  0  0  0  0  0  0  0  0  0  0  # atno 10718 bound_to 10713
  153.2845  135.6943  153.7353 H   0  0  0  0  0  0  0  0  0  0  0  0  # atno 10763 bound_to 10752
  153.6327  135.3407  155.3047 H   0  0  0  0  0  0  0  0  0  0  0  0  # atno 10764 bound_to 10752
  154.8505  135.4413  154.1909 H   0  0  0  0  0  0  0  0  0  0  0  0  # atno 10765 bound_to 10752
  140.1278  134.4745  155.8545 H   0  0  0  0  0  0  0  0  0  0  0  0  # atno 11005 bound_to 11000
  144.6884  139.9382  143.7474 LP  0  0  0  0  0  0  0  0  0  0  0  0  # atno 17320 bound_to 7965
  146.0502  139.3504  143.0644 LP  0  0  0  0  0  0  0  0  0  0  0  0  # atno 17321 bound_to 7965
  140.3060  143.3229  152.0926 LP  0  0  0  0  0  0  0  0  0  0  0  0  # atno 17342 bound_to 10162
  139.4993  144.6667  151.6340 LP  0  0  0  0  0  0  0  0  0  0  0  0  # atno 17343 bound_to 10162
  157.7468  131.0412  150.4635 LP  0  0  0  0  0  0  0  0  0  0  0  0  # atno 17370 bound_to 10713
  156.4839  130.4080  149.6445 LP  0  0  0  0  0  0  0  0  0  0  0  0  # atno 17371 bound_to 10713
  141.2164  133.6784  156.7012 LP  0  0  0  0  0  0  0  0  0  0  0  0  # atno 17394 bound_to 11000
  140.2881  134.8263  157.3992 LP  0  0  0  0  0  0  0  0  0  0  0  0  # atno 17395 bound_to 11000

$$$$
