AV-unprocessed.smi:3170|AV-procd|sdf|12108|dock8
  -GOLD-   2272017543D 1   1.00000     0.00000
 Structure written by MMmdl.
 36 37  0  0  0  0  0  0  0  0  2 V2000
  146.6743  139.3060  154.3054 O   0  0  0  0  0  0  0  0  0  0  0  0
  147.4949  139.3205  153.3876 C   0  0  0  0  0  0  0  0  0  0  0  0
  147.2984  138.7334  152.1989 N   0  0  0  0  0  0  0  0  0  0  0  0
  146.0925  138.0050  151.8233 C   0  0  0  0  0  0  0  0  0  0  0  0
  146.4283  136.6687  151.1407 C   0  0  0  0  0  0  0  0  0  0  0  0
  145.3651  135.6819  151.3332 N   0  0  0  0  0  0  0  0  0  0  0  0
  145.3171  134.6815  152.2695 C   0  0  0  0  0  0  0  0  0  0  0  0
  144.1383  134.0115  152.0641 C   0  0  0  0  0  0  0  0  0  0  0  0
  143.5185  134.6305  151.0116 N   0  3  0  0  0  0  0  0  0  0  0  0
  144.2668  135.6458  150.5679 C   0  0  0  0  0  0  0  0  0  0  0  0
  148.6915  139.9194  153.4579 N   0  0  0  0  0  0  0  0  0  0  0  0
  149.1987  140.6370  154.6226 C   0  0  0  0  0  0  0  0  0  0  0  0
  150.2255  139.8050  155.4144 C   0  0  1  0  0  0  0  0  0  0  0  0
  151.0600  138.8568  154.5759 C   0  0  0  0  0  0  0  0  0  0  0  0
  152.2373  138.5743  155.5039 C   0  0  0  0  0  0  0  0  0  0  0  0
  152.4214  139.7617  156.2698 O   0  0  0  0  0  0  0  0  0  0  0  0
  151.3147  140.6403  156.0861 C   0  0  0  0  0  0  0  0  0  0  0  0
  148.0295  138.8000  151.5059 H   0  0  0  0  0  0  0  0  0  0  0  0
  145.4705  137.8405  152.7050 H   0  0  0  0  0  0  0  0  0  0  0  0
  145.5121  138.6333  151.1474 H   0  0  0  0  0  0  0  0  0  0  0  0
  146.5681  136.8074  150.0678 H   0  0  0  0  0  0  0  0  0  0  0  0
  147.3552  136.2470  151.5331 H   0  0  0  0  0  0  0  0  0  0  0  0
  146.1044  134.5246  152.9927 H   0  0  0  0  0  0  0  0  0  0  0  0
  143.7061  133.1629  152.5741 H   0  0  0  0  0  0  0  0  0  0  0  0
  144.0310  136.3056  149.7517 H   0  0  0  0  0  0  0  0  0  0  0  0
  149.2964  139.8764  152.6509 H   0  0  0  0  0  0  0  0  0  0  0  0
  149.6543  141.5646  154.2748 H   0  0  0  0  0  0  0  0  0  0  0  0
  148.3688  140.9266  155.2696 H   0  0  0  0  0  0  0  0  0  0  0  0
  149.7136  139.2275  156.1861 H   0  0  0  0  0  0  0  0  0  0  0  0
  150.5242  137.9526  154.2857 H   0  0  0  0  0  0  0  0  0  0  0  0
  151.4092  139.3544  153.6699 H   0  0  0  0  0  0  0  0  0  0  0  0
  151.9968  137.7571  156.1849 H   0  0  0  0  0  0  0  0  0  0  0  0
  153.1428  138.3062  154.9591 H   0  0  0  0  0  0  0  0  0  0  0  0
  151.6322  141.4579  155.4374 H   0  0  0  0  0  0  0  0  0  0  0  0
  150.9860  141.0695  157.0327 H   0  0  0  0  0  0  0  0  0  0  0  0
  142.6238  134.3605  150.6225 H   0  0  0  0  0  0  0  0  0  0  0  0
  1  2  2  0  0  0  0
  2  3  1  0  0  0  0
  2 11  1  0  0  0  0
  3  4  1  0  0  0  0
  3 18  1  0  0  0  0
  4  5  1  0  0  0  0
  4 19  1  0  0  0  0
  4 20  1  0  0  0  0
  5  6  1  0  0  0  0
  5 21  1  0  0  0  0
  5 22  1  0  0  0  0
  6 10  1  0  0  0  0
  6  7  1  0  0  0  0
  7  8  2  0  0  0  0
  7 23  1  0  0  0  0
  8  9  1  0  0  0  0
  8 24  1  0  0  0  0
  9 10  2  0  0  0  0
  9 36  1  0  0  0  0
 10 25  1  0  0  0  0
 11 12  1  0  0  0  0
 11 26  1  0  0  0  0
 12 13  1  0  0  0  0
 12 27  1  0  0  0  0
 12 28  1  0  0  0  0
 13 17  1  0  0  0  0
 13 14  1  0  0  0  0
 13 29  1  0  0  0  0
 14 15  1  0  0  0  0
 14 30  1  0  0  0  0
 14 31  1  0  0  0  0
 15 16  1  0  0  0  0
 15 32  1  0  0  0  0
 15 33  1  0  0  0  0
 16 17  1  0  0  0  0
 17 34  1  0  0  0  0
 17 35  1  0  0  0  0
M  CHG  1   9   1
M  END
> <s_m_source_file>
AV-unprocessed.smi

> <i_m_source_file_index>
3170

> <i_lp_mmshare_version>
43012

> <i_f3d_flags>
0

> <s_epik_input>
W0NIMl0xT1tDSDJdW0NIMl1bQ0BIXTFbQ0gyXVtOSF1DKD1PKVtOSF1bQ0gyXVtDSDJdbjJbY0hdW2NIXW5bY0hdMg==

> <s_epik_cmdline>
J2VwaWtfcHl0aG9uJywgJy1waCcsICc3LjAnLCAnLXRuJywgJzgnLCAnLW1hJywgJzIwMCcsICctbWV0YWxfYmluZGluZycsICctaW1hZScsICc8aW5maWxlLm1hZT4nLCAnLW9tYWUnLCAnPG91dGZpbGUubWFlPic=

> <r_lp_tautomer_probability>
1

> <r_epik_Ionization_Penalty>
0.255699

> <r_epik_Ionization_Penalty_Charging>
0

> <r_epik_Ionization_Penalty_Neutral>
0.255699

> <r_epik_State_Penalty>
0.247169

> <r_epik_Charging_Adjusted_Penalty>
0.247169

> <i_epik_Tot_Q>
1

> <i_epik_Tot_abs_Q>
1

> <r_epik_Metal_State_Penalty>
0.536793

> <b_epik_Metal_Only>
0

> <s_lp_Force_Field>
OPLS_2005

> <r_lp_Energy>
18.8209

> <b_lp_Chiralities_Consistent>
1

> <s_lp_Variant>
AV-unprocessed.smi:3170-2

> <Gold.Version>
5.8.1

> <Gold.Id.Protein>
6NUR|6NUR_protein|mol2

> <Gold.PLP.Fitness>
46.2873

> <Gold.PLP.PLP>
-30.8592

> <Gold.PLP.part.hbond>
-4.8827

> <Gold.PLP.part.metal>
0.0000

> <Gold.PLP.part.buried>
2.8239

> <Gold.PLP.part.nonpolar>
-28.4797

> <Gold.PLP.part.repulsive>
0.3228

> <Gold.PLP.ligand.clash>
0.0000

> <Gold.PLP.ligand.torsion>
1.0661

> <Gold.PLP.Chemscore.Hbond>
4.8480

> <Gold.PLP.Chemscore.CHOScore>
1.0000

> <Gold.PLP.Chemscore.Metal>
0.0000

> <Gold.Chemscore.Hbonds>
donor molecule, donor type, donor heavy atom, donor atom, acceptor molecule, acceptor atom, score
      L1  H     3    18       P1  7957  0.75
      L1  H     9    36       P1 10186  2.00
      L1  H    11    26       P1  7957  1.00
      P1  H  7997  8010       L1    16  1.00
      L1  C    10    25       P1 10171  0.98

> <Gold.PLP.Chemscore.Internal.Correction>
0.0163

> <Gold.Rescore>
     Score         DG    S(hbond)    S(metal)    S(lipo)     H(rot)  DE(clash)    DE(int)     intcor
     15.55     -18.46       3.51        0.00      61.62       2.33       1.82       1.10       ----

> <Gold.Chemscore.Fitness>
15.5521

> <Gold.Chemscore.DG>
-18.4637

> <Gold.Chemscore.ZeroCoef>
-5.4800

> <Gold.Chemscore.Hbond>
3.5139

> <Gold.Chemscore.Metal>
0.0000

> <Gold.Chemscore.Lipo>
61.6152

> <Gold.Chemscore.Internal_Hbond>
0.0000

> <Gold.Chemscore.DEClash>
1.8155

> <Gold.Chemscore.DEInternal>
1.0961

> <Gold.Chemscore.Rot>
2.3288

> <Gold.Chemscore.Internal.Correction>
   9.000000E+99

> <Gold.Chemscore.Hbonds>
donor molecule, donor type, donor heavy atom, donor atom, acceptor molecule, acceptor atom, score
      L1  H     3    18       P1  7957  0.47
      L1  H     9    36       P1 10186  0.44
      L1  H    11    26       P1  7957  0.91
      P1  H  7997  8010       L1    16  0.49

> <Gold.Chemscore.Hbond.Weighted>
-11.7364

> <Gold.Chemscore.Metal.Weighted>
-0.0000

> <Gold.Chemscore.Lipo.Weighted>
-7.2090

> <Gold.Chemscore.Internal_Hbond.Weighted>
0.0000

> <Gold.Chemscore.DEClash.Weighted>
1.8155

> <Gold.Chemscore.DEInternal.Weighted>
1.0961

> <Gold.Chemscore.Rot.Weighted>
5.9617

> <Gold.Chemscore.Internal.Correction.Weighted>
   9.000000E+99

> <Gold.Protein.RotatedTorsions>
[ 6907 6896 6895 6894 ] final  170.96 input  -60.11 | X-H torsion
[ 7974 7965 7964 7962 ] final  111.83 input  175.53 | X-H torsion
[ 8008 7997 7996 7995 ] final   89.28 input   59.86 | X-H torsion
[ 10167 10162 10161 10158 ] final  115.40 input  -65.29 | X-H torsion
[ 10718 10713 10712 10709 ] final -120.37 input   66.30 | X-H torsion
[ 10763 10752 10751 10750 ] final  -54.00 input  -60.55 | X-H torsion
[ 11005 11000 10999 10996 ] final  -30.99 input  -57.11 | X-H torsion

> <Gold.Protein.ActiveResidues>
 VAL166  LYS551  ARG553  GLY616  TRP617  ASP618  TYR619  PRO620  LYS621  CYS622 
 ASP623  PHE694  ASN695  SER759  ASP760  ASP761  ALA762  ILE779  LEU786  VAL792 
 PHE793  MET794  SER795  GLU796  ALA797  LYS798  CYS799  TRP800  GLU811  SER814 

> <Gold.Protein.RotatedAtoms>
  151.8078  133.3378  159.3545 H   0  0  0  0  0  0  0  0  0  0  0  0  # atno 6907 bound_to 6896
  150.7336  134.5693  159.5891 H   0  0  0  0  0  0  0  0  0  0  0  0  # atno 6908 bound_to 6896
  152.3097  134.7514  160.0390 H   0  0  0  0  0  0  0  0  0  0  0  0  # atno 6909 bound_to 6896
  145.2373  139.2794  143.4136 H   0  0  0  0  0  0  0  0  0  0  0  0  # atno 7974 bound_to 7965
  155.9981  140.3362  155.6818 H   0  0  0  0  0  0  0  0  0  0  0  0  # atno 8008 bound_to 7997
  155.6329  140.0687  157.2661 H   0  0  0  0  0  0  0  0  0  0  0  0  # atno 8009 bound_to 7997
  154.4240  140.1756  156.1478 H   0  0  0  0  0  0  0  0  0  0  0  0  # atno 8010 bound_to 7997
  139.6320  144.7116  151.2413 H   0  0  0  0  0  0  0  0  0  0  0  0  # atno 10167 bound_to 10162
  156.1252  130.6354  150.9531 H   0  0  0  0  0  0  0  0  0  0  0  0  # atno 10718 bound_to 10713
  154.1679  135.6464  153.5002 H   0  0  0  0  0  0  0  0  0  0  0  0  # atno 10763 bound_to 10752
  153.0092  135.5376  154.6643 H   0  0  0  0  0  0  0  0  0  0  0  0  # atno 10764 bound_to 10752
  154.5974  135.2940  155.0543 H   0  0  0  0  0  0  0  0  0  0  0  0  # atno 10765 bound_to 10752
  140.9430  133.7267  156.1104 H   0  0  0  0  0  0  0  0  0  0  0  0  # atno 11005 bound_to 11000
  146.3338  140.2725  142.8606 LP  0  0  0  0  0  0  0  0  0  0  0  0  # atno 17320 bound_to 7965
  144.9622  140.8286  143.5507 LP  0  0  0  0  0  0  0  0  0  0  0  0  # atno 17321 bound_to 7965
  140.7444  143.6464  150.8288 LP  0  0  0  0  0  0  0  0  0  0  0  0  # atno 17342 bound_to 10162
  140.0090  143.5663  152.2846 LP  0  0  0  0  0  0  0  0  0  0  0  0  # atno 17343 bound_to 10162
  157.6434  131.0907  150.8203 LP  0  0  0  0  0  0  0  0  0  0  0  0  # atno 17370 bound_to 10713
  156.8295  130.5011  149.5333 LP  0  0  0  0  0  0  0  0  0  0  0  0  # atno 17371 bound_to 10713
  140.7708  134.3834  157.5508 LP  0  0  0  0  0  0  0  0  0  0  0  0  # atno 17394 bound_to 11000
  139.8825  134.9021  156.2825 LP  0  0  0  0  0  0  0  0  0  0  0  0  # atno 17395 bound_to 11000

$$$$
