AV-unprocessed.smi:438|AV-procd|sdf|2571|dock7
  -GOLD-   2262022553D 1   1.00000     0.00000
 Structure written by MMmdl.
 47 48  0  0  0  0  0  0  0  0  2 V2000
  155.9081  137.2068  163.2063 C   0  0  0  0  0  0  0  0  0  0  0  0
  155.5137  136.1653  162.1744 C   0  0  0  0  0  0  0  0  0  0  0  0
  155.1239  136.6633  160.9196 N   0  0  0  0  0  0  0  0  0  0  0  0
  154.7789  135.8496  159.9972 C   0  0  0  0  0  0  0  0  0  0  0  0
  154.3032  136.5573  158.4088 S   0  0  0  0  0  0  0  0  0  0  0  0
  152.9078  137.6544  158.8027 C   0  0  0  0  0  0  0  0  0  0  0  0
  153.3165  139.1245  158.8060 C   0  0  0  0  0  0  0  0  0  0  0  0
  154.5080  139.4308  158.8381 O   0  0  0  0  0  0  0  0  0  0  0  0
  152.3126  140.0184  158.7790 N   0  0  0  0  0  0  0  0  0  0  0  0
  152.4152  141.4795  158.8240 C   0  0  2  0  0  0  0  0  0  0  0  0
  152.7869  141.9878  160.2345 C   0  0  0  0  0  0  0  0  0  0  0  0
  152.9801  143.5112  160.2429 C   0  0  0  0  0  0  0  0  0  0  0  0
  151.7309  144.2261  159.7074 C   0  0  0  0  0  0  0  0  0  0  0  0
  151.3663  143.7301  158.2990 C   0  0  0  0  0  0  0  0  0  0  0  0
  151.1598  142.2018  158.2627 C   0  0  1  0  0  0  0  0  0  0  0  0
  150.7941  141.7397  156.8408 C   0  0  0  0  0  0  0  0  0  0  0  0
  154.7535  134.4811  160.1525 N   0  5  0  0  0  0  0  0  0  0  0  0
  155.1181  133.9197  161.3402 C   0  0  0  0  0  0  0  0  0  0  0  0
  155.1071  132.7024  161.5192 O   0  0  0  0  0  0  0  0  0  0  0  0
  155.5268  134.8256  162.4279 C   0  0  0  0  0  0  0  0  0  0  0  0
  155.9583  134.2254  163.7640 C   0  0  0  0  0  0  0  0  0  0  0  0
  154.8227  133.4459  164.4420 C   0  0  0  0  0  0  0  0  0  0  0  0
  154.5081  134.0383  165.6838 O   0  0  0  0  0  0  0  0  0  0  0  0
  155.3633  137.0521  164.1377 H   0  0  0  0  0  0  0  0  0  0  0  0
  155.6868  138.2150  162.8544 H   0  0  0  0  0  0  0  0  0  0  0  0
  156.9768  137.1492  163.4134 H   0  0  0  0  0  0  0  0  0  0  0  0
  152.5036  137.3936  159.7816 H   0  0  0  0  0  0  0  0  0  0  0  0
  152.1129  137.5011  158.0715 H   0  0  0  0  0  0  0  0  0  0  0  0
  151.3750  139.6444  158.7512 H   0  0  0  0  0  0  0  0  0  0  0  0
  153.2506  141.7212  158.1655 H   0  0  0  0  0  0  0  0  0  0  0  0
  152.0091  141.7273  160.9528 H   0  0  0  0  0  0  0  0  0  0  0  0
  153.7005  141.5018  160.5787 H   0  0  0  0  0  0  0  0  0  0  0  0
  153.1991  143.8528  161.2549 H   0  0  0  0  0  0  0  0  0  0  0  0
  153.8445  143.7760  159.6326 H   0  0  0  0  0  0  0  0  0  0  0  0
  150.8927  144.0549  160.3841 H   0  0  0  0  0  0  0  0  0  0  0  0
  151.8989  145.3033  159.6895 H   0  0  0  0  0  0  0  0  0  0  0  0
  150.4621  144.2368  157.9601 H   0  0  0  0  0  0  0  0  0  0  0  0
  152.1558  144.0122  157.6011 H   0  0  0  0  0  0  0  0  0  0  0  0
  150.3099  141.9760  158.9077 H   0  0  0  0  0  0  0  0  0  0  0  0
  151.6159  141.9117  156.1451 H   0  0  0  0  0  0  0  0  0  0  0  0
  149.9236  142.2789  156.4664 H   0  0  0  0  0  0  0  0  0  0  0  0
  150.5498  140.6777  156.8118 H   0  0  0  0  0  0  0  0  0  0  0  0
  156.3087  135.0126  164.4311 H   0  0  0  0  0  0  0  0  0  0  0  0
  156.8223  133.5770  163.6114 H   0  0  0  0  0  0  0  0  0  0  0  0
  153.9310  133.4420  163.8151 H   0  0  0  0  0  0  0  0  0  0  0  0
  155.1102  132.4073  164.6081 H   0  0  0  0  0  0  0  0  0  0  0  0
  153.6733  134.4735  165.6042 H   0  0  0  0  0  0  0  0  0  0  0  0
  1 24  1  0  0  0  0
  1 25  1  0  0  0  0
  1 26  1  0  0  0  0
  1  2  1  0  0  0  0
  2 20  2  0  0  0  0
  2  3  1  0  0  0  0
  3  4  2  0  0  0  0
  4  5  1  0  0  0  0
  4 17  1  0  0  0  0
  5  6  1  0  0  0  0
  6  7  1  0  0  0  0
  6 27  1  0  0  0  0
  6 28  1  0  0  0  0
  7  8  2  0  0  0  0
  7  9  1  0  0  0  0
  9 10  1  0  0  0  0
  9 29  1  0  0  0  0
 10 15  1  0  0  0  0
 10 11  1  0  0  0  0
 10 30  1  0  0  0  0
 11 12  1  0  0  0  0
 11 31  1  0  0  0  0
 11 32  1  0  0  0  0
 12 13  1  0  0  0  0
 12 33  1  0  0  0  0
 12 34  1  0  0  0  0
 13 14  1  0  0  0  0
 13 35  1  0  0  0  0
 13 36  1  0  0  0  0
 14 15  1  0  0  0  0
 14 37  1  0  0  0  0
 14 38  1  0  0  0  0
 15 16  1  0  0  0  0
 15 39  1  0  0  0  0
 16 40  1  0  0  0  0
 16 41  1  0  0  0  0
 16 42  1  0  0  0  0
 17 18  1  0  0  0  0
 18 19  2  0  0  0  0
 18 20  1  0  0  0  0
 20 21  1  0  0  0  0
 21 22  1  0  0  0  0
 21 43  1  0  0  0  0
 21 44  1  0  0  0  0
 22 23  1  0  0  0  0
 22 45  1  0  0  0  0
 22 46  1  0  0  0  0
 23 47  1  0  0  0  0
M  CHG  1  17  -1
M  END
> <s_m_source_file>
AV-unprocessed.smi

> <i_m_source_file_index>
438

> <i_lp_mmshare_version>
43012

> <i_f3d_flags>
0

> <s_epik_input>
W09IXVtDSDJdW0NIMl1jMWMoW09IXSluYyhuYzFbQ0gzXSlTW0NIMl1DKD1PKVtOSF1bQ0BASF0yW0NIMl1bQ0gyXVtDSDJdW0NIMl1bQ0BIXTJbQ0gzXQ==

> <s_epik_cmdline>
J2VwaWtfcHl0aG9uJywgJy1waCcsICc3LjAnLCAnLXRuJywgJzgnLCAnLW1hJywgJzIwMCcsICctbWV0YWxfYmluZGluZycsICctaW1hZScsICc8aW5maWxlLm1hZT4nLCAnLW9tYWUnLCAnPG91dGZpbGUubWFlPic=

> <r_lp_tautomer_probability>
1

> <r_epik_Ionization_Penalty>
3.69231

> <r_epik_Ionization_Penalty_Charging>
0.00434774

> <r_epik_Ionization_Penalty_Neutral>
3.68796

> <r_epik_State_Penalty>
2.13826

> <r_epik_Charging_Adjusted_Penalty>
2.14261

> <i_epik_Tot_Q>
-1

> <i_epik_Tot_abs_Q>
1

> <r_epik_Metal_State_Penalty>
0.260979

> <b_epik_Metal_Only>
0

> <s_lp_Force_Field>
OPLS_2005

> <r_lp_Energy>
19.4347

> <b_lp_Chiralities_Consistent>
1

> <s_lp_Variant>
AV-unprocessed.smi:438-9

> <Gold.Version>
5.8.1

> <Gold.Id.Protein>
6NUR|6NUR_protein|mol2

> <Gold.PLP.Fitness>
46.3532

> <Gold.PLP.PLP>
-39.5457

> <Gold.PLP.part.hbond>
-2.6257

> <Gold.PLP.part.metal>
0.0000

> <Gold.PLP.part.buried>
-6.4228

> <Gold.PLP.part.nonpolar>
-31.2844

> <Gold.PLP.part.repulsive>
0.1101

> <Gold.PLP.ligand.clash>
0.0000

> <Gold.PLP.ligand.torsion>
1.1121

> <Gold.PLP.Chemscore.Hbond>
2.9825

> <Gold.PLP.Chemscore.CHOScore>
0.0000

> <Gold.PLP.Chemscore.Metal>
0.0000

> <Gold.Chemscore.Hbonds>
donor molecule, donor type, donor heavy atom, donor atom, acceptor molecule, acceptor atom, score
      P1  H  6896  6907       L1    17  1.14
      P1  H  7997  8009       L1     8  1.00

> <Gold.PLP.Chemscore.Internal.Correction>
0.0842

> <Gold.Rescore>
     Score         DG    S(hbond)    S(metal)    S(lipo)     H(rot)  DE(clash)    DE(int)     intcor
     12.55     -14.29       1.19        0.00     102.45       2.79       0.12       1.62       ----

> <Gold.Chemscore.Fitness>
12.5547

> <Gold.Chemscore.DG>
-14.2944

> <Gold.Chemscore.ZeroCoef>
-5.4800

> <Gold.Chemscore.Hbond>
1.1906

> <Gold.Chemscore.Metal>
0.0000

> <Gold.Chemscore.Lipo>
102.4548

> <Gold.Chemscore.Internal_Hbond>
0.0000

> <Gold.Chemscore.DEClash>
0.1195

> <Gold.Chemscore.DEInternal>
1.6202

> <Gold.Chemscore.Rot>
2.7927

> <Gold.Chemscore.Internal.Correction>
   9.000000E+99

> <Gold.Chemscore.Hbonds>
donor molecule, donor type, donor heavy atom, donor atom, acceptor molecule, acceptor atom, score
      P1  H  6896  6907       L1    17  0.08
      P1  H  7997  8009       L1     8  0.88

> <Gold.Chemscore.Hbond.Weighted>
-3.9765

> <Gold.Chemscore.Metal.Weighted>
-0.0000

> <Gold.Chemscore.Lipo.Weighted>
-11.9872

> <Gold.Chemscore.Internal_Hbond.Weighted>
0.0000

> <Gold.Chemscore.DEClash.Weighted>
0.1195

> <Gold.Chemscore.DEInternal.Weighted>
1.6202

> <Gold.Chemscore.Rot.Weighted>
7.1492

> <Gold.Chemscore.Internal.Correction.Weighted>
   9.000000E+99

> <Gold.Protein.RotatedTorsions>
[ 6907 6896 6895 6894 ] final   94.09 input  -60.11 | X-H torsion
[ 7974 7965 7964 7962 ] final  -10.38 input  175.53 | X-H torsion
[ 8008 7997 7996 7995 ] final  118.93 input   59.86 | X-H torsion
[ 10167 10162 10161 10158 ] final  -97.48 input  -65.29 | X-H torsion
[ 10718 10713 10712 10709 ] final  -86.54 input   66.30 | X-H torsion
[ 10763 10752 10751 10750 ] final   80.00 input  -60.55 | X-H torsion
[ 11005 11000 10999 10996 ] final   86.78 input  -57.11 | X-H torsion

> <Gold.Protein.ActiveResidues>
 VAL166  LYS551  ARG553  GLY616  TRP617  ASP618  TYR619  PRO620  LYS621  CYS622 
 ASP623  PHE694  ASN695  SER759  ASP760  ASP761  ALA762  ILE779  LEU786  VAL792 
 PHE793  MET794  SER795  GLU796  ALA797  LYS798  CYS799  TRP800  GLU811  SER814 

> <Gold.Protein.RotatedAtoms>
  152.5451  134.1247  159.8413 H   0  0  0  0  0  0  0  0  0  0  0  0  # atno 6907 bound_to 6896
  151.1299  133.5037  159.2607 H   0  0  0  0  0  0  0  0  0  0  0  0  # atno 6908 bound_to 6896
  151.1687  135.0317  159.8797 H   0  0  0  0  0  0  0  0  0  0  0  0  # atno 6909 bound_to 6896
  146.2222  140.2756  142.8359 H   0  0  0  0  0  0  0  0  0  0  0  0  # atno 7974 bound_to 7965
  156.2571  140.2864  156.0912 H   0  0  0  0  0  0  0  0  0  0  0  0  # atno 8008 bound_to 7997
  155.1461  140.0396  157.2827 H   0  0  0  0  0  0  0  0  0  0  0  0  # atno 8009 bound_to 7997
  154.6494  140.2541  155.7237 H   0  0  0  0  0  0  0  0  0  0  0  0  # atno 8010 bound_to 7997
  140.2829  143.3270  152.0423 H   0  0  0  0  0  0  0  0  0  0  0  0  # atno 10167 bound_to 10162
  155.9989  130.4769  150.4731 H   0  0  0  0  0  0  0  0  0  0  0  0  # atno 10718 bound_to 10713
  153.0998  135.4819  154.8845 H   0  0  0  0  0  0  0  0  0  0  0  0  # atno 10763 bound_to 10752
  154.7366  135.3072  154.8804 H   0  0  0  0  0  0  0  0  0  0  0  0  # atno 10764 bound_to 10752
  153.9424  135.6832  153.4797 H   0  0  0  0  0  0  0  0  0  0  0  0  # atno 10765 bound_to 10752
  139.8936  134.8378  156.2768 H   0  0  0  0  0  0  0  0  0  0  0  0  # atno 11005 bound_to 11000
  144.9235  140.7895  143.5733 LP  0  0  0  0  0  0  0  0  0  0  0  0  # atno 17320 bound_to 7965
  145.2694  139.1960  143.4849 LP  0  0  0  0  0  0  0  0  0  0  0  0  # atno 17321 bound_to 7965
  139.4958  144.6579  151.6531 LP  0  0  0  0  0  0  0  0  0  0  0  0  # atno 17342 bound_to 10162
  140.5796  143.9968  150.6261 LP  0  0  0  0  0  0  0  0  0  0  0  0  # atno 17343 bound_to 10162
  157.2744  131.0594  151.2239 LP  0  0  0  0  0  0  0  0  0  0  0  0  # atno 17370 bound_to 10713
  157.3308  130.6984  149.6323 LP  0  0  0  0  0  0  0  0  0  0  0  0  # atno 17371 bound_to 10713
  141.0065  133.7121  156.1042 LP  0  0  0  0  0  0  0  0  0  0  0  0  # atno 17394 bound_to 11000
  140.7427  134.4132  157.5552 LP  0  0  0  0  0  0  0  0  0  0  0  0  # atno 17395 bound_to 11000

$$$$
