AV-unprocessed.smi:2725|AV-procd|sdf|10517|dock8
  -GOLD-   2272014553D 1   1.00000     0.00000
 Structure written by MMmdl.
 45 46  0  0  0  0  0  0  0  0  2 V2000
  149.9212  140.3160  157.1239 O   0  0  0  0  0  0  0  0  0  0  0  0
  149.8249  141.4911  156.7686 C   0  0  0  0  0  0  0  0  0  0  0  0
  150.7055  142.5756  157.3969 C   0  0  0  0  0  0  0  0  0  0  0  0
  151.7659  142.0144  158.3640 C   0  0  0  0  0  0  0  0  0  0  0  0
  152.3220  143.0750  159.3306 C   0  0  0  0  0  0  0  0  0  0  0  0
  152.2080  142.7072  160.8139 C   0  0  0  0  0  0  0  0  0  0  0  0
  152.2818  144.0385  161.5723 C   0  0  0  0  0  0  0  0  0  0  0  0
  151.9632  145.1392  160.5492 C   0  0  0  0  0  0  0  0  0  0  0  0
  151.5911  144.4167  159.2514 C   0  0  0  0  0  0  0  0  0  0  0  0
  148.9633  141.9044  155.8263 N   0  0  0  0  0  0  0  0  0  0  0  0
  148.0481  141.0425  155.0807 C   0  0  2  0  0  0  0  0  0  0  0  0
  148.8816  140.0867  154.2022 C   0  0  0  0  0  0  0  0  0  0  0  0
  149.8607  140.8127  153.4903 O   0  0  0  0  0  0  0  0  0  0  0  0
  147.0802  141.9255  154.2594 C   0  0  0  0  0  0  0  0  0  0  0  0
  145.9109  142.4593  155.0681 C   0  0  0  0  0  0  0  0  0  0  0  0
  146.1042  143.2049  156.2513 C   0  0  0  0  0  0  0  0  0  0  0  0
  144.9804  143.6661  156.9678 C   0  0  0  0  0  0  0  0  0  0  0  0
  143.6875  143.3714  156.4874 C   0  0  0  0  0  0  0  0  0  0  0  0
  143.5514  142.6225  155.3009 C   0  0  0  0  0  0  0  0  0  0  0  0
  144.6529  142.1988  154.6428 N   0  3  0  0  0  0  0  0  0  0  0  0
  151.1872  143.1317  156.5923 H   0  0  0  0  0  0  0  0  0  0  0  0
  150.0677  143.2832  157.9289 H   0  0  0  0  0  0  0  0  0  0  0  0
  151.3255  141.2056  158.9491 H   0  0  0  0  0  0  0  0  0  0  0  0
  152.5865  141.5699  157.7990 H   0  0  0  0  0  0  0  0  0  0  0  0
  153.3735  143.2522  159.0983 H   0  0  0  0  0  0  0  0  0  0  0  0
  151.2435  142.2356  161.0068 H   0  0  0  0  0  0  0  0  0  0  0  0
  152.9835  142.0091  161.1309 H   0  0  0  0  0  0  0  0  0  0  0  0
  151.5816  144.0506  162.4081 H   0  0  0  0  0  0  0  0  0  0  0  0
  153.2808  144.1902  161.9829 H   0  0  0  0  0  0  0  0  0  0  0  0
  151.1639  145.7988  160.8883 H   0  0  0  0  0  0  0  0  0  0  0  0
  152.8487  145.7552  160.3883 H   0  0  0  0  0  0  0  0  0  0  0  0
  151.8611  144.9900  158.3639 H   0  0  0  0  0  0  0  0  0  0  0  0
  150.5127  144.2526  159.2236 H   0  0  0  0  0  0  0  0  0  0  0  0
  148.9582  142.8863  155.5905 H   0  0  0  0  0  0  0  0  0  0  0  0
  147.4550  140.4539  155.7843 H   0  0  0  0  0  0  0  0  0  0  0  0
  149.4178  139.3593  154.8096 H   0  0  0  0  0  0  0  0  0  0  0  0
  148.2541  139.5209  153.5123 H   0  0  0  0  0  0  0  0  0  0  0  0
  150.5000  140.2058  153.1490 H   0  0  0  0  0  0  0  0  0  0  0  0
  147.6105  142.7876  153.8523 H   0  0  0  0  0  0  0  0  0  0  0  0
  146.7060  141.3710  153.3975 H   0  0  0  0  0  0  0  0  0  0  0  0
  147.1018  143.4185  156.6077 H   0  0  0  0  0  0  0  0  0  0  0  0
  145.1085  144.2377  157.8755 H   0  0  0  0  0  0  0  0  0  0  0  0
  142.8135  143.7147  157.0216 H   0  0  0  0  0  0  0  0  0  0  0  0
  142.6024  142.3512  154.8618 H   0  0  0  0  0  0  0  0  0  0  0  0
  144.5302  141.6584  153.7864 H   0  0  0  0  0  0  0  0  0  0  0  0
  1  2  2  0  0  0  0
  2  3  1  0  0  0  0
  2 10  1  0  0  0  0
  3  4  1  0  0  0  0
  3 21  1  0  0  0  0
  3 22  1  0  0  0  0
  4  5  1  0  0  0  0
  4 23  1  0  0  0  0
  4 24  1  0  0  0  0
  5  9  1  0  0  0  0
  5  6  1  0  0  0  0
  5 25  1  0  0  0  0
  6  7  1  0  0  0  0
  6 26  1  0  0  0  0
  6 27  1  0  0  0  0
  7  8  1  0  0  0  0
  7 28  1  0  0  0  0
  7 29  1  0  0  0  0
  8  9  1  0  0  0  0
  8 30  1  0  0  0  0
  8 31  1  0  0  0  0
  9 32  1  0  0  0  0
  9 33  1  0  0  0  0
 10 11  1  0  0  0  0
 10 34  1  0  0  0  0
 11 12  1  0  0  0  0
 11 14  1  0  0  0  0
 11 35  1  0  0  0  0
 12 13  1  0  0  0  0
 12 36  1  0  0  0  0
 12 37  1  0  0  0  0
 13 38  1  0  0  0  0
 14 15  1  0  0  0  0
 14 39  1  0  0  0  0
 14 40  1  0  0  0  0
 15 20  1  0  0  0  0
 15 16  2  0  0  0  0
 16 17  1  0  0  0  0
 16 41  1  0  0  0  0
 17 18  2  0  0  0  0
 17 42  1  0  0  0  0
 18 19  1  0  0  0  0
 18 43  1  0  0  0  0
 19 20  2  0  0  0  0
 19 44  1  0  0  0  0
 20 45  1  0  0  0  0
M  CHG  1  20   1
M  END
> <s_m_source_file>
AV-unprocessed.smi

> <i_m_source_file_index>
2725

> <i_lp_mmshare_version>
43012

> <i_f3d_flags>
0

> <s_epik_input>
W0NIMl0xW0NIMl1bQ0gyXVtDSDJdW0NIXTFbQ0gyXVtDSDJdQyg9TylbTkhdW0NASF0oW0NIMl1bT0hdKVtDSDJdYzJbY0hdW2NIXVtjSF1bY0hdbjI=

> <s_epik_cmdline>
J2VwaWtfcHl0aG9uJywgJy1waCcsICc3LjAnLCAnLXRuJywgJzgnLCAnLW1hJywgJzIwMCcsICctbWV0YWxfYmluZGluZycsICctaW1hZScsICc8aW5maWxlLm1hZT4nLCAnLW9tYWUnLCAnPG91dGZpbGUubWFlPic=

> <r_epik_Ionization_Penalty>
1.87189

> <r_epik_Ionization_Penalty_Charging>
1.87189

> <r_epik_Ionization_Penalty_Neutral>
6.79411e-08

> <r_epik_State_Penalty>
1.99097

> <r_epik_Charging_Adjusted_Penalty>
3.86287

> <i_epik_Tot_Q>
1

> <i_epik_Tot_abs_Q>
1

> <r_epik_Metal_State_Penalty>
2.01578

> <b_epik_Metal_Only>
0

> <s_lp_Force_Field>
OPLS_2005

> <r_lp_Energy>
30.4182

> <b_lp_Chiralities_Consistent>
1

> <s_lp_Variant>
AV-unprocessed.smi:2725-3

> <Gold.Version>
5.8.1

> <Gold.Id.Protein>
6NUR|6NUR_protein|mol2

> <Gold.PLP.Fitness>
50.3029

> <Gold.PLP.PLP>
-40.5734

> <Gold.PLP.part.hbond>
-4.4847

> <Gold.PLP.part.metal>
0.0000

> <Gold.PLP.part.buried>
-4.7074

> <Gold.PLP.part.nonpolar>
-31.5781

> <Gold.PLP.part.repulsive>
0.0895

> <Gold.PLP.ligand.clash>
0.0000

> <Gold.PLP.ligand.torsion>
1.2118

> <Gold.PLP.Chemscore.Hbond>
4.0000

> <Gold.PLP.Chemscore.CHOScore>
0.0000

> <Gold.PLP.Chemscore.Metal>
0.0000

> <Gold.Chemscore.Hbonds>
donor molecule, donor type, donor heavy atom, donor atom, acceptor molecule, acceptor atom, score
      L1  H    10    34       P1  8028  1.00
      L1  H    20    45       P1 10175  1.30
      P1  H  8011  8017       L1    13  1.00

> <Gold.PLP.Chemscore.Internal.Correction>
0.1531

> <Gold.Rescore>
     Score         DG    S(hbond)    S(metal)    S(lipo)     H(rot)  DE(clash)    DE(int)     intcor
     18.82     -20.27       2.57        0.00     109.34       2.58       0.24       1.21       ----

> <Gold.Chemscore.Fitness>
18.8211

> <Gold.Chemscore.DG>
-20.2694

> <Gold.Chemscore.ZeroCoef>
-5.4800

> <Gold.Chemscore.Hbond>
2.5731

> <Gold.Chemscore.Metal>
0.0000

> <Gold.Chemscore.Lipo>
109.3430

> <Gold.Chemscore.Internal_Hbond>
0.0000

> <Gold.Chemscore.DEClash>
0.2420

> <Gold.Chemscore.DEInternal>
1.2064

> <Gold.Chemscore.Rot>
2.5773

> <Gold.Chemscore.Internal.Correction>
   9.000000E+99

> <Gold.Chemscore.Hbonds>
donor molecule, donor type, donor heavy atom, donor atom, acceptor molecule, acceptor atom, score
      L1  H    10    34       P1  8028  1.00
      L1  H    13    38       P1  7957  0.02
      L1  H    20    45       P1 10175  0.06
      P1  H  8011  8017       L1    13  0.67

> <Gold.Chemscore.Hbond.Weighted>
-8.5941

> <Gold.Chemscore.Metal.Weighted>
-0.0000

> <Gold.Chemscore.Lipo.Weighted>
-12.7931

> <Gold.Chemscore.Internal_Hbond.Weighted>
0.0000

> <Gold.Chemscore.DEClash.Weighted>
0.2420

> <Gold.Chemscore.DEInternal.Weighted>
1.2064

> <Gold.Chemscore.Rot.Weighted>
6.5978

> <Gold.Chemscore.Internal.Correction.Weighted>
   9.000000E+99

> <Gold.Protein.RotatedTorsions>
[ 6907 6896 6895 6894 ] final  113.54 input  -60.11 | X-H torsion
[ 7974 7965 7964 7962 ] final -119.82 input  175.53 | X-H torsion
[ 8008 7997 7996 7995 ] final   42.78 input   59.86 | X-H torsion
[ 10167 10162 10161 10158 ] final  113.48 input  -65.29 | X-H torsion
[ 10718 10713 10712 10709 ] final  163.26 input   66.30 | X-H torsion
[ 10763 10752 10751 10750 ] final  -81.35 input  -60.55 | X-H torsion
[ 11005 11000 10999 10996 ] final -140.43 input  -57.11 | X-H torsion

> <Gold.Protein.ActiveResidues>
 VAL166  LYS551  ARG553  GLY616  TRP617  ASP618  TYR619  PRO620  LYS621  CYS622 
 ASP623  PHE694  ASN695  SER759  ASP760  ASP761  ALA762  ILE779  LEU786  VAL792 
 PHE793  MET794  SER795  GLU796  ALA797  LYS798  CYS799  TRP800  GLU811  SER814 

> <Gold.Protein.RotatedAtoms>
  152.4854  133.8361  159.7127 H   0  0  0  0  0  0  0  0  0  0  0  0  # atno 6907 bound_to 6896
  150.8937  133.7200  159.2904 H   0  0  0  0  0  0  0  0  0  0  0  0  # atno 6908 bound_to 6896
  151.4664  135.1046  159.9791 H   0  0  0  0  0  0  0  0  0  0  0  0  # atno 6909 bound_to 6896
  145.0583  140.8271  143.4168 H   0  0  0  0  0  0  0  0  0  0  0  0  # atno 7974 bound_to 7965
  155.2918  140.3379  155.4252 H   0  0  0  0  0  0  0  0  0  0  0  0  # atno 8008 bound_to 7997
  156.2042  140.1744  156.7875 H   0  0  0  0  0  0  0  0  0  0  0  0  # atno 8009 bound_to 7997
  154.5599  140.0689  156.8786 H   0  0  0  0  0  0  0  0  0  0  0  0  # atno 8010 bound_to 7997
  139.6458  144.7126  151.2145 H   0  0  0  0  0  0  0  0  0  0  0  0  # atno 10167 bound_to 10162
  157.1109  131.0467  151.2457 H   0  0  0  0  0  0  0  0  0  0  0  0  # atno 10718 bound_to 10713
  154.5625  135.5629  153.7020 H   0  0  0  0  0  0  0  0  0  0  0  0  # atno 10763 bound_to 10752
  153.0022  135.6277  154.2225 H   0  0  0  0  0  0  0  0  0  0  0  0  # atno 10764 bound_to 10752
  154.2163  135.2871  155.2920 H   0  0  0  0  0  0  0  0  0  0  0  0  # atno 10765 bound_to 10752
  140.8423  134.2387  157.4804 H   0  0  0  0  0  0  0  0  0  0  0  0  # atno 11005 bound_to 11000
  145.1441  139.2554  143.5475 LP  0  0  0  0  0  0  0  0  0  0  0  0  # atno 17320 bound_to 7965
  146.3523  140.1126  142.8603 LP  0  0  0  0  0  0  0  0  0  0  0  0  # atno 17321 bound_to 7965
  140.7514  143.6233  150.8492 LP  0  0  0  0  0  0  0  0  0  0  0  0  # atno 17342 bound_to 10162
  139.9875  143.5883  152.2921 LP  0  0  0  0  0  0  0  0  0  0  0  0  # atno 17343 bound_to 10162
  157.4560  130.7625  149.7193 LP  0  0  0  0  0  0  0  0  0  0  0  0  # atno 17370 bound_to 10713
  155.9850  130.3986  150.3280 LP  0  0  0  0  0  0  0  0  0  0  0  0  # atno 17371 bound_to 10713
  139.8703  134.9642  156.4486 LP  0  0  0  0  0  0  0  0  0  0  0  0  # atno 17394 bound_to 11000
  140.8881  133.7868  155.9541 LP  0  0  0  0  0  0  0  0  0  0  0  0  # atno 17395 bound_to 11000

$$$$
