AV-unprocessed.smi:3058|AV-procd|sdf|11674|dock3
  -GOLD-   2272017 73D 1   1.00000     0.00000
 Structure written by MMmdl.
 39 41  0  0  0  0  0  0  0  0  2 V2000
  150.0679  141.6624  158.5040 O   0  0  0  0  0  0  0  0  0  0  0  0
  149.7871  142.7048  157.9107 C   0  0  0  0  0  0  0  0  0  0  0  0
  148.9017  142.7534  156.9034 N   0  0  0  0  0  0  0  0  0  0  0  0
  148.1770  141.6050  156.3731 C   0  0  0  0  0  0  0  0  0  0  0  0
  148.4570  141.4021  154.8750 C   0  0  0  0  0  0  0  0  0  0  0  0
  149.4293  140.2659  154.6264 C   0  0  0  0  0  0  0  0  0  0  0  0
  150.7258  140.2984  155.1858 C   0  0  0  0  0  0  0  0  0  0  0  0
  151.6101  139.2264  154.9445 C   0  0  0  0  0  0  0  0  0  0  0  0
  151.1772  138.1452  154.1501 C   0  0  0  0  0  0  0  0  0  0  0  0
  149.9290  138.1485  153.6321 N   0  3  0  0  0  0  0  0  0  0  0  0
  149.0528  139.1562  153.8390 C   0  0  0  0  0  0  0  0  0  0  0  0
  150.4312  144.0443  158.3104 C   0  0  1  0  0  0  0  0  0  0  0  0
  150.1501  144.4901  159.7670 C   0  0  0  0  0  0  0  0  0  0  0  0
  151.5608  144.7513  160.3277 C   0  0  1  0  0  0  0  0  0  0  0  0
  152.2809  143.4088  160.5552 C   0  0  0  0  0  0  0  0  0  0  0  0
  152.6284  142.9631  159.1229 C   0  0  0  0  0  0  0  0  0  0  0  0
  151.9824  144.0677  158.2574 C   0  0  2  0  0  0  0  0  0  0  0  0
  152.2867  145.2999  159.1046 C   0  0  0  0  0  0  0  0  0  0  0  0
  148.7191  143.6495  156.4752 H   0  0  0  0  0  0  0  0  0  0  0  0
  148.4394  140.7082  156.9371 H   0  0  0  0  0  0  0  0  0  0  0  0
  147.1115  141.7714  156.5339 H   0  0  0  0  0  0  0  0  0  0  0  0
  147.5261  141.1991  154.3439 H   0  0  0  0  0  0  0  0  0  0  0  0
  148.8659  142.3142  154.4379 H   0  0  0  0  0  0  0  0  0  0  0  0
  151.0396  141.1338  155.7950 H   0  0  0  0  0  0  0  0  0  0  0  0
  152.6055  139.2340  155.3643 H   0  0  0  0  0  0  0  0  0  0  0  0
  151.7867  137.2844  153.9159 H   0  0  0  0  0  0  0  0  0  0  0  0
  148.0843  139.0431  153.3737 H   0  0  0  0  0  0  0  0  0  0  0  0
  150.0504  144.8171  157.6396 H   0  0  0  0  0  0  0  0  0  0  0  0
  149.5635  145.4098  159.7707 H   0  0  0  0  0  0  0  0  0  0  0  0
  149.6045  143.7599  160.3661 H   0  0  0  0  0  0  0  0  0  0  0  0
  151.5685  145.4042  161.2010 H   0  0  0  0  0  0  0  0  0  0  0  0
  153.1880  143.5442  161.1457 H   0  0  0  0  0  0  0  0  0  0  0  0
  151.6486  142.6865  161.0727 H   0  0  0  0  0  0  0  0  0  0  0  0
  153.7104  142.9625  158.9839 H   0  0  0  0  0  0  0  0  0  0  0  0
  152.2798  141.9571  158.8930 H   0  0  0  0  0  0  0  0  0  0  0  0
  152.3804  144.1147  157.2433 H   0  0  0  0  0  0  0  0  0  0  0  0
  151.8438  146.2176  158.7133 H   0  0  0  0  0  0  0  0  0  0  0  0
  153.3533  145.4618  159.2708 H   0  0  0  0  0  0  0  0  0  0  0  0
  149.6354  137.3557  153.0606 H   0  0  0  0  0  0  0  0  0  0  0  0
  1  2  2  0  0  0  0
  2  3  1  0  0  0  0
  2 12  1  0  0  0  0
  3  4  1  0  0  0  0
  3 19  1  0  0  0  0
  4  5  1  0  0  0  0
  4 20  1  0  0  0  0
  4 21  1  0  0  0  0
  5  6  1  0  0  0  0
  5 22  1  0  0  0  0
  5 23  1  0  0  0  0
  6 11  1  0  0  0  0
  6  7  2  0  0  0  0
  7  8  1  0  0  0  0
  7 24  1  0  0  0  0
  8  9  2  0  0  0  0
  8 25  1  0  0  0  0
  9 10  1  0  0  0  0
  9 26  1  0  0  0  0
 10 11  2  0  0  0  0
 10 39  1  0  0  0  0
 11 27  1  0  0  0  0
 12 17  1  0  0  0  0
 12 13  1  0  0  0  0
 12 28  1  0  0  0  0
 13 14  1  0  0  0  0
 13 29  1  0  0  0  0
 13 30  1  0  0  0  0
 14 18  1  0  0  0  0
 14 15  1  0  0  0  0
 14 31  1  0  0  0  0
 15 16  1  0  0  0  0
 15 32  1  0  0  0  0
 15 33  1  0  0  0  0
 16 17  1  0  0  0  0
 16 34  1  0  0  0  0
 16 35  1  0  0  0  0
 17 18  1  0  0  0  0
 17 36  1  0  0  0  0
 18 37  1  0  0  0  0
 18 38  1  0  0  0  0
M  CHG  1  10   1
M  END
> <s_m_source_file>
AV-unprocessed.smi

> <i_m_source_file_index>
3058

> <i_lp_mmshare_version>
43012

> <i_f3d_flags>
0

> <s_epik_input>
W0NIMl0xW0NIMl1bQ0BIXShbQ0gyXTIpW0NAQEhdKFtDSDJdW0NAQEhdMTIpQyg9TylbTkhdW0NIMl1bQ0gyXWMzW2NIXVtjSF1bY0hdbltjSF0z

> <s_epik_cmdline>
J2VwaWtfcHl0aG9uJywgJy1waCcsICc3LjAnLCAnLXRuJywgJzgnLCAnLW1hJywgJzIwMCcsICctbWV0YWxfYmluZGluZycsICctaW1hZScsICc8aW5maWxlLm1hZT4nLCAnLW9tYWUnLCAnPG91dGZpbGUubWFlPic=

> <r_epik_Ionization_Penalty>
2.24375

> <r_epik_Ionization_Penalty_Charging>
2.24375

> <r_epik_Ionization_Penalty_Neutral>
1.89995e-08

> <r_epik_State_Penalty>
2.39035

> <r_epik_Charging_Adjusted_Penalty>
4.63411

> <i_epik_Tot_Q>
1

> <i_epik_Tot_abs_Q>
1

> <r_epik_Metal_State_Penalty>
2.40369

> <b_epik_Metal_Only>
0

> <s_lp_Force_Field>
OPLS_2005

> <r_lp_Energy>
53.8875

> <b_lp_Chiralities_Consistent>
1

> <s_lp_Variant>
AV-unprocessed.smi:3058-6

> <Gold.Version>
5.8.1

> <Gold.Id.Protein>
6NUR|6NUR_protein|mol2

> <Gold.PLP.Fitness>
53.3852

> <Gold.PLP.PLP>
-45.0374

> <Gold.PLP.part.hbond>
-2.5661

> <Gold.PLP.part.metal>
0.0000

> <Gold.PLP.part.buried>
-4.6154

> <Gold.PLP.part.nonpolar>
-38.4422

> <Gold.PLP.part.repulsive>
0.0929

> <Gold.PLP.ligand.clash>
0.0000

> <Gold.PLP.ligand.torsion>
0.3164

> <Gold.PLP.Chemscore.Hbond>
2.9840

> <Gold.PLP.Chemscore.CHOScore>
0.0000

> <Gold.PLP.Chemscore.Metal>
0.0000

> <Gold.Chemscore.Hbonds>
donor molecule, donor type, donor heavy atom, donor atom, acceptor molecule, acceptor atom, score
      L1  H     3    19       P1  8028  0.54
      L1  H    10    39       P1  7948  2.00

> <Gold.PLP.Chemscore.Internal.Correction>
0.0285

> <Gold.Rescore>
     Score         DG    S(hbond)    S(metal)    S(lipo)     H(rot)  DE(clash)    DE(int)     intcor
     20.67     -22.72       1.78        0.00     128.28       1.45       0.54       1.52       ----

> <Gold.Chemscore.Fitness>
20.6656

> <Gold.Chemscore.DG>
-22.7181

> <Gold.Chemscore.ZeroCoef>
-5.4800

> <Gold.Chemscore.Hbond>
1.7826

> <Gold.Chemscore.Metal>
0.0000

> <Gold.Chemscore.Lipo>
128.2778

> <Gold.Chemscore.Internal_Hbond>
0.0000

> <Gold.Chemscore.DEClash>
0.5370

> <Gold.Chemscore.DEInternal>
1.5154

> <Gold.Chemscore.Rot>
1.4548

> <Gold.Chemscore.Internal.Correction>
   9.000000E+99

> <Gold.Chemscore.Hbonds>
donor molecule, donor type, donor heavy atom, donor atom, acceptor molecule, acceptor atom, score
      L1  H     3    19       P1  8028  0.35
      L1  H    10    39       P1  7948  0.65

> <Gold.Chemscore.Hbond.Weighted>
-5.9538

> <Gold.Chemscore.Metal.Weighted>
-0.0000

> <Gold.Chemscore.Lipo.Weighted>
-15.0085

> <Gold.Chemscore.Internal_Hbond.Weighted>
0.0000

> <Gold.Chemscore.DEClash.Weighted>
0.5370

> <Gold.Chemscore.DEInternal.Weighted>
1.5154

> <Gold.Chemscore.Rot.Weighted>
3.7242

> <Gold.Chemscore.Internal.Correction.Weighted>
   9.000000E+99

> <Gold.Protein.RotatedTorsions>
[ 6907 6896 6895 6894 ] final   78.09 input  -60.11 | X-H torsion
[ 7974 7965 7964 7962 ] final  -94.13 input  175.53 | X-H torsion
[ 8008 7997 7996 7995 ] final  161.35 input   59.86 | X-H torsion
[ 10167 10162 10161 10158 ] final  -12.40 input  -65.29 | X-H torsion
[ 10718 10713 10712 10709 ] final  -99.96 input   66.30 | X-H torsion
[ 10763 10752 10751 10750 ] final -113.22 input  -60.55 | X-H torsion
[ 11005 11000 10999 10996 ] final   96.12 input  -57.11 | X-H torsion

> <Gold.Protein.ActiveResidues>
 VAL166  LYS551  ARG553  GLY616  TRP617  ASP618  TYR619  PRO620  LYS621  CYS622 
 ASP623  PHE694  ASN695  SER759  ASP760  ASP761  ALA762  ILE779  LEU786  VAL792 
 PHE793  MET794  SER795  GLU796  ALA797  LYS798  CYS799  TRP800  GLU811  SER814 

> <Gold.Protein.RotatedAtoms>
  152.5145  134.3717  159.9319 H   0  0  0  0  0  0  0  0  0  0  0  0  # atno 6907 bound_to 6896
  151.3671  133.3862  159.2703 H   0  0  0  0  0  0  0  0  0  0  0  0  # atno 6908 bound_to 6896
  150.9606  134.9014  159.7787 H   0  0  0  0  0  0  0  0  0  0  0  0  # atno 6909 bound_to 6896
  145.3774  140.9513  143.2413 H   0  0  0  0  0  0  0  0  0  0  0  0  # atno 7974 bound_to 7965
  156.2109  140.1779  156.7697 H   0  0  0  0  0  0  0  0  0  0  0  0  # atno 8008 bound_to 7997
  154.5721  140.0680  156.9009 H   0  0  0  0  0  0  0  0  0  0  0  0  # atno 8009 bound_to 7997
  155.2654  140.3339  155.4272 H   0  0  0  0  0  0  0  0  0  0  0  0  # atno 8010 bound_to 7997
  140.7160  143.5536  150.9273 H   0  0  0  0  0  0  0  0  0  0  0  0  # atno 10167 bound_to 10162
  156.0149  130.5306  150.6747 H   0  0  0  0  0  0  0  0  0  0  0  0  # atno 10718 bound_to 10713
  154.8386  135.4462  154.1315 H   0  0  0  0  0  0  0  0  0  0  0  0  # atno 10763 bound_to 10752
  153.2524  135.6928  153.7671 H   0  0  0  0  0  0  0  0  0  0  0  0  # atno 10764 bound_to 10752
  153.6978  135.3377  155.3193 H   0  0  0  0  0  0  0  0  0  0  0  0  # atno 10765 bound_to 10752
  139.8784  134.8934  156.4111 H   0  0  0  0  0  0  0  0  0  0  0  0  # atno 11005 bound_to 11000
  144.8532  139.5289  143.6846 LP  0  0  0  0  0  0  0  0  0  0  0  0  # atno 17320 bound_to 7965
  146.2858  139.6999  142.9197 LP  0  0  0  0  0  0  0  0  0  0  0  0  # atno 17321 bound_to 7965
  139.9261  143.6548  152.3086 LP  0  0  0  0  0  0  0  0  0  0  0  0  # atno 17342 bound_to 10162
  139.6983  144.7638  151.1318 LP  0  0  0  0  0  0  0  0  0  0  0  0  # atno 17343 bound_to 10162
  157.4462  131.0867  151.0893 LP  0  0  0  0  0  0  0  0  0  0  0  0  # atno 17370 bound_to 10713
  157.1422  130.6148  149.5558 LP  0  0  0  0  0  0  0  0  0  0  0  0  # atno 17371 bound_to 10713
  140.9200  133.7652  155.9894 LP  0  0  0  0  0  0  0  0  0  0  0  0  # atno 17394 bound_to 11000
  140.8451  134.3021  157.5298 LP  0  0  0  0  0  0  0  0  0  0  0  0  # atno 17395 bound_to 11000

$$$$
