AV-unprocessed.smi:21|AV-procd|sdf|124|dock1
  -GOLD-   2262015303D 1   1.00000     0.00000
 Structure written by MMmdl.
 62 65  0  0  0  0  0  0  0  0  2 V2000
  145.4896  131.7835  151.0361 C   0  0  0  0  0  0  0  0  0  0  0  0
  146.2492  131.5045  152.2014 O   0  0  0  0  0  0  0  0  0  0  0  0
  147.1971  132.5139  152.5172 C   0  0  2  0  0  0  0  0  0  0  0  0
  147.8789  132.2917  153.8615 C   0  0  0  0  0  0  0  0  0  0  0  0
  148.3451  133.6938  154.2856 C   0  0  2  0  0  0  0  0  0  0  0  0
  148.5001  133.8722  155.8206 C   0  0  0  0  0  0  0  0  0  0  0  0
  149.7489  134.5286  156.2154 N   0  0  0  0  0  0  0  0  0  0  0  0
  150.8196  133.6747  156.7243 C   0  0  0  0  0  0  0  0  0  0  0  0
  149.6993  135.8194  156.6484 C   0  0  0  0  0  0  0  0  0  0  0  0
  148.6276  136.2247  157.3827 N   0  0  0  0  0  0  0  0  0  0  0  0
  148.5055  137.4976  157.7678 C   0  0  0  0  0  0  0  0  0  0  0  0
  149.3231  138.5223  157.5263 N   0  0  0  0  0  0  0  0  0  0  0  0
  150.4110  138.1247  156.8081 C   0  0  0  0  0  0  0  0  0  0  0  0
  150.6855  136.8056  156.3453 C   0  0  0  0  0  0  0  0  0  0  0  0
  151.9015  136.7955  155.6692 N   0  0  0  0  0  0  0  0  0  0  0  0
  152.3057  138.0353  155.7064 C   0  0  0  0  0  0  0  0  0  0  0  0
  151.4592  138.9037  156.3544 N   0  0  0  0  0  0  0  0  0  0  0  0
  151.6375  140.3336  156.5246 C   0  0  0  0  0  0  0  0  0  0  0  0
  150.4961  141.0126  157.3291 C   0  0  2  0  0  0  0  0  0  0  0  0
  149.2817  141.3807  156.4375 C   0  0  0  0  0  0  0  0  0  0  0  0
  149.6722  142.0106  155.2338 O   0  0  0  0  0  0  0  0  0  0  0  0
  151.0312  142.2588  158.0819 C   0  0  2  0  0  0  0  0  0  0  0  0
  151.4957  143.3971  157.1882 C   0  0  0  0  0  0  0  0  0  0  0  0
  152.3652  144.2150  158.1339 C   0  0  0  0  0  0  0  0  0  0  0  0
  152.9968  143.2602  158.9761 O   0  0  0  0  0  0  0  0  0  0  0  0
  152.3027  142.0177  158.9087 C   0  0  0  0  0  0  0  0  0  0  0  0
  147.4024  134.6405  153.6160 N   0  3  2  0  0  0  0  0  0  0  0  0
  146.6789  135.6164  154.4651 C   0  0  0  0  0  0  0  0  0  0  0  0
  146.5020  133.8532  152.7427 C   0  0  0  0  0  0  0  0  0  0  0  0
  147.9404  132.6178  151.7245 H   0  0  0  0  0  0  0  0  0  0  0  0
  149.3128  133.8811  153.8187 H   0  0  0  0  0  0  0  0  0  0  0  0
  144.7656  130.9849  150.8747 H   0  0  0  0  0  0  0  0  0  0  0  0
  146.1205  131.8414  150.1486 H   0  0  0  0  0  0  0  0  0  0  0  0
  144.9404  132.7202  151.1373 H   0  0  0  0  0  0  0  0  0  0  0  0
  147.1459  131.9087  154.5727 H   0  0  0  0  0  0  0  0  0  0  0  0
  148.6982  131.5749  153.8021 H   0  0  0  0  0  0  0  0  0  0  0  0
  147.6947  134.5048  156.1933 H   0  0  0  0  0  0  0  0  0  0  0  0
  148.3739  132.9212  156.3315 H   0  0  0  0  0  0  0  0  0  0  0  0
  151.7895  134.1617  156.6147 H   0  0  0  0  0  0  0  0  0  0  0  0
  150.8594  132.7346  156.1734 H   0  0  0  0  0  0  0  0  0  0  0  0
  150.6649  133.4423  157.7786 H   0  0  0  0  0  0  0  0  0  0  0  0
  147.6212  137.7303  158.3428 H   0  0  0  0  0  0  0  0  0  0  0  0
  153.2294  138.3549  155.2462 H   0  0  0  0  0  0  0  0  0  0  0  0
  152.5984  140.4775  157.0183 H   0  0  0  0  0  0  0  0  0  0  0  0
  151.7256  140.7917  155.5386 H   0  0  0  0  0  0  0  0  0  0  0  0
  150.1509  140.3074  158.0872 H   0  0  0  0  0  0  0  0  0  0  0  0
  148.7222  140.4932  156.1460 H   0  0  0  0  0  0  0  0  0  0  0  0
  148.5862  142.0240  156.9773 H   0  0  0  0  0  0  0  0  0  0  0  0
  149.2310  142.8443  155.1756 H   0  0  0  0  0  0  0  0  0  0  0  0
  150.2539  142.6419  158.7455 H   0  0  0  0  0  0  0  0  0  0  0  0
  152.0972  143.0149  156.3619 H   0  0  0  0  0  0  0  0  0  0  0  0
  150.6757  143.9837  156.7732 H   0  0  0  0  0  0  0  0  0  0  0  0
  153.0944  144.8317  157.6080 H   0  0  0  0  0  0  0  0  0  0  0  0
  151.7465  144.8694  158.7492 H   0  0  0  0  0  0  0  0  0  0  0  0
  152.0813  141.6493  159.9107 H   0  0  0  0  0  0  0  0  0  0  0  0
  152.9546  141.2922  158.4203 H   0  0  0  0  0  0  0  0  0  0  0  0
  146.0551  135.1167  155.2073 H   0  0  0  0  0  0  0  0  0  0  0  0
  146.0295  136.2382  153.8479 H   0  0  0  0  0  0  0  0  0  0  0  0
  147.3717  136.2843  154.9766 H   0  0  0  0  0  0  0  0  0  0  0  0
  146.2865  134.3754  151.8102 H   0  0  0  0  0  0  0  0  0  0  0  0
  145.5536  133.6843  153.2566 H   0  0  0  0  0  0  0  0  0  0  0  0
  147.9794  135.1890  152.9940 H   0  0  0  0  0  0  0  0  0  0  0  0
  1  2  1  0  0  0  0
  1 32  1  0  0  0  0
  1 33  1  0  0  0  0
  1 34  1  0  0  0  0
  2  3  1  0  0  0  0
  3 30  1  0  0  0  0
  3 29  1  0  0  0  0
  3  4  1  0  0  0  0
  4  5  1  0  0  0  0
  4 35  1  0  0  0  0
  4 36  1  0  0  0  0
  5 31  1  0  0  0  0
  5  6  1  0  0  0  0
  5 27  1  0  0  0  0
  6  7  1  0  0  0  0
  6 37  1  0  0  0  0
  6 38  1  0  0  0  0
  7  8  1  0  0  0  0
  7  9  1  0  0  0  0
  8 39  1  0  0  0  0
  8 40  1  0  0  0  0
  8 41  1  0  0  0  0
  9 14  1  0  0  0  0
  9 10  2  0  0  0  0
 10 11  1  0  0  0  0
 11 12  2  0  0  0  0
 11 42  1  0  0  0  0
 12 13  1  0  0  0  0
 13 17  1  0  0  0  0
 13 14  2  0  0  0  0
 14 15  1  0  0  0  0
 15 16  2  0  0  0  0
 16 17  1  0  0  0  0
 16 43  1  0  0  0  0
 17 18  1  0  0  0  0
 18 19  1  0  0  0  0
 18 44  1  0  0  0  0
 18 45  1  0  0  0  0
 19 20  1  0  0  0  0
 19 22  1  0  0  0  0
 19 46  1  0  0  0  0
 20 21  1  0  0  0  0
 20 47  1  0  0  0  0
 20 48  1  0  0  0  0
 21 49  1  0  0  0  0
 22 26  1  0  0  0  0
 22 23  1  0  0  0  0
 22 50  1  0  0  0  0
 23 24  1  0  0  0  0
 23 51  1  0  0  0  0
 23 52  1  0  0  0  0
 24 25  1  0  0  0  0
 24 53  1  0  0  0  0
 24 54  1  0  0  0  0
 25 26  1  0  0  0  0
 26 55  1  0  0  0  0
 26 56  1  0  0  0  0
 27 28  1  0  0  0  0
 27 29  1  0  0  0  0
 27 62  1  0  0  0  0
 28 57  1  0  0  0  0
 28 58  1  0  0  0  0
 28 59  1  0  0  0  0
 29 60  1  0  0  0  0
 29 61  1  0  0  0  0
M  CHG  1  27   1
M  END
> <s_m_source_file>
AV-unprocessed.smi

> <i_m_source_file_index>
21

> <i_lp_mmshare_version>
43012

> <i_f3d_flags>
0

> <s_epik_input>
W0NIM11PW0NASF0xW0NIMl1bQ0BIXShOKFtDSDNdKVtDSDJdMSlbQ0gyXU4oW0NIM10pYyhuW2NIXW4yKWMoYzIzKW5bY0hdbjNbQ0gyXVtDQEhdKFtDSDJdW09IXSlbQ0BASF00W0NIMl1bQ0gyXU9bQ0gyXTQ=

> <s_epik_cmdline>
J2VwaWtfcHl0aG9uJywgJy1waCcsICc3LjAnLCAnLXRuJywgJzgnLCAnLW1hJywgJzIwMCcsICctbWV0YWxfYmluZGluZycsICctaW1hZScsICc8aW5maWxlLm1hZT4nLCAnLW9tYWUnLCAnPG91dGZpbGUubWFlPic=

> <r_lp_tautomer_probability>
1

> <r_epik_Ionization_Penalty>
0.0157465

> <r_epik_Ionization_Penalty_Charging>
0.015354

> <r_epik_Ionization_Penalty_Neutral>
0.000392529

> <r_epik_State_Penalty>
0.0120612

> <r_epik_Charging_Adjusted_Penalty>
0.0274152

> <i_epik_Tot_Q>
1

> <i_epik_Tot_abs_Q>
1

> <r_epik_Metal_State_Penalty>
0.0121253

> <b_epik_Metal_Only>
0

> <s_lp_Force_Field>
OPLS_2005

> <r_lp_Energy>
59.9963

> <b_lp_Chiralities_Consistent>
1

> <s_lp_Variant>
AV-unprocessed.smi:21-4

> <Gold.Version>
5.8.1

> <Gold.Id.Protein>
6NUR|6NUR_protein|mol2

> <Gold.PLP.Fitness>
52.6571

> <Gold.PLP.PLP>
-43.9151

> <Gold.PLP.part.hbond>
-3.0000

> <Gold.PLP.part.metal>
0.0000

> <Gold.PLP.part.buried>
-7.0250

> <Gold.PLP.part.nonpolar>
-34.5963

> <Gold.PLP.part.repulsive>
0.1815

> <Gold.PLP.ligand.clash>
0.0000

> <Gold.PLP.ligand.torsion>
2.2265

> <Gold.PLP.Chemscore.Hbond>
3.8960

> <Gold.PLP.Chemscore.CHOScore>
0.0000

> <Gold.PLP.Chemscore.Metal>
0.0000

> <Gold.Chemscore.Hbonds>
donor molecule, donor type, donor heavy atom, donor atom, acceptor molecule, acceptor atom, score
      L1  H    21    49       P1  8028  1.00
      L1  H    27    62       P1  7948  2.00
      P1  H 10752 10765       L1    15  1.00

> <Gold.PLP.Chemscore.Internal.Correction>
1.5071

> <Gold.Rescore>
     Score         DG    S(hbond)    S(metal)    S(lipo)     H(rot)  DE(clash)    DE(int)     intcor
     15.29     -19.35       2.95        0.00     101.66       3.08       0.03       4.02       ----

> <Gold.Chemscore.Fitness>
15.2924

> <Gold.Chemscore.DG>
-19.3466

> <Gold.Chemscore.ZeroCoef>
-5.4800

> <Gold.Chemscore.Hbond>
2.9481

> <Gold.Chemscore.Metal>
0.0000

> <Gold.Chemscore.Lipo>
101.6582

> <Gold.Chemscore.Internal_Hbond>
0.0000

> <Gold.Chemscore.DEClash>
0.0313

> <Gold.Chemscore.DEInternal>
4.0229

> <Gold.Chemscore.Rot>
3.0758

> <Gold.Chemscore.Internal.Correction>
   9.000000E+99

> <Gold.Chemscore.Hbonds>
donor molecule, donor type, donor heavy atom, donor atom, acceptor molecule, acceptor atom, score
      L1  H    21    49       P1  8028  0.97
      L1  H    27    62       P1  7948  0.99
      P1  H 10752 10765       L1    15  0.92

> <Gold.Chemscore.Hbond.Weighted>
-9.8468

> <Gold.Chemscore.Metal.Weighted>
-0.0000

> <Gold.Chemscore.Lipo.Weighted>
-11.8940

> <Gold.Chemscore.Internal_Hbond.Weighted>
0.0000

> <Gold.Chemscore.DEClash.Weighted>
0.0313

> <Gold.Chemscore.DEInternal.Weighted>
4.0229

> <Gold.Chemscore.Rot.Weighted>
7.8741

> <Gold.Chemscore.Internal.Correction.Weighted>
   9.000000E+99

> <Gold.Protein.RotatedTorsions>
[ 6907 6896 6895 6894 ] final  -15.29 input  -60.11 | X-H torsion
[ 7974 7965 7964 7962 ] final  -89.44 input  175.53 | X-H torsion
[ 8008 7997 7996 7995 ] final -178.17 input   59.86 | X-H torsion
[ 10167 10162 10161 10158 ] final   92.14 input  -65.29 | X-H torsion
[ 10718 10713 10712 10709 ] final  -65.27 input   66.30 | X-H torsion
[ 10763 10752 10751 10750 ] final -174.69 input  -60.55 | X-H torsion
[ 11005 11000 10999 10996 ] final   31.63 input  -57.11 | X-H torsion

> <Gold.Protein.ActiveResidues>
 VAL166  LYS551  ARG553  GLY616  TRP617  ASP618  TYR619  PRO620  LYS621  CYS622 
 ASP623  PHE694  ASN695  SER759  ASP760  ASP761  ALA762  ILE779  LEU786  VAL792 
 PHE793  MET794  SER795  GLU796  ALA797  LYS798  CYS799  TRP800  GLU811  SER814 

> <Gold.Protein.RotatedAtoms>
  151.3263  135.0831  159.9322 H   0  0  0  0  0  0  0  0  0  0  0  0  # atno 6907 bound_to 6896
  152.5245  133.9588  159.7717 H   0  0  0  0  0  0  0  0  0  0  0  0  # atno 6908 bound_to 6896
  150.9918  133.6089  159.2737 H   0  0  0  0  0  0  0  0  0  0  0  0  # atno 6909 bound_to 6896
  145.4398  140.9558  143.2081 H   0  0  0  0  0  0  0  0  0  0  0  0  # atno 7974 bound_to 7965
  156.0157  140.1250  157.0409 H   0  0  0  0  0  0  0  0  0  0  0  0  # atno 8008 bound_to 7997
  154.4292  140.1079  156.5962 H   0  0  0  0  0  0  0  0  0  0  0  0  # atno 8009 bound_to 7997
  155.6017  140.3470  155.4598 H   0  0  0  0  0  0  0  0  0  0  0  0  # atno 8010 bound_to 7997
  139.8305  144.6689  150.9405 H   0  0  0  0  0  0  0  0  0  0  0  0  # atno 10167 bound_to 10162
  156.0679  130.4245  150.1540 H   0  0  0  0  0  0  0  0  0  0  0  0  # atno 10718 bound_to 10713
  154.5933  135.2847  155.0613 H   0  0  0  0  0  0  0  0  0  0  0  0  # atno 10763 bound_to 10752
  154.1905  135.6441  153.5062 H   0  0  0  0  0  0  0  0  0  0  0  0  # atno 10764 bound_to 10752
  153.0129  135.5445  154.6626 H   0  0  0  0  0  0  0  0  0  0  0  0  # atno 10765 bound_to 10752
  140.2819  134.2963  155.7798 H   0  0  0  0  0  0  0  0  0  0  0  0  # atno 11005 bound_to 11000
  144.8129  139.5929  143.7021 LP  0  0  0  0  0  0  0  0  0  0  0  0  # atno 17320 bound_to 7965
  146.2562  139.6308  142.9393 LP  0  0  0  0  0  0  0  0  0  0  0  0  # atno 17321 bound_to 7965
  140.7807  143.4005  151.1157 LP  0  0  0  0  0  0  0  0  0  0  0  0  # atno 17342 bound_to 10162
  139.7659  143.8566  152.3110 LP  0  0  0  0  0  0  0  0  0  0  0  0  # atno 17343 bound_to 10162
  156.9597  130.9801  151.3481 LP  0  0  0  0  0  0  0  0  0  0  0  0  # atno 17370 bound_to 10713
  157.5732  130.8325  149.8420 LP  0  0  0  0  0  0  0  0  0  0  0  0  # atno 17371 bound_to 10713
  141.2161  133.7531  156.9494 LP  0  0  0  0  0  0  0  0  0  0  0  0  # atno 17394 bound_to 11000
  140.1275  134.9377  157.2291 LP  0  0  0  0  0  0  0  0  0  0  0  0  # atno 17395 bound_to 11000

$$$$
