AV-unprocessed.smi:2362|AV-procd|sdf|9413|dock1
  -GOLD-   2272013 53D 1   1.00000     0.00000
 Structure written by MMmdl.
 45 46  0  0  0  0  0  0  0  0  2 V2000
  153.8797  141.6764  160.6693 C   0  0  0  0  0  0  0  0  0  0  0  0
  152.7935  141.9086  159.6398 C   0  0  0  0  0  0  0  0  0  0  0  0
  152.5477  143.1911  159.1136 C   0  0  0  0  0  0  0  0  0  0  0  0
  151.5234  143.3483  158.1599 C   0  0  0  0  0  0  0  0  0  0  0  0
  150.7716  142.2227  157.7546 C   0  0  0  0  0  0  0  0  0  0  0  0
  149.7608  142.4884  156.7922 N   0  0  0  0  0  0  0  0  0  0  0  0
  149.1313  141.6133  155.9887 C   0  0  0  0  0  0  0  0  0  0  0  0
  149.3643  140.4058  155.9299 O   0  0  0  0  0  0  0  0  0  0  0  0
  148.1892  142.2184  155.2488 N   0  0  0  0  0  0  0  0  0  0  0  0
  147.3319  141.5699  154.2548 C   0  0  2  0  0  0  0  0  0  0  0  0
  146.3793  142.6145  153.6576 C   0  0  0  0  0  0  0  0  0  0  0  0
  146.5486  140.3849  154.8671 C   0  0  0  0  0  0  0  0  0  0  0  0
  145.9381  139.4949  153.8462 N   0  3  0  0  0  0  0  0  0  0  0  0
  146.9070  139.0603  152.8073 C   0  0  0  0  0  0  0  0  0  0  0  0
  146.2004  138.2785  151.6865 C   0  0  0  0  0  0  0  0  0  0  0  0
  145.4267  137.0804  152.2523 C   0  0  0  0  0  0  0  0  0  0  0  0
  144.4631  137.5494  153.3502 C   0  0  0  0  0  0  0  0  0  0  0  0
  145.2114  138.3396  154.4362 C   0  0  0  0  0  0  0  0  0  0  0  0
  151.0146  140.9913  158.2689 N   0  0  0  0  0  0  0  0  0  0  0  0
  151.9966  140.8413  159.1826 C   0  0  0  0  0  0  0  0  0  0  0  0
  154.4293  142.5943  160.8804 H   0  0  0  0  0  0  0  0  0  0  0  0
  154.5883  140.9299  160.3100 H   0  0  0  0  0  0  0  0  0  0  0  0
  153.4444  141.3167  161.6018 H   0  0  0  0  0  0  0  0  0  0  0  0
  153.1308  144.0426  159.4326 H   0  0  0  0  0  0  0  0  0  0  0  0
  151.3221  144.3259  157.7467 H   0  0  0  0  0  0  0  0  0  0  0  0
  149.4772  143.4543  156.7180 H   0  0  0  0  0  0  0  0  0  0  0  0
  148.0691  143.2144  155.3648 H   0  0  0  0  0  0  0  0  0  0  0  0
  147.9512  141.2067  153.4335 H   0  0  0  0  0  0  0  0  0  0  0  0
  145.7571  142.1755  152.8770 H   0  0  0  0  0  0  0  0  0  0  0  0
  146.9320  143.4408  153.2091 H   0  0  0  0  0  0  0  0  0  0  0  0
  145.7154  143.0299  154.4166 H   0  0  0  0  0  0  0  0  0  0  0  0
  147.2416  139.8063  155.4801 H   0  0  0  0  0  0  0  0  0  0  0  0
  145.7740  140.7438  155.5468 H   0  0  0  0  0  0  0  0  0  0  0  0
  147.4009  139.9312  152.3748 H   0  0  0  0  0  0  0  0  0  0  0  0
  147.6846  138.4475  153.2657 H   0  0  0  0  0  0  0  0  0  0  0  0
  145.5133  138.9401  151.1570 H   0  0  0  0  0  0  0  0  0  0  0  0
  146.9300  137.9376  150.9513 H   0  0  0  0  0  0  0  0  0  0  0  0
  144.8765  136.5762  151.4572 H   0  0  0  0  0  0  0  0  0  0  0  0
  146.1256  136.3499  152.6618 H   0  0  0  0  0  0  0  0  0  0  0  0
  143.6844  138.1763  152.9132 H   0  0  0  0  0  0  0  0  0  0  0  0
  143.9570  136.6915  153.7941 H   0  0  0  0  0  0  0  0  0  0  0  0
  145.9171  137.6890  154.9551 H   0  0  0  0  0  0  0  0  0  0  0  0
  144.4948  138.6837  155.1813 H   0  0  0  0  0  0  0  0  0  0  0  0
  152.1488  139.8403  159.5592 H   0  0  0  0  0  0  0  0  0  0  0  0
  145.2476  140.0546  153.3657 H   0  0  0  0  0  0  0  0  0  0  0  0
  1  2  1  0  0  0  0
  1 21  1  0  0  0  0
  1 22  1  0  0  0  0
  1 23  1  0  0  0  0
  2 20  1  0  0  0  0
  2  3  2  0  0  0  0
  3  4  1  0  0  0  0
  3 24  1  0  0  0  0
  4  5  2  0  0  0  0
  4 25  1  0  0  0  0
  5  6  1  0  0  0  0
  5 19  1  0  0  0  0
  6  7  1  0  0  0  0
  6 26  1  0  0  0  0
  7  8  2  0  0  0  0
  7  9  1  0  0  0  0
  9 10  1  0  0  0  0
  9 27  1  0  0  0  0
 10 11  1  0  0  0  0
 10 12  1  0  0  0  0
 10 28  1  0  0  0  0
 11 29  1  0  0  0  0
 11 30  1  0  0  0  0
 11 31  1  0  0  0  0
 12 13  1  0  0  0  0
 12 32  1  0  0  0  0
 12 33  1  0  0  0  0
 13 18  1  0  0  0  0
 13 14  1  0  0  0  0
 13 45  1  0  0  0  0
 14 15  1  0  0  0  0
 14 34  1  0  0  0  0
 14 35  1  0  0  0  0
 15 16  1  0  0  0  0
 15 36  1  0  0  0  0
 15 37  1  0  0  0  0
 16 17  1  0  0  0  0
 16 38  1  0  0  0  0
 16 39  1  0  0  0  0
 17 18  1  0  0  0  0
 17 40  1  0  0  0  0
 17 41  1  0  0  0  0
 18 42  1  0  0  0  0
 18 43  1  0  0  0  0
 19 20  2  0  0  0  0
 20 44  1  0  0  0  0
M  CHG  1  13   1
M  END
> <s_m_source_file>
AV-unprocessed.smi

> <i_m_source_file_index>
2362

> <i_lp_mmshare_version>
43012

> <i_f3d_flags>
0

> <s_epik_input>
W0NIM11jMVtjSF1bY0hdYyhuW2NIXTEpW05IXUMoPU8pW05IXVtDQEhdKFtDSDNdKVtDSDJdTjJbQ0gyXVtDSDJdW0NIMl1bQ0gyXVtDSDJdMg==

> <s_epik_cmdline>
J2VwaWtfcHl0aG9uJywgJy1waCcsICc3LjAnLCAnLXRuJywgJzgnLCAnLW1hJywgJzIwMCcsICctbWV0YWxfYmluZGluZycsICctaW1hZScsICc8aW5maWxlLm1hZT4nLCAnLW9tYWUnLCAnPG91dGZpbGUubWFlPic=

> <r_epik_Ionization_Penalty>
0.00215987

> <r_epik_Ionization_Penalty_Charging>
0.00211816

> <r_epik_Ionization_Penalty_Neutral>
4.17101e-05

> <r_epik_State_Penalty>
0.00145254

> <r_epik_Charging_Adjusted_Penalty>
0.0035707

> <i_epik_Tot_Q>
1

> <i_epik_Tot_abs_Q>
1

> <r_epik_Metal_State_Penalty>
-0

> <b_epik_Metal_Only>
0

> <s_lp_Force_Field>
OPLS_2005

> <r_lp_Energy>
24.6446

> <b_lp_Chiralities_Consistent>
1

> <s_lp_Variant>
AV-unprocessed.smi:2362-1

> <Gold.Version>
5.8.1

> <Gold.Id.Protein>
6NUR|6NUR_protein|mol2

> <Gold.PLP.Fitness>
50.0565

> <Gold.PLP.PLP>
-38.4280

> <Gold.PLP.part.hbond>
-3.0000

> <Gold.PLP.part.metal>
0.0000

> <Gold.PLP.part.buried>
-2.7898

> <Gold.PLP.part.nonpolar>
-33.3417

> <Gold.PLP.part.repulsive>
0.2195

> <Gold.PLP.ligand.clash>
0.0000

> <Gold.PLP.ligand.torsion>
0.1944

> <Gold.PLP.Chemscore.Hbond>
3.9760

> <Gold.PLP.Chemscore.CHOScore>
0.0000

> <Gold.PLP.Chemscore.Metal>
0.0000

> <Gold.Chemscore.Hbonds>
donor molecule, donor type, donor heavy atom, donor atom, acceptor molecule, acceptor atom, score
      L1  H     6    26       P1  8028  0.94
      L1  H     9    27       P1  8028  0.93
      L1  H    13    45       P1 10175  2.00

> <Gold.PLP.Chemscore.Internal.Correction>
0.0893

> <Gold.Rescore>
     Score         DG    S(hbond)    S(metal)    S(lipo)     H(rot)  DE(clash)    DE(int)     intcor
     19.82     -22.62       2.89        0.00      95.44       1.44       0.41       2.39       ----

> <Gold.Chemscore.Fitness>
19.8243

> <Gold.Chemscore.DG>
-22.6216

> <Gold.Chemscore.ZeroCoef>
-5.4800

> <Gold.Chemscore.Hbond>
2.8932

> <Gold.Chemscore.Metal>
0.0000

> <Gold.Chemscore.Lipo>
95.4355

> <Gold.Chemscore.Internal_Hbond>
0.0000

> <Gold.Chemscore.DEClash>
0.4119

> <Gold.Chemscore.DEInternal>
2.3854

> <Gold.Chemscore.Rot>
1.4404

> <Gold.Chemscore.Internal.Correction>
   9.000000E+99

> <Gold.Chemscore.Hbonds>
donor molecule, donor type, donor heavy atom, donor atom, acceptor molecule, acceptor atom, score
      L1  H     6    26       P1  8028  0.90
      L1  H     9    27       P1  8028  0.75
      L1  H    13    45       P1 10175  0.99

> <Gold.Chemscore.Hbond.Weighted>
-9.6632

> <Gold.Chemscore.Metal.Weighted>
-0.0000

> <Gold.Chemscore.Lipo.Weighted>
-11.1659

> <Gold.Chemscore.Internal_Hbond.Weighted>
0.0000

> <Gold.Chemscore.DEClash.Weighted>
0.4119

> <Gold.Chemscore.DEInternal.Weighted>
2.3854

> <Gold.Chemscore.Rot.Weighted>
3.6875

> <Gold.Chemscore.Internal.Correction.Weighted>
   9.000000E+99

> <Gold.Protein.RotatedTorsions>
[ 6907 6896 6895 6894 ] final -152.52 input  -60.11 | X-H torsion
[ 7974 7965 7964 7962 ] final   19.25 input  175.53 | X-H torsion
[ 8008 7997 7996 7995 ] final  -94.28 input   59.86 | X-H torsion
[ 10167 10162 10161 10158 ] final  124.57 input  -65.29 | X-H torsion
[ 10718 10713 10712 10709 ] final  115.58 input   66.30 | X-H torsion
[ 10763 10752 10751 10750 ] final   61.79 input  -60.55 | X-H torsion
[ 11005 11000 10999 10996 ] final   39.27 input  -57.11 | X-H torsion

> <Gold.Protein.ActiveResidues>
 VAL166  LYS551  ARG553  GLY616  TRP617  ASP618  TYR619  PRO620  LYS621  CYS622 
 ASP623  PHE694  ASN695  SER759  ASP760  ASP761  ALA762  ILE779  LEU786  VAL792 
 PHE793  MET794  SER795  GLU796  ALA797  LYS798  CYS799  TRP800  GLU811  SER814 

> <Gold.Protein.RotatedAtoms>
  151.2290  133.4460  159.2602 H   0  0  0  0  0  0  0  0  0  0  0  0  # atno 6907 bound_to 6896
  151.0812  134.9859  159.8367 H   0  0  0  0  0  0  0  0  0  0  0  0  # atno 6908 bound_to 6896
  152.5424  134.2230  159.8848 H   0  0  0  0  0  0  0  0  0  0  0  0  # atno 6909 bound_to 6896
  146.2156  139.8340  142.8654 H   0  0  0  0  0  0  0  0  0  0  0  0  # atno 7974 bound_to 7965
  154.7465  140.0491  157.0856 H   0  0  0  0  0  0  0  0  0  0  0  0  # atno 8008 bound_to 7997
  155.0112  140.3136  155.4810 H   0  0  0  0  0  0  0  0  0  0  0  0  # atno 8009 bound_to 7997
  156.2876  140.2184  156.5226 H   0  0  0  0  0  0  0  0  0  0  0  0  # atno 8010 bound_to 7997
  139.5734  144.6951  151.3717 H   0  0  0  0  0  0  0  0  0  0  0  0  # atno 10167 bound_to 10162
  157.6213  131.1014  150.7350 H   0  0  0  0  0  0  0  0  0  0  0  0  # atno 10718 bound_to 10713
  152.9962  135.5488  154.6090 H   0  0  0  0  0  0  0  0  0  0  0  0  # atno 10763 bound_to 10752
  154.5415  135.2820  155.1093 H   0  0  0  0  0  0  0  0  0  0  0  0  # atno 10764 bound_to 10752
  154.2369  135.6423  153.5246 H   0  0  0  0  0  0  0  0  0  0  0  0  # atno 10765 bound_to 10752
  140.2044  134.3831  155.8080 H   0  0  0  0  0  0  0  0  0  0  0  0  # atno 11005 bound_to 11000
  145.2967  141.0183  143.3632 LP  0  0  0  0  0  0  0  0  0  0  0  0  # atno 17320 bound_to 7965
  144.9036  139.4617  143.6620 LP  0  0  0  0  0  0  0  0  0  0  0  0  # atno 17321 bound_to 7965
  140.7018  143.7613  150.7415 LP  0  0  0  0  0  0  0  0  0  0  0  0  # atno 17342 bound_to 10162
  140.1126  143.4685  152.2361 LP  0  0  0  0  0  0  0  0  0  0  0  0  # atno 17343 bound_to 10162
  156.7707  130.4828  149.5419 LP  0  0  0  0  0  0  0  0  0  0  0  0  # atno 17370 bound_to 10713
  156.1360  130.6211  151.0401 LP  0  0  0  0  0  0  0  0  0  0  0  0  # atno 17371 bound_to 10713
  141.2227  133.7110  156.8313 LP  0  0  0  0  0  0  0  0  0  0  0  0  # atno 17394 bound_to 11000
  140.2019  134.8891  157.3178 LP  0  0  0  0  0  0  0  0  0  0  0  0  # atno 17395 bound_to 11000

$$$$
