AV-unprocessed.smi:2900|AV-procd|sdf|11147|dock8
  -GOLD-   2272016 23D 1   1.00000     0.00000
 Structure written by MMmdl.
 35 36  0  0  0  0  0  0  0  0  1 V2000
  153.5937  139.2552  155.3156 O   0  0  0  0  0  0  0  0  0  0  0  0
  152.6993  138.6467  155.9024 C   0  0  0  0  0  0  0  0  0  0  0  0
  152.9360  137.8083  157.0750 C   0  0  0  0  0  0  0  0  0  0  0  0
  151.9297  137.1590  157.6984 C   0  0  0  0  0  0  0  0  0  0  0  0
  150.5727  137.2899  157.1945 C   0  0  0  0  0  0  0  0  0  0  0  0
  149.3814  136.6076  157.8206 C   0  0  0  0  0  0  0  0  0  0  0  0
  149.2608  136.9370  159.1068 F   0  0  0  0  0  0  0  0  0  0  0  0
  148.2639  136.9632  157.1861 F   0  0  0  0  0  0  0  0  0  0  0  0
  149.5139  135.2839  157.7332 F   0  0  0  0  0  0  0  0  0  0  0  0
  150.3574  138.0282  156.1536 N   0  0  0  0  0  0  0  0  0  0  0  0
  151.3899  138.6967  155.5195 N   0  0  0  0  0  0  0  0  0  0  0  0
  150.9606  139.5028  154.3703 C   0  0  0  0  0  0  0  0  0  0  0  0
  149.8247  140.4833  154.7388 C   0  0  2  0  0  0  0  0  0  0  0  0
  149.3311  141.0491  153.5399 O   0  0  0  0  0  0  0  0  0  0  0  0
  150.3316  141.6403  155.6163 C   0  0  0  0  0  0  0  0  0  0  0  0
  150.9870  141.1006  156.7565 O   0  0  0  0  0  0  0  0  0  0  0  0
  151.4670  141.9735  157.7094 C   0  0  0  0  0  0  0  0  0  0  0  0
  152.1636  141.4107  158.7989 C   0  0  0  0  0  0  0  0  0  0  0  0
  152.6899  142.2275  159.8182 C   0  0  0  0  0  0  0  0  0  0  0  0
  152.5238  143.6234  159.7571 C   0  0  0  0  0  0  0  0  0  0  0  0
  151.8309  144.1989  158.6759 C   0  0  0  0  0  0  0  0  0  0  0  0
  151.3040  143.3816  157.6567 C   0  0  0  0  0  0  0  0  0  0  0  0
  153.9430  137.7077  157.4528 H   0  0  0  0  0  0  0  0  0  0  0  0
  152.1285  136.5456  158.5646 H   0  0  0  0  0  0  0  0  0  0  0  0
  151.8236  140.0574  153.9971 H   0  0  0  0  0  0  0  0  0  0  0  0
  150.6591  138.8645  153.5372 H   0  0  0  0  0  0  0  0  0  0  0  0
  149.0226  139.9582  155.2592 H   0  0  0  0  0  0  0  0  0  0  0  0
  149.2345  140.3610  152.8997 H   0  0  0  0  0  0  0  0  0  0  0  0
  151.0584  142.2290  155.0542 H   0  0  0  0  0  0  0  0  0  0  0  0
  149.5115  142.3036  155.8982 H   0  0  0  0  0  0  0  0  0  0  0  0
  152.2966  140.3402  158.8533 H   0  0  0  0  0  0  0  0  0  0  0  0
  153.2211  141.7822  160.6463 H   0  0  0  0  0  0  0  0  0  0  0  0
  152.9271  144.2516  160.5375 H   0  0  0  0  0  0  0  0  0  0  0  0
  151.7032  145.2701  158.6271 H   0  0  0  0  0  0  0  0  0  0  0  0
  150.7798  143.8604  156.8439 H   0  0  0  0  0  0  0  0  0  0  0  0
  1  2  2  0  0  0  0
  2 11  1  0  0  0  0
  2  3  1  0  0  0  0
  3  4  2  0  0  0  0
  3 23  1  0  0  0  0
  4  5  1  0  0  0  0
  4 24  1  0  0  0  0
  5  6  1  0  0  0  0
  5 10  2  0  0  0  0
  6  7  1  0  0  0  0
  6  8  1  0  0  0  0
  6  9  1  0  0  0  0
 10 11  1  0  0  0  0
 11 12  1  0  0  0  0
 12 13  1  0  0  0  0
 12 25  1  0  0  0  0
 12 26  1  0  0  0  0
 13 14  1  0  0  0  0
 13 15  1  0  0  0  0
 13 27  1  0  0  0  0
 14 28  1  0  0  0  0
 15 16  1  0  0  0  0
 15 29  1  0  0  0  0
 15 30  1  0  0  0  0
 16 17  1  0  0  0  0
 17 22  1  0  0  0  0
 17 18  2  0  0  0  0
 18 19  1  0  0  0  0
 18 31  1  0  0  0  0
 19 20  2  0  0  0  0
 19 32  1  0  0  0  0
 20 21  1  0  0  0  0
 20 33  1  0  0  0  0
 21 22  2  0  0  0  0
 21 34  1  0  0  0  0
 22 35  1  0  0  0  0
M  END
> <s_m_source_file>
AV-unprocessed.smi

> <i_m_source_file_index>
2900

> <i_lp_mmshare_version>
43012

> <i_f3d_flags>
0

> <s_epik_input>
Tz1jMVtjSF1bY0hdYyhDKEYpKEYpRilubjFbQ0gyXVtDQEhdKFtPSF0pW0NIMl1PYzJbY0hdW2NIXVtjSF1bY0hdW2NIXTI=

> <s_epik_cmdline>
J2VwaWtfcHl0aG9uJywgJy1waCcsICc3LjAnLCAnLXRuJywgJzgnLCAnLW1hJywgJzIwMCcsICctbWV0YWxfYmluZGluZycsICctaW1hZScsICc8aW5maWxlLm1hZT4nLCAnLW9tYWUnLCAnPG91dGZpbGUubWFlPic=

> <r_lp_tautomer_probability>
1

> <r_epik_Ionization_Penalty>
1.22578e-07

> <r_epik_Ionization_Penalty_Charging>
5.40425e-09

> <r_epik_Ionization_Penalty_Neutral>
1.17174e-07

> <r_epik_State_Penalty>
-0

> <r_epik_Charging_Adjusted_Penalty>
5.40425e-09

> <i_epik_Tot_Q>
0

> <i_epik_Tot_abs_Q>
0

> <r_epik_Metal_State_Penalty>
-0

> <b_epik_Metal_Only>
0

> <s_lp_Force_Field>
OPLS_2005

> <r_lp_Energy>
34.5506

> <b_lp_Chiralities_Consistent>
1

> <s_lp_Variant>
AV-unprocessed.smi:2900-1

> <Gold.Version>
5.8.1

> <Gold.Id.Protein>
6NUR|6NUR_protein|mol2

> <Gold.PLP.Fitness>
47.5343

> <Gold.PLP.PLP>
-39.7680

> <Gold.PLP.part.hbond>
-4.0000

> <Gold.PLP.part.metal>
0.0000

> <Gold.PLP.part.buried>
-3.3449

> <Gold.PLP.part.nonpolar>
-31.7088

> <Gold.PLP.part.repulsive>
0.0350

> <Gold.PLP.ligand.clash>
0.0000

> <Gold.PLP.ligand.torsion>
0.1583

> <Gold.PLP.Chemscore.Hbond>
2.6880

> <Gold.PLP.Chemscore.CHOScore>
0.0000

> <Gold.PLP.Chemscore.Metal>
0.0000

> <Gold.Chemscore.Hbonds>
donor molecule, donor type, donor heavy atom, donor atom, acceptor molecule, acceptor atom, score
      L1  H    14    28       P1  7957  0.78
      P1  H  7997  8008       L1     1  0.71
      P1  H  8011  8017       L1    14  0.85

> <Gold.PLP.Chemscore.Internal.Correction>
0.0189

> <Gold.Rescore>
     Score         DG    S(hbond)    S(metal)    S(lipo)     H(rot)  DE(clash)    DE(int)     intcor
     15.71     -17.53       2.05        0.00     102.05       2.63       0.13       1.69       ----

> <Gold.Chemscore.Fitness>
15.7148

> <Gold.Chemscore.DG>
-17.5281

> <Gold.Chemscore.ZeroCoef>
-5.4800

> <Gold.Chemscore.Hbond>
2.0509

> <Gold.Chemscore.Metal>
0.0000

> <Gold.Chemscore.Lipo>
102.0515

> <Gold.Chemscore.Internal_Hbond>
0.0000

> <Gold.Chemscore.DEClash>
0.1279

> <Gold.Chemscore.DEInternal>
1.6854

> <Gold.Chemscore.Rot>
2.6336

> <Gold.Chemscore.Internal.Correction>
   9.000000E+99

> <Gold.Chemscore.Hbonds>
donor molecule, donor type, donor heavy atom, donor atom, acceptor molecule, acceptor atom, score
      L1  H    14    28       P1  7957  0.78
      P1  H  7997  8008       L1     1  0.63
      P1  H  8011  8017       L1    14  0.14

> <Gold.Chemscore.Hbond.Weighted>
-6.8500

> <Gold.Chemscore.Metal.Weighted>
-0.0000

> <Gold.Chemscore.Lipo.Weighted>
-11.9400

> <Gold.Chemscore.Internal_Hbond.Weighted>
0.0000

> <Gold.Chemscore.DEClash.Weighted>
0.1279

> <Gold.Chemscore.DEInternal.Weighted>
1.6854

> <Gold.Chemscore.Rot.Weighted>
6.7420

> <Gold.Chemscore.Internal.Correction.Weighted>
   9.000000E+99

> <Gold.Protein.RotatedTorsions>
[ 6907 6896 6895 6894 ] final   91.63 input  -60.11 | X-H torsion
[ 7974 7965 7964 7962 ] final   54.45 input  175.53 | X-H torsion
[ 8008 7997 7996 7995 ] final  -29.73 input   59.86 | X-H torsion
[ 10167 10162 10161 10158 ] final   37.07 input  -65.29 | X-H torsion
[ 10718 10713 10712 10709 ] final -176.17 input   66.30 | X-H torsion
[ 10763 10752 10751 10750 ] final   46.33 input  -60.55 | X-H torsion
[ 11005 11000 10999 10996 ] final   68.41 input  -57.11 | X-H torsion

> <Gold.Protein.ActiveResidues>
 VAL166  LYS551  ARG553  GLY616  TRP617  ASP618  TYR619  PRO620  LYS621  CYS622 
 ASP623  PHE694  ASN695  SER759  ASP760  ASP761  ALA762  ILE779  LEU786  VAL792 
 PHE793  MET794  SER795  GLU796  ALA797  LYS798  CYS799  TRP800  GLU811  SER814 

> <Gold.Protein.RotatedAtoms>
  152.5450  134.1627  159.8564 H   0  0  0  0  0  0  0  0  0  0  0  0  # atno 6907 bound_to 6896
  151.1644  133.4817  159.2601 H   0  0  0  0  0  0  0  0  0  0  0  0  # atno 6908 bound_to 6896
  151.1340  135.0156  159.8650 H   0  0  0  0  0  0  0  0  0  0  0  0  # atno 6909 bound_to 6896
  145.9607  139.4057  143.0250 H   0  0  0  0  0  0  0  0  0  0  0  0  # atno 7974 bound_to 7965
  154.4278  140.1810  156.1295 H   0  0  0  0  0  0  0  0  0  0  0  0  # atno 8008 bound_to 7997
  156.0079  140.3353  155.6886 H   0  0  0  0  0  0  0  0  0  0  0  0  # atno 8009 bound_to 7997
  155.6152  140.0654  157.2685 H   0  0  0  0  0  0  0  0  0  0  0  0  # atno 8010 bound_to 7997
  140.4067  144.1649  150.6136 H   0  0  0  0  0  0  0  0  0  0  0  0  # atno 10167 bound_to 10162
  156.8107  130.9585  151.3116 H   0  0  0  0  0  0  0  0  0  0  0  0  # atno 10718 bound_to 10713
  152.9812  135.6011  154.3582 H   0  0  0  0  0  0  0  0  0  0  0  0  # atno 10763 bound_to 10752
  154.3266  135.2769  155.2495 H   0  0  0  0  0  0  0  0  0  0  0  0  # atno 10764 bound_to 10752
  154.4638  135.5959  153.6329 H   0  0  0  0  0  0  0  0  0  0  0  0  # atno 10765 bound_to 10752
  139.9713  134.6895  156.0441 H   0  0  0  0  0  0  0  0  0  0  0  0  # atno 11005 bound_to 11000
  145.8043  140.9756  143.0982 LP  0  0  0  0  0  0  0  0  0  0  0  0  # atno 17320 bound_to 7965
  144.6814  139.9841  143.7484 LP  0  0  0  0  0  0  0  0  0  0  0  0  # atno 17321 bound_to 7965
  140.4682  143.2423  151.9126 LP  0  0  0  0  0  0  0  0  0  0  0  0  # atno 17342 bound_to 10162
  139.4783  144.5398  151.8545 LP  0  0  0  0  0  0  0  0  0  0  0  0  # atno 17343 bound_to 10162
  157.6507  130.8882  149.9627 LP  0  0  0  0  0  0  0  0  0  0  0  0  # atno 17370 bound_to 10713
  156.1046  130.3653  150.0157 LP  0  0  0  0  0  0  0  0  0  0  0  0  # atno 17371 bound_to 10713
  141.1392  133.6568  156.3682 LP  0  0  0  0  0  0  0  0  0  0  0  0  # atno 17394 bound_to 11000
  140.5287  134.6233  157.5343 LP  0  0  0  0  0  0  0  0  0  0  0  0  # atno 17395 bound_to 11000

$$$$
