AV-unprocessed.smi:2781|AV-procd|sdf|10719|dock4
  -GOLD-   2272015153D 1   1.00000     0.00000
 Structure written by MMmdl.
 35 38  0  0  0  0  0  0  0  0  1 V2000
  150.6954  140.8111  157.0407 O   0  0  0  0  0  0  0  0  0  0  0  0
  150.3824  141.9482  156.6862 C   0  0  0  0  0  0  0  0  0  0  0  0
  150.5552  143.0652  157.4147 N   0  0  0  0  0  0  0  0  0  0  0  0
  151.1453  143.1930  158.7003 C   0  0  0  0  0  0  0  0  0  0  0  0
  152.0147  142.1402  159.0661 C   0  0  0  0  0  0  0  0  0  0  0  0
  152.6471  142.1688  160.3243 C   0  0  0  0  0  0  0  0  0  0  0  0
  152.3927  143.2521  161.1838 C   0  0  0  0  0  0  0  0  0  0  0  0
  152.9774  143.3229  162.4029 F   0  0  0  0  0  0  0  0  0  0  0  0
  151.5148  144.2598  160.7440 C   0  0  0  0  0  0  0  0  0  0  0  0
  150.9079  144.2334  159.5382 N   0  0  0  0  0  0  0  0  0  0  0  0
  149.8177  142.2287  155.5042 N   0  0  0  0  0  0  0  0  0  0  0  0
  149.4917  141.2818  154.4875 C   0  0  2  0  0  0  0  0  0  0  0  0
  148.1224  141.2635  153.8338 C   0  0  2  0  0  0  0  0  0  0  0  0
  146.7426  141.6532  154.3764 C   0  0  2  0  0  0  0  0  0  0  0  0
  146.8013  142.3541  155.7487 C   0  0  0  0  0  0  0  0  0  0  0  0
  147.2253  141.2048  156.6889 C   0  0  0  0  0  0  0  0  0  0  0  0
  147.3490  140.0129  155.7183 C   0  0  1  0  0  0  0  0  0  0  0  0
  146.1788  140.2963  154.7827 C   0  0  0  0  0  0  0  0  0  0  0  0
  148.5438  140.1286  154.7643 C   0  0  2  0  0  0  0  0  0  0  0  0
  150.2374  143.9266  156.9958 H   0  0  0  0  0  0  0  0  0  0  0  0
  152.1981  141.3157  158.3923 H   0  0  0  0  0  0  0  0  0  0  0  0
  153.3142  141.3739  160.6232 H   0  0  0  0  0  0  0  0  0  0  0  0
  151.2929  145.1083  161.3746 H   0  0  0  0  0  0  0  0  0  0  0  0
  149.5971  143.1930  155.3029 H   0  0  0  0  0  0  0  0  0  0  0  0
  150.3121  141.0284  153.8174 H   0  0  0  0  0  0  0  0  0  0  0  0
  148.1133  141.0238  152.7722 H   0  0  0  0  0  0  0  0  0  0  0  0
  146.1487  142.1867  153.6338 H   0  0  0  0  0  0  0  0  0  0  0  0
  147.4716  143.2123  155.7633 H   0  0  0  0  0  0  0  0  0  0  0  0
  145.8129  142.7209  156.0291 H   0  0  0  0  0  0  0  0  0  0  0  0
  148.1397  141.3998  157.2472 H   0  0  0  0  0  0  0  0  0  0  0  0
  146.4415  141.0146  157.4234 H   0  0  0  0  0  0  0  0  0  0  0  0
  147.3117  139.0395  156.2079 H   0  0  0  0  0  0  0  0  0  0  0  0
  145.2121  140.3517  155.2869 H   0  0  0  0  0  0  0  0  0  0  0  0
  146.1088  139.5913  153.9521 H   0  0  0  0  0  0  0  0  0  0  0  0
  148.7955  139.1885  154.2767 H   0  0  0  0  0  0  0  0  0  0  0  0
  1  2  2  0  0  0  0
  2  3  1  0  0  0  0
  2 11  1  0  0  0  0
  3  4  1  0  0  0  0
  3 20  1  0  0  0  0
  4 10  1  0  0  0  0
  4  5  2  0  0  0  0
  5  6  1  0  0  0  0
  5 21  1  0  0  0  0
  6  7  2  0  0  0  0
  6 22  1  0  0  0  0
  7  8  1  0  0  0  0
  7  9  1  0  0  0  0
  9 10  2  0  0  0  0
  9 23  1  0  0  0  0
 11 12  1  0  0  0  0
 11 24  1  0  0  0  0
 12 19  1  0  0  0  0
 12 13  1  0  0  0  0
 12 25  1  0  0  0  0
 13 19  1  0  0  0  0
 13 14  1  0  0  0  0
 13 26  1  0  0  0  0
 14 18  1  0  0  0  0
 14 15  1  0  0  0  0
 14 27  1  0  0  0  0
 15 16  1  0  0  0  0
 15 28  1  0  0  0  0
 15 29  1  0  0  0  0
 16 17  1  0  0  0  0
 16 30  1  0  0  0  0
 16 31  1  0  0  0  0
 17 18  1  0  0  0  0
 17 19  1  0  0  0  0
 17 32  1  0  0  0  0
 18 33  1  0  0  0  0
 18 34  1  0  0  0  0
 19 35  1  0  0  0  0
M  END
> <s_m_source_file>
AV-unprocessed.smi

> <i_m_source_file_index>
2781

> <i_lp_mmshare_version>
43012

> <i_f3d_flags>
0

> <s_epik_input>
bjFbY0hdYyhGKVtjSF1bY0hdYzFbTkhdQyg9TylbTkhdW0NASF0yW0NAQEhdM1tDQEhdKFtDSDJdNClbQ0gyXVtDSDJdW0NASF00W0NASF0yMw==

> <s_epik_cmdline>
J2VwaWtfcHl0aG9uJywgJy1waCcsICc3LjAnLCAnLXRuJywgJzgnLCAnLW1hJywgJzIwMCcsICctbWV0YWxfYmluZGluZycsICctaW1hZScsICc8aW5maWxlLm1hZT4nLCAnLW9tYWUnLCAnPG91dGZpbGUubWFlPic=

> <r_lp_tautomer_probability>
1

> <r_epik_Ionization_Penalty>
4.05776e-05

> <r_epik_Ionization_Penalty_Charging>
0

> <r_epik_Ionization_Penalty_Neutral>
4.05776e-05

> <r_epik_State_Penalty>
-0

> <r_epik_Charging_Adjusted_Penalty>
0

> <i_epik_Tot_Q>
0

> <i_epik_Tot_abs_Q>
0

> <r_epik_Metal_State_Penalty>
-0

> <b_epik_Metal_Only>
0

> <s_lp_Force_Field>
OPLS_2005

> <r_lp_Energy>
85.3989

> <b_lp_Chiralities_Consistent>
1

> <s_lp_Variant>
AV-unprocessed.smi:2781-3

> <Gold.Version>
5.8.1

> <Gold.Id.Protein>
6NUR|6NUR_protein|mol2

> <Gold.PLP.Fitness>
42.2178

> <Gold.PLP.PLP>
-36.7272

> <Gold.PLP.part.hbond>
-2.0000

> <Gold.PLP.part.metal>
0.0000

> <Gold.PLP.part.buried>
-3.3171

> <Gold.PLP.part.nonpolar>
-30.8205

> <Gold.PLP.part.repulsive>
0.3208

> <Gold.PLP.ligand.clash>
0.0000

> <Gold.PLP.ligand.torsion>
0.1590

> <Gold.PLP.Chemscore.Hbond>
1.9120

> <Gold.PLP.Chemscore.CHOScore>
0.0000

> <Gold.PLP.Chemscore.Metal>
0.0000

> <Gold.Chemscore.Hbonds>
donor molecule, donor type, donor heavy atom, donor atom, acceptor molecule, acceptor atom, score
      L1  H     3    20       P1  8028  0.87
      L1  H    11    24       P1  8028  1.00

> <Gold.PLP.Chemscore.Internal.Correction>
0.0726

> <Gold.Rescore>
     Score         DG    S(hbond)    S(metal)    S(lipo)     H(rot)  DE(clash)    DE(int)     intcor
     16.97     -18.61       1.93        0.00      78.96       1.00       0.04       1.61       ----

> <Gold.Chemscore.Fitness>
16.9688

> <Gold.Chemscore.DG>
-18.6117

> <Gold.Chemscore.ZeroCoef>
-5.4800

> <Gold.Chemscore.Hbond>
1.9320

> <Gold.Chemscore.Metal>
0.0000

> <Gold.Chemscore.Lipo>
78.9636

> <Gold.Chemscore.Internal_Hbond>
0.0000

> <Gold.Chemscore.DEClash>
0.0358

> <Gold.Chemscore.DEInternal>
1.6071

> <Gold.Chemscore.Rot>
1.0000

> <Gold.Chemscore.Internal.Correction>
   9.000000E+99

> <Gold.Chemscore.Hbonds>
donor molecule, donor type, donor heavy atom, donor atom, acceptor molecule, acceptor atom, score
      L1  H     3    20       P1  8028  0.79
      L1  H    11    24       P1  8028  0.98

> <Gold.Chemscore.Hbond.Weighted>
-6.4530

> <Gold.Chemscore.Metal.Weighted>
-0.0000

> <Gold.Chemscore.Lipo.Weighted>
-9.2387

> <Gold.Chemscore.Internal_Hbond.Weighted>
0.0000

> <Gold.Chemscore.DEClash.Weighted>
0.0358

> <Gold.Chemscore.DEInternal.Weighted>
1.6071

> <Gold.Chemscore.Rot.Weighted>
2.5600

> <Gold.Chemscore.Internal.Correction.Weighted>
   9.000000E+99

> <Gold.Protein.RotatedTorsions>
[ 6907 6896 6895 6894 ] final  -95.67 input  -60.11 | X-H torsion
[ 7974 7965 7964 7962 ] final -164.16 input  175.53 | X-H torsion
[ 8008 7997 7996 7995 ] final  -17.63 input   59.86 | X-H torsion
[ 10167 10162 10161 10158 ] final  -68.12 input  -65.29 | X-H torsion
[ 10718 10713 10712 10709 ] final  -56.42 input   66.30 | X-H torsion
[ 10763 10752 10751 10750 ] final  158.17 input  -60.55 | X-H torsion
[ 11005 11000 10999 10996 ] final   17.00 input  -57.11 | X-H torsion

> <Gold.Protein.ActiveResidues>
 VAL166  LYS551  ARG553  GLY616  TRP617  ASP618  TYR619  PRO620  LYS621  CYS622 
 ASP623  PHE694  ASN695  SER759  ASP760  ASP761  ALA762  ILE779  LEU786  VAL792 
 PHE793  MET794  SER795  GLU796  ALA797  LYS798  CYS799  TRP800  GLU811  SER814 

> <Gold.Protein.RotatedAtoms>
  150.6969  134.1621  159.4179 H   0  0  0  0  0  0  0  0  0  0  0  0  # atno 6907 bound_to 6896
  151.9601  135.0125  160.0556 H   0  0  0  0  0  0  0  0  0  0  0  0  # atno 6908 bound_to 6896
  152.1934  133.4754  159.5057 H   0  0  0  0  0  0  0  0  0  0  0  0  # atno 6909 bound_to 6896
  144.7305  140.3001  143.6206 H   0  0  0  0  0  0  0  0  0  0  0  0  # atno 7974 bound_to 7965
  154.4964  140.2137  155.9438 H   0  0  0  0  0  0  0  0  0  0  0  0  # atno 8008 bound_to 7997
  156.1376  140.3185  155.8412 H   0  0  0  0  0  0  0  0  0  0  0  0  # atno 8009 bound_to 7997
  155.4181  140.0495  157.3018 H   0  0  0  0  0  0  0  0  0  0  0  0  # atno 8010 bound_to 7997
  140.5531  143.2312  151.6873 H   0  0  0  0  0  0  0  0  0  0  0  0  # atno 10167 bound_to 10162
  156.1290  130.4160  150.0303 H   0  0  0  0  0  0  0  0  0  0  0  0  # atno 10718 bound_to 10713
  154.2118  135.2786  155.2955 H   0  0  0  0  0  0  0  0  0  0  0  0  # atno 10763 bound_to 10752
  154.5772  135.5600  153.7154 H   0  0  0  0  0  0  0  0  0  0  0  0  # atno 10764 bound_to 10752
  153.0062  135.6336  154.2257 H   0  0  0  0  0  0  0  0  0  0  0  0  # atno 10765 bound_to 10752
  140.4408  134.1324  155.7690 H   0  0  0  0  0  0  0  0  0  0  0  0  # atno 11005 bound_to 11000
  145.7768  139.1877  143.2180 LP  0  0  0  0  0  0  0  0  0  0  0  0  # atno 17320 bound_to 7965
  146.0866  140.7704  142.9615 LP  0  0  0  0  0  0  0  0  0  0  0  0  # atno 17321 bound_to 7965
  139.5036  144.3785  152.0399 LP  0  0  0  0  0  0  0  0  0  0  0  0  # atno 17342 bound_to 10162
  140.2904  144.3760  150.6090 LP  0  0  0  0  0  0  0  0  0  0  0  0  # atno 17343 bound_to 10162
  156.8220  130.9362  151.3641 LP  0  0  0  0  0  0  0  0  0  0  0  0  # atno 17370 bound_to 10713
  157.6469  130.8852  149.9557 LP  0  0  0  0  0  0  0  0  0  0  0  0  # atno 17371 bound_to 10713
  141.1706  133.8616  157.1581 LP  0  0  0  0  0  0  0  0  0  0  0  0  # atno 17394 bound_to 11000
  140.0071  135.0004  157.0316 LP  0  0  0  0  0  0  0  0  0  0  0  0  # atno 17395 bound_to 11000

$$$$
