AV-unprocessed.smi:1419|AV-procd|sdf|5776|dock4
  -GOLD-   22720 5423D 1   1.00000     0.00000
 Structure written by MMmdl.
 42 43  0  0  0  0  0  0  0  0  2 V2000
  146.0290  131.3077  153.3702 C   0  0  0  0  0  0  0  0  0  0  0  0
  146.2149  132.8300  153.4190 C   0  0  2  0  0  0  0  0  0  0  0  0
  146.6418  133.3868  152.0441 C   0  0  0  0  0  0  0  0  0  0  0  0
  145.6522  133.1298  150.9917 N   0  0  0  0  0  0  0  0  0  0  0  0
  145.7830  132.2873  149.9175 C   0  0  0  0  0  0  0  0  0  0  0  0
  144.6066  132.3616  149.2171 C   0  0  0  0  0  0  0  0  0  0  0  0
  143.8114  133.2518  149.8878 N   0  3  0  0  0  0  0  0  0  0  0  0
  144.4504  133.7212  150.9644 C   0  0  0  0  0  0  0  0  0  0  0  0
  147.2077  133.1522  154.4430 N   0  0  0  0  0  0  0  0  0  0  0  0
  148.5358  132.9676  154.3435 C   0  0  0  0  0  0  0  0  0  0  0  0
  149.0628  132.5205  153.3239 O   0  0  0  0  0  0  0  0  0  0  0  0
  149.2391  133.3154  155.4491 N   0  0  0  0  0  0  0  0  0  0  0  0
  148.7080  133.5116  156.8041 C   0  0  0  0  0  0  0  0  0  0  0  0
  149.1383  132.3077  157.6641 C   0  0  2  0  0  0  0  0  0  0  0  0
  148.6817  132.4462  159.1203 C   0  0  0  0  0  0  0  0  0  0  0  0
  150.5647  132.2031  157.6574 O   0  0  0  0  0  0  0  0  0  0  0  0
  151.1788  132.1255  156.3667 C   0  0  1  0  0  0  0  0  0  0  0  0
  150.9659  130.7405  155.7295 C   0  0  0  0  0  0  0  0  0  0  0  0
  150.7034  133.3032  155.4882 C   0  0  0  0  0  0  0  0  0  0  0  0
  145.2737  131.0280  152.6353 H   0  0  0  0  0  0  0  0  0  0  0  0
  145.7046  130.9205  154.3366 H   0  0  0  0  0  0  0  0  0  0  0  0
  146.9570  130.8008  153.1025 H   0  0  0  0  0  0  0  0  0  0  0  0
  145.2497  133.2620  153.6898 H   0  0  0  0  0  0  0  0  0  0  0  0
  146.8250  134.4615  152.0990 H   0  0  0  0  0  0  0  0  0  0  0  0
  147.5759  132.9239  151.7229 H   0  0  0  0  0  0  0  0  0  0  0  0
  146.6766  131.7061  149.7414 H   0  0  0  0  0  0  0  0  0  0  0  0
  144.2846  131.8607  148.3156 H   0  0  0  0  0  0  0  0  0  0  0  0
  144.0658  134.4293  151.6769 H   0  0  0  0  0  0  0  0  0  0  0  0
  146.8556  133.5411  155.3058 H   0  0  0  0  0  0  0  0  0  0  0  0
  149.1148  134.4352  157.2191 H   0  0  0  0  0  0  0  0  0  0  0  0
  147.6250  133.6288  156.8413 H   0  0  0  0  0  0  0  0  0  0  0  0
  148.7035  131.3939  157.2575 H   0  0  0  0  0  0  0  0  0  0  0  0
  147.5957  132.5157  159.1872 H   0  0  0  0  0  0  0  0  0  0  0  0
  149.1037  133.3389  159.5829 H   0  0  0  0  0  0  0  0  0  0  0  0
  148.9963  131.5847  159.7098 H   0  0  0  0  0  0  0  0  0  0  0  0
  152.2508  132.2412  156.5291 H   0  0  0  0  0  0  0  0  0  0  0  0
  151.5032  130.6632  154.7842 H   0  0  0  0  0  0  0  0  0  0  0  0
  149.9167  130.5357  155.5245 H   0  0  0  0  0  0  0  0  0  0  0  0
  151.3354  129.9518  156.3849 H   0  0  0  0  0  0  0  0  0  0  0  0
  151.1551  133.2430  154.4967 H   0  0  0  0  0  0  0  0  0  0  0  0
  151.0537  134.2452  155.9127 H   0  0  0  0  0  0  0  0  0  0  0  0
  142.8743  133.5173  149.6114 H   0  0  0  0  0  0  0  0  0  0  0  0
  1  2  1  0  0  0  0
  1 20  1  0  0  0  0
  1 21  1  0  0  0  0
  1 22  1  0  0  0  0
  2  3  1  0  0  0  0
  2  9  1  0  0  0  0
  2 23  1  0  0  0  0
  3  4  1  0  0  0  0
  3 24  1  0  0  0  0
  3 25  1  0  0  0  0
  4  8  1  0  0  0  0
  4  5  1  0  0  0  0
  5  6  2  0  0  0  0
  5 26  1  0  0  0  0
  6  7  1  0  0  0  0
  6 27  1  0  0  0  0
  7  8  2  0  0  0  0
  7 42  1  0  0  0  0
  8 28  1  0  0  0  0
  9 10  1  0  0  0  0
  9 29  1  0  0  0  0
 10 11  2  0  0  0  0
 10 12  1  0  0  0  0
 12 19  1  0  0  0  0
 12 13  1  0  0  0  0
 13 14  1  0  0  0  0
 13 30  1  0  0  0  0
 13 31  1  0  0  0  0
 14 15  1  0  0  0  0
 14 16  1  0  0  0  0
 14 32  1  0  0  0  0
 15 33  1  0  0  0  0
 15 34  1  0  0  0  0
 15 35  1  0  0  0  0
 16 17  1  0  0  0  0
 17 18  1  0  0  0  0
 17 19  1  0  0  0  0
 17 36  1  0  0  0  0
 18 37  1  0  0  0  0
 18 38  1  0  0  0  0
 18 39  1  0  0  0  0
 19 40  1  0  0  0  0
 19 41  1  0  0  0  0
M  CHG  1   7   1
M  END
> <s_m_source_file>
AV-unprocessed.smi

> <i_m_source_file_index>
1419

> <i_lp_mmshare_version>
43012

> <i_f3d_flags>
0

> <s_epik_input>
W2NIXTFuW2NIXVtjSF1uMVtDSDJdW0NAQEhdKFtDSDNdKVtOSF1DKD1PKU4yW0NIMl1bQ0BASF0oW0NIM10pT1tDQEBIXShbQ0gzXSlbQ0gyXTI=

> <s_epik_cmdline>
J2VwaWtfcHl0aG9uJywgJy1waCcsICc3LjAnLCAnLXRuJywgJzgnLCAnLW1hJywgJzIwMCcsICctbWV0YWxfYmluZGluZycsICctaW1hZScsICc8aW5maWxlLm1hZT4nLCAnLW9tYWUnLCAnPG91dGZpbGUubWFlPic=

> <r_lp_tautomer_probability>
1

> <r_epik_Ionization_Penalty>
0.253607

> <r_epik_Ionization_Penalty_Charging>
0

> <r_epik_Ionization_Penalty_Neutral>
0.253607

> <r_epik_State_Penalty>
0.245018

> <r_epik_Charging_Adjusted_Penalty>
0.245018

> <i_epik_Tot_Q>
1

> <i_epik_Tot_abs_Q>
1

> <r_epik_Metal_State_Penalty>
0.535379

> <b_epik_Metal_Only>
0

> <s_lp_Force_Field>
OPLS_2005

> <r_lp_Energy>
31.3779

> <b_lp_Chiralities_Consistent>
1

> <s_lp_Variant>
AV-unprocessed.smi:1419-3

> <Gold.Version>
5.8.1

> <Gold.Id.Protein>
6NUR|6NUR_protein|mol2

> <Gold.PLP.Fitness>
39.9127

> <Gold.PLP.PLP>
-28.4437

> <Gold.PLP.part.hbond>
-2.0000

> <Gold.PLP.part.metal>
0.0000

> <Gold.PLP.part.buried>
-5.3171

> <Gold.PLP.part.nonpolar>
-22.0512

> <Gold.PLP.part.repulsive>
0.2414

> <Gold.PLP.ligand.clash>
0.0000

> <Gold.PLP.ligand.torsion>
0.2923

> <Gold.PLP.Chemscore.Hbond>
3.0000

> <Gold.PLP.Chemscore.CHOScore>
1.0000

> <Gold.PLP.Chemscore.Metal>
0.0000

> <Gold.Chemscore.Hbonds>
donor molecule, donor type, donor heavy atom, donor atom, acceptor molecule, acceptor atom, score
      L1  H     7    42       P1 10186  1.79
      P1  H  6896  6909       L1    16  0.86
      L1  C     5    26       P1 10747  1.00

> <Gold.PLP.Chemscore.Internal.Correction>
0.0536

> <Gold.Rescore>
     Score         DG    S(hbond)    S(metal)    S(lipo)     H(rot)  DE(clash)    DE(int)     intcor
     13.60     -14.92       1.92        0.00      61.59       1.63       0.06       1.26       ----

> <Gold.Chemscore.Fitness>
13.6003

> <Gold.Chemscore.DG>
-14.9164

> <Gold.Chemscore.ZeroCoef>
-5.4800

> <Gold.Chemscore.Hbond>
1.9151

> <Gold.Chemscore.Metal>
0.0000

> <Gold.Chemscore.Lipo>
61.5871

> <Gold.Chemscore.Internal_Hbond>
0.0000

> <Gold.Chemscore.DEClash>
0.0580

> <Gold.Chemscore.DEInternal>
1.2581

> <Gold.Chemscore.Rot>
1.6273

> <Gold.Chemscore.Internal.Correction>
   9.000000E+99

> <Gold.Chemscore.Hbonds>
donor molecule, donor type, donor heavy atom, donor atom, acceptor molecule, acceptor atom, score
      L1  H     7    42       P1 10186  0.85
      P1  H  6896  6909       L1    16  0.21

> <Gold.Chemscore.Hbond.Weighted>
-6.3965

> <Gold.Chemscore.Metal.Weighted>
-0.0000

> <Gold.Chemscore.Lipo.Weighted>
-7.2057

> <Gold.Chemscore.Internal_Hbond.Weighted>
0.0000

> <Gold.Chemscore.DEClash.Weighted>
0.0580

> <Gold.Chemscore.DEInternal.Weighted>
1.2581

> <Gold.Chemscore.Rot.Weighted>
4.1658

> <Gold.Chemscore.Internal.Correction.Weighted>
   9.000000E+99

> <Gold.Protein.RotatedTorsions>
[ 6907 6896 6895 6894 ] final  -20.83 input  -60.11 | X-H torsion
[ 7974 7965 7964 7962 ] final -114.12 input  175.53 | X-H torsion
[ 8008 7997 7996 7995 ] final  127.05 input   59.86 | X-H torsion
[ 10167 10162 10161 10158 ] final  124.46 input  -65.29 | X-H torsion
[ 10718 10713 10712 10709 ] final  -32.74 input   66.30 | X-H torsion
[ 10763 10752 10751 10750 ] final   60.29 input  -60.55 | X-H torsion
[ 11005 11000 10999 10996 ] final  -52.64 input  -57.11 | X-H torsion

> <Gold.Protein.ActiveResidues>
 VAL166  LYS551  ARG553  GLY616  TRP617  ASP618  TYR619  PRO620  LYS621  CYS622 
 ASP623  PHE694  ASN695  SER759  ASP760  ASP761  ALA762  ILE779  LEU786  VAL792 
 PHE793  MET794  SER795  GLU796  ALA797  LYS798  CYS799  TRP800  GLU811  SER814 

> <Gold.Protein.RotatedAtoms>
  151.2424  135.0593  159.9029 H   0  0  0  0  0  0  0  0  0  0  0  0  # atno 6907 bound_to 6896
  152.5391  134.0420  159.8082 H   0  0  0  0  0  0  0  0  0  0  0  0  # atno 6908 bound_to 6896
  151.0616  133.5491  159.2665 H   0  0  0  0  0  0  0  0  0  0  0  0  # atno 6909 bound_to 6896
  145.1239  140.8685  143.3798 H   0  0  0  0  0  0  0  0  0  0  0  0  # atno 7974 bound_to 7965
  156.2880  140.2678  156.2210 H   0  0  0  0  0  0  0  0  0  0  0  0  # atno 8008 bound_to 7997
  155.0168  140.0387  157.2439 H   0  0  0  0  0  0  0  0  0  0  0  0  # atno 8009 bound_to 7997
  154.7470  140.2736  155.6330 H   0  0  0  0  0  0  0  0  0  0  0  0  # atno 8010 bound_to 7997
  139.5740  144.6954  151.3702 H   0  0  0  0  0  0  0  0  0  0  0  0  # atno 10167 bound_to 10162
  156.3711  130.4340  149.7544 H   0  0  0  0  0  0  0  0  0  0  0  0  # atno 10718 bound_to 10713
  152.9917  135.5541  154.5850 H   0  0  0  0  0  0  0  0  0  0  0  0  # atno 10763 bound_to 10752
  154.5224  135.2808  155.1253 H   0  0  0  0  0  0  0  0  0  0  0  0  # atno 10764 bound_to 10752
  154.2601  135.6382  153.5324 H   0  0  0  0  0  0  0  0  0  0  0  0  # atno 10765 bound_to 10752
  141.0935  133.6628  156.4054 H   0  0  0  0  0  0  0  0  0  0  0  0  # atno 11005 bound_to 11000
  145.0710  139.3032  143.5832 LP  0  0  0  0  0  0  0  0  0  0  0  0  # atno 17320 bound_to 7965
  146.3519  140.0184  142.8660 LP  0  0  0  0  0  0  0  0  0  0  0  0  # atno 17321 bound_to 7965
  140.7024  143.7599  150.7425 LP  0  0  0  0  0  0  0  0  0  0  0  0  # atno 17342 bound_to 10162
  140.1114  143.4696  152.2368 LP  0  0  0  0  0  0  0  0  0  0  0  0  # atno 17343 bound_to 10162
  156.4671  130.7979  151.2998 LP  0  0  0  0  0  0  0  0  0  0  0  0  # atno 17370 bound_to 10713
  157.7484  131.0047  150.3087 LP  0  0  0  0  0  0  0  0  0  0  0  0  # atno 17371 bound_to 10713
  140.5196  134.6317  157.5313 LP  0  0  0  0  0  0  0  0  0  0  0  0  # atno 17394 bound_to 11000
  139.9766  134.7205  155.9938 LP  0  0  0  0  0  0  0  0  0  0  0  0  # atno 17395 bound_to 11000

$$$$
