AV-unprocessed.smi:560|AV-procd|sdf|2934|dock9
  -GOLD-   2262023433D 1   1.00000     0.00000
 Structure written by MMmdl.
 41 42  0  0  0  0  0  0  0  0  3 V2000
  152.8902  139.3585  159.3211 C   0  0  0  0  0  0  0  0  0  0  0  0
  151.7708  139.7484  158.3345 C   0  0  2  0  0  0  0  0  0  0  0  0
  151.9530  139.1188  156.9437 C   0  0  0  0  0  0  0  0  0  0  0  0
  152.7536  139.5913  156.1361 O   0  0  0  0  0  0  0  0  0  0  0  0
  151.2003  138.0386  156.6803 N   0  0  0  0  0  0  0  0  0  0  0  0
  151.2012  137.2898  155.4248 C   0  0  2  0  0  0  0  0  0  0  0  0
  150.9302  138.2315  154.2391 C   0  0  0  0  0  0  0  0  0  0  0  0
  149.4721  138.7258  154.2148 C   0  0  0  0  0  0  0  0  0  0  0  0
  148.5156  137.5899  154.2156 N   0  3  2  0  0  0  0  0  0  0  0  0
  147.1100  138.0399  154.0592 C   0  0  0  0  0  0  0  0  0  0  0  0
  146.9711  138.9200  152.8125 C   0  0  0  0  0  0  0  0  0  0  0  0
  147.2625  138.2561  151.6775 N   0  5  0  0  0  0  0  0  0  0  0  0
  146.6407  140.0979  152.9356 O   0  0  0  0  0  0  0  0  0  0  0  0
  148.7184  136.7005  155.3911 C   0  0  0  0  0  0  0  0  0  0  0  0
  150.1569  136.1565  155.4338 C   0  0  0  0  0  0  0  0  0  0  0  0
  151.6166  141.1948  158.2251 N   0  0  0  0  0  0  0  0  0  0  0  0
  152.2717  142.1750  158.9428 C   0  0  0  0  0  0  0  0  0  0  0  0
  151.7876  143.3820  158.5269 C   0  0  0  0  0  0  0  0  0  0  0  0
  150.8184  143.0369  157.5445 C   0  0  0  0  0  0  0  0  0  0  0  0
  150.7124  141.7298  157.3716 N   0  0  0  0  0  0  0  0  0  0  0  0
  152.9549  138.2759  159.4352 H   0  0  0  0  0  0  0  0  0  0  0  0
  152.7001  139.7792  160.3089 H   0  0  0  0  0  0  0  0  0  0  0  0
  153.8678  139.7149  158.9941 H   0  0  0  0  0  0  0  0  0  0  0  0
  150.8367  139.3565  158.7403 H   0  0  0  0  0  0  0  0  0  0  0  0
  150.5681  137.7212  157.4005 H   0  0  0  0  0  0  0  0  0  0  0  0
  152.1938  136.8557  155.2920 H   0  0  0  0  0  0  0  0  0  0  0  0
  151.6142  139.0809  154.2659 H   0  0  0  0  0  0  0  0  0  0  0  0
  151.1408  137.7030  153.3082 H   0  0  0  0  0  0  0  0  0  0  0  0
  149.2734  139.3695  155.0731 H   0  0  0  0  0  0  0  0  0  0  0  0
  149.3184  139.3337  153.3225 H   0  0  0  0  0  0  0  0  0  0  0  0
  146.4340  137.1818  154.0508 H   0  0  0  0  0  0  0  0  0  0  0  0
  146.8185  138.6552  154.9115 H   0  0  0  0  0  0  0  0  0  0  0  0
  147.9377  137.4831  151.7119 H   0  0  0  0  0  0  0  0  0  0  0  0
  148.4930  137.2473  156.3081 H   0  0  0  0  0  0  0  0  0  0  0  0
  148.0257  135.8595  155.3523 H   0  0  0  0  0  0  0  0  0  0  0  0
  150.3191  135.5149  154.5666 H   0  0  0  0  0  0  0  0  0  0  0  0
  150.2890  135.5171  156.3073 H   0  0  0  0  0  0  0  0  0  0  0  0
  153.0213  141.9349  159.6823 H   0  0  0  0  0  0  0  0  0  0  0  0
  152.0792  144.3626  158.8728 H   0  0  0  0  0  0  0  0  0  0  0  0
  150.1907  143.6924  156.9589 H   0  0  0  0  0  0  0  0  0  0  0  0
  148.7214  137.0415  153.3923 H   0  0  0  0  0  0  0  0  0  0  0  0
  1  2  1  0  0  0  0
  1 21  1  0  0  0  0
  1 22  1  0  0  0  0
  1 23  1  0  0  0  0
  2  3  1  0  0  0  0
  2 16  1  0  0  0  0
  2 24  1  0  0  0  0
  3  4  2  0  0  0  0
  3  5  1  0  0  0  0
  5  6  1  0  0  0  0
  5 25  1  0  0  0  0
  6 15  1  0  0  0  0
  6  7  1  0  0  0  0
  6 26  1  0  0  0  0
  7  8  1  0  0  0  0
  7 27  1  0  0  0  0
  7 28  1  0  0  0  0
  8  9  1  0  0  0  0
  8 29  1  0  0  0  0
  8 30  1  0  0  0  0
  9 10  1  0  0  0  0
  9 14  1  0  0  0  0
  9 41  1  0  0  0  0
 10 11  1  0  0  0  0
 10 31  1  0  0  0  0
 10 32  1  0  0  0  0
 11 12  1  0  0  0  0
 11 13  2  0  0  0  0
 12 33  1  0  0  0  0
 14 15  1  0  0  0  0
 14 34  1  0  0  0  0
 14 35  1  0  0  0  0
 15 36  1  0  0  0  0
 15 37  1  0  0  0  0
 16 20  1  0  0  0  0
 16 17  1  0  0  0  0
 17 18  2  0  0  0  0
 17 38  1  0  0  0  0
 18 19  1  0  0  0  0
 18 39  1  0  0  0  0
 19 20  2  0  0  0  0
 19 40  1  0  0  0  0
M  CHG  1   9   1
M  CHG  1  12  -1
M  END
> <s_m_source_file>
AV-unprocessed.smi

> <i_m_source_file_index>
560

> <i_lp_mmshare_version>
43012

> <i_f3d_flags>
0

> <s_epik_input>
bjFbY0hdW2NIXVtjSF1uMVtDQEhdKFtDSDNdKUMoPU8pW05IXVtDSF0yW0NIMl1bQ0gyXU4oW0NIMl1bQ0gyXTIpW0NIMl1DKD1PKVtOSDJd

> <s_epik_cmdline>
J2VwaWtfcHl0aG9uJywgJy1waCcsICc3LjAnLCAnLXRuJywgJzgnLCAnLW1hJywgJzIwMCcsICctbWV0YWxfYmluZGluZycsICctaW1hZScsICc8aW5maWxlLm1hZT4nLCAnLW9tYWUnLCAnPG91dGZpbGUubWFlPic=

> <r_lp_tautomer_probability>
1

> <r_epik_Ionization_Penalty>
5.71084

> <r_epik_Ionization_Penalty_Charging>
5.71081

> <r_epik_Ionization_Penalty_Neutral>
3.04611e-05

> <r_epik_State_Penalty>
6.71277

> <r_epik_Charging_Adjusted_Penalty>
12.4236

> <i_epik_Tot_Q>
0

> <i_epik_Tot_abs_Q>
2

> <r_epik_Metal_State_Penalty>
2.67562

> <b_epik_Metal_Only>
1

> <s_lp_Force_Field>
OPLS_2005

> <r_lp_Energy>
9.92131

> <b_lp_Chiralities_Consistent>
1

> <s_lp_Variant>
AV-unprocessed.smi:560-9

> <Gold.Version>
5.8.1

> <Gold.Id.Protein>
6NUR|6NUR_protein|mol2

> <Gold.PLP.Fitness>
48.0233

> <Gold.PLP.PLP>
-33.9841

> <Gold.PLP.part.hbond>
-5.0000

> <Gold.PLP.part.metal>
0.0000

> <Gold.PLP.part.buried>
-5.7339

> <Gold.PLP.part.nonpolar>
-24.6928

> <Gold.PLP.part.repulsive>
0.3163

> <Gold.PLP.ligand.clash>
0.0000

> <Gold.PLP.ligand.torsion>
0.5528

> <Gold.PLP.Chemscore.Hbond>
4.0000

> <Gold.PLP.Chemscore.CHOScore>
1.0000

> <Gold.PLP.Chemscore.Metal>
0.0000

> <Gold.Chemscore.Hbonds>
donor molecule, donor type, donor heavy atom, donor atom, acceptor molecule, acceptor atom, score
      L1  H     9    41       P1  7948  2.00
      L1  H    12    33       P1  7948  1.00
      P1  H  7997  8009       L1     4  1.00
      L1  C    19    40       P1  8028  1.00

> <Gold.PLP.Chemscore.Internal.Correction>
0.1448

> <Gold.Rescore>
     Score         DG    S(hbond)    S(metal)    S(lipo)     H(rot)  DE(clash)    DE(int)     intcor
     17.23     -17.64       2.97        0.00      73.35       2.47       0.06       0.35       ----

> <Gold.Chemscore.Fitness>
17.2295

> <Gold.Chemscore.DG>
-17.6423

> <Gold.Chemscore.ZeroCoef>
-5.4800

> <Gold.Chemscore.Hbond>
2.9678

> <Gold.Chemscore.Metal>
0.0000

> <Gold.Chemscore.Lipo>
73.3484

> <Gold.Chemscore.Internal_Hbond>
0.0000

> <Gold.Chemscore.DEClash>
0.0580

> <Gold.Chemscore.DEInternal>
0.3548

> <Gold.Chemscore.Rot>
2.4734

> <Gold.Chemscore.Internal.Correction>
   9.000000E+99

> <Gold.Chemscore.Hbonds>
donor molecule, donor type, donor heavy atom, donor atom, acceptor molecule, acceptor atom, score
      L1  H     9    41       P1  7948  1.00
      L1  H    12    33       P1  7948  0.98
      P1  H  7997  8009       L1     4  0.98

> <Gold.Chemscore.Hbond.Weighted>
-9.9123

> <Gold.Chemscore.Metal.Weighted>
-0.0000

> <Gold.Chemscore.Lipo.Weighted>
-8.5818

> <Gold.Chemscore.Internal_Hbond.Weighted>
0.0000

> <Gold.Chemscore.DEClash.Weighted>
0.0580

> <Gold.Chemscore.DEInternal.Weighted>
0.3548

> <Gold.Chemscore.Rot.Weighted>
6.3318

> <Gold.Chemscore.Internal.Correction.Weighted>
   9.000000E+99

> <Gold.Protein.RotatedTorsions>
[ 6907 6896 6895 6894 ] final  167.11 input  -60.11 | X-H torsion
[ 7974 7965 7964 7962 ] final -142.65 input  175.53 | X-H torsion
[ 8008 7997 7996 7995 ] final -175.92 input   59.86 | X-H torsion
[ 10167 10162 10161 10158 ] final   45.99 input  -65.29 | X-H torsion
[ 10718 10713 10712 10709 ] final  -89.65 input   66.30 | X-H torsion
[ 10763 10752 10751 10750 ] final  103.51 input  -60.55 | X-H torsion
[ 11005 11000 10999 10996 ] final  165.01 input  -57.11 | X-H torsion

> <Gold.Protein.ActiveResidues>
 VAL166  LYS551  ARG553  GLY616  TRP617  ASP618  TYR619  PRO620  LYS621  CYS622 
 ASP623  PHE694  ASN695  SER759  ASP760  ASP761  ALA762  ILE779  LEU786  VAL792 
 PHE793  MET794  SER795  GLU796  ALA797  LYS798  CYS799  TRP800  GLU811  SER814 

> <Gold.Protein.RotatedAtoms>
  151.8684  133.3471  159.3726 H   0  0  0  0  0  0  0  0  0  0  0  0  # atno 6907 bound_to 6896
  150.7159  134.5137  159.5629 H   0  0  0  0  0  0  0  0  0  0  0  0  # atno 6908 bound_to 6896
  152.2664  134.7980  160.0473 H   0  0  0  0  0  0  0  0  0  0  0  0  # atno 6909 bound_to 6896
  144.8428  140.5932  143.5441 H   0  0  0  0  0  0  0  0  0  0  0  0  # atno 7974 bound_to 7965
  155.9886  140.1196  157.0660 H   0  0  0  0  0  0  0  0  0  0  0  0  # atno 8008 bound_to 7997
  154.4204  140.1130  156.5602 H   0  0  0  0  0  0  0  0  0  0  0  0  # atno 8009 bound_to 7997
  155.6374  140.3473  155.4705 H   0  0  0  0  0  0  0  0  0  0  0  0  # atno 8010 bound_to 7997
  140.3185  144.2734  150.6187 H   0  0  0  0  0  0  0  0  0  0  0  0  # atno 10167 bound_to 10162
  155.9985  130.4880  150.5203 H   0  0  0  0  0  0  0  0  0  0  0  0  # atno 10718 bound_to 10713
  153.3536  135.3974  155.1665 H   0  0  0  0  0  0  0  0  0  0  0  0  # atno 10763 bound_to 10752
  154.8667  135.3662  154.5190 H   0  0  0  0  0  0  0  0  0  0  0  0  # atno 10764 bound_to 10752
  153.5644  135.7080  153.5593 H   0  0  0  0  0  0  0  0  0  0  0  0  # atno 10765 bound_to 10752
  140.2518  134.7971  157.3509 H   0  0  0  0  0  0  0  0  0  0  0  0  # atno 11005 bound_to 11000
  145.4659  139.1508  143.3840 LP  0  0  0  0  0  0  0  0  0  0  0  0  # atno 17320 bound_to 7965
  146.2717  140.4791  142.8811 LP  0  0  0  0  0  0  0  0  0  0  0  0  # atno 17321 bound_to 7965
  140.5504  143.2207  151.7936 LP  0  0  0  0  0  0  0  0  0  0  0  0  # atno 17342 bound_to 10162
  139.4879  144.4483  151.9684 LP  0  0  0  0  0  0  0  0  0  0  0  0  # atno 17343 bound_to 10162
  157.3165  131.0674  151.1963 LP  0  0  0  0  0  0  0  0  0  0  0  0  # atno 17370 bound_to 10713
  157.2890  130.6787  149.6104 LP  0  0  0  0  0  0  0  0  0  0  0  0  # atno 17371 bound_to 10713
  140.1551  134.4800  155.7934 LP  0  0  0  0  0  0  0  0  0  0  0  0  # atno 17394 bound_to 11000
  141.2200  133.6878  156.7446 LP  0  0  0  0  0  0  0  0  0  0  0  0  # atno 17395 bound_to 11000

$$$$
