AV-unprocessed.smi:1914|AV-procd|sdf|7756|dock7
  -GOLD-   22720 9493D 1   1.00000     0.00000
 Structure written by MMmdl.
 44 45  0  0  0  0  0  0  0  0  2 V2000
  144.5417  135.3529  150.0845 C   0  0  0  0  0  0  0  0  0  0  0  0
  145.6033  135.3419  151.1933 C   0  0  2  0  0  0  0  0  0  0  0  0
  145.3910  134.1665  152.1619 C   0  0  0  0  0  0  0  0  0  0  0  0
  146.4481  134.1963  153.2728 C   0  0  0  0  0  0  0  0  0  0  0  0
  146.4495  135.5535  153.9940 C   0  0  0  0  0  0  0  0  0  0  0  0
  146.6616  136.6692  153.0357 N   0  3  2  0  0  0  0  0  0  0  0  0
  146.8038  137.9771  153.7239 C   0  0  0  0  0  0  0  0  0  0  0  0
  147.0013  139.1450  152.7375 C   0  0  0  0  0  0  0  0  0  0  0  0
  148.0565  140.0467  153.1840 N   0  0  0  0  0  0  0  0  0  0  0  0
  148.1128  140.6229  154.3944 C   0  0  0  0  0  0  0  0  0  0  0  0
  147.2713  140.4257  155.2721 O   0  0  0  0  0  0  0  0  0  0  0  0
  149.3100  141.5498  154.6480 C   0  0  0  0  0  0  0  0  0  0  0  0
  150.0369  141.2303  155.8881 N   0  0  0  0  0  0  0  0  0  0  0  0
  149.7332  142.0002  157.0287 C   0  0  0  0  0  0  0  0  0  0  0  0
  150.3380  141.7899  158.2086 C   0  0  0  0  0  0  0  0  0  0  0  0
  151.3250  140.7398  158.2925 C   0  0  0  0  0  0  0  0  0  0  0  0
  151.6261  140.0001  157.2067 C   0  0  0  0  0  0  0  0  0  0  0  0
  150.9699  140.2284  155.9141 C   0  0  0  0  0  0  0  0  0  0  0  0
  151.2425  139.5617  154.9151 O   0  0  0  0  0  0  0  0  0  0  0  0
  145.6252  136.6754  151.9678 C   0  0  0  0  0  0  0  0  0  0  0  0
  143.5398  135.4816  150.4956 H   0  0  0  0  0  0  0  0  0  0  0  0
  144.5528  134.4192  149.5214 H   0  0  0  0  0  0  0  0  0  0  0  0
  144.7186  136.1645  149.3781 H   0  0  0  0  0  0  0  0  0  0  0  0
  146.5755  135.2141  150.7147 H   0  0  0  0  0  0  0  0  0  0  0  0
  144.3944  134.2206  152.6027 H   0  0  0  0  0  0  0  0  0  0  0  0
  145.4435  133.2184  151.6252 H   0  0  0  0  0  0  0  0  0  0  0  0
  146.2595  133.3948  153.9877 H   0  0  0  0  0  0  0  0  0  0  0  0
  147.4341  134.0053  152.8472 H   0  0  0  0  0  0  0  0  0  0  0  0
  145.5064  135.7010  154.5234 H   0  0  0  0  0  0  0  0  0  0  0  0
  147.2397  135.5551  154.7461 H   0  0  0  0  0  0  0  0  0  0  0  0
  145.9411  138.1536  154.3680 H   0  0  0  0  0  0  0  0  0  0  0  0
  147.6728  137.9352  154.3819 H   0  0  0  0  0  0  0  0  0  0  0  0
  147.2304  138.7689  151.7390 H   0  0  0  0  0  0  0  0  0  0  0  0
  146.0914  139.7361  152.6455 H   0  0  0  0  0  0  0  0  0  0  0  0
  148.7930  140.2543  152.5247 H   0  0  0  0  0  0  0  0  0  0  0  0
  149.9739  141.4888  153.7849 H   0  0  0  0  0  0  0  0  0  0  0  0
  148.9713  142.5874  154.6754 H   0  0  0  0  0  0  0  0  0  0  0  0
  148.9891  142.7696  156.8818 H   0  0  0  0  0  0  0  0  0  0  0  0
  150.0947  142.3924  159.0716 H   0  0  0  0  0  0  0  0  0  0  0  0
  151.8253  140.5470  159.2299 H   0  0  0  0  0  0  0  0  0  0  0  0
  152.3680  139.2193  157.2882 H   0  0  0  0  0  0  0  0  0  0  0  0
  145.8160  137.4861  151.2656 H   0  0  0  0  0  0  0  0  0  0  0  0
  144.6474  136.8693  152.4124 H   0  0  0  0  0  0  0  0  0  0  0  0
  147.5479  136.4866  152.5868 H   0  0  0  0  0  0  0  0  0  0  0  0
  1  2  1  0  0  0  0
  1 21  1  0  0  0  0
  1 22  1  0  0  0  0
  1 23  1  0  0  0  0
  2 20  1  0  0  0  0
  2  3  1  0  0  0  0
  2 24  1  0  0  0  0
  3  4  1  0  0  0  0
  3 25  1  0  0  0  0
  3 26  1  0  0  0  0
  4  5  1  0  0  0  0
  4 27  1  0  0  0  0
  4 28  1  0  0  0  0
  5  6  1  0  0  0  0
  5 29  1  0  0  0  0
  5 30  1  0  0  0  0
  6  7  1  0  0  0  0
  6 20  1  0  0  0  0
  6 44  1  0  0  0  0
  7  8  1  0  0  0  0
  7 31  1  0  0  0  0
  7 32  1  0  0  0  0
  8  9  1  0  0  0  0
  8 33  1  0  0  0  0
  8 34  1  0  0  0  0
  9 10  1  0  0  0  0
  9 35  1  0  0  0  0
 10 11  2  0  0  0  0
 10 12  1  0  0  0  0
 12 13  1  0  0  0  0
 12 36  1  0  0  0  0
 12 37  1  0  0  0  0
 13 18  1  0  0  0  0
 13 14  1  0  0  0  0
 14 15  2  0  0  0  0
 14 38  1  0  0  0  0
 15 16  1  0  0  0  0
 15 39  1  0  0  0  0
 16 17  2  0  0  0  0
 16 40  1  0  0  0  0
 17 18  1  0  0  0  0
 17 41  1  0  0  0  0
 18 19  2  0  0  0  0
 20 42  1  0  0  0  0
 20 43  1  0  0  0  0
M  CHG  1   6   1
M  END
> <s_m_source_file>
AV-unprocessed.smi

> <i_m_source_file_index>
1914

> <i_lp_mmshare_version>
43012

> <i_f3d_flags>
0

> <s_epik_input>
W0NIM11bQ0BASF0xW0NIMl1bQ0gyXVtDSDJdTihbQ0gyXTEpW0NIMl1bQ0gyXVtOSF1DKD1PKVtDSDJdbjJbY0hdW2NIXVtjSF1bY0hdYzI9Tw==

> <s_epik_cmdline>
J2VwaWtfcHl0aG9uJywgJy1waCcsICc3LjAnLCAnLXRuJywgJzgnLCAnLW1hJywgJzIwMCcsICctbWV0YWxfYmluZGluZycsICctaW1hZScsICc8aW5maWxlLm1hZT4nLCAnLW9tYWUnLCAnPG91dGZpbGUubWFlPic=

> <r_lp_tautomer_probability>
1

> <r_epik_Ionization_Penalty>
0.00192477

> <r_epik_Ionization_Penalty_Charging>
0.00192469

> <r_epik_Ionization_Penalty_Neutral>
8.16761e-08

> <r_epik_State_Penalty>
0.00131115

> <r_epik_Charging_Adjusted_Penalty>
0.00323584

> <i_epik_Tot_Q>
1

> <i_epik_Tot_abs_Q>
1

> <r_epik_Metal_State_Penalty>
-0

> <b_epik_Metal_Only>
0

> <s_lp_Force_Field>
OPLS_2005

> <r_lp_Energy>
24.8324

> <b_lp_Chiralities_Consistent>
1

> <s_lp_Variant>
AV-unprocessed.smi:1914-1

> <Gold.Version>
5.8.1

> <Gold.Id.Protein>
6NUR|6NUR_protein|mol2

> <Gold.PLP.Fitness>
48.6407

> <Gold.PLP.PLP>
-35.1041

> <Gold.PLP.part.hbond>
-3.0000

> <Gold.PLP.part.metal>
0.0000

> <Gold.PLP.part.buried>
-1.8721

> <Gold.PLP.part.nonpolar>
-29.9943

> <Gold.PLP.part.repulsive>
0.2347

> <Gold.PLP.ligand.clash>
0.0000

> <Gold.PLP.ligand.torsion>
0.7412

> <Gold.PLP.Chemscore.Hbond>
4.0000

> <Gold.PLP.Chemscore.CHOScore>
1.0000

> <Gold.PLP.Chemscore.Metal>
0.0000

> <Gold.Chemscore.Hbonds>
donor molecule, donor type, donor heavy atom, donor atom, acceptor molecule, acceptor atom, score
      L1  H     6    44       P1  7948  2.00
      L1  H     9    35       P1  7957  1.00
      P1  H  7989  7998       L1    19  1.00
      L1  C    14    38       P1  8028  1.00

> <Gold.PLP.Chemscore.Internal.Correction>
0.0191

> <Gold.Rescore>
     Score         DG    S(hbond)    S(metal)    S(lipo)     H(rot)  DE(clash)    DE(int)     intcor
     17.24     -18.14       2.95        0.00      64.50       1.86       0.09       0.81       ----

> <Gold.Chemscore.Fitness>
17.2387

> <Gold.Chemscore.DG>
-18.1350

> <Gold.Chemscore.ZeroCoef>
-5.4800

> <Gold.Chemscore.Hbond>
2.9541

> <Gold.Chemscore.Metal>
0.0000

> <Gold.Chemscore.Lipo>
64.4998

> <Gold.Chemscore.Internal_Hbond>
0.0000

> <Gold.Chemscore.DEClash>
0.0893

> <Gold.Chemscore.DEInternal>
0.8070

> <Gold.Chemscore.Rot>
1.8586

> <Gold.Chemscore.Internal.Correction>
   9.000000E+99

> <Gold.Chemscore.Hbonds>
donor molecule, donor type, donor heavy atom, donor atom, acceptor molecule, acceptor atom, score
      L1  H     6    44       P1  7948  0.98
      L1  H     9    35       P1  7957  0.96
      P1  H  7989  7998       L1    19  0.54

> <Gold.Chemscore.Hbond.Weighted>
-9.8667

> <Gold.Chemscore.Metal.Weighted>
-0.0000

> <Gold.Chemscore.Lipo.Weighted>
-7.5465

> <Gold.Chemscore.Internal_Hbond.Weighted>
0.0000

> <Gold.Chemscore.DEClash.Weighted>
0.0893

> <Gold.Chemscore.DEInternal.Weighted>
0.8070

> <Gold.Chemscore.Rot.Weighted>
4.7581

> <Gold.Chemscore.Internal.Correction.Weighted>
   9.000000E+99

> <Gold.Protein.RotatedTorsions>
[ 6907 6896 6895 6894 ] final   77.24 input  -60.11 | X-H torsion
[ 7974 7965 7964 7962 ] final -152.53 input  175.53 | X-H torsion
[ 8008 7997 7996 7995 ] final -178.43 input   59.86 | X-H torsion
[ 10167 10162 10161 10158 ] final   54.22 input  -65.29 | X-H torsion
[ 10718 10713 10712 10709 ] final  -16.62 input   66.30 | X-H torsion
[ 10763 10752 10751 10750 ] final  166.52 input  -60.55 | X-H torsion
[ 11005 11000 10999 10996 ] final  -99.68 input  -57.11 | X-H torsion

> <Gold.Protein.ActiveResidues>
 VAL166  LYS551  ARG553  GLY616  TRP617  ASP618  TYR619  PRO620  LYS621  CYS622 
 ASP623  PHE694  ASN695  SER759  ASP760  ASP761  ALA762  ILE779  LEU786  VAL792 
 PHE793  MET794  SER795  GLU796  ALA797  LYS798  CYS799  TRP800  GLU811  SER814 

> <Gold.Protein.RotatedAtoms>
  152.5109  134.3846  159.9362 H   0  0  0  0  0  0  0  0  0  0  0  0  # atno 6907 bound_to 6896
  151.3804  133.3817  159.2717 H   0  0  0  0  0  0  0  0  0  0  0  0  # atno 6908 bound_to 6896
  150.9509  134.8929  159.7730 H   0  0  0  0  0  0  0  0  0  0  0  0  # atno 6909 bound_to 6896
  144.7789  140.4649  143.5853 H   0  0  0  0  0  0  0  0  0  0  0  0  # atno 7974 bound_to 7965
  156.0187  140.1256  157.0380 H   0  0  0  0  0  0  0  0  0  0  0  0  # atno 8008 bound_to 7997
  154.4303  140.1073  156.6002 H   0  0  0  0  0  0  0  0  0  0  0  0  # atno 8009 bound_to 7997
  155.5976  140.3470  155.4586 H   0  0  0  0  0  0  0  0  0  0  0  0  # atno 8010 bound_to 7997
  140.2324  144.3672  150.6409 H   0  0  0  0  0  0  0  0  0  0  0  0  # atno 10167 bound_to 10162
  156.5851  130.4784  149.6303 H   0  0  0  0  0  0  0  0  0  0  0  0  # atno 10718 bound_to 10713
  154.3402  135.2754  155.2427 H   0  0  0  0  0  0  0  0  0  0  0  0  # atno 10763 bound_to 10752
  154.4701  135.5885  153.6319 H   0  0  0  0  0  0  0  0  0  0  0  0  # atno 10764 bound_to 10752
  152.9858  135.6086  154.3602 H   0  0  0  0  0  0  0  0  0  0  0  0  # atno 10765 bound_to 10752
  141.1299  133.8340  157.1003 H   0  0  0  0  0  0  0  0  0  0  0  0  # atno 11005 bound_to 11000
  145.6106  139.1513  143.3078 LP  0  0  0  0  0  0  0  0  0  0  0  0  # atno 17320 bound_to 7965
  146.1986  140.6222  142.9113 LP  0  0  0  0  0  0  0  0  0  0  0  0  # atno 17321 bound_to 7965
  140.6175  143.2173  151.6762 LP  0  0  0  0  0  0  0  0  0  0  0  0  # atno 17342 bound_to 10162
  139.5105  144.3540  152.0625 LP  0  0  0  0  0  0  0  0  0  0  0  0  # atno 17343 bound_to 10162
  156.2598  130.6955  151.1720 LP  0  0  0  0  0  0  0  0  0  0  0  0  # atno 17370 bound_to 10713
  157.7317  131.0606  150.5664 LP  0  0  0  0  0  0  0  0  0  0  0  0  # atno 17371 bound_to 10713
  140.0337  134.9888  157.0830 LP  0  0  0  0  0  0  0  0  0  0  0  0  # atno 17394 bound_to 11000
  140.4244  134.1846  155.7165 LP  0  0  0  0  0  0  0  0  0  0  0  0  # atno 17395 bound_to 11000

$$$$
