AV-unprocessed.smi:1118|AV-procd|sdf|4815|dock6
  -GOLD-   22720 3373D 1   1.00000     0.00000
 Structure written by MMmdl.
 45 46  0  0  0  0  0  0  0  0  2 V2000
  141.6260  137.2901  154.7678 C   0  0  0  0  0  0  0  0  0  0  0  0
  142.3328  138.3027  155.4632 O   0  0  0  0  0  0  0  0  0  0  0  0
  143.6681  138.4443  155.0071 C   0  0  0  0  0  0  0  0  0  0  0  0
  144.2484  139.7546  155.5611 C   0  0  0  0  0  0  0  0  0  0  0  0
  145.4458  140.2117  154.8107 N   0  3  2  0  0  0  0  0  0  0  0  0
  146.5087  139.1751  154.7719 C   0  0  0  0  0  0  0  0  0  0  0  0
  147.6749  139.6136  153.8713 C   0  0  0  0  0  0  0  0  0  0  0  0
  148.2803  140.9576  154.3278 C   0  0  2  0  0  0  0  0  0  0  0  0
  149.0978  140.8820  155.6393 C   0  0  0  0  0  0  0  0  0  0  0  0
  149.7297  142.1581  155.9558 N   0  0  0  0  0  0  0  0  0  0  0  0
  150.9204  142.3104  156.5568 C   0  0  0  0  0  0  0  0  0  0  0  0
  151.5880  141.3753  156.9986 O   0  0  0  0  0  0  0  0  0  0  0  0
  151.4617  143.7373  156.6322 C   0  0  0  0  0  0  0  0  0  0  0  0
  151.6468  144.1361  158.0159 N   0  0  0  0  0  0  0  0  0  0  0  0
  150.9932  145.1292  158.7156 C   0  0  0  0  0  0  0  0  0  0  0  0
  151.4863  145.1214  159.9890 C   0  0  0  0  0  0  0  0  0  0  0  0
  152.4489  144.0736  159.9727 C   0  0  0  0  0  0  0  0  0  0  0  0
  152.5424  143.4849  158.7911 N   0  0  0  0  0  0  0  0  0  0  0  0
  147.1501  142.0006  154.4077 C   0  0  0  0  0  0  0  0  0  0  0  0
  145.9716  141.5227  155.2780 C   0  0  0  0  0  0  0  0  0  0  0  0
  140.6108  137.2174  155.1582 H   0  0  0  0  0  0  0  0  0  0  0  0
  142.1048  136.3177  154.8920 H   0  0  0  0  0  0  0  0  0  0  0  0
  141.5612  137.5148  153.7023 H   0  0  0  0  0  0  0  0  0  0  0  0
  144.2687  137.5824  155.2985 H   0  0  0  0  0  0  0  0  0  0  0  0
  143.6758  138.4814  153.9166 H   0  0  0  0  0  0  0  0  0  0  0  0
  143.4913  140.5400  155.5561 H   0  0  0  0  0  0  0  0  0  0  0  0
  144.5099  139.5894  156.6071 H   0  0  0  0  0  0  0  0  0  0  0  0
  146.8594  138.9677  155.7836 H   0  0  0  0  0  0  0  0  0  0  0  0
  146.0973  138.2422  154.3850 H   0  0  0  0  0  0  0  0  0  0  0  0
  148.4329  138.8316  153.8283 H   0  0  0  0  0  0  0  0  0  0  0  0
  147.3088  139.7185  152.8491 H   0  0  0  0  0  0  0  0  0  0  0  0
  148.9715  141.2834  153.5490 H   0  0  0  0  0  0  0  0  0  0  0  0
  148.4344  140.6298  156.4670 H   0  0  0  0  0  0  0  0  0  0  0  0
  149.8362  140.0810  155.5965 H   0  0  0  0  0  0  0  0  0  0  0  0
  149.2602  142.9905  155.6284 H   0  0  0  0  0  0  0  0  0  0  0  0
  152.4104  143.8191  156.0991 H   0  0  0  0  0  0  0  0  0  0  0  0
  150.7628  144.4259  156.1554 H   0  0  0  0  0  0  0  0  0  0  0  0
  150.2384  145.7495  158.2546 H   0  0  0  0  0  0  0  0  0  0  0  0
  151.2018  145.7656  160.8078 H   0  0  0  0  0  0  0  0  0  0  0  0
  153.0773  143.7251  160.7789 H   0  0  0  0  0  0  0  0  0  0  0  0
  147.5355  142.9475  154.7870 H   0  0  0  0  0  0  0  0  0  0  0  0
  146.7833  142.2072  153.4012 H   0  0  0  0  0  0  0  0  0  0  0  0
  145.1872  142.2773  155.2403 H   0  0  0  0  0  0  0  0  0  0  0  0
  146.2746  141.4442  156.3227 H   0  0  0  0  0  0  0  0  0  0  0  0
  145.1475  140.3385  153.8536 H   0  0  0  0  0  0  0  0  0  0  0  0
  1  2  1  0  0  0  0
  1 21  1  0  0  0  0
  1 22  1  0  0  0  0
  1 23  1  0  0  0  0
  2  3  1  0  0  0  0
  3  4  1  0  0  0  0
  3 24  1  0  0  0  0
  3 25  1  0  0  0  0
  4  5  1  0  0  0  0
  4 26  1  0  0  0  0
  4 27  1  0  0  0  0
  5 20  1  0  0  0  0
  5  6  1  0  0  0  0
  5 45  1  0  0  0  0
  6  7  1  0  0  0  0
  6 28  1  0  0  0  0
  6 29  1  0  0  0  0
  7  8  1  0  0  0  0
  7 30  1  0  0  0  0
  7 31  1  0  0  0  0
  8  9  1  0  0  0  0
  8 19  1  0  0  0  0
  8 32  1  0  0  0  0
  9 10  1  0  0  0  0
  9 33  1  0  0  0  0
  9 34  1  0  0  0  0
 10 11  1  0  0  0  0
 10 35  1  0  0  0  0
 11 12  2  0  0  0  0
 11 13  1  0  0  0  0
 13 14  1  0  0  0  0
 13 36  1  0  0  0  0
 13 37  1  0  0  0  0
 14 18  1  0  0  0  0
 14 15  1  0  0  0  0
 15 16  2  0  0  0  0
 15 38  1  0  0  0  0
 16 17  1  0  0  0  0
 16 39  1  0  0  0  0
 17 18  2  0  0  0  0
 17 40  1  0  0  0  0
 19 20  1  0  0  0  0
 19 41  1  0  0  0  0
 19 42  1  0  0  0  0
 20 43  1  0  0  0  0
 20 44  1  0  0  0  0
M  CHG  1   5   1
M  END
> <s_m_source_file>
AV-unprocessed.smi

> <i_m_source_file_index>
1118

> <i_lp_mmshare_version>
43012

> <i_f3d_flags>
0

> <s_epik_input>
W0NIM11PW0NIMl1bQ0gyXU4xW0NIMl1bQ0gyXVtDSF0oW0NIMl1bQ0gyXTEpW0NIMl1bTkhdQyg9TylbQ0gyXW4yW2NIXVtjSF1bY0hdbjI=

> <s_epik_cmdline>
J2VwaWtfcHl0aG9uJywgJy1waCcsICc3LjAnLCAnLXRuJywgJzgnLCAnLW1hJywgJzIwMCcsICctbWV0YWxfYmluZGluZycsICctaW1hZScsICc8aW5maWxlLm1hZT4nLCAnLW9tYWUnLCAnPG91dGZpbGUubWFlPic=

> <r_lp_tautomer_probability>
1

> <r_epik_Ionization_Penalty>
0.00991549

> <r_epik_Ionization_Penalty_Charging>
0.00990284

> <r_epik_Ionization_Penalty_Neutral>
1.26554e-05

> <r_epik_State_Penalty>
0.00754525

> <r_epik_Charging_Adjusted_Penalty>
0.0174481

> <i_epik_Tot_Q>
1

> <i_epik_Tot_abs_Q>
1

> <r_epik_Metal_State_Penalty>
0.00754527

> <b_epik_Metal_Only>
0

> <s_lp_Force_Field>
OPLS_2005

> <r_lp_Energy>
20.3216

> <b_lp_Chiralities_Consistent>
1

> <s_lp_Variant>
AV-unprocessed.smi:1118-2

> <Gold.Version>
5.8.1

> <Gold.Id.Protein>
6NUR|6NUR_protein|mol2

> <Gold.PLP.Fitness>
44.2987

> <Gold.PLP.PLP>
-32.7954

> <Gold.PLP.part.hbond>
-2.0000

> <Gold.PLP.part.metal>
0.0000

> <Gold.PLP.part.buried>
-2.3491

> <Gold.PLP.part.nonpolar>
-28.5447

> <Gold.PLP.part.repulsive>
0.2015

> <Gold.PLP.ligand.clash>
0.0000

> <Gold.PLP.ligand.torsion>
0.3399

> <Gold.PLP.Chemscore.Hbond>
3.0000

> <Gold.PLP.Chemscore.CHOScore>
0.9975

> <Gold.PLP.Chemscore.Metal>
0.0000

> <Gold.Chemscore.Hbonds>
donor molecule, donor type, donor heavy atom, donor atom, acceptor molecule, acceptor atom, score
      L1  H     5    45       P1 10175  2.00
      L1  H    10    35       P1  8028  1.00
      L1  C    15    38       P1  8029  1.00

> <Gold.PLP.Chemscore.Internal.Correction>
0.1905

> <Gold.Rescore>
     Score         DG    S(hbond)    S(metal)    S(lipo)     H(rot)  DE(clash)    DE(int)     intcor
     13.49     -15.49       1.95        0.00      78.35       2.22       0.48       1.52       ----

> <Gold.Chemscore.Fitness>
13.4863

> <Gold.Chemscore.DG>
-15.4855

> <Gold.Chemscore.ZeroCoef>
-5.4800

> <Gold.Chemscore.Hbond>
1.9501

> <Gold.Chemscore.Metal>
0.0000

> <Gold.Chemscore.Lipo>
78.3480

> <Gold.Chemscore.Internal_Hbond>
0.0000

> <Gold.Chemscore.DEClash>
0.4813

> <Gold.Chemscore.DEInternal>
1.5179

> <Gold.Chemscore.Rot>
2.2166

> <Gold.Chemscore.Internal.Correction>
   9.000000E+99

> <Gold.Chemscore.Hbonds>
donor molecule, donor type, donor heavy atom, donor atom, acceptor molecule, acceptor atom, score
      L1  H     5    45       P1 10175  0.90
      L1  H    10    35       P1  8028  0.98

> <Gold.Chemscore.Hbond.Weighted>
-6.5133

> <Gold.Chemscore.Metal.Weighted>
-0.0000

> <Gold.Chemscore.Lipo.Weighted>
-9.1667

> <Gold.Chemscore.Internal_Hbond.Weighted>
0.0000

> <Gold.Chemscore.DEClash.Weighted>
0.4813

> <Gold.Chemscore.DEInternal.Weighted>
1.5179

> <Gold.Chemscore.Rot.Weighted>
5.6745

> <Gold.Chemscore.Internal.Correction.Weighted>
   9.000000E+99

> <Gold.Protein.RotatedTorsions>
[ 6907 6896 6895 6894 ] final   64.59 input  -60.11 | X-H torsion
[ 7974 7965 7964 7962 ] final   86.42 input  175.53 | X-H torsion
[ 8008 7997 7996 7995 ] final -101.24 input   59.86 | X-H torsion
[ 10167 10162 10161 10158 ] final -165.74 input  -65.29 | X-H torsion
[ 10718 10713 10712 10709 ] final   63.10 input   66.30 | X-H torsion
[ 10763 10752 10751 10750 ] final  148.16 input  -60.55 | X-H torsion
[ 11005 11000 10999 10996 ] final  -55.07 input  -57.11 | X-H torsion

> <Gold.Protein.ActiveResidues>
 VAL166  LYS551  ARG553  GLY616  TRP617  ASP618  TYR619  PRO620  LYS621  CYS622 
 ASP623  PHE694  ASN695  SER759  ASP760  ASP761  ALA762  ILE779  LEU786  VAL792 
 PHE793  MET794  SER795  GLU796  ALA797  LYS798  CYS799  TRP800  GLU811  SER814 

> <Gold.Protein.RotatedAtoms>
  152.4343  134.5717  159.9922 H   0  0  0  0  0  0  0  0  0  0  0  0  # atno 6907 bound_to 6896
  151.5831  133.3369  159.3020 H   0  0  0  0  0  0  0  0  0  0  0  0  # atno 6908 bound_to 6896
  150.8239  134.7496  159.6861 H   0  0  0  0  0  0  0  0  0  0  0  0  # atno 6909 bound_to 6896
  145.5725  139.2315  143.2398 H   0  0  0  0  0  0  0  0  0  0  0  0  # atno 7974 bound_to 7965
  154.8398  140.0435  157.1534 H   0  0  0  0  0  0  0  0  0  0  0  0  # atno 8008 bound_to 7997
  154.9059  140.3007  155.5272 H   0  0  0  0  0  0  0  0  0  0  0  0  # atno 8009 bound_to 7997
  156.2991  140.2367  156.4093 H   0  0  0  0  0  0  0  0  0  0  0  0  # atno 8010 bound_to 7997
  139.6161  144.0716  152.1889 H   0  0  0  0  0  0  0  0  0  0  0  0  # atno 10167 bound_to 10162
  157.5948  130.9087  149.9673 H   0  0  0  0  0  0  0  0  0  0  0  0  # atno 10718 bound_to 10713
  154.0502  135.2882  155.3341 H   0  0  0  0  0  0  0  0  0  0  0  0  # atno 10763 bound_to 10752
  154.6874  135.5240  153.8348 H   0  0  0  0  0  0  0  0  0  0  0  0  # atno 10764 bound_to 10752
  153.0564  135.6597  154.0699 H   0  0  0  0  0  0  0  0  0  0  0  0  # atno 10765 bound_to 10752
  141.1056  133.6613  156.4415 H   0  0  0  0  0  0  0  0  0  0  0  0  # atno 11005 bound_to 11000
  146.1774  140.6552  142.9205 LP  0  0  0  0  0  0  0  0  0  0  0  0  # atno 17320 bound_to 7965
  144.7431  140.4995  143.6855 LP  0  0  0  0  0  0  0  0  0  0  0  0  # atno 17321 bound_to 7965
  140.0347  144.6054  150.7459 LP  0  0  0  0  0  0  0  0  0  0  0  0  # atno 17342 bound_to 10162
  140.7352  143.2738  151.3806 LP  0  0  0  0  0  0  0  0  0  0  0  0  # atno 17343 bound_to 10162
  156.1008  130.3656  150.0221 LP  0  0  0  0  0  0  0  0  0  0  0  0  # atno 17370 bound_to 10713
  156.8337  130.9401  151.3636 LP  0  0  0  0  0  0  0  0  0  0  0  0  # atno 17371 bound_to 10713
  140.4910  134.6575  157.5210 LP  0  0  0  0  0  0  0  0  0  0  0  0  # atno 17394 bound_to 11000
  139.9925  134.6962  155.9665 LP  0  0  0  0  0  0  0  0  0  0  0  0  # atno 17395 bound_to 11000

$$$$
