AV-unprocessed.smi:2889|AV-procd|sdf|11110|dock4
  -GOLD-   2272015573D 1   1.00000     0.00000
 Structure written by MMmdl.
 36 37  0  0  0  0  0  0  0  0  1 V2000
  153.4739  142.7944  163.0750 C   0  0  0  0  0  0  0  0  0  0  0  0
  153.1512  141.8545  161.5583 S   0  0  0  0  0  0  0  0  0  0  0  0
  152.8410  143.2015  160.3717 C   0  0  2  0  0  0  0  0  0  0  0  0
  151.9580  144.2932  161.0047 C   0  0  0  0  0  0  0  0  0  0  0  0
  151.6881  145.4457  160.0263 C   0  0  0  0  0  0  0  0  0  0  0  0
  151.0412  144.9297  158.7340 C   0  0  0  0  0  0  0  0  0  0  0  0
  151.9075  143.8500  158.0646 C   0  0  0  0  0  0  0  0  0  0  0  0
  152.2601  142.6978  159.0271 C   0  0  2  0  0  0  0  0  0  0  0  0
  151.0923  141.8351  159.2406 N   0  0  0  0  0  0  0  0  0  0  0  0
  150.8716  140.4716  158.2086 S   0  0  0  0  0  0  0  0  0  0  0  0
  152.1890  139.8505  158.0000 O   0  0  0  0  0  0  0  0  0  0  0  0
  149.7638  139.6758  158.7586 O   0  0  0  0  0  0  0  0  0  0  0  0
  150.3317  141.2502  156.6296 C   0  0  0  0  0  0  0  0  0  0  0  0
  149.9361  140.1812  155.6514 C   0  0  0  0  0  0  0  0  0  0  0  0
  150.7413  139.1495  155.0939 C   0  0  0  0  0  0  0  0  0  0  0  0
  149.8777  138.4762  154.2789 C   0  0  0  0  0  0  0  0  0  0  0  0
  148.6453  139.0424  154.3215 O   0  0  0  0  0  0  0  0  0  0  0  0
  148.6929  140.1310  155.1997 N   0  0  0  0  0  0  0  0  0  0  0  0
  153.6248  142.1112  163.9104 H   0  0  0  0  0  0  0  0  0  0  0  0
  152.6306  143.4441  163.3087 H   0  0  0  0  0  0  0  0  0  0  0  0
  154.3691  143.4065  162.9716 H   0  0  0  0  0  0  0  0  0  0  0  0
  153.8103  143.6574  160.1647 H   0  0  0  0  0  0  0  0  0  0  0  0
  151.0097  143.8611  161.3270 H   0  0  0  0  0  0  0  0  0  0  0  0
  152.4381  144.6832  161.9030 H   0  0  0  0  0  0  0  0  0  0  0  0
  151.0393  146.1858  160.4954 H   0  0  0  0  0  0  0  0  0  0  0  0
  152.6226  145.9572  159.7922 H   0  0  0  0  0  0  0  0  0  0  0  0
  150.0550  144.5211  158.9579 H   0  0  0  0  0  0  0  0  0  0  0  0
  150.8806  145.7574  158.0427 H   0  0  0  0  0  0  0  0  0  0  0  0
  151.4098  143.4667  157.1731 H   0  0  0  0  0  0  0  0  0  0  0  0
  152.8324  144.3116  157.7169 H   0  0  0  0  0  0  0  0  0  0  0  0
  153.0272  142.0952  158.5402 H   0  0  0  0  0  0  0  0  0  0  0  0
  151.0190  141.5654  160.2217 H   0  0  0  0  0  0  0  0  0  0  0  0
  149.4998  141.9214  156.8448 H   0  0  0  0  0  0  0  0  0  0  0  0
  151.1539  141.8521  156.2430 H   0  0  0  0  0  0  0  0  0  0  0  0
  151.7851  138.9350  155.2684 H   0  0  0  0  0  0  0  0  0  0  0  0
  149.9835  137.6170  153.6332 H   0  0  0  0  0  0  0  0  0  0  0  0
  1  2  1  0  0  0  0
  1 19  1  0  0  0  0
  1 20  1  0  0  0  0
  1 21  1  0  0  0  0
  2  3  1  0  0  0  0
  3  8  1  0  0  0  0
  3  4  1  0  0  0  0
  3 22  1  0  0  0  0
  4  5  1  0  0  0  0
  4 23  1  0  0  0  0
  4 24  1  0  0  0  0
  5  6  1  0  0  0  0
  5 25  1  0  0  0  0
  5 26  1  0  0  0  0
  6  7  1  0  0  0  0
  6 27  1  0  0  0  0
  6 28  1  0  0  0  0
  7  8  1  0  0  0  0
  7 29  1  0  0  0  0
  7 30  1  0  0  0  0
  8  9  1  0  0  0  0
  8 31  1  0  0  0  0
  9 10  1  0  0  0  0
  9 32  1  0  0  0  0
 10 11  2  0  0  0  0
 10 12  2  0  0  0  0
 10 13  1  0  0  0  0
 13 14  1  0  0  0  0
 13 33  1  0  0  0  0
 13 34  1  0  0  0  0
 14 18  2  0  0  0  0
 14 15  1  0  0  0  0
 15 16  2  0  0  0  0
 15 35  1  0  0  0  0
 16 17  1  0  0  0  0
 16 36  1  0  0  0  0
 17 18  1  0  0  0  0
M  END
> <s_m_source_file>
AV-unprocessed.smi

> <i_m_source_file_index>
2889

> <i_lp_mmshare_version>
43012

> <i_f3d_flags>
0

> <s_epik_input>
W0NIM11TW0NAQEhdMVtDSDJdW0NIMl1bQ0gyXVtDSDJdW0NASF0xW05IXVMoPU8pKD1PKVtDSDJdYzJbY0hdW2NIXW9uMg==

> <s_epik_cmdline>
J2VwaWtfcHl0aG9uJywgJy1waCcsICc3LjAnLCAnLXRuJywgJzgnLCAnLW1hJywgJzIwMCcsICctbWV0YWxfYmluZGluZycsICctaW1hZScsICc8aW5maWxlLm1hZT4nLCAnLW9tYWUnLCAnPG91dGZpbGUubWFlPic=

> <r_lp_tautomer_probability>
1

> <r_epik_Ionization_Penalty>
0.000229547

> <r_epik_Ionization_Penalty_Charging>
0

> <r_epik_Ionization_Penalty_Neutral>
0.000229547

> <r_epik_State_Penalty>
-0

> <r_epik_Charging_Adjusted_Penalty>
0

> <i_epik_Tot_Q>
0

> <i_epik_Tot_abs_Q>
0

> <r_epik_Metal_State_Penalty>
0.145979

> <b_epik_Metal_Only>
0

> <s_lp_Force_Field>
OPLS_2005

> <r_lp_Energy>
4.93405

> <b_lp_Chiralities_Consistent>
1

> <s_lp_Variant>
AV-unprocessed.smi:2889-3

> <Gold.Version>
5.8.1

> <Gold.Id.Protein>
6NUR|6NUR_protein|mol2

> <Gold.PLP.Fitness>
51.5322

> <Gold.PLP.PLP>
-47.1733

> <Gold.PLP.part.hbond>
-1.0000

> <Gold.PLP.part.metal>
0.0000

> <Gold.PLP.part.buried>
-6.5157

> <Gold.PLP.part.nonpolar>
-39.8536

> <Gold.PLP.part.repulsive>
0.3034

> <Gold.PLP.ligand.clash>
0.0000

> <Gold.PLP.ligand.torsion>
0.9075

> <Gold.PLP.Chemscore.Hbond>
1.0000

> <Gold.PLP.Chemscore.CHOScore>
1.0000

> <Gold.PLP.Chemscore.Metal>
0.0000

> <Gold.Chemscore.Hbonds>
donor molecule, donor type, donor heavy atom, donor atom, acceptor molecule, acceptor atom, score
      L1  C    16    36       P1  7948  1.00

> <Gold.PLP.Chemscore.Internal.Correction>
0.1740

> <Gold.Rescore>
     Score         DG    S(hbond)    S(metal)    S(lipo)     H(rot)  DE(clash)    DE(int)     intcor
     17.16     -18.35       0.94        0.00     122.72       1.81       0.03       1.16       ----

> <Gold.Chemscore.Fitness>
17.1648

> <Gold.Chemscore.DG>
-18.3498

> <Gold.Chemscore.ZeroCoef>
-5.4800

> <Gold.Chemscore.Hbond>
0.9384

> <Gold.Chemscore.Metal>
0.0000

> <Gold.Chemscore.Lipo>
122.7210

> <Gold.Chemscore.Internal_Hbond>
0.0000

> <Gold.Chemscore.DEClash>
0.0262

> <Gold.Chemscore.DEInternal>
1.1587

> <Gold.Chemscore.Rot>
1.8058

> <Gold.Chemscore.Internal.Correction>
   9.000000E+99

> <Gold.Chemscore.Hbond.Weighted>
-3.1343

> <Gold.Chemscore.Metal.Weighted>
-0.0000

> <Gold.Chemscore.Lipo.Weighted>
-14.3584

> <Gold.Chemscore.Internal_Hbond.Weighted>
0.0000

> <Gold.Chemscore.DEClash.Weighted>
0.0262

> <Gold.Chemscore.DEInternal.Weighted>
1.1587

> <Gold.Chemscore.Rot.Weighted>
4.6228

> <Gold.Chemscore.Internal.Correction.Weighted>
   9.000000E+99

> <Gold.Protein.RotatedTorsions>
[ 6907 6896 6895 6894 ] final  -43.63 input  -60.11 | X-H torsion
[ 7974 7965 7964 7962 ] final   32.41 input  175.53 | X-H torsion
[ 8008 7997 7996 7995 ] final  -68.01 input   59.86 | X-H torsion
[ 10167 10162 10161 10158 ] final  -11.10 input  -65.29 | X-H torsion
[ 10718 10713 10712 10709 ] final -133.43 input   66.30 | X-H torsion
[ 10763 10752 10751 10750 ] final  159.47 input  -60.55 | X-H torsion
[ 11005 11000 10999 10996 ] final -120.33 input  -57.11 | X-H torsion

> <Gold.Protein.ActiveResidues>
 VAL166  LYS551  ARG553  GLY616  TRP617  ASP618  TYR619  PRO620  LYS621  CYS622 
 ASP623  PHE694  ASN695  SER759  ASP760  ASP761  ALA762  ILE779  LEU786  VAL792 
 PHE793  MET794  SER795  GLU796  ALA797  LYS798  CYS799  TRP800  GLU811  SER814 

> <Gold.Protein.RotatedAtoms>
  150.9418  134.8827  159.7616 H   0  0  0  0  0  0  0  0  0  0  0  0  # atno 6907 bound_to 6896
  152.5083  134.3931  159.9400 H   0  0  0  0  0  0  0  0  0  0  0  0  # atno 6908 bound_to 6896
  151.3951  133.3736  159.2760 H   0  0  0  0  0  0  0  0  0  0  0  0  # atno 6909 bound_to 6896
  146.1488  139.6529  142.9113 H   0  0  0  0  0  0  0  0  0  0  0  0  # atno 7974 bound_to 7965
  154.4839  140.0881  156.7440 H   0  0  0  0  0  0  0  0  0  0  0  0  # atno 8008 bound_to 7997
  155.4401  140.3453  155.4271 H   0  0  0  0  0  0  0  0  0  0  0  0  # atno 8009 bound_to 7997
  156.1232  140.1480  156.9163 H   0  0  0  0  0  0  0  0  0  0  0  0  # atno 8010 bound_to 7997
  140.7130  143.5676  150.9127 H   0  0  0  0  0  0  0  0  0  0  0  0  # atno 10167 bound_to 10162
  156.2449  130.7118  151.0994 H   0  0  0  0  0  0  0  0  0  0  0  0  # atno 10718 bound_to 10713
  154.2322  135.2778  155.2885 H   0  0  0  0  0  0  0  0  0  0  0  0  # atno 10763 bound_to 10752
  154.5614  135.5646  153.7014 H   0  0  0  0  0  0  0  0  0  0  0  0  # atno 10764 bound_to 10752
  153.0018  135.6299  154.2464 H   0  0  0  0  0  0  0  0  0  0  0  0  # atno 10765 bound_to 10752
  141.0151  134.0207  157.3360 H   0  0  0  0  0  0  0  0  0  0  0  0  # atno 11005 bound_to 11000
  145.4874  141.0438  143.2612 LP  0  0  0  0  0  0  0  0  0  0  0  0  # atno 17320 bound_to 7965
  144.7878  139.6390  143.7126 LP  0  0  0  0  0  0  0  0  0  0  0  0  # atno 17321 bound_to 7965
  139.9402  143.6391  152.3055 LP  0  0  0  0  0  0  0  0  0  0  0  0  # atno 17342 bound_to 10162
  139.6873  144.7650  151.1501 LP  0  0  0  0  0  0  0  0  0  0  0  0  # atno 17343 bound_to 10162
  157.7191  131.0692  150.6210 LP  0  0  0  0  0  0  0  0  0  0  0  0  # atno 17370 bound_to 10713
  156.6286  130.4425  149.5795 LP  0  0  0  0  0  0  0  0  0  0  0  0  # atno 17371 bound_to 10713
  139.9112  135.0190  156.7700 LP  0  0  0  0  0  0  0  0  0  0  0  0  # atno 17394 bound_to 11000
  140.6668  133.9595  155.7834 LP  0  0  0  0  0  0  0  0  0  0  0  0  # atno 17395 bound_to 11000

$$$$
