AV-unprocessed.smi:38|AV-procd|sdf|347|dock3
  -GOLD-   2262016183D 1   1.00000     0.00000
 Structure written by MMmdl.
 27 28  0  0  0  0  0  0  0  0  2 V2000
  151.6781  142.6481  161.4836 O   0  0  0  0  0  0  0  0  0  0  0  0
  151.6233  142.2957  160.3061 C   0  0  0  0  0  0  0  0  0  0  0  0
  152.3602  141.2601  159.8102 N   0  5  0  0  0  0  0  0  0  0  0  0
  152.2964  140.8689  158.5036 C   0  0  0  0  0  0  0  0  0  0  0  0
  152.9577  139.9353  158.0483 O   0  0  0  0  0  0  0  0  0  0  0  0
  151.4267  141.5627  157.6178 N   0  0  0  0  0  0  0  0  0  0  0  0
  151.3611  141.1225  156.1680 C   0  0  1  0  0  0  0  0  0  0  0  0
  151.0718  139.6130  156.0702 C   0  0  0  0  0  0  0  0  0  0  0  0
  149.8899  139.5419  155.1198 C   0  0  2  0  0  0  0  0  0  0  0  0
  150.3287  139.3501  153.7878 O   0  0  0  0  0  0  0  0  0  0  0  0
  149.2213  140.9069  155.3189 C   0  0  2  0  0  0  0  0  0  0  0  0
  148.3052  141.4062  154.1879 C   0  0  0  0  0  0  0  0  0  0  0  0
  147.5674  142.5333  154.6115 O   0  0  0  0  0  0  0  0  0  0  0  0
  150.3201  141.7900  155.5130 O   0  0  0  0  0  0  0  0  0  0  0  0
  150.6709  142.6224  158.0937 C   0  0  0  0  0  0  0  0  0  0  0  0
  150.7376  143.0052  159.3854 C   0  0  0  0  0  0  0  0  0  0  0  0
  149.9914  144.0368  159.8167 F   0  0  0  0  0  0  0  0  0  0  0  0
  152.3117  141.4233  155.7244 H   0  0  0  0  0  0  0  0  0  0  0  0
  149.2159  138.7244  155.3771 H   0  0  0  0  0  0  0  0  0  0  0  0
  148.6541  140.8808  156.2509 H   0  0  0  0  0  0  0  0  0  0  0  0
  151.9509  139.0655  155.7277 H   0  0  0  0  0  0  0  0  0  0  0  0
  150.7850  139.2281  157.0500 H   0  0  0  0  0  0  0  0  0  0  0  0
  149.6310  139.6066  153.2044 H   0  0  0  0  0  0  0  0  0  0  0  0
  148.9066  141.6943  153.3253 H   0  0  0  0  0  0  0  0  0  0  0  0
  147.6230  140.6258  153.8505 H   0  0  0  0  0  0  0  0  0  0  0  0
  148.1545  143.1275  155.0533 H   0  0  0  0  0  0  0  0  0  0  0  0
  150.0116  143.1661  157.4349 H   0  0  0  0  0  0  0  0  0  0  0  0
  1  2  2  0  0  0  0
  2 16  1  0  0  0  0
  2  3  1  0  0  0  0
  3  4  1  0  0  0  0
  4  5  2  0  0  0  0
  4  6  1  0  0  0  0
  6  7  1  0  0  0  0
  6 15  1  0  0  0  0
  7 18  1  0  0  0  0
  7 14  1  0  0  0  0
  7  8  1  0  0  0  0
  8  9  1  0  0  0  0
  8 21  1  0  0  0  0
  8 22  1  0  0  0  0
  9 19  1  0  0  0  0
  9 10  1  0  0  0  0
  9 11  1  0  0  0  0
 10 23  1  0  0  0  0
 11 20  1  0  0  0  0
 11 12  1  0  0  0  0
 11 14  1  0  0  0  0
 12 13  1  0  0  0  0
 12 24  1  0  0  0  0
 12 25  1  0  0  0  0
 13 26  1  0  0  0  0
 15 16  2  0  0  0  0
 15 27  1  0  0  0  0
 16 17  1  0  0  0  0
M  CHG  1   3  -1
M  END
> <s_m_source_file>
AV-unprocessed.smi

> <i_m_source_file_index>
38

> <i_lp_mmshare_version>
43012

> <i_f3d_flags>
0

> <s_epik_input>
Tz1jMVtuSF1jKD1PKW4oW2NIXWMxRilbQ0BIXTJbQ0gyXVtDQEhdKFtPSF0pW0NASF0oTzIpW0NIMl1bT0hd

> <s_epik_cmdline>
J2VwaWtfcHl0aG9uJywgJy1waCcsICc3LjAnLCAnLXRuJywgJzgnLCAnLW1hJywgJzIwMCcsICctbWV0YWxfYmluZGluZycsICctaW1hZScsICc8aW5maWxlLm1hZT4nLCAnLW9tYWUnLCAnPG91dGZpbGUubWFlPic=

> <r_epik_Ionization_Penalty>
1.68146

> <r_epik_Ionization_Penalty_Charging>
3.4211e-08

> <r_epik_Ionization_Penalty_Neutral>
1.68146

> <r_epik_State_Penalty>
1.78593

> <r_epik_Charging_Adjusted_Penalty>
1.78593

> <i_epik_Tot_Q>
-1

> <i_epik_Tot_abs_Q>
1

> <r_epik_Metal_State_Penalty>
0.0113696

> <b_epik_Metal_Only>
0

> <s_epik_Chemistry_Notes>
This compound contains an acetal/aminal-like group ( X-CH(R)-Y where X, Y are N, S, or O) that may be acid/base labile, releasing an aldehyde.

> <s_lp_Force_Field>
OPLS_2005

> <r_lp_Energy>
41.2479

> <b_lp_Chiralities_Consistent>
1

> <s_lp_Variant>
AV-unprocessed.smi:38-13

> <Gold.Version>
5.8.1

> <Gold.Id.Protein>
6NUR|6NUR_protein|mol2

> <Gold.PLP.Fitness>
40.2514

> <Gold.PLP.PLP>
-26.7508

> <Gold.PLP.part.hbond>
-6.2298

> <Gold.PLP.part.metal>
0.0000

> <Gold.PLP.part.buried>
-0.5535

> <Gold.PLP.part.nonpolar>
-19.4319

> <Gold.PLP.part.repulsive>
0.2383

> <Gold.PLP.ligand.clash>
0.0000

> <Gold.PLP.ligand.torsion>
0.1947

> <Gold.PLP.Chemscore.Hbond>
3.6289

> <Gold.PLP.Chemscore.CHOScore>
1.0000

> <Gold.PLP.Chemscore.Metal>
0.0000

> <Gold.Chemscore.Hbonds>
donor molecule, donor type, donor heavy atom, donor atom, acceptor molecule, acceptor atom, score
      L1  H    10    23       P1  7957  0.54
      L1  H    13    26       P1  8028  1.00
      P1  H  6933  6945       L1     1  0.58
      P1  H  7989  7998       L1    10  0.98
      P1  H  7997  8009       L1     5  1.00
      L1  C    15    27       P1  8028  0.82

> <Gold.PLP.Chemscore.Internal.Correction>
0.0034

> <Gold.Rescore>
     Score         DG    S(hbond)    S(metal)    S(lipo)     H(rot)  DE(clash)    DE(int)     intcor
      9.16     -12.14       2.70        0.00      42.80       2.88       1.15       1.83       ----

> <Gold.Chemscore.Fitness>
9.1592

> <Gold.Chemscore.DG>
-12.1375

> <Gold.Chemscore.ZeroCoef>
-5.4800

> <Gold.Chemscore.Hbond>
2.7026

> <Gold.Chemscore.Metal>
0.0000

> <Gold.Chemscore.Lipo>
42.7980

> <Gold.Chemscore.Internal_Hbond>
0.0000

> <Gold.Chemscore.DEClash>
1.1506

> <Gold.Chemscore.DEInternal>
1.8277

> <Gold.Chemscore.Rot>
2.8815

> <Gold.Chemscore.Internal.Correction>
   9.000000E+99

> <Gold.Chemscore.Hbonds>
donor molecule, donor type, donor heavy atom, donor atom, acceptor molecule, acceptor atom, score
      L1  H    10    23       P1  7957  0.52
      L1  H    13    26       P1  8028  0.95
      P1  H  6933  6945       L1     1  0.17
      P1  H  7989  7998       L1    10  0.11
      P1  H  7997  8009       L1     5  0.97

> <Gold.Chemscore.Hbond.Weighted>
-9.0267

> <Gold.Chemscore.Metal.Weighted>
-0.0000

> <Gold.Chemscore.Lipo.Weighted>
-5.0074

> <Gold.Chemscore.Internal_Hbond.Weighted>
0.0000

> <Gold.Chemscore.DEClash.Weighted>
1.1506

> <Gold.Chemscore.DEInternal.Weighted>
1.8277

> <Gold.Chemscore.Rot.Weighted>
7.3765

> <Gold.Chemscore.Internal.Correction.Weighted>
   9.000000E+99

> <Gold.Protein.RotatedTorsions>
[ 6907 6896 6895 6894 ] final   33.38 input  -60.11 | X-H torsion
[ 7974 7965 7964 7962 ] final   67.89 input  175.53 | X-H torsion
[ 8008 7997 7996 7995 ] final  168.53 input   59.86 | X-H torsion
[ 10167 10162 10161 10158 ] final   19.04 input  -65.29 | X-H torsion
[ 10718 10713 10712 10709 ] final   21.64 input   66.30 | X-H torsion
[ 10763 10752 10751 10750 ] final -127.83 input  -60.55 | X-H torsion
[ 11005 11000 10999 10996 ] final  -52.87 input  -57.11 | X-H torsion

> <Gold.Protein.ActiveResidues>
 VAL166  LYS551  ARG553  GLY616  TRP617  ASP618  TYR619  PRO620  LYS621  CYS622 
 ASP623  PHE694  ASN695  SER759  ASP760  ASP761  ALA762  ILE779  LEU786  VAL792 
 PHE793  MET794  SER795  GLU796  ALA797  LYS798  CYS799  TRP800  GLU811  SER814 

> <Gold.Protein.RotatedAtoms>
  152.0877  134.9428  160.0572 H   0  0  0  0  0  0  0  0  0  0  0  0  # atno 6907 bound_to 6896
  152.0692  133.4093  159.4460 H   0  0  0  0  0  0  0  0  0  0  0  0  # atno 6908 bound_to 6896
  150.6836  134.3031  159.4758 H   0  0  0  0  0  0  0  0  0  0  0  0  # atno 6909 bound_to 6896
  145.8092  139.3023  143.1109 H   0  0  0  0  0  0  0  0  0  0  0  0  # atno 7974 bound_to 7965
  156.1538  140.1588  156.8726 H   0  0  0  0  0  0  0  0  0  0  0  0  # atno 8008 bound_to 7997
  154.5096  140.0804  156.7999 H   0  0  0  0  0  0  0  0  0  0  0  0  # atno 8009 bound_to 7997
  155.3843  140.3406  155.4250 H   0  0  0  0  0  0  0  0  0  0  0  0  # atno 8010 bound_to 7997
  140.5609  143.9339  150.6642 H   0  0  0  0  0  0  0  0  0  0  0  0  # atno 10167 bound_to 10162
  157.1412  130.6633  149.5982 H   0  0  0  0  0  0  0  0  0  0  0  0  # atno 10718 bound_to 10713
  154.8754  135.3949  154.3657 H   0  0  0  0  0  0  0  0  0  0  0  0  # atno 10763 bound_to 10752
  153.4424  135.7027  153.6166 H   0  0  0  0  0  0  0  0  0  0  0  0  # atno 10764 bound_to 10752
  153.4741  135.3784  155.2376 H   0  0  0  0  0  0  0  0  0  0  0  0  # atno 10765 bound_to 10752
  141.0947  133.6626  156.4088 H   0  0  0  0  0  0  0  0  0  0  0  0  # atno 11005 bound_to 11000
  145.9795  140.8694  143.0121 LP  0  0  0  0  0  0  0  0  0  0  0  0  # atno 17320 bound_to 7965
  144.6759  140.2060  143.7382 LP  0  0  0  0  0  0  0  0  0  0  0  0  # atno 17321 bound_to 7965
  140.2789  143.3403  152.1169 LP  0  0  0  0  0  0  0  0  0  0  0  0  # atno 17342 bound_to 10162
  139.5070  144.6823  151.5976 LP  0  0  0  0  0  0  0  0  0  0  0  0  # atno 17343 bound_to 10162
  155.9788  130.4777  150.6678 LP  0  0  0  0  0  0  0  0  0  0  0  0  # atno 17370 bound_to 10713
  157.4305  131.0848  151.1043 LP  0  0  0  0  0  0  0  0  0  0  0  0  # atno 17371 bound_to 10713
  140.5169  134.6341  157.5304 LP  0  0  0  0  0  0  0  0  0  0  0  0  # atno 17394 bound_to 11000
  139.9780  134.7183  155.9912 LP  0  0  0  0  0  0  0  0  0  0  0  0  # atno 17395 bound_to 11000

$$$$
