AV-unprocessed.smi:2770|AV-procd|sdf|10660|dock10
  -GOLD-   2272015103D 1   1.00000     0.00000
 Structure written by MMmdl.
 35 36  0  0  0  0  0  0  0  0  2 V2000
  146.6025  142.9226  153.9998 C   0  0  0  0  0  0  0  0  0  0  0  0
  147.5516  142.1949  154.8281 N   0  0  0  0  0  0  0  0  0  0  0  0
  148.4988  141.3738  154.3507 C   0  0  0  0  0  0  0  0  0  0  0  0
  148.6569  141.1641  153.1474 O   0  0  0  0  0  0  0  0  0  0  0  0
  149.4139  140.7051  155.3863 C   0  0  2  0  0  0  0  0  0  0  0  0
  150.1002  141.7305  156.3175 C   0  0  0  0  0  0  0  0  0  0  0  0
  151.0330  141.0577  157.2121 N   0  0  0  0  0  0  0  0  0  0  0  0
  151.6110  141.9269  158.1463 C   0  0  0  0  0  0  0  0  0  0  0  0
  151.4555  143.3323  158.1052 C   0  0  0  0  0  0  0  0  0  0  0  0
  152.0722  144.1239  159.0959 C   0  0  0  0  0  0  0  0  0  0  0  0
  152.8300  143.4994  160.1073 C   0  0  0  0  0  0  0  0  0  0  0  0
  152.9525  142.0939  160.1049 C   0  0  0  0  0  0  0  0  0  0  0  0
  153.7462  141.3474  161.1560 C   0  0  0  0  0  0  0  0  0  0  0  0
  152.3453  141.3722  159.1364 N   0  3  0  0  0  0  0  0  0  0  0  0
  152.0033  140.2372  156.4999 C   0  0  0  0  0  0  0  0  0  0  0  0
  151.2727  139.2425  155.5840 C   0  0  0  0  0  0  0  0  0  0  0  0
  150.4185  139.9584  154.6973 O   0  0  0  0  0  0  0  0  0  0  0  0
  145.9269  143.5016  154.6292 H   0  0  0  0  0  0  0  0  0  0  0  0
  146.0044  142.2365  153.3990 H   0  0  0  0  0  0  0  0  0  0  0  0
  147.1199  143.6114  153.3309 H   0  0  0  0  0  0  0  0  0  0  0  0
  147.4849  142.3195  155.8283 H   0  0  0  0  0  0  0  0  0  0  0  0
  148.8004  140.0217  155.9763 H   0  0  0  0  0  0  0  0  0  0  0  0
  150.6335  142.4777  155.7271 H   0  0  0  0  0  0  0  0  0  0  0  0
  149.3533  142.2605  156.9105 H   0  0  0  0  0  0  0  0  0  0  0  0
  150.8692  143.8021  157.3289 H   0  0  0  0  0  0  0  0  0  0  0  0
  151.9639  145.1985  159.0811 H   0  0  0  0  0  0  0  0  0  0  0  0
  153.3078  144.0932  160.8733 H   0  0  0  0  0  0  0  0  0  0  0  0
  154.1278  142.0283  161.9175 H   0  0  0  0  0  0  0  0  0  0  0  0
  154.5942  140.8365  160.6994 H   0  0  0  0  0  0  0  0  0  0  0  0
  153.1197  140.6033  161.6486 H   0  0  0  0  0  0  0  0  0  0  0  0
  152.6621  140.8701  155.9042 H   0  0  0  0  0  0  0  0  0  0  0  0
  152.6280  139.6997  157.2144 H   0  0  0  0  0  0  0  0  0  0  0  0
  151.9927  138.6699  154.9993 H   0  0  0  0  0  0  0  0  0  0  0  0
  150.6927  138.5259  156.1680 H   0  0  0  0  0  0  0  0  0  0  0  0
  152.4466  140.3571  159.1540 H   0  0  0  0  0  0  0  0  0  0  0  0
  1  2  1  0  0  0  0
  1 18  1  0  0  0  0
  1 19  1  0  0  0  0
  1 20  1  0  0  0  0
  2  3  1  0  0  0  0
  2 21  1  0  0  0  0
  3  4  2  0  0  0  0
  3  5  1  0  0  0  0
  5 17  1  0  0  0  0
  5  6  1  0  0  0  0
  5 22  1  0  0  0  0
  6  7  1  0  0  0  0
  6 23  1  0  0  0  0
  6 24  1  0  0  0  0
  7  8  1  0  0  0  0
  7 15  1  0  0  0  0
  8 14  1  0  0  0  0
  8  9  2  0  0  0  0
  9 10  1  0  0  0  0
  9 25  1  0  0  0  0
 10 11  2  0  0  0  0
 10 26  1  0  0  0  0
 11 12  1  0  0  0  0
 11 27  1  0  0  0  0
 12 13  1  0  0  0  0
 12 14  2  0  0  0  0
 13 28  1  0  0  0  0
 13 29  1  0  0  0  0
 13 30  1  0  0  0  0
 14 35  1  0  0  0  0
 15 16  1  0  0  0  0
 15 31  1  0  0  0  0
 15 32  1  0  0  0  0
 16 17  1  0  0  0  0
 16 33  1  0  0  0  0
 16 34  1  0  0  0  0
M  CHG  1  14   1
M  END
> <s_m_source_file>
AV-unprocessed.smi

> <i_m_source_file_index>
2770

> <i_lp_mmshare_version>
43012

> <i_f3d_flags>
0

> <s_epik_input>
W0NIM11bTkhdQyg9TylbQ0BASF0xW0NIMl1OKFtDSDJdW0NIMl1PMSljMltjSF1bY0hdW2NIXWMobjIpW0NIM10=

> <s_epik_cmdline>
J2VwaWtfcHl0aG9uJywgJy1waCcsICc3LjAnLCAnLXRuJywgJzgnLCAnLW1hJywgJzIwMCcsICctbWV0YWxfYmluZGluZycsICctaW1hZScsICc8aW5maWxlLm1hZT4nLCAnLW9tYWUnLCAnPG91dGZpbGUubWFlPic=

> <r_lp_tautomer_probability>
0.999994

> <r_epik_Ionization_Penalty>
2.33902

> <r_epik_Ionization_Penalty_Charging>
2.33902

> <r_epik_Ionization_Penalty_Neutral>
5.66859e-08

> <r_epik_State_Penalty>
2.4925

> <r_epik_Charging_Adjusted_Penalty>
4.83152

> <i_epik_Tot_Q>
1

> <i_epik_Tot_abs_Q>
1

> <r_epik_Metal_State_Penalty>
2.50392

> <b_epik_Metal_Only>
0

> <s_lp_Force_Field>
OPLS_2005

> <r_lp_Energy>
23.5554

> <b_lp_Chiralities_Consistent>
1

> <s_lp_Variant>
AV-unprocessed.smi:2770-3

> <Gold.Version>
5.8.1

> <Gold.Id.Protein>
6NUR|6NUR_protein|mol2

> <Gold.PLP.Fitness>
41.3638

> <Gold.PLP.PLP>
-35.5715

> <Gold.PLP.part.hbond>
-3.0000

> <Gold.PLP.part.metal>
0.0000

> <Gold.PLP.part.buried>
-5.2196

> <Gold.PLP.part.nonpolar>
-32.1759

> <Gold.PLP.part.repulsive>
4.2291

> <Gold.PLP.ligand.clash>
0.0000

> <Gold.PLP.ligand.torsion>
0.1176

> <Gold.PLP.Chemscore.Hbond>
1.9760

> <Gold.PLP.Chemscore.CHOScore>
0.0000

> <Gold.PLP.Chemscore.Metal>
0.0000

> <Gold.Chemscore.Hbonds>
donor molecule, donor type, donor heavy atom, donor atom, acceptor molecule, acceptor atom, score
      P1  H  7989  7998       L1    17  1.00
      P1  H  8011  8017       L1     4  0.99

> <Gold.PLP.Chemscore.Internal.Correction>
0.0995

> <Gold.Rescore>
     Score         DG    S(hbond)    S(metal)    S(lipo)     H(rot)  DE(clash)    DE(int)     intcor
     16.49     -18.39       1.77        0.00      88.25       1.30       1.83       0.06       ----

> <Gold.Chemscore.Fitness>
16.4913

> <Gold.Chemscore.DG>
-18.3875

> <Gold.Chemscore.ZeroCoef>
-5.4800

> <Gold.Chemscore.Hbond>
1.7666

> <Gold.Chemscore.Metal>
0.0000

> <Gold.Chemscore.Lipo>
88.2522

> <Gold.Chemscore.Internal_Hbond>
0.0000

> <Gold.Chemscore.DEClash>
1.8338

> <Gold.Chemscore.DEInternal>
0.0623

> <Gold.Chemscore.Rot>
1.2963

> <Gold.Chemscore.Internal.Correction>
   9.000000E+99

> <Gold.Chemscore.Hbonds>
donor molecule, donor type, donor heavy atom, donor atom, acceptor molecule, acceptor atom, score
      P1  H  7989  7998       L1    17  0.48
      P1  H  8011  8017       L1     4  0.81

> <Gold.Chemscore.Hbond.Weighted>
-5.9005

> <Gold.Chemscore.Metal.Weighted>
-0.0000

> <Gold.Chemscore.Lipo.Weighted>
-10.3255

> <Gold.Chemscore.Internal_Hbond.Weighted>
0.0000

> <Gold.Chemscore.DEClash.Weighted>
1.8338

> <Gold.Chemscore.DEInternal.Weighted>
0.0623

> <Gold.Chemscore.Rot.Weighted>
3.3185

> <Gold.Chemscore.Internal.Correction.Weighted>
   9.000000E+99

> <Gold.Protein.RotatedTorsions>
[ 6907 6896 6895 6894 ] final   37.22 input  -60.11 | X-H torsion
[ 7974 7965 7964 7962 ] final -116.93 input  175.53 | X-H torsion
[ 8008 7997 7996 7995 ] final -135.72 input   59.86 | X-H torsion
[ 10167 10162 10161 10158 ] final -165.77 input  -65.29 | X-H torsion
[ 10718 10713 10712 10709 ] final -155.59 input   66.30 | X-H torsion
[ 10763 10752 10751 10750 ] final  -72.14 input  -60.55 | X-H torsion
[ 11005 11000 10999 10996 ] final -160.51 input  -57.11 | X-H torsion

> <Gold.Protein.ActiveResidues>
 VAL166  LYS551  ARG553  GLY616  TRP617  ASP618  TYR619  PRO620  LYS621  CYS622 
 ASP623  PHE694  ASN695  SER759  ASP760  ASP761  ALA762  ILE779  LEU786  VAL792 
 PHE793  MET794  SER795  GLU796  ALA797  LYS798  CYS799  TRP800  GLU811  SER814 

> <Gold.Protein.RotatedAtoms>
  152.1403  134.9068  160.0553 H   0  0  0  0  0  0  0  0  0  0  0  0  # atno 6907 bound_to 6896
  152.0138  133.3867  159.4239 H   0  0  0  0  0  0  0  0  0  0  0  0  # atno 6908 bound_to 6896
  150.6864  134.3622  159.4999 H   0  0  0  0  0  0  0  0  0  0  0  0  # atno 6909 bound_to 6896
  145.0910  140.8490  143.3982 H   0  0  0  0  0  0  0  0  0  0  0  0  # atno 7974 bound_to 7965
  155.3833  140.0495  157.3043 H   0  0  0  0  0  0  0  0  0  0  0  0  # atno 8008 bound_to 7997
  154.5072  140.2178  155.9190 H   0  0  0  0  0  0  0  0  0  0  0  0  # atno 8009 bound_to 7997
  156.1539  140.3130  155.8699 H   0  0  0  0  0  0  0  0  0  0  0  0  # atno 8010 bound_to 7997
  139.6159  144.0720  152.1887 H   0  0  0  0  0  0  0  0  0  0  0  0  # atno 10167 bound_to 10162
  156.5149  130.8452  151.2660 H   0  0  0  0  0  0  0  0  0  0  0  0  # atno 10718 bound_to 10713
  154.4415  135.5939  153.6132 H   0  0  0  0  0  0  0  0  0  0  0  0  # atno 10763 bound_to 10752
  152.9806  135.5999  154.3717 H   0  0  0  0  0  0  0  0  0  0  0  0  # atno 10764 bound_to 10752
  154.3567  135.2841  155.2321 H   0  0  0  0  0  0  0  0  0  0  0  0  # atno 10765 bound_to 10752
  140.6307  134.4654  157.5229 H   0  0  0  0  0  0  0  0  0  0  0  0  # atno 11005 bound_to 11000
  145.1065  139.2786  143.5659 LP  0  0  0  0  0  0  0  0  0  0  0  0  # atno 17320 bound_to 7965
  146.3531  140.0648  142.8627 LP  0  0  0  0  0  0  0  0  0  0  0  0  # atno 17321 bound_to 7965
  140.0350  144.6051  150.7457 LP  0  0  0  0  0  0  0  0  0  0  0  0  # atno 17342 bound_to 10162
  140.7351  143.2736  151.3810 LP  0  0  0  0  0  0  0  0  0  0  0  0  # atno 17343 bound_to 10162
  157.7445  130.9937  150.2681 LP  0  0  0  0  0  0  0  0  0  0  0  0  # atno 17370 bound_to 10713
  156.3204  130.3785  149.7580 LP  0  0  0  0  0  0  0  0  0  0  0  0  # atno 17371 bound_to 10713
  139.9117  134.8330  156.1505 LP  0  0  0  0  0  0  0  0  0  0  0  0  # atno 17394 bound_to 11000
  141.0677  133.6811  156.2078 LP  0  0  0  0  0  0  0  0  0  0  0  0  # atno 17395 bound_to 11000

$$$$
