AV-unprocessed.smi:1252|AV-procd|sdf|5264|dock6
  -GOLD-   22720 4373D 1   1.00000     0.00000
 Structure written by MMmdl.
 43 44  0  0  0  0  0  0  0  0  1 V2000
  147.7894  136.8569  163.3334 C   0  0  0  0  0  0  0  0  0  0  0  0
  147.8289  135.9249  162.1094 C   0  0  2  0  0  0  0  0  0  0  0  0
  147.6033  136.6838  160.7935 C   0  0  0  0  0  0  0  0  0  0  0  0
  146.5308  137.2485  160.5740 O   0  0  0  0  0  0  0  0  0  0  0  0
  148.6295  136.6877  159.9285 N   0  0  0  0  0  0  0  0  0  0  0  0
  148.6554  137.3595  158.6298 C   0  0  0  0  0  0  0  0  0  0  0  0
  150.0749  137.3937  157.9873 C   0  0  0  0  0  0  0  0  0  0  0  0
  151.0231  138.0560  159.0159 C   0  0  0  0  0  0  0  0  0  0  0  0
  150.5319  135.9205  157.8357 C   0  0  0  0  0  0  0  0  0  0  0  0
  150.0671  138.0890  156.6691 N   0  0  0  0  0  0  0  0  0  0  0  0
  149.6357  139.4913  156.7128 C   0  0  0  0  0  0  0  0  0  0  0  0
  149.5317  140.1084  155.3076 C   0  0  0  0  0  0  0  0  0  0  0  0
  150.7826  139.9934  154.6404 O   0  0  0  0  0  0  0  0  0  0  0  0
  151.2114  138.6423  154.5227 C   0  0  0  0  0  0  0  0  0  0  0  0
  151.3272  138.0107  155.9205 C   0  0  0  0  0  0  0  0  0  0  0  0
  146.8635  134.8431  162.2464 N   0  0  0  0  0  0  0  0  0  0  0  0
  147.0255  133.5163  162.2572 C   0  0  0  0  0  0  0  0  0  0  0  0
  145.8941  132.8377  162.3865 N   0  0  0  0  0  0  0  0  0  0  0  0
  145.0112  133.8780  162.4491 C   0  0  0  0  0  0  0  0  0  0  0  0
  145.5388  135.0993  162.3658 N   0  0  0  0  0  0  0  0  0  0  0  0
  148.5030  137.6752  163.2297 H   0  0  0  0  0  0  0  0  0  0  0  0
  148.0458  136.3121  164.2425 H   0  0  0  0  0  0  0  0  0  0  0  0
  146.8007  137.2939  163.4795 H   0  0  0  0  0  0  0  0  0  0  0  0
  148.8266  135.4827  162.0689 H   0  0  0  0  0  0  0  0  0  0  0  0
  149.4719  136.2007  160.1984 H   0  0  0  0  0  0  0  0  0  0  0  0
  147.9490  136.8438  157.9800 H   0  0  0  0  0  0  0  0  0  0  0  0
  148.2519  138.3701  158.7171 H   0  0  0  0  0  0  0  0  0  0  0  0
  151.0113  137.5146  159.9628 H   0  0  0  0  0  0  0  0  0  0  0  0
  150.7361  139.0834  159.2386 H   0  0  0  0  0  0  0  0  0  0  0  0
  152.0581  138.0674  158.6750 H   0  0  0  0  0  0  0  0  0  0  0  0
  150.3637  135.3529  158.7518 H   0  0  0  0  0  0  0  0  0  0  0  0
  151.5972  135.8384  157.6207 H   0  0  0  0  0  0  0  0  0  0  0  0
  149.9950  135.4118  157.0343 H   0  0  0  0  0  0  0  0  0  0  0  0
  148.6611  139.5851  157.1882 H   0  0  0  0  0  0  0  0  0  0  0  0
  150.3349  140.0827  157.3041 H   0  0  0  0  0  0  0  0  0  0  0  0
  148.7525  139.6140  154.7251 H   0  0  0  0  0  0  0  0  0  0  0  0
  149.2606  141.1620  155.3764 H   0  0  0  0  0  0  0  0  0  0  0  0
  150.5093  138.0823  153.9031 H   0  0  0  0  0  0  0  0  0  0  0  0
  152.1760  138.6174  154.0154 H   0  0  0  0  0  0  0  0  0  0  0  0
  152.1235  138.5149  156.4680 H   0  0  0  0  0  0  0  0  0  0  0  0
  151.6383  136.9760  155.7895 H   0  0  0  0  0  0  0  0  0  0  0  0
  147.9902  133.0385  162.1669 H   0  0  0  0  0  0  0  0  0  0  0  0
  143.9466  133.7306  162.5569 H   0  0  0  0  0  0  0  0  0  0  0  0
  1  2  1  0  0  0  0
  1 21  1  0  0  0  0
  1 22  1  0  0  0  0
  1 23  1  0  0  0  0
  2  3  1  0  0  0  0
  2 16  1  0  0  0  0
  2 24  1  0  0  0  0
  3  4  2  0  0  0  0
  3  5  1  0  0  0  0
  5  6  1  0  0  0  0
  5 25  1  0  0  0  0
  6  7  1  0  0  0  0
  6 26  1  0  0  0  0
  6 27  1  0  0  0  0
  7  8  1  0  0  0  0
  7  9  1  0  0  0  0
  7 10  1  0  0  0  0
  8 28  1  0  0  0  0
  8 29  1  0  0  0  0
  8 30  1  0  0  0  0
  9 31  1  0  0  0  0
  9 32  1  0  0  0  0
  9 33  1  0  0  0  0
 10 15  1  0  0  0  0
 10 11  1  0  0  0  0
 11 12  1  0  0  0  0
 11 34  1  0  0  0  0
 11 35  1  0  0  0  0
 12 13  1  0  0  0  0
 12 36  1  0  0  0  0
 12 37  1  0  0  0  0
 13 14  1  0  0  0  0
 14 15  1  0  0  0  0
 14 38  1  0  0  0  0
 14 39  1  0  0  0  0
 15 40  1  0  0  0  0
 15 41  1  0  0  0  0
 16 20  1  0  0  0  0
 16 17  1  0  0  0  0
 17 18  2  0  0  0  0
 17 42  1  0  0  0  0
 18 19  1  0  0  0  0
 19 20  2  0  0  0  0
 19 43  1  0  0  0  0
M  END
> <s_m_source_file>
AV-unprocessed.smi

> <i_m_source_file_index>
1252

> <i_lp_mmshare_version>
43012

> <i_f3d_flags>
0

> <s_epik_input>
bjFbY0hdbltjSF1uMVtDQEhdKFtDSDNdKUMoPU8pW05IXVtDSDJdQyhbQ0gzXSkoW0NIM10pTjJbQ0gyXVtDSDJdT1tDSDJdW0NIMl0y

> <s_epik_cmdline>
J2VwaWtfcHl0aG9uJywgJy1waCcsICc3LjAnLCAnLXRuJywgJzgnLCAnLW1hJywgJzIwMCcsICctbWV0YWxfYmluZGluZycsICctaW1hZScsICc8aW5maWxlLm1hZT4nLCAnLW9tYWUnLCAnPG91dGZpbGUubWFlPic=

> <r_lp_tautomer_probability>
1

> <r_epik_Ionization_Penalty>
0.211373

> <r_epik_Ionization_Penalty_Charging>
0

> <r_epik_Ionization_Penalty_Neutral>
0.211373

> <r_epik_State_Penalty>
0.201459

> <r_epik_Charging_Adjusted_Penalty>
0.201459

> <i_epik_Tot_Q>
0

> <i_epik_Tot_abs_Q>
0

> <r_epik_Metal_State_Penalty>
0.201458

> <b_epik_Metal_Only>
0

> <s_lp_Force_Field>
OPLS_2005

> <r_lp_Energy>
48.0219

> <b_lp_Chiralities_Consistent>
1

> <s_lp_Variant>
AV-unprocessed.smi:1252-1

> <Gold.Version>
5.8.1

> <Gold.Id.Protein>
6NUR|6NUR_protein|mol2

> <Gold.PLP.Fitness>
36.4143

> <Gold.PLP.PLP>
-30.5618

> <Gold.PLP.part.hbond>
-2.0000

> <Gold.PLP.part.metal>
0.0000

> <Gold.PLP.part.buried>
-3.9492

> <Gold.PLP.part.nonpolar>
-25.8037

> <Gold.PLP.part.repulsive>
0.3578

> <Gold.PLP.ligand.clash>
0.0000

> <Gold.PLP.ligand.torsion>
0.1413

> <Gold.PLP.Chemscore.Hbond>
2.0000

> <Gold.PLP.Chemscore.CHOScore>
0.0000

> <Gold.PLP.Chemscore.Metal>
0.0000

> <Gold.Chemscore.Hbonds>
donor molecule, donor type, donor heavy atom, donor atom, acceptor molecule, acceptor atom, score
      P1  H  6934  6947       L1     4  0.80
      P1  H  7989  7998       L1    13  1.00

> <Gold.PLP.Chemscore.Internal.Correction>
0.1351

> <Gold.Rescore>
     Score         DG    S(hbond)    S(metal)    S(lipo)     H(rot)  DE(clash)    DE(int)     intcor
     10.53     -12.07       1.92        0.00      56.42       2.52       0.32       1.22       ----

> <Gold.Chemscore.Fitness>
10.5278

> <Gold.Chemscore.DG>
-12.0665

> <Gold.Chemscore.ZeroCoef>
-5.4800

> <Gold.Chemscore.Hbond>
1.9234

> <Gold.Chemscore.Metal>
0.0000

> <Gold.Chemscore.Lipo>
56.4240

> <Gold.Chemscore.Internal_Hbond>
0.0000

> <Gold.Chemscore.DEClash>
0.3160

> <Gold.Chemscore.DEInternal>
1.2227

> <Gold.Chemscore.Rot>
2.5153

> <Gold.Chemscore.Internal.Correction>
   9.000000E+99

> <Gold.Chemscore.Hbonds>
donor molecule, donor type, donor heavy atom, donor atom, acceptor molecule, acceptor atom, score
      P1  H  6934  6947       L1     4  0.12
      P1  H  7989  7998       L1    13  0.60

> <Gold.Chemscore.Hbond.Weighted>
-6.4241

> <Gold.Chemscore.Metal.Weighted>
-0.0000

> <Gold.Chemscore.Lipo.Weighted>
-6.6016

> <Gold.Chemscore.Internal_Hbond.Weighted>
0.0000

> <Gold.Chemscore.DEClash.Weighted>
0.3160

> <Gold.Chemscore.DEInternal.Weighted>
1.2227

> <Gold.Chemscore.Rot.Weighted>
6.4392

> <Gold.Chemscore.Internal.Correction.Weighted>
   9.000000E+99

> <Gold.Protein.RotatedTorsions>
[ 6907 6896 6895 6894 ] final   60.01 input  -60.11 | X-H torsion
[ 7974 7965 7964 7962 ] final    4.21 input  175.53 | X-H torsion
[ 8008 7997 7996 7995 ] final  -10.59 input   59.86 | X-H torsion
[ 10167 10162 10161 10158 ] final   50.74 input  -65.29 | X-H torsion
[ 10718 10713 10712 10709 ] final  146.65 input   66.30 | X-H torsion
[ 10763 10752 10751 10750 ] final  140.77 input  -60.55 | X-H torsion
[ 11005 11000 10999 10996 ] final -106.96 input  -57.11 | X-H torsion

> <Gold.Protein.ActiveResidues>
 VAL166  LYS551  ARG553  GLY616  TRP617  ASP618  TYR619  PRO620  LYS621  CYS622 
 ASP623  PHE694  ASN695  SER759  ASP760  ASP761  ALA762  ILE779  LEU786  VAL792 
 PHE793  MET794  SER795  GLU796  ALA797  LYS798  CYS799  TRP800  GLU811  SER814 

> <Gold.Protein.RotatedAtoms>
  152.3965  134.6356  160.0086 H   0  0  0  0  0  0  0  0  0  0  0  0  # atno 6907 bound_to 6896
  151.6574  133.3312  159.3174 H   0  0  0  0  0  0  0  0  0  0  0  0  # atno 6908 bound_to 6896
  150.7872  134.6910  159.6541 H   0  0  0  0  0  0  0  0  0  0  0  0  # atno 6909 bound_to 6896
  146.2444  140.0569  142.8371 H   0  0  0  0  0  0  0  0  0  0  0  0  # atno 7974 bound_to 7965
  154.5540  140.2325  155.8439 H   0  0  0  0  0  0  0  0  0  0  0  0  # atno 8008 bound_to 7997
  156.1972  140.3062  155.9412 H   0  0  0  0  0  0  0  0  0  0  0  0  # atno 8009 bound_to 7997
  155.3015  140.0431  157.3020 H   0  0  0  0  0  0  0  0  0  0  0  0  # atno 8010 bound_to 7997
  140.2692  144.3285  150.6295 H   0  0  0  0  0  0  0  0  0  0  0  0  # atno 10167 bound_to 10162
  157.3307  131.0920  151.1165 H   0  0  0  0  0  0  0  0  0  0  0  0  # atno 10718 bound_to 10713
  153.9283  135.2993  155.3446 H   0  0  0  0  0  0  0  0  0  0  0  0  # atno 10763 bound_to 10752
  154.7540  135.4966  153.9344 H   0  0  0  0  0  0  0  0  0  0  0  0  # atno 10764 bound_to 10752
  153.1105  135.6758  153.9613 H   0  0  0  0  0  0  0  0  0  0  0  0  # atno 10765 bound_to 10752
  141.0978  133.8939  157.1919 H   0  0  0  0  0  0  0  0  0  0  0  0  # atno 11005 bound_to 11000
  145.0934  140.9299  143.4755 LP  0  0  0  0  0  0  0  0  0  0  0  0  # atno 17320 bound_to 7965
  145.0746  139.3005  143.5814 LP  0  0  0  0  0  0  0  0  0  0  0  0  # atno 17321 bound_to 7965
  140.5903  143.2168  151.7265 LP  0  0  0  0  0  0  0  0  0  0  0  0  # atno 17342 bound_to 10162
  139.4994  144.3948  152.0242 LP  0  0  0  0  0  0  0  0  0  0  0  0  # atno 17343 bound_to 10162
  157.2415  130.6571  149.5892 LP  0  0  0  0  0  0  0  0  0  0  0  0  # atno 17370 bound_to 10713
  155.9695  130.4567  150.5934 LP  0  0  0  0  0  0  0  0  0  0  0  0  # atno 17371 bound_to 10713
  139.9820  135.0095  156.9772 LP  0  0  0  0  0  0  0  0  0  0  0  0  # atno 17394 bound_to 11000
  140.5097  134.1014  155.7267 LP  0  0  0  0  0  0  0  0  0  0  0  0  # atno 17395 bound_to 11000

$$$$
