AV-unprocessed.smi:833|AV-procd|sdf|3883|dock7
  -GOLD-   22720 1343D 1   1.00000     0.00000
 Structure written by MMmdl.
 40 41  0  0  0  0  0  0  0  0  2 V2000
  155.1305  135.5447  158.2680 C   0  0  0  0  0  0  0  0  0  0  0  0
  154.1049  136.6463  157.9709 C   0  0  1  0  0  0  0  0  0  0  0  0
  153.1586  136.1104  157.0687 O   0  0  0  0  0  0  0  0  0  0  0  0
  153.3723  137.1090  159.2455 C   0  0  0  0  0  0  0  0  0  0  0  0
  152.4816  138.2353  158.9832 N   0  0  0  0  0  0  0  0  0  0  0  0
  152.8741  139.5079  158.8335 C   0  0  0  0  0  0  0  0  0  0  0  0
  154.0479  139.8727  158.8989 O   0  0  0  0  0  0  0  0  0  0  0  0
  151.8305  140.3155  158.5826 N   0  0  0  0  0  0  0  0  0  0  0  0
  151.8601  141.7155  158.3298 C   0  0  0  0  0  0  0  0  0  0  0  0
  152.7855  142.5563  158.9998 C   0  0  0  0  0  0  0  0  0  0  0  0
  152.7490  143.9480  158.7921 C   0  0  0  0  0  0  0  0  0  0  0  0
  151.7768  144.4808  157.9286 C   0  0  0  0  0  0  0  0  0  0  0  0
  150.9031  143.6560  157.3151 N   0  3  0  0  0  0  0  0  0  0  0  0
  150.8962  142.3074  157.4628 C   0  0  0  0  0  0  0  0  0  0  0  0
  149.9270  141.5696  156.7452 N   0  0  0  0  0  0  0  0  0  0  0  0
  148.5088  141.7242  157.0485 C   0  0  0  0  0  0  0  0  0  0  0  0
  147.7795  141.0785  155.8738 C   0  0  0  0  0  0  0  0  0  0  0  0
  148.6918  141.4130  154.6977 C   0  0  0  0  0  0  0  0  0  0  0  0
  150.0977  141.3856  155.3071 C   0  0  0  0  0  0  0  0  0  0  0  0
  155.9061  135.9053  158.9441 H   0  0  0  0  0  0  0  0  0  0  0  0
  155.6229  135.2082  157.3548 H   0  0  0  0  0  0  0  0  0  0  0  0
  154.6607  134.6772  158.7333 H   0  0  0  0  0  0  0  0  0  0  0  0
  154.6169  137.4824  157.4931 H   0  0  0  0  0  0  0  0  0  0  0  0
  152.5645  136.7990  156.8126 H   0  0  0  0  0  0  0  0  0  0  0  0
  152.7994  136.2903  159.6828 H   0  0  0  0  0  0  0  0  0  0  0  0
  154.0975  137.4068  160.0050 H   0  0  0  0  0  0  0  0  0  0  0  0
  151.4965  138.0258  158.9137 H   0  0  0  0  0  0  0  0  0  0  0  0
  150.9360  139.8652  158.4547 H   0  0  0  0  0  0  0  0  0  0  0  0
  153.5107  142.1543  159.6913 H   0  0  0  0  0  0  0  0  0  0  0  0
  153.4484  144.5971  159.2988 H   0  0  0  0  0  0  0  0  0  0  0  0
  151.6682  145.5341  157.7142 H   0  0  0  0  0  0  0  0  0  0  0  0
  148.2494  141.2505  157.9955 H   0  0  0  0  0  0  0  0  0  0  0  0
  148.2438  142.7808  157.1069 H   0  0  0  0  0  0  0  0  0  0  0  0
  147.7312  139.9973  156.0120 H   0  0  0  0  0  0  0  0  0  0  0  0
  146.7627  141.4512  155.7472 H   0  0  0  0  0  0  0  0  0  0  0  0
  148.5787  140.7231  153.8610 H   0  0  0  0  0  0  0  0  0  0  0  0
  148.4680  142.4176  154.3362 H   0  0  0  0  0  0  0  0  0  0  0  0
  150.7354  142.1529  154.8659 H   0  0  0  0  0  0  0  0  0  0  0  0
  150.5615  140.4150  155.1298 H   0  0  0  0  0  0  0  0  0  0  0  0
  150.2088  144.0735  156.6952 H   0  0  0  0  0  0  0  0  0  0  0  0
  1  2  1  0  0  0  0
  1 20  1  0  0  0  0
  1 21  1  0  0  0  0
  1 22  1  0  0  0  0
  2  3  1  0  0  0  0
  2  4  1  0  0  0  0
  2 23  1  0  0  0  0
  3 24  1  0  0  0  0
  4  5  1  0  0  0  0
  4 25  1  0  0  0  0
  4 26  1  0  0  0  0
  5  6  1  0  0  0  0
  5 27  1  0  0  0  0
  6  7  2  0  0  0  0
  6  8  1  0  0  0  0
  8  9  1  0  0  0  0
  8 28  1  0  0  0  0
  9 14  1  0  0  0  0
  9 10  2  0  0  0  0
 10 11  1  0  0  0  0
 10 29  1  0  0  0  0
 11 12  2  0  0  0  0
 11 30  1  0  0  0  0
 12 13  1  0  0  0  0
 12 31  1  0  0  0  0
 13 14  2  0  0  0  0
 13 40  1  0  0  0  0
 14 15  1  0  0  0  0
 15 19  1  0  0  0  0
 15 16  1  0  0  0  0
 16 17  1  0  0  0  0
 16 32  1  0  0  0  0
 16 33  1  0  0  0  0
 17 18  1  0  0  0  0
 17 34  1  0  0  0  0
 17 35  1  0  0  0  0
 18 19  1  0  0  0  0
 18 36  1  0  0  0  0
 18 37  1  0  0  0  0
 19 38  1  0  0  0  0
 19 39  1  0  0  0  0
M  CHG  1  13   1
M  END
> <s_m_source_file>
AV-unprocessed.smi

> <i_m_source_file_index>
833

> <i_lp_mmshare_version>
43012

> <i_f3d_flags>
0

> <s_epik_input>
W0NIM11bQ0BIXShbT0hdKVtDSDJdW05IXUMoPU8pW05IXWMxW2NIXVtjSF1bY0hdbmMxTjJbQ0gyXVtDSDJdW0NIMl1bQ0gyXTI=

> <s_epik_cmdline>
J2VwaWtfcHl0aG9uJywgJy1waCcsICc3LjAnLCAnLXRuJywgJzgnLCAnLW1hJywgJzIwMCcsICctbWV0YWxfYmluZGluZycsICctaW1hZScsICc8aW5maWxlLm1hZT4nLCAnLW9tYWUnLCAnPG91dGZpbGUubWFlPic=

> <r_lp_tautomer_probability>
0.999994

> <r_epik_Ionization_Penalty>
1.11387

> <r_epik_Ionization_Penalty_Charging>
1.11385

> <r_epik_Ionization_Penalty_Neutral>
1.95796e-05

> <r_epik_State_Penalty>
1.17209

> <r_epik_Charging_Adjusted_Penalty>
2.28594

> <i_epik_Tot_Q>
1

> <i_epik_Tot_abs_Q>
1

> <r_epik_Metal_State_Penalty>
1.25763

> <b_epik_Metal_Only>
0

> <s_lp_Force_Field>
OPLS_2005

> <r_lp_Energy>
38.2358

> <b_lp_Chiralities_Consistent>
1

> <s_lp_Variant>
AV-unprocessed.smi:833-4

> <Gold.Version>
5.8.1

> <Gold.Id.Protein>
6NUR|6NUR_protein|mol2

> <Gold.PLP.Fitness>
43.8043

> <Gold.PLP.PLP>
-32.5711

> <Gold.PLP.part.hbond>
-3.0000

> <Gold.PLP.part.metal>
0.0000

> <Gold.PLP.part.buried>
-4.2594

> <Gold.PLP.part.nonpolar>
-24.8450

> <Gold.PLP.part.repulsive>
0.3048

> <Gold.PLP.ligand.clash>
0.0000

> <Gold.PLP.ligand.torsion>
0.5750

> <Gold.PLP.Chemscore.Hbond>
4.0000

> <Gold.PLP.Chemscore.CHOScore>
0.0000

> <Gold.PLP.Chemscore.Metal>
0.0000

> <Gold.Chemscore.Hbonds>
donor molecule, donor type, donor heavy atom, donor atom, acceptor molecule, acceptor atom, score
      L1  H    13    40       P1  8028  2.00
      P1  H  7997  8010       L1     7  1.00
      P1  H 10752 10765       L1     3  1.00

> <Gold.PLP.Chemscore.Internal.Correction>
0.3832

> <Gold.Rescore>
     Score         DG    S(hbond)    S(metal)    S(lipo)     H(rot)  DE(clash)    DE(int)     intcor
     17.35     -19.03       2.88        0.00      78.63       2.06       0.00       1.67       ----

> <Gold.Chemscore.Fitness>
17.3538

> <Gold.Chemscore.DG>
-19.0256

> <Gold.Chemscore.ZeroCoef>
-5.4800

> <Gold.Chemscore.Hbond>
2.8828

> <Gold.Chemscore.Metal>
0.0000

> <Gold.Chemscore.Lipo>
78.6347

> <Gold.Chemscore.Internal_Hbond>
0.0000

> <Gold.Chemscore.DEClash>
0.0000

> <Gold.Chemscore.DEInternal>
1.6717

> <Gold.Chemscore.Rot>
2.0637

> <Gold.Chemscore.Internal.Correction>
   9.000000E+99

> <Gold.Chemscore.Hbonds>
donor molecule, donor type, donor heavy atom, donor atom, acceptor molecule, acceptor atom, score
      L1  H    13    40       P1  8028  1.00
      P1  H  7997  8010       L1     7  0.87
      P1  H 10752 10765       L1     3  0.47

> <Gold.Chemscore.Hbond.Weighted>
-9.6285

> <Gold.Chemscore.Metal.Weighted>
-0.0000

> <Gold.Chemscore.Lipo.Weighted>
-9.2003

> <Gold.Chemscore.Internal_Hbond.Weighted>
0.0000

> <Gold.Chemscore.DEClash.Weighted>
0.0000

> <Gold.Chemscore.DEInternal.Weighted>
1.6717

> <Gold.Chemscore.Rot.Weighted>
5.2832

> <Gold.Chemscore.Internal.Correction.Weighted>
   9.000000E+99

> <Gold.Protein.RotatedTorsions>
[ 6907 6896 6895 6894 ] final  -35.49 input  -60.11 | X-H torsion
[ 7974 7965 7964 7962 ] final   92.77 input  175.53 | X-H torsion
[ 8008 7997 7996 7995 ] final   14.44 input   59.86 | X-H torsion
[ 10167 10162 10161 10158 ] final   32.28 input  -65.29 | X-H torsion
[ 10718 10713 10712 10709 ] final   46.76 input   66.30 | X-H torsion
[ 10763 10752 10751 10750 ] final -104.80 input  -60.55 | X-H torsion
[ 11005 11000 10999 10996 ] final  -49.90 input  -57.11 | X-H torsion

> <Gold.Protein.ActiveResidues>
 VAL166  LYS551  ARG553  GLY616  TRP617  ASP618  TYR619  PRO620  LYS621  CYS622 
 ASP623  PHE694  ASN695  SER759  ASP760  ASP761  ALA762  ILE779  LEU786  VAL792 
 PHE793  MET794  SER795  GLU796  ALA797  LYS798  CYS799  TRP800  GLU811  SER814 

> <Gold.Protein.RotatedAtoms>
  151.0391  134.9594  159.8151 H   0  0  0  0  0  0  0  0  0  0  0  0  # atno 6907 bound_to 6896
  152.5360  134.2681  159.8971 H   0  0  0  0  0  0  0  0  0  0  0  0  # atno 6908 bound_to 6896
  151.2693  133.4220  159.2654 H   0  0  0  0  0  0  0  0  0  0  0  0  # atno 6909 bound_to 6896
  145.4879  139.2277  143.2846 H   0  0  0  0  0  0  0  0  0  0  0  0  # atno 7974 bound_to 7965
  154.8485  140.2926  155.5613 H   0  0  0  0  0  0  0  0  0  0  0  0  # atno 8008 bound_to 7997
  156.3015  140.2500  156.3372 H   0  0  0  0  0  0  0  0  0  0  0  0  # atno 8009 bound_to 7997
  154.9047  140.0390  157.1902 H   0  0  0  0  0  0  0  0  0  0  0  0  # atno 8010 bound_to 7997
  140.4512  144.1045  150.6192 H   0  0  0  0  0  0  0  0  0  0  0  0  # atno 10167 bound_to 10162
  157.4515  130.8141  149.7793 H   0  0  0  0  0  0  0  0  0  0  0  0  # atno 10718 bound_to 10713
  154.7903  135.4773  154.0038 H   0  0  0  0  0  0  0  0  0  0  0  0  # atno 10763 bound_to 10752
  153.1621  135.6810  153.8734 H   0  0  0  0  0  0  0  0  0  0  0  0  # atno 10764 bound_to 10752
  153.8344  135.3187  155.3399 H   0  0  0  0  0  0  0  0  0  0  0  0  # atno 10765 bound_to 10752
  141.0786  133.6659  156.3653 H   0  0  0  0  0  0  0  0  0  0  0  0  # atno 11005 bound_to 11000
  146.2302  140.5671  142.8979 LP  0  0  0  0  0  0  0  0  0  0  0  0  # atno 17320 bound_to 7965
  144.7851  140.5919  143.6579 LP  0  0  0  0  0  0  0  0  0  0  0  0  # atno 17321 bound_to 7965
  140.4204  143.2614  151.9722 LP  0  0  0  0  0  0  0  0  0  0  0  0  # atno 17342 bound_to 10162
  139.4797  144.5836  151.7892 LP  0  0  0  0  0  0  0  0  0  0  0  0  # atno 17343 bound_to 10162
  155.9989  130.3891  150.2684 LP  0  0  0  0  0  0  0  0  0  0  0  0  # atno 17370 bound_to 10713
  157.0856  131.0155  151.3140 LP  0  0  0  0  0  0  0  0  0  0  0  0  # atno 17371 bound_to 10713
  140.5519  134.6019  157.5410 LP  0  0  0  0  0  0  0  0  0  0  0  0  # atno 17394 bound_to 11000
  139.9598  134.7471  156.0261 LP  0  0  0  0  0  0  0  0  0  0  0  0  # atno 17395 bound_to 11000

$$$$
