AV-unprocessed.smi:62|AV-procd|sdf|601|dock6
  -GOLD-   2262016493D 1   1.00000     0.00000
 Structure written by MMmdl.
 31 32  0  0  0  0  0  0  0  0  3 V2000
  151.8571  142.4741  159.3001 C   0  0  0  0  0  0  0  0  0  0  0  0
  151.4868  141.8891  158.0295 N   0  0  0  0  0  0  0  0  0  0  0  0
  150.4421  142.2234  157.1988 C   0  0  0  0  0  0  0  0  0  0  0  0
  150.4901  141.3999  156.1079 C   0  0  0  0  0  0  0  0  0  0  0  0
  149.5351  141.4167  154.9374 C   0  0  0  0  0  0  0  0  0  0  0  0
  148.2830  142.1338  155.2717 N   0  3  1  0  0  0  0  0  0  0  0  0
  147.3480  142.3578  154.1420 C   0  0  0  0  0  0  0  0  0  0  0  0
  145.9423  142.0243  154.6587 C   0  0  0  0  0  0  0  0  0  0  0  0
  146.0886  142.0391  156.1784 C   0  0  1  0  0  0  0  0  0  0  0  0
  145.1343  141.2143  156.8131 O   0  0  0  0  0  0  0  0  0  0  0  0
  147.5154  141.5370  156.3823 C   0  0  0  0  0  0  0  0  0  0  0  0
  151.6328  140.5717  156.3764 C   0  0  0  0  0  0  0  0  0  0  0  0
  152.0782  139.4806  155.4385 C   0  0  0  0  0  0  0  0  0  0  0  0
  151.4532  139.2766  154.3744 O   0  0  0  0  0  0  0  0  0  0  0  0
  153.0707  138.7953  155.7678 O   0  5  0  0  0  0  0  0  0  0  0  0
  152.2174  140.8766  157.5271 N   0  0  0  0  0  0  0  0  0  0  0  0
  151.1588  143.2687  159.5643 H   0  0  0  0  0  0  0  0  0  0  0  0
  152.8620  142.8923  159.2346 H   0  0  0  0  0  0  0  0  0  0  0  0
  151.8367  141.7104  160.0782 H   0  0  0  0  0  0  0  0  0  0  0  0
  149.7535  143.0171  157.4483 H   0  0  0  0  0  0  0  0  0  0  0  0
  149.9900  141.8899  154.0660 H   0  0  0  0  0  0  0  0  0  0  0  0
  149.2895  140.4008  154.6258 H   0  0  0  0  0  0  0  0  0  0  0  0
  147.4174  143.4026  153.8376 H   0  0  0  0  0  0  0  0  0  0  0  0
  147.5916  141.7428  153.2745 H   0  0  0  0  0  0  0  0  0  0  0  0
  145.1830  142.7196  154.2997 H   0  0  0  0  0  0  0  0  0  0  0  0
  145.6647  141.0251  154.3185 H   0  0  0  0  0  0  0  0  0  0  0  0
  145.9981  143.0603  156.5514 H   0  0  0  0  0  0  0  0  0  0  0  0
  144.6085  140.7940  156.1493 H   0  0  0  0  0  0  0  0  0  0  0  0
  147.5456  140.4487  156.3007 H   0  0  0  0  0  0  0  0  0  0  0  0
  147.9274  141.8163  157.3526 H   0  0  0  0  0  0  0  0  0  0  0  0
  148.5591  143.0515  155.5941 H   0  0  0  0  0  0  0  0  0  0  0  0
  1  2  1  0  0  0  0
  1 17  1  0  0  0  0
  1 18  1  0  0  0  0
  1 19  1  0  0  0  0
  2 16  1  0  0  0  0
  2  3  1  0  0  0  0
  3  4  2  0  0  0  0
  3 20  1  0  0  0  0
  4  5  1  0  0  0  0
  4 12  1  0  0  0  0
  5  6  1  0  0  0  0
  5 21  1  0  0  0  0
  5 22  1  0  0  0  0
  6 11  1  0  0  0  0
  6  7  1  0  0  0  0
  6 31  1  0  0  0  0
  7  8  1  0  0  0  0
  7 23  1  0  0  0  0
  7 24  1  0  0  0  0
  8  9  1  0  0  0  0
  8 25  1  0  0  0  0
  8 26  1  0  0  0  0
  9 10  1  0  0  0  0
  9 11  1  0  0  0  0
  9 27  1  0  0  0  0
 10 28  1  0  0  0  0
 11 29  1  0  0  0  0
 11 30  1  0  0  0  0
 12 13  1  0  0  0  0
 12 16  2  0  0  0  0
 13 14  2  0  0  0  0
 13 15  1  0  0  0  0
M  CHG  1   6   1
M  CHG  1  15  -1
M  END
> <s_m_source_file>
AV-unprocessed.smi

> <i_m_source_file_index>
62

> <i_lp_mmshare_version>
43012

> <i_f3d_flags>
0

> <s_epik_input>
W0NIM11uMVtjSF1jKGMobjEpQyg9TylbT0hdKVtDSDJdTjJbQ0gyXVtDSDJdW0NAQEhdKFtPSF0pW0NIMl0y

> <s_epik_cmdline>
J2VwaWtfcHl0aG9uJywgJy1waCcsICc3LjAnLCAnLXRuJywgJzgnLCAnLW1hJywgJzIwMCcsICctbWV0YWxfYmluZGluZycsICctaW1hZScsICc8aW5maWxlLm1hZT4nLCAnLW9tYWUnLCAnPG91dGZpbGUubWFlPic=

> <r_epik_Ionization_Penalty>
0.0522993

> <r_epik_Ionization_Penalty_Charging>
0.0522915

> <r_epik_Ionization_Penalty_Neutral>
7.84975e-06

> <r_epik_State_Penalty>
0.0448084

> <r_epik_Charging_Adjusted_Penalty>
0.0970998

> <i_epik_Tot_Q>
0

> <i_epik_Tot_abs_Q>
2

> <r_epik_Metal_State_Penalty>
0.0448097

> <b_epik_Metal_Only>
0

> <s_lp_Force_Field>
OPLS_2005

> <r_lp_Energy>
17.2463

> <b_lp_Chiralities_Consistent>
1

> <s_lp_Variant>
AV-unprocessed.smi:62-1

> <Gold.Version>
5.8.1

> <Gold.Id.Protein>
6NUR|6NUR_protein|mol2

> <Gold.PLP.Fitness>
46.3168

> <Gold.PLP.PLP>
-29.0862

> <Gold.PLP.part.hbond>
-3.2089

> <Gold.PLP.part.metal>
0.0000

> <Gold.PLP.part.buried>
-1.8086

> <Gold.PLP.part.nonpolar>
-23.4270

> <Gold.PLP.part.repulsive>
0.2621

> <Gold.PLP.ligand.clash>
0.0000

> <Gold.PLP.ligand.torsion>
0.2560

> <Gold.PLP.Chemscore.Hbond>
5.0000

> <Gold.PLP.Chemscore.CHOScore>
0.9103

> <Gold.PLP.Chemscore.Metal>
0.0000

> <Gold.Chemscore.Hbonds>
donor molecule, donor type, donor heavy atom, donor atom, acceptor molecule, acceptor atom, score
      L1  H     6    31       P1  8028  2.00
      P1  H  7989  7998       L1    14  1.00
      P1  H  7997  8008       L1    15  2.00
      L1  C     3    20       P1  8028  0.69

> <Gold.PLP.Chemscore.Internal.Correction>
0.0116

> <Gold.Rescore>
     Score         DG    S(hbond)    S(metal)    S(lipo)     H(rot)  DE(clash)    DE(int)     intcor
     14.69     -16.28       2.77        0.00      52.76       1.81       0.17       1.43       ----

> <Gold.Chemscore.Fitness>
14.6858

> <Gold.Chemscore.DG>
-16.2841

> <Gold.Chemscore.ZeroCoef>
-5.4800

> <Gold.Chemscore.Hbond>
2.7734

> <Gold.Chemscore.Metal>
0.0000

> <Gold.Chemscore.Lipo>
52.7552

> <Gold.Chemscore.Internal_Hbond>
0.0000

> <Gold.Chemscore.DEClash>
0.1718

> <Gold.Chemscore.DEInternal>
1.4265

> <Gold.Chemscore.Rot>
1.8091

> <Gold.Chemscore.Internal.Correction>
   9.000000E+99

> <Gold.Chemscore.Hbonds>
donor molecule, donor type, donor heavy atom, donor atom, acceptor molecule, acceptor atom, score
      L1  H     6    31       P1  8028  1.00
      P1  H  7989  7998       L1    14  0.39
      P1  H  7997  8008       L1    15  0.39

> <Gold.Chemscore.Hbond.Weighted>
-9.2632

> <Gold.Chemscore.Metal.Weighted>
-0.0000

> <Gold.Chemscore.Lipo.Weighted>
-6.1724

> <Gold.Chemscore.Internal_Hbond.Weighted>
0.0000

> <Gold.Chemscore.DEClash.Weighted>
0.1718

> <Gold.Chemscore.DEInternal.Weighted>
1.4265

> <Gold.Chemscore.Rot.Weighted>
4.6314

> <Gold.Chemscore.Internal.Correction.Weighted>
   9.000000E+99

> <Gold.Protein.RotatedTorsions>
[ 6907 6896 6895 6894 ] final -119.20 input  -60.11 | X-H torsion
[ 7974 7965 7964 7962 ] final  -43.71 input  175.53 | X-H torsion
[ 8008 7997 7996 7995 ] final  -34.44 input   59.86 | X-H torsion
[ 10167 10162 10161 10158 ] final  141.85 input  -65.29 | X-H torsion
[ 10718 10713 10712 10709 ] final   88.99 input   66.30 | X-H torsion
[ 10763 10752 10751 10750 ] final  -35.40 input  -60.55 | X-H torsion
[ 11005 11000 10999 10996 ] final  -66.54 input  -57.11 | X-H torsion

> <Gold.Protein.ActiveResidues>
 VAL166  LYS551  ARG553  GLY616  TRP617  ASP618  TYR619  PRO620  LYS621  CYS622 
 ASP623  PHE694  ASN695  SER759  ASP760  ASP761  ALA762  ILE779  LEU786  VAL792 
 PHE793  MET794  SER795  GLU796  ALA797  LYS798  CYS799  TRP800  GLU811  SER814 

> <Gold.Protein.RotatedAtoms>
  150.8285  133.8131  159.3108 H   0  0  0  0  0  0  0  0  0  0  0  0  # atno 6907 bound_to 6896
  151.5869  135.1054  160.0039 H   0  0  0  0  0  0  0  0  0  0  0  0  # atno 6908 bound_to 6896
  152.4367  133.7332  159.6655 H   0  0  0  0  0  0  0  0  0  0  0  0  # atno 6909 bound_to 6896
  145.9992  140.7093  142.9279 H   0  0  0  0  0  0  0  0  0  0  0  0  # atno 7974 bound_to 7965
  154.4121  140.1684  156.2050 H   0  0  0  0  0  0  0  0  0  0  0  0  # atno 8008 bound_to 7997
  155.9492  140.3402  155.6370 H   0  0  0  0  0  0  0  0  0  0  0  0  # atno 8009 bound_to 7997
  155.6891  140.0731  157.2446 H   0  0  0  0  0  0  0  0  0  0  0  0  # atno 8010 bound_to 7997
  139.5009  144.6145  151.6196 H   0  0  0  0  0  0  0  0  0  0  0  0  # atno 10167 bound_to 10162
  157.6952  131.0316  150.3358 H   0  0  0  0  0  0  0  0  0  0  0  0  # atno 10718 bound_to 10713
  153.8627  135.6838  153.4781 H   0  0  0  0  0  0  0  0  0  0  0  0  # atno 10763 bound_to 10752
  153.1333  135.4688  154.9380 H   0  0  0  0  0  0  0  0  0  0  0  0  # atno 10764 bound_to 10752
  154.7751  135.3251  154.8058 H   0  0  0  0  0  0  0  0  0  0  0  0  # atno 10765 bound_to 10752
  141.1485  133.6701  156.6156 H   0  0  0  0  0  0  0  0  0  0  0  0  # atno 11005 bound_to 11000
  144.6914  140.3204  143.7233 LP  0  0  0  0  0  0  0  0  0  0  0  0  # atno 17320 bound_to 7965
  145.7513  139.1794  143.2320 LP  0  0  0  0  0  0  0  0  0  0  0  0  # atno 17321 bound_to 7965
  140.5829  143.9915  150.6278 LP  0  0  0  0  0  0  0  0  0  0  0  0  # atno 17342 bound_to 10162
  140.3070  143.3223  152.0916 LP  0  0  0  0  0  0  0  0  0  0  0  0  # atno 17343 bound_to 10162
  156.3825  130.3883  149.7091 LP  0  0  0  0  0  0  0  0  0  0  0  0  # atno 17370 bound_to 10713
  156.4468  130.7887  151.2909 LP  0  0  0  0  0  0  0  0  0  0  0  0  # atno 17371 bound_to 10713
  140.3581  134.7711  157.4514 LP  0  0  0  0  0  0  0  0  0  0  0  0  # atno 17394 bound_to 11000
  140.0807  134.5735  155.8543 LP  0  0  0  0  0  0  0  0  0  0  0  0  # atno 17395 bound_to 11000

$$$$
