AV-unprocessed.smi:3234|AV-procd|sdf|12351|dock8
  -GOLD-   2272018213D 1   1.00000     0.00000
 Structure written by MMmdl.
 37 39  0  0  0  0  0  0  0  0  2 V2000
  146.7593  137.0531  153.4903 O   0  0  0  0  0  0  0  0  0  0  0  0
  146.2716  137.7224  152.5797 C   0  0  0  0  0  0  0  0  0  0  0  0
  146.4583  139.0405  152.3927 N   0  0  0  0  0  0  0  0  0  0  0  0
  147.1961  139.9532  153.1939 C   0  0  0  0  0  0  0  0  0  0  0  0
  148.3136  139.4571  153.8965 C   0  0  0  0  0  0  0  0  0  0  0  0
  149.0698  140.3472  154.6850 C   0  0  0  0  0  0  0  0  0  0  0  0
  148.7868  141.6620  154.7974 N   0  0  0  0  0  0  0  0  0  0  0  0
  147.7264  142.1382  154.1111 C   0  0  0  0  0  0  0  0  0  0  0  0
  146.9044  141.3346  153.2958 C   0  0  0  0  0  0  0  0  0  0  0  0
  145.4922  137.2013  151.6215 N   0  0  0  0  0  0  0  0  0  0  0  0
  145.1049  135.7973  151.5371 C   0  0  1  0  0  0  0  0  0  0  0  0
  144.0438  135.3930  152.5518 C   0  0  0  0  0  0  0  0  0  0  0  0
  143.4747  134.1060  151.9429 C   0  0  0  0  0  0  0  0  0  0  0  0
  143.6565  134.2106  150.4732 N   0  3  2  0  0  0  0  0  0  0  0  0
  144.2459  132.9989  149.8632 C   0  0  0  0  0  0  0  0  0  0  0  0
  143.9617  131.7346  150.6380 C   0  0  0  0  0  0  0  0  0  0  0  0
  145.3339  132.3698  150.7000 C   0  0  0  0  0  0  0  0  0  0  0  0
  144.4319  135.4423  150.2088 C   0  0  0  0  0  0  0  0  0  0  0  0
  146.0659  139.4298  151.5479 H   0  0  0  0  0  0  0  0  0  0  0  0
  148.5868  138.4134  153.8415 H   0  0  0  0  0  0  0  0  0  0  0  0
  149.9262  139.9928  155.2390 H   0  0  0  0  0  0  0  0  0  0  0  0
  147.5291  143.1953  154.2099 H   0  0  0  0  0  0  0  0  0  0  0  0
  146.0853  141.7916  152.7622 H   0  0  0  0  0  0  0  0  0  0  0  0
  145.1355  137.8193  150.9069 H   0  0  0  0  0  0  0  0  0  0  0  0
  145.9843  135.1650  151.6787 H   0  0  0  0  0  0  0  0  0  0  0  0
  144.4462  135.2443  153.5543 H   0  0  0  0  0  0  0  0  0  0  0  0
  143.2633  136.1536  152.6091 H   0  0  0  0  0  0  0  0  0  0  0  0
  144.0256  133.2471  152.3306 H   0  0  0  0  0  0  0  0  0  0  0  0
  142.4245  133.9626  152.1978 H   0  0  0  0  0  0  0  0  0  0  0  0
  144.3039  132.9811  148.7760 H   0  0  0  0  0  0  0  0  0  0  0  0
  143.3351  131.8040  151.5254 H   0  0  0  0  0  0  0  0  0  0  0  0
  143.8652  130.8102  150.0721 H   0  0  0  0  0  0  0  0  0  0  0  0
  146.1413  131.8636  150.1749 H   0  0  0  0  0  0  0  0  0  0  0  0
  145.6191  132.8606  151.6290 H   0  0  0  0  0  0  0  0  0  0  0  0
  143.7297  136.2250  149.9174 H   0  0  0  0  0  0  0  0  0  0  0  0
  145.1485  135.3247  149.3941 H   0  0  0  0  0  0  0  0  0  0  0  0
  142.7454  134.3395  150.0563 H   0  0  0  0  0  0  0  0  0  0  0  0
  1  2  2  0  0  0  0
  2  3  1  0  0  0  0
  2 10  1  0  0  0  0
  3  4  1  0  0  0  0
  3 19  1  0  0  0  0
  4  9  1  0  0  0  0
  4  5  2  0  0  0  0
  5  6  1  0  0  0  0
  5 20  1  0  0  0  0
  6  7  2  0  0  0  0
  6 21  1  0  0  0  0
  7  8  1  0  0  0  0
  8  9  2  0  0  0  0
  8 22  1  0  0  0  0
  9 23  1  0  0  0  0
 10 11  1  0  0  0  0
 10 24  1  0  0  0  0
 11 18  1  0  0  0  0
 11 12  1  0  0  0  0
 11 25  1  0  0  0  0
 12 13  1  0  0  0  0
 12 26  1  0  0  0  0
 12 27  1  0  0  0  0
 13 14  1  0  0  0  0
 13 28  1  0  0  0  0
 13 29  1  0  0  0  0
 14 15  1  0  0  0  0
 14 18  1  0  0  0  0
 14 37  1  0  0  0  0
 15 17  1  0  0  0  0
 15 16  1  0  0  0  0
 15 30  1  0  0  0  0
 16 17  1  0  0  0  0
 16 31  1  0  0  0  0
 16 32  1  0  0  0  0
 17 33  1  0  0  0  0
 17 34  1  0  0  0  0
 18 35  1  0  0  0  0
 18 36  1  0  0  0  0
M  CHG  1  14   1
M  END
> <s_m_source_file>
AV-unprocessed.smi

> <i_m_source_file_index>
3234

> <i_lp_mmshare_version>
43012

> <i_f3d_flags>
0

> <s_epik_input>
W2NIXTFbY0hdbltjSF1bY0hdYzFbTkhdQyg9TylbTkhdW0NAQEhdMltDSDJdW0NIMl1OKFtDSDJdMilbQ0hdM1tDSDJdW0NIMl0z

> <s_epik_cmdline>
J2VwaWtfcHl0aG9uJywgJy1waCcsICc3LjAnLCAnLXRuJywgJzgnLCAnLW1hJywgJzIwMCcsICctbWV0YWxfYmluZGluZycsICctaW1hZScsICc8aW5maWxlLm1hZT4nLCAnLW9tYWUnLCAnPG91dGZpbGUubWFlPic=

> <r_epik_Ionization_Penalty>
0.0934328

> <r_epik_Ionization_Penalty_Charging>
0.000606352

> <r_epik_Ionization_Penalty_Neutral>
0.0928265

> <r_epik_State_Penalty>
0.0830811

> <r_epik_Charging_Adjusted_Penalty>
0.0836875

> <i_epik_Tot_Q>
1

> <i_epik_Tot_abs_Q>
1

> <r_epik_Metal_State_Penalty>
0.0724491

> <b_epik_Metal_Only>
0

> <s_lp_Force_Field>
OPLS_2005

> <r_lp_Energy>
41.5008

> <b_lp_Chiralities_Consistent>
1

> <s_lp_Variant>
AV-unprocessed.smi:3234-4

> <Gold.Version>
5.8.1

> <Gold.Id.Protein>
6NUR|6NUR_protein|mol2

> <Gold.PLP.Fitness>
45.6807

> <Gold.PLP.PLP>
-34.7540

> <Gold.PLP.part.hbond>
-2.9727

> <Gold.PLP.part.metal>
0.0000

> <Gold.PLP.part.buried>
-4.2889

> <Gold.PLP.part.nonpolar>
-28.6836

> <Gold.PLP.part.repulsive>
1.7997

> <Gold.PLP.ligand.clash>
0.0000

> <Gold.PLP.ligand.torsion>
0.9595

> <Gold.PLP.Chemscore.Hbond>
3.0000

> <Gold.PLP.Chemscore.CHOScore>
0.8600

> <Gold.PLP.Chemscore.Metal>
0.0000

> <Gold.Chemscore.Hbonds>
donor molecule, donor type, donor heavy atom, donor atom, acceptor molecule, acceptor atom, score
      L1  H    10    24       P1 10171  1.00
      L1  H    14    37       P1 10186  2.00
      L1  C     8    22       P1  8028  0.90

> <Gold.PLP.Chemscore.Internal.Correction>
1.2658

> <Gold.Rescore>
     Score         DG    S(hbond)    S(metal)    S(lipo)     H(rot)  DE(clash)    DE(int)     intcor
     15.87     -18.17       1.93        0.00      79.69       1.21       0.06       2.23       ----

> <Gold.Chemscore.Fitness>
15.8749

> <Gold.Chemscore.DG>
-18.1653

> <Gold.Chemscore.ZeroCoef>
-5.4800

> <Gold.Chemscore.Hbond>
1.9345

> <Gold.Chemscore.Metal>
0.0000

> <Gold.Chemscore.Lipo>
79.6898

> <Gold.Chemscore.Internal_Hbond>
0.0000

> <Gold.Chemscore.DEClash>
0.0563

> <Gold.Chemscore.DEInternal>
2.2341

> <Gold.Chemscore.Rot>
1.2108

> <Gold.Chemscore.Internal.Correction>
   9.000000E+99

> <Gold.Chemscore.Hbonds>
donor molecule, donor type, donor heavy atom, donor atom, acceptor molecule, acceptor atom, score
      L1  H    10    24       P1 10171  0.99
      L1  H    14    37       P1 10186  0.91

> <Gold.Chemscore.Hbond.Weighted>
-6.4611

> <Gold.Chemscore.Metal.Weighted>
-0.0000

> <Gold.Chemscore.Lipo.Weighted>
-9.3237

> <Gold.Chemscore.Internal_Hbond.Weighted>
0.0000

> <Gold.Chemscore.DEClash.Weighted>
0.0563

> <Gold.Chemscore.DEInternal.Weighted>
2.2341

> <Gold.Chemscore.Rot.Weighted>
3.0996

> <Gold.Chemscore.Internal.Correction.Weighted>
   9.000000E+99

> <Gold.Protein.RotatedTorsions>
[ 6907 6896 6895 6894 ] final -164.97 input  -60.11 | X-H torsion
[ 7974 7965 7964 7962 ] final  -42.86 input  175.53 | X-H torsion
[ 8008 7997 7996 7995 ] final   50.04 input   59.86 | X-H torsion
[ 10167 10162 10161 10158 ] final  110.60 input  -65.29 | X-H torsion
[ 10718 10713 10712 10709 ] final  146.11 input   66.30 | X-H torsion
[ 10763 10752 10751 10750 ] final  -42.54 input  -60.55 | X-H torsion
[ 11005 11000 10999 10996 ] final   -3.96 input  -57.11 | X-H torsion

> <Gold.Protein.ActiveResidues>
 VAL166  LYS551  ARG553  GLY616  TRP617  ASP618  TYR619  PRO620  LYS621  CYS622 
 ASP623  PHE694  ASN695  SER759  ASP760  ASP761  ALA762  ILE779  LEU786  VAL792 
 PHE793  MET794  SER795  GLU796  ALA797  LYS798  CYS799  TRP800  GLU811  SER814 

> <Gold.Protein.RotatedAtoms>
  151.4203  133.3700  159.2754 H   0  0  0  0  0  0  0  0  0  0  0  0  # atno 6907 bound_to 6896
  150.9299  134.8715  159.7555 H   0  0  0  0  0  0  0  0  0  0  0  0  # atno 6908 bound_to 6896
  152.5023  134.4147  159.9512 H   0  0  0  0  0  0  0  0  0  0  0  0  # atno 6909 bound_to 6896
  146.0075  140.7003  142.9240 H   0  0  0  0  0  0  0  0  0  0  0  0  # atno 7974 bound_to 7965
  155.4122  140.3443  155.4264 H   0  0  0  0  0  0  0  0  0  0  0  0  # atno 8008 bound_to 7997
  156.1442  140.1551  156.8904 H   0  0  0  0  0  0  0  0  0  0  0  0  # atno 8009 bound_to 7997
  154.4996  140.0818  156.7752 H   0  0  0  0  0  0  0  0  0  0  0  0  # atno 8010 bound_to 7997
  139.6675  144.7127  151.1749 H   0  0  0  0  0  0  0  0  0  0  0  0  # atno 10167 bound_to 10162
  157.3372  131.0930  151.1113 H   0  0  0  0  0  0  0  0  0  0  0  0  # atno 10718 bound_to 10713
  153.9808  135.6717  153.4750 H   0  0  0  0  0  0  0  0  0  0  0  0  # atno 10763 bound_to 10752
  153.0749  135.4954  154.8380 H   0  0  0  0  0  0  0  0  0  0  0  0  # atno 10764 bound_to 10752
  154.7165  135.3108  154.9076 H   0  0  0  0  0  0  0  0  0  0  0  0  # atno 10765 bound_to 10752
  140.6751  133.9202  155.8519 H   0  0  0  0  0  0  0  0  0  0  0  0  # atno 11005 bound_to 11000
  144.6941  140.3340  143.7211 LP  0  0  0  0  0  0  0  0  0  0  0  0  # atno 17320 bound_to 7965
  145.7394  139.1759  143.2385 LP  0  0  0  0  0  0  0  0  0  0  0  0  # atno 17321 bound_to 7965
  140.7605  143.5895  150.8810 LP  0  0  0  0  0  0  0  0  0  0  0  0  # atno 17342 bound_to 10162
  139.9558  143.6220  152.3016 LP  0  0  0  0  0  0  0  0  0  0  0  0  # atno 17343 bound_to 10162
  157.2339  130.6538  149.5861 LP  0  0  0  0  0  0  0  0  0  0  0  0  # atno 17370 bound_to 10713
  155.9703  130.4590  150.6020 LP  0  0  0  0  0  0  0  0  0  0  0  0  # atno 17371 bound_to 10713
  141.0362  134.0686  157.3957 LP  0  0  0  0  0  0  0  0  0  0  0  0  # atno 17394 bound_to 11000
  139.8969  135.0148  156.7075 LP  0  0  0  0  0  0  0  0  0  0  0  0  # atno 17395 bound_to 11000

$$$$
