AV-unprocessed.smi:3261|AV-procd|sdf|12481|dock9
  -GOLD-   2272018383D 1   1.00000     0.00000
 Structure written by MMmdl.
 31 32  0  0  0  0  0  0  0  0  2 V2000
  146.7573  132.3973  153.9635 O   0  0  0  0  0  0  0  0  0  0  0  0
  147.5286  132.0019  153.0925 C   0  0  0  0  0  0  0  0  0  0  0  0
  147.2538  131.9850  151.7728 N   0  0  0  0  0  0  0  0  0  0  0  0
  146.0919  132.4438  151.0935 C   0  0  0  0  0  0  0  0  0  0  0  0
  145.3596  133.4913  151.6952 C   0  0  0  0  0  0  0  0  0  0  0  0
  144.1903  133.9720  151.0714 C   0  0  0  0  0  0  0  0  0  0  0  0
  143.7742  133.4234  149.9101 N   0  3  0  0  0  0  0  0  0  0  0  0
  144.4321  132.4125  149.3034 C   0  0  0  0  0  0  0  0  0  0  0  0
  145.6080  131.8906  149.8800 C   0  0  0  0  0  0  0  0  0  0  0  0
  148.7404  131.5114  153.4111 N   0  0  0  0  0  0  0  0  0  0  0  0
  149.3494  131.3846  154.7363 C   0  0  1  0  0  0  0  0  0  0  0  0
  150.7703  130.7990  154.6374 C   0  0  0  0  0  0  0  0  0  0  0  0
  151.4873  131.0170  155.9760 C   0  0  0  0  0  0  0  0  0  0  0  0
  150.7882  132.5565  156.6848 S   0  0  0  0  0  0  0  0  0  0  0  0
  150.1965  132.2515  157.9961 O   0  0  0  0  0  0  0  0  0  0  0  0
  151.7494  133.6578  156.5245 O   0  0  0  0  0  0  0  0  0  0  0  0
  149.4515  132.7438  155.4467 C   0  0  0  0  0  0  0  0  0  0  0  0
  147.9528  131.5526  151.1866 H   0  0  0  0  0  0  0  0  0  0  0  0
  145.6906  133.9289  152.6262 H   0  0  0  0  0  0  0  0  0  0  0  0
  143.5790  134.7714  151.4645 H   0  0  0  0  0  0  0  0  0  0  0  0
  143.9982  132.0489  148.3832 H   0  0  0  0  0  0  0  0  0  0  0  0
  146.1034  131.0701  149.3846 H   0  0  0  0  0  0  0  0  0  0  0  0
  149.2979  131.1685  152.6417 H   0  0  0  0  0  0  0  0  0  0  0  0
  148.7628  130.7050  155.3569 H   0  0  0  0  0  0  0  0  0  0  0  0
  150.7565  129.7444  154.3603 H   0  0  0  0  0  0  0  0  0  0  0  0
  151.3229  131.3246  153.8572 H   0  0  0  0  0  0  0  0  0  0  0  0
  151.2733  130.2016  156.6674 H   0  0  0  0  0  0  0  0  0  0  0  0
  152.5684  131.1073  155.8693 H   0  0  0  0  0  0  0  0  0  0  0  0
  149.7516  133.5298  154.7524 H   0  0  0  0  0  0  0  0  0  0  0  0
  148.5269  133.0473  155.9375 H   0  0  0  0  0  0  0  0  0  0  0  0
  142.9244  133.7841  149.4755 H   0  0  0  0  0  0  0  0  0  0  0  0
  1  2  2  0  0  0  0
  2  3  1  0  0  0  0
  2 10  1  0  0  0  0
  3  4  1  0  0  0  0
  3 18  1  0  0  0  0
  4  9  1  0  0  0  0
  4  5  2  0  0  0  0
  5  6  1  0  0  0  0
  5 19  1  0  0  0  0
  6  7  2  0  0  0  0
  6 20  1  0  0  0  0
  7  8  1  0  0  0  0
  7 31  1  0  0  0  0
  8  9  2  0  0  0  0
  8 21  1  0  0  0  0
  9 22  1  0  0  0  0
 10 11  1  0  0  0  0
 10 23  1  0  0  0  0
 11 17  1  0  0  0  0
 11 12  1  0  0  0  0
 11 24  1  0  0  0  0
 12 13  1  0  0  0  0
 12 25  1  0  0  0  0
 12 26  1  0  0  0  0
 13 14  1  0  0  0  0
 13 27  1  0  0  0  0
 13 28  1  0  0  0  0
 14 15  2  0  0  0  0
 14 16  2  0  0  0  0
 14 17  1  0  0  0  0
 17 29  1  0  0  0  0
 17 30  1  0  0  0  0
M  CHG  1   7   1
M  END
> <s_m_source_file>
AV-unprocessed.smi

> <i_m_source_file_index>
3261

> <i_lp_mmshare_version>
43012

> <i_f3d_flags>
0

> <s_epik_input>
Tz1TMSg9TylbQ0gyXVtDSDJdW0NASF0oW0NIMl0xKVtOSF1DKD1PKVtOSF1jMltjSF1bY0hdbltjSF1bY0hdMg==

> <s_epik_cmdline>
J2VwaWtfcHl0aG9uJywgJy1waCcsICc3LjAnLCAnLXRuJywgJzgnLCAnLW1hJywgJzIwMCcsICctbWV0YWxfYmluZGluZycsICctaW1hZScsICc8aW5maWxlLm1hZT4nLCAnLW9tYWUnLCAnPG91dGZpbGUubWFlPic=

> <r_epik_Ionization_Penalty>
1.10375

> <r_epik_Ionization_Penalty_Charging>
1.10372

> <r_epik_Ionization_Penalty_Neutral>
2.06752e-05

> <r_epik_State_Penalty>
1.16109

> <r_epik_Charging_Adjusted_Penalty>
2.26482

> <i_epik_Tot_Q>
1

> <i_epik_Tot_abs_Q>
1

> <r_epik_Metal_State_Penalty>
1.24883

> <b_epik_Metal_Only>
0

> <s_lp_Force_Field>
OPLS_2005

> <r_lp_Energy>
25.5271

> <b_lp_Chiralities_Consistent>
1

> <s_lp_Variant>
AV-unprocessed.smi:3261-4

> <Gold.Version>
5.8.1

> <Gold.Id.Protein>
6NUR|6NUR_protein|mol2

> <Gold.PLP.Fitness>
40.5970

> <Gold.PLP.PLP>
-28.9468

> <Gold.PLP.part.hbond>
-3.3542

> <Gold.PLP.part.metal>
0.0000

> <Gold.PLP.part.buried>
-5.6367

> <Gold.PLP.part.nonpolar>
-20.6604

> <Gold.PLP.part.repulsive>
0.1597

> <Gold.PLP.ligand.clash>
0.0000

> <Gold.PLP.ligand.torsion>
0.1752

> <Gold.PLP.Chemscore.Hbond>
4.0000

> <Gold.PLP.Chemscore.CHOScore>
0.0000

> <Gold.PLP.Chemscore.Metal>
0.0000

> <Gold.Chemscore.Hbonds>
donor molecule, donor type, donor heavy atom, donor atom, acceptor molecule, acceptor atom, score
      L1  H     3    18       P1 10747  1.00
      L1  H     7    31       P1 10186  2.00
      L1  H    10    23       P1 10747  0.10
      P1  H  6896  6907       L1    15  1.00

> <Gold.PLP.Chemscore.Internal.Correction>
0.0005

> <Gold.Rescore>
     Score         DG    S(hbond)    S(metal)    S(lipo)     H(rot)  DE(clash)    DE(int)     intcor
     18.41     -20.89       3.15        0.00      63.63       1.00       1.03       1.46       ----

> <Gold.Chemscore.Fitness>
18.4056

> <Gold.Chemscore.DG>
-20.8925

> <Gold.Chemscore.ZeroCoef>
-5.4800

> <Gold.Chemscore.Hbond>
3.1520

> <Gold.Chemscore.Metal>
0.0000

> <Gold.Chemscore.Lipo>
63.6303

> <Gold.Chemscore.Internal_Hbond>
0.0000

> <Gold.Chemscore.DEClash>
1.0293

> <Gold.Chemscore.DEInternal>
1.4576

> <Gold.Chemscore.Rot>
1.0000

> <Gold.Chemscore.Internal.Correction>
   9.000000E+99

> <Gold.Chemscore.Hbonds>
donor molecule, donor type, donor heavy atom, donor atom, acceptor molecule, acceptor atom, score
      L1  H     3    18       P1 10747  0.93
      L1  H     7    31       P1 10186  0.92
      L1  H    10    23       P1 10747  0.03
      P1  H  6896  6907       L1    15  0.44

> <Gold.Chemscore.Hbond.Weighted>
-10.5278

> <Gold.Chemscore.Metal.Weighted>
-0.0000

> <Gold.Chemscore.Lipo.Weighted>
-7.4447

> <Gold.Chemscore.Internal_Hbond.Weighted>
0.0000

> <Gold.Chemscore.DEClash.Weighted>
1.0293

> <Gold.Chemscore.DEInternal.Weighted>
1.4576

> <Gold.Chemscore.Rot.Weighted>
2.5600

> <Gold.Chemscore.Internal.Correction.Weighted>
   9.000000E+99

> <Gold.Protein.RotatedTorsions>
[ 6907 6896 6895 6894 ] final -147.58 input  -60.11 | X-H torsion
[ 7974 7965 7964 7962 ] final  -76.63 input  175.53 | X-H torsion
[ 8008 7997 7996 7995 ] final -128.11 input   59.86 | X-H torsion
[ 10167 10162 10161 10158 ] final  165.94 input  -65.29 | X-H torsion
[ 10718 10713 10712 10709 ] final   33.16 input   66.30 | X-H torsion
[ 10763 10752 10751 10750 ] final    0.42 input  -60.55 | X-H torsion
[ 11005 11000 10999 10996 ] final -142.95 input  -57.11 | X-H torsion

> <Gold.Protein.ActiveResidues>
 VAL166  LYS551  ARG553  GLY616  TRP617  ASP618  TYR619  PRO620  LYS621  CYS622 
 ASP623  PHE694  ASN695  SER759  ASP760  ASP761  ALA762  ILE779  LEU786  VAL792 
 PHE793  MET794  SER795  GLU796  ALA797  LYS798  CYS799  TRP800  GLU811  SER814 

> <Gold.Protein.RotatedAtoms>
  151.1577  133.4865  159.2594 H   0  0  0  0  0  0  0  0  0  0  0  0  # atno 6907 bound_to 6896
  151.1487  135.0216  159.8668 H   0  0  0  0  0  0  0  0  0  0  0  0  # atno 6908 bound_to 6896
  152.5463  134.1463  159.8553 H   0  0  0  0  0  0  0  0  0  0  0  0  # atno 6909 bound_to 6896
  145.6103  140.9388  143.1193 H   0  0  0  0  0  0  0  0  0  0  0  0  # atno 7974 bound_to 7965
  155.2572  140.0434  157.2993 H   0  0  0  0  0  0  0  0  0  0  0  0  # atno 8008 bound_to 7997
  154.5733  140.2380  155.8129 H   0  0  0  0  0  0  0  0  0  0  0  0  # atno 8009 bound_to 7997
  156.2139  140.2990  155.9802 H   0  0  0  0  0  0  0  0  0  0  0  0  # atno 8010 bound_to 7997
  139.4915  144.4079  151.9334 H   0  0  0  0  0  0  0  0  0  0  0  0  # atno 10167 bound_to 10162
  157.2944  130.7319  149.6629 H   0  0  0  0  0  0  0  0  0  0  0  0  # atno 10718 bound_to 10713
  153.3208  135.6969  153.7032 H   0  0  0  0  0  0  0  0  0  0  0  0  # atno 10763 bound_to 10752
  153.5872  135.3486  155.2898 H   0  0  0  0  0  0  0  0  0  0  0  0  # atno 10764 bound_to 10752
  154.8597  135.4309  154.2372 H   0  0  0  0  0  0  0  0  0  0  0  0  # atno 10765 bound_to 10752
  140.8174  134.2672  157.4915 H   0  0  0  0  0  0  0  0  0  0  0  0  # atno 11005 bound_to 11000
  144.7272  139.7837  143.7360 LP  0  0  0  0  0  0  0  0  0  0  0  0  # atno 17320 bound_to 7965
  146.1509  139.4592  143.0049 LP  0  0  0  0  0  0  0  0  0  0  0  0  # atno 17321 bound_to 7965
  140.3520  144.3078  150.5948 LP  0  0  0  0  0  0  0  0  0  0  0  0  # atno 17342 bound_to 10162
  140.5477  143.2212  151.7979 LP  0  0  0  0  0  0  0  0  0  0  0  0  # atno 17343 bound_to 10162
  155.9668  130.4299  150.4853 LP  0  0  0  0  0  0  0  0  0  0  0  0  # atno 17370 bound_to 10713
  157.2821  131.0609  151.2190 LP  0  0  0  0  0  0  0  0  0  0  0  0  # atno 17371 bound_to 10713
  139.8710  134.9516  156.4091 LP  0  0  0  0  0  0  0  0  0  0  0  0  # atno 17394 bound_to 11000
  140.9135  133.7695  155.9820 LP  0  0  0  0  0  0  0  0  0  0  0  0  # atno 17395 bound_to 11000

$$$$
