AV-unprocessed.smi:2797|AV-procd|sdf|10784|dock1
  -GOLD-   2272015223D 1   1.00000     0.00000
 Structure written by MMmdl.
 38 39  0  0  0  0  0  0  0  0  2 V2000
  150.5704  131.4005  155.0310 C   0  0  0  0  0  0  0  0  0  0  0  0
  149.3021  132.0149  155.2259 O   0  0  0  0  0  0  0  0  0  0  0  0
  149.0643  133.2557  154.5515 C   0  0  0  0  0  0  0  0  0  0  0  0
  150.0852  134.3245  154.9644 C   0  0  0  0  0  0  0  0  0  0  0  0
  149.7201  135.6340  154.4326 N   0  0  0  0  0  0  0  0  0  0  0  0
  149.8340  136.7998  155.0835 C   0  0  0  0  0  0  0  0  0  0  0  0
  150.2154  136.8966  156.2493 O   0  0  0  0  0  0  0  0  0  0  0  0
  149.4640  137.8286  154.3024 N   0  0  0  0  0  0  0  0  0  0  0  0
  149.4574  139.2188  154.6082 C   0  0  0  0  0  0  0  0  0  0  0  0
  150.4862  139.8531  155.3498 C   0  0  0  0  0  0  0  0  0  0  0  0
  150.4122  141.2383  155.5927 C   0  0  0  0  0  0  0  0  0  0  0  0
  149.3737  141.9515  155.1103 N   0  3  0  0  0  0  0  0  0  0  0  0
  148.3757  141.4003  154.3848 C   0  0  0  0  0  0  0  0  0  0  0  0
  147.2717  142.3170  153.8946 C   0  0  0  0  0  0  0  0  0  0  0  0
  148.3943  140.0125  154.1092 C   0  0  0  0  0  0  0  0  0  0  0  0
  147.1239  139.2964  153.1751 Cl  0  0  0  0  0  0  0  0  0  0  0  0
  148.9387  132.9221  153.0521 C   0  0  0  0  0  0  0  0  0  0  0  0
  147.4308  132.7515  153.2449 C   0  0  0  0  0  0  0  0  0  0  0  0
  147.5635  133.6188  154.4976 C   0  0  0  0  0  0  0  0  0  0  0  0
  150.5789  130.4423  155.5501 H   0  0  0  0  0  0  0  0  0  0  0  0
  151.3846  131.9944  155.4427 H   0  0  0  0  0  0  0  0  0  0  0  0
  150.7835  131.1998  153.9826 H   0  0  0  0  0  0  0  0  0  0  0  0
  150.1027  134.4165  156.0506 H   0  0  0  0  0  0  0  0  0  0  0  0
  151.1018  134.0455  154.6871 H   0  0  0  0  0  0  0  0  0  0  0  0
  149.3878  135.6532  153.4796 H   0  0  0  0  0  0  0  0  0  0  0  0
  149.0856  137.5836  153.3990 H   0  0  0  0  0  0  0  0  0  0  0  0
  151.3382  139.3080  155.7262 H   0  0  0  0  0  0  0  0  0  0  0  0
  151.1525  141.7945  156.1492 H   0  0  0  0  0  0  0  0  0  0  0  0
  146.3075  141.9935  154.2874 H   0  0  0  0  0  0  0  0  0  0  0  0
  147.2230  142.3030  152.8054 H   0  0  0  0  0  0  0  0  0  0  0  0
  147.4375  143.3473  154.2121 H   0  0  0  0  0  0  0  0  0  0  0  0
  149.1815  133.7692  152.4084 H   0  0  0  0  0  0  0  0  0  0  0  0
  149.4633  132.0203  152.7339 H   0  0  0  0  0  0  0  0  0  0  0  0
  146.8158  133.1810  152.4538 H   0  0  0  0  0  0  0  0  0  0  0  0
  147.1464  131.7225  153.4701 H   0  0  0  0  0  0  0  0  0  0  0  0
  146.9472  133.2949  155.3344 H   0  0  0  0  0  0  0  0  0  0  0  0
  147.3978  134.6761  154.2836 H   0  0  0  0  0  0  0  0  0  0  0  0
  149.3433  142.9542  155.2971 H   0  0  0  0  0  0  0  0  0  0  0  0
  1  2  1  0  0  0  0
  1 20  1  0  0  0  0
  1 21  1  0  0  0  0
  1 22  1  0  0  0  0
  2  3  1  0  0  0  0
  3 19  1  0  0  0  0
  3  4  1  0  0  0  0
  3 17  1  0  0  0  0
  4  5  1  0  0  0  0
  4 23  1  0  0  0  0
  4 24  1  0  0  0  0
  5  6  1  0  0  0  0
  5 25  1  0  0  0  0
  6  7  2  0  0  0  0
  6  8  1  0  0  0  0
  8  9  1  0  0  0  0
  8 26  1  0  0  0  0
  9 15  1  0  0  0  0
  9 10  2  0  0  0  0
 10 11  1  0  0  0  0
 10 27  1  0  0  0  0
 11 12  2  0  0  0  0
 11 28  1  0  0  0  0
 12 13  1  0  0  0  0
 12 38  1  0  0  0  0
 13 14  1  0  0  0  0
 13 15  2  0  0  0  0
 14 29  1  0  0  0  0
 14 30  1  0  0  0  0
 14 31  1  0  0  0  0
 15 16  1  0  0  0  0
 17 18  1  0  0  0  0
 17 32  1  0  0  0  0
 17 33  1  0  0  0  0
 18 19  1  0  0  0  0
 18 34  1  0  0  0  0
 18 35  1  0  0  0  0
 19 36  1  0  0  0  0
 19 37  1  0  0  0  0
M  CHG  1  12   1
M  END
> <s_m_source_file>
AV-unprocessed.smi

> <i_m_source_file_index>
2797

> <i_lp_mmshare_version>
43012

> <i_f3d_flags>
0

> <s_epik_input>
W0NIMl0xW0NIMl1bQ0gyXUMxKE9bQ0gzXSlbQ0gyXVtOSF1DKD1PKVtOSF1jMltjSF1bY0hdbmMoW0NIM10pYzJDbA==

> <s_epik_cmdline>
J2VwaWtfcHl0aG9uJywgJy1waCcsICc3LjAnLCAnLXRuJywgJzgnLCAnLW1hJywgJzIwMCcsICctbWV0YWxfYmluZGluZycsICctaW1hZScsICc8aW5maWxlLm1hZT4nLCAnLW9tYWUnLCAnPG91dGZpbGUubWFlPic=

> <r_epik_Ionization_Penalty>
2.42651

> <r_epik_Ionization_Penalty_Charging>
2.42649

> <r_epik_Ionization_Penalty_Neutral>
1.93283e-05

> <r_epik_State_Penalty>
2.58622

> <r_epik_Charging_Adjusted_Penalty>
5.01271

> <i_epik_Tot_Q>
1

> <i_epik_Tot_abs_Q>
1

> <r_epik_Metal_State_Penalty>
2.59605

> <b_epik_Metal_Only>
0

> <s_lp_Force_Field>
OPLS_2005

> <r_lp_Energy>
25.6694

> <b_lp_Chiralities_Consistent>
1

> <s_lp_Variant>
AV-unprocessed.smi:2797-2

> <Gold.Version>
5.8.1

> <Gold.Id.Protein>
6NUR|6NUR_protein|mol2

> <Gold.PLP.Fitness>
45.4253

> <Gold.PLP.PLP>
-34.5396

> <Gold.PLP.part.hbond>
-3.1297

> <Gold.PLP.part.metal>
0.0000

> <Gold.PLP.part.buried>
-4.0144

> <Gold.PLP.part.nonpolar>
-26.7562

> <Gold.PLP.part.repulsive>
0.2741

> <Gold.PLP.ligand.clash>
0.0000

> <Gold.PLP.ligand.torsion>
0.6723

> <Gold.PLP.Chemscore.Hbond>
3.9760

> <Gold.PLP.Chemscore.CHOScore>
0.0000

> <Gold.PLP.Chemscore.Metal>
0.0000

> <Gold.Chemscore.Hbonds>
donor molecule, donor type, donor heavy atom, donor atom, acceptor molecule, acceptor atom, score
      L1  H     5    25       P1  7948  1.00
      L1  H     8    26       P1  7948  0.98
      L1  H    12    38       P1  8028  2.00

> <Gold.PLP.Chemscore.Internal.Correction>
0.3024

> <Gold.Rescore>
     Score         DG    S(hbond)    S(metal)    S(lipo)     H(rot)  DE(clash)    DE(int)     intcor
     17.60     -18.74       2.40        0.00      76.35       1.44       0.05       1.09       ----

> <Gold.Chemscore.Fitness>
17.5986

> <Gold.Chemscore.DG>
-18.7422

> <Gold.Chemscore.ZeroCoef>
-5.4800

> <Gold.Chemscore.Hbond>
2.3979

> <Gold.Chemscore.Metal>
0.0000

> <Gold.Chemscore.Lipo>
76.3529

> <Gold.Chemscore.Internal_Hbond>
0.0000

> <Gold.Chemscore.DEClash>
0.0494

> <Gold.Chemscore.DEInternal>
1.0942

> <Gold.Chemscore.Rot>
1.4375

> <Gold.Chemscore.Internal.Correction>
   9.000000E+99

> <Gold.Chemscore.Hbonds>
donor molecule, donor type, donor heavy atom, donor atom, acceptor molecule, acceptor atom, score
      L1  H     5    25       P1  7948  0.30
      L1  H     8    26       P1  7948  0.86
      L1  H    12    38       P1  8028  1.00

> <Gold.Chemscore.Hbond.Weighted>
-8.0089

> <Gold.Chemscore.Metal.Weighted>
-0.0000

> <Gold.Chemscore.Lipo.Weighted>
-8.9333

> <Gold.Chemscore.Internal_Hbond.Weighted>
0.0000

> <Gold.Chemscore.DEClash.Weighted>
0.0494

> <Gold.Chemscore.DEInternal.Weighted>
1.0942

> <Gold.Chemscore.Rot.Weighted>
3.6800

> <Gold.Chemscore.Internal.Correction.Weighted>
   9.000000E+99

> <Gold.Protein.RotatedTorsions>
[ 6907 6896 6895 6894 ] final  124.19 input  -60.11 | X-H torsion
[ 7974 7965 7964 7962 ] final -122.73 input  175.53 | X-H torsion
[ 8008 7997 7996 7995 ] final  125.43 input   59.86 | X-H torsion
[ 10167 10162 10161 10158 ] final  178.86 input  -65.29 | X-H torsion
[ 10718 10713 10712 10709 ] final -165.98 input   66.30 | X-H torsion
[ 10763 10752 10751 10750 ] final  146.95 input  -60.55 | X-H torsion
[ 11005 11000 10999 10996 ] final -118.16 input  -57.11 | X-H torsion

> <Gold.Protein.ActiveResidues>
 VAL166  LYS551  ARG553  GLY616  TRP617  ASP618  TYR619  PRO620  LYS621  CYS622 
 ASP623  PHE694  ASN695  SER759  ASP760  ASP761  ALA762  ILE779  LEU786  VAL792 
 PHE793  MET794  SER795  GLU796  ALA797  LYS798  CYS799  TRP800  GLU811  SER814 

> <Gold.Protein.RotatedAtoms>
  152.4099  133.6946  159.6388 H   0  0  0  0  0  0  0  0  0  0  0  0  # atno 6907 bound_to 6896
  150.7980  133.8643  159.3249 H   0  0  0  0  0  0  0  0  0  0  0  0  # atno 6908 bound_to 6896
  151.6388  135.1017  160.0188 H   0  0  0  0  0  0  0  0  0  0  0  0  # atno 6909 bound_to 6896
  145.0263  140.8030  143.4351 H   0  0  0  0  0  0  0  0  0  0  0  0  # atno 7974 bound_to 7965
  156.2834  140.2716  156.1948 H   0  0  0  0  0  0  0  0  0  0  0  0  # atno 8008 bound_to 7997
  155.0421  140.0386  157.2531 H   0  0  0  0  0  0  0  0  0  0  0  0  # atno 8009 bound_to 7997
  154.7266  140.2698  155.6499 H   0  0  0  0  0  0  0  0  0  0  0  0  # atno 8010 bound_to 7997
  139.5312  144.2629  152.0692 H   0  0  0  0  0  0  0  0  0  0  0  0  # atno 10167 bound_to 10162
  156.6612  130.9046  151.3029 H   0  0  0  0  0  0  0  0  0  0  0  0  # atno 10718 bound_to 10713
  154.0304  135.2898  155.3369 H   0  0  0  0  0  0  0  0  0  0  0  0  # atno 10763 bound_to 10752
  154.6992  135.5195  153.8505 H   0  0  0  0  0  0  0  0  0  0  0  0  # atno 10764 bound_to 10752
  153.0642  135.6625  154.0517 H   0  0  0  0  0  0  0  0  0  0  0  0  # atno 10765 bound_to 10752
  141.0305  133.9989  157.3150 H   0  0  0  0  0  0  0  0  0  0  0  0  # atno 11005 bound_to 11000
  145.1830  139.2342  143.5283 LP  0  0  0  0  0  0  0  0  0  0  0  0  # atno 17320 bound_to 7965
  146.3492  140.1608  142.8591 LP  0  0  0  0  0  0  0  0  0  0  0  0  # atno 17321 bound_to 7965
  140.2093  144.4579  150.6393 LP  0  0  0  0  0  0  0  0  0  0  0  0  # atno 17342 bound_to 10162
  140.6491  143.2220  151.6119 LP  0  0  0  0  0  0  0  0  0  0  0  0  # atno 17343 bound_to 10162
  157.7109  130.9439  150.1086 LP  0  0  0  0  0  0  0  0  0  0  0  0  # atno 17370 bound_to 10713
  156.2009  130.3660  149.8789 LP  0  0  0  0  0  0  0  0  0  0  0  0  # atno 17371 bound_to 10713
  139.9204  135.0200  156.8044 LP  0  0  0  0  0  0  0  0  0  0  0  0  # atno 17394 bound_to 11000
  140.6416  133.9813  155.7710 LP  0  0  0  0  0  0  0  0  0  0  0  0  # atno 17395 bound_to 11000

$$$$
