AV-unprocessed.smi:1709|AV-procd|sdf|6898|dock7
  -GOLD-   22720 8103D 1   1.00000     0.00000
 Structure written by MMmdl.
 43 45  0  0  0  0  0  0  0  0  2 V2000
  151.0927  137.7681  154.3426 C   0  0  0  0  0  0  0  0  0  0  0  0
  150.3507  139.0428  154.7124 C   0  0  0  0  0  0  0  0  0  0  0  0
  151.0603  140.0965  155.3267 C   0  0  0  0  0  0  0  0  0  0  0  0
  150.3774  141.2757  155.6683 C   0  0  0  0  0  0  0  0  0  0  0  0
  149.0051  141.3516  155.3784 C   0  0  0  0  0  0  0  0  0  0  0  0
  148.3196  140.3490  154.7915 N   0  0  0  0  0  0  0  0  0  0  0  0
  148.9613  139.2001  154.4564 C   0  0  0  0  0  0  0  0  0  0  0  0
  148.3159  138.0888  153.8295 N   0  0  0  0  0  0  0  0  0  0  0  0
  147.0765  137.5700  153.9655 C   0  0  0  0  0  0  0  0  0  0  0  0
  146.2646  138.0661  154.7446 O   0  0  0  0  0  0  0  0  0  0  0  0
  146.7905  136.4989  153.2077 N   0  0  0  0  0  0  0  0  0  0  0  0
  145.5181  135.7854  153.1859 C   0  0  1  0  0  0  0  0  0  0  0  0
  144.3141  136.7185  153.1452 C   0  0  0  0  0  0  0  0  0  0  0  0
  143.2071  135.7965  152.6317 C   0  0  0  0  0  0  0  0  0  0  0  0
  143.8645  134.8429  151.7085 N   0  3  2  0  0  0  0  0  0  0  0  0
  143.3009  133.4710  151.7370 C   0  0  0  0  0  0  0  0  0  0  0  0
  144.0291  132.5605  150.7308 C   0  0  0  0  0  0  0  0  0  0  0  0
  145.5658  132.6355  150.8475 C   0  0  0  0  0  0  0  0  0  0  0  0
  146.0225  133.5512  151.9938 C   0  0  0  0  0  0  0  0  0  0  0  0
  145.3375  134.9346  151.9177 C   0  0  2  0  0  0  0  0  0  0  0  0
  152.1523  137.8389  154.5899 H   0  0  0  0  0  0  0  0  0  0  0  0
  151.0118  137.5744  153.2727 H   0  0  0  0  0  0  0  0  0  0  0  0
  150.6791  136.9158  154.8822 H   0  0  0  0  0  0  0  0  0  0  0  0
  152.1162  140.0052  155.5350 H   0  0  0  0  0  0  0  0  0  0  0  0
  150.8921  142.0999  156.1397 H   0  0  0  0  0  0  0  0  0  0  0  0
  148.4410  142.2392  155.6239 H   0  0  0  0  0  0  0  0  0  0  0  0
  148.8920  137.6078  153.1542 H   0  0  0  0  0  0  0  0  0  0  0  0
  147.5175  136.1566  152.5946 H   0  0  0  0  0  0  0  0  0  0  0  0
  145.4214  135.1549  154.0725 H   0  0  0  0  0  0  0  0  0  0  0  0
  144.0828  137.1580  154.1161 H   0  0  0  0  0  0  0  0  0  0  0  0
  144.4834  137.5304  152.4358 H   0  0  0  0  0  0  0  0  0  0  0  0
  142.7695  135.2582  153.4741 H   0  0  0  0  0  0  0  0  0  0  0  0
  142.4057  136.3435  152.1346 H   0  0  0  0  0  0  0  0  0  0  0  0
  143.3857  133.0596  152.7442 H   0  0  0  0  0  0  0  0  0  0  0  0
  142.2364  133.5097  151.5030 H   0  0  0  0  0  0  0  0  0  0  0  0
  143.6958  131.5315  150.8687 H   0  0  0  0  0  0  0  0  0  0  0  0
  143.7358  132.8360  149.7170 H   0  0  0  0  0  0  0  0  0  0  0  0
  145.9817  131.6366  150.9831 H   0  0  0  0  0  0  0  0  0  0  0  0
  145.9777  133.0084  149.9089 H   0  0  0  0  0  0  0  0  0  0  0  0
  145.7966  133.0723  152.9477 H   0  0  0  0  0  0  0  0  0  0  0  0
  147.1062  133.6667  151.9646 H   0  0  0  0  0  0  0  0  0  0  0  0
  145.7297  135.4791  151.0570 H   0  0  0  0  0  0  0  0  0  0  0  0
  143.7055  135.1923  150.7744 H   0  0  0  0  0  0  0  0  0  0  0  0
  1  2  1  0  0  0  0
  1 21  1  0  0  0  0
  1 22  1  0  0  0  0
  1 23  1  0  0  0  0
  2  7  1  0  0  0  0
  2  3  2  0  0  0  0
  3  4  1  0  0  0  0
  3 24  1  0  0  0  0
  4  5  2  0  0  0  0
  4 25  1  0  0  0  0
  5  6  1  0  0  0  0
  5 26  1  0  0  0  0
  6  7  2  0  0  0  0
  7  8  1  0  0  0  0
  8  9  1  0  0  0  0
  8 27  1  0  0  0  0
  9 10  2  0  0  0  0
  9 11  1  0  0  0  0
 11 12  1  0  0  0  0
 11 28  1  0  0  0  0
 12 20  1  0  0  0  0
 12 13  1  0  0  0  0
 12 29  1  0  0  0  0
 13 14  1  0  0  0  0
 13 30  1  0  0  0  0
 13 31  1  0  0  0  0
 14 15  1  0  0  0  0
 14 32  1  0  0  0  0
 14 33  1  0  0  0  0
 15 20  1  0  0  0  0
 15 16  1  0  0  0  0
 15 43  1  0  0  0  0
 16 17  1  0  0  0  0
 16 34  1  0  0  0  0
 16 35  1  0  0  0  0
 17 18  1  0  0  0  0
 17 36  1  0  0  0  0
 17 37  1  0  0  0  0
 18 19  1  0  0  0  0
 18 38  1  0  0  0  0
 18 39  1  0  0  0  0
 19 20  1  0  0  0  0
 19 40  1  0  0  0  0
 19 41  1  0  0  0  0
 20 42  1  0  0  0  0
M  CHG  1  15   1
M  END
> <s_m_source_file>
AV-unprocessed.smi

> <i_m_source_file_index>
1709

> <i_lp_mmshare_version>
43012

> <i_f3d_flags>
0

> <s_epik_input>
W0NIM11jMVtjSF1bY0hdW2NIXW5jMVtOSF1DKD1PKVtOSF1bQ0BIXShbQ0gyXVtDSDJdMilbQ0BASF0oTjIzKVtDSDJdW0NIMl1bQ0gyXVtDSDJdMw==

> <s_epik_cmdline>
J2VwaWtfcHl0aG9uJywgJy1waCcsICc3LjAnLCAnLXRuJywgJzgnLCAnLW1hJywgJzIwMCcsICctbWV0YWxfYmluZGluZycsICctaW1hZScsICc8aW5maWxlLm1hZT4nLCAnLW9tYWUnLCAnPG91dGZpbGUubWFlPic=

> <r_epik_Ionization_Penalty>
0.00101524

> <r_epik_Ionization_Penalty_Charging>
0.000974069

> <r_epik_Ionization_Penalty_Neutral>
4.11757e-05

> <r_epik_State_Penalty>
0.000633842

> <r_epik_Charging_Adjusted_Penalty>
0.00160791

> <i_epik_Tot_Q>
1

> <i_epik_Tot_abs_Q>
1

> <r_epik_Metal_State_Penalty>
-0

> <b_epik_Metal_Only>
0

> <s_lp_Force_Field>
OPLS_2005

> <r_lp_Energy>
44.7523

> <b_lp_Chiralities_Consistent>
1

> <s_lp_Variant>
AV-unprocessed.smi:1709-8

> <Gold.Version>
5.8.1

> <Gold.Id.Protein>
6NUR|6NUR_protein|mol2

> <Gold.PLP.Fitness>
40.9406

> <Gold.PLP.PLP>
-33.1183

> <Gold.PLP.part.hbond>
-2.0000

> <Gold.PLP.part.metal>
0.0000

> <Gold.PLP.part.buried>
-3.0684

> <Gold.PLP.part.nonpolar>
-28.4571

> <Gold.PLP.part.repulsive>
0.1892

> <Gold.PLP.ligand.clash>
0.0000

> <Gold.PLP.ligand.torsion>
0.4849

> <Gold.PLP.Chemscore.Hbond>
1.9280

> <Gold.PLP.Chemscore.CHOScore>
1.0000

> <Gold.PLP.Chemscore.Metal>
0.0000

> <Gold.Chemscore.Hbonds>
donor molecule, donor type, donor heavy atom, donor atom, acceptor molecule, acceptor atom, score
      L1  H     8    27       P1  7948  0.94
      L1  H    11    28       P1  7948  1.00
      L1  C     5    26       P1  8028  1.00

> <Gold.PLP.Chemscore.Internal.Correction>
0.0081

> <Gold.Rescore>
     Score         DG    S(hbond)    S(metal)    S(lipo)     H(rot)  DE(clash)    DE(int)     intcor
     16.51     -18.32       1.87        0.00      78.40       1.00       0.06       1.76       ----

> <Gold.Chemscore.Fitness>
16.5069

> <Gold.Chemscore.DG>
-18.3232

> <Gold.Chemscore.ZeroCoef>
-5.4800

> <Gold.Chemscore.Hbond>
1.8654

> <Gold.Chemscore.Metal>
0.0000

> <Gold.Chemscore.Lipo>
78.3985

> <Gold.Chemscore.Internal_Hbond>
0.0000

> <Gold.Chemscore.DEClash>
0.0597

> <Gold.Chemscore.DEInternal>
1.7566

> <Gold.Chemscore.Rot>
1.0000

> <Gold.Chemscore.Internal.Correction>
   9.000000E+99

> <Gold.Chemscore.Hbonds>
donor molecule, donor type, donor heavy atom, donor atom, acceptor molecule, acceptor atom, score
      L1  H     8    27       P1  7948  0.91
      L1  H    11    28       P1  7948  0.97

> <Gold.Chemscore.Hbond.Weighted>
-6.2306

> <Gold.Chemscore.Metal.Weighted>
-0.0000

> <Gold.Chemscore.Lipo.Weighted>
-9.1726

> <Gold.Chemscore.Internal_Hbond.Weighted>
0.0000

> <Gold.Chemscore.DEClash.Weighted>
0.0597

> <Gold.Chemscore.DEInternal.Weighted>
1.7566

> <Gold.Chemscore.Rot.Weighted>
2.5600

> <Gold.Chemscore.Internal.Correction.Weighted>
   9.000000E+99

> <Gold.Protein.RotatedTorsions>
[ 6907 6896 6895 6894 ] final  112.64 input  -60.11 | X-H torsion
[ 7974 7965 7964 7962 ] final  -59.61 input  175.53 | X-H torsion
[ 8008 7997 7996 7995 ] final  129.77 input   59.86 | X-H torsion
[ 10167 10162 10161 10158 ] final -132.14 input  -65.29 | X-H torsion
[ 10718 10713 10712 10709 ] final  -45.71 input   66.30 | X-H torsion
[ 10763 10752 10751 10750 ] final -139.15 input  -60.55 | X-H torsion
[ 11005 11000 10999 10996 ] final -154.93 input  -57.11 | X-H torsion

> <Gold.Protein.ActiveResidues>
 VAL166  LYS551  ARG553  GLY616  TRP617  ASP618  TYR619  PRO620  LYS621  CYS622 
 ASP623  PHE694  ASN695  SER759  ASP760  ASP761  ALA762  ILE779  LEU786  VAL792 
 PHE793  MET794  SER795  GLU796  ALA797  LYS798  CYS799  TRP800  GLU811  SER814 

> <Gold.Protein.RotatedAtoms>
  152.4905  133.8487  159.7190 H   0  0  0  0  0  0  0  0  0  0  0  0  # atno 6907 bound_to 6896
  150.9030  133.7085  159.2880 H   0  0  0  0  0  0  0  0  0  0  0  0  # atno 6908 bound_to 6896
  151.4519  135.1034  159.9752 H   0  0  0  0  0  0  0  0  0  0  0  0  # atno 6909 bound_to 6896
  145.8255  140.8513  143.0111 H   0  0  0  0  0  0  0  0  0  0  0  0  # atno 7974 bound_to 7965
  156.2942  140.2612  156.2652 H   0  0  0  0  0  0  0  0  0  0  0  0  # atno 8008 bound_to 7997
  154.9749  140.0390  157.2270 H   0  0  0  0  0  0  0  0  0  0  0  0  # atno 8009 bound_to 7997
  154.7825  140.2797  155.6058 H   0  0  0  0  0  0  0  0  0  0  0  0  # atno 8010 bound_to 7997
  139.9117  143.6487  152.2574 H   0  0  0  0  0  0  0  0  0  0  0  0  # atno 10167 bound_to 10162
  156.2256  130.4169  149.8938 H   0  0  0  0  0  0  0  0  0  0  0  0  # atno 10718 bound_to 10713
  154.8617  135.3591  154.5500 H   0  0  0  0  0  0  0  0  0  0  0  0  # atno 10763 bound_to 10752
  153.6119  135.7009  153.5348 H   0  0  0  0  0  0  0  0  0  0  0  0  # atno 10764 bound_to 10752
  153.3202  135.4153  155.1371 H   0  0  0  0  0  0  0  0  0  0  0  0  # atno 10765 bound_to 10752
  140.6920  134.4031  157.5218 H   0  0  0  0  0  0  0  0  0  0  0  0  # atno 11005 bound_to 11000
  144.6744  140.0595  143.7476 LP  0  0  0  0  0  0  0  0  0  0  0  0  # atno 17320 bound_to 7965
  145.9629  139.2813  143.1145 LP  0  0  0  0  0  0  0  0  0  0  0  0  # atno 17321 bound_to 7965
  139.6937  144.7644  151.1393 LP  0  0  0  0  0  0  0  0  0  0  0  0  # atno 17342 bound_to 10162
  140.7684  143.5553  150.9159 LP  0  0  0  0  0  0  0  0  0  0  0  0  # atno 17343 bound_to 10162
  156.6570  130.8766  151.3541 LP  0  0  0  0  0  0  0  0  0  0  0  0  # atno 17370 bound_to 10713
  157.7109  130.9439  150.1085 LP  0  0  0  0  0  0  0  0  0  0  0  0  # atno 17371 bound_to 10713
  139.8921  134.8764  156.2288 LP  0  0  0  0  0  0  0  0  0  0  0  0  # atno 17394 bound_to 11000
  141.0234  133.7029  156.1306 LP  0  0  0  0  0  0  0  0  0  0  0  0  # atno 17395 bound_to 11000

$$$$
