AV-unprocessed.smi:155|AV-procd|sdf|1279|dock3
  -GOLD-   2262018543D 1   1.00000     0.00000
 Structure written by MMmdl.
 64 67  0  0  0  0  0  0  0  0  3 V2000
  141.1957  137.4348  155.2578 C   0  0  0  0  0  0  0  0  0  0  0  0
  140.6764  136.8831  153.9865 N   0  3  0  0  0  0  0  0  0  0  0  0
  139.1995  136.9730  153.9188 C   0  0  0  0  0  0  0  0  0  0  0  0
  141.1936  135.5171  153.7189 C   0  0  0  0  0  0  0  0  0  0  0  0
  142.6569  135.3339  154.1741 C   0  0  0  0  0  0  0  0  0  0  0  0
  143.5896  135.1102  153.0370 N   0  3  2  0  0  0  0  0  0  0  0  0
  143.8699  136.3513  152.2656 C   0  0  0  0  0  0  0  0  0  0  0  0
  145.3665  136.4515  151.9221 C   0  0  0  0  0  0  0  0  0  0  0  0
  145.8206  135.4703  150.8286 C   0  0  0  0  0  0  0  0  0  0  0  0
  145.5006  134.0810  151.1501 N   0  0  0  0  0  0  0  0  0  0  0  0
  146.2944  133.3271  151.9711 C   0  0  0  0  0  0  0  0  0  0  0  0
  147.1051  133.9853  152.8442 N   0  0  0  0  0  0  0  0  0  0  0  0
  147.9105  133.3223  153.6766 C   0  0  0  0  0  0  0  0  0  0  0  0
  148.0708  132.0069  153.8047 N   0  0  0  0  0  0  0  0  0  0  0  0
  147.2669  131.3275  152.9396 C   0  0  0  0  0  0  0  0  0  0  0  0
  146.3588  131.8968  151.9968 C   0  0  0  0  0  0  0  0  0  0  0  0
  145.7336  130.8688  151.2958 N   0  0  0  0  0  0  0  0  0  0  0  0
  146.2268  129.7714  151.7982 C   0  0  0  0  0  0  0  0  0  0  0  0
  147.1552  129.9562  152.7934 N   0  0  0  0  0  0  0  0  0  0  0  0
  147.8537  128.9182  153.5312 C   0  0  0  0  0  0  0  0  0  0  0  0
  147.4056  127.5030  153.1157 C   0  0  2  0  0  0  0  0  0  0  0  0
  146.9339  126.7747  154.2342 O   0  0  0  0  0  0  0  0  0  0  0  0
  148.5103  126.7098  152.3887 C   0  0  2  0  0  0  0  0  0  0  0  0
  148.9332  127.2549  151.0131 C   0  0  0  0  0  0  0  0  0  0  0  0
  148.6745  126.0934  150.0702 C   0  0  0  0  0  0  0  0  0  0  0  0
  148.7403  124.8884  150.9990 C   0  0  0  0  0  0  0  0  0  0  0  0
  148.1075  125.3593  152.1772 O   0  0  0  0  0  0  0  0  0  0  0  0
  144.0980  133.7019  150.9549 C   0  0  0  0  0  0  0  0  0  0  0  0
  143.1966  133.9503  152.1863 C   0  0  0  0  0  0  0  0  0  0  0  0
  140.8602  136.8401  156.1088 H   0  0  0  0  0  0  0  0  0  0  0  0
  140.8543  138.4606  155.4023 H   0  0  0  0  0  0  0  0  0  0  0  0
  142.2863  137.4493  155.2588 H   0  0  0  0  0  0  0  0  0  0  0  0
  138.7330  136.3255  154.6626 H   0  0  0  0  0  0  0  0  0  0  0  0
  138.8282  136.6883  152.9345 H   0  0  0  0  0  0  0  0  0  0  0  0
  138.8684  137.9955  154.1047 H   0  0  0  0  0  0  0  0  0  0  0  0
  140.5752  134.8042  154.2670 H   0  0  0  0  0  0  0  0  0  0  0  0
  141.0740  135.2849  152.6600 H   0  0  0  0  0  0  0  0  0  0  0  0
  142.9988  136.1836  154.7661 H   0  0  0  0  0  0  0  0  0  0  0  0
  142.6896  134.4612  154.8281 H   0  0  0  0  0  0  0  0  0  0  0  0
  143.2465  136.4092  151.3720 H   0  0  0  0  0  0  0  0  0  0  0  0
  143.6161  137.2309  152.8580 H   0  0  0  0  0  0  0  0  0  0  0  0
  145.5826  137.4639  151.5798 H   0  0  0  0  0  0  0  0  0  0  0  0
  145.9587  136.3119  152.8270 H   0  0  0  0  0  0  0  0  0  0  0  0
  145.3163  135.7298  149.8971 H   0  0  0  0  0  0  0  0  0  0  0  0
  146.8780  135.5893  150.6006 H   0  0  0  0  0  0  0  0  0  0  0  0
  148.5107  133.9329  154.3350 H   0  0  0  0  0  0  0  0  0  0  0  0
  145.9228  128.7917  151.4580 H   0  0  0  0  0  0  0  0  0  0  0  0
  148.9243  129.0389  153.3615 H   0  0  0  0  0  0  0  0  0  0  0  0
  147.6890  129.0780  154.5974 H   0  0  0  0  0  0  0  0  0  0  0  0
  146.5604  127.5980  152.4324 H   0  0  0  0  0  0  0  0  0  0  0  0
  146.3811  127.3438  154.7483 H   0  0  0  0  0  0  0  0  0  0  0  0
  149.3936  126.6791  153.0286 H   0  0  0  0  0  0  0  0  0  0  0  0
  148.3917  128.1515  150.7098 H   0  0  0  0  0  0  0  0  0  0  0  0
  149.9950  127.5034  151.0238 H   0  0  0  0  0  0  0  0  0  0  0  0
  147.6733  126.1763  149.6451 H   0  0  0  0  0  0  0  0  0  0  0  0
  149.3903  126.0398  149.2495 H   0  0  0  0  0  0  0  0  0  0  0  0
  148.2346  124.0123  150.5926 H   0  0  0  0  0  0  0  0  0  0  0  0
  149.7749  124.6210  151.2194 H   0  0  0  0  0  0  0  0  0  0  0  0
  143.7058  134.2841  150.1205 H   0  0  0  0  0  0  0  0  0  0  0  0
  144.0181  132.6650  150.6261 H   0  0  0  0  0  0  0  0  0  0  0  0
  143.2280  133.0522  152.8021 H   0  0  0  0  0  0  0  0  0  0  0  0
  142.1618  134.0599  151.8588 H   0  0  0  0  0  0  0  0  0  0  0  0
  141.0382  137.4807  153.2567 H   0  0  0  0  0  0  0  0  0  0  0  0
  144.4744  134.8639  153.4577 H   0  0  0  0  0  0  0  0  0  0  0  0
  1  2  1  0  0  0  0
  1 30  1  0  0  0  0
  1 31  1  0  0  0  0
  1 32  1  0  0  0  0
  2  3  1  0  0  0  0
  2  4  1  0  0  0  0
  2 63  1  0  0  0  0
  3 33  1  0  0  0  0
  3 34  1  0  0  0  0
  3 35  1  0  0  0  0
  4  5  1  0  0  0  0
  4 36  1  0  0  0  0
  4 37  1  0  0  0  0
  5  6  1  0  0  0  0
  5 38  1  0  0  0  0
  5 39  1  0  0  0  0
  6 29  1  0  0  0  0
  6  7  1  0  0  0  0
  6 64  1  0  0  0  0
  7  8  1  0  0  0  0
  7 40  1  0  0  0  0
  7 41  1  0  0  0  0
  8  9  1  0  0  0  0
  8 42  1  0  0  0  0
  8 43  1  0  0  0  0
  9 10  1  0  0  0  0
  9 44  1  0  0  0  0
  9 45  1  0  0  0  0
 10 11  1  0  0  0  0
 10 28  1  0  0  0  0
 11 16  1  0  0  0  0
 11 12  2  0  0  0  0
 12 13  1  0  0  0  0
 13 14  2  0  0  0  0
 13 46  1  0  0  0  0
 14 15  1  0  0  0  0
 15 19  1  0  0  0  0
 15 16  2  0  0  0  0
 16 17  1  0  0  0  0
 17 18  2  0  0  0  0
 18 19  1  0  0  0  0
 18 47  1  0  0  0  0
 19 20  1  0  0  0  0
 20 21  1  0  0  0  0
 20 48  1  0  0  0  0
 20 49  1  0  0  0  0
 21 22  1  0  0  0  0
 21 23  1  0  0  0  0
 21 50  1  0  0  0  0
 22 51  1  0  0  0  0
 23 27  1  0  0  0  0
 23 24  1  0  0  0  0
 23 52  1  0  0  0  0
 24 25  1  0  0  0  0
 24 53  1  0  0  0  0
 24 54  1  0  0  0  0
 25 26  1  0  0  0  0
 25 55  1  0  0  0  0
 25 56  1  0  0  0  0
 26 27  1  0  0  0  0
 26 57  1  0  0  0  0
 26 58  1  0  0  0  0
 28 29  1  0  0  0  0
 28 59  1  0  0  0  0
 28 60  1  0  0  0  0
 29 61  1  0  0  0  0
 29 62  1  0  0  0  0
M  CHG  1   2   1
M  CHG  1   6   1
M  END
> <s_m_source_file>
AV-unprocessed.smi

> <i_m_source_file_index>
155

> <i_lp_mmshare_version>
43012

> <i_f3d_flags>
0

> <s_epik_input>
W0NIM11OKFtDSDNdKVtDSDJdW0NIMl1OMVtDSDJdW0NIMl1bQ0gyXU4oW0NIMl1bQ0gyXTEpYyhuW2NIXW4yKWMoYzIzKW5bY0hdbjNbQ0gyXVtDQEhdKFtPSF0pW0NAQEhdNFtDSDJdW0NIMl1bQ0gyXU80

> <s_epik_cmdline>
J2VwaWtfcHl0aG9uJywgJy1waCcsICc3LjAnLCAnLXRuJywgJzgnLCAnLW1hJywgJzIwMCcsICctbWV0YWxfYmluZGluZycsICctaW1hZScsICc8aW5maWxlLm1hZT4nLCAnLW9tYWUnLCAnPG91dGZpbGUubWFlPic=

> <r_lp_tautomer_probability>
1

> <r_epik_Ionization_Penalty>
3.0333

> <r_epik_Ionization_Penalty_Charging>
3.03317

> <r_epik_Ionization_Penalty_Neutral>
0.000131872

> <r_epik_State_Penalty>
1.99939

> <r_epik_Charging_Adjusted_Penalty>
5.03256

> <i_epik_Tot_Q>
2

> <i_epik_Tot_abs_Q>
2

> <r_epik_Metal_State_Penalty>
2.00021

> <b_epik_Metal_Only>
0

> <s_lp_Force_Field>
OPLS_2005

> <r_lp_Energy>
62.7096

> <b_lp_Chiralities_Consistent>
1

> <s_lp_Variant>
AV-unprocessed.smi:155-13

> <Gold.Version>
5.8.1

> <Gold.Id.Protein>
6NUR|6NUR_protein|mol2

> <Gold.PLP.Fitness>
47.7368

> <Gold.PLP.PLP>
-51.1832

> <Gold.PLP.part.hbond>
-1.9807

> <Gold.PLP.part.metal>
0.0000

> <Gold.PLP.part.buried>
-9.1400

> <Gold.PLP.part.nonpolar>
-41.4973

> <Gold.PLP.part.repulsive>
0.3603

> <Gold.PLP.ligand.clash>
0.0000

> <Gold.PLP.ligand.torsion>
1.9190

> <Gold.PLP.Chemscore.Hbond>
0.0000

> <Gold.PLP.Chemscore.CHOScore>
0.0000

> <Gold.PLP.Chemscore.Metal>
0.0000

> <Gold.PLP.Chemscore.Internal.Correction>
0.3916

> <Gold.Rescore>
     Score         DG    S(hbond)    S(metal)    S(lipo)     H(rot)  DE(clash)    DE(int)     intcor
      8.14     -10.17       0.00        0.00     100.24       2.75       0.20       1.84       ----

> <Gold.Chemscore.Fitness>
8.1366

> <Gold.Chemscore.DG>
-10.1693

> <Gold.Chemscore.ZeroCoef>
-5.4800

> <Gold.Chemscore.Hbond>
0.0000

> <Gold.Chemscore.Metal>
0.0000

> <Gold.Chemscore.Lipo>
100.2360

> <Gold.Chemscore.Internal_Hbond>
0.0000

> <Gold.Chemscore.DEClash>
0.1964

> <Gold.Chemscore.DEInternal>
1.8363

> <Gold.Chemscore.Rot>
2.7493

> <Gold.Chemscore.Internal.Correction>
   9.000000E+99

> <Gold.Chemscore.Hbond.Weighted>
-0.0000

> <Gold.Chemscore.Metal.Weighted>
-0.0000

> <Gold.Chemscore.Lipo.Weighted>
-11.7276

> <Gold.Chemscore.Internal_Hbond.Weighted>
0.0000

> <Gold.Chemscore.DEClash.Weighted>
0.1964

> <Gold.Chemscore.DEInternal.Weighted>
1.8363

> <Gold.Chemscore.Rot.Weighted>
7.0383

> <Gold.Chemscore.Internal.Correction.Weighted>
   9.000000E+99

> <Gold.Protein.RotatedTorsions>
[ 6907 6896 6895 6894 ] final  171.51 input  -60.11 | X-H torsion
[ 7974 7965 7964 7962 ] final  -54.17 input  175.53 | X-H torsion
[ 8008 7997 7996 7995 ] final  -97.70 input   59.86 | X-H torsion
[ 10167 10162 10161 10158 ] final  -11.55 input  -65.29 | X-H torsion
[ 10718 10713 10712 10709 ] final -105.49 input   66.30 | X-H torsion
[ 10763 10752 10751 10750 ] final -101.76 input  -60.55 | X-H torsion
[ 11005 11000 10999 10996 ] final  -22.96 input  -57.11 | X-H torsion

> <Gold.Protein.ActiveResidues>
 VAL166  LYS551  ARG553  GLY616  TRP617  ASP618  TYR619  PRO620  LYS621  CYS622 
 ASP623  PHE694  ASN695  SER759  ASP760  ASP761  ALA762  ILE779  LEU786  VAL792 
 PHE793  MET794  SER795  GLU796  ALA797  LYS798  CYS799  TRP800  GLU811  SER814 

> <Gold.Protein.RotatedAtoms>
  151.7990  133.3368  159.3521 H   0  0  0  0  0  0  0  0  0  0  0  0  # atno 6907 bound_to 6896
  150.7365  134.5771  159.5929 H   0  0  0  0  0  0  0  0  0  0  0  0  # atno 6908 bound_to 6896
  152.3156  134.7445  160.0377 H   0  0  0  0  0  0  0  0  0  0  0  0  # atno 6909 bound_to 6896
  145.8886  140.8089  142.9803 H   0  0  0  0  0  0  0  0  0  0  0  0  # atno 7974 bound_to 7965
  154.7913  140.0461  157.1203 H   0  0  0  0  0  0  0  0  0  0  0  0  # atno 8008 bound_to 7997
  154.9588  140.3074  155.5021 H   0  0  0  0  0  0  0  0  0  0  0  0  # atno 8009 bound_to 7997
  156.2950  140.2274  156.4671 H   0  0  0  0  0  0  0  0  0  0  0  0  # atno 8010 bound_to 7997
  140.7141  143.5627  150.9177 H   0  0  0  0  0  0  0  0  0  0  0  0  # atno 10167 bound_to 10162
  156.0348  130.5566  150.7546 H   0  0  0  0  0  0  0  0  0  0  0  0  # atno 10718 bound_to 10713
  154.7682  135.4886  153.9596 H   0  0  0  0  0  0  0  0  0  0  0  0  # atno 10763 bound_to 10752
  153.1334  135.6757  153.9149 H   0  0  0  0  0  0  0  0  0  0  0  0  # atno 10764 bound_to 10752
  153.8845  135.3128  155.3424 H   0  0  0  0  0  0  0  0  0  0  0  0  # atno 10765 bound_to 10752
  140.8706  133.7723  156.0182 H   0  0  0  0  0  0  0  0  0  0  0  0  # atno 11005 bound_to 11000
  144.6729  140.1494  143.7431 LP  0  0  0  0  0  0  0  0  0  0  0  0  # atno 17320 bound_to 7965
  145.8937  139.2390  143.1535 LP  0  0  0  0  0  0  0  0  0  0  0  0  # atno 17321 bound_to 7965
  139.9353  143.6445  152.3067 LP  0  0  0  0  0  0  0  0  0  0  0  0  # atno 17342 bound_to 10162
  139.6910  144.7647  151.1438 LP  0  0  0  0  0  0  0  0  0  0  0  0  # atno 17343 bound_to 10162
  157.5081  131.0923  151.0231 LP  0  0  0  0  0  0  0  0  0  0  0  0  # atno 17370 bound_to 10713
  157.0594  130.5819  149.5383 LP  0  0  0  0  0  0  0  0  0  0  0  0  # atno 17371 bound_to 10713
  140.8577  134.2878  157.5248 LP  0  0  0  0  0  0  0  0  0  0  0  0  # atno 17394 bound_to 11000
  139.8712  134.9502  156.4047 LP  0  0  0  0  0  0  0  0  0  0  0  0  # atno 17395 bound_to 11000

$$$$
