AV-unprocessed.smi:11|AV-procd|sdf|58|dock10
  -GOLD-   2262015173D 1   1.00000     0.00000
 Structure written by MMmdl.
 34 36  0  0  0  0  0  0  0  0  2 V2000
  152.5149  144.7097  158.1082 C   0  0  0  0  0  0  0  0  0  0  0  0
  151.5825  143.7218  157.3862 C   0  0  0  0  0  0  0  0  0  0  0  0
  150.8956  142.6735  158.2965 C   0  0  2  0  0  0  0  0  0  0  0  0
  150.2528  143.3494  159.3594 O   0  0  0  0  0  0  0  0  0  0  0  0
  151.9095  141.6684  158.8612 C   0  0  0  0  0  0  0  0  0  0  0  0
  151.9777  140.5919  157.7799 C   0  0  0  0  0  0  0  0  0  0  0  0
  150.6355  140.5476  157.2178 N   0  0  0  0  0  0  0  0  0  0  0  0
  150.3600  139.8330  156.0345 C   0  0  0  0  0  0  0  0  0  0  0  0
  149.1018  139.9140  155.5201 N   0  0  0  0  0  0  0  0  0  0  0  0
  148.7358  139.2694  154.4031 C   0  0  0  0  0  0  0  0  0  0  0  0
  149.5768  138.5019  153.7034 N   0  3  0  0  0  0  0  0  0  0  0  0
  150.8467  138.4034  154.1713 C   0  0  0  0  0  0  0  0  0  0  0  0
  151.9052  137.6949  153.6426 N   0  0  0  0  0  0  0  0  0  0  0  0
  153.0324  137.8747  154.4252 C   0  0  0  0  0  0  0  0  0  0  0  0
  152.7204  138.7021  155.4748 C   0  0  0  0  0  0  0  0  0  0  0  0
  151.3266  139.0473  155.3413 C   0  0  0  0  0  0  0  0  0  0  0  0
  149.9044  141.7648  157.5434 C   0  0  0  0  0  0  0  0  0  0  0  0
  151.8950  137.1253  152.8083 H   0  0  0  0  0  0  0  0  0  0  0  0
  152.9778  145.3884  157.3916 H   0  0  0  0  0  0  0  0  0  0  0  0
  153.3193  144.1928  158.6317 H   0  0  0  0  0  0  0  0  0  0  0  0
  151.9807  145.3219  158.8337 H   0  0  0  0  0  0  0  0  0  0  0  0
  150.8248  144.2913  156.8471 H   0  0  0  0  0  0  0  0  0  0  0  0
  152.1626  143.2035  156.6215 H   0  0  0  0  0  0  0  0  0  0  0  0
  150.8754  143.4697  160.0599 H   0  0  0  0  0  0  0  0  0  0  0  0
  152.8820  142.1068  159.0874 H   0  0  0  0  0  0  0  0  0  0  0  0
  151.5275  141.2217  159.7810 H   0  0  0  0  0  0  0  0  0  0  0  0
  152.6960  140.8735  157.0086 H   0  0  0  0  0  0  0  0  0  0  0  0
  152.2732  139.6257  158.1902 H   0  0  0  0  0  0  0  0  0  0  0  0
  147.7261  139.3545  154.0289 H   0  0  0  0  0  0  0  0  0  0  0  0
  153.9693  137.4004  154.1696 H   0  0  0  0  0  0  0  0  0  0  0  0
  153.3916  139.0328  156.2533 H   0  0  0  0  0  0  0  0  0  0  0  0
  149.0659  141.4903  158.1847 H   0  0  0  0  0  0  0  0  0  0  0  0
  149.5007  142.2478  156.6548 H   0  0  0  0  0  0  0  0  0  0  0  0
  149.2878  138.0161  152.8545 H   0  0  0  0  0  0  0  0  0  0  0  0
  1  2  1  0  0  0  0
  1 19  1  0  0  0  0
  1 20  1  0  0  0  0
  1 21  1  0  0  0  0
  2  3  1  0  0  0  0
  2 22  1  0  0  0  0
  2 23  1  0  0  0  0
  3 17  1  0  0  0  0
  3  4  1  0  0  0  0
  3  5  1  0  0  0  0
  4 24  1  0  0  0  0
  5  6  1  0  0  0  0
  5 25  1  0  0  0  0
  5 26  1  0  0  0  0
  6  7  1  0  0  0  0
  6 27  1  0  0  0  0
  6 28  1  0  0  0  0
  7  8  1  0  0  0  0
  7 17  1  0  0  0  0
  8 16  1  0  0  0  0
  8  9  2  0  0  0  0
  9 10  1  0  0  0  0
 10 11  2  0  0  0  0
 10 29  1  0  0  0  0
 11 12  1  0  0  0  0
 11 34  1  0  0  0  0
 12 16  2  0  0  0  0
 12 13  1  0  0  0  0
 13 18  1  0  0  0  0
 13 14  1  0  0  0  0
 14 15  2  0  0  0  0
 14 30  1  0  0  0  0
 15 16  1  0  0  0  0
 15 31  1  0  0  0  0
 17 32  1  0  0  0  0
 17 33  1  0  0  0  0
M  CHG  1  11   1
M  END
> <s_m_source_file>
AV-unprocessed.smi

> <i_m_source_file_index>
11

> <i_lp_mmshare_version>
43012

> <i_f3d_flags>
0

> <s_epik_input>
W0NIM11bQ0gyXVtDQEBdMShbT0hdKVtDSDJdW0NIMl1OKFtDSDJdMSljKG5bY0hdbjIpYyhjMjMpW2NIXVtjSF1bbkhdMw==

> <s_epik_cmdline>
J2VwaWtfcHl0aG9uJywgJy1waCcsICc3LjAnLCAnLXRuJywgJzgnLCAnLW1hJywgJzIwMCcsICctbWV0YWxfYmluZGluZycsICctaW1hZScsICc8aW5maWxlLm1hZT4nLCAnLW9tYWUnLCAnPG91dGZpbGUubWFlPic=

> <r_lp_tautomer_probability>
1.75997e-05

> <r_epik_Ionization_Penalty>
1.53257

> <r_epik_Ionization_Penalty_Charging>
1.53255

> <r_epik_Ionization_Penalty_Neutral>
1.78556e-05

> <r_epik_State_Penalty>
1.6253

> <r_epik_Charging_Adjusted_Penalty>
3.15785

> <i_epik_Tot_Q>
1

> <i_epik_Tot_abs_Q>
1

> <r_epik_Metal_State_Penalty>
1.66891

> <b_epik_Metal_Only>
0

> <s_lp_Force_Field>
OPLS_2005

> <r_lp_Energy>
33.3454

> <b_lp_Chiralities_Consistent>
1

> <s_lp_Variant>
AV-unprocessed.smi:11-4

> <Gold.Version>
5.8.1

> <Gold.Id.Protein>
6NUR|6NUR_protein|mol2

> <Gold.PLP.Fitness>
42.5704

> <Gold.PLP.PLP>
-30.7961

> <Gold.PLP.part.hbond>
-3.5385

> <Gold.PLP.part.metal>
0.0000

> <Gold.PLP.part.buried>
0.6647

> <Gold.PLP.part.nonpolar>
-28.3542

> <Gold.PLP.part.repulsive>
0.2538

> <Gold.PLP.ligand.clash>
0.0000

> <Gold.PLP.ligand.torsion>
0.2105

> <Gold.PLP.Chemscore.Hbond>
3.9840

> <Gold.PLP.Chemscore.CHOScore>
0.0000

> <Gold.PLP.Chemscore.Metal>
0.0000

> <Gold.Chemscore.Hbonds>
donor molecule, donor type, donor heavy atom, donor atom, acceptor molecule, acceptor atom, score
      L1  H    11    34       P1  7948  1.97
      L1  H    13    18       P1  7949  2.00

> <Gold.PLP.Chemscore.Internal.Correction>
0.2432

> <Gold.Rescore>
     Score         DG    S(hbond)    S(metal)    S(lipo)     H(rot)  DE(clash)    DE(int)     intcor
     15.00     -17.54       1.96        0.00      78.50       1.44       1.70       0.84       ----

> <Gold.Chemscore.Fitness>
15.0023

> <Gold.Chemscore.DG>
-17.5386

> <Gold.Chemscore.ZeroCoef>
-5.4800

> <Gold.Chemscore.Hbond>
1.9637

> <Gold.Chemscore.Metal>
0.0000

> <Gold.Chemscore.Lipo>
78.4977

> <Gold.Chemscore.Internal_Hbond>
0.0000

> <Gold.Chemscore.DEClash>
1.6980

> <Gold.Chemscore.DEInternal>
0.8383

> <Gold.Chemscore.Rot>
1.4392

> <Gold.Chemscore.Internal.Correction>
   9.000000E+99

> <Gold.Chemscore.Hbonds>
donor molecule, donor type, donor heavy atom, donor atom, acceptor molecule, acceptor atom, score
      L1  H    11    34       P1  7948  0.83
      L1  H    13    18       P1  7949  0.99

> <Gold.Chemscore.Hbond.Weighted>
-6.5588

> <Gold.Chemscore.Metal.Weighted>
-0.0000

> <Gold.Chemscore.Lipo.Weighted>
-9.1842

> <Gold.Chemscore.Internal_Hbond.Weighted>
0.0000

> <Gold.Chemscore.DEClash.Weighted>
1.6980

> <Gold.Chemscore.DEInternal.Weighted>
0.8383

> <Gold.Chemscore.Rot.Weighted>
3.6844

> <Gold.Chemscore.Internal.Correction.Weighted>
   9.000000E+99

> <Gold.Protein.RotatedTorsions>
[ 6907 6896 6895 6894 ] final   17.82 input  -60.11 | X-H torsion
[ 7974 7965 7964 7962 ] final -133.26 input  175.53 | X-H torsion
[ 8008 7997 7996 7995 ] final   57.07 input   59.86 | X-H torsion
[ 10167 10162 10161 10158 ] final -156.80 input  -65.29 | X-H torsion
[ 10718 10713 10712 10709 ] final  -29.57 input   66.30 | X-H torsion
[ 10763 10752 10751 10750 ] final   52.55 input  -60.55 | X-H torsion
[ 11005 11000 10999 10996 ] final  137.45 input  -57.11 | X-H torsion

> <Gold.Protein.ActiveResidues>
 VAL166  LYS551  ARG553  GLY616  TRP617  ASP618  TYR619  PRO620  LYS621  CYS622 
 ASP623  PHE694  ASN695  SER759  ASP760  ASP761  ALA762  ILE779  LEU786  VAL792 
 PHE793  MET794  SER795  GLU796  ALA797  LYS798  CYS799  TRP800  GLU811  SER814 

> <Gold.Protein.RotatedAtoms>
  151.8556  135.0542  160.0463 H   0  0  0  0  0  0  0  0  0  0  0  0  # atno 6907 bound_to 6896
  152.2703  133.5371  159.5443 H   0  0  0  0  0  0  0  0  0  0  0  0  # atno 6908 bound_to 6896
  150.7149  134.0624  159.3878 H   0  0  0  0  0  0  0  0  0  0  0  0  # atno 6909 bound_to 6896
  144.9209  140.7013  143.4966 H   0  0  0  0  0  0  0  0  0  0  0  0  # atno 7974 bound_to 7965
  155.5277  140.3481  155.4420 H   0  0  0  0  0  0  0  0  0  0  0  0  # atno 8008 bound_to 7997
  156.0740  140.1370  156.9821 H   0  0  0  0  0  0  0  0  0  0  0  0  # atno 8009 bound_to 7997
  154.4543  140.0960  156.6687 H   0  0  0  0  0  0  0  0  0  0  0  0  # atno 8010 bound_to 7997
  139.6821  143.9563  152.2342 H   0  0  0  0  0  0  0  0  0  0  0  0  # atno 10167 bound_to 10162
  156.4108  130.4407  149.7254 H   0  0  0  0  0  0  0  0  0  0  0  0  # atno 10718 bound_to 10713
  152.9789  135.5808  154.4597 H   0  0  0  0  0  0  0  0  0  0  0  0  # atno 10763 bound_to 10752
  154.4175  135.2771  155.1999 H   0  0  0  0  0  0  0  0  0  0  0  0  # atno 10764 bound_to 10752
  154.3763  135.6157  153.5820 H   0  0  0  0  0  0  0  0  0  0  0  0  # atno 10765 bound_to 10752
  140.0115  134.9437  157.0287 H   0  0  0  0  0  0  0  0  0  0  0  0  # atno 11005 bound_to 11000
  145.3298  139.1763  143.4543 LP  0  0  0  0  0  0  0  0  0  0  0  0  # atno 17320 bound_to 7965
  146.3204  140.3326  142.8641 LP  0  0  0  0  0  0  0  0  0  0  0  0  # atno 17321 bound_to 7965
  139.9356  144.6714  150.8318 LP  0  0  0  0  0  0  0  0  0  0  0  0  # atno 17342 bound_to 10162
  140.7655  143.3279  151.2475 LP  0  0  0  0  0  0  0  0  0  0  0  0  # atno 17343 bound_to 10162
  156.4233  130.7779  151.2797 LP  0  0  0  0  0  0  0  0  0  0  0  0  # atno 17370 bound_to 10713
  157.7507  131.0176  150.3592 LP  0  0  0  0  0  0  0  0  0  0  0  0  # atno 17371 bound_to 10713
  140.4547  134.1546  155.7185 LP  0  0  0  0  0  0  0  0  0  0  0  0  # atno 17394 bound_to 11000
  141.1714  133.8601  157.1559 LP  0  0  0  0  0  0  0  0  0  0  0  0  # atno 17395 bound_to 11000

$$$$
