AV-unprocessed.smi:2180|AV-procd|sdf|8860|dock2
  -GOLD-   2272012 53D 1   1.00000     0.00000
 Structure written by MMmdl.
 39 40  0  0  0  0  0  0  0  0  1 V2000
  153.8800  141.2193  160.9603 C   0  0  0  0  0  0  0  0  0  0  0  0
  153.0507  142.2588  160.2660 C   0  0  0  0  0  0  0  0  0  0  0  0
  152.4908  143.4488  160.8095 C   0  0  0  0  0  0  0  0  0  0  0  0
  151.8432  144.0295  159.7556 C   0  0  0  0  0  0  0  0  0  0  0  0
  151.0663  145.3032  159.6846 C   0  0  0  0  0  0  0  0  0  0  0  0
  152.0298  143.2002  158.6639 N   0  0  0  0  0  0  0  0  0  0  0  0
  151.5619  143.3636  157.2953 C   0  0  0  0  0  0  0  0  0  0  0  0
  150.8024  142.1269  156.8098 C   0  0  0  0  0  0  0  0  0  0  0  0
  151.1031  141.0127  157.2374 O   0  0  0  0  0  0  0  0  0  0  0  0
  149.8249  142.3375  155.9130 N   0  0  0  0  0  0  0  0  0  0  0  0
  148.9751  141.3068  155.3153 C   0  0  1  0  0  0  0  0  0  0  0  0
  148.1980  141.9688  154.1545 C   0  0  0  0  0  0  0  0  0  0  0  0
  146.9094  141.2245  153.7646 C   0  0  0  0  0  0  0  0  0  0  0  0
  147.1235  139.8191  153.1828 C   0  0  0  0  0  0  0  0  0  0  0  0
  147.7840  138.8367  154.1650 C   0  0  0  0  0  0  0  0  0  0  0  0
  149.2202  139.0554  154.2789 N   0  0  0  0  0  0  0  0  0  0  0  0
  149.8343  140.1480  154.7579 C   0  0  0  0  0  0  0  0  0  0  0  0
  151.0630  140.2237  154.7486 O   0  0  0  0  0  0  0  0  0  0  0  0
  152.7695  142.1147  158.9818 N   0  0  0  0  0  0  0  0  0  0  0  0
  153.9312  141.4075  162.0329 H   0  0  0  0  0  0  0  0  0  0  0  0
  154.9002  141.2120  160.5758 H   0  0  0  0  0  0  0  0  0  0  0  0
  153.4623  140.2221  160.8186 H   0  0  0  0  0  0  0  0  0  0  0  0
  152.5578  143.8216  161.8209 H   0  0  0  0  0  0  0  0  0  0  0  0
  151.0255  145.7897  160.6594 H   0  0  0  0  0  0  0  0  0  0  0  0
  150.0424  145.1175  159.3604 H   0  0  0  0  0  0  0  0  0  0  0  0
  151.5243  145.9998  158.9821 H   0  0  0  0  0  0  0  0  0  0  0  0
  150.9123  144.2381  157.2332 H   0  0  0  0  0  0  0  0  0  0  0  0
  152.4178  143.5583  156.6481 H   0  0  0  0  0  0  0  0  0  0  0  0
  149.6582  143.2885  155.6171 H   0  0  0  0  0  0  0  0  0  0  0  0
  148.2805  140.9311  156.0687 H   0  0  0  0  0  0  0  0  0  0  0  0
  147.9040  142.9762  154.4545 H   0  0  0  0  0  0  0  0  0  0  0  0
  148.8377  142.1018  153.2802 H   0  0  0  0  0  0  0  0  0  0  0  0
  146.2510  141.1619  154.6318 H   0  0  0  0  0  0  0  0  0  0  0  0
  146.3728  141.8243  153.0287 H   0  0  0  0  0  0  0  0  0  0  0  0
  146.1493  139.4197  152.8987 H   0  0  0  0  0  0  0  0  0  0  0  0
  147.7030  139.8771  152.2605 H   0  0  0  0  0  0  0  0  0  0  0  0
  147.3105  138.8789  155.1468 H   0  0  0  0  0  0  0  0  0  0  0  0
  147.6439  137.8187  153.8007 H   0  0  0  0  0  0  0  0  0  0  0  0
  149.8116  138.3133  153.9335 H   0  0  0  0  0  0  0  0  0  0  0  0
  1  2  1  0  0  0  0
  1 20  1  0  0  0  0
  1 21  1  0  0  0  0
  1 22  1  0  0  0  0
  2 19  2  0  0  0  0
  2  3  1  0  0  0  0
  3  4  2  0  0  0  0
  3 23  1  0  0  0  0
  4  5  1  0  0  0  0
  4  6  1  0  0  0  0
  5 24  1  0  0  0  0
  5 25  1  0  0  0  0
  5 26  1  0  0  0  0
  6  7  1  0  0  0  0
  6 19  1  0  0  0  0
  7  8  1  0  0  0  0
  7 27  1  0  0  0  0
  7 28  1  0  0  0  0
  8  9  2  0  0  0  0
  8 10  1  0  0  0  0
 10 11  1  0  0  0  0
 10 29  1  0  0  0  0
 11 17  1  0  0  0  0
 11 12  1  0  0  0  0
 11 30  1  0  0  0  0
 12 13  1  0  0  0  0
 12 31  1  0  0  0  0
 12 32  1  0  0  0  0
 13 14  1  0  0  0  0
 13 33  1  0  0  0  0
 13 34  1  0  0  0  0
 14 15  1  0  0  0  0
 14 35  1  0  0  0  0
 14 36  1  0  0  0  0
 15 16  1  0  0  0  0
 15 37  1  0  0  0  0
 15 38  1  0  0  0  0
 16 17  1  0  0  0  0
 16 39  1  0  0  0  0
 17 18  2  0  0  0  0
M  END
> <s_m_source_file>
AV-unprocessed.smi

> <i_m_source_file_index>
2180

> <i_lp_mmshare_version>
43012

> <i_f3d_flags>
0

> <s_epik_input>
W0NIM11jMVtjSF1jKFtDSDNdKW4objEpW0NIMl1DKD1PKVtOSF1bQ0BASF0yW0NIMl1bQ0gyXVtDSDJdW0NIMl1bTkhdQzI9Tw==

> <s_epik_cmdline>
J2VwaWtfcHl0aG9uJywgJy1waCcsICc3LjAnLCAnLXRuJywgJzgnLCAnLW1hJywgJzIwMCcsICctbWV0YWxfYmluZGluZycsICctaW1hZScsICc8aW5maWxlLm1hZT4nLCAnLW9tYWUnLCAnPG91dGZpbGUubWFlPic=

> <r_lp_tautomer_probability>
1

> <r_epik_Ionization_Penalty>
0.000287215

> <r_epik_Ionization_Penalty_Charging>
0

> <r_epik_Ionization_Penalty_Neutral>
0.000287215

> <r_epik_State_Penalty>
-0

> <r_epik_Charging_Adjusted_Penalty>
0

> <i_epik_Tot_Q>
0

> <i_epik_Tot_abs_Q>
0

> <r_epik_Metal_State_Penalty>
-0

> <b_epik_Metal_Only>
0

> <s_lp_Force_Field>
OPLS_2005

> <r_lp_Energy>
9.48422

> <b_lp_Chiralities_Consistent>
1

> <s_lp_Variant>
AV-unprocessed.smi:2180-2

> <Gold.Version>
5.8.1

> <Gold.Id.Protein>
6NUR|6NUR_protein|mol2

> <Gold.PLP.Fitness>
49.1503

> <Gold.PLP.PLP>
-44.1849

> <Gold.PLP.part.hbond>
-2.0328

> <Gold.PLP.part.metal>
0.0000

> <Gold.PLP.part.buried>
-4.7795

> <Gold.PLP.part.nonpolar>
-37.1438

> <Gold.PLP.part.repulsive>
0.2796

> <Gold.PLP.ligand.clash>
0.0000

> <Gold.PLP.ligand.torsion>
0.5188

> <Gold.PLP.Chemscore.Hbond>
2.0000

> <Gold.PLP.Chemscore.CHOScore>
0.0000

> <Gold.PLP.Chemscore.Metal>
0.0000

> <Gold.Chemscore.Hbonds>
donor molecule, donor type, donor heavy atom, donor atom, acceptor molecule, acceptor atom, score
      L1  H    10    29       P1  8028  1.00
      P1  H  7989  7998       L1    18  0.98

> <Gold.PLP.Chemscore.Internal.Correction>
0.0029

> <Gold.Rescore>
     Score         DG    S(hbond)    S(metal)    S(lipo)     H(rot)  DE(clash)    DE(int)     intcor
     13.43     -19.62       1.94        0.00      97.98       1.48       0.16       6.03       ----

> <Gold.Chemscore.Fitness>
13.4256

> <Gold.Chemscore.DG>
-19.6151

> <Gold.Chemscore.ZeroCoef>
-5.4800

> <Gold.Chemscore.Hbond>
1.9374

> <Gold.Chemscore.Metal>
0.0000

> <Gold.Chemscore.Lipo>
97.9766

> <Gold.Chemscore.Internal_Hbond>
0.0000

> <Gold.Chemscore.DEClash>
0.1596

> <Gold.Chemscore.DEInternal>
6.0299

> <Gold.Chemscore.Rot>
1.4840

> <Gold.Chemscore.Internal.Correction>
   9.000000E+99

> <Gold.Chemscore.Hbonds>
donor molecule, donor type, donor heavy atom, donor atom, acceptor molecule, acceptor atom, score
      L1  H    10    29       P1  8028  0.97
      P1  H  7989  7998       L1    18  0.80

> <Gold.Chemscore.Hbond.Weighted>
-6.4709

> <Gold.Chemscore.Metal.Weighted>
-0.0000

> <Gold.Chemscore.Lipo.Weighted>
-11.4633

> <Gold.Chemscore.Internal_Hbond.Weighted>
0.0000

> <Gold.Chemscore.DEClash.Weighted>
0.1596

> <Gold.Chemscore.DEInternal.Weighted>
6.0299

> <Gold.Chemscore.Rot.Weighted>
3.7991

> <Gold.Chemscore.Internal.Correction.Weighted>
   9.000000E+99

> <Gold.Protein.RotatedTorsions>
[ 6907 6896 6895 6894 ] final  -50.17 input  -60.11 | X-H torsion
[ 7974 7965 7964 7962 ] final  -29.77 input  175.53 | X-H torsion
[ 8008 7997 7996 7995 ] final -134.44 input   59.86 | X-H torsion
[ 10167 10162 10161 10158 ] final  160.66 input  -65.29 | X-H torsion
[ 10718 10713 10712 10709 ] final  148.10 input   66.30 | X-H torsion
[ 10763 10752 10751 10750 ] final  172.56 input  -60.55 | X-H torsion
[ 11005 11000 10999 10996 ] final   20.73 input  -57.11 | X-H torsion

> <Gold.Protein.ActiveResidues>
 VAL166  LYS551  ARG553  GLY616  TRP617  ASP618  TYR619  PRO620  LYS621  CYS622 
 ASP623  PHE694  ASN695  SER759  ASP760  ASP761  ALA762  ILE779  LEU786  VAL792 
 PHE793  MET794  SER795  GLU796  ALA797  LYS798  CYS799  TRP800  GLU811  SER814 

> <Gold.Protein.RotatedAtoms>
  150.8734  134.8112  159.7171 H   0  0  0  0  0  0  0  0  0  0  0  0  # atno 6907 bound_to 6896
  152.4730  134.4911  159.9705 H   0  0  0  0  0  0  0  0  0  0  0  0  # atno 6908 bound_to 6896
  151.4996  133.3468  159.2902 H   0  0  0  0  0  0  0  0  0  0  0  0  # atno 6909 bound_to 6896
  146.1192  140.5455  142.8743 H   0  0  0  0  0  0  0  0  0  0  0  0  # atno 7974 bound_to 7965
  155.3621  140.0483  157.3046 H   0  0  0  0  0  0  0  0  0  0  0  0  # atno 8008 bound_to 7997
  154.5173  140.2212  155.9006 H   0  0  0  0  0  0  0  0  0  0  0  0  # atno 8009 bound_to 7997
  156.1650  140.3108  155.8879 H   0  0  0  0  0  0  0  0  0  0  0  0  # atno 8010 bound_to 7997
  139.4842  144.4612  151.8702 H   0  0  0  0  0  0  0  0  0  0  0  0  # atno 10167 bound_to 10162
  157.3128  131.0891  151.1302 H   0  0  0  0  0  0  0  0  0  0  0  0  # atno 10718 bound_to 10713
  154.4278  135.2759  155.1932 H   0  0  0  0  0  0  0  0  0  0  0  0  # atno 10763 bound_to 10752
  154.3851  135.6079  153.5816 H   0  0  0  0  0  0  0  0  0  0  0  0  # atno 10764 bound_to 10752
  152.9835  135.5890  154.4585 H   0  0  0  0  0  0  0  0  0  0  0  0  # atno 10765 bound_to 10752
  140.3994  134.1734  155.7663 H   0  0  0  0  0  0  0  0  0  0  0  0  # atno 11005 bound_to 11000
  144.7581  140.5356  143.6755 LP  0  0  0  0  0  0  0  0  0  0  0  0  # atno 17320 bound_to 7965
  145.5502  139.1476  143.3398 LP  0  0  0  0  0  0  0  0  0  0  0  0  # atno 17321 bound_to 7965
  140.4075  144.2413  150.5890 LP  0  0  0  0  0  0  0  0  0  0  0  0  # atno 17342 bound_to 10162
  140.4998  143.2321  151.8695 LP  0  0  0  0  0  0  0  0  0  0  0  0  # atno 17343 bound_to 10162
  157.2617  130.6662  149.5978 LP  0  0  0  0  0  0  0  0  0  0  0  0  # atno 17370 bound_to 10713
  155.9679  130.4506  150.5705 LP  0  0  0  0  0  0  0  0  0  0  0  0  # atno 17371 bound_to 10713
  141.1862  133.8307  157.1076 LP  0  0  0  0  0  0  0  0  0  0  0  0  # atno 17394 bound_to 11000
  140.0347  134.9884  157.0849 LP  0  0  0  0  0  0  0  0  0  0  0  0  # atno 17395 bound_to 11000

$$$$
