AV-unprocessed.smi:34|AV-procd|sdf|235|dock3
  -GOLD-   2262015573D 1   1.00000     0.00000
 Structure written by MMmdl.
 54 58  0  0  0  0  0  0  0  0  2 V2000
  149.8441  129.6557  155.2739 O   0  0  0  0  0  0  0  0  0  0  0  0
  149.2415  130.4216  154.5185 C   0  0  0  0  0  0  0  0  0  0  0  0
  149.2796  131.7783  154.5024 N   0  5  0  0  0  0  0  0  0  0  0  0
  150.0240  132.4335  155.4063 C   0  0  0  0  0  0  0  0  0  0  0  0
  150.6141  131.7611  156.4278 N   0  0  0  0  0  0  0  0  0  0  0  0
  151.3622  132.4139  157.3250 C   0  0  0  0  0  0  0  0  0  0  0  0
  151.6469  133.7182  157.3925 N   0  0  0  0  0  0  0  0  0  0  0  0
  151.0477  134.4067  156.3775 C   0  0  0  0  0  0  0  0  0  0  0  0
  150.2250  133.8403  155.3607 C   0  0  0  0  0  0  0  0  0  0  0  0
  149.7713  134.8224  154.4918 N   0  0  0  0  0  0  0  0  0  0  0  0
  150.3298  135.9160  155.0069 C   0  0  0  0  0  0  0  0  0  0  0  0
  151.1016  135.7615  156.1021 N   0  0  0  0  0  0  0  0  0  0  0  0
  151.8439  136.8049  156.8679 C   0  0  2  0  0  0  0  0  0  0  0  0
  150.8939  137.6435  157.4530 O   0  0  0  0  0  0  0  0  0  0  0  0
  151.3147  138.9988  157.3593 C   0  0  1  0  0  0  0  0  0  0  0  0
  152.2063  139.3408  158.5646 C   0  0  0  0  0  0  0  0  0  0  0  0
  152.3046  140.7495  158.6943 O   0  0  0  0  0  0  0  0  0  0  0  0
  152.7651  141.2892  159.8408 C   0  0  0  0  0  0  0  0  0  0  0  0
  153.2343  140.6244  160.7670 O   0  0  0  0  0  0  0  0  0  0  0  0
  152.6417  142.7750  159.8752 C   0  0  0  0  0  0  0  0  0  0  0  0
  152.3941  143.4209  161.1090 C   0  0  0  0  0  0  0  0  0  0  0  0
  152.2693  144.8224  161.1726 C   0  0  0  0  0  0  0  0  0  0  0  0
  152.3924  145.5953  160.0034 C   0  0  0  0  0  0  0  0  0  0  0  0
  152.6405  144.9650  158.7701 C   0  0  0  0  0  0  0  0  0  0  0  0
  152.7643  143.5633  158.7042 C   0  0  0  0  0  0  0  0  0  0  0  0
  152.0694  139.0370  156.0299 C   0  0  2  0  0  0  0  0  0  0  0  0
  151.1980  139.2063  155.0344 F   0  0  0  0  0  0  0  0  0  0  0  0
  152.7053  137.6573  155.9196 C   0  0  1  0  0  0  0  0  0  0  0  0
  154.0574  137.7036  156.3294 O   0  0  0  0  0  0  0  0  0  0  0  0
  148.2824  129.8412  153.5145 C   0  0  0  0  0  0  0  0  0  0  0  0
  147.2421  130.6448  152.9948 C   0  0  0  0  0  0  0  0  0  0  0  0
  146.3176  130.1132  152.0747 C   0  0  0  0  0  0  0  0  0  0  0  0
  146.4175  128.7682  151.6723 C   0  0  0  0  0  0  0  0  0  0  0  0
  147.4410  127.9546  152.1932 C   0  0  0  0  0  0  0  0  0  0  0  0
  148.3670  128.4859  153.1122 C   0  0  0  0  0  0  0  0  0  0  0  0
  151.7968  131.8014  158.1010 H   0  0  0  0  0  0  0  0  0  0  0  0
  150.1728  136.8862  154.5594 H   0  0  0  0  0  0  0  0  0  0  0  0
  152.4156  136.2683  157.6263 H   0  0  0  0  0  0  0  0  0  0  0  0
  150.4536  139.6683  157.3384 H   0  0  0  0  0  0  0  0  0  0  0  0
  151.8060  138.8980  159.4777 H   0  0  0  0  0  0  0  0  0  0  0  0
  153.2076  138.9347  158.4159 H   0  0  0  0  0  0  0  0  0  0  0  0
  152.2950  142.8484  162.0200 H   0  0  0  0  0  0  0  0  0  0  0  0
  152.0788  145.3043  162.1204 H   0  0  0  0  0  0  0  0  0  0  0  0
  152.2968  146.6700  160.0525 H   0  0  0  0  0  0  0  0  0  0  0  0
  152.7363  145.5572  157.8720 H   0  0  0  0  0  0  0  0  0  0  0  0
  152.9547  143.1112  157.7419 H   0  0  0  0  0  0  0  0  0  0  0  0
  152.7829  139.8591  155.9587 H   0  0  0  0  0  0  0  0  0  0  0  0
  152.6707  137.2767  154.8975 H   0  0  0  0  0  0  0  0  0  0  0  0
  154.2150  136.9929  156.9317 H   0  0  0  0  0  0  0  0  0  0  0  0
  147.1504  131.6784  153.2961 H   0  0  0  0  0  0  0  0  0  0  0  0
  145.5306  130.7380  151.6796 H   0  0  0  0  0  0  0  0  0  0  0  0
  145.7074  128.3601  150.9686 H   0  0  0  0  0  0  0  0  0  0  0  0
  147.5147  126.9205  151.8908 H   0  0  0  0  0  0  0  0  0  0  0  0
  149.1387  127.8418  153.5088 H   0  0  0  0  0  0  0  0  0  0  0  0
  1  2  2  0  0  0  0
  2  3  1  0  0  0  0
  2 30  1  0  0  0  0
  3  4  1  0  0  0  0
  4  9  1  0  0  0  0
  4  5  2  0  0  0  0
  5  6  1  0  0  0  0
  6  7  2  0  0  0  0
  6 36  1  0  0  0  0
  7  8  1  0  0  0  0
  8 12  1  0  0  0  0
  8  9  2  0  0  0  0
  9 10  1  0  0  0  0
 10 11  2  0  0  0  0
 11 12  1  0  0  0  0
 11 37  1  0  0  0  0
 12 13  1  0  0  0  0
 13 28  1  0  0  0  0
 13 14  1  0  0  0  0
 13 38  1  0  0  0  0
 14 15  1  0  0  0  0
 15 16  1  0  0  0  0
 15 26  1  0  0  0  0
 15 39  1  0  0  0  0
 16 17  1  0  0  0  0
 16 40  1  0  0  0  0
 16 41  1  0  0  0  0
 17 18  1  0  0  0  0
 18 19  2  0  0  0  0
 18 20  1  0  0  0  0
 20 25  1  0  0  0  0
 20 21  2  0  0  0  0
 21 22  1  0  0  0  0
 21 42  1  0  0  0  0
 22 23  2  0  0  0  0
 22 43  1  0  0  0  0
 23 24  1  0  0  0  0
 23 44  1  0  0  0  0
 24 25  2  0  0  0  0
 24 45  1  0  0  0  0
 25 46  1  0  0  0  0
 26 27  1  0  0  0  0
 26 28  1  0  0  0  0
 26 47  1  0  0  0  0
 28 29  1  0  0  0  0
 28 48  1  0  0  0  0
 29 49  1  0  0  0  0
 30 35  1  0  0  0  0
 30 31  2  0  0  0  0
 31 32  1  0  0  0  0
 31 50  1  0  0  0  0
 32 33  2  0  0  0  0
 32 51  1  0  0  0  0
 33 34  1  0  0  0  0
 33 52  1  0  0  0  0
 34 35  2  0  0  0  0
 34 53  1  0  0  0  0
 35 54  1  0  0  0  0
M  CHG  1   3  -1
M  END
> <s_m_source_file>
AV-unprocessed.smi

> <i_m_source_file_index>
34

> <i_lp_mmshare_version>
43012

> <i_f3d_flags>
0

> <s_epik_input>
W2NIXTFbY0hdW2NIXVtjSF1bY0hdYzFDKD1PKVtOSF1jKG5bY0hdbjIpYyhjMjMpbltjSF1uM1tDQEBIXTRPW0NASF0oW0NAQEhdKEYpW0NASF00W09IXSlbQ0gyXU9DKD1PKWM1W2NIXVtjSF1bY0hdW2NIXVtjSF01

> <s_epik_cmdline>
J2VwaWtfcHl0aG9uJywgJy1waCcsICc3LjAnLCAnLXRuJywgJzgnLCAnLW1hJywgJzIwMCcsICctbWV0YWxfYmluZGluZycsICctaW1hZScsICc8aW5maWxlLm1hZT4nLCAnLW9tYWUnLCAnPG91dGZpbGUubWFlPic=

> <r_lp_tautomer_probability>
1

> <r_epik_Ionization_Penalty>
4.33227

> <r_epik_Ionization_Penalty_Charging>
3.41027

> <r_epik_Ionization_Penalty_Neutral>
0.922001

> <r_epik_State_Penalty>
3.41358

> <r_epik_Charging_Adjusted_Penalty>
6.82385

> <i_epik_Tot_Q>
-1

> <i_epik_Tot_abs_Q>
1

> <r_epik_Metal_State_Penalty>
0.496292

> <b_epik_Metal_Only>
1

> <s_epik_Chemistry_Notes>
This compound has an ester and may undergo hydrolysis at high or low pH. This compound contains an acetal/aminal-like group ( X-CH(R)-Y where X, Y are N, S, or O) that may be acid/base labile, releasing an aldehyde.

> <s_lp_Force_Field>
OPLS_2005

> <r_lp_Energy>
42.8672

> <b_lp_Chiralities_Consistent>
1

> <s_lp_Variant>
AV-unprocessed.smi:34-21

> <Gold.Version>
5.8.1

> <Gold.Id.Protein>
6NUR|6NUR_protein|mol2

> <Gold.PLP.Fitness>
66.1730

> <Gold.PLP.PLP>
-66.0626

> <Gold.PLP.part.hbond>
-2.1865

> <Gold.PLP.part.metal>
0.0000

> <Gold.PLP.part.buried>
-7.6790

> <Gold.PLP.part.nonpolar>
-57.9340

> <Gold.PLP.part.repulsive>
1.9529

> <Gold.PLP.ligand.clash>
0.0000

> <Gold.PLP.ligand.torsion>
1.0633

> <Gold.PLP.Chemscore.Hbond>
0.5824

> <Gold.PLP.Chemscore.CHOScore>
0.0547

> <Gold.PLP.Chemscore.Metal>
0.0000

> <Gold.Chemscore.Hbonds>
donor molecule, donor type, donor heavy atom, donor atom, acceptor molecule, acceptor atom, score
      P1  H  6896  6908       L1     7  0.05
      P1  H  7997  8010       L1    29  0.01

> <Gold.PLP.Chemscore.Internal.Correction>
0.3258

> <Gold.Rescore>
     Score         DG    S(hbond)    S(metal)    S(lipo)     H(rot)  DE(clash)    DE(int)     intcor
     13.26     -17.50       0.60        0.00     144.45       2.69       1.45       2.79       ----

> <Gold.Chemscore.Fitness>
13.2576

> <Gold.Chemscore.DG>
-17.5014

> <Gold.Chemscore.ZeroCoef>
-5.4800

> <Gold.Chemscore.Hbond>
0.6043

> <Gold.Chemscore.Metal>
0.0000

> <Gold.Chemscore.Lipo>
144.4485

> <Gold.Chemscore.Internal_Hbond>
0.0000

> <Gold.Chemscore.DEClash>
1.4520

> <Gold.Chemscore.DEInternal>
2.7918

> <Gold.Chemscore.Rot>
2.6944

> <Gold.Chemscore.Internal.Correction>
   9.000000E+99

> <Gold.Chemscore.Hbonds>
donor molecule, donor type, donor heavy atom, donor atom, acceptor molecule, acceptor atom, score
      P1  H  7997  8010       L1    29  0.01

> <Gold.Chemscore.Hbond.Weighted>
-2.0185

> <Gold.Chemscore.Metal.Weighted>
-0.0000

> <Gold.Chemscore.Lipo.Weighted>
-16.9005

> <Gold.Chemscore.Internal_Hbond.Weighted>
0.0000

> <Gold.Chemscore.DEClash.Weighted>
1.4520

> <Gold.Chemscore.DEInternal.Weighted>
2.7918

> <Gold.Chemscore.Rot.Weighted>
6.8975

> <Gold.Chemscore.Internal.Correction.Weighted>
   9.000000E+99

> <Gold.Protein.RotatedTorsions>
[ 6907 6896 6895 6894 ] final   54.42 input  -60.11 | X-H torsion
[ 7974 7965 7964 7962 ] final -125.19 input  175.53 | X-H torsion
[ 8008 7997 7996 7995 ] final   87.00 input   59.86 | X-H torsion
[ 10167 10162 10161 10158 ] final  -27.20 input  -65.29 | X-H torsion
[ 10718 10713 10712 10709 ] final  134.83 input   66.30 | X-H torsion
[ 10763 10752 10751 10750 ] final -170.17 input  -60.55 | X-H torsion
[ 11005 11000 10999 10996 ] final  -88.08 input  -57.11 | X-H torsion

> <Gold.Protein.ActiveResidues>
 VAL166  LYS551  ARG553  GLY616  TRP617  ASP618  TYR619  PRO620  LYS621  CYS622 
 ASP623  PHE694  ASN695  SER759  ASP760  ASP761  ALA762  ILE779  LEU786  VAL792 
 PHE793  MET794  SER795  GLU796  ALA797  LYS798  CYS799  TRP800  GLU811  SER814 

> <Gold.Protein.RotatedAtoms>
  152.3437  134.7100  160.0256 H   0  0  0  0  0  0  0  0  0  0  0  0  # atno 6907 bound_to 6896
  151.7477  133.3320  159.3391 H   0  0  0  0  0  0  0  0  0  0  0  0  # atno 6908 bound_to 6896
  150.7495  134.6153  159.6152 H   0  0  0  0  0  0  0  0  0  0  0  0  # atno 6909 bound_to 6896
  145.0002  140.7813  143.4501 H   0  0  0  0  0  0  0  0  0  0  0  0  # atno 7974 bound_to 7965
  155.9699  140.3386  155.6566 H   0  0  0  0  0  0  0  0  0  0  0  0  # atno 8008 bound_to 7997
  155.6688  140.0724  157.2545 H   0  0  0  0  0  0  0  0  0  0  0  0  # atno 8009 bound_to 7997
  154.4164  140.1695  156.1844 H   0  0  0  0  0  0  0  0  0  0  0  0  # atno 8010 bound_to 7997
  140.7278  143.4113  151.1100 H   0  0  0  0  0  0  0  0  0  0  0  0  # atno 10167 bound_to 10162
  157.4633  131.1075  150.9894 H   0  0  0  0  0  0  0  0  0  0  0  0  # atno 10718 bound_to 10713
  154.6444  135.2903  155.0064 H   0  0  0  0  0  0  0  0  0  0  0  0  # atno 10763 bound_to 10752
  154.1180  135.6552  153.4901 H   0  0  0  0  0  0  0  0  0  0  0  0  # atno 10764 bound_to 10752
  153.0343  135.5281  154.7324 H   0  0  0  0  0  0  0  0  0  0  0  0  # atno 10765 bound_to 10752
  141.1607  133.7549  156.9399 H   0  0  0  0  0  0  0  0  0  0  0  0  # atno 11005 bound_to 11000
  145.2164  139.2180  143.5116 LP  0  0  0  0  0  0  0  0  0  0  0  0  # atno 17320 bound_to 7965
  146.3450  140.2013  142.8589 LP  0  0  0  0  0  0  0  0  0  0  0  0  # atno 17321 bound_to 7965
  139.7747  143.8442  152.3127 LP  0  0  0  0  0  0  0  0  0  0  0  0  # atno 17342 bound_to 10162
  139.8373  144.7226  150.9375 LP  0  0  0  0  0  0  0  0  0  0  0  0  # atno 17343 bound_to 10162
  157.0684  130.5854  149.5398 LP  0  0  0  0  0  0  0  0  0  0  0  0  # atno 17370 bound_to 10713
  156.0038  130.5122  150.7759 LP  0  0  0  0  0  0  0  0  0  0  0  0  # atno 17371 bound_to 10713
  140.1328  134.9344  157.2361 LP  0  0  0  0  0  0  0  0  0  0  0  0  # atno 17394 bound_to 11000
  140.2931  134.3217  155.7309 LP  0  0  0  0  0  0  0  0  0  0  0  0  # atno 17395 bound_to 11000

$$$$
