AV-unprocessed.smi:2229|AV-procd|sdf|9034|dock9
  -GOLD-   2272012243D 1   1.00000     0.00000
 Structure written by MMmdl.
 43 44  0  0  0  0  0  0  0  0  2 V2000
  153.4025  141.6365  160.2821 C   0  0  0  0  0  0  0  0  0  0  0  0
  152.7756  142.5693  159.2318 C   0  0  0  0  0  0  0  0  0  0  0  0
  152.4079  143.9182  159.8691 C   0  0  0  0  0  0  0  0  0  0  0  0
  151.5485  141.9416  158.5391 C   0  0  0  0  0  0  0  0  0  0  0  0
  151.8982  140.8630  157.4974 C   0  0  0  0  0  0  0  0  0  0  0  0
  150.6857  140.3976  156.6692 C   0  0  1  0  0  0  0  0  0  0  0  0
  150.0861  141.4931  155.7759 C   0  0  0  0  0  0  0  0  0  0  0  0
  149.4192  140.7341  154.6345 C   0  0  0  0  0  0  0  0  0  0  0  0
  150.3775  139.5784  154.3571 C   0  0  0  0  0  0  0  0  0  0  0  0
  151.0097  139.2219  155.7143 C   0  0  2  0  0  0  0  0  0  0  0  0
  150.4463  137.9705  156.2105 N   0  0  0  0  0  0  0  0  0  0  0  0
  150.9652  136.7449  156.0277 C   0  0  0  0  0  0  0  0  0  0  0  0
  151.9863  136.5435  155.3715 O   0  0  0  0  0  0  0  0  0  0  0  0
  150.2445  135.5483  156.6720 C   0  0  0  0  0  0  0  0  0  0  0  0
  150.1468  134.3548  155.8235 N   0  0  0  0  0  0  0  0  0  0  0  0
  149.6645  134.3893  154.5390 C   0  0  0  0  0  0  0  0  0  0  0  0
  149.6690  133.2145  154.0194 N   0  0  0  0  0  0  0  0  0  0  0  0
  150.1904  132.3314  155.0184 N   0  5  0  0  0  0  0  0  0  0  0  0
  150.4681  133.0899  156.1015 C   0  0  0  0  0  0  0  0  0  0  0  0
  150.9282  132.7349  157.1857 O   0  0  0  0  0  0  0  0  0  0  0  0
  152.6787  141.3604  161.0495 H   0  0  0  0  0  0  0  0  0  0  0  0
  154.2445  142.1182  160.7799 H   0  0  0  0  0  0  0  0  0  0  0  0
  153.7814  140.7186  159.8337 H   0  0  0  0  0  0  0  0  0  0  0  0
  153.5293  142.7683  158.4689 H   0  0  0  0  0  0  0  0  0  0  0  0
  151.6541  143.7959  160.6475 H   0  0  0  0  0  0  0  0  0  0  0  0
  152.0102  144.6106  159.1267 H   0  0  0  0  0  0  0  0  0  0  0  0
  153.2800  144.3908  160.3221 H   0  0  0  0  0  0  0  0  0  0  0  0
  150.8773  141.5224  159.2900 H   0  0  0  0  0  0  0  0  0  0  0  0
  150.9868  142.7335  158.0428 H   0  0  0  0  0  0  0  0  0  0  0  0
  152.6800  141.2301  156.8314 H   0  0  0  0  0  0  0  0  0  0  0  0
  152.3164  139.9962  158.0073 H   0  0  0  0  0  0  0  0  0  0  0  0
  149.9009  140.0793  157.3588 H   0  0  0  0  0  0  0  0  0  0  0  0
  149.3854  142.1335  156.3122 H   0  0  0  0  0  0  0  0  0  0  0  0
  150.8762  142.1290  155.3741 H   0  0  0  0  0  0  0  0  0  0  0  0
  148.4553  140.3436  154.9640 H   0  0  0  0  0  0  0  0  0  0  0  0
  149.2471  141.3579  153.7571 H   0  0  0  0  0  0  0  0  0  0  0  0
  149.8785  138.7367  153.8746 H   0  0  0  0  0  0  0  0  0  0  0  0
  151.1592  139.9185  153.6766 H   0  0  0  0  0  0  0  0  0  0  0  0
  152.0869  139.1120  155.5751 H   0  0  0  0  0  0  0  0  0  0  0  0
  149.6072  138.0416  156.7687 H   0  0  0  0  0  0  0  0  0  0  0  0
  150.7505  135.3045  157.6078 H   0  0  0  0  0  0  0  0  0  0  0  0
  149.2376  135.8643  156.9487 H   0  0  0  0  0  0  0  0  0  0  0  0
  149.3394  135.3332  154.0983 H   0  0  0  0  0  0  0  0  0  0  0  0
  1  2  1  0  0  0  0
  1 21  1  0  0  0  0
  1 22  1  0  0  0  0
  1 23  1  0  0  0  0
  2  3  1  0  0  0  0
  2  4  1  0  0  0  0
  2 24  1  0  0  0  0
  3 25  1  0  0  0  0
  3 26  1  0  0  0  0
  3 27  1  0  0  0  0
  4  5  1  0  0  0  0
  4 28  1  0  0  0  0
  4 29  1  0  0  0  0
  5  6  1  0  0  0  0
  5 30  1  0  0  0  0
  5 31  1  0  0  0  0
  6 10  1  0  0  0  0
  6  7  1  0  0  0  0
  6 32  1  0  0  0  0
  7  8  1  0  0  0  0
  7 33  1  0  0  0  0
  7 34  1  0  0  0  0
  8  9  1  0  0  0  0
  8 35  1  0  0  0  0
  8 36  1  0  0  0  0
  9 10  1  0  0  0  0
  9 37  1  0  0  0  0
  9 38  1  0  0  0  0
 10 11  1  0  0  0  0
 10 39  1  0  0  0  0
 11 12  1  0  0  0  0
 11 40  1  0  0  0  0
 12 13  2  0  0  0  0
 12 14  1  0  0  0  0
 14 15  1  0  0  0  0
 14 41  1  0  0  0  0
 14 42  1  0  0  0  0
 15 19  1  0  0  0  0
 15 16  1  0  0  0  0
 16 17  2  0  0  0  0
 16 43  1  0  0  0  0
 17 18  1  0  0  0  0
 18 19  1  0  0  0  0
 19 20  2  0  0  0  0
M  CHG  1  18  -1
M  END
> <s_m_source_file>
AV-unprocessed.smi

> <i_m_source_file_index>
2229

> <i_lp_mmshare_version>
43012

> <i_f3d_flags>
0

> <s_epik_input>
W0NIM11bQ0hdKFtDSDNdKVtDSDJdW0NIMl1bQ0BASF0xW0NIMl1bQ0gyXVtDSDJdW0NASF0xW05IXUMoPU8pW0NIMl1uMltjSF1uW25IXWMyPU8=

> <s_epik_cmdline>
J2VwaWtfcHl0aG9uJywgJy1waCcsICc3LjAnLCAnLXRuJywgJzgnLCAnLW1hJywgJzIwMCcsICctbWV0YWxfYmluZGluZycsICctaW1hZScsICc8aW5maWxlLm1hZT4nLCAnLW9tYWUnLCAnPG91dGZpbGUubWFlPic=

> <r_lp_tautomer_probability>
1

> <r_epik_Ionization_Penalty>
13.6733

> <r_epik_Ionization_Penalty_Charging>
13.6725

> <r_epik_Ionization_Penalty_Neutral>
0.000837689

> <r_epik_State_Penalty>
5.67062

> <r_epik_Charging_Adjusted_Penalty>
19.3431

> <i_epik_Tot_Q>
-1

> <i_epik_Tot_abs_Q>
1

> <r_epik_Metal_State_Penalty>
1.61781

> <b_epik_Metal_Only>
1

> <s_lp_Force_Field>
OPLS_2005

> <r_lp_Energy>
24.9867

> <b_lp_Chiralities_Consistent>
1

> <s_lp_Variant>
AV-unprocessed.smi:2229-8

> <Gold.Version>
5.8.1

> <Gold.Id.Protein>
6NUR|6NUR_protein|mol2

> <Gold.PLP.Fitness>
44.2205

> <Gold.PLP.PLP>
-36.9347

> <Gold.PLP.part.hbond>
-1.9819

> <Gold.PLP.part.metal>
0.0000

> <Gold.PLP.part.buried>
-4.2064

> <Gold.PLP.part.nonpolar>
-31.7180

> <Gold.PLP.part.repulsive>
0.2006

> <Gold.PLP.ligand.clash>
0.0000

> <Gold.PLP.ligand.torsion>
0.8707

> <Gold.PLP.Chemscore.Hbond>
2.0000

> <Gold.PLP.Chemscore.CHOScore>
1.0000

> <Gold.PLP.Chemscore.Metal>
0.0000

> <Gold.Chemscore.Hbonds>
donor molecule, donor type, donor heavy atom, donor atom, acceptor molecule, acceptor atom, score
      P1  H  6896  6909       L1    20  0.64
      P1  H 10752 10765       L1    13  1.00
      L1  C    16    43       P1  7948  1.00

> <Gold.PLP.Chemscore.Internal.Correction>
0.0271

> <Gold.Rescore>
     Score         DG    S(hbond)    S(metal)    S(lipo)     H(rot)  DE(clash)    DE(int)     intcor
     14.76     -15.60       1.93        0.00      88.04       2.59       0.11       0.73       ----

> <Gold.Chemscore.Fitness>
14.7614

> <Gold.Chemscore.DG>
-15.6021

> <Gold.Chemscore.ZeroCoef>
-5.4800

> <Gold.Chemscore.Hbond>
1.9347

> <Gold.Chemscore.Metal>
0.0000

> <Gold.Chemscore.Lipo>
88.0411

> <Gold.Chemscore.Internal_Hbond>
0.0000

> <Gold.Chemscore.DEClash>
0.1148

> <Gold.Chemscore.DEInternal>
0.7259

> <Gold.Chemscore.Rot>
2.5939

> <Gold.Chemscore.Internal.Correction>
   9.000000E+99

> <Gold.Chemscore.Hbonds>
donor molecule, donor type, donor heavy atom, donor atom, acceptor molecule, acceptor atom, score
      P1  H  6896  6909       L1    20  0.61
      P1  H 10752 10765       L1    13  0.93

> <Gold.Chemscore.Hbond.Weighted>
-6.4618

> <Gold.Chemscore.Metal.Weighted>
-0.0000

> <Gold.Chemscore.Lipo.Weighted>
-10.3008

> <Gold.Chemscore.Internal_Hbond.Weighted>
0.0000

> <Gold.Chemscore.DEClash.Weighted>
0.1148

> <Gold.Chemscore.DEInternal.Weighted>
0.7259

> <Gold.Chemscore.Rot.Weighted>
6.6405

> <Gold.Chemscore.Internal.Correction.Weighted>
   9.000000E+99

> <Gold.Protein.RotatedTorsions>
[ 6907 6896 6895 6894 ] final  -45.68 input  -60.11 | X-H torsion
[ 7974 7965 7964 7962 ] final   12.86 input  175.53 | X-H torsion
[ 8008 7997 7996 7995 ] final   54.20 input   59.86 | X-H torsion
[ 10167 10162 10161 10158 ] final -130.78 input  -65.29 | X-H torsion
[ 10718 10713 10712 10709 ] final -135.10 input   66.30 | X-H torsion
[ 10763 10752 10751 10750 ] final  177.35 input  -60.55 | X-H torsion
[ 11005 11000 10999 10996 ] final  -16.84 input  -57.11 | X-H torsion

> <Gold.Protein.ActiveResidues>
 VAL166  LYS551  ARG553  GLY616  TRP617  ASP618  TYR619  PRO620  LYS621  CYS622 
 ASP623  PHE694  ASN695  SER759  ASP760  ASP761  ALA762  ILE779  LEU786  VAL792 
 PHE793  MET794  SER795  GLU796  ALA797  LYS798  CYS799  TRP800  GLU811  SER814 

> <Gold.Protein.RotatedAtoms>
  150.9194  134.8611  159.7478 H   0  0  0  0  0  0  0  0  0  0  0  0  # atno 6907 bound_to 6896
  152.4985  134.4241  159.9500 H   0  0  0  0  0  0  0  0  0  0  0  0  # atno 6908 bound_to 6896
  151.4277  133.3640  159.2799 H   0  0  0  0  0  0  0  0  0  0  0  0  # atno 6909 bound_to 6896
  146.2342  139.9273  142.8501 H   0  0  0  0  0  0  0  0  0  0  0  0  # atno 7974 bound_to 7965
  155.4808  140.3468  155.4339 H   0  0  0  0  0  0  0  0  0  0  0  0  # atno 8008 bound_to 7997
  156.1040  140.1443  156.9457 H   0  0  0  0  0  0  0  0  0  0  0  0  # atno 8009 bound_to 7997
  154.4712  140.0900  156.7128 H   0  0  0  0  0  0  0  0  0  0  0  0  # atno 8010 bound_to 7997
  139.9258  143.6329  152.2542 H   0  0  0  0  0  0  0  0  0  0  0  0  # atno 10167 bound_to 10162
  156.2626  130.7218  151.1158 H   0  0  0  0  0  0  0  0  0  0  0  0  # atno 10718 bound_to 10713
  154.4933  135.2780  155.1479 H   0  0  0  0  0  0  0  0  0  0  0  0  # atno 10763 bound_to 10752
  154.3142  135.6223  153.5482 H   0  0  0  0  0  0  0  0  0  0  0  0  # atno 10764 bound_to 10752
  152.9891  135.5727  154.5359 H   0  0  0  0  0  0  0  0  0  0  0  0  # atno 10765 bound_to 10752
  140.8108  133.8142  155.9561 H   0  0  0  0  0  0  0  0  0  0  0  0  # atno 11005 bound_to 11000
  145.2078  140.9882  143.4118 LP  0  0  0  0  0  0  0  0  0  0  0  0  # atno 17320 bound_to 7965
  144.9717  139.3873  143.6305 LP  0  0  0  0  0  0  0  0  0  0  0  0  # atno 17321 bound_to 7965
  139.6823  144.7654  151.1586 LP  0  0  0  0  0  0  0  0  0  0  0  0  # atno 17342 bound_to 10162
  140.7650  143.5707  150.8999 LP  0  0  0  0  0  0  0  0  0  0  0  0  # atno 17343 bound_to 10162
  157.7256  131.0652  150.5947 LP  0  0  0  0  0  0  0  0  0  0  0  0  # atno 17370 bound_to 10713
  156.6036  130.4361  149.5887 LP  0  0  0  0  0  0  0  0  0  0  0  0  # atno 17371 bound_to 10713
  140.9200  134.2154  157.4932 LP  0  0  0  0  0  0  0  0  0  0  0  0  # atno 17394 bound_to 11000
  139.8714  134.9788  156.5011 LP  0  0  0  0  0  0  0  0  0  0  0  0  # atno 17395 bound_to 11000

$$$$
