AV-unprocessed.smi:1260|AV-procd|sdf|5299|dock1
  -GOLD-   22720 4413D 1   1.00000     0.00000
 Structure written by MMmdl.
 37 39  0  0  0  0  0  0  0  0  2 V2000
  147.3311  130.1347  153.9651 O   0  0  0  0  0  0  0  0  0  0  0  0
  146.8562  130.0342  152.8336 C   0  0  0  0  0  0  0  0  0  0  0  0
  146.3749  128.6790  152.3069 C   0  0  0  0  0  0  0  0  0  0  0  0
  146.5789  127.6184  153.2773 N   0  0  0  0  0  0  0  0  0  0  0  0
  146.0565  127.4269  154.4905 C   0  0  0  0  0  0  0  0  0  0  0  0
  146.5158  126.3186  155.0512 N   0  0  0  0  0  0  0  0  0  0  0  0
  147.3783  125.8148  154.0919 N   0  0  0  0  0  0  0  0  0  0  0  0
  147.4190  126.5813  153.0366 N   0  0  0  0  0  0  0  0  0  0  0  0
  146.7384  131.0752  151.9952 N   0  0  0  0  0  0  0  0  0  0  0  0
  147.1341  132.4457  152.3098 C   0  0  2  0  0  0  0  0  0  0  0  0
  146.7835  132.8660  153.7315 C   0  0  0  0  0  0  0  0  0  0  0  0
  146.8353  134.3960  153.6652 C   0  0  0  0  0  0  0  0  0  0  0  0
  146.5560  134.7761  152.2583 N   0  3  2  0  0  0  0  0  0  0  0  0
  145.4263  135.7313  152.1026 C   0  0  0  0  0  0  0  0  0  0  0  0
  144.9358  135.7695  150.6478 C   0  0  0  0  0  0  0  0  0  0  0  0
  144.4006  134.3968  150.1979 C   0  0  0  0  0  0  0  0  0  0  0  0
  145.0010  133.2340  151.0117 C   0  0  0  0  0  0  0  0  0  0  0  0
  146.4575  133.5291  151.4473 C   0  0  2  0  0  0  0  0  0  0  0  0
  145.3126  128.7195  152.0611 H   0  0  0  0  0  0  0  0  0  0  0  0
  146.9108  128.4375  151.3878 H   0  0  0  0  0  0  0  0  0  0  0  0
  145.3474  128.0938  154.9585 H   0  0  0  0  0  0  0  0  0  0  0  0
  146.3451  130.9079  151.0801 H   0  0  0  0  0  0  0  0  0  0  0  0
  148.2170  132.5341  152.1968 H   0  0  0  0  0  0  0  0  0  0  0  0
  145.7728  132.5417  153.9837 H   0  0  0  0  0  0  0  0  0  0  0  0
  147.4649  132.4541  154.4767 H   0  0  0  0  0  0  0  0  0  0  0  0
  146.1455  134.8500  154.3782 H   0  0  0  0  0  0  0  0  0  0  0  0
  147.8365  134.7492  153.9144 H   0  0  0  0  0  0  0  0  0  0  0  0
  144.5968  135.4438  152.7512 H   0  0  0  0  0  0  0  0  0  0  0  0
  145.7505  136.7209  152.4260 H   0  0  0  0  0  0  0  0  0  0  0  0
  144.1642  136.5300  150.5240 H   0  0  0  0  0  0  0  0  0  0  0  0
  145.7634  136.0678  150.0025 H   0  0  0  0  0  0  0  0  0  0  0  0
  143.3142  134.3692  150.2910 H   0  0  0  0  0  0  0  0  0  0  0  0
  144.6167  134.2623  149.1375 H   0  0  0  0  0  0  0  0  0  0  0  0
  144.3881  133.0595  151.8972 H   0  0  0  0  0  0  0  0  0  0  0  0
  144.9426  132.3212  150.4187 H   0  0  0  0  0  0  0  0  0  0  0  0
  147.0465  133.6720  150.5399 H   0  0  0  0  0  0  0  0  0  0  0  0
  147.3825  135.2524  151.9258 H   0  0  0  0  0  0  0  0  0  0  0  0
  1  2  2  0  0  0  0
  2  3  1  0  0  0  0
  2  9  1  0  0  0  0
  3  4  1  0  0  0  0
  3 19  1  0  0  0  0
  3 20  1  0  0  0  0
  4  8  1  0  0  0  0
  4  5  1  0  0  0  0
  5  6  2  0  0  0  0
  5 21  1  0  0  0  0
  6  7  1  0  0  0  0
  7  8  2  0  0  0  0
  9 10  1  0  0  0  0
  9 22  1  0  0  0  0
 10 18  1  0  0  0  0
 10 11  1  0  0  0  0
 10 23  1  0  0  0  0
 11 12  1  0  0  0  0
 11 24  1  0  0  0  0
 11 25  1  0  0  0  0
 12 13  1  0  0  0  0
 12 26  1  0  0  0  0
 12 27  1  0  0  0  0
 13 18  1  0  0  0  0
 13 14  1  0  0  0  0
 13 37  1  0  0  0  0
 14 15  1  0  0  0  0
 14 28  1  0  0  0  0
 14 29  1  0  0  0  0
 15 16  1  0  0  0  0
 15 30  1  0  0  0  0
 15 31  1  0  0  0  0
 16 17  1  0  0  0  0
 16 32  1  0  0  0  0
 16 33  1  0  0  0  0
 17 18  1  0  0  0  0
 17 34  1  0  0  0  0
 17 35  1  0  0  0  0
 18 36  1  0  0  0  0
M  CHG  1  13   1
M  END
> <s_m_source_file>
AV-unprocessed.smi

> <i_m_source_file_index>
1260

> <i_lp_mmshare_version>
43012

> <i_f3d_flags>
0

> <s_epik_input>
bjFubltjSF1uMVtDSDJdQyg9TylbTkhdW0NASF0oW0NIMl1bQ0gyXTIpW0NAQEhdKE4yMylbQ0gyXVtDSDJdW0NIMl1bQ0gyXTM=

> <s_epik_cmdline>
J2VwaWtfcHl0aG9uJywgJy1waCcsICc3LjAnLCAnLXRuJywgJzgnLCAnLW1hJywgJzIwMCcsICctbWV0YWxfYmluZGluZycsICctaW1hZScsICc8aW5maWxlLm1hZT4nLCAnLW9tYWUnLCAnPG91dGZpbGUubWFlPic=

> <r_lp_tautomer_probability>
1

> <r_epik_Ionization_Penalty>
0.00234324

> <r_epik_Ionization_Penalty_Charging>
0.00233897

> <r_epik_Ionization_Penalty_Neutral>
4.26861e-06

> <r_epik_State_Penalty>
0.00161477

> <r_epik_Charging_Adjusted_Penalty>
0.00395374

> <i_epik_Tot_Q>
1

> <i_epik_Tot_abs_Q>
1

> <r_epik_Metal_State_Penalty>
-0

> <b_epik_Metal_Only>
0

> <s_lp_Force_Field>
OPLS_2005

> <r_lp_Energy>
44.1786

> <b_lp_Chiralities_Consistent>
1

> <s_lp_Variant>
AV-unprocessed.smi:1260-7

> <Gold.Version>
5.8.1

> <Gold.Id.Protein>
6NUR|6NUR_protein|mol2

> <Gold.PLP.Fitness>
35.5087

> <Gold.PLP.PLP>
-27.1218

> <Gold.PLP.part.hbond>
-3.9342

> <Gold.PLP.part.metal>
0.0000

> <Gold.PLP.part.buried>
-2.0860

> <Gold.PLP.part.nonpolar>
-21.4583

> <Gold.PLP.part.repulsive>
0.1241

> <Gold.PLP.ligand.clash>
0.0000

> <Gold.PLP.ligand.torsion>
0.3076

> <Gold.PLP.Chemscore.Hbond>
2.0000

> <Gold.PLP.Chemscore.CHOScore>
1.0000

> <Gold.PLP.Chemscore.Metal>
0.0000

> <Gold.Chemscore.Hbonds>
donor molecule, donor type, donor heavy atom, donor atom, acceptor molecule, acceptor atom, score
      L1  H    13    37       P1  7948  2.00
      L1  C     5    21       P1 10956  1.00

> <Gold.PLP.Chemscore.Internal.Correction>
0.0021

> <Gold.Rescore>
     Score         DG    S(hbond)    S(metal)    S(lipo)     H(rot)  DE(clash)    DE(int)     intcor
      8.16      -9.82       0.98        0.00      52.46       1.98       0.00       1.67       ----

> <Gold.Chemscore.Fitness>
8.1559

> <Gold.Chemscore.DG>
-9.8244

> <Gold.Chemscore.ZeroCoef>
-5.4800

> <Gold.Chemscore.Hbond>
0.9772

> <Gold.Chemscore.Metal>
0.0000

> <Gold.Chemscore.Lipo>
52.4630

> <Gold.Chemscore.Internal_Hbond>
0.0000

> <Gold.Chemscore.DEClash>
0.0029

> <Gold.Chemscore.DEInternal>
1.6656

> <Gold.Chemscore.Rot>
1.9757

> <Gold.Chemscore.Internal.Correction>
   9.000000E+99

> <Gold.Chemscore.Hbonds>
donor molecule, donor type, donor heavy atom, donor atom, acceptor molecule, acceptor atom, score
      L1  H    13    37       P1  7948  0.98

> <Gold.Chemscore.Hbond.Weighted>
-3.2640

> <Gold.Chemscore.Metal.Weighted>
-0.0000

> <Gold.Chemscore.Lipo.Weighted>
-6.1382

> <Gold.Chemscore.Internal_Hbond.Weighted>
0.0000

> <Gold.Chemscore.DEClash.Weighted>
0.0029

> <Gold.Chemscore.DEInternal.Weighted>
1.6656

> <Gold.Chemscore.Rot.Weighted>
5.0578

> <Gold.Chemscore.Internal.Correction.Weighted>
   9.000000E+99

> <Gold.Protein.RotatedTorsions>
[ 6907 6896 6895 6894 ] final   66.40 input  -60.11 | X-H torsion
[ 7974 7965 7964 7962 ] final  -30.56 input  175.53 | X-H torsion
[ 8008 7997 7996 7995 ] final   -0.50 input   59.86 | X-H torsion
[ 10167 10162 10161 10158 ] final  122.23 input  -65.29 | X-H torsion
[ 10718 10713 10712 10709 ] final   71.58 input   66.30 | X-H torsion
[ 10763 10752 10751 10750 ] final  133.54 input  -60.55 | X-H torsion
[ 11005 11000 10999 10996 ] final   85.22 input  -57.11 | X-H torsion

> <Gold.Protein.ActiveResidues>
 VAL166  LYS551  ARG553  GLY616  TRP617  ASP618  TYR619  PRO620  LYS621  CYS622 
 ASP623  PHE694  ASN695  SER759  ASP760  ASP761  ALA762  ILE779  LEU786  VAL792 
 PHE793  MET794  SER795  GLU796  ALA797  LYS798  CYS799  TRP800  GLU811  SER814 

> <Gold.Protein.RotatedAtoms>
  152.4478  134.5458  159.9852 H   0  0  0  0  0  0  0  0  0  0  0  0  # atno 6907 bound_to 6896
  151.5538  133.3407  159.2966 H   0  0  0  0  0  0  0  0  0  0  0  0  # atno 6908 bound_to 6896
  150.8398  134.7718  159.6987 H   0  0  0  0  0  0  0  0  0  0  0  0  # atno 6909 bound_to 6896
  146.1134  140.5556  142.8768 H   0  0  0  0  0  0  0  0  0  0  0  0  # atno 7974 bound_to 7965
  154.6573  140.2582  155.7147 H   0  0  0  0  0  0  0  0  0  0  0  0  # atno 8008 bound_to 7997
  156.2602  140.2856  156.0953 H   0  0  0  0  0  0  0  0  0  0  0  0  # atno 8009 bound_to 7997
  155.1361  140.0379  157.2777 H   0  0  0  0  0  0  0  0  0  0  0  0  # atno 8010 bound_to 7997
  139.5871  144.7011  151.3382 H   0  0  0  0  0  0  0  0  0  0  0  0  # atno 10167 bound_to 10162
  157.6459  130.9535  150.0809 H   0  0  0  0  0  0  0  0  0  0  0  0  # atno 10718 bound_to 10713
  153.8088  135.3132  155.3398 H   0  0  0  0  0  0  0  0  0  0  0  0  # atno 10763 bound_to 10752
  154.8060  135.4697  154.0396 H   0  0  0  0  0  0  0  0  0  0  0  0  # atno 10764 bound_to 10752
  153.1767  135.6887  153.8621 H   0  0  0  0  0  0  0  0  0  0  0  0  # atno 10765 bound_to 10752
  139.8977  134.8271  156.2553 H   0  0  0  0  0  0  0  0  0  0  0  0  # atno 11005 bound_to 11000
  144.7531  140.5241  143.6788 LP  0  0  0  0  0  0  0  0  0  0  0  0  # atno 17320 bound_to 7965
  145.5617  139.1479  143.3337 LP  0  0  0  0  0  0  0  0  0  0  0  0  # atno 17321 bound_to 7965
  140.7141  143.7314  150.7621 LP  0  0  0  0  0  0  0  0  0  0  0  0  # atno 17342 bound_to 10162
  140.0861  143.4922  152.2504 LP  0  0  0  0  0  0  0  0  0  0  0  0  # atno 17343 bound_to 10162
  156.1786  130.3649  149.9067 LP  0  0  0  0  0  0  0  0  0  0  0  0  # atno 17370 bound_to 10713
  156.7025  130.8938  151.3601 LP  0  0  0  0  0  0  0  0  0  0  0  0  # atno 17371 bound_to 10713
  141.0198  133.7048  156.1248 LP  0  0  0  0  0  0  0  0  0  0  0  0  # atno 17394 bound_to 11000
  140.7250  134.4317  157.5571 LP  0  0  0  0  0  0  0  0  0  0  0  0  # atno 17395 bound_to 11000

$$$$
