AV-unprocessed.smi:2597|AV-procd|sdf|10171|dock1
  -GOLD-   2272014183D 1   1.00000     0.00000
 Structure written by MMmdl.
 31 32  0  0  0  0  0  0  0  0  2 V2000
  151.2509  144.4585  157.4848 N   0  3  0  0  0  0  0  0  0  0  0  0
  151.3190  143.4694  158.5770 C   0  0  2  0  0  0  0  0  0  0  0  0
  152.0965  144.0545  159.7715 C   0  0  0  0  0  0  0  0  0  0  0  0
  152.2138  143.0404  160.9203 C   0  0  0  0  0  0  0  0  0  0  0  0
  152.8606  141.7326  160.4410 C   0  0  0  0  0  0  0  0  0  0  0  0
  152.0882  141.1353  159.2552 C   0  0  0  0  0  0  0  0  0  0  0  0
  151.9634  142.1438  158.0942 C   0  0  1  0  0  0  0  0  0  0  0  0
  151.2452  141.5465  156.9751 N   0  0  0  0  0  0  0  0  0  0  0  0
  149.9976  141.8805  156.4898 C   0  0  0  0  0  0  0  0  0  0  0  0
  149.8295  141.0362  155.4288 C   0  0  0  0  0  0  0  0  0  0  0  0
  148.6707  140.9140  154.4873 C   0  0  0  0  0  0  0  0  0  0  0  0
  149.1262  141.3523  153.2256 O   0  0  0  0  0  0  0  0  0  0  0  0
  150.9646  140.2361  155.3116 N   0  0  0  0  0  0  0  0  0  0  0  0
  151.8124  140.5608  156.2352 N   0  0  0  0  0  0  0  0  0  0  0  0
  150.2951  143.2776  158.9014 H   0  0  0  0  0  0  0  0  0  0  0  0
  152.9715  142.3678  157.7404 H   0  0  0  0  0  0  0  0  0  0  0  0
  151.3534  145.3892  157.8635 H   0  0  0  0  0  0  0  0  0  0  0  0
  150.3598  144.3824  157.0153 H   0  0  0  0  0  0  0  0  0  0  0  0
  153.0960  144.3537  159.4528 H   0  0  0  0  0  0  0  0  0  0  0  0
  151.6040  144.9581  160.1328 H   0  0  0  0  0  0  0  0  0  0  0  0
  152.8000  143.4669  161.7349 H   0  0  0  0  0  0  0  0  0  0  0  0
  151.2240  142.8313  161.3282 H   0  0  0  0  0  0  0  0  0  0  0  0
  153.8943  141.9202  160.1478 H   0  0  0  0  0  0  0  0  0  0  0  0
  152.8970  141.0138  161.2602 H   0  0  0  0  0  0  0  0  0  0  0  0
  152.5901  140.2301  158.9110 H   0  0  0  0  0  0  0  0  0  0  0  0
  151.0970  140.8275  159.5914 H   0  0  0  0  0  0  0  0  0  0  0  0
  149.3722  142.6533  156.9117 H   0  0  0  0  0  0  0  0  0  0  0  0
  148.3185  139.8848  154.4112 H   0  0  0  0  0  0  0  0  0  0  0  0
  147.8321  141.5314  154.8091 H   0  0  0  0  0  0  0  0  0  0  0  0
  149.2309  140.5983  152.6656 H   0  0  0  0  0  0  0  0  0  0  0  0
  151.9947  144.2806  156.8245 H   0  0  0  0  0  0  0  0  0  0  0  0
  1  2  1  0  0  0  0
  1 17  1  0  0  0  0
  1 18  1  0  0  0  0
  1 31  1  0  0  0  0
  2 15  1  0  0  0  0
  2  7  1  0  0  0  0
  2  3  1  0  0  0  0
  3  4  1  0  0  0  0
  3 19  1  0  0  0  0
  3 20  1  0  0  0  0
  4  5  1  0  0  0  0
  4 21  1  0  0  0  0
  4 22  1  0  0  0  0
  5  6  1  0  0  0  0
  5 23  1  0  0  0  0
  5 24  1  0  0  0  0
  6  7  1  0  0  0  0
  6 25  1  0  0  0  0
  6 26  1  0  0  0  0
  7 16  1  0  0  0  0
  7  8  1  0  0  0  0
  8 14  1  0  0  0  0
  8  9  1  0  0  0  0
  9 10  2  0  0  0  0
  9 27  1  0  0  0  0
 10 11  1  0  0  0  0
 10 13  1  0  0  0  0
 11 12  1  0  0  0  0
 11 28  1  0  0  0  0
 11 29  1  0  0  0  0
 12 30  1  0  0  0  0
 13 14  2  0  0  0  0
M  CHG  1   1   1
M  END
> <s_m_source_file>
AV-unprocessed.smi

> <i_m_source_file_index>
2597

> <i_lp_mmshare_version>
43012

> <i_f3d_flags>
0

> <s_epik_input>
W05IMl1bQ0BIXTFbQ0gyXVtDSDJdW0NIMl1bQ0gyXVtDQEhdMW4yW2NIXWMobm4yKVtDSDJdW09IXQ==

> <s_epik_cmdline>
J2VwaWtfcHl0aG9uJywgJy1waCcsICc3LjAnLCAnLXRuJywgJzgnLCAnLW1hJywgJzIwMCcsICctbWV0YWxfYmluZGluZycsICctaW1hZScsICc8aW5maWxlLm1hZT4nLCAnLW9tYWUnLCAnPG91dGZpbGUubWFlPic=

> <r_lp_tautomer_probability>
1

> <r_epik_Ionization_Penalty>
0.014346

> <r_epik_Ionization_Penalty_Charging>
0.014316

> <r_epik_Ionization_Penalty_Neutral>
3.00097e-05

> <r_epik_State_Penalty>
0.0111909

> <r_epik_Charging_Adjusted_Penalty>
0.0255069

> <i_epik_Tot_Q>
1

> <i_epik_Tot_abs_Q>
1

> <r_epik_Metal_State_Penalty>
0.011192

> <b_epik_Metal_Only>
0

> <s_lp_Force_Field>
OPLS_2005

> <r_lp_Energy>
13.7949

> <b_lp_Chiralities_Consistent>
1

> <s_lp_Variant>
AV-unprocessed.smi:2597-2

> <Gold.Version>
5.8.1

> <Gold.Id.Protein>
6NUR|6NUR_protein|mol2

> <Gold.PLP.Fitness>
48.4112

> <Gold.PLP.PLP>
-31.9910

> <Gold.PLP.part.hbond>
-4.5041

> <Gold.PLP.part.metal>
0.0000

> <Gold.PLP.part.buried>
-2.8793

> <Gold.PLP.part.nonpolar>
-23.6580

> <Gold.PLP.part.repulsive>
0.0742

> <Gold.PLP.ligand.clash>
0.0000

> <Gold.PLP.ligand.torsion>
0.2900

> <Gold.PLP.Chemscore.Hbond>
4.7960

> <Gold.PLP.Chemscore.CHOScore>
0.8611

> <Gold.PLP.Chemscore.Metal>
0.0000

> <Gold.Chemscore.Hbonds>
donor molecule, donor type, donor heavy atom, donor atom, acceptor molecule, acceptor atom, score
      L1  H     1    18       P1  8028  2.00
      L1  H    12    30       P1  7957  0.91
      P1  H  7989  7998       L1    13  0.94
      P1  H  8011  8017       L1    12  0.95
      L1  C     9    27       P1  8028  0.83

> <Gold.PLP.Chemscore.Internal.Correction>
0.0286

> <Gold.Rescore>
     Score         DG    S(hbond)    S(metal)    S(lipo)     H(rot)  DE(clash)    DE(int)     intcor
     17.28     -18.50       2.41        0.00      83.19       1.86       0.00       1.23       ----

> <Gold.Chemscore.Fitness>
17.2753

> <Gold.Chemscore.DG>
-18.5048

> <Gold.Chemscore.ZeroCoef>
-5.4800

> <Gold.Chemscore.Hbond>
2.4073

> <Gold.Chemscore.Metal>
0.0000

> <Gold.Chemscore.Lipo>
83.1909

> <Gold.Chemscore.Internal_Hbond>
0.0000

> <Gold.Chemscore.DEClash>
0.0029

> <Gold.Chemscore.DEInternal>
1.2266

> <Gold.Chemscore.Rot>
1.8551

> <Gold.Chemscore.Internal.Correction>
   9.000000E+99

> <Gold.Chemscore.Hbonds>
donor molecule, donor type, donor heavy atom, donor atom, acceptor molecule, acceptor atom, score
      L1  H     1    18       P1  8028  0.81
      L1  H    12    30       P1  7957  0.89
      P1  H  7989  7998       L1    13  0.15
      P1  H  8011  8017       L1    12  0.20

> <Gold.Chemscore.Hbond.Weighted>
-8.0404

> <Gold.Chemscore.Metal.Weighted>
-0.0000

> <Gold.Chemscore.Lipo.Weighted>
-9.7333

> <Gold.Chemscore.Internal_Hbond.Weighted>
0.0000

> <Gold.Chemscore.DEClash.Weighted>
0.0029

> <Gold.Chemscore.DEInternal.Weighted>
1.2266

> <Gold.Chemscore.Rot.Weighted>
4.7489

> <Gold.Chemscore.Internal.Correction.Weighted>
   9.000000E+99

> <Gold.Protein.RotatedTorsions>
[ 6907 6896 6895 6894 ] final  -33.82 input  -60.11 | X-H torsion
[ 7974 7965 7964 7962 ] final   87.98 input  175.53 | X-H torsion
[ 8008 7997 7996 7995 ] final  175.45 input   59.86 | X-H torsion
[ 10167 10162 10161 10158 ] final   37.29 input  -65.29 | X-H torsion
[ 10718 10713 10712 10709 ] final -117.48 input   66.30 | X-H torsion
[ 10763 10752 10751 10750 ] final   -2.31 input  -60.55 | X-H torsion
[ 11005 11000 10999 10996 ] final   73.05 input  -57.11 | X-H torsion

> <Gold.Protein.ActiveResidues>
 VAL166  LYS551  ARG553  GLY616  TRP617  ASP618  TYR619  PRO620  LYS621  CYS622 
 ASP623  PHE694  ASN695  SER759  ASP760  ASP761  ALA762  ILE779  LEU786  VAL792 
 PHE793  MET794  SER795  GLU796  ALA797  LYS798  CYS799  TRP800  GLU811  SER814 

> <Gold.Protein.RotatedAtoms>
  151.0606  134.9734  159.8258 H   0  0  0  0  0  0  0  0  0  0  0  0  # atno 6907 bound_to 6896
  152.5395  134.2422  159.8876 H   0  0  0  0  0  0  0  0  0  0  0  0  # atno 6908 bound_to 6896
  151.2442  133.4341  159.2642 H   0  0  0  0  0  0  0  0  0  0  0  0  # atno 6909 bound_to 6896
  145.5518  139.2296  143.2508 H   0  0  0  0  0  0  0  0  0  0  0  0  # atno 7974 bound_to 7965
  156.0869  140.1408  156.9641 H   0  0  0  0  0  0  0  0  0  0  0  0  # atno 8008 bound_to 7997
  154.4618  140.0940  156.6962 H   0  0  0  0  0  0  0  0  0  0  0  0  # atno 8009 bound_to 7997
  155.4983  140.3450  155.4369 H   0  0  0  0  0  0  0  0  0  0  0  0  # atno 8010 bound_to 7997
  140.4046  144.1676  150.6135 H   0  0  0  0  0  0  0  0  0  0  0  0  # atno 10167 bound_to 10162
  156.1037  130.6192  150.9169 H   0  0  0  0  0  0  0  0  0  0  0  0  # atno 10718 bound_to 10713
  153.3563  135.6988  153.6748 H   0  0  0  0  0  0  0  0  0  0  0  0  # atno 10763 bound_to 10752
  153.5454  135.3564  155.2737 H   0  0  0  0  0  0  0  0  0  0  0  0  # atno 10764 bound_to 10752
  154.8661  135.4213  154.2810 H   0  0  0  0  0  0  0  0  0  0  0  0  # atno 10765 bound_to 10752
  139.9459  134.7313  156.0980 H   0  0  0  0  0  0  0  0  0  0  0  0  # atno 11005 bound_to 11000
  146.1911  140.6341  142.9145 LP  0  0  0  0  0  0  0  0  0  0  0  0  # atno 17320 bound_to 7965
  144.7526  140.5228  143.6791 LP  0  0  0  0  0  0  0  0  0  0  0  0  # atno 17321 bound_to 7965
  140.4703  143.2415  151.9098 LP  0  0  0  0  0  0  0  0  0  0  0  0  # atno 17342 bound_to 10162
  139.4784  144.5377  151.8574 LP  0  0  0  0  0  0  0  0  0  0  0  0  # atno 17343 bound_to 10162
  157.6210  131.0929  150.8621 LP  0  0  0  0  0  0  0  0  0  0  0  0  # atno 17370 bound_to 10713
  156.8744  130.5157  149.5294 LP  0  0  0  0  0  0  0  0  0  0  0  0  # atno 17371 bound_to 10713
  141.1110  133.6643  156.2978 LP  0  0  0  0  0  0  0  0  0  0  0  0  # atno 17394 bound_to 11000
  140.5835  134.5722  157.5484 LP  0  0  0  0  0  0  0  0  0  0  0  0  # atno 17395 bound_to 11000

$$$$
