AV-unprocessed.smi:663|AV-procd|sdf|3249|dock4
  -GOLD-   22720 0203D 1   1.00000     0.00000
 Structure written by MMmdl.
 29 30  0  0  0  0  0  0  0  0  2 V2000
  148.7463  139.3354  153.7977 N   0  0  0  0  0  0  0  0  0  0  0  0
  149.3145  139.7547  154.9309 C   0  0  0  0  0  0  0  0  0  0  0  0
  150.3668  140.3903  154.9380 O   0  0  0  0  0  0  0  0  0  0  0  0
  148.6007  139.3994  156.2401 C   0  0  0  0  0  0  0  0  0  0  0  0
  149.4322  138.5092  157.1967 C   0  0  2  0  0  0  0  0  0  0  0  0
  148.6526  138.2409  158.4037 N   0  0  0  0  0  0  0  0  0  0  0  0
  148.8437  137.2372  159.2728 C   0  0  0  0  0  0  0  0  0  0  0  0
  149.7508  136.4228  159.0864 O   0  0  0  0  0  0  0  0  0  0  0  0
  147.9683  137.2393  160.3040 N   0  5  0  0  0  0  0  0  0  0  0  0
  147.6440  136.0874  160.9140 C   0  0  0  0  0  0  0  0  0  0  0  0
  147.4805  134.9384  160.2384 N   0  0  0  0  0  0  0  0  0  0  0  0
  147.1391  133.8685  161.0548 N   0  0  0  0  0  0  0  0  0  0  0  0
  147.0456  134.2418  162.3308 C   0  0  0  0  0  0  0  0  0  0  0  0
  147.3636  135.9337  162.6507 S   0  0  0  0  0  0  0  0  0  0  0  0
  150.7818  139.1280  157.5290 C   0  0  0  0  0  0  0  0  0  0  0  0
  151.3666  139.0799  158.9223 C   0  0  0  0  0  0  0  0  0  0  0  0
  150.8710  140.3897  158.3538 C   0  0  0  0  0  0  0  0  0  0  0  0
  149.1817  139.5463  152.9115 H   0  0  0  0  0  0  0  0  0  0  0  0
  147.8850  138.8096  153.8310 H   0  0  0  0  0  0  0  0  0  0  0  0
  148.2959  140.3108  156.7570 H   0  0  0  0  0  0  0  0  0  0  0  0
  147.6783  138.8863  155.9648 H   0  0  0  0  0  0  0  0  0  0  0  0
  149.6301  137.5534  156.7071 H   0  0  0  0  0  0  0  0  0  0  0  0
  147.8967  138.8795  158.6027 H   0  0  0  0  0  0  0  0  0  0  0  0
  146.7852  133.5170  163.0878 H   0  0  0  0  0  0  0  0  0  0  0  0
  151.5006  139.0539  156.7147 H   0  0  0  0  0  0  0  0  0  0  0  0
  150.7729  138.6251  159.7126 H   0  0  0  0  0  0  0  0  0  0  0  0
  152.4423  138.9419  159.0093 H   0  0  0  0  0  0  0  0  0  0  0  0
  151.6159  141.1274  158.0626 H   0  0  0  0  0  0  0  0  0  0  0  0
  149.9460  140.7950  158.7592 H   0  0  0  0  0  0  0  0  0  0  0  0
  1  2  1  0  0  0  0
  1 18  1  0  0  0  0
  1 19  1  0  0  0  0
  2  3  2  0  0  0  0
  2  4  1  0  0  0  0
  4  5  1  0  0  0  0
  4 20  1  0  0  0  0
  4 21  1  0  0  0  0
  5  6  1  0  0  0  0
  5 15  1  0  0  0  0
  5 22  1  0  0  0  0
  6  7  1  0  0  0  0
  6 23  1  0  0  0  0
  7  8  2  0  0  0  0
  7  9  1  0  0  0  0
  9 10  1  0  0  0  0
 10 14  1  0  0  0  0
 10 11  2  0  0  0  0
 11 12  1  0  0  0  0
 12 13  2  0  0  0  0
 13 14  1  0  0  0  0
 13 24  1  0  0  0  0
 15 17  1  0  0  0  0
 15 16  1  0  0  0  0
 15 25  1  0  0  0  0
 16 17  1  0  0  0  0
 16 26  1  0  0  0  0
 16 27  1  0  0  0  0
 17 28  1  0  0  0  0
 17 29  1  0  0  0  0
M  CHG  1   9  -1
M  END
> <s_m_source_file>
AV-unprocessed.smi

> <i_m_source_file_index>
663

> <i_lp_mmshare_version>
43012

> <i_f3d_flags>
0

> <s_epik_input>
W05IMl1DKD1PKVtDSDJdW0NAQEhdKFtDSF0xW0NIMl1bQ0gyXTEpW05IXUMoPU8pW05IXWMybm5bY0hdczI=

> <s_epik_cmdline>
J2VwaWtfcHl0aG9uJywgJy1waCcsICc3LjAnLCAnLXRuJywgJzgnLCAnLW1hJywgJzIwMCcsICctbWV0YWxfYmluZGluZycsICctaW1hZScsICc8aW5maWxlLm1hZT4nLCAnLW9tYWUnLCAnPG91dGZpbGUubWFlPic=

> <r_lp_tautomer_probability>
1

> <r_epik_Ionization_Penalty>
4.41895

> <r_epik_Ionization_Penalty_Charging>
4.37725

> <r_epik_Ionization_Penalty_Neutral>
0.0416999

> <r_epik_State_Penalty>
4.37688

> <r_epik_Charging_Adjusted_Penalty>
8.75413

> <i_epik_Tot_Q>
-1

> <i_epik_Tot_abs_Q>
1

> <r_epik_Metal_State_Penalty>
0.761195

> <b_epik_Metal_Only>
1

> <s_lp_Force_Field>
OPLS_2005

> <r_lp_Energy>
9.70165

> <b_lp_Chiralities_Consistent>
1

> <s_lp_Variant>
AV-unprocessed.smi:663-3

> <Gold.Version>
5.8.1

> <Gold.Id.Protein>
6NUR|6NUR_protein|mol2

> <Gold.PLP.Fitness>
41.6503

> <Gold.PLP.PLP>
-25.8123

> <Gold.PLP.part.hbond>
-5.0000

> <Gold.PLP.part.metal>
0.0000

> <Gold.PLP.part.buried>
-5.3921

> <Gold.PLP.part.nonpolar>
-17.0777

> <Gold.PLP.part.repulsive>
0.3120

> <Gold.PLP.ligand.clash>
0.0000

> <Gold.PLP.ligand.torsion>
1.3176

> <Gold.PLP.Chemscore.Hbond>
5.7840

> <Gold.PLP.Chemscore.CHOScore>
0.0000

> <Gold.PLP.Chemscore.Metal>
0.0000

> <Gold.Chemscore.Hbonds>
donor molecule, donor type, donor heavy atom, donor atom, acceptor molecule, acceptor atom, score
      L1  H     1    18       P1  7957  1.00
      P1  H  6896  6907       L1     8  1.00
      P1  H  6931  6943       L1     9  0.90
      P1  H  6934  6947       L1     9  1.47
      P1  H  7989  7998       L1     3  1.00

> <Gold.PLP.Chemscore.Internal.Correction>
1.1212

> <Gold.Rescore>
     Score         DG    S(hbond)    S(metal)    S(lipo)     H(rot)  DE(clash)    DE(int)     intcor
     13.26     -15.97       3.86        0.00      33.82       2.49       0.00       2.71       ----

> <Gold.Chemscore.Fitness>
13.2642

> <Gold.Chemscore.DG>
-15.9721

> <Gold.Chemscore.ZeroCoef>
-5.4800

> <Gold.Chemscore.Hbond>
3.8622

> <Gold.Chemscore.Metal>
0.0000

> <Gold.Chemscore.Lipo>
33.8208

> <Gold.Chemscore.Internal_Hbond>
0.0000

> <Gold.Chemscore.DEClash>
0.0000

> <Gold.Chemscore.DEInternal>
2.7079

> <Gold.Chemscore.Rot>
2.4863

> <Gold.Chemscore.Internal.Correction>
   9.000000E+99

> <Gold.Chemscore.Hbonds>
donor molecule, donor type, donor heavy atom, donor atom, acceptor molecule, acceptor atom, score
      L1  H     1    18       P1  7957  1.00
      P1  H  6896  6907       L1     8  0.96
      P1  H  6931  6943       L1     9  0.06
      P1  H  6934  6947       L1     9  0.66
      P1  H  7989  7998       L1     3  0.94

> <Gold.Chemscore.Hbond.Weighted>
-12.8999

> <Gold.Chemscore.Metal.Weighted>
-0.0000

> <Gold.Chemscore.Lipo.Weighted>
-3.9570

> <Gold.Chemscore.Internal_Hbond.Weighted>
0.0000

> <Gold.Chemscore.DEClash.Weighted>
0.0000

> <Gold.Chemscore.DEInternal.Weighted>
2.7079

> <Gold.Chemscore.Rot.Weighted>
6.3648

> <Gold.Chemscore.Internal.Correction.Weighted>
   9.000000E+99

> <Gold.Protein.RotatedTorsions>
[ 6907 6896 6895 6894 ] final  -39.65 input  -60.11 | X-H torsion
[ 7974 7965 7964 7962 ] final   13.94 input  175.53 | X-H torsion
[ 8008 7997 7996 7995 ] final  -32.47 input   59.86 | X-H torsion
[ 10167 10162 10161 10158 ] final -119.20 input  -65.29 | X-H torsion
[ 10718 10713 10712 10709 ] final   94.09 input   66.30 | X-H torsion
[ 10763 10752 10751 10750 ] final  -67.57 input  -60.55 | X-H torsion
[ 11005 11000 10999 10996 ] final  176.60 input  -57.11 | X-H torsion

> <Gold.Protein.ActiveResidues>
 VAL166  LYS551  ARG553  GLY616  TRP617  ASP618  TYR619  PRO620  LYS621  CYS622 
 ASP623  PHE694  ASN695  SER759  ASP760  ASP761  ALA762  ILE779  LEU786  VAL792 
 PHE793  MET794  SER795  GLU796  ALA797  LYS798  CYS799  TRP800  GLU811  SER814 

> <Gold.Protein.RotatedAtoms>
  150.9878  134.9219  159.7881 H   0  0  0  0  0  0  0  0  0  0  0  0  # atno 6907 bound_to 6896
  152.5242  134.3323  159.9197 H   0  0  0  0  0  0  0  0  0  0  0  0  # atno 6908 bound_to 6896
  151.3329  133.3952  159.2698 H   0  0  0  0  0  0  0  0  0  0  0  0  # atno 6909 bound_to 6896
  146.2317  139.9115  142.8523 H   0  0  0  0  0  0  0  0  0  0  0  0  # atno 7974 bound_to 7965
  154.4179  140.1736  156.1732 H   0  0  0  0  0  0  0  0  0  0  0  0  # atno 8008 bound_to 7997
  155.9743  140.3383  155.6580 H   0  0  0  0  0  0  0  0  0  0  0  0  # atno 8009 bound_to 7997
  155.6584  140.0698  157.2553 H   0  0  0  0  0  0  0  0  0  0  0  0  # atno 8010 bound_to 7997
  140.0492  143.5077  152.2091 H   0  0  0  0  0  0  0  0  0  0  0  0  # atno 10167 bound_to 10162
  157.6950  131.0500  150.4133 H   0  0  0  0  0  0  0  0  0  0  0  0  # atno 10718 bound_to 10713
  154.3764  135.6084  153.5767 H   0  0  0  0  0  0  0  0  0  0  0  0  # atno 10763 bound_to 10752
  152.9789  135.5850  154.4462 H   0  0  0  0  0  0  0  0  0  0  0  0  # atno 10764 bound_to 10752
  154.4224  135.2846  155.1944 H   0  0  0  0  0  0  0  0  0  0  0  0  # atno 10765 bound_to 10752
  140.3749  134.6998  157.4415 H   0  0  0  0  0  0  0  0  0  0  0  0  # atno 11005 bound_to 11000
  145.2225  140.9941  143.4037 LP  0  0  0  0  0  0  0  0  0  0  0  0  # atno 17320 bound_to 7965
  144.9598  139.3992  143.6361 LP  0  0  0  0  0  0  0  0  0  0  0  0  # atno 17321 bound_to 7965
  139.5964  144.7568  151.3276 LP  0  0  0  0  0  0  0  0  0  0  0  0  # atno 17342 bound_to 10162
  140.7225  143.7097  150.7779 LP  0  0  0  0  0  0  0  0  0  0  0  0  # atno 17343 bound_to 10162
  156.4515  130.4012  149.6633 LP  0  0  0  0  0  0  0  0  0  0  0  0  # atno 17370 bound_to 10713
  156.3780  130.7564  151.2554 LP  0  0  0  0  0  0  0  0  0  0  0  0  # atno 17371 bound_to 10713
  140.0523  134.6113  155.8847 LP  0  0  0  0  0  0  0  0  0  0  0  0  # atno 17394 bound_to 11000
  141.1942  133.6582  156.5586 LP  0  0  0  0  0  0  0  0  0  0  0  0  # atno 17395 bound_to 11000

$$$$
