AV-unprocessed.smi:2324|AV-procd|sdf|9294|dock3
  -GOLD-   2272012513D 1   1.00000     0.00000
 Structure written by MMmdl.
 37 39  0  0  0  0  0  0  0  0  1 V2000
  147.3130  142.9516  160.5328 O   0  0  0  0  0  0  0  0  0  0  0  0
  147.4080  143.8601  159.7093 C   0  0  0  0  0  0  0  0  0  0  0  0
  146.3450  144.6353  159.4062 N   0  0  0  0  0  0  0  0  0  0  0  0
  145.0007  144.6261  159.8807 C   0  0  0  0  0  0  0  0  0  0  0  0
  144.8279  144.0363  161.1513 C   0  0  0  0  0  0  0  0  0  0  0  0
  143.5332  143.9835  161.6952 C   0  0  0  0  0  0  0  0  0  0  0  0
  142.4902  144.5277  160.9270 C   0  0  0  0  0  0  0  0  0  0  0  0
  142.6986  145.0835  159.7142 N   0  0  0  0  0  0  0  0  0  0  0  0
  143.9338  145.1293  159.2044 N   0  0  0  0  0  0  0  0  0  0  0  0
  148.5547  144.1406  159.0683 N   0  0  0  0  0  0  0  0  0  0  0  0
  149.8189  143.4334  159.2452 C   0  0  1  0  0  0  0  0  0  0  0  0
  150.3457  142.9593  157.8845 C   0  0  0  0  0  0  0  0  0  0  0  0
  151.7308  142.3125  158.0357 C   0  0  0  0  0  0  0  0  0  0  0  0
  152.6410  143.2201  158.6540 O   0  0  0  0  0  0  0  0  0  0  0  0
  152.2589  143.6803  159.9517 C   0  0  2  0  0  0  0  0  0  0  0  0
  152.3617  142.5796  160.9992 C   0  0  0  0  0  0  0  0  0  0  0  0
  152.9898  142.8544  162.3453 C   0  0  0  0  0  0  0  0  0  0  0  0
  153.6994  141.9706  161.3475 C   0  0  0  0  0  0  0  0  0  0  0  0
  150.8695  144.3457  159.9020 C   0  0  0  0  0  0  0  0  0  0  0  0
  146.5373  145.3507  158.7202 H   0  0  0  0  0  0  0  0  0  0  0  0
  145.6663  143.6316  161.6995 H   0  0  0  0  0  0  0  0  0  0  0  0
  143.3469  143.5427  162.6634 H   0  0  0  0  0  0  0  0  0  0  0  0
  141.4727  144.5170  161.2887 H   0  0  0  0  0  0  0  0  0  0  0  0
  148.5495  144.9051  158.4075 H   0  0  0  0  0  0  0  0  0  0  0  0
  149.6500  142.5577  159.8741 H   0  0  0  0  0  0  0  0  0  0  0  0
  149.6501  142.2499  157.4347 H   0  0  0  0  0  0  0  0  0  0  0  0
  150.4174  143.8042  157.1981 H   0  0  0  0  0  0  0  0  0  0  0  0
  151.6663  141.3846  158.6041 H   0  0  0  0  0  0  0  0  0  0  0  0
  152.1232  142.0457  157.0544 H   0  0  0  0  0  0  0  0  0  0  0  0
  152.9829  144.4494  160.2234 H   0  0  0  0  0  0  0  0  0  0  0  0
  151.5165  141.8954  161.0175 H   0  0  0  0  0  0  0  0  0  0  0  0
  153.4012  143.8465  162.5205 H   0  0  0  0  0  0  0  0  0  0  0  0
  152.5414  142.3760  163.2134 H   0  0  0  0  0  0  0  0  0  0  0  0
  153.7261  140.9019  161.5503 H   0  0  0  0  0  0  0  0  0  0  0  0
  154.5836  142.3748  160.8589 H   0  0  0  0  0  0  0  0  0  0  0  0
  150.9473  145.2713  159.3296 H   0  0  0  0  0  0  0  0  0  0  0  0
  150.5564  144.6335  160.9064 H   0  0  0  0  0  0  0  0  0  0  0  0
  1  2  2  0  0  0  0
  2  3  1  0  0  0  0
  2 10  1  0  0  0  0
  3  4  1  0  0  0  0
  3 20  1  0  0  0  0
  4  9  1  0  0  0  0
  4  5  2  0  0  0  0
  5  6  1  0  0  0  0
  5 21  1  0  0  0  0
  6  7  2  0  0  0  0
  6 22  1  0  0  0  0
  7  8  1  0  0  0  0
  7 23  1  0  0  0  0
  8  9  2  0  0  0  0
 10 11  1  0  0  0  0
 10 24  1  0  0  0  0
 11 19  1  0  0  0  0
 11 12  1  0  0  0  0
 11 25  1  0  0  0  0
 12 13  1  0  0  0  0
 12 26  1  0  0  0  0
 12 27  1  0  0  0  0
 13 14  1  0  0  0  0
 13 28  1  0  0  0  0
 13 29  1  0  0  0  0
 14 15  1  0  0  0  0
 15 16  1  0  0  0  0
 15 19  1  0  0  0  0
 15 30  1  0  0  0  0
 16 18  1  0  0  0  0
 16 17  1  0  0  0  0
 16 31  1  0  0  0  0
 17 18  1  0  0  0  0
 17 32  1  0  0  0  0
 17 33  1  0  0  0  0
 18 34  1  0  0  0  0
 18 35  1  0  0  0  0
 19 36  1  0  0  0  0
 19 37  1  0  0  0  0
M  END
> <s_m_source_file>
AV-unprocessed.smi

> <i_m_source_file_index>
2324

> <i_lp_mmshare_version>
43012

> <i_f3d_flags>
0

> <s_epik_input>
bjFuW2NIXVtjSF1bY0hdYzFbTkhdQyg9TylbTkhdW0NAQEhdMltDSDJdW0NIMl1PW0NASF0oW0NIMl0yKVtDSF0zW0NIMl1bQ0gyXTM=

> <s_epik_cmdline>
J2VwaWtfcHl0aG9uJywgJy1waCcsICc3LjAnLCAnLXRuJywgJzgnLCAnLW1hJywgJzIwMCcsICctbWV0YWxfYmluZGluZycsICctaW1hZScsICc8aW5maWxlLm1hZT4nLCAnLW9tYWUnLCAnPG91dGZpbGUubWFlPic=

> <r_lp_tautomer_probability>
1

> <r_epik_Ionization_Penalty>
0.00521499

> <r_epik_Ionization_Penalty_Charging>
0

> <r_epik_Ionization_Penalty_Neutral>
0.00521499

> <r_epik_State_Penalty>
-0

> <r_epik_Charging_Adjusted_Penalty>
0

> <i_epik_Tot_Q>
0

> <i_epik_Tot_abs_Q>
0

> <r_epik_Metal_State_Penalty>
-0

> <b_epik_Metal_Only>
0

> <s_lp_Force_Field>
OPLS_2005

> <r_lp_Energy>
28.1305

> <b_lp_Chiralities_Consistent>
1

> <s_lp_Variant>
AV-unprocessed.smi:2324-4

> <Gold.Version>
5.8.1

> <Gold.Id.Protein>
6NUR|6NUR_protein|mol2

> <Gold.PLP.Fitness>
42.2683

> <Gold.PLP.PLP>
-32.6812

> <Gold.PLP.part.hbond>
-4.0000

> <Gold.PLP.part.metal>
0.0000

> <Gold.PLP.part.buried>
-2.2873

> <Gold.PLP.part.nonpolar>
-27.0548

> <Gold.PLP.part.repulsive>
0.3098

> <Gold.PLP.ligand.clash>
0.0000

> <Gold.PLP.ligand.torsion>
0.7863

> <Gold.PLP.Chemscore.Hbond>
3.3597

> <Gold.PLP.Chemscore.CHOScore>
0.0000

> <Gold.PLP.Chemscore.Metal>
0.0000

> <Gold.Chemscore.Hbonds>
donor molecule, donor type, donor heavy atom, donor atom, acceptor molecule, acceptor atom, score
      L1  H     3    20       P1  8029  0.89
      L1  H    10    24       P1  8029  1.00
      P1  H  6933  6944       L1     1  1.00
      P1  H  6934  6946       L1     1  0.51

> <Gold.PLP.Chemscore.Internal.Correction>
1.0805

> <Gold.Rescore>
     Score         DG    S(hbond)    S(metal)    S(lipo)     H(rot)  DE(clash)    DE(int)     intcor
     22.35     -24.51       3.30        0.00      95.65       1.25       0.01       2.15       ----

> <Gold.Chemscore.Fitness>
22.3453

> <Gold.Chemscore.DG>
-24.5067

> <Gold.Chemscore.ZeroCoef>
-5.4800

> <Gold.Chemscore.Hbond>
3.3022

> <Gold.Chemscore.Metal>
0.0000

> <Gold.Chemscore.Lipo>
95.6505

> <Gold.Chemscore.Internal_Hbond>
0.0000

> <Gold.Chemscore.DEClash>
0.0147

> <Gold.Chemscore.DEInternal>
2.1467

> <Gold.Chemscore.Rot>
1.2476

> <Gold.Chemscore.Internal.Correction>
   9.000000E+99

> <Gold.Chemscore.Hbonds>
donor molecule, donor type, donor heavy atom, donor atom, acceptor molecule, acceptor atom, score
      L1  H     3    20       P1  8029  0.81
      L1  H    10    24       P1  8029  0.89
      P1  H  6933  6944       L1     1  0.95
      P1  H  6934  6946       L1     1  0.51

> <Gold.Chemscore.Hbond.Weighted>
-11.0293

> <Gold.Chemscore.Metal.Weighted>
-0.0000

> <Gold.Chemscore.Lipo.Weighted>
-11.1911

> <Gold.Chemscore.Internal_Hbond.Weighted>
0.0000

> <Gold.Chemscore.DEClash.Weighted>
0.0147

> <Gold.Chemscore.DEInternal.Weighted>
2.1467

> <Gold.Chemscore.Rot.Weighted>
3.1938

> <Gold.Chemscore.Internal.Correction.Weighted>
   9.000000E+99

> <Gold.Protein.RotatedTorsions>
[ 6907 6896 6895 6894 ] final  -11.16 input  -60.11 | X-H torsion
[ 7974 7965 7964 7962 ] final   55.38 input  175.53 | X-H torsion
[ 8008 7997 7996 7995 ] final  -62.03 input   59.86 | X-H torsion
[ 10167 10162 10161 10158 ] final   84.78 input  -65.29 | X-H torsion
[ 10718 10713 10712 10709 ] final   87.76 input   66.30 | X-H torsion
[ 10763 10752 10751 10750 ] final  142.64 input  -60.55 | X-H torsion
[ 11005 11000 10999 10996 ] final  121.21 input  -57.11 | X-H torsion

> <Gold.Protein.ActiveResidues>
 VAL166  LYS551  ARG553  GLY616  TRP617  ASP618  TYR619  PRO620  LYS621  CYS622 
 ASP623  PHE694  ASN695  SER759  ASP760  ASP761  ALA762  ILE779  LEU786  VAL792 
 PHE793  MET794  SER795  GLU796  ALA797  LYS798  CYS799  TRP800  GLU811  SER814 

> <Gold.Protein.RotatedAtoms>
  151.3905  135.0955  159.9524 H   0  0  0  0  0  0  0  0  0  0  0  0  # atno 6907 bound_to 6896
  152.5081  133.8984  159.7439 H   0  0  0  0  0  0  0  0  0  0  0  0  # atno 6908 bound_to 6896
  150.9437  133.6572  159.2814 H   0  0  0  0  0  0  0  0  0  0  0  0  # atno 6909 bound_to 6896
  145.9510  139.3972  143.0306 H   0  0  0  0  0  0  0  0  0  0  0  0  # atno 7974 bound_to 7965
  154.4478  140.1005  156.6524 H   0  0  0  0  0  0  0  0  0  0  0  0  # atno 8008 bound_to 7997
  155.5383  140.3483  155.4423 H   0  0  0  0  0  0  0  0  0  0  0  0  # atno 8009 bound_to 7997
  156.0615  140.1327  156.9924 H   0  0  0  0  0  0  0  0  0  0  0  0  # atno 8010 bound_to 7997
  139.9046  144.6309  150.8601 H   0  0  0  0  0  0  0  0  0  0  0  0  # atno 10167 bound_to 10162
  157.6943  131.0268  150.3172 H   0  0  0  0  0  0  0  0  0  0  0  0  # atno 10718 bound_to 10713
  153.9592  135.2962  155.3434 H   0  0  0  0  0  0  0  0  0  0  0  0  # atno 10763 bound_to 10752
  154.7384  135.5036  153.9084 H   0  0  0  0  0  0  0  0  0  0  0  0  # atno 10764 bound_to 10752
  153.0955  135.6720  153.9881 H   0  0  0  0  0  0  0  0  0  0  0  0  # atno 10765 bound_to 10752
  139.9216  134.9638  156.7924 H   0  0  0  0  0  0  0  0  0  0  0  0  # atno 11005 bound_to 11000
  145.8171  140.9697  143.0918 LP  0  0  0  0  0  0  0  0  0  0  0  0  # atno 17320 bound_to 7965
  144.6796  139.9994  143.7484 LP  0  0  0  0  0  0  0  0  0  0  0  0  # atno 17321 bound_to 7965
  140.7699  143.3411  151.2206 LP  0  0  0  0  0  0  0  0  0  0  0  0  # atno 17342 bound_to 10162
  139.6996  143.9556  152.2899 LP  0  0  0  0  0  0  0  0  0  0  0  0  # atno 17343 bound_to 10162
  156.3665  130.3856  149.7209 LP  0  0  0  0  0  0  0  0  0  0  0  0  # atno 17370 bound_to 10713
  156.4638  130.7964  151.2984 LP  0  0  0  0  0  0  0  0  0  0  0  0  # atno 17371 bound_to 10713
  140.6456  133.9778  155.7729 LP  0  0  0  0  0  0  0  0  0  0  0  0  # atno 17394 bound_to 11000
  141.0742  134.0160  157.3482 LP  0  0  0  0  0  0  0  0  0  0  0  0  # atno 17395 bound_to 11000

$$$$
