AV-unprocessed.smi:1961|AV-procd|sdf|7918|dock7
  -GOLD-   2272010 83D 1   1.00000     0.00000
 Structure written by MMmdl.
 36 37  0  0  0  0  0  0  0  0  1 V2000
  151.7221  141.5180  158.0039 C   0  0  0  0  0  0  0  0  0  0  0  0
  150.5227  141.9382  157.1417 C   0  0  0  0  0  0  0  0  0  0  0  0
  149.2725  142.2710  157.9698 C   0  0  0  0  0  0  0  0  0  0  0  0
  150.2334  140.9491  156.0553 C   0  0  0  0  0  0  0  0  0  0  0  0
  151.1721  140.4923  155.2153 N   0  0  0  0  0  0  0  0  0  0  0  0
  150.6637  139.5833  154.2982 N   0  0  0  0  0  0  0  0  0  0  0  0
  149.3511  139.3783  154.4729 C   0  0  0  0  0  0  0  0  0  0  0  0
  148.5771  138.4941  153.6755 N   0  0  0  0  0  0  0  0  0  0  0  0
  147.2382  138.3997  153.5953 C   0  0  0  0  0  0  0  0  0  0  0  0
  146.4360  139.0811  154.2342 O   0  0  0  0  0  0  0  0  0  0  0  0
  146.8703  137.4551  152.7179 N   0  0  0  0  0  0  0  0  0  0  0  0
  145.4911  137.1070  152.3928 C   0  0  0  0  0  0  0  0  0  0  0  0
  145.4072  135.9183  151.4194 C   0  0  2  0  0  0  0  0  0  0  0  0
  144.0190  135.2862  151.2949 C   0  0  0  0  0  0  0  0  0  0  0  0
  144.3076  133.8287  150.9621 C   0  0  0  0  0  0  0  0  0  0  0  0
  145.8226  133.6956  151.1332 C   0  0  0  0  0  0  0  0  0  0  0  0
  146.2011  134.8390  151.8845 O   0  0  0  0  0  0  0  0  0  0  0  0
  148.6228  140.2920  155.7825 S   0  0  0  0  0  0  0  0  0  0  0  0
  152.6126  141.3707  157.3920 H   0  0  0  0  0  0  0  0  0  0  0  0
  151.5233  140.5857  158.5336 H   0  0  0  0  0  0  0  0  0  0  0  0
  151.9556  142.2794  158.7487 H   0  0  0  0  0  0  0  0  0  0  0  0
  150.8145  142.8638  156.6440 H   0  0  0  0  0  0  0  0  0  0  0  0
  148.4700  142.6470  157.3344 H   0  0  0  0  0  0  0  0  0  0  0  0
  149.4876  143.0357  158.7166 H   0  0  0  0  0  0  0  0  0  0  0  0
  148.8984  141.3911  158.4944 H   0  0  0  0  0  0  0  0  0  0  0  0
  149.1060  137.8659  153.0887 H   0  0  0  0  0  0  0  0  0  0  0  0
  147.5940  136.9414  152.2370 H   0  0  0  0  0  0  0  0  0  0  0  0
  144.9364  136.8860  153.3062 H   0  0  0  0  0  0  0  0  0  0  0  0
  145.0168  137.9835  151.9506 H   0  0  0  0  0  0  0  0  0  0  0  0
  145.7707  136.2101  150.4321 H   0  0  0  0  0  0  0  0  0  0  0  0
  143.4866  135.3435  152.2454 H   0  0  0  0  0  0  0  0  0  0  0  0
  143.4076  135.7797  150.5389 H   0  0  0  0  0  0  0  0  0  0  0  0
  143.7756  133.1701  151.6495 H   0  0  0  0  0  0  0  0  0  0  0  0
  144.0028  133.5713  149.9471 H   0  0  0  0  0  0  0  0  0  0  0  0
  146.1101  132.7731  151.6381 H   0  0  0  0  0  0  0  0  0  0  0  0
  146.3224  133.7236  150.1635 H   0  0  0  0  0  0  0  0  0  0  0  0
  1  2  1  0  0  0  0
  1 19  1  0  0  0  0
  1 20  1  0  0  0  0
  1 21  1  0  0  0  0
  2  3  1  0  0  0  0
  2  4  1  0  0  0  0
  2 22  1  0  0  0  0
  3 23  1  0  0  0  0
  3 24  1  0  0  0  0
  3 25  1  0  0  0  0
  4 18  1  0  0  0  0
  4  5  2  0  0  0  0
  5  6  1  0  0  0  0
  6  7  2  0  0  0  0
  7  8  1  0  0  0  0
  7 18  1  0  0  0  0
  8  9  1  0  0  0  0
  8 26  1  0  0  0  0
  9 10  2  0  0  0  0
  9 11  1  0  0  0  0
 11 12  1  0  0  0  0
 11 27  1  0  0  0  0
 12 13  1  0  0  0  0
 12 28  1  0  0  0  0
 12 29  1  0  0  0  0
 13 17  1  0  0  0  0
 13 14  1  0  0  0  0
 13 30  1  0  0  0  0
 14 15  1  0  0  0  0
 14 31  1  0  0  0  0
 14 32  1  0  0  0  0
 15 16  1  0  0  0  0
 15 33  1  0  0  0  0
 15 34  1  0  0  0  0
 16 17  1  0  0  0  0
 16 35  1  0  0  0  0
 16 36  1  0  0  0  0
M  END
> <s_m_source_file>
AV-unprocessed.smi

> <i_m_source_file_index>
1961

> <i_lp_mmshare_version>
43012

> <i_f3d_flags>
0

> <s_epik_input>
W0NIM11bQ0hdKFtDSDNdKWMxbm5jKHMxKVtOSF1DKD1PKVtOSF1bQ0gyXVtDQEBIXTJbQ0gyXVtDSDJdW0NIMl1PMg==

> <s_epik_cmdline>
J2VwaWtfcHl0aG9uJywgJy1waCcsICc3LjAnLCAnLXRuJywgJzgnLCAnLW1hJywgJzIwMCcsICctbWV0YWxfYmluZGluZycsICctaW1hZScsICc8aW5maWxlLm1hZT4nLCAnLW9tYWUnLCAnPG91dGZpbGUubWFlPic=

> <r_lp_tautomer_probability>
1

> <r_epik_Ionization_Penalty>
0.000505257

> <r_epik_Ionization_Penalty_Charging>
0

> <r_epik_Ionization_Penalty_Neutral>
0.000505257

> <r_epik_State_Penalty>
-0

> <r_epik_Charging_Adjusted_Penalty>
0

> <i_epik_Tot_Q>
0

> <i_epik_Tot_abs_Q>
0

> <r_epik_Metal_State_Penalty>
0.219912

> <b_epik_Metal_Only>
0

> <s_lp_Force_Field>
OPLS_2005

> <r_lp_Energy>
10.186

> <b_lp_Chiralities_Consistent>
1

> <s_lp_Variant>
AV-unprocessed.smi:1961-1

> <Gold.Version>
5.8.1

> <Gold.Id.Protein>
6NUR|6NUR_protein|mol2

> <Gold.PLP.Fitness>
34.1732

> <Gold.PLP.PLP>
-28.8673

> <Gold.PLP.part.hbond>
-4.9720

> <Gold.PLP.part.metal>
0.0000

> <Gold.PLP.part.buried>
-5.2167

> <Gold.PLP.part.nonpolar>
-20.9292

> <Gold.PLP.part.repulsive>
1.4001

> <Gold.PLP.ligand.clash>
0.0000

> <Gold.PLP.ligand.torsion>
0.2076

> <Gold.PLP.Chemscore.Hbond>
1.8800

> <Gold.PLP.Chemscore.CHOScore>
0.0000

> <Gold.PLP.Chemscore.Metal>
0.0000

> <Gold.Chemscore.Hbonds>
donor molecule, donor type, donor heavy atom, donor atom, acceptor molecule, acceptor atom, score
      L1  H     8    26       P1  7948  0.90
      L1  H    11    27       P1  7948  1.00

> <Gold.PLP.Chemscore.Internal.Correction>
0.0810

> <Gold.Rescore>
     Score         DG    S(hbond)    S(metal)    S(lipo)     H(rot)  DE(clash)    DE(int)     intcor
     13.55     -14.99       1.97        0.00      56.84       1.45       0.07       1.37       ----

> <Gold.Chemscore.Fitness>
13.5544

> <Gold.Chemscore.DG>
-14.9931

> <Gold.Chemscore.ZeroCoef>
-5.4800

> <Gold.Chemscore.Hbond>
1.9654

> <Gold.Chemscore.Metal>
0.0000

> <Gold.Chemscore.Lipo>
56.8414

> <Gold.Chemscore.Internal_Hbond>
0.0000

> <Gold.Chemscore.DEClash>
0.0703

> <Gold.Chemscore.DEInternal>
1.3683

> <Gold.Chemscore.Rot>
1.4461

> <Gold.Chemscore.Internal.Correction>
   9.000000E+99

> <Gold.Chemscore.Hbonds>
donor molecule, donor type, donor heavy atom, donor atom, acceptor molecule, acceptor atom, score
      L1  H     8    26       P1  7948  0.83
      L1  H    11    27       P1  7948  0.97

> <Gold.Chemscore.Hbond.Weighted>
-6.5645

> <Gold.Chemscore.Metal.Weighted>
-0.0000

> <Gold.Chemscore.Lipo.Weighted>
-6.6504

> <Gold.Chemscore.Internal_Hbond.Weighted>
0.0000

> <Gold.Chemscore.DEClash.Weighted>
0.0703

> <Gold.Chemscore.DEInternal.Weighted>
1.3683

> <Gold.Chemscore.Rot.Weighted>
3.7019

> <Gold.Chemscore.Internal.Correction.Weighted>
   9.000000E+99

> <Gold.Protein.RotatedTorsions>
[ 6907 6896 6895 6894 ] final   40.76 input  -60.11 | X-H torsion
[ 7974 7965 7964 7962 ] final    5.35 input  175.53 | X-H torsion
[ 8008 7997 7996 7995 ] final    8.28 input   59.86 | X-H torsion
[ 10167 10162 10161 10158 ] final   86.64 input  -65.29 | X-H torsion
[ 10718 10713 10712 10709 ] final   -1.24 input   66.30 | X-H torsion
[ 10763 10752 10751 10750 ] final -115.66 input  -60.55 | X-H torsion
[ 11005 11000 10999 10996 ] final  107.66 input  -57.11 | X-H torsion

> <Gold.Protein.ActiveResidues>
 VAL166  LYS551  ARG553  GLY616  TRP617  ASP618  TYR619  PRO620  LYS621  CYS622 
 ASP623  PHE694  ASN695  SER759  ASP760  ASP761  ALA762  ILE779  LEU786  VAL792 
 PHE793  MET794  SER795  GLU796  ALA797  LYS798  CYS799  TRP800  GLU811  SER814 

> <Gold.Protein.RotatedAtoms>
  152.1866  134.8708  160.0521 H   0  0  0  0  0  0  0  0  0  0  0  0  # atno 6907 bound_to 6896
  151.9612  133.3691  159.4044 H   0  0  0  0  0  0  0  0  0  0  0  0  # atno 6908 bound_to 6896
  150.6927  134.4162  159.5228 H   0  0  0  0  0  0  0  0  0  0  0  0  # atno 6909 bound_to 6896
  146.2441  140.0398  142.8383 H   0  0  0  0  0  0  0  0  0  0  0  0  # atno 7974 bound_to 7965
  154.7648  140.2791  155.6185 H   0  0  0  0  0  0  0  0  0  0  0  0  # atno 8008 bound_to 7997
  156.2922  140.2653  156.2363 H   0  0  0  0  0  0  0  0  0  0  0  0  # atno 8009 bound_to 7997
  154.9972  140.0373  157.2334 H   0  0  0  0  0  0  0  0  0  0  0  0  # atno 8010 bound_to 7997
  139.8854  144.6416  150.8797 H   0  0  0  0  0  0  0  0  0  0  0  0  # atno 10167 bound_to 10162
  156.8085  130.5417  149.5712 H   0  0  0  0  0  0  0  0  0  0  0  0  # atno 10718 bound_to 10713
  154.8489  135.4374  154.1697 H   0  0  0  0  0  0  0  0  0  0  0  0  # atno 10763 bound_to 10752
  153.2814  135.6954  153.7388 H   0  0  0  0  0  0  0  0  0  0  0  0  # atno 10764 bound_to 10752
  153.6591  135.3438  155.3097 H   0  0  0  0  0  0  0  0  0  0  0  0  # atno 10765 bound_to 10752
  139.8831  134.9407  156.5853 H   0  0  0  0  0  0  0  0  0  0  0  0  # atno 11005 bound_to 11000
  145.1080  140.9387  143.4673 LP  0  0  0  0  0  0  0  0  0  0  0  0  # atno 17320 bound_to 7965
  145.0605  139.3109  143.5883 LP  0  0  0  0  0  0  0  0  0  0  0  0  # atno 17321 bound_to 7965
  140.7737  143.3552  151.1935 LP  0  0  0  0  0  0  0  0  0  0  0  0  # atno 17342 bound_to 10162
  139.7158  143.9303  152.2966 LP  0  0  0  0  0  0  0  0  0  0  0  0  # atno 17343 bound_to 10162
  156.1058  130.6003  150.9968 LP  0  0  0  0  0  0  0  0  0  0  0  0  # atno 17370 bound_to 10713
  157.6517  131.0896  150.8035 LP  0  0  0  0  0  0  0  0  0  0  0  0  # atno 17371 bound_to 10713
  140.7996  133.8516  155.8715 LP  0  0  0  0  0  0  0  0  0  0  0  0  # atno 17394 bound_to 11000
  140.9604  134.1662  157.4658 LP  0  0  0  0  0  0  0  0  0  0  0  0  # atno 17395 bound_to 11000

$$$$
