AV-unprocessed.smi:842|AV-procd|sdf|3918|dock3
  -GOLD-   22720 1383D 1   1.00000     0.00000
 Structure written by MMmdl.
 42 43  0  0  0  0  0  0  0  0  1 V2000
  145.8353  135.0261  151.5680 C   0  0  0  0  0  0  0  0  0  0  0  0
  145.5127  136.4043  150.9728 C   0  0  0  0  0  0  0  0  0  0  0  0
  145.5933  137.5561  151.9970 C   0  0  1  0  0  0  0  0  0  0  0  0
  144.6629  137.3744  153.2125 C   0  0  0  0  0  0  0  0  0  0  0  0
  143.3008  137.4967  152.8547 O   0  0  0  0  0  0  0  0  0  0  0  0
  146.9675  137.7704  152.4518 N   0  0  0  0  0  0  0  0  0  0  0  0
  147.3631  138.6396  153.3937 C   0  0  0  0  0  0  0  0  0  0  0  0
  146.5932  139.3745  154.0115 O   0  0  0  0  0  0  0  0  0  0  0  0
  148.6935  138.5815  153.5762 N   0  0  0  0  0  0  0  0  0  0  0  0
  149.5002  139.3538  154.4555 C   0  0  0  0  0  0  0  0  0  0  0  0
  150.8495  139.0591  154.7648 C   0  0  0  0  0  0  0  0  0  0  0  0
  151.5378  139.8897  155.6697 C   0  0  0  0  0  0  0  0  0  0  0  0
  150.8596  140.9854  156.2414 C   0  0  0  0  0  0  0  0  0  0  0  0
  151.5497  141.8091  157.1437 N   0  0  0  0  0  0  0  0  0  0  0  0
  150.7576  142.8439  157.7879 C   0  0  0  0  0  0  0  0  0  0  0  0
  151.6067  143.3312  158.9644 C   0  0  0  0  0  0  0  0  0  0  0  0
  152.5720  142.1758  159.2571 C   0  0  0  0  0  0  0  0  0  0  0  0
  152.2318  141.1050  158.2164 C   0  0  0  0  0  0  0  0  0  0  0  0
  149.5645  141.2650  155.9605 N   0  0  0  0  0  0  0  0  0  0  0  0
  148.9092  140.4634  155.0943 C   0  0  0  0  0  0  0  0  0  0  0  0
  145.8109  134.2569  150.7962 H   0  0  0  0  0  0  0  0  0  0  0  0
  145.1160  134.7433  152.3369 H   0  0  0  0  0  0  0  0  0  0  0  0
  146.8284  135.0144  152.0174 H   0  0  0  0  0  0  0  0  0  0  0  0
  146.2103  136.6028  150.1583 H   0  0  0  0  0  0  0  0  0  0  0  0
  144.5202  136.3704  150.5220 H   0  0  0  0  0  0  0  0  0  0  0  0
  145.2447  138.4549  151.4856 H   0  0  0  0  0  0  0  0  0  0  0  0
  144.8282  136.4071  153.6885 H   0  0  0  0  0  0  0  0  0  0  0  0
  144.8816  138.1354  153.9622 H   0  0  0  0  0  0  0  0  0  0  0  0
  143.0520  138.4056  152.9257 H   0  0  0  0  0  0  0  0  0  0  0  0
  147.6750  137.2035  152.0078 H   0  0  0  0  0  0  0  0  0  0  0  0
  149.1817  137.8665  153.0568 H   0  0  0  0  0  0  0  0  0  0  0  0
  151.3641  138.2106  154.3419 H   0  0  0  0  0  0  0  0  0  0  0  0
  152.5682  139.6847  155.9213 H   0  0  0  0  0  0  0  0  0  0  0  0
  150.5302  143.6534  157.0938 H   0  0  0  0  0  0  0  0  0  0  0  0
  149.8132  142.4371  158.1522 H   0  0  0  0  0  0  0  0  0  0  0  0
  152.1699  144.2214  158.6811 H   0  0  0  0  0  0  0  0  0  0  0  0
  150.9902  143.5877  159.8262 H   0  0  0  0  0  0  0  0  0  0  0  0
  153.6020  142.5124  159.1334 H   0  0  0  0  0  0  0  0  0  0  0  0
  152.4662  141.7945  160.2731 H   0  0  0  0  0  0  0  0  0  0  0  0
  151.5765  140.3504  158.6544 H   0  0  0  0  0  0  0  0  0  0  0  0
  153.1274  140.6024  157.8500 H   0  0  0  0  0  0  0  0  0  0  0  0
  147.8776  140.7214  154.9028 H   0  0  0  0  0  0  0  0  0  0  0  0
  1  2  1  0  0  0  0
  1 21  1  0  0  0  0
  1 22  1  0  0  0  0
  1 23  1  0  0  0  0
  2  3  1  0  0  0  0
  2 24  1  0  0  0  0
  2 25  1  0  0  0  0
  3  4  1  0  0  0  0
  3  6  1  0  0  0  0
  3 26  1  0  0  0  0
  4  5  1  0  0  0  0
  4 27  1  0  0  0  0
  4 28  1  0  0  0  0
  5 29  1  0  0  0  0
  6  7  1  0  0  0  0
  6 30  1  0  0  0  0
  7  8  2  0  0  0  0
  7  9  1  0  0  0  0
  9 10  1  0  0  0  0
  9 31  1  0  0  0  0
 10 20  1  0  0  0  0
 10 11  2  0  0  0  0
 11 12  1  0  0  0  0
 11 32  1  0  0  0  0
 12 13  2  0  0  0  0
 12 33  1  0  0  0  0
 13 14  1  0  0  0  0
 13 19  1  0  0  0  0
 14 18  1  0  0  0  0
 14 15  1  0  0  0  0
 15 16  1  0  0  0  0
 15 34  1  0  0  0  0
 15 35  1  0  0  0  0
 16 17  1  0  0  0  0
 16 36  1  0  0  0  0
 16 37  1  0  0  0  0
 17 18  1  0  0  0  0
 17 38  1  0  0  0  0
 17 39  1  0  0  0  0
 18 40  1  0  0  0  0
 18 41  1  0  0  0  0
 19 20  2  0  0  0  0
 20 42  1  0  0  0  0
M  END
> <s_m_source_file>
AV-unprocessed.smi

> <i_m_source_file_index>
842

> <i_lp_mmshare_version>
43012

> <i_f3d_flags>
0

> <s_epik_input>
W0NIM11bQ0gyXVtDQEhdKFtDSDJdW09IXSlbTkhdQyg9TylbTkhdYzFbY0hdW2NIXWMobltjSF0xKU4yW0NIMl1bQ0gyXVtDSDJdW0NIMl0y

> <s_epik_cmdline>
J2VwaWtfcHl0aG9uJywgJy1waCcsICc3LjAnLCAnLXRuJywgJzgnLCAnLW1hJywgJzIwMCcsICctbWV0YWxfYmluZGluZycsICctaW1hZScsICc8aW5maWxlLm1hZT4nLCAnLW9tYWUnLCAnPG91dGZpbGUubWFlPic=

> <r_lp_tautomer_probability>
1

> <r_epik_Ionization_Penalty>
0.0996525

> <r_epik_Ionization_Penalty_Charging>
0

> <r_epik_Ionization_Penalty_Neutral>
0.0996525

> <r_epik_State_Penalty>
0.0891422

> <r_epik_Charging_Adjusted_Penalty>
0.0891422

> <i_epik_Tot_Q>
0

> <i_epik_Tot_abs_Q>
0

> <r_epik_Metal_State_Penalty>
0.07624

> <b_epik_Metal_Only>
0

> <s_lp_Force_Field>
OPLS_2005

> <r_lp_Energy>
38.339

> <b_lp_Chiralities_Consistent>
1

> <s_lp_Variant>
AV-unprocessed.smi:842-2

> <Gold.Version>
5.8.1

> <Gold.Id.Protein>
6NUR|6NUR_protein|mol2

> <Gold.PLP.Fitness>
43.0809

> <Gold.PLP.PLP>
-34.8854

> <Gold.PLP.part.hbond>
-4.9456

> <Gold.PLP.part.metal>
0.0000

> <Gold.PLP.part.buried>
2.2976

> <Gold.PLP.part.nonpolar>
-33.3953

> <Gold.PLP.part.repulsive>
0.4188

> <Gold.PLP.ligand.clash>
0.0000

> <Gold.PLP.ligand.torsion>
0.2893

> <Gold.PLP.Chemscore.Hbond>
2.8960

> <Gold.PLP.Chemscore.CHOScore>
0.0000

> <Gold.PLP.Chemscore.Metal>
0.0000

> <Gold.Chemscore.Hbonds>
donor molecule, donor type, donor heavy atom, donor atom, acceptor molecule, acceptor atom, score
      L1  H     5    29       P1 10175  0.62
      L1  H     6    30       P1  7948  1.00
      L1  H     9    31       P1  7948  0.91

> <Gold.PLP.Chemscore.Internal.Correction>
0.0860

> <Gold.Rescore>
     Score         DG    S(hbond)    S(metal)    S(lipo)     H(rot)  DE(clash)    DE(int)     intcor
     15.31     -18.57       2.83        0.00      79.92       2.23       0.13       3.12       ----

> <Gold.Chemscore.Fitness>
15.3134

> <Gold.Chemscore.DG>
-18.5712

> <Gold.Chemscore.ZeroCoef>
-5.4800

> <Gold.Chemscore.Hbond>
2.8271

> <Gold.Chemscore.Metal>
0.0000

> <Gold.Chemscore.Lipo>
79.9233

> <Gold.Chemscore.Internal_Hbond>
0.0000

> <Gold.Chemscore.DEClash>
0.1329

> <Gold.Chemscore.DEInternal>
3.1249

> <Gold.Chemscore.Rot>
2.2274

> <Gold.Chemscore.Internal.Correction>
   9.000000E+99

> <Gold.Chemscore.Hbonds>
donor molecule, donor type, donor heavy atom, donor atom, acceptor molecule, acceptor atom, score
      L1  H     5    29       P1 10175  0.61
      L1  H     6    30       P1  7948  0.98
      L1  H     9    31       P1  7948  0.84

> <Gold.Chemscore.Hbond.Weighted>
-9.4424

> <Gold.Chemscore.Metal.Weighted>
-0.0000

> <Gold.Chemscore.Lipo.Weighted>
-9.3510

> <Gold.Chemscore.Internal_Hbond.Weighted>
0.0000

> <Gold.Chemscore.DEClash.Weighted>
0.1329

> <Gold.Chemscore.DEInternal.Weighted>
3.1249

> <Gold.Chemscore.Rot.Weighted>
5.7022

> <Gold.Chemscore.Internal.Correction.Weighted>
   9.000000E+99

> <Gold.Protein.RotatedTorsions>
[ 6907 6896 6895 6894 ] final  171.08 input  -60.11 | X-H torsion
[ 7974 7965 7964 7962 ] final    3.00 input  175.53 | X-H torsion
[ 8008 7997 7996 7995 ] final -139.38 input   59.86 | X-H torsion
[ 10167 10162 10161 10158 ] final  -92.56 input  -65.29 | X-H torsion
[ 10718 10713 10712 10709 ] final  -85.28 input   66.30 | X-H torsion
[ 10763 10752 10751 10750 ] final  -44.81 input  -60.55 | X-H torsion
[ 11005 11000 10999 10996 ] final  -89.49 input  -57.11 | X-H torsion

> <Gold.Protein.ActiveResidues>
 VAL166  LYS551  ARG553  GLY616  TRP617  ASP618  TYR619  PRO620  LYS621  CYS622 
 ASP623  PHE694  ASN695  SER759  ASP760  ASP761  ALA762  ILE779  LEU786  VAL792 
 PHE793  MET794  SER795  GLU796  ALA797  LYS798  CYS799  TRP800  GLU811  SER814 

> <Gold.Protein.RotatedAtoms>
  151.8059  133.3375  159.3540 H   0  0  0  0  0  0  0  0  0  0  0  0  # atno 6907 bound_to 6896
  150.7342  134.5710  159.5899 H   0  0  0  0  0  0  0  0  0  0  0  0  # atno 6908 bound_to 6896
  152.3110  134.7499  160.0388 H   0  0  0  0  0  0  0  0  0  0  0  0  # atno 6909 bound_to 6896
  146.2445  140.0752  142.8360 H   0  0  0  0  0  0  0  0  0  0  0  0  # atno 7974 bound_to 7965
  155.4439  140.0534  157.3008 H   0  0  0  0  0  0  0  0  0  0  0  0  # atno 8008 bound_to 7997
  154.4806  140.2080  155.9729 H   0  0  0  0  0  0  0  0  0  0  0  0  # atno 8009 bound_to 7997
  156.1200  140.3190  155.8199 H   0  0  0  0  0  0  0  0  0  0  0  0  # atno 8010 bound_to 7997
  140.3335  143.2981  151.9915 H   0  0  0  0  0  0  0  0  0  0  0  0  # atno 10167 bound_to 10162
  155.9998  130.4726  150.4539 H   0  0  0  0  0  0  0  0  0  0  0  0  # atno 10718 bound_to 10713
  154.0182  135.6672  153.4770 H   0  0  0  0  0  0  0  0  0  0  0  0  # atno 10763 bound_to 10752
  153.0591  135.5038  154.8048 H   0  0  0  0  0  0  0  0  0  0  0  0  # atno 10764 bound_to 10752
  154.6954  135.3069  154.9384 H   0  0  0  0  0  0  0  0  0  0  0  0  # atno 10765 bound_to 10752
  141.1583  133.7633  156.9603 H   0  0  0  0  0  0  0  0  0  0  0  0  # atno 11005 bound_to 11000
  145.0781  140.9202  143.4841 LP  0  0  0  0  0  0  0  0  0  0  0  0  # atno 17320 bound_to 7965
  145.0899  139.2897  143.5740 LP  0  0  0  0  0  0  0  0  0  0  0  0  # atno 17321 bound_to 7965
  139.4852  144.6215  151.7246 LP  0  0  0  0  0  0  0  0  0  0  0  0  # atno 17342 bound_to 10162
  140.5375  144.0633  150.6076 LP  0  0  0  0  0  0  0  0  0  0  0  0  # atno 17343 bound_to 10162
  157.2569  131.0558  151.2344 LP  0  0  0  0  0  0  0  0  0  0  0  0  # atno 17370 bound_to 10713
  157.3473  130.7064  149.6418 LP  0  0  0  0  0  0  0  0  0  0  0  0  # atno 17371 bound_to 10713
  140.1198  134.9424  157.2186 LP  0  0  0  0  0  0  0  0  0  0  0  0  # atno 17394 bound_to 11000
  140.3087  134.3048  155.7272 LP  0  0  0  0  0  0  0  0  0  0  0  0  # atno 17395 bound_to 11000

$$$$
