AV-unprocessed.smi:1718|AV-procd|sdf|6924|dock10
  -GOLD-   22720 8133D 1   1.00000     0.00000
 Structure written by MMmdl.
 40 41  0  0  0  0  0  0  0  0  1 V2000
  152.7947  138.4918  158.6617 C   0  0  0  0  0  0  0  0  0  0  0  0
  151.3724  138.8536  158.2082 C   0  0  2  0  0  0  0  0  0  0  0  0
  151.1078  140.1814  158.6489 O   0  0  0  0  0  0  0  0  0  0  0  0
  152.0710  141.1576  158.2650 C   0  0  0  0  0  0  0  0  0  0  0  0
  151.9938  142.3512  159.2264 C   0  0  1  0  0  0  0  0  0  0  0  0
  153.1095  143.3907  159.0386 C   0  0  0  0  0  0  0  0  0  0  0  0
  152.3696  144.6212  158.5512 C   0  0  0  0  0  0  0  0  0  0  0  0
  150.9910  144.4334  159.1692 C   0  0  0  0  0  0  0  0  0  0  0  0
  150.7608  143.0400  159.0335 O   0  0  0  0  0  0  0  0  0  0  0  0
  150.3319  137.8847  158.7932 C   0  0  0  0  0  0  0  0  0  0  0  0
  150.6699  137.0952  159.6747 O   0  0  0  0  0  0  0  0  0  0  0  0
  149.0929  137.9846  158.2717 N   0  0  0  0  0  0  0  0  0  0  0  0
  147.9221  137.2800  158.5998 C   0  0  0  0  0  0  0  0  0  0  0  0
  147.7407  136.5528  159.7335 C   0  0  0  0  0  0  0  0  0  0  0  0
  146.4969  135.8544  160.0121 C   0  0  0  0  0  0  0  0  0  0  0  0
  146.3372  134.9732  161.2416 C   0  0  0  0  0  0  0  0  0  0  0  0
  145.0920  134.5065  161.3444 F   0  0  0  0  0  0  0  0  0  0  0  0
  147.1713  133.9343  161.1966 F   0  0  0  0  0  0  0  0  0  0  0  0
  146.6090  135.6759  162.3403 F   0  0  0  0  0  0  0  0  0  0  0  0
  145.5287  135.9595  159.0833 C   0  0  0  0  0  0  0  0  0  0  0  0
  145.6977  136.7248  157.9274 N   0  0  0  0  0  0  0  0  0  0  0  0
  146.8299  137.3963  157.6193 C   0  0  0  0  0  0  0  0  0  0  0  0
  146.9006  138.0491  156.5786 O   0  0  0  0  0  0  0  0  0  0  0  0
  144.9177  136.7679  157.2874 H   0  0  0  0  0  0  0  0  0  0  0  0
  153.0584  137.4755  158.3670 H   0  0  0  0  0  0  0  0  0  0  0  0
  152.9039  138.5668  159.7445 H   0  0  0  0  0  0  0  0  0  0  0  0
  153.5248  139.1649  158.2119 H   0  0  0  0  0  0  0  0  0  0  0  0
  151.3437  138.8196  157.1171 H   0  0  0  0  0  0  0  0  0  0  0  0
  153.0728  140.7263  158.2843 H   0  0  0  0  0  0  0  0  0  0  0  0
  151.8862  141.5063  157.2485 H   0  0  0  0  0  0  0  0  0  0  0  0
  152.0161  141.9852  160.2537 H   0  0  0  0  0  0  0  0  0  0  0  0
  153.5865  143.5985  159.9971 H   0  0  0  0  0  0  0  0  0  0  0  0
  153.8875  143.0728  158.3436 H   0  0  0  0  0  0  0  0  0  0  0  0
  152.8484  145.5548  158.8479 H   0  0  0  0  0  0  0  0  0  0  0  0
  152.2940  144.6044  157.4631 H   0  0  0  0  0  0  0  0  0  0  0  0
  150.9988  144.7007  160.2269 H   0  0  0  0  0  0  0  0  0  0  0  0
  150.2201  145.0198  158.6691 H   0  0  0  0  0  0  0  0  0  0  0  0
  148.9845  138.6420  157.5123 H   0  0  0  0  0  0  0  0  0  0  0  0
  148.5130  136.4836  160.4813 H   0  0  0  0  0  0  0  0  0  0  0  0
  144.5682  135.4697  159.1474 H   0  0  0  0  0  0  0  0  0  0  0  0
  1  2  1  0  0  0  0
  1 25  1  0  0  0  0
  1 26  1  0  0  0  0
  1 27  1  0  0  0  0
  2  3  1  0  0  0  0
  2 10  1  0  0  0  0
  2 28  1  0  0  0  0
  3  4  1  0  0  0  0
  4  5  1  0  0  0  0
  4 29  1  0  0  0  0
  4 30  1  0  0  0  0
  5  9  1  0  0  0  0
  5  6  1  0  0  0  0
  5 31  1  0  0  0  0
  6  7  1  0  0  0  0
  6 32  1  0  0  0  0
  6 33  1  0  0  0  0
  7  8  1  0  0  0  0
  7 34  1  0  0  0  0
  7 35  1  0  0  0  0
  8  9  1  0  0  0  0
  8 36  1  0  0  0  0
  8 37  1  0  0  0  0
 10 11  2  0  0  0  0
 10 12  1  0  0  0  0
 12 13  1  0  0  0  0
 12 38  1  0  0  0  0
 13 22  1  0  0  0  0
 13 14  2  0  0  0  0
 14 15  1  0  0  0  0
 14 39  1  0  0  0  0
 15 16  1  0  0  0  0
 15 20  2  0  0  0  0
 16 17  1  0  0  0  0
 16 18  1  0  0  0  0
 16 19  1  0  0  0  0
 20 21  1  0  0  0  0
 20 40  1  0  0  0  0
 21 24  1  0  0  0  0
 21 22  1  0  0  0  0
 22 23  2  0  0  0  0
M  END
> <s_m_source_file>
AV-unprocessed.smi

> <i_m_source_file_index>
1718

> <i_lp_mmshare_version>
43012

> <i_f3d_flags>
0

> <s_epik_input>
TzFbQ0gyXVtDSDJdW0NIMl1bQ0BIXTFbQ0gyXU9bQ0BASF0oW0NIM10pQyg9TylbTkhdYzJbY0hdYyhDKEYpKEYpRilbY0hdW25IXWMyPU8=

> <s_epik_cmdline>
J2VwaWtfcHl0aG9uJywgJy1waCcsICc3LjAnLCAnLXRuJywgJzgnLCAnLW1hJywgJzIwMCcsICctbWV0YWxfYmluZGluZycsICctaW1hZScsICc8aW5maWxlLm1hZT4nLCAnLW9tYWUnLCAnPG91dGZpbGUubWFlPic=

> <r_lp_tautomer_probability>
0.999

> <r_epik_Ionization_Penalty>
0.00894336

> <r_epik_Ionization_Penalty_Charging>
0.00894326

> <r_epik_Ionization_Penalty_Neutral>
1.00145e-07

> <r_epik_State_Penalty>
0.00676626

> <r_epik_Charging_Adjusted_Penalty>
0.0157095

> <i_epik_Tot_Q>
0

> <i_epik_Tot_abs_Q>
0

> <r_epik_Metal_State_Penalty>
0.321145

> <b_epik_Metal_Only>
0

> <s_lp_Force_Field>
OPLS_2005

> <r_lp_Energy>
34.3894

> <b_lp_Chiralities_Consistent>
1

> <s_lp_Variant>
AV-unprocessed.smi:1718-3

> <Gold.Version>
5.8.1

> <Gold.Id.Protein>
6NUR|6NUR_protein|mol2

> <Gold.PLP.Fitness>
42.2145

> <Gold.PLP.PLP>
-41.2795

> <Gold.PLP.part.hbond>
-1.4271

> <Gold.PLP.part.metal>
0.0000

> <Gold.PLP.part.buried>
-6.1595

> <Gold.PLP.part.nonpolar>
-35.0880

> <Gold.PLP.part.repulsive>
0.2712

> <Gold.PLP.ligand.clash>
0.9792

> <Gold.PLP.ligand.torsion>
0.5712

> <Gold.PLP.Chemscore.Hbond>
1.0000

> <Gold.PLP.Chemscore.CHOScore>
0.0000

> <Gold.PLP.Chemscore.Metal>
0.0000

> <Gold.Chemscore.Hbonds>
donor molecule, donor type, donor heavy atom, donor atom, acceptor molecule, acceptor atom, score
      P1  H  6896  6908       L1    11  0.93

> <Gold.PLP.Chemscore.Internal.Correction>
0.0567

> <Gold.Rescore>
     Score         DG    S(hbond)    S(metal)    S(lipo)     H(rot)  DE(clash)    DE(int)     intcor
     13.21     -14.84       1.00        0.00      92.63       1.88       0.00       1.63       ----

> <Gold.Chemscore.Fitness>
13.2111

> <Gold.Chemscore.DG>
-14.8447

> <Gold.Chemscore.ZeroCoef>
-5.4800

> <Gold.Chemscore.Hbond>
0.9992

> <Gold.Chemscore.Metal>
0.0000

> <Gold.Chemscore.Lipo>
92.6273

> <Gold.Chemscore.Internal_Hbond>
0.0000

> <Gold.Chemscore.DEClash>
0.0014

> <Gold.Chemscore.DEInternal>
1.6321

> <Gold.Chemscore.Rot>
1.8790

> <Gold.Chemscore.Internal.Correction>
   9.000000E+99

> <Gold.Chemscore.Hbonds>
donor molecule, donor type, donor heavy atom, donor atom, acceptor molecule, acceptor atom, score
      P1  H  6896  6908       L1    11  0.89

> <Gold.Chemscore.Hbond.Weighted>
-3.3374

> <Gold.Chemscore.Metal.Weighted>
-0.0000

> <Gold.Chemscore.Lipo.Weighted>
-10.8374

> <Gold.Chemscore.Internal_Hbond.Weighted>
0.0000

> <Gold.Chemscore.DEClash.Weighted>
0.0014

> <Gold.Chemscore.DEInternal.Weighted>
1.6321

> <Gold.Chemscore.Rot.Weighted>
4.8102

> <Gold.Chemscore.Internal.Correction.Weighted>
   9.000000E+99

> <Gold.Protein.RotatedTorsions>
[ 6907 6896 6895 6894 ] final -140.02 input  -60.11 | X-H torsion
[ 7974 7965 7964 7962 ] final -156.41 input  175.53 | X-H torsion
[ 8008 7997 7996 7995 ] final   40.34 input   59.86 | X-H torsion
[ 10167 10162 10161 10158 ] final -105.86 input  -65.29 | X-H torsion
[ 10718 10713 10712 10709 ] final  113.97 input   66.30 | X-H torsion
[ 10763 10752 10751 10750 ] final   42.44 input  -60.55 | X-H torsion
[ 11005 11000 10999 10996 ] final  -22.11 input  -57.11 | X-H torsion

> <Gold.Protein.ActiveResidues>
 VAL166  LYS551  ARG553  GLY616  TRP617  ASP618  TYR619  PRO620  LYS621  CYS622 
 ASP623  PHE694  ASN695  SER759  ASP760  ASP761  ALA762  ILE779  LEU786  VAL792 
 PHE793  MET794  SER795  GLU796  ALA797  LYS798  CYS799  TRP800  GLU811  SER814 

> <Gold.Protein.RotatedAtoms>
  151.0553  133.5589  159.2638 H   0  0  0  0  0  0  0  0  0  0  0  0  # atno 6907 bound_to 6896
  151.2585  135.0645  159.9099 H   0  0  0  0  0  0  0  0  0  0  0  0  # atno 6908 bound_to 6896
  152.5389  134.0303  159.8075 H   0  0  0  0  0  0  0  0  0  0  0  0  # atno 6909 bound_to 6896
  144.7594  140.4114  143.5987 H   0  0  0  0  0  0  0  0  0  0  0  0  # atno 7974 bound_to 7965
  155.2515  140.3353  155.4282 H   0  0  0  0  0  0  0  0  0  0  0  0  # atno 8008 bound_to 7997
  156.2214  140.1810  156.7512 H   0  0  0  0  0  0  0  0  0  0  0  0  # atno 8009 bound_to 7997
  154.5830  140.0650  156.9117 H   0  0  0  0  0  0  0  0  0  0  0  0  # atno 8010 bound_to 7997
  140.1940  143.3870  152.1183 H   0  0  0  0  0  0  0  0  0  0  0  0  # atno 10167 bound_to 10162
  157.6308  131.0991  150.7118 H   0  0  0  0  0  0  0  0  0  0  0  0  # atno 10718 bound_to 10713
  152.9883  135.6132  154.2949 H   0  0  0  0  0  0  0  0  0  0  0  0  # atno 10763 bound_to 10752
  154.2673  135.2780  155.2755 H   0  0  0  0  0  0  0  0  0  0  0  0  # atno 10764 bound_to 10752
  154.5153  135.5829  153.6694 H   0  0  0  0  0  0  0  0  0  0  0  0  # atno 10765 bound_to 10752
  140.8626  133.7777  156.0092 H   0  0  0  0  0  0  0  0  0  0  0  0  # atno 11005 bound_to 11000
  145.6668  139.1591  143.2777 LP  0  0  0  0  0  0  0  0  0  0  0  0  # atno 17320 bound_to 7965
  146.1641  140.6744  142.9263 LP  0  0  0  0  0  0  0  0  0  0  0  0  # atno 17321 bound_to 7965
  139.5244  144.7083  151.5285 LP  0  0  0  0  0  0  0  0  0  0  0  0  # atno 17342 bound_to 10162
  140.6436  143.8839  150.6716 LP  0  0  0  0  0  0  0  0  0  0  0  0  # atno 17343 bound_to 10162
  156.7458  130.4753  149.5467 LP  0  0  0  0  0  0  0  0  0  0  0  0  # atno 17370 bound_to 10713
  156.1510  130.6310  151.0596 LP  0  0  0  0  0  0  0  0  0  0  0  0  # atno 17371 bound_to 10713
  140.8666  134.2777  157.5210 LP  0  0  0  0  0  0  0  0  0  0  0  0  # atno 17394 bound_to 11000
  139.8707  134.9545  156.4179 LP  0  0  0  0  0  0  0  0  0  0  0  0  # atno 17395 bound_to 11000

$$$$
