AV-unprocessed.smi:451|AV-procd|sdf|2609|dock9
  -GOLD-   2262023 03D 1   1.00000     0.00000
 Structure written by MMmdl.
 38 38  0  0  0  0  0  0  0  0  1 V2000
  151.9706  145.3641  159.0897 C   0  0  0  0  0  0  0  0  0  0  0  0
  152.0340  144.0516  159.8820 C   0  0  0  0  0  0  0  0  0  0  0  0
  153.2823  143.1920  159.5968 C   0  0  0  0  0  0  0  0  0  0  0  0
  153.0184  141.7646  159.5504 N   0  0  0  0  0  0  0  0  0  0  0  0
  152.1410  141.1803  158.6322 C   0  0  0  0  0  0  0  0  0  0  0  0
  151.4839  142.0144  157.7404 N   0  0  0  0  0  0  0  0  0  0  0  0
  151.9120  139.8341  158.6033 C   0  0  0  0  0  0  0  0  0  0  0  0
  151.0536  139.2208  157.6921 N   0  0  0  0  0  0  0  0  0  0  0  0
  150.8397  137.7784  157.6985 C   0  0  0  0  0  0  0  0  0  0  0  0
  150.4076  139.9667  156.6146 C   0  0  0  0  0  0  0  0  0  0  0  0
  150.7144  139.3722  155.2276 C   0  0  0  0  0  0  0  0  0  0  0  0
  150.3878  140.2732  154.1784 O   0  0  0  0  0  0  0  0  0  0  0  0
  149.1281  140.9096  154.3275 C   0  0  0  0  0  0  0  0  0  0  0  0
  152.6011  138.9465  159.5488 C   0  0  0  0  0  0  0  0  0  0  0  0
  152.4801  137.7231  159.6061 O   0  0  0  0  0  0  0  0  0  0  0  0
  153.4649  139.5855  160.4343 N   0  0  0  0  0  0  0  0  0  0  0  0
  153.7125  140.9524  160.4802 C   0  0  0  0  0  0  0  0  0  0  0  0
  154.5151  141.3891  161.3057 O   0  0  0  0  0  0  0  0  0  0  0  0
  153.9590  139.0044  161.0955 H   0  0  0  0  0  0  0  0  0  0  0  0
  151.1039  145.9540  159.3881 H   0  0  0  0  0  0  0  0  0  0  0  0
  151.8883  145.1801  158.0184 H   0  0  0  0  0  0  0  0  0  0  0  0
  152.8606  145.9705  159.2606 H   0  0  0  0  0  0  0  0  0  0  0  0
  152.0127  144.2868  160.9464 H   0  0  0  0  0  0  0  0  0  0  0  0
  151.1316  143.4720  159.6865 H   0  0  0  0  0  0  0  0  0  0  0  0
  153.7795  143.4958  158.6749 H   0  0  0  0  0  0  0  0  0  0  0  0
  154.0339  143.3309  160.3741 H   0  0  0  0  0  0  0  0  0  0  0  0
  151.6288  143.0138  157.7471 H   0  0  0  0  0  0  0  0  0  0  0  0
  150.8530  141.6555  157.0385 H   0  0  0  0  0  0  0  0  0  0  0  0
  151.0838  137.3559  158.6740 H   0  0  0  0  0  0  0  0  0  0  0  0
  151.4665  137.2893  156.9530 H   0  0  0  0  0  0  0  0  0  0  0  0
  149.7986  137.5357  157.4837 H   0  0  0  0  0  0  0  0  0  0  0  0
  149.3303  139.9802  156.7843 H   0  0  0  0  0  0  0  0  0  0  0  0
  150.7319  141.0063  156.6531 H   0  0  0  0  0  0  0  0  0  0  0  0
  151.7570  139.0580  155.1569 H   0  0  0  0  0  0  0  0  0  0  0  0
  150.1116  138.4776  155.0731 H   0  0  0  0  0  0  0  0  0  0  0  0
  148.9929  141.6347  153.5251 H   0  0  0  0  0  0  0  0  0  0  0  0
  149.0638  141.4456  155.2752 H   0  0  0  0  0  0  0  0  0  0  0  0
  148.3038  140.1993  154.2698 H   0  0  0  0  0  0  0  0  0  0  0  0
  1  2  1  0  0  0  0
  1 20  1  0  0  0  0
  1 21  1  0  0  0  0
  1 22  1  0  0  0  0
  2  3  1  0  0  0  0
  2 23  1  0  0  0  0
  2 24  1  0  0  0  0
  3  4  1  0  0  0  0
  3 25  1  0  0  0  0
  3 26  1  0  0  0  0
  4 17  1  0  0  0  0
  4  5  1  0  0  0  0
  5  6  1  0  0  0  0
  5  7  2  0  0  0  0
  6 27  1  0  0  0  0
  6 28  1  0  0  0  0
  7  8  1  0  0  0  0
  7 14  1  0  0  0  0
  8  9  1  0  0  0  0
  8 10  1  0  0  0  0
  9 29  1  0  0  0  0
  9 30  1  0  0  0  0
  9 31  1  0  0  0  0
 10 11  1  0  0  0  0
 10 32  1  0  0  0  0
 10 33  1  0  0  0  0
 11 12  1  0  0  0  0
 11 34  1  0  0  0  0
 11 35  1  0  0  0  0
 12 13  1  0  0  0  0
 13 36  1  0  0  0  0
 13 37  1  0  0  0  0
 13 38  1  0  0  0  0
 14 15  2  0  0  0  0
 14 16  1  0  0  0  0
 16 19  1  0  0  0  0
 16 17  1  0  0  0  0
 17 18  2  0  0  0  0
M  END
> <s_m_source_file>
AV-unprocessed.smi

> <i_m_source_file_index>
451

> <i_lp_mmshare_version>
43012

> <i_f3d_flags>
0

> <s_epik_input>
W0NIM11bQ0gyXVtDSDJdbjFjKFtOSDJdKWMoYyg9TylbbkhdYzE9TylOKFtDSDNdKVtDSDJdW0NIMl1PW0NIM10=

> <s_epik_cmdline>
J2VwaWtfcHl0aG9uJywgJy1waCcsICc3LjAnLCAnLXRuJywgJzgnLCAnLW1hJywgJzIwMCcsICctbWV0YWxfYmluZGluZycsICctaW1hZScsICc8aW5maWxlLm1hZT4nLCAnLW9tYWUnLCAnPG91dGZpbGUubWFlPic=

> <r_lp_tautomer_probability>
1

> <r_epik_Ionization_Penalty>
2.19941e-05

> <r_epik_Ionization_Penalty_Charging>
2.62604e-06

> <r_epik_Ionization_Penalty_Neutral>
1.93681e-05

> <r_epik_State_Penalty>
-0

> <r_epik_Charging_Adjusted_Penalty>
2.62604e-06

> <i_epik_Tot_Q>
0

> <i_epik_Tot_abs_Q>
0

> <r_epik_Metal_State_Penalty>
-0

> <b_epik_Metal_Only>
0

> <s_epik_Chemistry_Notes>
This compound has an imine and may undergo hydrolysis.

> <s_lp_Force_Field>
OPLS_2005

> <r_lp_Energy>
22.0879

> <b_lp_Chiralities_Consistent>
1

> <s_lp_Variant>
AV-unprocessed.smi:451-1

> <Gold.Version>
5.8.1

> <Gold.Id.Protein>
6NUR|6NUR_protein|mol2

> <Gold.PLP.Fitness>
38.1610

> <Gold.PLP.PLP>
-36.0893

> <Gold.PLP.part.hbond>
-1.8563

> <Gold.PLP.part.metal>
0.0000

> <Gold.PLP.part.buried>
-5.0699

> <Gold.PLP.part.nonpolar>
-29.5749

> <Gold.PLP.part.repulsive>
0.2417

> <Gold.PLP.ligand.clash>
21.3575

> <Gold.PLP.ligand.torsion>
0.4310

> <Gold.PLP.Chemscore.Hbond>
1.0000

> <Gold.PLP.Chemscore.CHOScore>
0.0000

> <Gold.PLP.Chemscore.Metal>
0.0000

> <Gold.Chemscore.Hbonds>
donor molecule, donor type, donor heavy atom, donor atom, acceptor molecule, acceptor atom, score
      P1  H  7989  7998       L1    12  1.00

> <Gold.PLP.Chemscore.Internal.Correction>
21.2912

> <Gold.Rescore>
     Score         DG    S(hbond)    S(metal)    S(lipo)     H(rot)  DE(clash)    DE(int)     intcor
      8.98     -13.72       1.89        0.00      60.34       2.00       0.00       4.74       ----

> <Gold.Chemscore.Fitness>
8.9757

> <Gold.Chemscore.DG>
-13.7192

> <Gold.Chemscore.ZeroCoef>
-5.4800

> <Gold.Chemscore.Hbond>
1.8883

> <Gold.Chemscore.Metal>
0.0000

> <Gold.Chemscore.Lipo>
60.3435

> <Gold.Chemscore.Internal_Hbond>
0.0000

> <Gold.Chemscore.DEClash>
0.0000

> <Gold.Chemscore.DEInternal>
4.7435

> <Gold.Chemscore.Rot>
2.0031

> <Gold.Chemscore.Internal.Correction>
   9.000000E+99

> <Gold.Chemscore.Hbonds>
donor molecule, donor type, donor heavy atom, donor atom, acceptor molecule, acceptor atom, score
      P1  H  7989  7998       L1    12  0.78

> <Gold.Chemscore.Hbond.Weighted>
-6.3068

> <Gold.Chemscore.Metal.Weighted>
-0.0000

> <Gold.Chemscore.Lipo.Weighted>
-7.0602

> <Gold.Chemscore.Internal_Hbond.Weighted>
0.0000

> <Gold.Chemscore.DEClash.Weighted>
0.0000

> <Gold.Chemscore.DEInternal.Weighted>
4.7435

> <Gold.Chemscore.Rot.Weighted>
5.1278

> <Gold.Chemscore.Internal.Correction.Weighted>
   9.000000E+99

> <Gold.Protein.RotatedTorsions>
[ 6907 6896 6895 6894 ] final   30.63 input  -60.11 | X-H torsion
[ 7974 7965 7964 7962 ] final  -25.86 input  175.53 | X-H torsion
[ 8008 7997 7996 7995 ] final    7.16 input   59.86 | X-H torsion
[ 10167 10162 10161 10158 ] final   -3.60 input  -65.29 | X-H torsion
[ 10718 10713 10712 10709 ] final  136.09 input   66.30 | X-H torsion
[ 10763 10752 10751 10750 ] final -124.76 input  -60.55 | X-H torsion
[ 11005 11000 10999 10996 ] final  -11.19 input  -57.11 | X-H torsion

> <Gold.Protein.ActiveResidues>
 VAL166  LYS551  ARG553  GLY616  TRP617  ASP618  TYR619  PRO620  LYS621  CYS622 
 ASP623  PHE694  ASN695  SER759  ASP760  ASP761  ALA762  ILE779  LEU786  VAL792 
 PHE793  MET794  SER795  GLU796  ALA797  LYS798  CYS799  TRP800  GLU811  SER814 

> <Gold.Protein.RotatedAtoms>
  152.0488  134.9666  160.0574 H   0  0  0  0  0  0  0  0  0  0  0  0  # atno 6907 bound_to 6896
  152.1076  133.4278  159.4624 H   0  0  0  0  0  0  0  0  0  0  0  0  # atno 6908 bound_to 6896
  150.6842  134.2606  159.4591 H   0  0  0  0  0  0  0  0  0  0  0  0  # atno 6909 bound_to 6896
  146.1464  140.4942  142.8630 H   0  0  0  0  0  0  0  0  0  0  0  0  # atno 7974 bound_to 7965
  154.7502  140.2765  155.6299 H   0  0  0  0  0  0  0  0  0  0  0  0  # atno 8008 bound_to 7997
  156.2894  140.2680  156.2180 H   0  0  0  0  0  0  0  0  0  0  0  0  # atno 8009 bound_to 7997
  155.0146  140.0372  157.2403 H   0  0  0  0  0  0  0  0  0  0  0  0  # atno 8010 bound_to 7997
  140.6896  143.6520  150.8341 H   0  0  0  0  0  0  0  0  0  0  0  0  # atno 10167 bound_to 10162
  157.4503  131.1065  151.0041 H   0  0  0  0  0  0  0  0  0  0  0  0  # atno 10718 bound_to 10713
  154.8727  135.4053  154.3157 H   0  0  0  0  0  0  0  0  0  0  0  0  # atno 10763 bound_to 10752
  153.3994  135.7017  153.6443 H   0  0  0  0  0  0  0  0  0  0  0  0  # atno 10764 bound_to 10752
  153.5192  135.3691  155.2594 H   0  0  0  0  0  0  0  0  0  0  0  0  # atno 10765 bound_to 10752
  140.7527  133.8579  155.9058 H   0  0  0  0  0  0  0  0  0  0  0  0  # atno 11005 bound_to 11000
  144.7851  140.5920  143.6579 LP  0  0  0  0  0  0  0  0  0  0  0  0  # atno 17320 bound_to 7965
  145.4928  139.1487  143.3700 LP  0  0  0  0  0  0  0  0  0  0  0  0  # atno 17321 bound_to 7965
  140.0232  143.5521  152.2792 LP  0  0  0  0  0  0  0  0  0  0  0  0  # atno 17342 bound_to 10162
  139.6286  144.7641  151.2584 LP  0  0  0  0  0  0  0  0  0  0  0  0  # atno 17343 bound_to 10162
  157.0873  130.5927  149.5432 LP  0  0  0  0  0  0  0  0  0  0  0  0  # atno 17370 bound_to 10713
  155.9984  130.5058  150.7571 LP  0  0  0  0  0  0  0  0  0  0  0  0  # atno 17371 bound_to 10713
  140.9736  134.1499  157.4555 LP  0  0  0  0  0  0  0  0  0  0  0  0  # atno 17394 bound_to 11000
  139.8784  134.9987  156.5913 LP  0  0  0  0  0  0  0  0  0  0  0  0  # atno 17395 bound_to 11000

$$$$
