AV-unprocessed.smi:3025|AV-procd|sdf|11509|dock1
  -GOLD-   2272016443D 1   1.00000     0.00000
 Structure written by MMmdl.
 42 43  0  0  0  0  0  0  0  0  2 V2000
  152.2003  143.7792  158.5361 C   0  0  0  0  0  0  0  0  0  0  0  0
  151.2329  143.2769  157.4586 C   0  0  0  0  0  0  0  0  0  0  0  0
  151.3279  141.7563  157.2472 C   0  0  0  0  0  0  0  0  0  0  0  0
  150.6878  141.2588  155.9346 C   0  0  2  0  0  0  0  0  0  0  0  0
  149.1495  141.3877  155.9374 C   0  0  0  0  0  0  0  0  0  0  0  0
  148.5264  140.8621  154.6337 C   0  0  0  0  0  0  0  0  0  0  0  0
  148.9352  139.4007  154.3562 C   0  0  1  0  0  0  0  0  0  0  0  0
  148.3866  138.9148  153.0704 N   0  3  0  0  0  0  0  0  0  0  0  0
  146.9116  138.8913  152.9812 C   0  0  0  0  0  0  0  0  0  0  0  0
  146.4451  138.0145  151.8118 C   0  0  0  0  0  0  0  0  0  0  0  0
  145.2289  137.2160  152.1493 C   0  0  0  0  0  0  0  0  0  0  0  0
  145.1855  135.8792  152.1922 N   0  0  0  0  0  0  0  0  0  0  0  0
  143.8866  135.5606  152.5554 N   0  0  0  0  0  0  0  0  0  0  0  0
  143.2731  136.7365  152.6975 C   0  0  0  0  0  0  0  0  0  0  0  0
  144.0588  137.7938  152.4613 N   0  0  0  0  0  0  0  0  0  0  0  0
  150.4691  139.2768  154.3458 C   0  0  0  0  0  0  0  0  0  0  0  0
  151.0869  139.7962  155.6536 C   0  0  0  0  0  0  0  0  0  0  0  0
  143.8249  138.7751  152.5036 H   0  0  0  0  0  0  0  0  0  0  0  0
  152.1139  144.8587  158.6628 H   0  0  0  0  0  0  0  0  0  0  0  0
  153.2347  143.5577  158.2714 H   0  0  0  0  0  0  0  0  0  0  0  0
  151.9932  143.3133  159.4999 H   0  0  0  0  0  0  0  0  0  0  0  0
  150.2184  143.5555  157.7430 H   0  0  0  0  0  0  0  0  0  0  0  0
  151.4455  143.7922  156.5212 H   0  0  0  0  0  0  0  0  0  0  0  0
  152.3830  141.4791  157.2496 H   0  0  0  0  0  0  0  0  0  0  0  0
  150.8796  141.2379  158.0959 H   0  0  0  0  0  0  0  0  0  0  0  0
  151.0793  141.8693  155.1195 H   0  0  0  0  0  0  0  0  0  0  0  0
  148.7354  140.8396  156.7847 H   0  0  0  0  0  0  0  0  0  0  0  0
  148.8541  142.4280  156.0709 H   0  0  0  0  0  0  0  0  0  0  0  0
  147.4426  140.9523  154.7027 H   0  0  0  0  0  0  0  0  0  0  0  0
  148.8369  141.4974  153.8029 H   0  0  0  0  0  0  0  0  0  0  0  0
  148.5504  138.7637  155.1544 H   0  0  0  0  0  0  0  0  0  0  0  0
  148.7582  139.4820  152.3219 H   0  0  0  0  0  0  0  0  0  0  0  0
  146.5016  138.5081  153.9168 H   0  0  0  0  0  0  0  0  0  0  0  0
  146.5313  139.9046  152.8517 H   0  0  0  0  0  0  0  0  0  0  0  0
  146.2318  138.6336  150.9390 H   0  0  0  0  0  0  0  0  0  0  0  0
  147.2386  137.3255  151.5189 H   0  0  0  0  0  0  0  0  0  0  0  0
  142.2343  136.8265  152.9792 H   0  0  0  0  0  0  0  0  0  0  0  0
  150.7588  138.2361  154.1956 H   0  0  0  0  0  0  0  0  0  0  0  0
  150.8818  139.8361  153.5047 H   0  0  0  0  0  0  0  0  0  0  0  0
  152.1726  139.7103  155.5976 H   0  0  0  0  0  0  0  0  0  0  0  0
  150.7710  139.1611  156.4827 H   0  0  0  0  0  0  0  0  0  0  0  0
  148.7088  137.9660  152.9425 H   0  0  0  0  0  0  0  0  0  0  0  0
  1  2  1  0  0  0  0
  1 19  1  0  0  0  0
  1 20  1  0  0  0  0
  1 21  1  0  0  0  0
  2  3  1  0  0  0  0
  2 22  1  0  0  0  0
  2 23  1  0  0  0  0
  3  4  1  0  0  0  0
  3 24  1  0  0  0  0
  3 25  1  0  0  0  0
  4 17  1  0  0  0  0
  4  5  1  0  0  0  0
  4 26  1  0  0  0  0
  5  6  1  0  0  0  0
  5 27  1  0  0  0  0
  5 28  1  0  0  0  0
  6  7  1  0  0  0  0
  6 29  1  0  0  0  0
  6 30  1  0  0  0  0
  7  8  1  0  0  0  0
  7 16  1  0  0  0  0
  7 31  1  0  0  0  0
  8  9  1  0  0  0  0
  8 32  1  0  0  0  0
  8 42  1  0  0  0  0
  9 10  1  0  0  0  0
  9 33  1  0  0  0  0
  9 34  1  0  0  0  0
 10 11  1  0  0  0  0
 10 35  1  0  0  0  0
 10 36  1  0  0  0  0
 11 15  1  0  0  0  0
 11 12  2  0  0  0  0
 12 13  1  0  0  0  0
 13 14  2  0  0  0  0
 14 15  1  0  0  0  0
 14 37  1  0  0  0  0
 15 18  1  0  0  0  0
 16 17  1  0  0  0  0
 16 38  1  0  0  0  0
 16 39  1  0  0  0  0
 17 40  1  0  0  0  0
 17 41  1  0  0  0  0
M  CHG  1   8   1
M  END
> <s_m_source_file>
AV-unprocessed.smi

> <i_m_source_file_index>
3025

> <i_lp_mmshare_version>
43012

> <i_f3d_flags>
0

> <s_epik_input>
W0NIM11bQ0gyXVtDSDJdW0NAQEhdMVtDSDJdW0NIMl1bQ0BIXShbQ0gyXVtDSDJdMSlbTkhdW0NIMl1bQ0gyXWMybm5bY0hdW25IXTI=

> <s_epik_cmdline>
J2VwaWtfcHl0aG9uJywgJy1waCcsICc3LjAnLCAnLXRuJywgJzgnLCAnLW1hJywgJzIwMCcsICctbWV0YWxfYmluZGluZycsICctaW1hZScsICc8aW5maWxlLm1hZT4nLCAnLW9tYWUnLCAnPG91dGZpbGUubWFlPic=

> <r_lp_tautomer_probability>
0.0517155

> <r_epik_Ionization_Penalty>
0.0349397

> <r_epik_Ionization_Penalty_Charging>
0.000546397

> <r_epik_Ionization_Penalty_Neutral>
0.0343933

> <r_epik_State_Penalty>
2.24019

> <r_epik_Charging_Adjusted_Penalty>
2.24074

> <i_epik_Tot_Q>
1

> <i_epik_Tot_abs_Q>
1

> <r_epik_Metal_State_Penalty>
2.47389

> <b_epik_Metal_Only>
0

> <s_lp_Force_Field>
OPLS_2005

> <r_lp_Energy>
14.3839

> <b_lp_Chiralities_Consistent>
1

> <s_lp_Variant>
AV-unprocessed.smi:3025-5

> <Gold.Version>
5.8.1

> <Gold.Id.Protein>
6NUR|6NUR_protein|mol2

> <Gold.PLP.Fitness>
47.3403

> <Gold.PLP.PLP>
-36.1281

> <Gold.PLP.part.hbond>
-4.0000

> <Gold.PLP.part.metal>
0.0000

> <Gold.PLP.part.buried>
-2.1111

> <Gold.PLP.part.nonpolar>
-31.7883

> <Gold.PLP.part.repulsive>
0.3409

> <Gold.PLP.ligand.clash>
0.0000

> <Gold.PLP.ligand.torsion>
0.4739

> <Gold.PLP.Chemscore.Hbond>
4.0000

> <Gold.PLP.Chemscore.CHOScore>
0.0000

> <Gold.PLP.Chemscore.Metal>
0.0000

> <Gold.Chemscore.Hbonds>
donor molecule, donor type, donor heavy atom, donor atom, acceptor molecule, acceptor atom, score
      L1  H     8    32       P1  7957  1.00
      L1  H     8    42       P1  7948  1.98
      L1  H    15    18       P1 10175  1.00

> <Gold.PLP.Chemscore.Internal.Correction>
0.1599

> <Gold.Rescore>
     Score         DG    S(hbond)    S(metal)    S(lipo)     H(rot)  DE(clash)    DE(int)     intcor
     17.91     -18.73       2.97        0.00      84.52       2.56       0.35       0.47       ----

> <Gold.Chemscore.Fitness>
17.9128

> <Gold.Chemscore.DG>
-18.7350

> <Gold.Chemscore.ZeroCoef>
-5.4800

> <Gold.Chemscore.Hbond>
2.9701

> <Gold.Chemscore.Metal>
0.0000

> <Gold.Chemscore.Lipo>
84.5225

> <Gold.Chemscore.Internal_Hbond>
0.0000

> <Gold.Chemscore.DEClash>
0.3501

> <Gold.Chemscore.DEInternal>
0.4721

> <Gold.Chemscore.Rot>
2.5602

> <Gold.Chemscore.Internal.Correction>
   9.000000E+99

> <Gold.Chemscore.Hbonds>
donor molecule, donor type, donor heavy atom, donor atom, acceptor molecule, acceptor atom, score
      L1  H     8    32       P1  7957  0.93
      L1  H     8    42       P1  7948  0.90
      L1  H    15    18       P1 10175  1.00

> <Gold.Chemscore.Hbond.Weighted>
-9.9201

> <Gold.Chemscore.Metal.Weighted>
-0.0000

> <Gold.Chemscore.Lipo.Weighted>
-9.8891

> <Gold.Chemscore.Internal_Hbond.Weighted>
0.0000

> <Gold.Chemscore.DEClash.Weighted>
0.3501

> <Gold.Chemscore.DEInternal.Weighted>
0.4721

> <Gold.Chemscore.Rot.Weighted>
6.5542

> <Gold.Chemscore.Internal.Correction.Weighted>
   9.000000E+99

> <Gold.Protein.RotatedTorsions>
[ 6907 6896 6895 6894 ] final  -26.08 input  -60.11 | X-H torsion
[ 7974 7965 7964 7962 ] final  -56.08 input  175.53 | X-H torsion
[ 8008 7997 7996 7995 ] final   97.97 input   59.86 | X-H torsion
[ 10167 10162 10161 10158 ] final  157.48 input  -65.29 | X-H torsion
[ 10718 10713 10712 10709 ] final   71.96 input   66.30 | X-H torsion
[ 10763 10752 10751 10750 ] final  -99.32 input  -60.55 | X-H torsion
[ 11005 11000 10999 10996 ] final  174.78 input  -57.11 | X-H torsion

> <Gold.Protein.ActiveResidues>
 VAL166  LYS551  ARG553  GLY616  TRP617  ASP618  TYR619  PRO620  LYS621  CYS622 
 ASP623  PHE694  ASN695  SER759  ASP760  ASP761  ALA762  ILE779  LEU786  VAL792 
 PHE793  MET794  SER795  GLU796  ALA797  LYS798  CYS799  TRP800  GLU811  SER814 

> <Gold.Protein.RotatedAtoms>
  151.1661  135.0296  159.8731 H   0  0  0  0  0  0  0  0  0  0  0  0  # atno 6907 bound_to 6896
  152.5450  134.1224  159.8414 H   0  0  0  0  0  0  0  0  0  0  0  0  # atno 6908 bound_to 6896
  151.1324  133.4981  159.2631 H   0  0  0  0  0  0  0  0  0  0  0  0  # atno 6909 bound_to 6896
  145.8668  140.8245  142.9908 H   0  0  0  0  0  0  0  0  0  0  0  0  # atno 7974 bound_to 7965
  156.0957  140.3250  155.7874 H   0  0  0  0  0  0  0  0  0  0  0  0  # atno 8008 bound_to 7997
  155.4922  140.0562  157.2969 H   0  0  0  0  0  0  0  0  0  0  0  0  # atno 8009 bound_to 7997
  154.4665  140.1991  156.0121 H   0  0  0  0  0  0  0  0  0  0  0  0  # atno 8010 bound_to 7997
  139.4823  144.4913  151.8303 H   0  0  0  0  0  0  0  0  0  0  0  0  # atno 10167 bound_to 10162
  157.6478  130.9555  150.0862 H   0  0  0  0  0  0  0  0  0  0  0  0  # atno 10718 bound_to 10713
  154.7488  135.4976  153.9252 H   0  0  0  0  0  0  0  0  0  0  0  0  # atno 10763 bound_to 10752
  153.1121  135.6711  153.9490 H   0  0  0  0  0  0  0  0  0  0  0  0  # atno 10764 bound_to 10752
  153.9247  135.3084  155.3426 H   0  0  0  0  0  0  0  0  0  0  0  0  # atno 10765 bound_to 10752
  140.3551  134.7162  157.4294 H   0  0  0  0  0  0  0  0  0  0  0  0  # atno 11005 bound_to 11000
  144.6726  140.1179  143.7451 LP  0  0  0  0  0  0  0  0  0  0  0  0  # atno 17320 bound_to 7965
  145.9184  139.2530  143.1396 LP  0  0  0  0  0  0  0  0  0  0  0  0  # atno 17321 bound_to 7965
  140.4398  144.2002  150.5891 LP  0  0  0  0  0  0  0  0  0  0  0  0  # atno 17342 bound_to 10162
  140.4695  143.2418  151.9109 LP  0  0  0  0  0  0  0  0  0  0  0  0  # atno 17343 bound_to 10162
  156.1824  130.3650  149.9017 LP  0  0  0  0  0  0  0  0  0  0  0  0  # atno 17370 bound_to 10713
  156.6966  130.8917  151.3594 LP  0  0  0  0  0  0  0  0  0  0  0  0  # atno 17371 bound_to 10713
  140.0672  134.5913  155.8682 LP  0  0  0  0  0  0  0  0  0  0  0  0  # atno 17394 bound_to 11000
  141.2001  133.6610  156.5878 LP  0  0  0  0  0  0  0  0  0  0  0  0  # atno 17395 bound_to 11000

$$$$
