AV-unprocessed.smi:937|AV-procd|sdf|4212|dock7
  -GOLD-   22720 2123D 1   1.00000     0.00000
 Structure written by MMmdl.
 45 46  0  0  0  0  0  0  0  0  1 V2000
  150.8555  141.2398  157.7720 C   0  0  0  0  0  0  0  0  0  0  0  0
  150.9033  139.8029  157.2963 C   0  0  0  0  0  0  0  0  0  0  0  0
  151.0193  138.7385  158.2151 C   0  0  0  0  0  0  0  0  0  0  0  0
  151.0655  137.4229  157.7148 C   0  0  0  0  0  0  0  0  0  0  0  0
  150.9929  137.2224  156.3209 C   0  0  0  0  0  0  0  0  0  0  0  0
  151.0492  135.8287  155.7273 C   0  0  0  0  0  0  0  0  0  0  0  0
  149.7841  135.0187  156.0397 C   0  0  0  0  0  0  0  0  0  0  0  0
  148.8325  135.1089  154.9414 N   0  0  0  0  0  0  0  0  0  0  0  0
  147.5091  134.9177  155.0623 C   0  0  0  0  0  0  0  0  0  0  0  0
  146.9584  134.6529  156.1292 O   0  0  0  0  0  0  0  0  0  0  0  0
  146.8153  135.0252  153.9148 N   0  0  0  0  0  0  0  0  0  0  0  0
  145.3722  134.8763  153.6994 C   0  0  1  0  0  0  0  0  0  0  0  0
  144.7655  136.1100  152.9960 C   0  0  0  0  0  0  0  0  0  0  0  0
  145.2201  136.2229  151.5320 C   0  0  0  0  0  0  0  0  0  0  0  0
  144.9088  134.9370  150.7510 C   0  0  0  0  0  0  0  0  0  0  0  0
  145.5429  133.6975  151.4166 C   0  0  2  0  0  0  0  0  0  0  0  0
  145.2460  132.4037  150.6305 C   0  0  0  0  0  0  0  0  0  0  0  0
  145.7676  132.4623  149.4047 F   0  0  0  0  0  0  0  0  0  0  0  0
  145.7614  131.3527  151.2683 F   0  0  0  0  0  0  0  0  0  0  0  0
  143.9290  132.2238  150.5304 F   0  0  0  0  0  0  0  0  0  0  0  0
  145.0901  133.5931  152.8918 C   0  0  0  0  0  0  0  0  0  0  0  0
  150.8751  138.3557  155.4887 C   0  0  0  0  0  0  0  0  0  0  0  0
  150.8313  139.6207  155.9592 N   0  0  0  0  0  0  0  0  0  0  0  0
  150.9005  141.2987  158.8598 H   0  0  0  0  0  0  0  0  0  0  0  0
  149.9323  141.7184  157.4438 H   0  0  0  0  0  0  0  0  0  0  0  0
  151.6979  141.8008  157.3663 H   0  0  0  0  0  0  0  0  0  0  0  0
  151.0743  138.9228  159.2781 H   0  0  0  0  0  0  0  0  0  0  0  0
  151.1576  136.5855  158.3908 H   0  0  0  0  0  0  0  0  0  0  0  0
  151.1918  135.9029  154.6483 H   0  0  0  0  0  0  0  0  0  0  0  0
  151.9285  135.3163  156.1201 H   0  0  0  0  0  0  0  0  0  0  0  0
  150.0479  133.9743  156.2147 H   0  0  0  0  0  0  0  0  0  0  0  0
  149.3121  135.3895  156.9505 H   0  0  0  0  0  0  0  0  0  0  0  0
  149.2033  135.3209  154.0266 H   0  0  0  0  0  0  0  0  0  0  0  0
  147.3599  135.2055  153.0839 H   0  0  0  0  0  0  0  0  0  0  0  0
  144.8921  134.7575  154.6724 H   0  0  0  0  0  0  0  0  0  0  0  0
  143.6778  136.0336  153.0228 H   0  0  0  0  0  0  0  0  0  0  0  0
  145.0129  137.0259  153.5334 H   0  0  0  0  0  0  0  0  0  0  0  0
  144.7273  137.0715  151.0569 H   0  0  0  0  0  0  0  0  0  0  0  0
  146.2905  136.4286  151.4913 H   0  0  0  0  0  0  0  0  0  0  0  0
  143.8280  134.8076  150.6820 H   0  0  0  0  0  0  0  0  0  0  0  0
  145.2716  135.0406  149.7281 H   0  0  0  0  0  0  0  0  0  0  0  0
  146.6251  133.8368  151.4068 H   0  0  0  0  0  0  0  0  0  0  0  0
  145.5736  132.7429  153.3745 H   0  0  0  0  0  0  0  0  0  0  0  0
  144.0196  133.3858  152.9234 H   0  0  0  0  0  0  0  0  0  0  0  0
  150.8192  138.2453  154.4158 H   0  0  0  0  0  0  0  0  0  0  0  0
  1  2  1  0  0  0  0
  1 24  1  0  0  0  0
  1 25  1  0  0  0  0
  1 26  1  0  0  0  0
  2 23  1  0  0  0  0
  2  3  2  0  0  0  0
  3  4  1  0  0  0  0
  3 27  1  0  0  0  0
  4  5  2  0  0  0  0
  4 28  1  0  0  0  0
  5  6  1  0  0  0  0
  5 22  1  0  0  0  0
  6  7  1  0  0  0  0
  6 29  1  0  0  0  0
  6 30  1  0  0  0  0
  7  8  1  0  0  0  0
  7 31  1  0  0  0  0
  7 32  1  0  0  0  0
  8  9  1  0  0  0  0
  8 33  1  0  0  0  0
  9 10  2  0  0  0  0
  9 11  1  0  0  0  0
 11 12  1  0  0  0  0
 11 34  1  0  0  0  0
 12 21  1  0  0  0  0
 12 13  1  0  0  0  0
 12 35  1  0  0  0  0
 13 14  1  0  0  0  0
 13 36  1  0  0  0  0
 13 37  1  0  0  0  0
 14 15  1  0  0  0  0
 14 38  1  0  0  0  0
 14 39  1  0  0  0  0
 15 16  1  0  0  0  0
 15 40  1  0  0  0  0
 15 41  1  0  0  0  0
 16 17  1  0  0  0  0
 16 21  1  0  0  0  0
 16 42  1  0  0  0  0
 17 18  1  0  0  0  0
 17 19  1  0  0  0  0
 17 20  1  0  0  0  0
 21 43  1  0  0  0  0
 21 44  1  0  0  0  0
 22 23  2  0  0  0  0
 22 45  1  0  0  0  0
M  END
> <s_m_source_file>
AV-unprocessed.smi

> <i_m_source_file_index>
937

> <i_lp_mmshare_version>
43012

> <i_f3d_flags>
0

> <s_epik_input>
W0NIM11jMVtjSF1bY0hdYyhbY0hdbjEpW0NIMl1bQ0gyXVtOSF1DKD1PKVtOSF1bQ0BASF0yW0NIMl1bQ0gyXVtDSDJdW0NAQEhdKEMoRikoRilGKVtDSDJdMg==

> <s_epik_cmdline>
J2VwaWtfcHl0aG9uJywgJy1waCcsICc3LjAnLCAnLXRuJywgJzgnLCAnLW1hJywgJzIwMCcsICctbWV0YWxfYmluZGluZycsICctaW1hZScsICc8aW5maWxlLm1hZT4nLCAnLW9tYWUnLCAnPG91dGZpbGUubWFlPic=

> <r_epik_Ionization_Penalty>
0.0563445

> <r_epik_Ionization_Penalty_Charging>
0

> <r_epik_Ionization_Penalty_Neutral>
0.0563445

> <r_epik_State_Penalty>
0.0485409

> <r_epik_Charging_Adjusted_Penalty>
0.0485409

> <i_epik_Tot_Q>
0

> <i_epik_Tot_abs_Q>
0

> <r_epik_Metal_State_Penalty>
0.0443056

> <b_epik_Metal_Only>
0

> <s_lp_Force_Field>
OPLS_2005

> <r_lp_Energy>
18.524

> <b_lp_Chiralities_Consistent>
1

> <s_lp_Variant>
AV-unprocessed.smi:937-4

> <Gold.Version>
5.8.1

> <Gold.Id.Protein>
6NUR|6NUR_protein|mol2

> <Gold.PLP.Fitness>
48.1547

> <Gold.PLP.PLP>
-39.3206

> <Gold.PLP.part.hbond>
-3.0000

> <Gold.PLP.part.metal>
0.0000

> <Gold.PLP.part.buried>
-2.8874

> <Gold.PLP.part.nonpolar>
-32.4999

> <Gold.PLP.part.repulsive>
0.1149

> <Gold.PLP.ligand.clash>
0.0000

> <Gold.PLP.ligand.torsion>
0.5823

> <Gold.PLP.Chemscore.Hbond>
2.8160

> <Gold.PLP.Chemscore.CHOScore>
0.5011

> <Gold.PLP.Chemscore.Metal>
0.0000

> <Gold.Chemscore.Hbonds>
donor molecule, donor type, donor heavy atom, donor atom, acceptor molecule, acceptor atom, score
      L1  H     8    33       P1  7948  0.24
      L1  H    11    34       P1  7948  0.49

> <Gold.PLP.Chemscore.Internal.Correction>
0.0476

> <Gold.Rescore>
     Score         DG    S(hbond)    S(metal)    S(lipo)     H(rot)  DE(clash)    DE(int)     intcor
     15.49     -16.30       1.71        0.00      78.36       1.58       0.08       0.73       ----

> <Gold.Chemscore.Fitness>
15.4856

> <Gold.Chemscore.DG>
-16.3035

> <Gold.Chemscore.ZeroCoef>
-5.4800

> <Gold.Chemscore.Hbond>
1.7104

> <Gold.Chemscore.Metal>
0.0000

> <Gold.Chemscore.Lipo>
78.3612

> <Gold.Chemscore.Internal_Hbond>
0.0000

> <Gold.Chemscore.DEClash>
0.0830

> <Gold.Chemscore.DEInternal>
0.7349

> <Gold.Chemscore.Rot>
1.5849

> <Gold.Chemscore.Internal.Correction>
   9.000000E+99

> <Gold.Chemscore.Hbonds>
donor molecule, donor type, donor heavy atom, donor atom, acceptor molecule, acceptor atom, score
      L1  H     8    33       P1  7948  0.13
      L1  H    11    34       P1  7948  0.47

> <Gold.Chemscore.Hbond.Weighted>
-5.7127

> <Gold.Chemscore.Metal.Weighted>
-0.0000

> <Gold.Chemscore.Lipo.Weighted>
-9.1683

> <Gold.Chemscore.Internal_Hbond.Weighted>
0.0000

> <Gold.Chemscore.DEClash.Weighted>
0.0830

> <Gold.Chemscore.DEInternal.Weighted>
0.7349

> <Gold.Chemscore.Rot.Weighted>
4.0574

> <Gold.Chemscore.Internal.Correction.Weighted>
   9.000000E+99

> <Gold.Protein.RotatedTorsions>
[ 6907 6896 6895 6894 ] final -125.31 input  -60.11 | X-H torsion
[ 7974 7965 7964 7962 ] final   92.73 input  175.53 | X-H torsion
[ 8008 7997 7996 7995 ] final  -18.63 input   59.86 | X-H torsion
[ 10167 10162 10161 10158 ] final -132.16 input  -65.29 | X-H torsion
[ 10718 10713 10712 10709 ] final   62.55 input   66.30 | X-H torsion
[ 10763 10752 10751 10750 ] final  -37.12 input  -60.55 | X-H torsion
[ 11005 11000 10999 10996 ] final   64.99 input  -57.11 | X-H torsion

> <Gold.Protein.ActiveResidues>
 VAL166  LYS551  ARG553  GLY616  TRP617  ASP618  TYR619  PRO620  LYS621  CYS622 
 ASP623  PHE694  ASN695  SER759  ASP760  ASP761  ALA762  ILE779  LEU786  VAL792 
 PHE793  MET794  SER795  GLU796  ALA797  LYS798  CYS799  TRP800  GLU811  SER814 

> <Gold.Protein.RotatedAtoms>
  150.8854  133.7315  159.2919 H   0  0  0  0  0  0  0  0  0  0  0  0  # atno 6907 bound_to 6896
  151.4882  135.1054  159.9806 H   0  0  0  0  0  0  0  0  0  0  0  0  # atno 6908 bound_to 6896
  152.4787  133.8154  159.7081 H   0  0  0  0  0  0  0  0  0  0  0  0  # atno 6909 bound_to 6896
  145.4883  139.2277  143.2844 H   0  0  0  0  0  0  0  0  0  0  0  0  # atno 7974 bound_to 7965
  154.4893  140.2110  155.9585 H   0  0  0  0  0  0  0  0  0  0  0  0  # atno 8008 bound_to 7997
  156.1282  140.3201  155.8277 H   0  0  0  0  0  0  0  0  0  0  0  0  # atno 8009 bound_to 7997
  155.4345  140.0506  157.3006 H   0  0  0  0  0  0  0  0  0  0  0  0  # atno 8010 bound_to 7997
  139.9114  143.6490  152.2574 H   0  0  0  0  0  0  0  0  0  0  0  0  # atno 10167 bound_to 10162
  157.5909  130.9056  149.9603 H   0  0  0  0  0  0  0  0  0  0  0  0  # atno 10718 bound_to 10713
  153.8910  135.6812  153.4760 H   0  0  0  0  0  0  0  0  0  0  0  0  # atno 10763 bound_to 10752
  153.1181  135.4752  154.9147 H   0  0  0  0  0  0  0  0  0  0  0  0  # atno 10764 bound_to 10752
  154.7622  135.3214  154.8308 H   0  0  0  0  0  0  0  0  0  0  0  0  # atno 10765 bound_to 10752
  139.9923  134.6572  156.0069 H   0  0  0  0  0  0  0  0  0  0  0  0  # atno 11005 bound_to 11000
  146.2299  140.5675  142.8980 LP  0  0  0  0  0  0  0  0  0  0  0  0  # atno 17320 bound_to 7965
  144.7848  140.5915  143.6581 LP  0  0  0  0  0  0  0  0  0  0  0  0  # atno 17321 bound_to 7965
  139.6939  144.7643  151.1389 LP  0  0  0  0  0  0  0  0  0  0  0  0  # atno 17342 bound_to 10162
  140.7684  143.5550  150.9162 LP  0  0  0  0  0  0  0  0  0  0  0  0  # atno 17343 bound_to 10162
  156.0963  130.3659  150.0299 LP  0  0  0  0  0  0  0  0  0  0  0  0  # atno 17370 bound_to 10713
  156.8422  130.9430  151.3631 LP  0  0  0  0  0  0  0  0  0  0  0  0  # atno 17371 bound_to 10713
  141.1576  133.6541  156.4212 LP  0  0  0  0  0  0  0  0  0  0  0  0  # atno 17394 bound_to 11000
  140.4884  134.6598  157.5200 LP  0  0  0  0  0  0  0  0  0  0  0  0  # atno 17395 bound_to 11000

$$$$
