AV-unprocessed.smi:237|AV-procd|sdf|1817|dock8
  -GOLD-   2262020413D 1   1.00000     0.00000
 Structure written by MMmdl.
 53 56  0  0  0  0  0  0  0  0  1 V2000
  148.6641  141.0918  154.6762 C   0  0  0  0  0  0  0  0  0  0  0  0
  149.5375  142.2502  155.1638 C   0  0  0  0  0  0  0  0  0  0  0  0
  150.0927  141.9007  156.4230 O   0  0  0  0  0  0  0  0  0  0  0  0
  150.9875  142.8655  156.9642 C   0  0  0  0  0  0  0  0  0  0  0  0
  151.4064  142.5730  158.4299 C   0  0  2  0  0  0  0  0  0  0  0  0
  152.2719  143.7433  158.9480 C   0  0  0  0  0  0  0  0  0  0  0  0
  152.7813  143.4940  160.3742 C   0  0  0  0  0  0  0  0  0  0  0  0
  153.5402  142.1637  160.4302 C   0  0  0  0  0  0  0  0  0  0  0  0
  152.6517  141.0225  159.9172 C   0  0  0  0  0  0  0  0  0  0  0  0
  152.1455  141.3071  158.5746 N   0  0  0  0  0  0  0  0  0  0  0  0
  151.5365  140.2174  158.0560 C   0  0  0  0  0  0  0  0  0  0  0  0
  152.0248  139.7311  156.8889 N   0  0  0  0  0  0  0  0  0  0  0  0
  151.4460  138.6725  156.3140 C   0  0  0  0  0  0  0  0  0  0  0  0
  150.3928  137.9666  156.7318 N   0  0  0  0  0  0  0  0  0  0  0  0
  149.9100  138.4465  157.9142 C   0  0  0  0  0  0  0  0  0  0  0  0
  150.4202  139.5566  158.6425 C   0  0  0  0  0  0  0  0  0  0  0  0
  149.6703  139.7529  159.7956 N   0  0  0  0  0  0  0  0  0  0  0  0
  148.7609  138.8186  159.7451 C   0  0  0  0  0  0  0  0  0  0  0  0
  148.8371  137.9806  158.6546 N   0  0  0  0  0  0  0  0  0  0  0  0
  147.9533  136.8683  158.3363 C   0  0  0  0  0  0  0  0  0  0  0  0
  147.5915  136.7326  156.8375 C   0  0  0  0  0  0  0  0  0  0  0  0
  147.1432  138.1099  156.3301 C   0  0  0  0  0  0  0  0  0  0  0  0
  146.5245  138.0146  155.0629 O   0  0  0  0  0  0  0  0  0  0  0  0
  148.5618  135.9555  155.9297 C   0  0  0  0  0  0  0  0  0  0  0  0
  147.7441  134.7674  155.9842 O   0  0  0  0  0  0  0  0  0  0  0  0
  146.6518  135.5684  156.4815 C   0  0  0  0  0  0  0  0  0  0  0  0
  148.2091  141.3250  153.7133 H   0  0  0  0  0  0  0  0  0  0  0  0
  147.8613  140.8808  155.3826 H   0  0  0  0  0  0  0  0  0  0  0  0
  149.2528  140.1821  154.5575 H   0  0  0  0  0  0  0  0  0  0  0  0
  150.3325  142.4421  154.4419 H   0  0  0  0  0  0  0  0  0  0  0  0
  148.9362  143.1558  155.2384 H   0  0  0  0  0  0  0  0  0  0  0  0
  151.8764  142.8996  156.3332 H   0  0  0  0  0  0  0  0  0  0  0  0
  150.5294  143.8525  156.8824 H   0  0  0  0  0  0  0  0  0  0  0  0
  150.5214  142.5280  159.0634 H   0  0  0  0  0  0  0  0  0  0  0  0
  153.1243  143.8920  158.2834 H   0  0  0  0  0  0  0  0  0  0  0  0
  151.6986  144.6707  158.9258 H   0  0  0  0  0  0  0  0  0  0  0  0
  153.4288  144.3116  160.6919 H   0  0  0  0  0  0  0  0  0  0  0  0
  151.9406  143.4703  161.0688 H   0  0  0  0  0  0  0  0  0  0  0  0
  154.4436  142.2282  159.8220 H   0  0  0  0  0  0  0  0  0  0  0  0
  153.8645  141.9571  161.4502 H   0  0  0  0  0  0  0  0  0  0  0  0
  153.2223  140.0921  159.9097 H   0  0  0  0  0  0  0  0  0  0  0  0
  151.8142  140.8764  160.6009 H   0  0  0  0  0  0  0  0  0  0  0  0
  151.8878  138.3458  155.3844 H   0  0  0  0  0  0  0  0  0  0  0  0
  148.0020  138.7200  160.5071 H   0  0  0  0  0  0  0  0  0  0  0  0
  148.4311  135.9549  158.6926 H   0  0  0  0  0  0  0  0  0  0  0  0
  147.0558  136.9850  158.9444 H   0  0  0  0  0  0  0  0  0  0  0  0
  146.4277  138.5645  157.0161 H   0  0  0  0  0  0  0  0  0  0  0  0
  147.9874  138.7966  156.2610 H   0  0  0  0  0  0  0  0  0  0  0  0
  146.9877  137.3708  154.5490 H   0  0  0  0  0  0  0  0  0  0  0  0
  148.6256  136.3514  154.9147 H   0  0  0  0  0  0  0  0  0  0  0  0
  149.5589  135.8059  156.3410 H   0  0  0  0  0  0  0  0  0  0  0  0
  146.1441  135.1168  157.3327 H   0  0  0  0  0  0  0  0  0  0  0  0
  145.9349  135.8016  155.6923 H   0  0  0  0  0  0  0  0  0  0  0  0
  1  2  1  0  0  0  0
  1 27  1  0  0  0  0
  1 28  1  0  0  0  0
  1 29  1  0  0  0  0
  2  3  1  0  0  0  0
  2 30  1  0  0  0  0
  2 31  1  0  0  0  0
  3  4  1  0  0  0  0
  4  5  1  0  0  0  0
  4 32  1  0  0  0  0
  4 33  1  0  0  0  0
  5 10  1  0  0  0  0
  5  6  1  0  0  0  0
  5 34  1  0  0  0  0
  6  7  1  0  0  0  0
  6 35  1  0  0  0  0
  6 36  1  0  0  0  0
  7  8  1  0  0  0  0
  7 37  1  0  0  0  0
  7 38  1  0  0  0  0
  8  9  1  0  0  0  0
  8 39  1  0  0  0  0
  8 40  1  0  0  0  0
  9 10  1  0  0  0  0
  9 41  1  0  0  0  0
  9 42  1  0  0  0  0
 10 11  1  0  0  0  0
 11 16  1  0  0  0  0
 11 12  2  0  0  0  0
 12 13  1  0  0  0  0
 13 14  2  0  0  0  0
 13 43  1  0  0  0  0
 14 15  1  0  0  0  0
 15 19  1  0  0  0  0
 15 16  2  0  0  0  0
 16 17  1  0  0  0  0
 17 18  2  0  0  0  0
 18 19  1  0  0  0  0
 18 44  1  0  0  0  0
 19 20  1  0  0  0  0
 20 21  1  0  0  0  0
 20 45  1  0  0  0  0
 20 46  1  0  0  0  0
 21 26  1  0  0  0  0
 21 22  1  0  0  0  0
 21 24  1  0  0  0  0
 22 23  1  0  0  0  0
 22 47  1  0  0  0  0
 22 48  1  0  0  0  0
 23 49  1  0  0  0  0
 24 25  1  0  0  0  0
 24 50  1  0  0  0  0
 24 51  1  0  0  0  0
 25 26  1  0  0  0  0
 26 52  1  0  0  0  0
 26 53  1  0  0  0  0
M  END
> <s_m_source_file>
AV-unprocessed.smi

> <i_m_source_file_index>
237

> <i_lp_mmshare_version>
43012

> <i_f3d_flags>
0

> <s_epik_input>
W0NIM11bQ0gyXU9bQ0gyXVtDQEBIXTFbQ0gyXVtDSDJdW0NIMl1bQ0gyXU4xYyhuW2NIXW4yKWMoYzIzKW5bY0hdbjNbQ0gyXUM0KFtDSDJdW09IXSlbQ0gyXU9bQ0gyXTQ=

> <s_epik_cmdline>
J2VwaWtfcHl0aG9uJywgJy1waCcsICc3LjAnLCAnLXRuJywgJzgnLCAnLW1hJywgJzIwMCcsICctbWV0YWxfYmluZGluZycsICctaW1hZScsICc8aW5maWxlLm1hZT4nLCAnLW9tYWUnLCAnPG91dGZpbGUubWFlPic=

> <r_lp_tautomer_probability>
1

> <r_epik_Ionization_Penalty>
0.00358373

> <r_epik_Ionization_Penalty_Charging>
0

> <r_epik_Ionization_Penalty_Neutral>
0.00358373

> <r_epik_State_Penalty>
0.00240903

> <r_epik_Charging_Adjusted_Penalty>
0.00240903

> <i_epik_Tot_Q>
0

> <i_epik_Tot_abs_Q>
0

> <r_epik_Metal_State_Penalty>
-0

> <b_epik_Metal_Only>
0

> <s_lp_Force_Field>
OPLS_2005

> <r_lp_Energy>
38.4441

> <b_lp_Chiralities_Consistent>
1

> <s_lp_Variant>
AV-unprocessed.smi:237-1

> <Gold.Version>
5.8.1

> <Gold.Id.Protein>
6NUR|6NUR_protein|mol2

> <Gold.PLP.Fitness>
45.3530

> <Gold.PLP.PLP>
-40.4212

> <Gold.PLP.part.hbond>
-2.9985

> <Gold.PLP.part.metal>
0.0000

> <Gold.PLP.part.buried>
-4.6761

> <Gold.PLP.part.nonpolar>
-32.5555

> <Gold.PLP.part.repulsive>
0.2113

> <Gold.PLP.ligand.clash>
0.0000

> <Gold.PLP.ligand.torsion>
0.8491

> <Gold.PLP.Chemscore.Hbond>
1.9920

> <Gold.PLP.Chemscore.CHOScore>
0.0000

> <Gold.PLP.Chemscore.Metal>
0.0000

> <Gold.Chemscore.Hbonds>
donor molecule, donor type, donor heavy atom, donor atom, acceptor molecule, acceptor atom, score
      P1  H  7997  8010       L1    12  0.13

> <Gold.PLP.Chemscore.Internal.Correction>
0.6541

> <Gold.Rescore>
     Score         DG    S(hbond)    S(metal)    S(lipo)     H(rot)  DE(clash)    DE(int)     intcor
     12.26     -14.76       1.88        0.00      92.74       3.06       0.22       2.28       ----

> <Gold.Chemscore.Fitness>
12.2566

> <Gold.Chemscore.DG>
-14.7562

> <Gold.Chemscore.ZeroCoef>
-5.4800

> <Gold.Chemscore.Hbond>
1.8755

> <Gold.Chemscore.Metal>
0.0000

> <Gold.Chemscore.Lipo>
92.7411

> <Gold.Chemscore.Internal_Hbond>
0.0000

> <Gold.Chemscore.DEClash>
0.2164

> <Gold.Chemscore.DEInternal>
2.2831

> <Gold.Chemscore.Rot>
3.0620

> <Gold.Chemscore.Internal.Correction>
   9.000000E+99

> <Gold.Chemscore.Hbonds>
donor molecule, donor type, donor heavy atom, donor atom, acceptor molecule, acceptor atom, score
      P1  H  7997  8010       L1    12  0.14

> <Gold.Chemscore.Hbond.Weighted>
-6.2642

> <Gold.Chemscore.Metal.Weighted>
-0.0000

> <Gold.Chemscore.Lipo.Weighted>
-10.8507

> <Gold.Chemscore.Internal_Hbond.Weighted>
0.0000

> <Gold.Chemscore.DEClash.Weighted>
0.2164

> <Gold.Chemscore.DEInternal.Weighted>
2.2831

> <Gold.Chemscore.Rot.Weighted>
7.8388

> <Gold.Chemscore.Internal.Correction.Weighted>
   9.000000E+99

> <Gold.Protein.RotatedTorsions>
[ 6907 6896 6895 6894 ] final -159.99 input  -60.11 | X-H torsion
[ 7974 7965 7964 7962 ] final -132.42 input  175.53 | X-H torsion
[ 8008 7997 7996 7995 ] final   67.29 input   59.86 | X-H torsion
[ 10167 10162 10161 10158 ] final   82.18 input  -65.29 | X-H torsion
[ 10718 10713 10712 10709 ] final   25.77 input   66.30 | X-H torsion
[ 10763 10752 10751 10750 ] final  -82.58 input  -60.55 | X-H torsion
[ 11005 11000 10999 10996 ] final  161.14 input  -57.11 | X-H torsion

> <Gold.Protein.ActiveResidues>
 VAL166  LYS551  ARG553  GLY616  TRP617  ASP618  TYR619  PRO620  LYS621  CYS622 
 ASP623  PHE694  ASN695  SER759  ASP760  ASP761  ALA762  ILE779  LEU786  VAL792 
 PHE793  MET794  SER795  GLU796  ALA797  LYS798  CYS799  TRP800  GLU811  SER814 

> <Gold.Protein.RotatedAtoms>
  151.3421  133.3958  159.2671 H   0  0  0  0  0  0  0  0  0  0  0  0  # atno 6907 bound_to 6896
  150.9869  134.9213  159.7887 H   0  0  0  0  0  0  0  0  0  0  0  0  # atno 6908 bound_to 6896
  152.5235  134.3385  159.9261 H   0  0  0  0  0  0  0  0  0  0  0  0  # atno 6909 bound_to 6896
  144.9287  140.7103  143.4919 H   0  0  0  0  0  0  0  0  0  0  0  0  # atno 7974 bound_to 7965
  155.6907  140.3496  155.4892 H   0  0  0  0  0  0  0  0  0  0  0  0  # atno 8008 bound_to 7997
  155.9527  140.1122  157.0985 H   0  0  0  0  0  0  0  0  0  0  0  0  # atno 8009 bound_to 7997
  154.4125  140.1191  156.5060 H   0  0  0  0  0  0  0  0  0  0  0  0  # atno 8010 bound_to 7997
  139.9314  144.6149  150.8341 H   0  0  0  0  0  0  0  0  0  0  0  0  # atno 10167 bound_to 10162
  157.1979  130.6876  149.6176 H   0  0  0  0  0  0  0  0  0  0  0  0  # atno 10718 bound_to 10713
  154.5774  135.5586  153.7153 H   0  0  0  0  0  0  0  0  0  0  0  0  # atno 10763 bound_to 10752
  153.0069  135.6312  154.2030 H   0  0  0  0  0  0  0  0  0  0  0  0  # atno 10764 bound_to 10752
  154.1970  135.2879  155.2983 H   0  0  0  0  0  0  0  0  0  0  0  0  # atno 10765 bound_to 10752
  140.2129  134.8254  157.3139 H   0  0  0  0  0  0  0  0  0  0  0  0  # atno 11005 bound_to 11000
  145.3176  139.1798  143.4605 LP  0  0  0  0  0  0  0  0  0  0  0  0  # atno 17320 bound_to 7965
  146.3238  140.3189  142.8632 LP  0  0  0  0  0  0  0  0  0  0  0  0  # atno 17321 bound_to 7965
  140.7636  143.3227  151.2585 LP  0  0  0  0  0  0  0  0  0  0  0  0  # atno 17342 bound_to 10162
  139.6779  143.9906  152.2791 LP  0  0  0  0  0  0  0  0  0  0  0  0  # atno 17343 bound_to 10162
  155.9704  130.4593  150.6030 LP  0  0  0  0  0  0  0  0  0  0  0  0  # atno 17370 bound_to 10713
  157.3796  131.0779  151.1488 LP  0  0  0  0  0  0  0  0  0  0  0  0  # atno 17371 bound_to 10713
  140.1932  134.4346  155.7704 LP  0  0  0  0  0  0  0  0  0  0  0  0  # atno 17394 bound_to 11000
  141.2226  133.7037  156.8061 LP  0  0  0  0  0  0  0  0  0  0  0  0  # atno 17395 bound_to 11000

$$$$
