AV-unprocessed.smi:837|AV-procd|sdf|3902|dock2
  -GOLD-   22720 1363D 1   1.00000     0.00000
 Structure written by MMmdl.
 48 50  0  0  0  0  0  0  0  0  2 V2000
  148.9741  138.7451  153.8792 C   0  0  0  0  0  0  0  0  0  0  0  0
  149.8005  139.1727  155.1125 C   0  0  2  0  0  0  0  0  0  0  0  0
  151.0586  139.9465  154.6587 C   0  0  0  0  0  0  0  0  0  0  0  0
  151.8790  140.4601  155.8507 C   0  0  0  0  0  0  0  0  0  0  0  0
  152.2752  139.3127  156.7880 C   0  0  0  0  0  0  0  0  0  0  0  0
  151.0348  138.5373  157.2642 C   0  0  0  0  0  0  0  0  0  0  0  0
  150.1505  138.0103  156.1019 C   0  0  1  0  0  0  0  0  0  0  0  0
  148.9367  137.4462  156.6668 N   0  5  0  0  0  0  0  0  0  0  0  0
  148.8749  136.1295  156.3615 C   0  0  0  0  0  0  0  0  0  0  0  0
  147.9782  135.3446  156.6689 O   0  0  0  0  0  0  0  0  0  0  0  0
  149.9489  135.7485  155.6448 N   0  0  0  0  0  0  0  0  0  0  0  0
  150.1755  134.3927  155.1258 C   0  0  0  0  0  0  0  0  0  0  0  0
  148.8996  133.7218  154.5965 C   0  0  0  0  0  0  0  0  0  0  0  0
  148.5249  132.6319  155.0329 O   0  0  0  0  0  0  0  0  0  0  0  0
  148.2288  134.4034  153.6557 N   0  0  0  0  0  0  0  0  0  0  0  0
  146.9950  133.9595  153.0185 C   0  0  0  0  0  0  0  0  0  0  0  0
  147.2745  133.1736  151.7271 C   0  0  0  0  0  0  0  0  0  0  0  0
  146.0079  132.9071  150.9374 C   0  0  0  0  0  0  0  0  0  0  0  0
  144.7439  133.2426  151.4647 C   0  0  0  0  0  0  0  0  0  0  0  0
  143.5958  132.9804  150.6922 C   0  0  0  0  0  0  0  0  0  0  0  0
  143.7620  132.3931  149.4219 C   0  0  0  0  0  0  0  0  0  0  0  0
  144.9675  132.0680  148.9070 N   0  0  0  0  0  0  0  0  0  0  0  0
  146.0632  132.3220  149.6543 C   0  0  0  0  0  0  0  0  0  0  0  0
  150.7675  136.7844  155.4309 C   0  0  0  0  0  0  0  0  0  0  0  0
  151.8257  136.7771  154.8004 O   0  0  0  0  0  0  0  0  0  0  0  0
  149.5308  138.0673  153.2314 H   0  0  0  0  0  0  0  0  0  0  0  0
  148.6963  139.6119  153.2794 H   0  0  0  0  0  0  0  0  0  0  0  0
  148.0490  138.2451  154.1671 H   0  0  0  0  0  0  0  0  0  0  0  0
  149.1810  139.8830  155.6634 H   0  0  0  0  0  0  0  0  0  0  0  0
  151.6850  139.3149  154.0287 H   0  0  0  0  0  0  0  0  0  0  0  0
  150.7657  140.7933  154.0374 H   0  0  0  0  0  0  0  0  0  0  0  0
  152.7724  140.9733  155.4938 H   0  0  0  0  0  0  0  0  0  0  0  0
  151.2970  141.1990  156.4030 H   0  0  0  0  0  0  0  0  0  0  0  0
  152.9702  138.6437  156.2807 H   0  0  0  0  0  0  0  0  0  0  0  0
  152.8123  139.7102  157.6495 H   0  0  0  0  0  0  0  0  0  0  0  0
  151.3531  137.7136  157.9056 H   0  0  0  0  0  0  0  0  0  0  0  0
  150.4411  139.1948  157.9015 H   0  0  0  0  0  0  0  0  0  0  0  0
  150.9116  134.4152  154.3208 H   0  0  0  0  0  0  0  0  0  0  0  0
  150.6132  133.7694  155.9075 H   0  0  0  0  0  0  0  0  0  0  0  0
  148.6034  135.2928  153.3581 H   0  0  0  0  0  0  0  0  0  0  0  0
  146.4108  133.3565  153.7156 H   0  0  0  0  0  0  0  0  0  0  0  0
  146.3961  134.8424  152.7937 H   0  0  0  0  0  0  0  0  0  0  0  0
  147.9769  133.7226  151.0985 H   0  0  0  0  0  0  0  0  0  0  0  0
  147.7511  132.2202  151.9592 H   0  0  0  0  0  0  0  0  0  0  0  0
  144.6544  133.6936  152.4424 H   0  0  0  0  0  0  0  0  0  0  0  0
  142.6114  133.2242  151.0640 H   0  0  0  0  0  0  0  0  0  0  0  0
  142.9034  132.1787  148.8029 H   0  0  0  0  0  0  0  0  0  0  0  0
  147.0120  132.0531  149.2135 H   0  0  0  0  0  0  0  0  0  0  0  0
  1  2  1  0  0  0  0
  1 26  1  0  0  0  0
  1 27  1  0  0  0  0
  1 28  1  0  0  0  0
  2  7  1  0  0  0  0
  2  3  1  0  0  0  0
  2 29  1  0  0  0  0
  3  4  1  0  0  0  0
  3 30  1  0  0  0  0
  3 31  1  0  0  0  0
  4  5  1  0  0  0  0
  4 32  1  0  0  0  0
  4 33  1  0  0  0  0
  5  6  1  0  0  0  0
  5 34  1  0  0  0  0
  5 35  1  0  0  0  0
  6  7  1  0  0  0  0
  6 36  1  0  0  0  0
  6 37  1  0  0  0  0
  7 24  1  0  0  0  0
  7  8  1  0  0  0  0
  8  9  1  0  0  0  0
  9 10  2  0  0  0  0
  9 11  1  0  0  0  0
 11 12  1  0  0  0  0
 11 24  1  0  0  0  0
 12 13  1  0  0  0  0
 12 38  1  0  0  0  0
 12 39  1  0  0  0  0
 13 14  2  0  0  0  0
 13 15  1  0  0  0  0
 15 16  1  0  0  0  0
 15 40  1  0  0  0  0
 16 17  1  0  0  0  0
 16 41  1  0  0  0  0
 16 42  1  0  0  0  0
 17 18  1  0  0  0  0
 17 43  1  0  0  0  0
 17 44  1  0  0  0  0
 18 23  1  0  0  0  0
 18 19  2  0  0  0  0
 19 20  1  0  0  0  0
 19 45  1  0  0  0  0
 20 21  2  0  0  0  0
 20 46  1  0  0  0  0
 21 22  1  0  0  0  0
 21 47  1  0  0  0  0
 22 23  2  0  0  0  0
 23 48  1  0  0  0  0
 24 25  2  0  0  0  0
M  CHG  1   8  -1
M  END
> <s_m_source_file>
AV-unprocessed.smi

> <i_m_source_file_index>
837

> <i_lp_mmshare_version>
43012

> <i_f3d_flags>
0

> <s_epik_input>
W0NIMl0xW0NIMl1bQ0gyXVtDSDJdW0NAQEhdKFtDSDNdKVtDQEBdMTJbTkhdQyg9TylOKEMyPU8pW0NIMl1DKD1PKVtOSF1bQ0gyXVtDSDJdYzNbY0hdW2NIXVtjSF1uW2NIXTM=

> <s_epik_cmdline>
J2VwaWtfcHl0aG9uJywgJy1waCcsICc3LjAnLCAnLXRuJywgJzgnLCAnLW1hJywgJzIwMCcsICctbWV0YWxfYmluZGluZycsICctaW1hZScsICc8aW5maWxlLm1hZT4nLCAnLW9tYWUnLCAnPG91dGZpbGUubWFlPic=

> <r_lp_tautomer_probability>
1

> <r_epik_Ionization_Penalty>
6.03002

> <r_epik_Ionization_Penalty_Charging>
6.01728

> <r_epik_Ionization_Penalty_Neutral>
0.0127382

> <r_epik_State_Penalty>
6.02713

> <r_epik_Charging_Adjusted_Penalty>
12.0444

> <i_epik_Tot_Q>
-1

> <i_epik_Tot_abs_Q>
1

> <r_epik_Metal_State_Penalty>
1.99078

> <b_epik_Metal_Only>
1

> <s_lp_Force_Field>
OPLS_2005

> <r_lp_Energy>
14.9732

> <b_lp_Chiralities_Consistent>
1

> <s_lp_Variant>
AV-unprocessed.smi:837-11

> <Gold.Version>
5.8.1

> <Gold.Id.Protein>
6NUR|6NUR_protein|mol2

> <Gold.PLP.Fitness>
46.5066

> <Gold.PLP.PLP>
-36.1121

> <Gold.PLP.part.hbond>
-3.0000

> <Gold.PLP.part.metal>
0.0000

> <Gold.PLP.part.buried>
-2.7749

> <Gold.PLP.part.nonpolar>
-33.1125

> <Gold.PLP.part.repulsive>
0.3051

> <Gold.PLP.ligand.clash>
0.0000

> <Gold.PLP.ligand.torsion>
0.5451

> <Gold.PLP.Chemscore.Hbond>
1.8160

> <Gold.PLP.Chemscore.CHOScore>
1.9963

> <Gold.PLP.Chemscore.Metal>
0.0000

> <Gold.Chemscore.Hbonds>
donor molecule, donor type, donor heavy atom, donor atom, acceptor molecule, acceptor atom, score
      L1  H    15    40       P1  7948  0.80
      P1  H 10752 10765       L1    25  1.00
      L1  C    21    47       P1 10952  0.13
      L1  C    23    48       P1 10747  1.00

> <Gold.PLP.Chemscore.Internal.Correction>
0.0479

> <Gold.Rescore>
     Score         DG    S(hbond)    S(metal)    S(lipo)     H(rot)  DE(clash)    DE(int)     intcor
     15.99     -18.07       1.72        0.00      98.23       1.81       0.15       1.94       ----

> <Gold.Chemscore.Fitness>
15.9856

> <Gold.Chemscore.DG>
-18.0735

> <Gold.Chemscore.ZeroCoef>
-5.4800

> <Gold.Chemscore.Hbond>
1.7161

> <Gold.Chemscore.Metal>
0.0000

> <Gold.Chemscore.Lipo>
98.2277

> <Gold.Chemscore.Internal_Hbond>
0.0000

> <Gold.Chemscore.DEClash>
0.1480

> <Gold.Chemscore.DEInternal>
1.9399

> <Gold.Chemscore.Rot>
1.8090

> <Gold.Chemscore.Internal.Correction>
   9.000000E+99

> <Gold.Chemscore.Hbonds>
donor molecule, donor type, donor heavy atom, donor atom, acceptor molecule, acceptor atom, score
      L1  H    15    40       P1  7948  0.72
      P1  H 10752 10765       L1    25  0.99

> <Gold.Chemscore.Hbond.Weighted>
-5.7319

> <Gold.Chemscore.Metal.Weighted>
-0.0000

> <Gold.Chemscore.Lipo.Weighted>
-11.4926

> <Gold.Chemscore.Internal_Hbond.Weighted>
0.0000

> <Gold.Chemscore.DEClash.Weighted>
0.1480

> <Gold.Chemscore.DEInternal.Weighted>
1.9399

> <Gold.Chemscore.Rot.Weighted>
4.6310

> <Gold.Chemscore.Internal.Correction.Weighted>
   9.000000E+99

> <Gold.Protein.RotatedTorsions>
[ 6907 6896 6895 6894 ] final   28.74 input  -60.11 | X-H torsion
[ 7974 7965 7964 7962 ] final   73.48 input  175.53 | X-H torsion
[ 8008 7997 7996 7995 ] final -177.31 input   59.86 | X-H torsion
[ 10167 10162 10161 10158 ] final  109.54 input  -65.29 | X-H torsion
[ 10718 10713 10712 10709 ] final -109.63 input   66.30 | X-H torsion
[ 10763 10752 10751 10750 ] final  179.53 input  -60.55 | X-H torsion
[ 11005 11000 10999 10996 ] final  -45.53 input  -57.11 | X-H torsion

> <Gold.Protein.ActiveResidues>
 VAL166  LYS551  ARG553  GLY616  TRP617  ASP618  TYR619  PRO620  LYS621  CYS622 
 ASP623  PHE694  ASN695  SER759  ASP760  ASP761  ALA762  ILE779  LEU786  VAL792 
 PHE793  MET794  SER795  GLU796  ALA797  LYS798  CYS799  TRP800  GLU811  SER814 

> <Gold.Protein.RotatedAtoms>
  152.0213  134.9821  160.0570 H   0  0  0  0  0  0  0  0  0  0  0  0  # atno 6907 bound_to 6896
  152.1334  133.4416  159.4740 H   0  0  0  0  0  0  0  0  0  0  0  0  # atno 6908 bound_to 6896
  150.6858  134.2311  159.4478 H   0  0  0  0  0  0  0  0  0  0  0  0  # atno 6909 bound_to 6896
  145.7403  139.2718  143.1490 H   0  0  0  0  0  0  0  0  0  0  0  0  # atno 7974 bound_to 7965
  156.0053  140.1229  157.0507 H   0  0  0  0  0  0  0  0  0  0  0  0  # atno 8008 bound_to 7997
  154.4256  140.1098  156.5823 H   0  0  0  0  0  0  0  0  0  0  0  0  # atno 8009 bound_to 7997
  155.6155  140.3472  155.4638 H   0  0  0  0  0  0  0  0  0  0  0  0  # atno 8010 bound_to 7997
  139.6759  144.7122  151.1603 H   0  0  0  0  0  0  0  0  0  0  0  0  # atno 10167 bound_to 10162
  156.0547  130.5774  150.8126 H   0  0  0  0  0  0  0  0  0  0  0  0  # atno 10718 bound_to 10713
  154.5218  135.2794  155.1256 H   0  0  0  0  0  0  0  0  0  0  0  0  # atno 10763 bound_to 10752
  154.2810  135.6285  153.5351 H   0  0  0  0  0  0  0  0  0  0  0  0  # atno 10764 bound_to 10752
  152.9938  135.5651  154.5709 H   0  0  0  0  0  0  0  0  0  0  0  0  # atno 10765 bound_to 10752
  141.0521  133.6739  156.3026 H   0  0  0  0  0  0  0  0  0  0  0  0  # atno 11005 bound_to 11000
  146.0454  140.8123  142.9808 LP  0  0  0  0  0  0  0  0  0  0  0  0  # atno 17320 bound_to 7965
  144.6872  140.2973  143.7269 LP  0  0  0  0  0  0  0  0  0  0  0  0  # atno 17321 bound_to 7965
  140.7635  143.5773  150.8932 LP  0  0  0  0  0  0  0  0  0  0  0  0  # atno 17342 bound_to 10162
  139.9442  143.6347  152.3046 LP  0  0  0  0  0  0  0  0  0  0  0  0  # atno 17343 bound_to 10162
  157.5506  131.0943  150.9700 LP  0  0  0  0  0  0  0  0  0  0  0  0  # atno 17370 bound_to 10713
  156.9961  130.5582  149.5307 LP  0  0  0  0  0  0  0  0  0  0  0  0  # atno 17371 bound_to 10713
  140.6035  134.5531  157.5521 LP  0  0  0  0  0  0  0  0  0  0  0  0  # atno 17394 bound_to 11000
  139.9359  134.7876  156.0804 LP  0  0  0  0  0  0  0  0  0  0  0  0  # atno 17395 bound_to 11000

$$$$
