AV-unprocessed.smi:804|AV-procd|sdf|3795|dock1
  -GOLD-   22720 1233D 1   1.00000     0.00000
 Structure written by MMmdl.
 38 39  0  0  0  0  0  0  0  0  2 V2000
  155.2958  138.1771  163.5160 C   0  0  0  0  0  0  0  0  0  0  0  0
  154.3272  137.0971  163.0020 C   0  0  0  0  0  0  0  0  0  0  0  0
  155.1409  135.8885  162.4938 C   0  0  0  0  0  0  0  0  0  0  0  0
  153.3824  136.6781  164.1478 C   0  0  0  0  0  0  0  0  0  0  0  0
  153.5586  137.6942  161.8989 N   0  5  0  0  0  0  0  0  0  0  0  0
  153.4719  137.2355  160.6133 C   0  0  0  0  0  0  0  0  0  0  0  0
  153.6603  136.0936  160.1824 O   0  0  0  0  0  0  0  0  0  0  0  0
  153.0906  138.3230  159.6344 C   0  0  0  0  0  0  0  0  0  0  0  0
  153.0235  139.5968  160.0998 N   0  0  0  0  0  0  0  0  0  0  0  0
  152.6782  140.5794  159.2617 C   0  0  0  0  0  0  0  0  0  0  0  0
  152.6251  141.8813  159.7772 N   0  0  0  0  0  0  0  0  0  0  0  0
  153.0638  142.1902  161.1408 C   0  0  0  0  0  0  0  0  0  0  0  0
  152.2669  143.3726  161.7170 C   0  0  0  0  0  0  0  0  0  0  0  0
  152.3690  144.4934  160.8473 O   0  0  0  0  0  0  0  0  0  0  0  0
  151.8226  144.2107  159.5649 C   0  0  0  0  0  0  0  0  0  0  0  0
  152.6012  143.0592  158.9067 C   0  0  0  0  0  0  0  0  0  0  0  0
  152.3784  140.4094  157.9690 N   0  0  0  0  0  0  0  0  0  0  0  0
  152.4363  139.1558  157.4754 C   0  0  0  0  0  0  0  0  0  0  0  0
  152.7941  138.0509  158.2714 C   0  0  0  0  0  0  0  0  0  0  0  0
  152.8822  136.4796  157.5499 Cl  0  0  0  0  0  0  0  0  0  0  0  0
  155.9028  137.8030  164.3411 H   0  0  0  0  0  0  0  0  0  0  0  0
  154.7597  139.0558  163.8773 H   0  0  0  0  0  0  0  0  0  0  0  0
  155.9787  138.5080  162.7321 H   0  0  0  0  0  0  0  0  0  0  0  0
  155.7895  136.1656  161.6615 H   0  0  0  0  0  0  0  0  0  0  0  0
  154.4995  135.0743  162.1561 H   0  0  0  0  0  0  0  0  0  0  0  0
  155.7768  135.4864  163.2830 H   0  0  0  0  0  0  0  0  0  0  0  0
  153.9471  136.3150  165.0069 H   0  0  0  0  0  0  0  0  0  0  0  0
  152.7066  135.8766  163.8497 H   0  0  0  0  0  0  0  0  0  0  0  0
  152.7723  137.5156  164.4885 H   0  0  0  0  0  0  0  0  0  0  0  0
  152.9459  141.3409  161.8138 H   0  0  0  0  0  0  0  0  0  0  0  0
  154.1274  142.4299  161.1188 H   0  0  0  0  0  0  0  0  0  0  0  0
  151.2194  143.1019  161.8605 H   0  0  0  0  0  0  0  0  0  0  0  0
  152.6606  143.6469  162.6956 H   0  0  0  0  0  0  0  0  0  0  0  0
  150.7635  143.9627  159.6538 H   0  0  0  0  0  0  0  0  0  0  0  0
  151.8881  145.1069  158.9478 H   0  0  0  0  0  0  0  0  0  0  0  0
  153.6284  143.3666  158.7079 H   0  0  0  0  0  0  0  0  0  0  0  0
  152.1424  142.8465  157.9416 H   0  0  0  0  0  0  0  0  0  0  0  0
  152.2009  139.0350  156.4283 H   0  0  0  0  0  0  0  0  0  0  0  0
  1  2  1  0  0  0  0
  1 21  1  0  0  0  0
  1 22  1  0  0  0  0
  1 23  1  0  0  0  0
  2  3  1  0  0  0  0
  2  4  1  0  0  0  0
  2  5  1  0  0  0  0
  3 24  1  0  0  0  0
  3 25  1  0  0  0  0
  3 26  1  0  0  0  0
  4 27  1  0  0  0  0
  4 28  1  0  0  0  0
  4 29  1  0  0  0  0
  5  6  1  0  0  0  0
  6  7  2  0  0  0  0
  6  8  1  0  0  0  0
  8 19  1  0  0  0  0
  8  9  2  0  0  0  0
  9 10  1  0  0  0  0
 10 11  1  0  0  0  0
 10 17  2  0  0  0  0
 11 16  1  0  0  0  0
 11 12  1  0  0  0  0
 12 13  1  0  0  0  0
 12 30  1  0  0  0  0
 12 31  1  0  0  0  0
 13 14  1  0  0  0  0
 13 32  1  0  0  0  0
 13 33  1  0  0  0  0
 14 15  1  0  0  0  0
 15 16  1  0  0  0  0
 15 34  1  0  0  0  0
 15 35  1  0  0  0  0
 16 36  1  0  0  0  0
 16 37  1  0  0  0  0
 17 18  1  0  0  0  0
 18 19  2  0  0  0  0
 18 38  1  0  0  0  0
 19 20  1  0  0  0  0
M  CHG  1   5  -1
M  END
> <s_m_source_file>
AV-unprocessed.smi

> <i_m_source_file_index>
804

> <i_lp_mmshare_version>
43012

> <i_f3d_flags>
0

> <s_epik_input>
W0NIM11DKFtDSDNdKShbQ0gzXSlbTkhdQyg9TyljMW5jKG5bY0hdYzFDbClOMltDSDJdW0NIMl1PW0NIMl1bQ0gyXTI=

> <s_epik_cmdline>
J2VwaWtfcHl0aG9uJywgJy1waCcsICc3LjAnLCAnLXRuJywgJzgnLCAnLW1hJywgJzIwMCcsICctbWV0YWxfYmluZGluZycsICctaW1hZScsICc8aW5maWxlLm1hZT4nLCAnLW9tYWUnLCAnPG91dGZpbGUubWFlPic=

> <r_lp_tautomer_probability>
1

> <r_epik_Ionization_Penalty>
6.49938

> <r_epik_Ionization_Penalty_Charging>
6.49935

> <r_epik_Ionization_Penalty_Neutral>
2.43511e-05

> <r_epik_State_Penalty>
6.49934

> <r_epik_Charging_Adjusted_Penalty>
12.9987

> <i_epik_Tot_Q>
-1

> <i_epik_Tot_abs_Q>
1

> <r_epik_Metal_State_Penalty>
2.42664

> <b_epik_Metal_Only>
1

> <s_lp_Force_Field>
OPLS_2005

> <r_lp_Energy>
19.224

> <b_lp_Chiralities_Consistent>
1

> <s_lp_Variant>
AV-unprocessed.smi:804-2

> <Gold.Version>
5.8.1

> <Gold.Id.Protein>
6NUR|6NUR_protein|mol2

> <Gold.PLP.Fitness>
40.2527

> <Gold.PLP.PLP>
-37.5379

> <Gold.PLP.part.hbond>
-1.3089

> <Gold.PLP.part.metal>
0.0000

> <Gold.PLP.part.buried>
-3.9754

> <Gold.PLP.part.nonpolar>
-32.6973

> <Gold.PLP.part.repulsive>
0.1179

> <Gold.PLP.ligand.clash>
0.0000

> <Gold.PLP.ligand.torsion>
0.2180

> <Gold.PLP.Chemscore.Hbond>
1.0000

> <Gold.PLP.Chemscore.CHOScore>
0.0000

> <Gold.PLP.Chemscore.Metal>
0.0000

> <Gold.Chemscore.Hbonds>
donor molecule, donor type, donor heavy atom, donor atom, acceptor molecule, acceptor atom, score
      P1  H  6896  6909       L1     7  1.00

> <Gold.PLP.Chemscore.Internal.Correction>
0.1508

> <Gold.Rescore>
     Score         DG    S(hbond)    S(metal)    S(lipo)     H(rot)  DE(clash)    DE(int)     intcor
     14.04     -17.33       1.00        0.00      94.78       1.00       0.21       3.09       ----

> <Gold.Chemscore.Fitness>
14.0405

> <Gold.Chemscore.DG>
-17.3342

> <Gold.Chemscore.ZeroCoef>
-5.4800

> <Gold.Chemscore.Hbond>
0.9955

> <Gold.Chemscore.Metal>
0.0000

> <Gold.Chemscore.Lipo>
94.7799

> <Gold.Chemscore.Internal_Hbond>
0.0000

> <Gold.Chemscore.DEClash>
0.2081

> <Gold.Chemscore.DEInternal>
3.0857

> <Gold.Chemscore.Rot>
1.0000

> <Gold.Chemscore.Internal.Correction>
   9.000000E+99

> <Gold.Chemscore.Hbonds>
donor molecule, donor type, donor heavy atom, donor atom, acceptor molecule, acceptor atom, score
      P1  H  6896  6909       L1     7  0.99

> <Gold.Chemscore.Hbond.Weighted>
-3.3250

> <Gold.Chemscore.Metal.Weighted>
-0.0000

> <Gold.Chemscore.Lipo.Weighted>
-11.0892

> <Gold.Chemscore.Internal_Hbond.Weighted>
0.0000

> <Gold.Chemscore.DEClash.Weighted>
0.2081

> <Gold.Chemscore.DEInternal.Weighted>
3.0857

> <Gold.Chemscore.Rot.Weighted>
2.5600

> <Gold.Chemscore.Internal.Correction.Weighted>
   9.000000E+99

> <Gold.Protein.RotatedTorsions>
[ 6907 6896 6895 6894 ] final  166.56 input  -60.11 | X-H torsion
[ 7974 7965 7964 7962 ] final  159.56 input  175.53 | X-H torsion
[ 8008 7997 7996 7995 ] final  110.72 input   59.86 | X-H torsion
[ 10167 10162 10161 10158 ] final  -36.49 input  -65.29 | X-H torsion
[ 10718 10713 10712 10709 ] final  168.03 input   66.30 | X-H torsion
[ 10763 10752 10751 10750 ] final -101.81 input  -60.55 | X-H torsion
[ 11005 11000 10999 10996 ] final  122.73 input  -57.11 | X-H torsion

> <Gold.Protein.ActiveResidues>
 VAL166  LYS551  ARG553  GLY616  TRP617  ASP618  TYR619  PRO620  LYS621  CYS622 
 ASP623  PHE694  ASN695  SER759  ASP760  ASP761  ALA762  ILE779  LEU786  VAL792 
 PHE793  MET794  SER795  GLU796  ALA797  LYS798  CYS799  TRP800  GLU811  SER814 

> <Gold.Protein.RotatedAtoms>
  151.8769  133.3487  159.3753 H   0  0  0  0  0  0  0  0  0  0  0  0  # atno 6907 bound_to 6896
  150.7137  134.5057  159.5592 H   0  0  0  0  0  0  0  0  0  0  0  0  # atno 6908 bound_to 6896
  152.2601  134.8043  160.0483 H   0  0  0  0  0  0  0  0  0  0  0  0  # atno 6909 bound_to 6896
  144.7784  139.7634  143.6270 H   0  0  0  0  0  0  0  0  0  0  0  0  # atno 7974 bound_to 7965
  156.2073  140.3033  155.9655 H   0  0  0  0  0  0  0  0  0  0  0  0  # atno 8008 bound_to 7997
  155.2810  140.0438  157.3032 H   0  0  0  0  0  0  0  0  0  0  0  0  # atno 8009 bound_to 7997
  154.5651  140.2331  155.8285 H   0  0  0  0  0  0  0  0  0  0  0  0  # atno 8010 bound_to 7997
  140.7141  143.3405  151.2368 H   0  0  0  0  0  0  0  0  0  0  0  0  # atno 10167 bound_to 10162
  157.0429  131.0292  151.2707 H   0  0  0  0  0  0  0  0  0  0  0  0  # atno 10718 bound_to 10713
  154.7686  135.4884  153.9604 H   0  0  0  0  0  0  0  0  0  0  0  0  # atno 10763 bound_to 10752
  153.1339  135.6758  153.9141 H   0  0  0  0  0  0  0  0  0  0  0  0  # atno 10764 bound_to 10752
  153.8837  135.3129  155.3424 H   0  0  0  0  0  0  0  0  0  0  0  0  # atno 10765 bound_to 10752
  139.9281  134.9641  156.8153 H   0  0  0  0  0  0  0  0  0  0  0  0  # atno 11005 bound_to 11000
  146.1977  139.5253  142.9764 LP  0  0  0  0  0  0  0  0  0  0  0  0  # atno 17320 bound_to 7965
  145.6121  141.0338  143.1961 LP  0  0  0  0  0  0  0  0  0  0  0  0  # atno 17321 bound_to 7965
  139.6911  143.9690  152.2859 LP  0  0  0  0  0  0  0  0  0  0  0  0  # atno 17342 bound_to 10162
  139.9352  144.6716  150.8322 LP  0  0  0  0  0  0  0  0  0  0  0  0  # atno 17343 bound_to 10162
  157.5090  130.7927  149.7685 LP  0  0  0  0  0  0  0  0  0  0  0  0  # atno 17370 bound_to 10713
  156.0032  130.3869  150.2527 LP  0  0  0  0  0  0  0  0  0  0  0  0  # atno 17371 bound_to 10713
  140.6279  133.9933  155.7648 LP  0  0  0  0  0  0  0  0  0  0  0  0  # atno 17394 bound_to 11000
  141.0852  134.0001  157.3324 LP  0  0  0  0  0  0  0  0  0  0  0  0  # atno 17395 bound_to 11000

$$$$
