AV-unprocessed.smi:652|AV-procd|sdf|3198|dock1
  -GOLD-   22720 0123D 1   1.00000     0.00000
 Structure written by MMmdl.
 49 50  0  0  0  0  0  0  0  0  3 V2000
  152.8044  144.3070  159.0564 C   0  0  0  0  0  0  0  0  0  0  0  0
  151.3306  144.7064  158.8798 C   0  0  0  0  0  0  0  0  0  0  0  0
  150.6090  144.8156  160.2296 C   0  0  0  0  0  0  0  0  0  0  0  0
  150.6345  143.7398  158.0348 N   0  0  0  0  0  0  0  0  0  0  0  0
  150.5237  142.4254  158.2839 C   0  0  0  0  0  0  0  0  0  0  0  0
  151.0063  141.8850  159.2794 O   0  0  0  0  0  0  0  0  0  0  0  0
  149.7481  141.6080  157.2446 C   0  0  0  0  0  0  0  0  0  0  0  0
  150.3383  141.7081  155.8216 C   0  0  0  0  0  0  0  0  0  0  0  0
  150.1190  140.4754  155.0232 N   0  3  1  0  0  0  0  0  0  0  0  0
  151.0118  139.3701  155.4457 C   0  0  0  0  0  0  0  0  0  0  0  0
  150.7876  138.1292  154.5681 C   0  0  0  0  0  0  0  0  0  0  0  0
  149.4200  137.7448  154.6328 O   0  0  0  0  0  0  0  0  0  0  0  0
  148.5478  138.7532  154.1362 C   0  0  1  0  0  0  0  0  0  0  0  0
  147.1187  138.1798  154.1736 C   0  0  0  0  0  0  0  0  0  0  0  0
  146.7919  137.3882  152.9946 N   0  0  0  0  0  0  0  0  0  0  0  0
  145.5271  136.8079  152.8175 C   0  0  0  0  0  0  0  0  0  0  0  0
  145.1525  136.0278  151.6980 C   0  0  0  0  0  0  0  0  0  0  0  0
  143.8485  135.5056  151.6550 C   0  0  0  0  0  0  0  0  0  0  0  0
  142.9952  135.7934  152.7347 C   0  0  0  0  0  0  0  0  0  0  0  0
  143.3714  136.5421  153.7952 N   0  0  0  0  0  0  0  0  0  0  0  0
  144.6256  137.0264  153.8076 N   0  3  0  0  0  0  0  0  0  0  0  0
  148.7060  140.0196  155.0058 C   0  0  0  0  0  0  0  0  0  0  0  0
  153.3315  145.0263  159.6839 H   0  0  0  0  0  0  0  0  0  0  0  0
  153.3239  144.2687  158.0983 H   0  0  0  0  0  0  0  0  0  0  0  0
  152.8973  143.3269  159.5252 H   0  0  0  0  0  0  0  0  0  0  0  0
  151.2911  145.6875  158.4028 H   0  0  0  0  0  0  0  0  0  0  0  0
  151.0891  145.5546  160.8715 H   0  0  0  0  0  0  0  0  0  0  0  0
  150.6112  143.8628  160.7603 H   0  0  0  0  0  0  0  0  0  0  0  0
  149.5707  145.1215  160.0974 H   0  0  0  0  0  0  0  0  0  0  0  0
  150.2079  144.1011  157.1939 H   0  0  0  0  0  0  0  0  0  0  0  0
  149.7279  140.5698  157.5765 H   0  0  0  0  0  0  0  0  0  0  0  0
  148.7155  141.9596  157.2425 H   0  0  0  0  0  0  0  0  0  0  0  0
  149.8564  142.5380  155.3015 H   0  0  0  0  0  0  0  0  0  0  0  0
  151.4037  141.9419  155.8579 H   0  0  0  0  0  0  0  0  0  0  0  0
  152.0538  139.6844  155.3731 H   0  0  0  0  0  0  0  0  0  0  0  0
  150.8225  139.1261  156.4923 H   0  0  0  0  0  0  0  0  0  0  0  0
  151.0779  138.3233  153.5342 H   0  0  0  0  0  0  0  0  0  0  0  0
  151.4039  137.3026  154.9220 H   0  0  0  0  0  0  0  0  0  0  0  0
  148.8238  138.9748  153.1038 H   0  0  0  0  0  0  0  0  0  0  0  0
  146.9745  137.5745  155.0685 H   0  0  0  0  0  0  0  0  0  0  0  0
  146.3976  138.9944  154.2493 H   0  0  0  0  0  0  0  0  0  0  0  0
  147.5083  137.2444  152.2968 H   0  0  0  0  0  0  0  0  0  0  0  0
  145.8330  135.8244  150.8850 H   0  0  0  0  0  0  0  0  0  0  0  0
  143.5124  134.9028  150.8243 H   0  0  0  0  0  0  0  0  0  0  0  0
  141.9837  135.4145  152.7498 H   0  0  0  0  0  0  0  0  0  0  0  0
  148.3777  139.8173  156.0267 H   0  0  0  0  0  0  0  0  0  0  0  0
  148.0637  140.8077  154.6147 H   0  0  0  0  0  0  0  0  0  0  0  0
  150.3747  140.6978  154.0715 H   0  0  0  0  0  0  0  0  0  0  0  0
  144.9161  137.5885  154.6078 H   0  0  0  0  0  0  0  0  0  0  0  0
  1  2  1  0  0  0  0
  1 23  1  0  0  0  0
  1 24  1  0  0  0  0
  1 25  1  0  0  0  0
  2  3  1  0  0  0  0
  2  4  1  0  0  0  0
  2 26  1  0  0  0  0
  3 27  1  0  0  0  0
  3 28  1  0  0  0  0
  3 29  1  0  0  0  0
  4  5  1  0  0  0  0
  4 30  1  0  0  0  0
  5  6  2  0  0  0  0
  5  7  1  0  0  0  0
  7  8  1  0  0  0  0
  7 31  1  0  0  0  0
  7 32  1  0  0  0  0
  8  9  1  0  0  0  0
  8 33  1  0  0  0  0
  8 34  1  0  0  0  0
  9 22  1  0  0  0  0
  9 10  1  0  0  0  0
  9 48  1  0  0  0  0
 10 11  1  0  0  0  0
 10 35  1  0  0  0  0
 10 36  1  0  0  0  0
 11 12  1  0  0  0  0
 11 37  1  0  0  0  0
 11 38  1  0  0  0  0
 12 13  1  0  0  0  0
 13 14  1  0  0  0  0
 13 22  1  0  0  0  0
 13 39  1  0  0  0  0
 14 15  1  0  0  0  0
 14 40  1  0  0  0  0
 14 41  1  0  0  0  0
 15 16  1  0  0  0  0
 15 42  1  0  0  0  0
 16 21  1  0  0  0  0
 16 17  2  0  0  0  0
 17 18  1  0  0  0  0
 17 43  1  0  0  0  0
 18 19  2  0  0  0  0
 18 44  1  0  0  0  0
 19 20  1  0  0  0  0
 19 45  1  0  0  0  0
 20 21  2  0  0  0  0
 21 49  1  0  0  0  0
 22 46  1  0  0  0  0
 22 47  1  0  0  0  0
M  CHG  1   9   1
M  CHG  1  21   1
M  END
> <s_m_source_file>
AV-unprocessed.smi

> <i_m_source_file_index>
652

> <i_lp_mmshare_version>
43012

> <i_f3d_flags>
0

> <s_epik_input>
W0NIM11bQ0hdKFtDSDNdKVtOSF1DKD1PKVtDSDJdW0NIMl1OMVtDSDJdW0NIMl1PW0NASF0oW0NIMl0xKVtDSDJdW05IXWMyW2NIXVtjSF1bY0hdbm4y

> <s_epik_cmdline>
J2VwaWtfcHl0aG9uJywgJy1waCcsICc3LjAnLCAnLXRuJywgJzgnLCAnLW1hJywgJzIwMCcsICctbWV0YWxfYmluZGluZycsICctaW1hZScsICc8aW5maWxlLm1hZT4nLCAnLW9tYWUnLCAnPG91dGZpbGUubWFlPic=

> <r_lp_tautomer_probability>
0.966961

> <r_epik_Ionization_Penalty>
2.79885

> <r_epik_Ionization_Penalty_Charging>
2.79884

> <r_epik_Ionization_Penalty_Neutral>
3.2567e-06

> <r_epik_State_Penalty>
2.43203

> <r_epik_Charging_Adjusted_Penalty>
5.23087

> <i_epik_Tot_Q>
2

> <i_epik_Tot_abs_Q>
2

> <r_epik_Metal_State_Penalty>
2.43963

> <b_epik_Metal_Only>
0

> <s_lp_Force_Field>
OPLS_2005

> <r_lp_Energy>
31.8116

> <b_lp_Chiralities_Consistent>
1

> <s_lp_Variant>
AV-unprocessed.smi:652-7

> <Gold.Version>
5.8.1

> <Gold.Id.Protein>
6NUR|6NUR_protein|mol2

> <Gold.PLP.Fitness>
45.4102

> <Gold.PLP.PLP>
-37.4366

> <Gold.PLP.part.hbond>
-2.6255

> <Gold.PLP.part.metal>
0.0000

> <Gold.PLP.part.buried>
-8.8806

> <Gold.PLP.part.nonpolar>
-28.1711

> <Gold.PLP.part.repulsive>
1.1612

> <Gold.PLP.ligand.clash>
0.0000

> <Gold.PLP.ligand.torsion>
0.5532

> <Gold.PLP.Chemscore.Hbond>
3.0000

> <Gold.PLP.Chemscore.CHOScore>
0.0000

> <Gold.PLP.Chemscore.Metal>
0.0000

> <Gold.Chemscore.Hbonds>
donor molecule, donor type, donor heavy atom, donor atom, acceptor molecule, acceptor atom, score
      L1  H     4    30       P1  8028  0.84
      L1  H    15    42       P1  7948  1.79

> <Gold.PLP.Chemscore.Internal.Correction>
0.0799

> <Gold.Rescore>
     Score         DG    S(hbond)    S(metal)    S(lipo)     H(rot)  DE(clash)    DE(int)     intcor
     14.88     -16.39       1.97        0.00      87.99       2.33       0.17       1.34       ----

> <Gold.Chemscore.Fitness>
14.8813

> <Gold.Chemscore.DG>
-16.3876

> <Gold.Chemscore.ZeroCoef>
-5.4800

> <Gold.Chemscore.Hbond>
1.9712

> <Gold.Chemscore.Metal>
0.0000

> <Gold.Chemscore.Lipo>
87.9928

> <Gold.Chemscore.Internal_Hbond>
0.0000

> <Gold.Chemscore.DEClash>
0.1693

> <Gold.Chemscore.DEInternal>
1.3370

> <Gold.Chemscore.Rot>
2.3326

> <Gold.Chemscore.Internal.Correction>
   9.000000E+99

> <Gold.Chemscore.Hbonds>
donor molecule, donor type, donor heavy atom, donor atom, acceptor molecule, acceptor atom, score
      L1  H     4    30       P1  8028  0.70
      L1  H    15    42       P1  7948  0.88

> <Gold.Chemscore.Hbond.Weighted>
-6.5838

> <Gold.Chemscore.Metal.Weighted>
-0.0000

> <Gold.Chemscore.Lipo.Weighted>
-10.2952

> <Gold.Chemscore.Internal_Hbond.Weighted>
0.0000

> <Gold.Chemscore.DEClash.Weighted>
0.1693

> <Gold.Chemscore.DEInternal.Weighted>
1.3370

> <Gold.Chemscore.Rot.Weighted>
5.9714

> <Gold.Chemscore.Internal.Correction.Weighted>
   9.000000E+99

> <Gold.Protein.RotatedTorsions>
[ 6907 6896 6895 6894 ] final  -42.18 input  -60.11 | X-H torsion
[ 7974 7965 7964 7962 ] final -126.52 input  175.53 | X-H torsion
[ 8008 7997 7996 7995 ] final -169.48 input   59.86 | X-H torsion
[ 10167 10162 10161 10158 ] final   58.31 input  -65.29 | X-H torsion
[ 10718 10713 10712 10709 ] final   -4.85 input   66.30 | X-H torsion
[ 10763 10752 10751 10750 ] final -115.34 input  -60.55 | X-H torsion
[ 11005 11000 10999 10996 ] final  101.95 input  -57.11 | X-H torsion

> <Gold.Protein.ActiveResidues>
 VAL166  LYS551  ARG553  GLY616  TRP617  ASP618  TYR619  PRO620  LYS621  CYS622 
 ASP623  PHE694  ASN695  SER759  ASP760  ASP761  ALA762  ILE779  LEU786  VAL792 
 PHE793  MET794  SER795  GLU796  ALA797  LYS798  CYS799  TRP800  GLU811  SER814 

> <Gold.Protein.RotatedAtoms>
  150.9582  134.8973  159.7713 H   0  0  0  0  0  0  0  0  0  0  0  0  # atno 6907 bound_to 6896
  152.5146  134.3710  159.9328 H   0  0  0  0  0  0  0  0  0  0  0  0  # atno 6908 bound_to 6896
  151.3723  133.3810  159.2736 H   0  0  0  0  0  0  0  0  0  0  0  0  # atno 6909 bound_to 6896
  144.9864  140.7690  143.4581 H   0  0  0  0  0  0  0  0  0  0  0  0  # atno 7974 bound_to 7965
  155.9056  140.1048  157.1318 H   0  0  0  0  0  0  0  0  0  0  0  0  # atno 8008 bound_to 7997
  154.4032  140.1284  156.4556 H   0  0  0  0  0  0  0  0  0  0  0  0  # atno 8009 bound_to 7997
  155.7372  140.3467  155.5089 H   0  0  0  0  0  0  0  0  0  0  0  0  # atno 8010 bound_to 7997
  140.1886  144.4109  150.6581 H   0  0  0  0  0  0  0  0  0  0  0  0  # atno 10167 bound_to 10162
  156.7552  130.5252  149.5796 H   0  0  0  0  0  0  0  0  0  0  0  0  # atno 10718 bound_to 10713
  154.8477  135.4385  154.1648 H   0  0  0  0  0  0  0  0  0  0  0  0  # atno 10763 bound_to 10752
  153.2776  135.6951  153.7423 H   0  0  0  0  0  0  0  0  0  0  0  0  # atno 10764 bound_to 10752
  153.6640  135.3430  155.3110 H   0  0  0  0  0  0  0  0  0  0  0  0  # atno 10765 bound_to 10752
  139.8775  134.9204  156.4984 H   0  0  0  0  0  0  0  0  0  0  0  0  # atno 11005 bound_to 11000
  145.2348  139.2099  143.5024 LP  0  0  0  0  0  0  0  0  0  0  0  0  # atno 17320 bound_to 7965
  146.3421  140.2232  142.8592 LP  0  0  0  0  0  0  0  0  0  0  0  0  # atno 17321 bound_to 7965
  140.6471  143.2216  151.6161 LP  0  0  0  0  0  0  0  0  0  0  0  0  # atno 17342 bound_to 10162
  139.5265  144.3043  152.1047 LP  0  0  0  0  0  0  0  0  0  0  0  0  # atno 17343 bound_to 10162
  156.1375  130.6221  151.0421 LP  0  0  0  0  0  0  0  0  0  0  0  0  # atno 17370 bound_to 10713
  157.6759  131.0850  150.7495 LP  0  0  0  0  0  0  0  0  0  0  0  0  # atno 17371 bound_to 10713
  140.8607  133.8061  155.9263 LP  0  0  0  0  0  0  0  0  0  0  0  0  # atno 17394 bound_to 11000
  140.9052  134.2329  157.5019 LP  0  0  0  0  0  0  0  0  0  0  0  0  # atno 17395 bound_to 11000

$$$$
