AV-unprocessed.smi:1014|AV-procd|sdf|4430|dock4
  -GOLD-   22720 2383D 1   1.00000     0.00000
 Structure written by MMmdl.
 34 34  0  0  0  0  0  0  0  0  2 V2000
  150.8365  139.3927  157.9179 C   0  0  0  0  0  0  0  0  0  0  0  0
  149.8819  140.5957  157.9678 C   0  0  0  0  0  0  0  0  0  0  0  0
  150.2717  141.7649  157.0372 C   0  0  2  0  0  0  0  0  0  0  0  0
  149.5299  142.9788  157.4475 N   0  3  0  0  0  0  0  0  0  0  0  0
  149.9892  143.6099  158.7048 C   0  0  0  0  0  0  0  0  0  0  0  0
  151.4896  143.9405  158.6559 C   0  0  0  0  0  0  0  0  0  0  0  0
  152.2112  143.3954  159.7920 N   0  0  0  0  0  0  0  0  0  0  0  0
  152.1255  143.7635  161.1179 C   0  0  0  0  0  0  0  0  0  0  0  0
  152.9949  142.9774  161.8200 C   0  0  0  0  0  0  0  0  0  0  0  0
  153.2823  142.9784  163.2938 C   0  0  0  0  0  0  0  0  0  0  0  0
  153.5727  142.1468  160.8184 C   0  0  0  0  0  0  0  0  0  0  0  0
  153.1036  142.3995  159.6073 N   0  0  0  0  0  0  0  0  0  0  0  0
  149.9988  141.4251  155.5629 C   0  0  0  0  0  0  0  0  0  0  0  0
  149.1981  142.2495  154.8825 N   0  0  0  0  0  0  0  0  0  0  0  0
  150.5103  140.4348  155.0435 O   0  0  0  0  0  0  0  0  0  0  0  0
  150.5408  138.6372  158.6463 H   0  0  0  0  0  0  0  0  0  0  0  0
  151.8589  139.6921  158.1493 H   0  0  0  0  0  0  0  0  0  0  0  0
  150.8378  138.9155  156.9380 H   0  0  0  0  0  0  0  0  0  0  0  0
  148.8674  140.2615  157.7444 H   0  0  0  0  0  0  0  0  0  0  0  0
  149.8549  140.9583  158.9964 H   0  0  0  0  0  0  0  0  0  0  0  0
  151.3369  141.9634  157.1702 H   0  0  0  0  0  0  0  0  0  0  0  0
  149.5780  143.6552  156.6985 H   0  0  0  0  0  0  0  0  0  0  0  0
  149.4157  144.5186  158.8935 H   0  0  0  0  0  0  0  0  0  0  0  0
  149.7965  142.9328  159.5375 H   0  0  0  0  0  0  0  0  0  0  0  0
  151.9276  143.5260  157.7470 H   0  0  0  0  0  0  0  0  0  0  0  0
  151.6490  145.0192  158.6138 H   0  0  0  0  0  0  0  0  0  0  0  0
  151.4604  144.5470  161.4502 H   0  0  0  0  0  0  0  0  0  0  0  0
  153.5665  141.9882  163.6506 H   0  0  0  0  0  0  0  0  0  0  0  0
  152.4151  143.2912  163.8760 H   0  0  0  0  0  0  0  0  0  0  0  0
  154.0985  143.6567  163.5429 H   0  0  0  0  0  0  0  0  0  0  0  0
  154.3163  141.3723  160.9355 H   0  0  0  0  0  0  0  0  0  0  0  0
  148.9824  142.0647  153.9134 H   0  0  0  0  0  0  0  0  0  0  0  0
  148.8022  143.0561  155.3443 H   0  0  0  0  0  0  0  0  0  0  0  0
  148.5626  142.7195  157.5808 H   0  0  0  0  0  0  0  0  0  0  0  0
  1  2  1  0  0  0  0
  1 16  1  0  0  0  0
  1 17  1  0  0  0  0
  1 18  1  0  0  0  0
  2  3  1  0  0  0  0
  2 19  1  0  0  0  0
  2 20  1  0  0  0  0
  3  4  1  0  0  0  0
  3 13  1  0  0  0  0
  3 21  1  0  0  0  0
  4  5  1  0  0  0  0
  4 22  1  0  0  0  0
  4 34  1  0  0  0  0
  5  6  1  0  0  0  0
  5 23  1  0  0  0  0
  5 24  1  0  0  0  0
  6  7  1  0  0  0  0
  6 25  1  0  0  0  0
  6 26  1  0  0  0  0
  7 12  1  0  0  0  0
  7  8  1  0  0  0  0
  8  9  2  0  0  0  0
  8 27  1  0  0  0  0
  9 10  1  0  0  0  0
  9 11  1  0  0  0  0
 10 28  1  0  0  0  0
 10 29  1  0  0  0  0
 10 30  1  0  0  0  0
 11 12  2  0  0  0  0
 11 31  1  0  0  0  0
 13 14  1  0  0  0  0
 13 15  2  0  0  0  0
 14 32  1  0  0  0  0
 14 33  1  0  0  0  0
M  CHG  1   4   1
M  END
> <s_m_source_file>
AV-unprocessed.smi

> <i_m_source_file_index>
1014

> <i_lp_mmshare_version>
43012

> <i_f3d_flags>
0

> <s_epik_input>
W0NIM11bQ0gyXVtDQEBIXShDKD1PKVtOSDJdKVtOSF1bQ0gyXVtDSDJdbjFbY0hdYyhbQ0gzXSlbY0hdbjE=

> <s_epik_cmdline>
J2VwaWtfcHl0aG9uJywgJy1waCcsICc3LjAnLCAnLXRuJywgJzgnLCAnLW1hJywgJzIwMCcsICctbWV0YWxfYmluZGluZycsICctaW1hZScsICc8aW5maWxlLm1hZT4nLCAnLW9tYWUnLCAnPG91dGZpbGUubWFlPic=

> <r_lp_tautomer_probability>
1

> <r_epik_Ionization_Penalty>
0.19042

> <r_epik_Ionization_Penalty_Charging>
0.190412

> <r_epik_Ionization_Penalty_Neutral>
7.5834e-06

> <r_epik_State_Penalty>
0.180404

> <r_epik_Charging_Adjusted_Penalty>
0.370816

> <i_epik_Tot_Q>
1

> <i_epik_Tot_abs_Q>
1

> <r_epik_Metal_State_Penalty>
0.180563

> <b_epik_Metal_Only>
0

> <s_lp_Force_Field>
OPLS_2005

> <r_lp_Energy>
2.67467

> <b_lp_Chiralities_Consistent>
1

> <s_lp_Variant>
AV-unprocessed.smi:1014-1

> <Gold.Version>
5.8.1

> <Gold.Id.Protein>
6NUR|6NUR_protein|mol2

> <Gold.PLP.Fitness>
47.6166

> <Gold.PLP.PLP>
-36.8541

> <Gold.PLP.part.hbond>
-3.0000

> <Gold.PLP.part.metal>
0.0000

> <Gold.PLP.part.buried>
-6.5712

> <Gold.PLP.part.nonpolar>
-27.5542

> <Gold.PLP.part.repulsive>
0.6005

> <Gold.PLP.ligand.clash>
0.0000

> <Gold.PLP.ligand.torsion>
0.6524

> <Gold.PLP.Chemscore.Hbond>
3.9920

> <Gold.PLP.Chemscore.CHOScore>
0.0000

> <Gold.PLP.Chemscore.Metal>
0.0000

> <Gold.Chemscore.Hbonds>
donor molecule, donor type, donor heavy atom, donor atom, acceptor molecule, acceptor atom, score
      L1  H     4    22       P1  8028  2.00
      L1  H    14    33       P1  8028  0.96
      P1  H  7989  7998       L1    15  1.00

> <Gold.PLP.Chemscore.Internal.Correction>
0.0913

> <Gold.Rescore>
     Score         DG    S(hbond)    S(metal)    S(lipo)     H(rot)  DE(clash)    DE(int)     intcor
     16.36     -16.95       2.66        0.00      78.81       2.59       0.00       0.59       ----

> <Gold.Chemscore.Fitness>
16.3599

> <Gold.Chemscore.DG>
-16.9535

> <Gold.Chemscore.ZeroCoef>
-5.4800

> <Gold.Chemscore.Hbond>
2.6581

> <Gold.Chemscore.Metal>
0.0000

> <Gold.Chemscore.Lipo>
78.8054

> <Gold.Chemscore.Internal_Hbond>
0.0000

> <Gold.Chemscore.DEClash>
0.0029

> <Gold.Chemscore.DEInternal>
0.5907

> <Gold.Chemscore.Rot>
2.5878

> <Gold.Chemscore.Internal.Correction>
   9.000000E+99

> <Gold.Chemscore.Hbonds>
donor molecule, donor type, donor heavy atom, donor atom, acceptor molecule, acceptor atom, score
      L1  H     4    22       P1  8028  0.95
      L1  H    14    33       P1  8028  0.92
      P1  H  7989  7998       L1    15  0.81

> <Gold.Chemscore.Hbond.Weighted>
-8.8780

> <Gold.Chemscore.Metal.Weighted>
-0.0000

> <Gold.Chemscore.Lipo.Weighted>
-9.2202

> <Gold.Chemscore.Internal_Hbond.Weighted>
0.0000

> <Gold.Chemscore.DEClash.Weighted>
0.0029

> <Gold.Chemscore.DEInternal.Weighted>
0.5907

> <Gold.Chemscore.Rot.Weighted>
6.6247

> <Gold.Chemscore.Internal.Correction.Weighted>
   9.000000E+99

> <Gold.Protein.RotatedTorsions>
[ 6907 6896 6895 6894 ] final   96.48 input  -60.11 | X-H torsion
[ 7974 7965 7964 7962 ] final  -34.69 input  175.53 | X-H torsion
[ 8008 7997 7996 7995 ] final  139.89 input   59.86 | X-H torsion
[ 10167 10162 10161 10158 ] final -137.54 input  -65.29 | X-H torsion
[ 10718 10713 10712 10709 ] final  -97.94 input   66.30 | X-H torsion
[ 10763 10752 10751 10750 ] final   92.33 input  -60.55 | X-H torsion
[ 11005 11000 10999 10996 ] final   63.98 input  -57.11 | X-H torsion

> <Gold.Protein.ActiveResidues>
 VAL166  LYS551  ARG553  GLY616  TRP617  ASP618  TYR619  PRO620  LYS621  CYS622 
 ASP623  PHE694  ASN695  SER759  ASP760  ASP761  ALA762  ILE779  LEU786  VAL792 
 PHE793  MET794  SER795  GLU796  ALA797  LYS798  CYS799  TRP800  GLU811  SER814 

> <Gold.Protein.RotatedAtoms>
  152.5434  134.0879  159.8263 H   0  0  0  0  0  0  0  0  0  0  0  0  # atno 6907 bound_to 6896
  151.0973  133.5263  159.2619 H   0  0  0  0  0  0  0  0  0  0  0  0  # atno 6908 bound_to 6896
  151.2032  135.0460  159.8935 H   0  0  0  0  0  0  0  0  0  0  0  0  # atno 6909 bound_to 6896
  146.0808  140.6069  142.8909 H   0  0  0  0  0  0  0  0  0  0  0  0  # atno 7974 bound_to 7965
  156.2985  140.2356  156.4311 H   0  0  0  0  0  0  0  0  0  0  0  0  # atno 8008 bound_to 7997
  154.8269  140.0435  157.1470 H   0  0  0  0  0  0  0  0  0  0  0  0  # atno 8009 bound_to 7997
  154.9251  140.3009  155.5200 H   0  0  0  0  0  0  0  0  0  0  0  0  # atno 8010 bound_to 7997
  139.8567  143.7129  152.2653 H   0  0  0  0  0  0  0  0  0  0  0  0  # atno 10167 bound_to 10162
  156.0095  130.5216  150.6449 H   0  0  0  0  0  0  0  0  0  0  0  0  # atno 10718 bound_to 10713
  153.2179  135.4365  155.0456 H   0  0  0  0  0  0  0  0  0  0  0  0  # atno 10763 bound_to 10752
  154.8235  135.3349  154.6970 H   0  0  0  0  0  0  0  0  0  0  0  0  # atno 10764 bound_to 10752
  153.7404  135.7005  153.5024 H   0  0  0  0  0  0  0  0  0  0  0  0  # atno 10765 bound_to 10752
  139.9988  134.6474  155.9964 H   0  0  0  0  0  0  0  0  0  0  0  0  # atno 11005 bound_to 11000
  144.7292  140.4620  143.6950 LP  0  0  0  0  0  0  0  0  0  0  0  0  # atno 17320 bound_to 7965
  145.6221  139.1525  143.3017 LP  0  0  0  0  0  0  0  0  0  0  0  0  # atno 17321 bound_to 7965
  139.7413  144.7559  151.0648 LP  0  0  0  0  0  0  0  0  0  0  0  0  # atno 17342 bound_to 10162
  140.7780  143.4969  150.9821 LP  0  0  0  0  0  0  0  0  0  0  0  0  # atno 17343 bound_to 10162
  157.4222  131.0838  151.1120 LP  0  0  0  0  0  0  0  0  0  0  0  0  # atno 17370 bound_to 10713
  157.1719  130.6271  149.5643 LP  0  0  0  0  0  0  0  0  0  0  0  0  # atno 17371 bound_to 10713
  141.1626  133.6538  156.4370 LP  0  0  0  0  0  0  0  0  0  0  0  0  # atno 17394 bound_to 11000
  140.4766  134.6703  157.5153 LP  0  0  0  0  0  0  0  0  0  0  0  0  # atno 17395 bound_to 11000

$$$$
